=
 OpenBabel11072414503D

 47 51  0  0  1  0  0  0  0  0999 V2000
  160.7990  209.8700  154.1340 C   0  0  2  0  0  3  0  0  0  0  0  0
  160.5350  211.9950  156.3780 C   0  0  0  0  0  2  0  0  0  0  0  0
  161.4150  209.7950  155.5440 C   0  0  1  0  0  3  0  0  0  0  0  0
  158.6040  211.1100  154.9700 C   0  0  0  0  0  2  0  0  0  0  0  0
  159.1200  212.2400  155.8630 C   0  0  1  0  0  3  0  0  0  0  0  0
  159.5580  210.7410  153.8300 C   0  0  1  0  0  3  0  0  0  0  0  0
  160.7460  210.5280  156.7030 C   0  0  0  0  0  2  0  0  0  0  0  0
  160.4690  208.7100  155.0520 C   0  0  2  0  0  3  0  0  0  0  0  0
  158.2510  212.4070  156.9400 O   0  0  0  0  0  1  0  0  0  0  0  0
  161.2670  207.4910  154.6340 C   0  0  0  0  0  2  0  0  0  0  0  0
  160.4130  206.5670  154.0290 O   0  0  0  0  0  0  0  0  0  0  0  0
  161.2470  205.5990  153.4630 C   0  0  2  0  0  3  0  0  0  0  0  0
  162.5000  206.1520  153.1850 O   0  0  0  0  0  1  0  0  0  0  0  0
  160.6200  205.0400  152.1880 C   0  0  0  0  0  2  0  0  0  0  0  0
  161.8440  203.0610  151.5970 O   0  0  0  0  0  1  0  0  0  0  0  0
  161.6470  204.4000  151.2520 C   0  0  1  0  0  3  0  0  0  0  0  0
  160.9840  205.8290  149.3190 C   0  0  0  0  0  0  0  0  0  0  0  0
  160.7820  200.7580  146.2450 N   0  0  0  0  0  1  0  0  0  0  0  0
  161.1010  203.3180  149.0430 C   0  0  0  0  0  0  0  0  0  0  0  0
  160.9010  201.5890  147.3950 C   0  0  0  0  0  0  0  0  0  0  0  0
  160.9250  203.2670  147.3590 S   0  0  0  0  0  0  0  0  0  0  0  0
  161.0370  201.1070  148.6460 N   0  0  0  0  0  0  0  0  0  0  0  0
  161.2490  204.5110  149.8440 N   0  0  0  0  0  0  0  0  0  0  0  0
  160.3430  205.9810  148.2460 O   0  0  0  0  0  0  0  0  0  0  0  0
  161.1540  202.0680  149.5610 N   0  0  0  0  0  0  0  0  0  0  0  0
  161.4580  207.0520  150.0380 C   0  0  0  0  0  2  0  0  0  0  0  0
  162.1560  207.9730  149.0920 C   0  0  0  0  0  0  0  0  0  0  0  0
  162.9280  207.5230  148.2610 O   0  0  0  0  0  0  0  0  0  0  0  0
  162.0920  209.8930  150.6450 C   0  0  0  0  0  1  0  0  0  0  0  0
  161.9500  209.4480  149.2020 C   0  0  0  0  0  2  0  0  0  0  0  0
  159.9880  212.1770  152.7920 S   0  0  0  0  0  0  0  0  0  0  0  0
  158.2800  212.4220  152.2230 C   0  0  0  0  0  2  0  0  0  0  0  0
  158.2000  213.6000  151.4310 O   0  0  0  0  0  0  0  0  0  0  0  0
  158.1310  213.5170  147.2340 C   0  0  0  0  0  3  0  0  0  0  0  0
  159.3600  213.6510  147.8980 C   0  0  0  0  0  0  0  0  0  0  0  0
  156.9460  213.4080  147.9640 C   0  0  0  0  0  3  0  0  0  0  0  0
  156.9810  213.4350  149.3610 C   0  0  0  0  0  3  0  0  0  0  0  0
  159.3880  213.6780  149.2950 C   0  0  0  0  0  3  0  0  0  0  0  0
  158.1990  213.5690  150.0350 C   0  0  0  0  0  0  0  0  0  0  0  0
  160.5870  213.7780  147.1720 N   0  0  0  0  0  2  0  0  0  0  0  0
  162.4510  213.5610  145.2660 S   0  0  0  0  0  0  0  0  0  0  0  0
  160.6970  213.5570  145.7380 C   0  0  1  0  0  3  0  0  0  0  0  0
  159.8920  212.1110  143.8690 C   0  0  0  0  0  2  0  0  0  0  0  0
  161.1360  212.3170  143.1340 N   0  0  0  0  0  2  0  0  0  0  0  0
  162.9590  214.0920  142.3970 S   0  0  0  0  0  0  0  0  0  0  0  0
  160.1030  212.2010  145.3760 C   0  0  0  0  0  2  0  0  0  0  0  0
  162.0900  213.3040  143.5300 C   0  0  0  0  0  0  0  0  0  0  0  0
  1  8  1  0  0  0  0
  1  3  1  0  0  0  0
  2  7  1  0  0  0  0
  3  7  1  0  0  0  0
  4  5  1  0  0  0  0
  5  2  1  0  0  0  0
  5  9  1  0  0  0  0
  6  1  1  0  0  0  0
  6  4  1  0  0  0  0
  8  3  1  0  0  0  0
 10  8  1  0  0  0  0
 11 10  1  0  0  0  0
 12 11  1  0  0  0  0
 13 12  1  0  0  0  0
 14 12  1  0  0  0  0
 16 15  1  0  0  0  0
 16 14  1  0  0  0  0
 17 23  1  0  0  0  0
 17 26  1  0  0  0  0
 18 20  1  0  0  0  0
 19 25  2  0  0  0  0
 19 23  1  0  0  0  0
 20 22  2  0  0  0  0
 21 20  1  0  0  0  0
 21 19  1  0  0  0  0
 22 25  1  0  0  0  0
 23 16  1  0  0  0  0
 24 17  2  0  0  0  0
 27 30  1  0  0  0  0
 27 26  1  0  0  0  0
 28 27  2  0  0  0  0
 30 29  1  0  0  0  0
 31  6  1  0  0  0  0
 32 31  1  0  0  0  0
 33 32  1  0  0  0  0
 34 35  2  0  0  0  0
 34 36  1  0  0  0  0
 35 38  1  0  0  0  0
 36 37  2  0  0  0  0
 37 39  1  0  0  0  0
 38 39  2  0  0  0  0
 39 33  1  0  0  0  0
 40 35  1  0  0  0  0
 41 42  1  0  0  0  0
 42 40  1  0  0  0  0
 43 46  1  0  0  0  0
 44 47  1  0  0  0  0
 44 43  1  0  0  0  0
 45 47  2  0  0  0  0
 46 42  1  0  0  0  0
 47 41  1  0  0  0  0
M  END
>  <MODEL>
1

>  <REMARK>
 VINA RESULT:      -7.5      0.000      0.000
  Name = 
  15 active torsions:
  status: ('A' for Active; 'I' for Inactive)
    1  A    between atoms: C_1  and  C_41
    2  A    between atoms: C_4  and  N_44
    3  A    between atoms: C_7  and  N_44
    4  A    between atoms: O_8  and  C_11
    5  A    between atoms: O_8  and  C_40
    6  A    between atoms: C_11  and  S_26
    7  A    between atoms: C_13  and  C_41
    8  A    between atoms: C_13  and  C_42
    9  A    between atoms: C_15  and  C_34
   10  A    between atoms: C_15  and  N_36
   11  A    between atoms: C_21  and  C_34
   12  A    between atoms: C_21  and  O_39
   13  A    between atoms: C_24  and  C_38
   14  A    between atoms: C_24  and  O_39
   15  A    between atoms: S_26  and  C_30
                            x       y       z     vdW  Elec       q    Type
                         _______ _______ _______ _____ _____    ______ ____

>  <TORSDO>
F 15

$$$$
=
 OpenBabel11072414503D

 47 51  0  0  1  0  0  0  0  0999 V2000
  161.4450  212.8720  146.7800 C   0  0  2  0  0  3  0  0  0  0  0  0
  158.8030  214.4530  147.1580 C   0  0  0  0  0  2  0  0  0  0  0  0
  160.8410  213.3420  148.1170 C   0  0  1  0  0  3  0  0  0  0  0  0
  159.0760  212.3960  145.6780 C   0  0  0  0  0  2  0  0  0  0  0  0
  158.2530  213.6490  145.9830 C   0  0  1  0  0  3  0  0  0  0  0  0
  160.5740  212.6660  145.5190 C   0  0  1  0  0  3  0  0  0  0  0  0
  159.3330  213.5330  148.2420 C   0  0  0  0  0  2  0  0  0  0  0  0
  161.1200  211.8670  147.8660 C   0  0  2  0  0  3  0  0  0  0  0  0
  156.9350  213.2810  146.2430 O   0  0  0  0  0  1  0  0  0  0  0  0
  162.3950  211.4620  148.5790 C   0  0  0  0  0  2  0  0  0  0  0  0
  162.5280  210.0730  148.5300 O   0  0  0  0  0  0  0  0  0  0  0  0
  161.8990  209.5950  149.6830 C   0  0  2  0  0  3  0  0  0  0  0  0
  162.3550  210.2960  150.8010 O   0  0  0  0  0  1  0  0  0  0  0  0
  162.1630  208.1000  149.8490 C   0  0  0  0  0  2  0  0  0  0  0  0
  160.4230  206.8100  148.8150 O   0  0  0  0  0  1  0  0  0  0  0  0
  160.8820  207.2880  150.0440 C   0  0  1  0  0  3  0  0  0  0  0  0
  161.2900  206.4990  152.3750 C   0  0  0  0  0  0  0  0  0  0  0  0
  160.9370  201.0370  150.0820 N   0  0  0  0  0  1  0  0  0  0  0  0
  161.0810  204.8170  150.4970 C   0  0  0  0  0  0  0  0  0  0  0  0
  161.0030  202.4590  150.0740 C   0  0  0  0  0  0  0  0  0  0  0  0
  161.0100  203.4200  151.4510 S   0  0  0  0  0  0  0  0  0  0  0  0
  161.0390  203.1920  148.9450 N   0  0  0  0  0  0  0  0  0  0  0  0
  161.0750  206.1770  150.9840 N   0  0  0  0  0  0  0  0  0  0  0  0
  161.7720  205.6480  153.1680 O   0  0  0  0  0  0  0  0  0  0  0  0
  161.0760  204.5030  149.1800 N   0  0  0  0  0  0  0  0  0  0  0  0
  160.9500  207.8530  152.9110 C   0  0  0  0  0  2  0  0  0  0  0  0
  160.8410  207.8090  154.4000 C   0  0  0  0  0  0  0  0  0  0  0  0
  160.2000  206.9210  154.9380 O   0  0  0  0  0  0  0  0  0  0  0  0
  161.5800  210.1660  154.4210 C   0  0  0  0  0  1  0  0  0  0  0  0
  161.4700  208.8840  155.2240 C   0  0  0  0  0  2  0  0  0  0  0  0
  160.9210  213.9330  144.2530 S   0  0  0  0  0  0  0  0  0  0  0  0
  160.1110  212.9920  142.9260 C   0  0  0  0  0  2  0  0  0  0  0  0
  160.9170  211.8790  142.5640 O   0  0  0  0  0  0  0  0  0  0  0  0
  161.6000  210.7300  138.5840 C   0  0  0  0  0  3  0  0  0  0  0  0
  160.2870  210.7460  139.0770 C   0  0  0  0  0  0  0  0  0  0  0  0
  162.6660  211.0980  139.4080 C   0  0  0  0  0  3  0  0  0  0  0  0
  162.4270  211.4800  140.7310 C   0  0  0  0  0  3  0  0  0  0  0  0
  160.0550  211.1290  140.4010 C   0  0  0  0  0  3  0  0  0  0  0  0
  161.1220  211.4980  141.2360 C   0  0  0  0  0  0  0  0  0  0  0  0
  159.1800  210.3600  138.2570 N   0  0  0  0  0  2  0  0  0  0  0  0
  157.1050  212.0490  138.2560 S   0  0  0  0  0  0  0  0  0  0  0  0
  157.7940  210.4270  138.6960 C   0  0  1  0  0  3  0  0  0  0  0  0
  155.6330  209.1770  138.6960 C   0  0  0  0  0  2  0  0  0  0  0  0
  154.8770  210.4260  138.7300 N   0  0  0  0  0  2  0  0  0  0  0  0
  154.7110  212.8390  139.8090 S   0  0  0  0  0  0  0  0  0  0  0  0
  156.9770  209.3480  137.9960 C   0  0  0  0  0  2  0  0  0  0  0  0
  155.5090  211.6810  138.9820 C   0  0  0  0  0  0  0  0  0  0  0  0
  1  8  1  0  0  0  0
  1  3  1  0  0  0  0
  2  7  1  0  0  0  0
  3  7  1  0  0  0  0
  4  5  1  0  0  0  0
  5  9  1  0  0  0  0
  5  2  1  0  0  0  0
  6  4  1  0  0  0  0
  6  1  1  0  0  0  0
  8  3  1  0  0  0  0
  8 10  1  0  0  0  0
 11 10  1  0  0  0  0
 11 12  1  0  0  0  0
 12 14  1  0  0  0  0
 12 13  1  0  0  0  0
 14 16  1  0  0  0  0
 15 16  1  0  0  0  0
 16 23  1  0  0  0  0
 17 26  1  0  0  0  0
 17 24  2  0  0  0  0
 19 23  1  0  0  0  0
 19 21  1  0  0  0  0
 20 18  1  0  0  0  0
 20 21  1  0  0  0  0
 22 25  1  0  0  0  0
 22 20  2  0  0  0  0
 23 17  1  0  0  0  0
 25 19  2  0  0  0  0
 26 27  1  0  0  0  0
 27 28  2  0  0  0  0
 27 30  1  0  0  0  0
 29 30  1  0  0  0  0
 31  6  1  0  0  0  0
 32 31  1  0  0  0  0
 33 32  1  0  0  0  0
 34 35  2  0  0  0  0
 34 36  1  0  0  0  0
 35 38  1  0  0  0  0
 36 37  2  0  0  0  0
 37 39  1  0  0  0  0
 38 39  2  0  0  0  0
 39 33  1  0  0  0  0
 40 42  1  0  0  0  0
 40 35  1  0  0  0  0
 41 42  1  0  0  0  0
 41 47  1  0  0  0  0
 43 44  1  0  0  0  0
 44 47  1  0  0  0  0
 46 43  1  0  0  0  0
 46 42  1  0  0  0  0
 47 45  2  0  0  0  0
M  END
>  <MODEL>
2

>  <REMARK>
 VINA RESULT:      -7.4      3.825      7.435
  Name = 
  15 active torsions:
  status: ('A' for Active; 'I' for Inactive)
    1  A    between atoms: C_1  and  C_41
    2  A    between atoms: C_4  and  N_44
    3  A    between atoms: C_7  and  N_44
    4  A    between atoms: O_8  and  C_11
    5  A    between atoms: O_8  and  C_40
    6  A    between atoms: C_11  and  S_26
    7  A    between atoms: C_13  and  C_41
    8  A    between atoms: C_13  and  C_42
    9  A    between atoms: C_15  and  C_34
   10  A    between atoms: C_15  and  N_36
   11  A    between atoms: C_21  and  C_34
   12  A    between atoms: C_21  and  O_39
   13  A    between atoms: C_24  and  C_38
   14  A    between atoms: C_24  and  O_39
   15  A    between atoms: S_26  and  C_30
                            x       y       z     vdW  Elec       q    Type
                         _______ _______ _______ _____ _____    ______ ____

>  <TORSDO>
F 15

$$$$
=
 OpenBabel11072414503D

 47 51  0  0  1  0  0  0  0  0999 V2000
  160.6640  210.3050  153.5600 C   0  0  2  0  0  3  0  0  0  0  0  0
  160.2290  212.4680  155.7390 C   0  0  0  0  0  2  0  0  0  0  0  0
  161.2020  210.2730  155.0030 C   0  0  1  0  0  3  0  0  0  0  0  0
  158.3990  211.5100  154.2460 C   0  0  0  0  0  2  0  0  0  0  0  0
  158.8390  212.6700  155.1420 C   0  0  1  0  0  3  0  0  0  0  0  0
  159.4230  211.1410  153.1690 C   0  0  1  0  0  3  0  0  0  0  0  0
  160.4540  211.0120  156.1070 C   0  0  0  0  0  2  0  0  0  0  0  0
  160.3090  209.1560  154.4820 C   0  0  2  0  0  3  0  0  0  0  0  0
  157.9090  212.8370  156.1650 O   0  0  0  0  0  1  0  0  0  0  0  0
  161.1560  207.9480  154.1350 C   0  0  0  0  0  2  0  0  0  0  0  0
  160.3560  206.8040  154.1550 O   0  0  0  0  0  0  0  0  0  0  0  0
  161.2020  205.7480  153.8070 C   0  0  2  0  0  3  0  0  0  0  0  0
  162.4870  206.2310  153.5480 O   0  0  0  0  0  1  0  0  0  0  0  0
  160.6560  205.0110  152.5860 C   0  0  0  0  0  2  0  0  0  0  0  0
  161.8790  203.2040  151.5850 O   0  0  0  0  0  1  0  0  0  0  0  0
  161.7530  204.5940  151.6040 C   0  0  1  0  0  3  0  0  0  0  0  0
  160.9980  204.1750  149.2640 C   0  0  0  0  0  0  0  0  0  0  0  0
  161.9780  209.9650  148.4110 N   0  0  0  0  0  1  0  0  0  0  0  0
  161.7830  206.4830  149.9360 C   0  0  0  0  0  0  0  0  0  0  0  0
  161.9950  208.7210  149.1050 C   0  0  0  0  0  0  0  0  0  0  0  0
  161.3000  207.3030  148.5350 S   0  0  0  0  0  0  0  0  0  0  0  0
  162.5530  208.5590  150.3200 N   0  0  0  0  0  0  0  0  0  0  0  0
  161.4980  205.1020  150.2510 N   0  0  0  0  0  0  0  0  0  0  0  0
  161.0590  204.4430  148.0360 O   0  0  0  0  0  0  0  0  0  0  0  0
  162.4300  207.3170  150.7850 N   0  0  0  0  0  0  0  0  0  0  0  0
  160.3980  202.8670  149.6740 C   0  0  0  0  0  2  0  0  0  0  0  0
  160.8710  201.7740  148.7730 C   0  0  0  0  0  0  0  0  0  0  0  0
  161.9430  201.2310  148.9840 O   0  0  0  0  0  0  0  0  0  0  0  0
  160.7800  201.7590  146.3040 C   0  0  0  0  0  1  0  0  0  0  0  0
  160.0550  201.3860  147.5830 C   0  0  0  0  0  2  0  0  0  0  0  0
  159.8790  212.5660  152.1260 S   0  0  0  0  0  0  0  0  0  0  0  0
  158.1670  212.8740  151.6000 C   0  0  0  0  0  2  0  0  0  0  0  0
  158.1420  213.9020  150.6190 O   0  0  0  0  0  0  0  0  0  0  0  0
  158.2760  213.0830  146.5030 C   0  0  0  0  0  3  0  0  0  0  0  0
  159.2980  213.8490  147.0830 C   0  0  0  0  0  0  0  0  0  0  0  0
  157.2300  212.5950  147.2890 C   0  0  0  0  0  3  0  0  0  0  0  0
  157.1960  212.8720  148.6580 C   0  0  0  0  0  3  0  0  0  0  0  0
  159.2580  214.1230  148.4530 C   0  0  0  0  0  3  0  0  0  0  0  0
  158.2080  213.6370  149.2490 C   0  0  0  0  0  0  0  0  0  0  0  0
  160.3730  214.3710  146.2980 N   0  0  0  0  0  2  0  0  0  0  0  0
  160.1480  213.7250  143.7110 S   0  0  0  0  0  0  0  0  0  0  0  0
  161.0660  213.6030  145.2740 C   0  0  1  0  0  3  0  0  0  0  0  0
  163.3100  213.1790  144.2670 C   0  0  0  0  0  2  0  0  0  0  0  0
  162.7040  212.8570  142.9790 N   0  0  0  0  0  2  0  0  0  0  0  0
  160.7320  211.5730  141.7630 S   0  0  0  0  0  0  0  0  0  0  0  0
  162.4640  214.1690  145.0600 C   0  0  0  0  0  2  0  0  0  0  0  0
  161.2960  212.6630  142.8370 C   0  0  0  0  0  0  0  0  0  0  0  0
  1  8  1  0  0  0  0
  1  3  1  0  0  0  0
  2  7  1  0  0  0  0
  3  7  1  0  0  0  0
  4  5  1  0  0  0  0
  5  2  1  0  0  0  0
  5  9  1  0  0  0  0
  6  1  1  0  0  0  0
  6  4  1  0  0  0  0
  8  3  1  0  0  0  0
 10 11  1  0  0  0  0
 10  8  1  0  0  0  0
 12 11  1  0  0  0  0
 13 12  1  0  0  0  0
 14 12  1  0  0  0  0
 15 16  1  0  0  0  0
 16 14  1  0  0  0  0
 17 26  1  0  0  0  0
 17 23  1  0  0  0  0
 18 20  1  0  0  0  0
 19 23  1  0  0  0  0
 19 25  2  0  0  0  0
 20 22  2  0  0  0  0
 21 20  1  0  0  0  0
 21 19  1  0  0  0  0
 22 25  1  0  0  0  0
 23 16  1  0  0  0  0
 24 17  2  0  0  0  0
 27 28  2  0  0  0  0
 27 26  1  0  0  0  0
 29 30  1  0  0  0  0
 30 27  1  0  0  0  0
 31  6  1  0  0  0  0
 32 31  1  0  0  0  0
 33 32  1  0  0  0  0
 34 35  2  0  0  0  0
 34 36  1  0  0  0  0
 35 38  1  0  0  0  0
 36 37  2  0  0  0  0
 37 39  1  0  0  0  0
 38 39  2  0  0  0  0
 39 33  1  0  0  0  0
 40 35  1  0  0  0  0
 41 42  1  0  0  0  0
 42 40  1  0  0  0  0
 43 46  1  0  0  0  0
 44 43  1  0  0  0  0
 45 47  2  0  0  0  0
 46 42  1  0  0  0  0
 47 44  1  0  0  0  0
 47 41  1  0  0  0  0
M  END
>  <MODEL>
3

>  <REMARK>
 VINA RESULT:      -7.2      1.786      3.551
  Name = 
  15 active torsions:
  status: ('A' for Active; 'I' for Inactive)
    1  A    between atoms: C_1  and  C_41
    2  A    between atoms: C_4  and  N_44
    3  A    between atoms: C_7  and  N_44
    4  A    between atoms: O_8  and  C_11
    5  A    between atoms: O_8  and  C_40
    6  A    between atoms: C_11  and  S_26
    7  A    between atoms: C_13  and  C_41
    8  A    between atoms: C_13  and  C_42
    9  A    between atoms: C_15  and  C_34
   10  A    between atoms: C_15  and  N_36
   11  A    between atoms: C_21  and  C_34
   12  A    between atoms: C_21  and  O_39
   13  A    between atoms: C_24  and  C_38
   14  A    between atoms: C_24  and  O_39
   15  A    between atoms: S_26  and  C_30
                            x       y       z     vdW  Elec       q    Type
                         _______ _______ _______ _____ _____    ______ ____

>  <TORSDO>
F 15

$$$$
=
 OpenBabel11072414503D

 47 51  0  0  1  0  0  0  0  0999 V2000
  162.1690  206.9960  149.5050 C   0  0  2  0  0  3  0  0  0  0  0  0
  162.6390  204.5270  147.6870 C   0  0  0  0  0  2  0  0  0  0  0  0
  162.6740  207.0120  148.0500 C   0  0  1  0  0  3  0  0  0  0  0  0
  160.5590  204.9220  149.1060 C   0  0  0  0  0  2  0  0  0  0  0  0
  161.4270  203.9000  148.3710 C   0  0  1  0  0  3  0  0  0  0  0  0
  161.3440  205.8170  150.0700 C   0  0  1  0  0  3  0  0  0  0  0  0
  162.2870  205.8820  147.1000 C   0  0  0  0  0  2  0  0  0  0  0  0
  161.4110  207.7640  148.4410 C   0  0  2  0  0  3  0  0  0  0  0  0
  160.6500  203.2320  147.4260 O   0  0  0  0  0  1  0  0  0  0  0  0
  161.7180  209.2430  148.5690 C   0  0  0  0  0  2  0  0  0  0  0  0
  162.0590  209.5290  149.8930 O   0  0  0  0  0  0  0  0  0  0  0  0
  162.1480  210.9220  149.9650 C   0  0  2  0  0  3  0  0  0  0  0  0
  161.2990  211.4030  150.9640 O   0  0  0  0  0  1  0  0  0  0  0  0
  161.7890  211.5460  148.6180 C   0  0  0  0  0  2  0  0  0  0  0  0
  162.3460  213.8480  148.2290 O   0  0  0  0  0  1  0  0  0  0  0  0
  161.3540  213.0070  148.7370 C   0  0  1  0  0  3  0  0  0  0  0  0
  160.0700  213.2610  146.6140 C   0  0  0  0  0  0  0  0  0  0  0  0
  155.3360  213.9880  150.1170 N   0  0  0  0  0  1  0  0  0  0  0  0
  158.8880  213.5190  148.8350 C   0  0  0  0  0  0  0  0  0  0  0  0
  156.7140  213.8420  149.7910 C   0  0  0  0  0  0  0  0  0  0  0  0
  157.3010  213.5500  148.2450 S   0  0  0  0  0  0  0  0  0  0  0  0
  157.7010  213.8960  150.7060 N   0  0  0  0  0  0  0  0  0  0  0  0
  160.0770  213.2560  148.0580 N   0  0  0  0  0  0  0  0  0  0  0  0
  159.1130  213.7720  145.9740 O   0  0  0  0  0  0  0  0  0  0  0  0
  158.9090  213.7110  150.1760 N   0  0  0  0  0  0  0  0  0  0  0  0
  161.2010  212.6660  145.8380 C   0  0  0  0  0  2  0  0  0  0  0  0
  161.6620  213.6140  144.7810 C   0  0  0  0  0  0  0  0  0  0  0  0
  162.5090  214.4530  145.0410 O   0  0  0  0  0  0  0  0  0  0  0  0
  160.6570  212.1480  143.0650 C   0  0  0  0  0  1  0  0  0  0  0  0
  161.0440  213.5710  143.4220 C   0  0  0  0  0  2  0  0  0  0  0  0
  162.3000  204.8550  151.2880 S   0  0  0  0  0  0  0  0  0  0  0  0
  161.2530  205.3660  152.6830 C   0  0  0  0  0  2  0  0  0  0  0  0
  160.9180  206.7410  152.5550 O   0  0  0  0  0  0  0  0  0  0  0  0
  160.7190  209.2820  155.8920 C   0  0  0  0  0  3  0  0  0  0  0  0
  160.8830  209.8390  154.6140 C   0  0  0  0  0  0  0  0  0  0  0  0
  160.6180  207.8980  156.0480 C   0  0  0  0  0  3  0  0  0  0  0  0
  160.6840  207.0620  154.9310 C   0  0  0  0  0  3  0  0  0  0  0  0
  160.9490  208.9960  153.5010 C   0  0  0  0  0  3  0  0  0  0  0  0
  160.8490  207.6040  153.6510 C   0  0  0  0  0  0  0  0  0  0  0  0
  161.0030  211.2520  154.4300 N   0  0  0  0  0  2  0  0  0  0  0  0
  158.3370  211.4680  154.3600 S   0  0  0  0  0  0  0  0  0  0  0  0
  159.9500  212.1980  154.7690 C   0  0  1  0  0  3  0  0  0  0  0  0
  159.1360  213.7240  156.5690 C   0  0  0  0  0  2  0  0  0  0  0  0
  157.7550  213.5560  156.1270 N   0  0  0  0  0  2  0  0  0  0  0  0
  156.1410  213.4270  154.0310 S   0  0  0  0  0  0  0  0  0  0  0  0
  159.9820  212.4930  156.2640 C   0  0  0  0  0  2  0  0  0  0  0  0
  157.4320  212.9210  154.8900 C   0  0  0  0  0  0  0  0  0  0  0  0
  1  6  1  0  0  0  0
  2  5  1  0  0  0  0
  3  8  1  0  0  0  0
  3  1  1  0  0  0  0
  4  6  1  0  0  0  0
  5  4  1  0  0  0  0
  6 31  1  0  0  0  0
  7  2  1  0  0  0  0
  7  3  1  0  0  0  0
  8 10  1  0  0  0  0
  8  1  1  0  0  0  0
  9  5  1  0  0  0  0
 10 11  1  0  0  0  0
 11 12  1  0  0  0  0
 12 13  1  0  0  0  0
 14 16  1  0  0  0  0
 14 12  1  0  0  0  0
 15 16  1  0  0  0  0
 17 23  1  0  0  0  0
 19 25  2  0  0  0  0
 20 18  1  0  0  0  0
 20 22  2  0  0  0  0
 21 19  1  0  0  0  0
 21 20  1  0  0  0  0
 23 16  1  0  0  0  0
 23 19  1  0  0  0  0
 24 17  2  0  0  0  0
 25 22  1  0  0  0  0
 26 17  1  0  0  0  0
 27 28  2  0  0  0  0
 27 26  1  0  0  0  0
 29 30  1  0  0  0  0
 30 27  1  0  0  0  0
 31 32  1  0  0  0  0
 33 32  1  0  0  0  0
 33 39  1  0  0  0  0
 34 36  1  0  0  0  0
 35 34  2  0  0  0  0
 37 36  2  0  0  0  0
 38 39  2  0  0  0  0
 38 35  1  0  0  0  0
 39 37  1  0  0  0  0
 40 35  1  0  0  0  0
 40 42  1  0  0  0  0
 41 42  1  0  0  0  0
 41 47  1  0  0  0  0
 42 46  1  0  0  0  0
 44 43  1  0  0  0  0
 45 47  2  0  0  0  0
 46 43  1  0  0  0  0
 47 44  1  0  0  0  0
M  END
>  <MODEL>
4

>  <REMARK>
 VINA RESULT:      -7.2      4.065      9.604
  Name = 
  15 active torsions:
  status: ('A' for Active; 'I' for Inactive)
    1  A    between atoms: C_1  and  C_41
    2  A    between atoms: C_4  and  N_44
    3  A    between atoms: C_7  and  N_44
    4  A    between atoms: O_8  and  C_11
    5  A    between atoms: O_8  and  C_40
    6  A    between atoms: C_11  and  S_26
    7  A    between atoms: C_13  and  C_41
    8  A    between atoms: C_13  and  C_42
    9  A    between atoms: C_15  and  C_34
   10  A    between atoms: C_15  and  N_36
   11  A    between atoms: C_21  and  C_34
   12  A    between atoms: C_21  and  O_39
   13  A    between atoms: C_24  and  C_38
   14  A    between atoms: C_24  and  O_39
   15  A    between atoms: S_26  and  C_30
                            x       y       z     vdW  Elec       q    Type
                         _______ _______ _______ _____ _____    ______ ____

>  <TORSDO>
F 15

$$$$
=
 OpenBabel11072414503D

 47 51  0  0  1  0  0  0  0  0999 V2000
  160.1400  211.6830  153.7860 C   0  0  2  0  0  3  0  0  0  0  0  0
  157.9120  211.7750  155.9420 C   0  0  0  0  0  2  0  0  0  0  0  0
  160.1510  210.9610  155.1470 C   0  0  1  0  0  3  0  0  0  0  0  0
  157.5220  211.3860  153.4540 C   0  0  0  0  0  2  0  0  0  0  0  0
  156.9150  211.8240  154.7880 C   0  0  1  0  0  3  0  0  0  0  0  0
  158.8230  212.1130  153.1010 C   0  0  1  0  0  3  0  0  0  0  0  0
  158.8330  210.5760  155.8110 C   0  0  0  0  0  2  0  0  0  0  0  0
  160.2830  210.1760  153.8500 C   0  0  2  0  0  3  0  0  0  0  0  0
  155.8190  211.0150  155.0810 O   0  0  0  0  0  1  0  0  0  0  0  0
  161.7340  209.7960  153.6310 C   0  0  0  0  0  2  0  0  0  0  0  0
  161.7930  208.5650  152.9740 O   0  0  0  0  0  0  0  0  0  0  0  0
  160.9650  207.7100  153.7050 C   0  0  2  0  0  3  0  0  0  0  0  0
  161.6220  207.2800  154.8610 O   0  0  0  0  0  1  0  0  0  0  0  0
  160.5560  206.5110  152.8520 C   0  0  0  0  0  2  0  0  0  0  0  0
  162.3410  204.9220  152.6190 O   0  0  0  0  0  1  0  0  0  0  0  0
  161.6980  205.9850  151.9800 C   0  0  1  0  0  3  0  0  0  0  0  0
  160.8070  206.6050  149.7350 C   0  0  0  0  0  0  0  0  0  0  0  0
  160.9910  200.7890  148.5770 N   0  0  0  0  0  1  0  0  0  0  0  0
  161.1680  204.1700  150.3140 C   0  0  0  0  0  0  0  0  0  0  0  0
  161.0740  201.9700  149.3660 C   0  0  0  0  0  0  0  0  0  0  0  0
  160.9250  203.5310  148.7640 S   0  0  0  0  0  0  0  0  0  0  0  0
  161.3140  201.9600  150.6920 N   0  0  0  0  0  0  0  0  0  0  0  0
  161.2290  205.5740  150.6520 N   0  0  0  0  0  0  0  0  0  0  0  0
  160.1080  206.3270  148.7260 O   0  0  0  0  0  0  0  0  0  0  0  0
  161.3720  203.1820  151.2170 N   0  0  0  0  0  0  0  0  0  0  0  0
  161.1850  208.0350  149.9610 C   0  0  0  0  0  2  0  0  0  0  0  0
  161.9180  208.5720  148.7760 C   0  0  0  0  0  0  0  0  0  0  0  0
  162.7680  207.8920  148.2260 O   0  0  0  0  0  0  0  0  0  0  0  0
  162.8480  210.8510  148.5640 C   0  0  0  0  0  1  0  0  0  0  0  0
  161.6470  209.9620  148.3010 C   0  0  0  0  0  2  0  0  0  0  0  0
  158.6280  213.9270  153.1040 S   0  0  0  0  0  0  0  0  0  0  0  0
  158.2730  214.0070  151.3240 C   0  0  0  0  0  2  0  0  0  0  0  0
  159.0970  213.0820  150.6270 O   0  0  0  0  0  0  0  0  0  0  0  0
  161.4670  214.1890  147.3420 C   0  0  0  0  0  3  0  0  0  0  0  0
  160.2350  213.5570  147.1170 C   0  0  0  0  0  0  0  0  0  0  0  0
  161.8960  214.4500  148.6460 C   0  0  0  0  0  3  0  0  0  0  0  0
  161.0980  214.0790  149.7310 C   0  0  0  0  0  3  0  0  0  0  0  0
  159.4420  213.1880  148.2080 C   0  0  0  0  0  3  0  0  0  0  0  0
  159.8680  213.4470  149.5200 C   0  0  0  0  0  0  0  0  0  0  0  0
  159.7800  213.2660  145.7920 N   0  0  0  0  0  2  0  0  0  0  0  0
  159.7700  212.9170  143.1400 S   0  0  0  0  0  0  0  0  0  0  0  0
  160.6590  212.8210  144.7210 C   0  0  1  0  0  3  0  0  0  0  0  0
  162.9580  213.0760  143.7850 C   0  0  0  0  0  2  0  0  0  0  0  0
  162.4750  212.7840  142.4390 N   0  0  0  0  0  2  0  0  0  0  0  0
  160.8980  211.2310  140.9830 S   0  0  0  0  0  0  0  0  0  0  0  0
  161.8820  213.7270  144.6450 C   0  0  0  0  0  2  0  0  0  0  0  0
  161.1590  212.2800  142.2050 C   0  0  0  0  0  0  0  0  0  0  0  0
  1  8  1  0  0  0  0
  1  3  1  0  0  0  0
  3  7  1  0  0  0  0
  4  5  1  0  0  0  0
  5  9  1  0  0  0  0
  5  2  1  0  0  0  0
  6 31  1  0  0  0  0
  6  4  1  0  0  0  0
  6  1  1  0  0  0  0
  7  2  1  0  0  0  0
  8  3  1  0  0  0  0
 10  8  1  0  0  0  0
 11 10  1  0  0  0  0
 11 12  1  0  0  0  0
 12 13  1  0  0  0  0
 14 12  1  0  0  0  0
 16 15  1  0  0  0  0
 16 14  1  0  0  0  0
 17 26  1  0  0  0  0
 17 23  1  0  0  0  0
 18 20  1  0  0  0  0
 19 23  1  0  0  0  0
 19 25  2  0  0  0  0
 20 22  2  0  0  0  0
 21 20  1  0  0  0  0
 21 19  1  0  0  0  0
 22 25  1  0  0  0  0
 23 16  1  0  0  0  0
 24 17  2  0  0  0  0
 27 26  1  0  0  0  0
 28 27  2  0  0  0  0
 30 29  1  0  0  0  0
 30 27  1  0  0  0  0
 32 31  1  0  0  0  0
 33 32  1  0  0  0  0
 34 36  1  0  0  0  0
 35 34  2  0  0  0  0
 35 38  1  0  0  0  0
 36 37  2  0  0  0  0
 38 39  2  0  0  0  0
 39 37  1  0  0  0  0
 39 33  1  0  0  0  0
 40 35  1  0  0  0  0
 41 42  1  0  0  0  0
 42 40  1  0  0  0  0
 43 46  1  0  0  0  0
 44 43  1  0  0  0  0
 45 47  2  0  0  0  0
 46 42  1  0  0  0  0
 47 44  1  0  0  0  0
 47 41  1  0  0  0  0
M  END
>  <MODEL>
5

>  <REMARK>
 VINA RESULT:      -6.5      1.648      2.254
  Name = 
  15 active torsions:
  status: ('A' for Active; 'I' for Inactive)
    1  A    between atoms: C_1  and  C_41
    2  A    between atoms: C_4  and  N_44
    3  A    between atoms: C_7  and  N_44
    4  A    between atoms: O_8  and  C_11
    5  A    between atoms: O_8  and  C_40
    6  A    between atoms: C_11  and  S_26
    7  A    between atoms: C_13  and  C_41
    8  A    between atoms: C_13  and  C_42
    9  A    between atoms: C_15  and  C_34
   10  A    between atoms: C_15  and  N_36
   11  A    between atoms: C_21  and  C_34
   12  A    between atoms: C_21  and  O_39
   13  A    between atoms: C_24  and  C_38
   14  A    between atoms: C_24  and  O_39
   15  A    between atoms: S_26  and  C_30
                            x       y       z     vdW  Elec       q    Type
                         _______ _______ _______ _____ _____    ______ ____

>  <TORSDO>
F 15

$$$$
=
 OpenBabel11072414503D

 47 51  0  0  1  0  0  0  0  0999 V2000
  162.3120  211.3780  148.2880 C   0  0  2  0  0  3  0  0  0  0  0  0
  160.9740  213.4130  150.2090 C   0  0  0  0  0  2  0  0  0  0  0  0
  161.9470  211.1400  149.7660 C   0  0  1  0  0  3  0  0  0  0  0  0
  160.1960  212.9180  147.8330 C   0  0  0  0  0  2  0  0  0  0  0  0
  160.1850  213.9070  149.0000 C   0  0  1  0  0  3  0  0  0  0  0  0
  161.5990  212.4520  147.4340 C   0  0  1  0  0  3  0  0  0  0  0  0
  160.7950  211.9170  150.3970 C   0  0  0  0  0  2  0  0  0  0  0  0
  161.3810  210.2460  148.6720 C   0  0  2  0  0  3  0  0  0  0  0  0
  158.8660  214.1620  149.3730 O   0  0  0  0  0  1  0  0  0  0  0  0
  162.1410  208.9350  148.6440 C   0  0  0  0  0  2  0  0  0  0  0  0
  161.4590  208.0250  147.8330 O   0  0  0  0  0  0  0  0  0  0  0  0
  162.1170  206.8040  148.0030 C   0  0  2  0  0  3  0  0  0  0  0  0
  162.9130  206.5320  146.8880 O   0  0  0  0  0  1  0  0  0  0  0  0
  161.1040  205.6820  148.2180 C   0  0  0  0  0  2  0  0  0  0  0  0
  159.5440  205.7680  150.0410 O   0  0  0  0  0  1  0  0  0  0  0  0
  160.8440  205.3910  149.6970 C   0  0  1  0  0  3  0  0  0  0  0  0
  161.2330  203.6270  151.4170 C   0  0  0  0  0  0  0  0  0  0  0  0
  161.2160  199.8380  146.8500 N   0  0  0  0  0  1  0  0  0  0  0  0
  161.1570  202.9990  148.9680 C   0  0  0  0  0  0  0  0  0  0  0  0
  161.2100  201.1040  147.5020 C   0  0  0  0  0  0  0  0  0  0  0  0
  161.1330  201.3180  149.1660 S   0  0  0  0  0  0  0  0  0  0  0  0
  161.2360  202.2780  146.8410 N   0  0  0  0  0  0  0  0  0  0  0  0
  161.0690  203.9790  150.0260 N   0  0  0  0  0  0  0  0  0  0  0  0
  161.7380  202.5230  151.7490 O   0  0  0  0  0  0  0  0  0  0  0  0
  161.2010  203.3310  147.6550 N   0  0  0  0  0  0  0  0  0  0  0  0
  160.8120  204.5670  152.5010 C   0  0  0  0  0  2  0  0  0  0  0  0
  161.7600  205.7170  152.5900 C   0  0  0  0  0  0  0  0  0  0  0  0
  162.9430  205.5520  152.3400 O   0  0  0  0  0  0  0  0  0  0  0  0
  160.8790  207.0080  154.5030 C   0  0  0  0  0  1  0  0  0  0  0  0
  161.2680  207.0540  153.0370 C   0  0  0  0  0  2  0  0  0  0  0  0
  162.7110  213.8460  147.0490 S   0  0  0  0  0  0  0  0  0  0  0  0
  162.0080  214.0970  145.3920 C   0  0  0  0  0  2  0  0  0  0  0  0
  162.2930  212.9710  144.5730 O   0  0  0  0  0  0  0  0  0  0  0  0
  160.2690  212.2970  140.9560 C   0  0  0  0  0  3  0  0  0  0  0  0
  161.6700  212.2070  140.9860 C   0  0  0  0  0  0  0  0  0  0  0  0
  159.5590  212.6030  142.1190 C   0  0  0  0  0  3  0  0  0  0  0  0
  160.2430  212.8230  143.3170 C   0  0  0  0  0  3  0  0  0  0  0  0
  162.3470  212.4290  142.1880 C   0  0  0  0  0  3  0  0  0  0  0  0
  161.6380  212.7380  143.3610 C   0  0  0  0  0  0  0  0  0  0  0  0
  162.4210  211.9090  139.8060 N   0  0  0  0  0  2  0  0  0  0  0  0
  161.6420  209.3920  140.2710 S   0  0  0  0  0  0  0  0  0  0  0  0
  162.4200  210.6030  139.1630 C   0  0  1  0  0  3  0  0  0  0  0  0
  161.8970  209.4260  137.0250 C   0  0  0  0  0  2  0  0  0  0  0  0
  161.5870  208.1950  137.7440 N   0  0  0  0  0  2  0  0  0  0  0  0
  162.3320  206.5700  139.6990 S   0  0  0  0  0  0  0  0  0  0  0  0
  161.6150  210.6630  137.8700 C   0  0  0  0  0  2  0  0  0  0  0  0
  161.8940  208.0340  139.1290 C   0  0  0  0  0  0  0  0  0  0  0  0
  1  8  1  0  0  0  0
  1  3  1  0  0  0  0
  2  7  1  0  0  0  0
  3  7  1  0  0  0  0
  4  5  1  0  0  0  0
  5  9  1  0  0  0  0
  5  2  1  0  0  0  0
  6  4  1  0  0  0  0
  6  1  1  0  0  0  0
  8  3  1  0  0  0  0
 10  8  1  0  0  0  0
 11 12  1  0  0  0  0
 11 10  1  0  0  0  0
 12 14  1  0  0  0  0
 13 12  1  0  0  0  0
 14 16  1  0  0  0  0
 16 23  1  0  0  0  0
 16 15  1  0  0  0  0
 17 24  2  0  0  0  0
 17 26  1  0  0  0  0
 18 20  1  0  0  0  0
 19 21  1  0  0  0  0
 19 23  1  0  0  0  0
 20 21  1  0  0  0  0
 22 20  2  0  0  0  0
 22 25  1  0  0  0  0
 23 17  1  0  0  0  0
 25 19  2  0  0  0  0
 26 27  1  0  0  0  0
 27 30  1  0  0  0  0
 28 27  2  0  0  0  0
 30 29  1  0  0  0  0
 31  6  1  0  0  0  0
 32 31  1  0  0  0  0
 33 32  1  0  0  0  0
 34 35  2  0  0  0  0
 34 36  1  0  0  0  0
 35 38  1  0  0  0  0
 36 37  2  0  0  0  0
 37 39  1  0  0  0  0
 38 39  2  0  0  0  0
 39 33  1  0  0  0  0
 40 35  1  0  0  0  0
 42 40  1  0  0  0  0
 42 41  1  0  0  0  0
 43 44  1  0  0  0  0
 43 46  1  0  0  0  0
 44 47  1  0  0  0  0
 46 42  1  0  0  0  0
 47 45  2  0  0  0  0
 47 41  1  0  0  0  0
M  END
>  <MODEL>
6

>  <REMARK>
 VINA RESULT:      -5.9      3.124      5.960
  Name = 
  15 active torsions:
  status: ('A' for Active; 'I' for Inactive)
    1  A    between atoms: C_1  and  C_41
    2  A    between atoms: C_4  and  N_44
    3  A    between atoms: C_7  and  N_44
    4  A    between atoms: O_8  and  C_11
    5  A    between atoms: O_8  and  C_40
    6  A    between atoms: C_11  and  S_26
    7  A    between atoms: C_13  and  C_41
    8  A    between atoms: C_13  and  C_42
    9  A    between atoms: C_15  and  C_34
   10  A    between atoms: C_15  and  N_36
   11  A    between atoms: C_21  and  C_34
   12  A    between atoms: C_21  and  O_39
   13  A    between atoms: C_24  and  C_38
   14  A    between atoms: C_24  and  O_39
   15  A    between atoms: S_26  and  C_30
                            x       y       z     vdW  Elec       q    Type
                         _______ _______ _______ _____ _____    ______ ____

>  <TORSDO>
F 15

$$$$
=
 OpenBabel11072414503D

 47 51  0  0  1  0  0  0  0  0999 V2000
  160.2640  211.2280  154.4100 C   0  0  2  0  0  3  0  0  0  0  0  0
  158.5260  212.4600  156.6640 C   0  0  0  0  0  2  0  0  0  0  0  0
  160.3880  210.9480  155.9190 C   0  0  1  0  0  3  0  0  0  0  0  0
  157.6200  211.4720  154.4960 C   0  0  0  0  0  2  0  0  0  0  0  0
  157.3610  212.4070  155.6790 C   0  0  1  0  0  3  0  0  0  0  0  0
  158.9470  211.7390  153.7800 C   0  0  1  0  0  3  0  0  0  0  0  0
  159.1650  211.0920  156.8200 C   0  0  0  0  0  2  0  0  0  0  0  0
  160.1310  209.8140  154.9380 C   0  0  2  0  0  3  0  0  0  0  0  0
  156.2050  211.9980  156.3420 O   0  0  0  0  0  1  0  0  0  0  0  0
  161.4200  209.0570  154.6870 C   0  0  0  0  0  2  0  0  0  0  0  0
  161.2380  208.1820  153.6140 O   0  0  0  0  0  0  0  0  0  0  0  0
  160.6970  207.0180  154.1670 C   0  0  2  0  0  3  0  0  0  0  0  0
  160.9240  206.9940  155.5450 O   0  0  0  0  0  1  0  0  0  0  0  0
  161.3110  205.7850  153.5070 C   0  0  0  0  0  2  0  0  0  0  0  0
  163.4560  205.4310  152.4900 O   0  0  0  0  0  1  0  0  0  0  0  0
  162.2570  206.1340  152.3570 C   0  0  1  0  0  3  0  0  0  0  0  0
  161.4200  206.9880  150.1690 C   0  0  0  0  0  0  0  0  0  0  0  0
  160.2960  201.2990  148.9140 N   0  0  0  0  0  1  0  0  0  0  0  0
  161.2750  204.5180  150.6920 C   0  0  0  0  0  0  0  0  0  0  0  0
  160.6670  202.4140  149.7170 C   0  0  0  0  0  0  0  0  0  0  0  0
  160.8300  203.9850  149.1470 S   0  0  0  0  0  0  0  0  0  0  0  0
  160.9590  202.3190  151.0290 N   0  0  0  0  0  0  0  0  0  0  0  0
  161.6510  205.8670  151.0480 N   0  0  0  0  0  0  0  0  0  0  0  0
  160.6320  206.8920  149.1920 O   0  0  0  0  0  0  0  0  0  0  0  0
  161.3020  203.4870  151.5690 N   0  0  0  0  0  0  0  0  0  0  0  0
  162.1060  208.2980  150.3980 C   0  0  0  0  0  2  0  0  0  0  0  0
  162.1260  209.1000  149.1390 C   0  0  0  0  0  0  0  0  0  0  0  0
  162.6940  208.6680  148.1490 O   0  0  0  0  0  0  0  0  0  0  0  0
  162.5440  211.5140  148.8160 C   0  0  0  0  0  1  0  0  0  0  0  0
  161.4980  210.4560  149.1110 C   0  0  0  0  0  2  0  0  0  0  0  0
  159.1000  213.4690  153.2220 S   0  0  0  0  0  0  0  0  0  0  0  0
  159.3300  213.0080  151.4800 C   0  0  0  0  0  2  0  0  0  0  0  0
  159.0700  214.1290  150.6470 O   0  0  0  0  0  0  0  0  0  0  0  0
  155.8280  214.2450  147.9810 C   0  0  0  0  0  3  0  0  0  0  0  0
  157.1350  214.3110  147.4750 C   0  0  0  0  0  0  0  0  0  0  0  0
  155.6110  214.1370  149.3560 C   0  0  0  0  0  3  0  0  0  0  0  0
  156.6970  214.0970  150.2340 C   0  0  0  0  0  3  0  0  0  0  0  0
  158.2170  214.2710  148.3580 C   0  0  0  0  0  3  0  0  0  0  0  0
  158.0050  214.1640  149.7420 C   0  0  0  0  0  0  0  0  0  0  0  0
  157.3830  214.4360  146.0710 N   0  0  0  0  0  2  0  0  0  0  0  0
  159.7560  213.2830  146.5170 S   0  0  0  0  0  0  0  0  0  0  0  0
  158.7100  214.3460  145.4800 C   0  0  1  0  0  3  0  0  0  0  0  0
  159.9200  213.9490  143.3340 C   0  0  0  0  0  2  0  0  0  0  0  0
  161.0650  213.3920  144.0480 N   0  0  0  0  0  2  0  0  0  0  0  0
  162.6680  213.6660  146.1390 S   0  0  0  0  0  0  0  0  0  0  0  0
  158.6170  213.7260  144.0910 C   0  0  0  0  0  2  0  0  0  0  0  0
  161.1910  213.4990  145.4670 C   0  0  0  0  0  0  0  0  0  0  0  0
  1  8  1  0  0  0  0
  1  3  1  0  0  0  0
  2  7  1  0  0  0  0
  3  7  1  0  0  0  0
  4  5  1  0  0  0  0
  5  9  1  0  0  0  0
  5  2  1  0  0  0  0
  6  1  1  0  0  0  0
  6  4  1  0  0  0  0
  8  3  1  0  0  0  0
 10  8  1  0  0  0  0
 11 12  1  0  0  0  0
 11 10  1  0  0  0  0
 12 13  1  0  0  0  0
 14 12  1  0  0  0  0
 16 15  1  0  0  0  0
 16 14  1  0  0  0  0
 17 26  1  0  0  0  0
 17 23  1  0  0  0  0
 18 20  1  0  0  0  0
 19 23  1  0  0  0  0
 19 25  2  0  0  0  0
 20 22  2  0  0  0  0
 21 20  1  0  0  0  0
 21 19  1  0  0  0  0
 22 25  1  0  0  0  0
 23 16  1  0  0  0  0
 24 17  2  0  0  0  0
 27 26  1  0  0  0  0
 28 27  2  0  0  0  0
 29 30  1  0  0  0  0
 30 27  1  0  0  0  0
 31  6  1  0  0  0  0
 32 31  1  0  0  0  0
 33 32  1  0  0  0  0
 34 36  1  0  0  0  0
 35 34  2  0  0  0  0
 35 38  1  0  0  0  0
 36 37  2  0  0  0  0
 38 39  2  0  0  0  0
 39 37  1  0  0  0  0
 39 33  1  0  0  0  0
 40 35  1  0  0  0  0
 42 40  1  0  0  0  0
 42 41  1  0  0  0  0
 43 44  1  0  0  0  0
 43 46  1  0  0  0  0
 44 47  1  0  0  0  0
 46 42  1  0  0  0  0
 47 45  2  0  0  0  0
 47 41  1  0  0  0  0
M  END
>  <MODEL>
7

>  <REMARK>
 VINA RESULT:      -5.7      1.596      2.039
  Name = 
  15 active torsions:
  status: ('A' for Active; 'I' for Inactive)
    1  A    between atoms: C_1  and  C_41
    2  A    between atoms: C_4  and  N_44
    3  A    between atoms: C_7  and  N_44
    4  A    between atoms: O_8  and  C_11
    5  A    between atoms: O_8  and  C_40
    6  A    between atoms: C_11  and  S_26
    7  A    between atoms: C_13  and  C_41
    8  A    between atoms: C_13  and  C_42
    9  A    between atoms: C_15  and  C_34
   10  A    between atoms: C_15  and  N_36
   11  A    between atoms: C_21  and  C_34
   12  A    between atoms: C_21  and  O_39
   13  A    between atoms: C_24  and  C_38
   14  A    between atoms: C_24  and  O_39
   15  A    between atoms: S_26  and  C_30
                            x       y       z     vdW  Elec       q    Type
                         _______ _______ _______ _____ _____    ______ ____

>  <TORSDO>
F 15

$$$$
=
 OpenBabel11072414503D

 47 51  0  0  1  0  0  0  0  0999 V2000
  161.4220  213.1150  146.6850 C   0  0  2  0  0  3  0  0  0  0  0  0
  158.6320  214.4530  146.8930 C   0  0  0  0  0  2  0  0  0  0  0  0
  160.6870  213.5040  147.9810 C   0  0  1  0  0  3  0  0  0  0  0  0
  159.1880  212.4570  145.4090 C   0  0  0  0  0  2  0  0  0  0  0  0
  158.2390  213.6290  145.6710 C   0  0  1  0  0  3  0  0  0  0  0  0
  160.6650  212.8600  145.3610 C   0  0  1  0  0  3  0  0  0  0  0  0
  159.1630  213.5610  148.0000 C   0  0  0  0  0  2  0  0  0  0  0  0
  161.1110  212.0640  147.7310 C   0  0  2  0  0  3  0  0  0  0  0  0
  156.9430  213.1420  145.8310 O   0  0  0  0  0  1  0  0  0  0  0  0
  162.3640  211.7580  148.5280 C   0  0  0  0  0  2  0  0  0  0  0  0
  162.3510  210.4130  148.9050 O   0  0  0  0  0  0  0  0  0  0  0  0
  161.6660  210.3710  150.1220 C   0  0  2  0  0  3  0  0  0  0  0  0
  161.8350  211.5770  150.8070 O   0  0  0  0  0  1  0  0  0  0  0  0
  162.1660  209.2050  150.9720 C   0  0  0  0  0  2  0  0  0  0  0  0
  162.1530  207.1640  149.7080 O   0  0  0  0  0  1  0  0  0  0  0  0
  161.4430  207.8930  150.6640 C   0  0  1  0  0  3  0  0  0  0  0  0
  161.3140  205.6490  151.7450 C   0  0  0  0  0  0  0  0  0  0  0  0
  160.4030  208.6490  156.7830 N   0  0  0  0  0  1  0  0  0  0  0  0
  160.9330  207.7320  153.1270 C   0  0  0  0  0  0  0  0  0  0  0  0
  160.5630  208.4610  155.3800 C   0  0  0  0  0  0  0  0  0  0  0  0
  160.9410  206.9960  154.6530 S   0  0  0  0  0  0  0  0  0  0  0  0
  160.4540  209.4600  154.4820 N   0  0  0  0  0  0  0  0  0  0  0  0
  161.2370  207.0840  151.8720 N   0  0  0  0  0  0  0  0  0  0  0  0
  160.8440  204.8950  152.6370 O   0  0  0  0  0  0  0  0  0  0  0  0
  160.6660  209.0560  153.2310 N   0  0  0  0  0  0  0  0  0  0  0  0
  161.9500  205.0160  150.5480 C   0  0  0  0  0  2  0  0  0  0  0  0
  161.0440  203.9830  149.9640 C   0  0  0  0  0  0  0  0  0  0  0  0
  160.0790  203.5890  150.5980 O   0  0  0  0  0  0  0  0  0  0  0  0
  161.2090  204.4430  147.5420 C   0  0  0  0  0  1  0  0  0  0  0  0
  161.3530  203.3930  148.6270 C   0  0  0  0  0  2  0  0  0  0  0  0
  160.9870  214.1770  144.1410 S   0  0  0  0  0  0  0  0  0  0  0  0
  160.2380  213.2480  142.7710 C   0  0  0  0  0  2  0  0  0  0  0  0
  160.9940  212.0710  142.5170 O   0  0  0  0  0  0  0  0  0  0  0  0
  161.6680  210.5630  138.6570 C   0  0  0  0  0  3  0  0  0  0  0  0
  160.3650  210.5570  139.1780 C   0  0  0  0  0  0  0  0  0  0  0  0
  162.7260  211.0700  139.4140 C   0  0  0  0  0  3  0  0  0  0  0  0
  162.4900  211.5720  140.6970 C   0  0  0  0  0  3  0  0  0  0  0  0
  160.1360  211.0590  140.4620 C   0  0  0  0  0  3  0  0  0  0  0  0
  161.1960  211.5700  141.2290 C   0  0  0  0  0  0  0  0  0  0  0  0
  159.2670  210.0300  138.4280 N   0  0  0  0  0  2  0  0  0  0  0  0
  157.3160  211.8480  138.2120 S   0  0  0  0  0  0  0  0  0  0  0  0
  157.8730  210.2230  138.8020 C   0  0  1  0  0  3  0  0  0  0  0  0
  155.6330  209.1240  138.8040 C   0  0  0  0  0  2  0  0  0  0  0  0
  154.9640  210.4190  138.7130 N   0  0  0  0  0  2  0  0  0  0  0  0
  154.9270  212.9140  139.5990 S   0  0  0  0  0  0  0  0  0  0  0  0
  157.0100  209.1490  138.1510 C   0  0  0  0  0  2  0  0  0  0  0  0
  155.6730  211.6450  138.8960 C   0  0  0  0  0  0  0  0  0  0  0  0
  1  8  1  0  0  0  0
  1  3  1  0  0  0  0
  2  7  1  0  0  0  0
  3  7  1  0  0  0  0
  4  5  1  0  0  0  0
  5  9  1  0  0  0  0
  5  2  1  0  0  0  0
  6  4  1  0  0  0  0
  6  1  1  0  0  0  0
  8  3  1  0  0  0  0
  8 10  1  0  0  0  0
 10 11  1  0  0  0  0
 11 12  1  0  0  0  0
 12 13  1  0  0  0  0
 12 14  1  0  0  0  0
 15 16  1  0  0  0  0
 16 14  1  0  0  0  0
 16 23  1  0  0  0  0
 17 23  1  0  0  0  0
 17 24  2  0  0  0  0
 19 25  2  0  0  0  0
 19 21  1  0  0  0  0
 20 18  1  0  0  0  0
 21 20  1  0  0  0  0
 22 20  2  0  0  0  0
 23 19  1  0  0  0  0
 25 22  1  0  0  0  0
 26 17  1  0  0  0  0
 27 26  1  0  0  0  0
 27 28  2  0  0  0  0
 29 30  1  0  0  0  0
 30 27  1  0  0  0  0
 31  6  1  0  0  0  0
 32 31  1  0  0  0  0
 33 32  1  0  0  0  0
 34 35  2  0  0  0  0
 34 36  1  0  0  0  0
 35 38  1  0  0  0  0
 36 37  2  0  0  0  0
 37 39  1  0  0  0  0
 38 39  2  0  0  0  0
 39 33  1  0  0  0  0
 40 42  1  0  0  0  0
 40 35  1  0  0  0  0
 41 42  1  0  0  0  0
 41 47  1  0  0  0  0
 44 43  1  0  0  0  0
 44 47  1  0  0  0  0
 46 42  1  0  0  0  0
 46 43  1  0  0  0  0
 47 45  2  0  0  0  0
M  END
>  <MODEL>
8

>  <REMARK>
 VINA RESULT:      -5.7      4.290      8.179
  Name = 
  15 active torsions:
  status: ('A' for Active; 'I' for Inactive)
    1  A    between atoms: C_1  and  C_41
    2  A    between atoms: C_4  and  N_44
    3  A    between atoms: C_7  and  N_44
    4  A    between atoms: O_8  and  C_11
    5  A    between atoms: O_8  and  C_40
    6  A    between atoms: C_11  and  S_26
    7  A    between atoms: C_13  and  C_41
    8  A    between atoms: C_13  and  C_42
    9  A    between atoms: C_15  and  C_34
   10  A    between atoms: C_15  and  N_36
   11  A    between atoms: C_21  and  C_34
   12  A    between atoms: C_21  and  O_39
   13  A    between atoms: C_24  and  C_38
   14  A    between atoms: C_24  and  O_39
   15  A    between atoms: S_26  and  C_30
                            x       y       z     vdW  Elec       q    Type
                         _______ _______ _______ _____ _____    ______ ____

>  <TORSDO>
F 15

$$$$
=
 OpenBabel11072414503D

 47 51  0  0  1  0  0  0  0  0999 V2000
  159.7420  212.5350  148.1450 C   0  0  2  0  0  3  0  0  0  0  0  0
  158.6290  212.2310  145.2660 C   0  0  0  0  0  2  0  0  0  0  0  0
  160.2690  211.5830  147.0550 C   0  0  1  0  0  3  0  0  0  0  0  0
  159.1210  214.4530  146.4150 C   0  0  0  0  0  2  0  0  0  0  0  0
  158.3540  213.7310  145.3050 C   0  0  1  0  0  3  0  0  0  0  0  0
  158.9480  213.8150  147.7970 C   0  0  1  0  0  3  0  0  0  0  0  0
  160.0850  211.9400  145.5830 C   0  0  0  0  0  2  0  0  0  0  0  0
  161.1850  212.6190  147.6890 C   0  0  2  0  0  3  0  0  0  0  0  0
  158.6820  214.3000  144.0760 O   0  0  0  0  0  1  0  0  0  0  0  0
  162.0790  211.9480  148.7130 C   0  0  0  0  0  2  0  0  0  0  0  0
  162.4810  210.7020  148.2270 O   0  0  0  0  0  0  0  0  0  0  0  0
  161.9580  209.7630  149.1200 C   0  0  2  0  0  3  0  0  0  0  0  0
  162.3740  210.0590  150.4210 O   0  0  0  0  0  1  0  0  0  0  0  0
  162.4020  208.3560  148.7290 C   0  0  0  0  0  2  0  0  0  0  0  0
  161.1490  207.0450  147.1560 O   0  0  0  0  0  1  0  0  0  0  0  0
  161.2270  207.4030  148.5030 C   0  0  1  0  0  3  0  0  0  0  0  0
  161.5070  204.9320  148.6890 C   0  0  0  0  0  0  0  0  0  0  0  0
  161.2710  205.8220  154.5520 N   0  0  0  0  0  1  0  0  0  0  0  0
  161.1990  206.3220  150.7800 C   0  0  0  0  0  0  0  0  0  0  0  0
  161.1850  206.1590  153.1710 C   0  0  0  0  0  0  0  0  0  0  0  0
  161.5560  205.1130  151.9100 S   0  0  0  0  0  0  0  0  0  0  0  0
  160.8210  207.3780  152.7270 N   0  0  0  0  0  0  0  0  0  0  0  0
  161.3230  206.2050  149.3450 N   0  0  0  0  0  0  0  0  0  0  0  0
  161.2810  203.8530  149.2980 O   0  0  0  0  0  0  0  0  0  0  0  0
  160.8340  207.4700  151.3990 N   0  0  0  0  0  0  0  0  0  0  0  0
  161.9660  204.8590  147.2680 C   0  0  0  0  0  2  0  0  0  0  0  0
  161.2500  203.7650  146.5460 C   0  0  0  0  0  0  0  0  0  0  0  0
  161.2700  202.6280  146.9890 O   0  0  0  0  0  0  0  0  0  0  0  0
  161.4350  204.9180  144.3700 C   0  0  0  0  0  1  0  0  0  0  0  0
  160.5580  204.0540  145.2550 C   0  0  0  0  0  2  0  0  0  0  0  0
  157.1950  213.6670  148.2790 S   0  0  0  0  0  0  0  0  0  0  0  0
  157.5300  214.0060  150.0320 C   0  0  0  0  0  2  0  0  0  0  0  0
  156.3040  214.1420  150.7390 O   0  0  0  0  0  0  0  0  0  0  0  0
  155.9950  213.8530  154.9160 C   0  0  0  0  0  3  0  0  0  0  0  0
  157.2650  213.8270  154.3190 C   0  0  0  0  0  0  0  0  0  0  0  0
  154.8490  213.9790  154.1280 C   0  0  0  0  0  3  0  0  0  0  0  0
  154.9640  214.0760  152.7390 C   0  0  0  0  0  3  0  0  0  0  0  0
  157.3720  213.9240  152.9290 C   0  0  0  0  0  3  0  0  0  0  0  0
  156.2240  214.0500  152.1300 C   0  0  0  0  0  0  0  0  0  0  0  0
  158.4520  213.6850  155.1030 N   0  0  0  0  0  2  0  0  0  0  0  0
  160.5000  212.6340  156.4660 S   0  0  0  0  0  0  0  0  0  0  0  0
  159.1910  212.4360  155.2220 C   0  0  1  0  0  3  0  0  0  0  0  0
  158.9200  209.9670  155.4670 C   0  0  0  0  0  2  0  0  0  0  0  0
  160.1900  209.8690  156.1800 N   0  0  0  0  0  2  0  0  0  0  0  0
  162.7120  210.6760  156.2560 S   0  0  0  0  0  0  0  0  0  0  0  0
  158.2550  211.3230  155.6770 C   0  0  0  0  0  2  0  0  0  0  0  0
  161.1060  210.9630  156.2410 C   0  0  0  0  0  0  0  0  0  0  0  0
  2  5  1  0  0  0  0
  2  7  1  0  0  0  0
  3  8  1  0  0  0  0
  3  1  1  0  0  0  0
  4  6  1  0  0  0  0
  5  4  1  0  0  0  0
  6  1  1  0  0  0  0
  6 31  1  0  0  0  0
  7  3  1  0  0  0  0
  8  1  1  0  0  0  0
  8 10  1  0  0  0  0
  9  5  1  0  0  0  0
 11 10  1  0  0  0  0
 11 12  1  0  0  0  0
 12 13  1  0  0  0  0
 14 12  1  0  0  0  0
 15 16  1  0  0  0  0
 16 14  1  0  0  0  0
 16 23  1  0  0  0  0
 17 24  2  0  0  0  0
 17 23  1  0  0  0  0
 19 25  2  0  0  0  0
 19 21  1  0  0  0  0
 20 18  1  0  0  0  0
 21 20  1  0  0  0  0
 22 20  2  0  0  0  0
 23 19  1  0  0  0  0
 25 22  1  0  0  0  0
 26 17  1  0  0  0  0
 27 28  2  0  0  0  0
 27 26  1  0  0  0  0
 29 30  1  0  0  0  0
 30 27  1  0  0  0  0
 31 32  1  0  0  0  0
 32 33  1  0  0  0  0
 33 39  1  0  0  0  0
 35 34  1  0  0  0  0
 35 40  1  0  0  0  0
 36 34  2  0  0  0  0
 37 36  1  0  0  0  0
 38 35  2  0  0  0  0
 39 37  2  0  0  0  0
 39 38  1  0  0  0  0
 40 42  1  0  0  0  0
 42 46  1  0  0  0  0
 42 41  1  0  0  0  0
 43 46  1  0  0  0  0
 43 44  1  0  0  0  0
 44 47  1  0  0  0  0
 47 45  2  0  0  0  0
 47 41  1  0  0  0  0
M  END
>  <MODEL>
9

>  <REMARK>
 VINA RESULT:      -5.6      3.422      7.851
  Name = 
  15 active torsions:
  status: ('A' for Active; 'I' for Inactive)
    1  A    between atoms: C_1  and  C_41
    2  A    between atoms: C_4  and  N_44
    3  A    between atoms: C_7  and  N_44
    4  A    between atoms: O_8  and  C_11
    5  A    between atoms: O_8  and  C_40
    6  A    between atoms: C_11  and  S_26
    7  A    between atoms: C_13  and  C_41
    8  A    between atoms: C_13  and  C_42
    9  A    between atoms: C_15  and  C_34
   10  A    between atoms: C_15  and  N_36
   11  A    between atoms: C_21  and  C_34
   12  A    between atoms: C_21  and  O_39
   13  A    between atoms: C_24  and  C_38
   14  A    between atoms: C_24  and  O_39
   15  A    between atoms: S_26  and  C_30
                            x       y       z     vdW  Elec       q    Type
                         _______ _______ _______ _____ _____    ______ ____

>  <TORSDO>
F 15

$$$$
