=
 OpenBabel11072412513D

 41 46  0  0  1  0  0  0  0  0999 V2000
  161.3230  207.9950  152.8170 C   0  0  0  0  0  2  0  0  0  0  0  0
  160.7440  207.1530  151.6990 C   0  0  0  0  0  2  0  0  0  0  0  0
  161.6630  205.9840  151.3760 C   0  0  2  0  0  3  0  0  0  0  0  0
  162.9520  208.7430  147.7870 F   0  0  0  0  0  0  0  0  0  0  0  0
  163.5770  207.5730  150.2040 O   0  0  0  0  0  1  0  0  0  0  0  0
  161.9260  205.8050  149.8620 C   0  0  2  0  0  3  0  0  0  0  0  0
  160.4540  204.0970  149.0310 O   0  0  0  0  0  1  0  0  0  0  0  0
  161.3640  207.2110  147.2630 O   0  0  0  0  0  0  0  0  0  0  0  0
  162.0530  207.8470  148.3360 C   0  0  0  0  0  0  0  0  0  0  0  0
  161.0140  205.8490  147.4910 C   0  0  2  0  0  3  0  0  0  0  0  0
  159.5750  206.1610  149.3620 O   0  0  0  0  0  1  0  0  0  0  0  0
  162.8360  206.8810  149.2420 C   0  0  1  0  0  3  0  0  0  0  0  0
  160.7170  205.4660  148.9570 C   0  0  0  0  0  0  0  0  0  0  0  0
  161.1430  208.5680  149.0890 F   0  0  0  0  0  0  0  0  0  0  0  0
  161.9520  204.9170  146.7800 C   0  0  0  0  0  0  0  0  0  0  0  0
  161.4720  203.7210  146.2660 O   0  0  0  0  0  0  0  0  0  0  0  0
  163.1730  205.2000  146.6610 O   0  0  0  0  0  1  0  0  0  0  0  0
  161.1390  204.6410  153.8750 O   0  0  0  0  0  1  0  0  0  0  0  0
  162.1460  203.1840  151.7670 O   0  0  0  0  0  1  0  0  0  0  0  0
  161.1110  204.4510  152.1950 P   0  0  0  0  0  0  0  0  0  0  0  0
  159.7070  204.1120  151.7480 O   0  0  0  0  0  0  0  0  0  0  0  0
  160.4050  209.1820  153.0710 C   0  0  1  0  0  3  0  0  0  0  0  0
  159.6100  208.9880  154.3560 C   0  0  2  0  0  3  0  0  0  0  0  0
  163.4360  209.8780  157.1620 O   0  0  0  0  0  0  0  0  0  0  0  0
  160.2760  208.0820  156.8820 C   0  0  1  0  0  0  0  0  0  0  0  0
  161.6680  210.2260  155.5960 C   0  0  0  0  0  2  0  0  0  0  0  0
  159.8630  206.7980  157.2600 O   0  0  0  0  0  0  0  0  0  0  0  0
  162.3730  209.4720  156.7250 C   0  0  0  0  0  0  0  0  0  0  0  0
  161.7720  208.1650  157.2590 C   0  0  0  0  0  2  0  0  0  0  0  0
  159.5440  207.1590  155.9480 C   0  0  2  0  0  3  0  0  0  0  0  0
  160.2120  209.7290  155.5070 C   0  0  2  0  0  3  0  0  0  0  0  0
  160.4400  208.2120  155.3670 C   0  0  2  0  0  0  0  0  0  0  0  0
  161.1460  210.5270  153.0720 C   0  0  2  0  0  3  0  0  0  0  0  0
  158.9190  213.3940  152.5140 N   0  0  0  0  0  0  0  0  0  0  0  0
  159.1100  212.9910  151.2650 N   0  0  0  0  0  0  0  0  0  0  0  0
  159.6280  212.5820  153.3110 C   0  0  2  0  0  3  0  0  0  0  0  0
  159.9400  211.9250  151.2540 C   0  0  0  0  0  3  0  0  0  0  0  0
  160.2950  211.6490  152.5620 C   0  0  0  0  0  0  0  0  0  0  0  0
  159.6540  212.6890  154.7300 N   0  0  0  0  0  1  0  0  0  0  0  0
  162.5120  210.4920  152.4400 C   0  0  0  0  0  3  0  0  0  0  0  0
  162.6540  210.2890  151.2440 O   0  0  0  0  0  0  0  0  0  0  0  0
  2  1  1  0  0  0  0
  3  2  1  6  0  0  0
  3 20  1  0  0  0  0
  4  9  1  0  0  0  0
  6  3  1  1  0  0  0
  8 10  1  0  0  0  0
  8  9  1  0  0  0  0
  9 14  1  0  0  0  0
  9 12  1  0  0  0  0
 10 15  1  1  0  0  0
 10 13  1  0  0  0  0
 12  6  1  0  0  0  0
 12  5  1  1  0  0  0
 13  7  1  0  0  0  0
 13 11  1  0  0  0  0
 13  6  1  0  0  0  0
 16 15  2  0  0  0  0
 17 15  1  0  0  0  0
 19 20  1  0  0  0  0
 20 18  1  0  0  0  0
 21 20  2  0  0  0  0
 22  1  1  1  0  0  0
 22 33  1  0  0  0  0
 23 22  1  6  0  0  0
 23 32  1  0  0  0  0
 23 31  1  0  0  0  0
 25 29  1  6  0  0  0
 25 27  1  0  0  0  0
 26 28  1  0  0  0  0
 28 24  2  0  0  0  0
 28 29  1  0  0  0  0
 30 25  1  0  0  0  0
 30 27  1  1  0  0  0
 31 26  1  6  0  0  0
 32 31  1  0  0  0  0
 32 30  1  0  0  0  0
 32 25  1  0  0  0  0
 34 36  1  0  0  0  0
 35 34  2  0  0  0  0
 36 39  1  0  0  0  0
 37 35  1  0  0  0  0
 37 38  2  0  0  0  0
 38 33  1  0  0  0  0
 38 36  1  0  0  0  0
 40 33  1  0  0  0  0
 41 40  2  0  0  0  0
M  END
>  <MODEL>
1

>  <REMARK>
 VINA RESULT:      -3.8      0.000      0.000
  Name = 
  10 active torsions:
  status: ('A' for Active; 'I' for Inactive)
    1  A    between atoms: C_2  and  C_35
    2  A    between atoms: C_5  and  C_9
    3  A    between atoms: C_5  and  C_14
    4  A    between atoms: C_6  and  C_29
    5  A    between atoms: C_9  and  C_35
    6  A    between atoms: C_12  and  C_14
    7  A    between atoms: C_14  and  P_24
    8  A    between atoms: C_19  and  C_23
    9  A    between atoms: C_23  and  C_33
   10  A    between atoms: C_23  and  C_35
                            x       y       z     vdW  Elec       q    Type
                         _______ _______ _______ _____ _____    ______ ____

>  <TORSDO>
F 10

$$$$
=
 OpenBabel11072412513D

 41 46  0  0  1  0  0  0  0  0999 V2000
  161.8650  209.3850  152.3230 C   0  0  0  0  0  2  0  0  0  0  0  0
  161.2520  210.3690  153.2970 C   0  0  0  0  0  2  0  0  0  0  0  0
  160.0600  209.7470  154.0100 C   0  0  2  0  0  3  0  0  0  0  0  0
  158.0250  213.8680  152.9990 F   0  0  0  0  0  0  0  0  0  0  0  0
  158.2000  211.1540  152.5530 O   0  0  0  0  0  1  0  0  0  0  0  0
  159.1820  210.7770  154.7580 C   0  0  2  0  0  3  0  0  0  0  0  0
  159.8190  210.7800  157.0750 O   0  0  0  0  0  1  0  0  0  0  0  0
  158.9240  213.7570  155.0780 O   0  0  0  0  0  0  0  0  0  0  0  0
  158.8670  213.1230  153.8030 C   0  0  0  0  0  0  0  0  0  0  0  0
  159.0530  212.8740  156.1880 C   0  0  2  0  0  3  0  0  0  0  0  0
  161.1540  211.9020  155.6260 O   0  0  0  0  0  1  0  0  0  0  0  0
  158.3370  211.6800  153.8400 C   0  0  1  0  0  3  0  0  0  0  0  0
  159.8300  211.5660  155.9220 C   0  0  0  0  0  0  0  0  0  0  0  0
  160.1280  213.1480  153.2330 F   0  0  0  0  0  0  0  0  0  0  0  0
  157.7420  212.6880  156.8960 C   0  0  0  0  0  0  0  0  0  0  0  0
  156.9930  213.7980  157.2570 O   0  0  0  0  0  1  0  0  0  0  0  0
  157.3230  211.5350  157.1810 O   0  0  0  0  0  0  0  0  0  0  0  0
  159.3730  208.0100  156.2080 O   0  0  0  0  0  1  0  0  0  0  0  0
  162.0090  208.7220  155.8480 O   0  0  0  0  0  1  0  0  0  0  0  0
  160.5640  208.3400  155.0540 P   0  0  0  0  0  0  0  0  0  0  0  0
  160.7840  207.1180  154.1920 O   0  0  0  0  0  0  0  0  0  0  0  0
  161.4620  209.7710  150.9070 C   0  0  1  0  0  3  0  0  0  0  0  0
  162.3370  210.9030  150.3840 C   0  0  2  0  0  3  0  0  0  0  0  0
  158.5390  213.5720  149.0590 O   0  0  0  0  0  0  0  0  0  0  0  0
  162.0260  212.7650  148.3640 C   0  0  1  0  0  0  0  0  0  0  0  0
  160.0970  212.4140  150.4480 C   0  0  0  0  0  2  0  0  0  0  0  0
  162.7560  212.5940  147.1800 O   0  0  0  0  0  0  0  0  0  0  0  0
  159.6480  213.0740  149.1430 C   0  0  0  0  0  0  0  0  0  0  0  0
  160.5730  213.0450  147.9190 C   0  0  0  0  0  2  0  0  0  0  0  0
  162.9180  211.5790  148.1280 C   0  0  2  0  0  3  0  0  0  0  0  0
  161.6250  212.2170  150.4000 C   0  0  2  0  0  3  0  0  0  0  0  0
  161.7670  211.4390  149.0790 C   0  0  2  0  0  0  0  0  0  0  0  0
  161.4520  208.5810  149.9380 C   0  0  2  0  0  3  0  0  0  0  0  0
  161.5350  205.1640  151.2840 N   0  0  0  0  0  0  0  0  0  0  0  0
  162.4980  205.7280  152.0000 N   0  0  0  0  0  2  0  0  0  0  0  0
  161.0540  206.0980  150.4520 C   0  0  0  0  0  0  0  0  0  0  0  0
  162.6400  207.0200  151.6330 C   0  0  0  0  0  3  0  0  0  0  0  0
  161.7250  207.2790  150.6290 C   0  0  0  0  0  0  0  0  0  0  0  0
  159.9870  205.8720  149.5370 N   0  0  0  0  0  1  0  0  0  0  0  0
  162.2860  208.7720  148.6990 C   0  0  0  0  0  3  0  0  0  0  0  0
  162.4610  207.8630  147.9030 O   0  0  0  0  0  0  0  0  0  0  0  0
  1  2  1  0  0  0  0
  3  2  1  1  0  0  0
  3 20  1  0  0  0  0
  4  9  1  0  0  0  0
  6  3  1  6  0  0  0
  6 13  1  0  0  0  0
  8 10  1  0  0  0  0
  9 12  1  0  0  0  0
  9  8  1  0  0  0  0
 10 15  1  6  0  0  0
 11 13  1  0  0  0  0
 12  5  1  6  0  0  0
 12  6  1  0  0  0  0
 13 10  1  0  0  0  0
 13  7  1  0  0  0  0
 14  9  1  0  0  0  0
 15 17  2  0  0  0  0
 15 16  1  0  0  0  0
 20 19  1  0  0  0  0
 20 18  1  0  0  0  0
 21 20  2  0  0  0  0
 22  1  1  1  0  0  0
 23 31  1  0  0  0  0
 23 22  1  1  0  0  0
 24 28  2  0  0  0  0
 25 29  1  6  0  0  0
 25 32  1  0  0  0  0
 27 25  1  0  0  0  0
 28 26  1  0  0  0  0
 29 28  1  0  0  0  0
 30 27  1  6  0  0  0
 30 25  1  0  0  0  0
 30 32  1  0  0  0  0
 31 26  1  1  0  0  0
 32 23  1  0  0  0  0
 32 31  1  0  0  0  0
 33 38  1  0  0  0  0
 33 22  1  0  0  0  0
 34 35  1  0  0  0  0
 36 38  1  0  0  0  0
 36 34  2  0  0  0  0
 37 35  1  0  0  0  0
 38 37  2  0  0  0  0
 39 36  1  0  0  0  0
 40 33  1  0  0  0  0
 41 40  2  0  0  0  0
M  END
>  <MODEL>
2

>  <REMARK>
 VINA RESULT:      -3.3      4.017      8.215
  Name = 
  10 active torsions:
  status: ('A' for Active; 'I' for Inactive)
    1  A    between atoms: C_2  and  C_35
    2  A    between atoms: C_5  and  C_9
    3  A    between atoms: C_5  and  C_14
    4  A    between atoms: C_6  and  C_29
    5  A    between atoms: C_9  and  C_35
    6  A    between atoms: C_12  and  C_14
    7  A    between atoms: C_14  and  P_24
    8  A    between atoms: C_19  and  C_23
    9  A    between atoms: C_23  and  C_33
   10  A    between atoms: C_23  and  C_35
                            x       y       z     vdW  Elec       q    Type
                         _______ _______ _______ _____ _____    ______ ____

>  <TORSDO>
F 10

$$$$
=
 OpenBabel11072412513D

 41 46  0  0  1  0  0  0  0  0999 V2000
  161.8890  208.5240  151.7060 C   0  0  0  0  0  2  0  0  0  0  0  0
  160.9720  207.3380  151.5000 C   0  0  0  0  0  2  0  0  0  0  0  0
  161.7790  206.0760  151.2310 C   0  0  2  0  0  3  0  0  0  0  0  0
  162.8770  208.5440  147.3780 F   0  0  0  0  0  0  0  0  0  0  0  0
  163.6220  207.5780  149.8500 O   0  0  0  0  0  1  0  0  0  0  0  0
  161.9760  205.7770  149.7260 C   0  0  2  0  0  3  0  0  0  0  0  0
  160.4860  203.9970  149.1030 O   0  0  0  0  0  1  0  0  0  0  0  0
  161.2840  206.9640  147.0510 O   0  0  0  0  0  0  0  0  0  0  0  0
  162.0130  207.6890  148.0370 C   0  0  0  0  0  0  0  0  0  0  0  0
  160.9590  205.6230  147.4030 C   0  0  2  0  0  3  0  0  0  0  0  0
  159.6010  206.0740  149.3070 O   0  0  0  0  0  1  0  0  0  0  0  0
  162.8460  206.8060  148.9810 C   0  0  1  0  0  3  0  0  0  0  0  0
  160.7310  205.3560  148.9070 C   0  0  0  0  0  0  0  0  0  0  0  0
  161.1300  208.4630  148.7700 F   0  0  0  0  0  0  0  0  0  0  0  0
  161.8740  204.6420  146.7270 C   0  0  0  0  0  0  0  0  0  0  0  0
  163.1790  205.0100  146.4340 O   0  0  0  0  0  1  0  0  0  0  0  0
  161.4640  203.4960  146.4070 O   0  0  0  0  0  0  0  0  0  0  0  0
  161.2500  204.9360  153.8290 O   0  0  0  0  0  1  0  0  0  0  0  0
  162.0190  203.2700  151.7760 O   0  0  0  0  0  0  0  0  0  0  0  0
  161.1260  204.6520  152.1670 P   0  0  0  0  0  0  0  0  0  0  0  0
  159.6780  204.4230  151.8000 O   0  0  0  0  0  1  0  0  0  0  0  0
  161.2060  209.5270  152.6240 C   0  0  1  0  0  3  0  0  0  0  0  0
  161.9980  209.7110  153.9120 C   0  0  2  0  0  3  0  0  0  0  0  0
  159.0230  206.8780  156.4490 O   0  0  0  0  0  0  0  0  0  0  0  0
  161.2970  209.7250  156.5870 C   0  0  1  0  0  0  0  0  0  0  0  0
  160.6420  207.5620  154.8320 C   0  0  0  0  0  2  0  0  0  0  0  0
  161.2600  210.9530  157.2610 O   0  0  0  0  0  0  0  0  0  0  0  0
  159.8250  207.7330  156.1150 C   0  0  0  0  0  0  0  0  0  0  0  0
  159.9700  209.0160  156.9430 C   0  0  0  0  0  2  0  0  0  0  0  0
  161.5600  211.0340  155.8980 C   0  0  2  0  0  3  0  0  0  0  0  0
  161.8110  208.5660  154.8550 C   0  0  2  0  0  3  0  0  0  0  0  0
  161.0460  209.8820  155.0860 C   0  0  2  0  0  0  0  0  0  0  0  0
  160.9290  210.8750  151.9430 C   0  0  2  0  0  3  0  0  0  0  0  0
  158.0390  212.9890  152.7670 N   0  0  0  0  0  0  0  0  0  0  0  0
  157.7350  211.8910  153.4440 N   0  0  0  0  0  2  0  0  0  0  0  0
  159.2000  212.7630  152.1360 C   0  0  0  0  0  0  0  0  0  0  0  0
  158.6940  210.9580  153.2530 C   0  0  0  0  0  3  0  0  0  0  0  0
  159.6450  211.4950  152.4050 C   0  0  0  0  0  0  0  0  0  0  0  0
  159.8620  213.7260  151.3230 N   0  0  0  0  0  1  0  0  0  0  0  0
  161.0680  210.8630  150.4450 C   0  0  0  0  0  3  0  0  0  0  0  0
  161.9990  211.4230  149.8870 O   0  0  0  0  0  0  0  0  0  0  0  0
  2  1  1  0  0  0  0
  3  2  1  6  0  0  0
  3 20  1  0  0  0  0
  4  9  1  0  0  0  0
  6  3  1  1  0  0  0
  8 10  1  0  0  0  0
  8  9  1  0  0  0  0
  9 14  1  0  0  0  0
  9 12  1  0  0  0  0
 10 15  1  1  0  0  0
 10 13  1  0  0  0  0
 12  6  1  0  0  0  0
 12  5  1  1  0  0  0
 13  7  1  0  0  0  0
 13 11  1  0  0  0  0
 13  6  1  0  0  0  0
 16 15  1  0  0  0  0
 17 15  2  0  0  0  0
 19 20  2  0  0  0  0
 20 18  1  0  0  0  0
 21 20  1  0  0  0  0
 22  1  1  6  0  0  0
 23 22  1  6  0  0  0
 23 31  1  0  0  0  0
 23 32  1  0  0  0  0
 25 29  1  6  0  0  0
 25 27  1  0  0  0  0
 26 28  1  0  0  0  0
 28 24  2  0  0  0  0
 28 29  1  0  0  0  0
 30 25  1  0  0  0  0
 30 27  1  1  0  0  0
 31 26  1  6  0  0  0
 31 32  1  0  0  0  0
 32 30  1  0  0  0  0
 32 25  1  0  0  0  0
 33 38  1  0  0  0  0
 33 22  1  0  0  0  0
 34 35  1  0  0  0  0
 36 38  1  0  0  0  0
 36 34  2  0  0  0  0
 37 35  1  0  0  0  0
 38 37  2  0  0  0  0
 39 36  1  0  0  0  0
 40 33  1  0  0  0  0
 41 40  2  0  0  0  0
M  END
>  <MODEL>
3

>  <REMARK>
 VINA RESULT:      -3.2      1.015      1.999
  Name = 
  10 active torsions:
  status: ('A' for Active; 'I' for Inactive)
    1  A    between atoms: C_2  and  C_35
    2  A    between atoms: C_5  and  C_9
    3  A    between atoms: C_5  and  C_14
    4  A    between atoms: C_6  and  C_29
    5  A    between atoms: C_9  and  C_35
    6  A    between atoms: C_12  and  C_14
    7  A    between atoms: C_14  and  P_24
    8  A    between atoms: C_19  and  C_23
    9  A    between atoms: C_23  and  C_33
   10  A    between atoms: C_23  and  C_35
                            x       y       z     vdW  Elec       q    Type
                         _______ _______ _______ _____ _____    ______ ____

>  <TORSDO>
F 10

$$$$
=
 OpenBabel11072412513D

 41 46  0  0  1  0  0  0  0  0999 V2000
  159.8630  210.4590  152.3670 C   0  0  0  0  0  2  0  0  0  0  0  0
  160.7140  211.1300  153.4250 C   0  0  0  0  0  2  0  0  0  0  0  0
  160.2470  210.7350  154.8180 C   0  0  2  0  0  3  0  0  0  0  0  0
  155.5480  210.9650  154.9360 F   0  0  0  0  0  0  0  0  0  0  0  0
  157.8630  209.6550  155.6610 O   0  0  0  0  0  1  0  0  0  0  0  0
  159.1860  211.6930  155.4090 C   0  0  2  0  0  3  0  0  0  0  0  0
  160.0650  213.9290  155.3550 O   0  0  0  0  0  1  0  0  0  0  0  0
  156.5720  212.9650  154.6340 O   0  0  0  0  0  0  0  0  0  0  0  0
  156.7600  211.5530  154.6270 C   0  0  0  0  0  0  0  0  0  0  0  0
  157.6900  213.7220  155.0890 C   0  0  2  0  0  3  0  0  0  0  0  0
  159.2580  213.0800  153.4140 O   0  0  0  0  0  1  0  0  0  0  0  0
  157.8050  211.0510  155.6380 C   0  0  1  0  0  3  0  0  0  0  0  0
  159.0790  213.1130  154.8000 C   0  0  0  0  0  0  0  0  0  0  0  0
  157.1100  211.1530  153.3490 F   0  0  0  0  0  0  0  0  0  0  0  0
  157.4960  214.1920  156.5010 C   0  0  0  0  0  0  0  0  0  0  0  0
  156.2150  214.4430  156.9720 O   0  0  0  0  0  0  0  0  0  0  0  0
  158.4840  214.3780  157.2590 O   0  0  0  0  0  1  0  0  0  0  0  0
  161.5800  211.4990  157.2610 O   0  0  0  0  0  1  0  0  0  0  0  0
  163.1010  210.7190  155.1020 O   0  0  0  0  0  0  0  0  0  0  0  0
  161.6570  210.4470  155.9390 P   0  0  0  0  0  0  0  0  0  0  0  0
  161.6330  209.0170  156.4300 O   0  0  0  0  0  1  0  0  0  0  0  0
  160.7330  210.1350  151.1610 C   0  0  1  0  0  3  0  0  0  0  0  0
  161.6540  211.3020  150.8280 C   0  0  2  0  0  3  0  0  0  0  0  0
  158.1710  213.7320  148.5310 O   0  0  0  0  0  0  0  0  0  0  0  0
  161.7570  213.1030  148.7320 C   0  0  1  0  0  0  0  0  0  0  0  0
  159.3970  212.6900  150.2960 C   0  0  0  0  0  2  0  0  0  0  0  0
  162.7610  212.9470  147.7670 O   0  0  0  0  0  0  0  0  0  0  0  0
  159.2490  213.2970  148.8990 C   0  0  0  0  0  0  0  0  0  0  0  0
  160.4440  213.2930  147.9380 C   0  0  0  0  0  2  0  0  0  0  0  0
  162.7350  211.9620  148.7590 C   0  0  2  0  0  3  0  0  0  0  0  0
  160.8970  212.5760  150.6270 C   0  0  2  0  0  3  0  0  0  0  0  0
  161.3950  211.7790  149.4070 C   0  0  2  0  0  0  0  0  0  0  0  0
  161.5240  208.8300  151.3210 C   0  0  2  0  0  3  0  0  0  0  0  0
  161.6080  206.4570  148.5180 N   0  0  0  0  0  0  0  0  0  0  0  0
  162.2550  207.4830  147.9840 N   0  0  0  0  0  0  0  0  0  0  0  0
  161.2530  206.8090  149.7620 C   0  0  2  0  0  3  0  0  0  0  0  0
  162.3180  208.4950  148.8770 C   0  0  0  0  0  3  0  0  0  0  0  0
  161.6690  208.0870  150.0280 C   0  0  0  0  0  0  0  0  0  0  0  0
  160.5570  205.9530  150.6610 N   0  0  0  0  0  1  0  0  0  0  0  0
  161.0620  207.9510  152.4530 C   0  0  0  0  0  3  0  0  0  0  0  0
  161.8020  207.6710  153.3840 O   0  0  0  0  0  0  0  0  0  0  0  0
  1  2  1  0  0  0  0
  3  2  1  6  0  0  0
  3 20  1  0  0  0  0
  6  3  1  6  0  0  0
  6 12  1  0  0  0  0
  8 10  1  0  0  0  0
  9  8  1  0  0  0  0
  9  4  1  0  0  0  0
  9 12  1  0  0  0  0
 10 15  1  1  0  0  0
 11 13  1  0  0  0  0
 12  5  1  6  0  0  0
 13 10  1  0  0  0  0
 13  7  1  0  0  0  0
 13  6  1  0  0  0  0
 14  9  1  0  0  0  0
 15 16  2  0  0  0  0
 15 17  1  0  0  0  0
 19 20  2  0  0  0  0
 20 21  1  0  0  0  0
 20 18  1  0  0  0  0
 22 33  1  0  0  0  0
 22  1  1  1  0  0  0
 23 22  1  6  0  0  0
 24 28  2  0  0  0  0
 25 29  1  6  0  0  0
 25 30  1  0  0  0  0
 25 32  1  0  0  0  0
 27 25  1  0  0  0  0
 28 26  1  0  0  0  0
 29 28  1  0  0  0  0
 30 27  1  6  0  0  0
 30 32  1  0  0  0  0
 31 26  1  6  0  0  0
 31 23  1  0  0  0  0
 32 31  1  0  0  0  0
 32 23  1  0  0  0  0
 33 40  1  0  0  0  0
 34 36  1  0  0  0  0
 35 34  2  0  0  0  0
 35 37  1  0  0  0  0
 36 38  1  0  0  0  0
 36 39  1  0  0  0  0
 37 38  2  0  0  0  0
 38 33  1  0  0  0  0
 40 41  2  0  0  0  0
M  END
>  <MODEL>
4

>  <REMARK>
 VINA RESULT:      -3.1      4.347      8.620
  Name = 
  10 active torsions:
  status: ('A' for Active; 'I' for Inactive)
    1  A    between atoms: C_2  and  C_35
    2  A    between atoms: C_5  and  C_9
    3  A    between atoms: C_5  and  C_14
    4  A    between atoms: C_6  and  C_29
    5  A    between atoms: C_9  and  C_35
    6  A    between atoms: C_12  and  C_14
    7  A    between atoms: C_14  and  P_24
    8  A    between atoms: C_19  and  C_23
    9  A    between atoms: C_23  and  C_33
   10  A    between atoms: C_23  and  C_35
                            x       y       z     vdW  Elec       q    Type
                         _______ _______ _______ _____ _____    ______ ____

>  <TORSDO>
F 10

$$$$
=
 OpenBabel11072412513D

 41 46  0  0  1  0  0  0  0  0999 V2000
  160.2070  208.2070  152.1620 C   0  0  0  0  0  2  0  0  0  0  0  0
  160.9100  208.7990  153.3650 C   0  0  0  0  0  2  0  0  0  0  0  0
  160.0110  208.7470  154.5910 C   0  0  2  0  0  3  0  0  0  0  0  0
  156.5780  211.9650  154.7110 F   0  0  0  0  0  0  0  0  0  0  0  0
  157.4510  209.4260  155.3340 O   0  0  0  0  0  1  0  0  0  0  0  0
  159.7900  210.1280  155.2540 C   0  0  2  0  0  3  0  0  0  0  0  0
  161.9080  211.2550  155.3870 O   0  0  0  0  0  1  0  0  0  0  0  0
  158.6680  212.8350  154.5770 O   0  0  0  0  0  0  0  0  0  0  0  0
  157.8980  211.6420  154.4550 C   0  0  0  0  0  0  0  0  0  0  0  0
  159.9820  212.6560  155.0960 C   0  0  2  0  0  3  0  0  0  0  0  0
  160.8530  211.2520  153.3800 O   0  0  0  0  0  1  0  0  0  0  0  0
  158.3120  210.5230  155.4250 C   0  0  1  0  0  3  0  0  0  0  0  0
  160.6610  211.3100  154.7630 C   0  0  0  0  0  0  0  0  0  0  0  0
  157.9770  211.1890  153.1490 F   0  0  0  0  0  0  0  0  0  0  0  0
  160.0590  213.0540  156.5410 C   0  0  0  0  0  0  0  0  0  0  0  0
  161.2210  212.8090  157.2600 O   0  0  0  0  0  1  0  0  0  0  0  0
  159.0750  213.5890  157.1140 O   0  0  0  0  0  0  0  0  0  0  0  0
  161.7320  208.0880  156.8100 O   0  0  0  0  0  1  0  0  0  0  0  0
  161.2150  206.1640  154.9100 O   0  0  0  0  0  0  0  0  0  0  0  0
  160.5560  207.4650  155.7670 P   0  0  0  0  0  0  0  0  0  0  0  0
  159.3740  206.9760  156.5730 O   0  0  0  0  0  1  0  0  0  0  0  0
  161.0830  207.1170  151.5610 C   0  0  1  0  0  3  0  0  0  0  0  0
  160.3350  206.3610  150.4690 C   0  0  2  0  0  3  0  0  0  0  0  0
  161.8880  202.0620  152.0240 O   0  0  0  0  0  0  0  0  0  0  0  0
  160.8220  203.9960  149.1230 C   0  0  1  0  0  0  0  0  0  0  0  0
  160.7410  204.1550  151.9790 C   0  0  0  0  0  2  0  0  0  0  0  0
  161.2670  204.0630  147.7960 O   0  0  0  0  0  0  0  0  0  0  0  0
  161.4800  202.9810  151.3350 C   0  0  0  0  0  0  0  0  0  0  0  0
  161.7680  202.9970  149.8280 C   0  0  0  0  0  2  0  0  0  0  0  0
  161.1040  205.2980  148.4290 C   0  0  2  0  0  3  0  0  0  0  0  0
  160.0260  204.9540  150.8710 C   0  0  2  0  0  3  0  0  0  0  0  0
  161.2070  205.2400  149.9240 C   0  0  2  0  0  0  0  0  0  0  0  0
  162.4320  207.6400  151.0510 C   0  0  2  0  0  3  0  0  0  0  0  0
  162.0750  210.5210  148.8000 N   0  0  0  0  0  0  0  0  0  0  0  0
  161.8810  209.5250  147.9480 N   0  0  0  0  0  0  0  0  0  0  0  0
  162.3110  209.9800  150.0040 C   0  0  2  0  0  3  0  0  0  0  0  0
  161.9910  208.3440  148.5960 C   0  0  0  0  0  3  0  0  0  0  0  0
  162.2780  208.6130  149.9220 C   0  0  0  0  0  0  0  0  0  0  0  0
  162.5430  210.7410  151.1840 N   0  0  0  0  0  1  0  0  0  0  0  0
  163.4540  206.5720  150.7680 C   0  0  0  0  0  3  0  0  0  0  0  0
  163.8250  205.7990  151.6390 O   0  0  0  0  0  0  0  0  0  0  0  0
  1  2  1  0  0  0  0
  3  2  1  6  0  0  0
  3 20  1  0  0  0  0
  6  3  1  6  0  0  0
  6 12  1  0  0  0  0
  8 10  1  0  0  0  0
  9  8  1  0  0  0  0
  9  4  1  0  0  0  0
  9 12  1  0  0  0  0
 10 15  1  1  0  0  0
 11 13  1  0  0  0  0
 12  5  1  6  0  0  0
 13 10  1  0  0  0  0
 13  6  1  0  0  0  0
 13  7  1  0  0  0  0
 14  9  1  0  0  0  0
 15 17  2  0  0  0  0
 15 16  1  0  0  0  0
 19 20  2  0  0  0  0
 20 21  1  0  0  0  0
 20 18  1  0  0  0  0
 22  1  1  6  0  0  0
 23 31  1  0  0  0  0
 23 22  1  1  0  0  0
 25 29  1  6  0  0  0
 25 32  1  0  0  0  0
 27 25  1  0  0  0  0
 28 26  1  0  0  0  0
 28 24  2  0  0  0  0
 29 28  1  0  0  0  0
 30 27  1  6  0  0  0
 30 25  1  0  0  0  0
 30 32  1  0  0  0  0
 31 26  1  1  0  0  0
 32 23  1  0  0  0  0
 32 31  1  0  0  0  0
 33 22  1  0  0  0  0
 34 36  1  0  0  0  0
 35 37  1  0  0  0  0
 35 34  2  0  0  0  0
 36 39  1  0  0  0  0
 37 38  2  0  0  0  0
 38 36  1  0  0  0  0
 38 33  1  0  0  0  0
 40 33  1  0  0  0  0
 40 41  2  0  0  0  0
M  END
>  <MODEL>
5

>  <REMARK>
 VINA RESULT:      -3.1      3.105      7.556
  Name = 
  10 active torsions:
  status: ('A' for Active; 'I' for Inactive)
    1  A    between atoms: C_2  and  C_35
    2  A    between atoms: C_5  and  C_9
    3  A    between atoms: C_5  and  C_14
    4  A    between atoms: C_6  and  C_29
    5  A    between atoms: C_9  and  C_35
    6  A    between atoms: C_12  and  C_14
    7  A    between atoms: C_14  and  P_24
    8  A    between atoms: C_19  and  C_23
    9  A    between atoms: C_23  and  C_33
   10  A    between atoms: C_23  and  C_35
                            x       y       z     vdW  Elec       q    Type
                         _______ _______ _______ _____ _____    ______ ____

>  <TORSDO>
F 10

$$$$
=
 OpenBabel11072412513D

 41 46  0  0  1  0  0  0  0  0999 V2000
  161.5570  208.6020  151.8440 C   0  0  0  0  0  2  0  0  0  0  0  0
  160.7610  207.3620  151.4950 C   0  0  0  0  0  2  0  0  0  0  0  0
  161.6880  206.1750  151.2730 C   0  0  2  0  0  3  0  0  0  0  0  0
  163.0310  208.6650  147.5120 F   0  0  0  0  0  0  0  0  0  0  0  0
  163.6200  207.6760  150.0170 O   0  0  0  0  0  1  0  0  0  0  0  0
  161.9740  205.8860  149.7800 C   0  0  2  0  0  3  0  0  0  0  0  0
  160.5140  204.1200  149.0540 O   0  0  0  0  0  1  0  0  0  0  0  0
  161.4520  207.0970  147.0770 O   0  0  0  0  0  0  0  0  0  0  0  0
  162.1240  207.8110  148.1110 C   0  0  0  0  0  0  0  0  0  0  0  0
  161.0990  205.7550  147.3990 C   0  0  2  0  0  3  0  0  0  0  0  0
  159.6300  206.2010  149.2200 O   0  0  0  0  0  1  0  0  0  0  0  0
  162.8930  206.9150  149.0970 C   0  0  1  0  0  3  0  0  0  0  0  0
  160.7790  205.4800  148.8840 C   0  0  0  0  0  0  0  0  0  0  0  0
  161.2030  208.5840  148.7950 F   0  0  0  0  0  0  0  0  0  0  0  0
  162.0470  204.7740  146.7720 C   0  0  0  0  0  0  0  0  0  0  0  0
  161.6060  203.4960  146.4610 O   0  0  0  0  0  0  0  0  0  0  0  0
  163.2430  205.0930  146.5430 O   0  0  0  0  0  1  0  0  0  0  0  0
  161.2070  204.9900  153.8590 O   0  0  0  0  0  1  0  0  0  0  0  0
  162.1200  203.3910  151.8110 O   0  0  0  0  0  1  0  0  0  0  0  0
  161.1260  204.7050  152.1940 P   0  0  0  0  0  0  0  0  0  0  0  0
  159.7020  204.3750  151.8070 O   0  0  0  0  0  0  0  0  0  0  0  0
  160.7320  209.4750  152.7800 C   0  0  1  0  0  3  0  0  0  0  0  0
  161.5910  210.0110  153.9180 C   0  0  2  0  0  3  0  0  0  0  0  0
  159.7040  206.9420  157.1320 O   0  0  0  0  0  0  0  0  0  0  0  0
  161.2070  210.2290  156.6470 C   0  0  1  0  0  0  0  0  0  0  0  0
  160.9170  207.7530  155.2420 C   0  0  0  0  0  2  0  0  0  0  0  0
  160.9430  211.4950  157.1850 O   0  0  0  0  0  0  0  0  0  0  0  0
  160.2290  207.9050  156.6000 C   0  0  0  0  0  0  0  0  0  0  0  0
  160.1430  209.2880  157.2580 C   0  0  0  0  0  2  0  0  0  0  0  0
  161.0620  211.4560  155.7930 C   0  0  2  0  0  3  0  0  0  0  0  0
  161.7970  208.9940  154.9940 C   0  0  2  0  0  3  0  0  0  0  0  0
  160.7610  210.1170  155.1880 C   0  0  2  0  0  0  0  0  0  0  0  0
  159.9970  210.6100  152.0540 C   0  0  2  0  0  3  0  0  0  0  0  0
  161.4820  212.5730  149.3270 N   0  0  0  0  0  0  0  0  0  0  0  0
  162.3430  211.5680  149.3960 N   0  0  0  0  0  0  0  0  0  0  0  0
  160.5500  212.3700  150.2700 C   0  0  2  0  0  3  0  0  0  0  0  0
  161.9720  210.7180  150.3790 C   0  0  0  0  0  3  0  0  0  0  0  0
  160.8240  211.2210  150.9630 C   0  0  0  0  0  0  0  0  0  0  0  0
  159.4400  213.2330  150.4870 N   0  0  0  0  0  1  0  0  0  0  0  0
  159.3750  211.6370  152.9620 C   0  0  0  0  0  3  0  0  0  0  0  0
  158.1870  211.5970  153.2480 O   0  0  0  0  0  0  0  0  0  0  0  0
  2  1  1  0  0  0  0
  3  2  1  6  0  0  0
  3 20  1  0  0  0  0
  4  9  1  0  0  0  0
  6  3  1  1  0  0  0
  8 10  1  0  0  0  0
  8  9  1  0  0  0  0
  9 14  1  0  0  0  0
  9 12  1  0  0  0  0
 10 15  1  1  0  0  0
 10 13  1  0  0  0  0
 12  6  1  0  0  0  0
 12  5  1  1  0  0  0
 13  7  1  0  0  0  0
 13 11  1  0  0  0  0
 13  6  1  0  0  0  0
 16 15  2  0  0  0  0
 17 15  1  0  0  0  0
 19 20  1  0  0  0  0
 20 18  1  0  0  0  0
 21 20  2  0  0  0  0
 22  1  1  6  0  0  0
 23 22  1  6  0  0  0
 23 31  1  0  0  0  0
 23 32  1  0  0  0  0
 25 27  1  0  0  0  0
 25 29  1  6  0  0  0
 26 28  1  0  0  0  0
 28 24  2  0  0  0  0
 28 29  1  0  0  0  0
 30 25  1  0  0  0  0
 30 27  1  1  0  0  0
 31 32  1  0  0  0  0
 31 26  1  6  0  0  0
 32 30  1  0  0  0  0
 32 25  1  0  0  0  0
 33 22  1  0  0  0  0
 33 40  1  0  0  0  0
 34 35  2  0  0  0  0
 34 36  1  0  0  0  0
 35 37  1  0  0  0  0
 36 39  1  0  0  0  0
 36 38  1  0  0  0  0
 37 38  2  0  0  0  0
 38 33  1  0  0  0  0
 40 41  2  0  0  0  0
M  END
>  <MODEL>
6

>  <REMARK>
 VINA RESULT:      -2.9      1.419      2.293
  Name = 
  10 active torsions:
  status: ('A' for Active; 'I' for Inactive)
    1  A    between atoms: C_2  and  C_35
    2  A    between atoms: C_5  and  C_9
    3  A    between atoms: C_5  and  C_14
    4  A    between atoms: C_6  and  C_29
    5  A    between atoms: C_9  and  C_35
    6  A    between atoms: C_12  and  C_14
    7  A    between atoms: C_14  and  P_24
    8  A    between atoms: C_19  and  C_23
    9  A    between atoms: C_23  and  C_33
   10  A    between atoms: C_23  and  C_35
                            x       y       z     vdW  Elec       q    Type
                         _______ _______ _______ _____ _____    ______ ____

>  <TORSDO>
F 10

$$$$
=
 OpenBabel11072412513D

 41 46  0  0  1  0  0  0  0  0999 V2000
  161.3590  209.2210  151.3530 C   0  0  0  0  0  2  0  0  0  0  0  0
  160.2420  210.0050  152.0080 C   0  0  0  0  0  2  0  0  0  0  0  0
  160.6780  211.4390  152.2730 C   0  0  2  0  0  3  0  0  0  0  0  0
  160.7340  209.9050  156.7220 F   0  0  0  0  0  0  0  0  0  0  0  0
  162.1350  210.7030  154.4860 O   0  0  0  0  0  1  0  0  0  0  0  0
  160.2250  211.9780  153.6510 C   0  0  2  0  0  3  0  0  0  0  0  0
  158.2720  213.3410  153.3310 O   0  0  0  0  0  1  0  0  0  0  0  0
  158.8420  211.0110  156.1400 O   0  0  0  0  0  0  0  0  0  0  0  0
  160.0230  210.3920  155.6410 C   0  0  0  0  0  0  0  0  0  0  0  0
  158.3990  212.1510  155.4100 C   0  0  2  0  0  3  0  0  0  0  0  0
  157.9870  211.0920  153.3160 O   0  0  0  0  0  1  0  0  0  0  0  0
  160.9450  211.3390  154.8530 C   0  0  1  0  0  3  0  0  0  0  0  0
  158.7050  212.1410  153.8960 C   0  0  0  0  0  0  0  0  0  0  0  0
  159.6660  209.3140  154.8500 F   0  0  0  0  0  0  0  0  0  0  0  0
  158.7640  213.4270  156.1120 C   0  0  0  0  0  0  0  0  0  0  0  0
  160.0760  213.6440  156.5050 O   0  0  0  0  0  1  0  0  0  0  0  0
  157.8870  214.2940  156.3650 O   0  0  0  0  0  0  0  0  0  0  0  0
  158.6090  212.3220  150.4660 O   0  0  0  0  0  1  0  0  0  0  0  0
  161.2030  212.1810  149.5530 O   0  0  0  0  0  0  0  0  0  0  0  0
  160.2310  212.5410  150.8900 P   0  0  0  0  0  0  0  0  0  0  0  0
  160.4590  213.9800  151.2910 O   0  0  0  0  0  1  0  0  0  0  0  0
  160.8290  207.8550  150.9370 C   0  0  1  0  0  3  0  0  0  0  0  0
  160.7230  207.7540  149.4210 C   0  0  2  0  0  3  0  0  0  0  0  0
  160.6910  202.9270  149.4880 O   0  0  0  0  0  0  0  0  0  0  0  0
  161.6050  205.8930  147.5760 C   0  0  1  0  0  0  0  0  0  0  0  0
  159.9930  205.1840  149.8310 C   0  0  0  0  0  2  0  0  0  0  0  0
  162.7080  206.2190  146.7750 O   0  0  0  0  0  0  0  0  0  0  0  0
  160.8310  204.0930  149.1610 C   0  0  0  0  0  0  0  0  0  0  0  0
  161.8950  204.4780  148.1270 C   0  0  0  0  0  2  0  0  0  0  0  0
  162.3620  207.1830  147.7260 C   0  0  2  0  0  3  0  0  0  0  0  0
  160.0930  206.4690  148.9860 C   0  0  2  0  0  3  0  0  0  0  0  0
  161.6230  206.6380  148.9110 C   0  0  2  0  0  0  0  0  0  0  0  0
  161.6440  206.6910  151.5180 C   0  0  2  0  0  3  0  0  0  0  0  0
  160.6720  205.3880  154.8120 N   0  0  0  0  0  0  0  0  0  0  0  0
  160.8570  206.6670  155.1050 N   0  0  0  0  0  2  0  0  0  0  0  0
  160.9420  205.2300  153.5080 C   0  0  0  0  0  0  0  0  0  0  0  0
  161.2470  207.3350  153.9970 C   0  0  0  0  0  3  0  0  0  0  0  0
  161.3180  206.4270  152.9560 C   0  0  0  0  0  0  0  0  0  0  0  0
  160.8310  203.9900  152.8190 N   0  0  0  0  0  1  0  0  0  0  0  0
  163.1240  206.7680  151.2570 C   0  0  0  0  0  3  0  0  0  0  0  0
  163.8840  205.8890  151.6340 O   0  0  0  0  0  0  0  0  0  0  0  0
  1  2  1  0  0  0  0
  3  2  1  6  0  0  0
  6  3  1  6  0  0  0
  6 13  1  0  0  0  0
  6 12  1  0  0  0  0
  7 13  1  0  0  0  0
  9  8  1  0  0  0  0
  9  4  1  0  0  0  0
 10 15  1  1  0  0  0
 10  8  1  0  0  0  0
 11 13  1  0  0  0  0
 12  5  1  6  0  0  0
 12  9  1  0  0  0  0
 13 10  1  0  0  0  0
 14  9  1  0  0  0  0
 15 17  2  0  0  0  0
 15 16  1  0  0  0  0
 18 20  1  0  0  0  0
 19 20  2  0  0  0  0
 20 21  1  0  0  0  0
 20  3  1  0  0  0  0
 22  1  1  6  0  0  0
 22 33  1  0  0  0  0
 23 22  1  1  0  0  0
 25 30  1  0  0  0  0
 25 29  1  1  0  0  0
 25 32  1  0  0  0  0
 27 25  1  0  0  0  0
 28 24  2  0  0  0  0
 28 26  1  0  0  0  0
 29 28  1  0  0  0  0
 30 27  1  1  0  0  0
 30 32  1  0  0  0  0
 31 23  1  0  0  0  0
 31 26  1  1  0  0  0
 32 31  1  0  0  0  0
 32 23  1  0  0  0  0
 33 38  1  0  0  0  0
 34 35  1  0  0  0  0
 36 34  2  0  0  0  0
 37 35  1  0  0  0  0
 38 36  1  0  0  0  0
 38 37  2  0  0  0  0
 39 36  1  0  0  0  0
 40 33  1  0  0  0  0
 40 41  2  0  0  0  0
M  END
>  <MODEL>
7

>  <REMARK>
 VINA RESULT:      -2.8      3.863      8.372
  Name = 
  10 active torsions:
  status: ('A' for Active; 'I' for Inactive)
    1  A    between atoms: C_2  and  C_35
    2  A    between atoms: C_5  and  C_9
    3  A    between atoms: C_5  and  C_14
    4  A    between atoms: C_6  and  C_29
    5  A    between atoms: C_9  and  C_35
    6  A    between atoms: C_12  and  C_14
    7  A    between atoms: C_14  and  P_24
    8  A    between atoms: C_19  and  C_23
    9  A    between atoms: C_23  and  C_33
   10  A    between atoms: C_23  and  C_35
                            x       y       z     vdW  Elec       q    Type
                         _______ _______ _______ _____ _____    ______ ____

>  <TORSDO>
F 10

$$$$
=
 OpenBabel11072412513D

 41 46  0  0  1  0  0  0  0  0999 V2000
  161.0910  206.3030  150.5350 C   0  0  0  0  0  2  0  0  0  0  0  0
  160.9170  207.8000  150.3920 C   0  0  0  0  0  2  0  0  0  0  0  0
  162.0470  208.5420  151.0910 C   0  0  2  0  0  3  0  0  0  0  0  0
  161.3320  205.1390  154.2630 F   0  0  0  0  0  0  0  0  0  0  0  0
  162.9000  206.2040  152.2620 O   0  0  0  0  0  1  0  0  0  0  0  0
  161.9900  208.4400  152.6340 C   0  0  2  0  0  3  0  0  0  0  0  0
  161.1020  210.4990  153.4990 O   0  0  0  0  0  1  0  0  0  0  0  0
  160.3480  207.1160  154.7780 O   0  0  0  0  0  0  0  0  0  0  0  0
  160.9860  206.3730  153.7440 C   0  0  0  0  0  0  0  0  0  0  0  0
  160.5920  208.5190  154.7540 C   0  0  2  0  0  3  0  0  0  0  0  0
  159.6280  209.0110  152.6330 O   0  0  0  0  0  1  0  0  0  0  0  0
  162.2620  207.0310  153.1900 C   0  0  1  0  0  3  0  0  0  0  0  0
  160.8140  209.1410  153.3580 C   0  0  0  0  0  0  0  0  0  0  0  0
  160.0810  206.1610  152.7180 F   0  0  0  0  0  0  0  0  0  0  0  0
  161.6100  208.9160  155.7840 C   0  0  0  0  0  0  0  0  0  0  0  0
  161.9620  208.0200  156.7820 O   0  0  0  0  0  1  0  0  0  0  0  0
  162.1340  210.0600  155.7620 O   0  0  0  0  0  0  0  0  0  0  0  0
  160.8310  211.1530  150.9270 O   0  0  0  0  0  1  0  0  0  0  0  0
  162.3310  210.2480  148.8030 O   0  0  0  0  0  0  0  0  0  0  0  0
  162.1960  210.2570  150.4900 P   0  0  0  0  0  0  0  0  0  0  0  0
  163.4320  210.8980  151.0790 O   0  0  0  0  0  1  0  0  0  0  0  0
  161.4210  205.7080  149.1740 C   0  0  1  0  0  3  0  0  0  0  0  0
  160.4570  204.5800  148.8280 C   0  0  2  0  0  3  0  0  0  0  0  0
  162.1740  201.7030  152.3050 O   0  0  0  0  0  0  0  0  0  0  0  0
  160.6160  201.8250  149.0110 C   0  0  1  0  0  0  0  0  0  0  0  0
  161.0920  203.5490  151.2450 C   0  0  0  0  0  2  0  0  0  0  0  0
  160.7970  201.0880  147.8330 O   0  0  0  0  0  0  0  0  0  0  0  0
  161.6640  202.1300  151.2830 C   0  0  0  0  0  0  0  0  0  0  0  0
  161.6550  201.2720  150.0120 C   0  0  0  0  0  2  0  0  0  0  0  0
  160.7910  202.4760  147.6680 C   0  0  2  0  0  3  0  0  0  0  0  0
  160.1970  203.6850  149.9970 C   0  0  2  0  0  3  0  0  0  0  0  0
  161.1790  203.2420  148.8970 C   0  0  2  0  0  0  0  0  0  0  0  0
  161.4750  206.7570  148.0540 C   0  0  2  0  0  3  0  0  0  0  0  0
  161.4350  205.0740  144.7900 N   0  0  0  0  0  0  0  0  0  0  0  0
  160.2720  205.7100  144.7460 N   0  0  0  0  0  0  0  0  0  0  0  0
  162.0010  205.3510  145.9730 C   0  0  2  0  0  3  0  0  0  0  0  0
  160.0860  206.3940  145.8960 C   0  0  0  0  0  3  0  0  0  0  0  0
  161.1840  206.1700  146.7060 C   0  0  0  0  0  0  0  0  0  0  0  0
  163.2760  204.8630  146.3760 N   0  0  0  0  0  1  0  0  0  0  0  0
  162.7060  207.6230  148.0630 C   0  0  0  0  0  3  0  0  0  0  0  0
  163.7440  207.2480  148.5870 O   0  0  0  0  0  0  0  0  0  0  0  0
  2  1  1  0  0  0  0
  3  2  1  6  0  0  0
  6  3  1  6  0  0  0
  6 12  1  0  0  0  0
  6 13  1  0  0  0  0
  9  4  1  0  0  0  0
  9  8  1  0  0  0  0
 10  8  1  0  0  0  0
 10 15  1  1  0  0  0
 11 13  1  0  0  0  0
 12  5  1  6  0  0  0
 12  9  1  0  0  0  0
 13  7  1  0  0  0  0
 13 10  1  0  0  0  0
 14  9  1  0  0  0  0
 15 16  1  0  0  0  0
 17 15  2  0  0  0  0
 19 20  2  0  0  0  0
 20 18  1  0  0  0  0
 20 21  1  0  0  0  0
 20  3  1  0  0  0  0
 22  1  1  1  0  0  0
 23 32  1  0  0  0  0
 23 22  1  1  0  0  0
 23 31  1  0  0  0  0
 25 29  1  6  0  0  0
 26 28  1  0  0  0  0
 27 25  1  0  0  0  0
 28 24  2  0  0  0  0
 29 28  1  0  0  0  0
 30 27  1  6  0  0  0
 30 32  1  0  0  0  0
 30 25  1  0  0  0  0
 31 26  1  1  0  0  0
 32 25  1  0  0  0  0
 32 31  1  0  0  0  0
 33 40  1  0  0  0  0
 33 22  1  0  0  0  0
 34 36  1  0  0  0  0
 35 34  2  0  0  0  0
 35 37  1  0  0  0  0
 36 39  1  0  0  0  0
 36 38  1  0  0  0  0
 37 38  2  0  0  0  0
 38 33  1  0  0  0  0
 40 41  2  0  0  0  0
M  END
>  <MODEL>
8

>  <REMARK>
 VINA RESULT:      -2.5      3.883      7.812
  Name = 
  10 active torsions:
  status: ('A' for Active; 'I' for Inactive)
    1  A    between atoms: C_2  and  C_35
    2  A    between atoms: C_5  and  C_9
    3  A    between atoms: C_5  and  C_14
    4  A    between atoms: C_6  and  C_29
    5  A    between atoms: C_9  and  C_35
    6  A    between atoms: C_12  and  C_14
    7  A    between atoms: C_14  and  P_24
    8  A    between atoms: C_19  and  C_23
    9  A    between atoms: C_23  and  C_33
   10  A    between atoms: C_23  and  C_35
                            x       y       z     vdW  Elec       q    Type
                         _______ _______ _______ _____ _____    ______ ____

>  <TORSDO>
F 10

$$$$
=
 OpenBabel11072412513D

 41 46  0  0  1  0  0  0  0  0999 V2000
  160.8030  211.9700  153.4640 C   0  0  0  0  0  2  0  0  0  0  0  0
  160.0930  212.1590  152.1400 C   0  0  0  0  0  2  0  0  0  0  0  0
  161.0120  211.7970  150.9820 C   0  0  2  0  0  3  0  0  0  0  0  0
  162.6640  213.7470  147.0300 F   0  0  0  0  0  0  0  0  0  0  0  0
  162.6900  211.6420  148.8080 O   0  0  0  0  0  1  0  0  0  0  0  0
  160.4410  212.1790  149.5960 C   0  0  2  0  0  3  0  0  0  0  0  0
  158.1430  212.8270  149.8740 O   0  0  0  0  0  1  0  0  0  0  0  0
  160.5810  214.4330  147.6090 O   0  0  0  0  0  0  0  0  0  0  0  0
  161.7450  213.7490  148.0640 C   0  0  0  0  0  0  0  0  0  0  0  0
  159.3480  213.9350  148.1200 C   0  0  2  0  0  3  0  0  0  0  0  0
  159.7300  214.3470  150.4340 O   0  0  0  0  0  1  0  0  0  0  0  0
  161.4960  212.2890  148.4800 C   0  0  1  0  0  3  0  0  0  0  0  0
  159.4020  213.3260  149.5380 C   0  0  0  0  0  0  0  0  0  0  0  0
  162.2970  214.4530  149.1190 F   0  0  0  0  0  0  0  0  0  0  0  0
  158.6370  213.0880  147.1040 C   0  0  0  0  0  0  0  0  0  0  0  0
  159.3200  212.6400  145.9830 O   0  0  0  0  0  0  0  0  0  0  0  0
  157.4210  212.7950  147.2490 O   0  0  0  0  0  1  0  0  0  0  0  0
  161.6410  209.3840  149.5310 O   0  0  0  0  0  0  0  0  0  0  0  0
  160.4530  209.1770  152.0070 O   0  0  0  0  0  1  0  0  0  0  0  0
  161.5580  210.0600  151.0790 P   0  0  0  0  0  0  0  0  0  0  0  0
  162.9190  209.9890  151.7340 O   0  0  0  0  0  1  0  0  0  0  0  0
  159.7900  212.0960  154.5930 C   0  0  1  0  0  3  0  0  0  0  0  0
  158.6590  211.0890  154.4210 C   0  0  2  0  0  3  0  0  0  0  0  0
  155.5530  214.4530  152.8890 O   0  0  0  0  0  0  0  0  0  0  0  0
  155.9080  211.2700  154.6320 C   0  0  1  0  0  0  0  0  0  0  0  0
  157.4410  212.9930  152.9380 C   0  0  0  0  0  2  0  0  0  0  0  0
  155.2880  210.7160  155.7600 O   0  0  0  0  0  0  0  0  0  0  0  0
  156.0490  213.4510  153.3760 C   0  0  0  0  0  0  0  0  0  0  0  0
  155.3090  212.6860  154.4810 C   0  0  0  0  0  2  0  0  0  0  0  0
  156.6840  210.6430  155.7550 C   0  0  2  0  0  3  0  0  0  0  0  0
  157.6530  211.5410  153.4120 C   0  0  2  0  0  3  0  0  0  0  0  0
  157.3510  211.6890  154.9150 C   0  0  2  0  0  0  0  0  0  0  0  0
  160.4240  211.9890  155.9860 C   0  0  2  0  0  3  0  0  0  0  0  0
  161.6980  208.6410  156.8040 N   0  0  0  0  0  0  0  0  0  0  0  0
  160.3960  208.4470  156.9590 N   0  0  0  0  0  2  0  0  0  0  0  0
  161.8750  209.9240  156.4560 C   0  0  0  0  0  0  0  0  0  0  0  0
  159.7330  209.5990  156.7130 C   0  0  0  0  0  3  0  0  0  0  0  0
  160.6670  210.5670  156.3960 C   0  0  0  0  0  0  0  0  0  0  0  0
  163.1450  210.5030  156.1780 N   0  0  0  0  0  1  0  0  0  0  0  0
  159.7360  212.7960  157.0540 C   0  0  0  0  0  3  0  0  0  0  0  0
  159.4000  213.9540  156.8580 O   0  0  0  0  0  0  0  0  0  0  0  0
  2  1  1  0  0  0  0
  3 20  1  0  0  0  0
  3  2  1  1  0  0  0
  4  9  1  0  0  0  0
  6  3  1  1  0  0  0
  8  9  1  0  0  0  0
  8 10  1  0  0  0  0
  9 12  1  0  0  0  0
  9 14  1  0  0  0  0
 10 15  1  6  0  0  0
 10 13  1  0  0  0  0
 12  5  1  1  0  0  0
 12  6  1  0  0  0  0
 13  6  1  0  0  0  0
 13  7  1  0  0  0  0
 13 11  1  0  0  0  0
 15 17  1  0  0  0  0
 16 15  2  0  0  0  0
 18 20  2  0  0  0  0
 20 21  1  0  0  0  0
 20 19  1  0  0  0  0
 22  1  1  6  0  0  0
 22 33  1  0  0  0  0
 23 22  1  6  0  0  0
 23 32  1  0  0  0  0
 24 28  2  0  0  0  0
 25 29  1  1  0  0  0
 25 32  1  0  0  0  0
 25 30  1  0  0  0  0
 25 27  1  0  0  0  0
 26 28  1  0  0  0  0
 28 29  1  0  0  0  0
 30 27  1  1  0  0  0
 31 26  1  6  0  0  0
 31 23  1  0  0  0  0
 31 32  1  0  0  0  0
 32 30  1  0  0  0  0
 33 38  1  0  0  0  0
 33 40  1  0  0  0  0
 34 35  1  0  0  0  0
 36 34  2  0  0  0  0
 37 35  1  0  0  0  0
 38 36  1  0  0  0  0
 38 37  2  0  0  0  0
 39 36  1  0  0  0  0
 41 40  2  0  0  0  0
M  END
>  <MODEL>
9

>  <REMARK>
 VINA RESULT:      -2.5      4.511      6.491
  Name = 
  10 active torsions:
  status: ('A' for Active; 'I' for Inactive)
    1  A    between atoms: C_2  and  C_35
    2  A    between atoms: C_5  and  C_9
    3  A    between atoms: C_5  and  C_14
    4  A    between atoms: C_6  and  C_29
    5  A    between atoms: C_9  and  C_35
    6  A    between atoms: C_12  and  C_14
    7  A    between atoms: C_14  and  P_24
    8  A    between atoms: C_19  and  C_23
    9  A    between atoms: C_23  and  C_33
   10  A    between atoms: C_23  and  C_35
                            x       y       z     vdW  Elec       q    Type
                         _______ _______ _______ _____ _____    ______ ____

>  <TORSDO>
F 10

$$$$
