=
 OpenBabel11072410573D

 42 46  0  0  1  0  0  0  0  0999 V2000
  161.4470  209.5760  148.6300 C   0  0  0  0  0  2  0  0  0  0  0  0
  160.0560  213.7440  151.4890 N   0  0  0  0  0  0  0  0  0  0  0  0
  160.8060  206.2040  148.6680 C   0  0  0  0  0  1  0  0  0  0  0  0
  160.8500  208.1140  154.2840 C   0  0  0  0  0  1  0  0  0  0  0  0
  160.9580  211.6170  150.8140 C   0  0  0  0  0  0  0  0  0  0  0  0
  160.0800  210.5560  153.2050 N   0  0  0  0  0  0  0  0  0  0  0  0
  161.0950  208.3420  152.7980 C   0  0  1  0  0  3  0  0  0  0  0  0
  163.1910  206.8690  148.5950 C   0  0  0  0  0  1  0  0  0  0  0  0
  160.7650  209.7460  152.3520 C   0  0  0  0  0  0  0  0  0  0  0  0
  161.2480  213.6000  149.4310 C   0  0  0  0  0  3  0  0  0  0  0  0
  159.7900  211.8500  152.9280 C   0  0  0  0  0  0  0  0  0  0  0  0
  160.5290  214.3410  150.3640 C   0  0  0  0  0  3  0  0  0  0  0  0
  161.5850  207.9120  150.2380 N   0  0  2  0  0  0  0  0  0  0  0  0
  161.8710  209.3240  150.0570 C   0  0  2  0  0  3  0  0  0  0  0  0
  161.1470  210.2290  151.0680 C   0  0  0  0  0  0  0  0  0  0  0  0
  160.2570  212.4200  151.7420 C   0  0  0  0  0  0  0  0  0  0  0  0
  162.4870  207.3410  151.2690 C   0  0  1  0  0  3  0  0  0  0  0  0
  161.4600  208.3570  147.9360 O   0  0  0  0  0  0  0  0  0  0  0  0
  162.4360  208.0410  152.5010 O   0  0  0  0  0  0  0  0  0  0  0  0
  161.4620  212.2430  149.6630 C   0  0  0  0  0  3  0  0  0  0  0  0
  161.7670  207.3600  148.8780 C   0  0  0  0  0  0  0  0  0  0  0  0
  156.9300  211.4650  154.0470 C   0  0  0  0  0  2  0  0  0  0  0  0
  158.0930  212.0830  156.2480 C   0  0  1  0  0  3  0  0  0  0  0  0
  157.5600  212.7310  153.6770 N   0  0  0  0  0  0  0  0  0  0  0  0
  157.0010  211.2480  155.5650 C   0  0  0  0  0  2  0  0  0  0  0  0
  159.3380  212.1980  155.3570 C   0  0  1  0  0  3  0  0  0  0  0  0
  159.0180  212.6760  153.9310 C   0  0  1  0  0  3  0  0  0  0  0  0
  160.2870  213.0370  155.9410 O   0  0  0  0  0  1  0  0  0  0  0  0
  156.3110  213.1220  157.0590 C   0  0  0  0  0  1  0  0  0  0  0  0
  157.5930  213.3520  156.5560 O   0  0  0  0  0  0  0  0  0  0  0  0
  157.2730  213.0090  152.2730 C   0  0  0  0  0  2  0  0  0  0  0  0
  155.5360  214.4530  153.3220 O   0  0  0  0  0  1  0  0  0  0  0  0
  156.1810  214.0160  152.1740 C   0  0  0  0  0  0  0  0  0  0  0  0
  155.8170  214.4420  151.0480 O   0  0  0  0  0  0  0  0  0  0  0  0
  162.3110  205.8260  151.4680 C   0  0  0  0  0  2  0  0  0  0  0  0
  160.9510  205.4500  152.0380 C   0  0  0  0  0  2  0  0  0  0  0  0
  160.8020  203.9410  152.0620 C   0  0  0  0  0  2  0  0  0  0  0  0
  160.2840  203.4730  150.7870 N   0  0  0  0  0  2  0  0  0  0  0  0
  160.9970  202.2480  150.4620 C   0  0  0  0  0  2  0  0  0  0  0  0
  160.7070  201.8160  149.0290 C   0  0  1  0  0  3  0  0  0  0  0  0
  161.2310  202.8330  148.0310 C   0  0  0  0  0  1  0  0  0  0  0  0
  161.2730  200.5620  148.7820 O   0  0  0  0  0  1  0  0  0  0  0  0
  2 16  1  0  0  0  0
  3 21  1  0  0  0  0
  5 15  2  0  0  0  0
  5 16  1  0  0  0  0
  7  4  1  1  0  0  0
  8 21  1  0  0  0  0
  9  7  1  0  0  0  0
  9  6  2  0  0  0  0
 10 20  2  0  0  0  0
 10 12  1  0  0  0  0
 11  6  1  0  0  0  0
 12  2  2  0  0  0  0
 13 21  1  6  0  0  0
 13 17  1  0  0  0  0
 14  1  1  6  0  0  0
 14 13  1  0  0  0  0
 14 15  1  0  0  0  0
 15  9  1  0  0  0  0
 16 11  2  0  0  0  0
 17 35  1  1  0  0  0
 17 19  1  0  0  0  0
 18  1  1  0  0  0  0
 18 21  1  0  0  0  0
 19  7  1  0  0  0  0
 20  5  1  0  0  0  0
 22 25  1  0  0  0  0
 23 30  1  6  0  0  0
 24 27  1  0  0  0  0
 24 22  1  0  0  0  0
 25 23  1  0  0  0  0
 26 28  1  1  0  0  0
 26 23  1  0  0  0  0
 27 11  1  6  0  0  0
 27 26  1  0  0  0  0
 30 29  1  0  0  0  0
 31 24  1  0  0  0  0
 33 31  1  0  0  0  0
 33 32  1  0  0  0  0
 34 33  2  0  0  0  0
 35 36  1  0  0  0  0
 36 37  1  0  0  0  0
 38 37  1  0  0  0  0
 39 38  1  0  0  0  0
 40 41  1  6  0  0  0
 40 39  1  0  0  0  0
 42 40  1  0  0  0  0
M  END
>  <MODEL>
1

>  <REMARK>
 VINA RESULT:      -5.1      0.000      0.000
  Name = 
  10 active torsions:
  status: ('A' for Active; 'I' for Inactive)
    1  A    between atoms: C_1  and  N_28
    2  A    between atoms: C_1  and  C_37
    3  A    between atoms: C_3  and  C_33
    4  A    between atoms: C_3  and  C_37
    5  A    between atoms: C_6  and  C_11
    6  A    between atoms: C_9  and  C_10
    7  A    between atoms: C_9  and  N_23
    8  A    between atoms: C_11  and  N_28
    9  A    between atoms: C_17  and  O_21
   10  A    between atoms: C_25  and  C_36
                            x       y       z     vdW  Elec       q    Type
                         _______ _______ _______ _____ _____    ______ ____

>  <TORSDO>
F 10

$$$$
=
 OpenBabel11072410573D

 42 46  0  0  1  0  0  0  0  0999 V2000
  161.2370  209.3100  149.2880 C   0  0  0  0  0  2  0  0  0  0  0  0
  159.5000  212.7810  152.8110 N   0  0  0  0  0  0  0  0  0  0  0  0
  160.8930  205.9390  148.7340 C   0  0  0  0  0  1  0  0  0  0  0  0
  160.7940  206.8410  154.5960 C   0  0  0  0  0  1  0  0  0  0  0  0
  160.5810  210.8890  151.7880 C   0  0  0  0  0  0  0  0  0  0  0  0
  159.8090  209.3570  153.9480 N   0  0  0  0  0  0  0  0  0  0  0  0
  161.0120  207.3440  153.1750 C   0  0  1  0  0  3  0  0  0  0  0  0
  163.2110  206.8110  148.8030 C   0  0  0  0  0  1  0  0  0  0  0  0
  160.5590  208.7710  152.9750 C   0  0  0  0  0  0  0  0  0  0  0  0
  160.6910  213.1000  150.7730 C   0  0  0  0  0  3  0  0  0  0  0  0
  159.4060  210.6490  153.8970 C   0  0  0  0  0  0  0  0  0  0  0  0
  159.9140  213.6030  151.8120 C   0  0  0  0  0  3  0  0  0  0  0  0
  161.5270  207.4090  150.5840 N   0  0  2  0  0  0  0  0  0  0  0  0
  161.6880  208.8510  150.6540 C   0  0  2  0  0  3  0  0  0  0  0  0
  160.8920  209.5000  151.7980 C   0  0  0  0  0  0  0  0  0  0  0  0
  159.8170  211.4560  152.8330 C   0  0  0  0  0  0  0  0  0  0  0  0
  162.4790  206.7480  151.5110 C   0  0  1  0  0  3  0  0  0  0  0  0
  161.3540  208.2350  148.3930 O   0  0  0  0  0  0  0  0  0  0  0  0
  162.3730  207.2160  152.8440 O   0  0  0  0  0  0  0  0  0  0  0  0
  161.0240  211.7470  150.7680 C   0  0  0  0  0  3  0  0  0  0  0  0
  161.7500  207.1200  149.1520 C   0  0  0  0  0  0  0  0  0  0  0  0
  160.0760  212.8590  155.9590 C   0  0  0  0  0  2  0  0  0  0  0  0
  157.6760  213.5890  155.4210 C   0  0  1  0  0  3  0  0  0  0  0  0
  159.3480  211.6170  156.2150 N   0  0  0  0  0  0  0  0  0  0  0  0
  159.1000  214.0310  155.7840 C   0  0  0  0  0  2  0  0  0  0  0  0
  157.6990  212.3690  154.4880 C   0  0  1  0  0  3  0  0  0  0  0  0
  158.5690  211.2190  155.0200 C   0  0  1  0  0  3  0  0  0  0  0  0
  156.4030  211.9140  154.2410 O   0  0  0  0  0  1  0  0  0  0  0  0
  155.9730  214.2850  156.6570 C   0  0  0  0  0  1  0  0  0  0  0  0
  156.9600  213.3000  156.5870 O   0  0  0  0  0  0  0  0  0  0  0  0
  160.3030  210.5820  156.5980 C   0  0  0  0  0  2  0  0  0  0  0  0
  162.4310  210.6610  155.3070 O   0  0  0  0  0  0  0  0  0  0  0  0
  161.6910  211.0820  156.4020 C   0  0  0  0  0  0  0  0  0  0  0  0
  162.2070  211.8570  157.2490 O   0  0  0  0  0  1  0  0  0  0  0  0
  162.4380  205.2130  151.4420 C   0  0  0  0  0  2  0  0  0  0  0  0
  161.1300  204.6250  151.9520 C   0  0  0  0  0  2  0  0  0  0  0  0
  161.0830  203.1380  151.6560 C   0  0  0  0  0  2  0  0  0  0  0  0
  160.4900  202.9120  150.3480 N   0  0  0  0  0  2  0  0  0  0  0  0
  160.5460  201.4810  150.0970 C   0  0  0  0  0  2  0  0  0  0  0  0
  160.7510  201.1970  148.6130 C   0  0  1  0  0  3  0  0  0  0  0  0
  161.0690  202.4710  147.8500 C   0  0  0  0  0  1  0  0  0  0  0  0
  161.7750  200.2630  148.4400 O   0  0  0  0  0  1  0  0  0  0  0  0
  2 16  1  0  0  0  0
  3 21  1  0  0  0  0
  5 15  2  0  0  0  0
  5 16  1  0  0  0  0
  7  4  1  1  0  0  0
  8 21  1  0  0  0  0
  9  7  1  0  0  0  0
  9  6  2  0  0  0  0
 10 12  1  0  0  0  0
 11  6  1  0  0  0  0
 12  2  2  0  0  0  0
 13 21  1  6  0  0  0
 13 14  1  0  0  0  0
 13 17  1  0  0  0  0
 14  1  1  6  0  0  0
 14 15  1  0  0  0  0
 15  9  1  0  0  0  0
 16 11  2  0  0  0  0
 17 35  1  1  0  0  0
 17 19  1  0  0  0  0
 18 21  1  0  0  0  0
 18  1  1  0  0  0  0
 19  7  1  0  0  0  0
 20 10  2  0  0  0  0
 20  5  1  0  0  0  0
 22 24  1  0  0  0  0
 23 25  1  0  0  0  0
 23 30  1  1  0  0  0
 24 31  1  0  0  0  0
 25 22  1  0  0  0  0
 26 28  1  1  0  0  0
 26 27  1  0  0  0  0
 26 23  1  0  0  0  0
 27 11  1  6  0  0  0
 27 24  1  0  0  0  0
 30 29  1  0  0  0  0
 32 33  2  0  0  0  0
 33 31  1  0  0  0  0
 33 34  1  0  0  0  0
 35 36  1  0  0  0  0
 37 36  1  0  0  0  0
 38 37  1  0  0  0  0
 39 38  1  0  0  0  0
 40 41  1  6  0  0  0
 40 39  1  0  0  0  0
 42 40  1  0  0  0  0
M  END
>  <MODEL>
2

>  <REMARK>
 VINA RESULT:      -4.0      1.451      2.863
  Name = 
  10 active torsions:
  status: ('A' for Active; 'I' for Inactive)
    1  A    between atoms: C_1  and  N_28
    2  A    between atoms: C_1  and  C_37
    3  A    between atoms: C_3  and  C_33
    4  A    between atoms: C_3  and  C_37
    5  A    between atoms: C_6  and  C_11
    6  A    between atoms: C_9  and  C_10
    7  A    between atoms: C_9  and  N_23
    8  A    between atoms: C_11  and  N_28
    9  A    between atoms: C_17  and  O_21
   10  A    between atoms: C_25  and  C_36
                            x       y       z     vdW  Elec       q    Type
                         _______ _______ _______ _____ _____    ______ ____

>  <TORSDO>
F 10

$$$$
=
 OpenBabel11072410573D

 42 46  0  0  1  0  0  0  0  0999 V2000
  161.1420  207.3310  148.5720 C   0  0  0  0  0  2  0  0  0  0  0  0
  161.3130  212.0030  150.9430 N   0  0  0  0  0  0  0  0  0  0  0  0
  159.6280  204.3030  149.1430 C   0  0  0  0  0  1  0  0  0  0  0  0
  160.9240  206.7120  154.4070 C   0  0  0  0  0  1  0  0  0  0  0  0
  161.5120  209.6480  150.4880 C   0  0  0  0  0  0  0  0  0  0  0  0
  160.7040  209.1420  153.0760 N   0  0  0  0  0  0  0  0  0  0  0  0
  161.0240  206.7010  152.8860 C   0  0  1  0  0  3  0  0  0  0  0  0
  162.0730  204.2530  148.7470 C   0  0  0  0  0  1  0  0  0  0  0  0
  161.0280  208.0850  152.2820 C   0  0  0  0  0  0  0  0  0  0  0  0
  162.1400  211.3070  148.8200 C   0  0  0  0  0  3  0  0  0  0  0  0
  160.7390  210.4270  152.6510 C   0  0  0  0  0  0  0  0  0  0  0  0
  161.7760  212.3170  149.7050 C   0  0  0  0  0  3  0  0  0  0  0  0
  161.0380  205.8770  150.3760 N   0  0  2  0  0  0  0  0  0  0  0  0
  161.6670  207.1230  149.9730 C   0  0  2  0  0  3  0  0  0  0  0  0
  161.3530  208.2990  150.9130 C   0  0  0  0  0  0  0  0  0  0  0  0
  161.1820  210.7120  151.3580 C   0  0  0  0  0  0  0  0  0  0  0  0
  161.8810  205.1880  151.3840 C   0  0  1  0  0  3  0  0  0  0  0  0
  160.7350  206.0900  148.0570 O   0  0  0  0  0  0  0  0  0  0  0  0
  162.1830  206.0020  152.5050 O   0  0  0  0  0  0  0  0  0  0  0  0
  162.0100  209.9780  149.2160 C   0  0  0  0  0  3  0  0  0  0  0  0
  160.8840  205.1540  149.0950 C   0  0  0  0  0  0  0  0  0  0  0  0
  158.0100  211.0870  153.9540 C   0  0  0  0  0  2  0  0  0  0  0  0
  159.4900  211.4780  156.0120 C   0  0  1  0  0  3  0  0  0  0  0  0
  158.9760  212.0440  153.4180 N   0  0  0  0  0  0  0  0  0  0  0  0
  158.1370  210.9870  155.4810 C   0  0  0  0  0  2  0  0  0  0  0  0
  160.6280  211.1070  155.0490 C   0  0  1  0  0  3  0  0  0  0  0  0
  160.3570  211.5410  153.5990 C   0  0  1  0  0  3  0  0  0  0  0  0
  161.8400  211.6400  155.4890 O   0  0  0  0  0  1  0  0  0  0  0  0
  158.3210  213.0770  157.0060 C   0  0  0  0  0  1  0  0  0  0  0  0
  159.4470  212.8620  156.2080 O   0  0  0  0  0  0  0  0  0  0  0  0
  158.6750  212.2800  152.0100 C   0  0  0  0  0  2  0  0  0  0  0  0
  158.0700  214.1980  150.5410 O   0  0  0  0  0  0  0  0  0  0  0  0
  158.2300  213.6880  151.8210 C   0  0  0  0  0  0  0  0  0  0  0  0
  158.0360  214.4270  152.8210 O   0  0  0  0  0  1  0  0  0  0  0  0
  161.3330  203.8160  151.8080 C   0  0  0  0  0  2  0  0  0  0  0  0
  162.1380  202.6500  151.2510 C   0  0  0  0  0  2  0  0  0  0  0  0
  161.2710  201.4070  151.1900 C   0  0  0  0  0  2  0  0  0  0  0  0
  160.5920  201.3380  149.9070 N   0  0  0  0  0  2  0  0  0  0  0  0
  161.5870  200.9540  148.9190 C   0  0  0  0  0  2  0  0  0  0  0  0
  160.9260  200.6110  147.5880 C   0  0  1  0  0  3  0  0  0  0  0  0
  160.8060  201.8380  146.7020 C   0  0  0  0  0  1  0  0  0  0  0  0
  161.6540  199.6130  146.9340 O   0  0  0  0  0  1  0  0  0  0  0  0
  2 16  1  0  0  0  0
  5 15  2  0  0  0  0
  5 16  1  0  0  0  0
  7  4  1  1  0  0  0
  8 21  1  0  0  0  0
  9  7  1  0  0  0  0
  9  6  2  0  0  0  0
 10 20  2  0  0  0  0
 10 12  1  0  0  0  0
 11  6  1  0  0  0  0
 12  2  2  0  0  0  0
 13 21  1  6  0  0  0
 13 17  1  0  0  0  0
 14  1  1  6  0  0  0
 14 13  1  0  0  0  0
 14 15  1  0  0  0  0
 15  9  1  0  0  0  0
 16 11  2  0  0  0  0
 17 35  1  1  0  0  0
 17 19  1  0  0  0  0
 18  1  1  0  0  0  0
 18 21  1  0  0  0  0
 19  7  1  0  0  0  0
 20  5  1  0  0  0  0
 21  3  1  0  0  0  0
 22 25  1  0  0  0  0
 23 30  1  6  0  0  0
 24 27  1  0  0  0  0
 24 22  1  0  0  0  0
 25 23  1  0  0  0  0
 26 28  1  1  0  0  0
 26 23  1  0  0  0  0
 27 11  1  6  0  0  0
 27 26  1  0  0  0  0
 30 29  1  0  0  0  0
 31 24  1  0  0  0  0
 32 33  2  0  0  0  0
 33 31  1  0  0  0  0
 33 34  1  0  0  0  0
 36 35  1  0  0  0  0
 37 36  1  0  0  0  0
 38 37  1  0  0  0  0
 39 38  1  0  0  0  0
 40 41  1  6  0  0  0
 40 39  1  0  0  0  0
 42 40  1  0  0  0  0
M  END
>  <MODEL>
3

>  <REMARK>
 VINA RESULT:      -3.8      1.565      2.155
  Name = 
  10 active torsions:
  status: ('A' for Active; 'I' for Inactive)
    1  A    between atoms: C_1  and  N_28
    2  A    between atoms: C_1  and  C_37
    3  A    between atoms: C_3  and  C_33
    4  A    between atoms: C_3  and  C_37
    5  A    between atoms: C_6  and  C_11
    6  A    between atoms: C_9  and  C_10
    7  A    between atoms: C_9  and  N_23
    8  A    between atoms: C_11  and  N_28
    9  A    between atoms: C_17  and  O_21
   10  A    between atoms: C_25  and  C_36
                            x       y       z     vdW  Elec       q    Type
                         _______ _______ _______ _____ _____    ______ ____

>  <TORSDO>
F 10

$$$$
=
 OpenBabel11072410573D

 42 46  0  0  1  0  0  0  0  0999 V2000
  159.0480  211.0170  153.7590 C   0  0  0  0  0  2  0  0  0  0  0  0
  161.7370  206.6860  152.5370 N   0  0  0  0  0  0  0  0  0  0  0  0
  157.1980  213.3600  152.0650 C   0  0  0  0  0  1  0  0  0  0  0  0
  161.5670  211.5530  148.4830 C   0  0  0  0  0  1  0  0  0  0  0  0
  160.9800  208.9690  152.6430 C   0  0  0  0  0  0  0  0  0  0  0  0
  161.4480  209.1850  149.9330 N   0  0  0  0  0  0  0  0  0  0  0  0
  160.8950  211.5900  149.8500 C   0  0  1  0  0  3  0  0  0  0  0  0
  158.9870  214.2300  153.5410 C   0  0  0  0  0  1  0  0  0  0  0  0
  161.0080  210.2860  150.6020 C   0  0  0  0  0  0  0  0  0  0  0  0
  161.1610  207.6110  154.6560 C   0  0  0  0  0  3  0  0  0  0  0  0
  161.6460  207.9840  150.5280 C   0  0  0  0  0  0  0  0  0  0  0  0
  161.5980  206.5410  153.8810 C   0  0  0  0  0  3  0  0  0  0  0  0
  159.4250  212.3590  151.9060 N   0  0  2  0  0  0  0  0  0  0  0  0
  160.1080  211.3960  152.7520 C   0  0  2  0  0  3  0  0  0  0  0  0
  160.6610  210.1870  151.9800 C   0  0  0  0  0  0  0  0  0  0  0  0
  161.4540  207.8600  151.9050 C   0  0  0  0  0  0  0  0  0  0  0  0
  160.4080  213.2960  151.3100 C   0  0  1  0  0  3  0  0  0  0  0  0
  158.0950  212.0460  153.8160 O   0  0  0  0  0  0  0  0  0  0  0  0
  161.4480  212.6370  150.6070 O   0  0  0  0  0  0  0  0  0  0  0  0
  160.8580  208.8200  154.0340 C   0  0  0  0  0  3  0  0  0  0  0  0
  158.4530  212.9820  152.8300 C   0  0  0  0  0  0  0  0  0  0  0  0
  160.1140  206.1840  148.5300 C   0  0  0  0  0  2  0  0  0  0  0  0
  162.2690  206.4740  147.1680 C   0  0  1  0  0  3  0  0  0  0  0  0
  161.1150  205.7520  149.5050 N   0  0  0  0  0  0  0  0  0  0  0  0
  160.7420  206.3210  147.1350 C   0  0  0  0  0  2  0  0  0  0  0  0
  162.7130  207.3130  148.3750 C   0  0  1  0  0  3  0  0  0  0  0  0
  162.1300  206.8110  149.7060 C   0  0  1  0  0  3  0  0  0  0  0  0
  164.1060  207.3660  148.4530 O   0  0  0  0  0  1  0  0  0  0  0  0
  162.8770  204.7800  145.8740 C   0  0  0  0  0  1  0  0  0  0  0  0
  162.8690  205.2110  147.2020 O   0  0  0  0  0  0  0  0  0  0  0  0
  160.4400  205.4150  150.7540 C   0  0  0  0  0  2  0  0  0  0  0  0
  160.4810  203.0520  149.9690 O   0  0  0  0  0  0  0  0  0  0  0  0
  160.5710  203.9560  151.0170 C   0  0  0  0  0  0  0  0  0  0  0  0
  160.7260  203.5390  152.1940 O   0  0  0  0  0  1  0  0  0  0  0  0
  159.7640  214.4050  150.4620 C   0  0  0  0  0  2  0  0  0  0  0  0
  159.7490  214.0900  148.9720 C   0  0  0  0  0  2  0  0  0  0  0  0
  158.3450  213.7210  148.5370 C   0  0  0  0  0  2  0  0  0  0  0  0
  158.3410  213.3580  147.1300 N   0  0  0  0  0  2  0  0  0  0  0  0
  159.3530  214.1720  146.4770 C   0  0  0  0  0  2  0  0  0  0  0  0
  160.0290  213.3990  145.3510 C   0  0  1  0  0  3  0  0  0  0  0  0
  161.5330  213.6020  145.3700 C   0  0  0  0  0  1  0  0  0  0  0  0
  159.7250  212.0380  145.4530 O   0  0  0  0  0  1  0  0  0  0  0  0
  1 18  1  0  0  0  0
  2 12  1  0  0  0  0
  3 21  1  0  0  0  0
  5 20  2  0  0  0  0
  6 11  2  0  0  0  0
  6  9  1  0  0  0  0
  7  4  1  6  0  0  0
  7  9  1  0  0  0  0
  7 19  1  0  0  0  0
  9 15  2  0  0  0  0
 11 16  1  0  0  0  0
 12 10  2  0  0  0  0
 13 14  1  0  0  0  0
 13 21  1  1  0  0  0
 14  1  1  1  0  0  0
 15  5  1  0  0  0  0
 15 14  1  0  0  0  0
 16  2  2  0  0  0  0
 16  5  1  0  0  0  0
 17 35  1  6  0  0  0
 17 13  1  0  0  0  0
 19 17  1  0  0  0  0
 20 10  1  0  0  0  0
 21  8  1  0  0  0  0
 21 18  1  0  0  0  0
 22 24  1  0  0  0  0
 23 30  1  1  0  0  0
 23 26  1  0  0  0  0
 24 27  1  0  0  0  0
 24 31  1  0  0  0  0
 25 23  1  0  0  0  0
 25 22  1  0  0  0  0
 26 28  1  1  0  0  0
 26 27  1  0  0  0  0
 27 11  1  6  0  0  0
 29 30  1  0  0  0  0
 31 33  1  0  0  0  0
 32 33  2  0  0  0  0
 33 34  1  0  0  0  0
 36 35  1  0  0  0  0
 37 36  1  0  0  0  0
 38 37  1  0  0  0  0
 39 38  1  0  0  0  0
 40 41  1  1  0  0  0
 40 42  1  0  0  0  0
 40 39  1  0  0  0  0
M  END
>  <MODEL>
4

>  <REMARK>
 VINA RESULT:      -3.0      2.416      8.898
  Name = 
  10 active torsions:
  status: ('A' for Active; 'I' for Inactive)
    1  A    between atoms: C_1  and  N_28
    2  A    between atoms: C_1  and  C_37
    3  A    between atoms: C_3  and  C_33
    4  A    between atoms: C_3  and  C_37
    5  A    between atoms: C_6  and  C_11
    6  A    between atoms: C_9  and  C_10
    7  A    between atoms: C_9  and  N_23
    8  A    between atoms: C_11  and  N_28
    9  A    between atoms: C_17  and  O_21
   10  A    between atoms: C_25  and  C_36
                            x       y       z     vdW  Elec       q    Type
                         _______ _______ _______ _____ _____    ______ ____

>  <TORSDO>
F 10

$$$$
=
 OpenBabel11072410573D

 42 46  0  0  1  0  0  0  0  0999 V2000
  160.6650  207.3950  153.3830 C   0  0  0  0  0  2  0  0  0  0  0  0
  160.8120  202.9730  150.5700 N   0  0  0  0  0  0  0  0  0  0  0  0
  159.6620  210.6380  152.8740 C   0  0  0  0  0  1  0  0  0  0  0  0
  161.7780  208.5580  147.7370 C   0  0  0  0  0  1  0  0  0  0  0  0
  161.1740  205.2300  151.3260 C   0  0  0  0  0  0  0  0  0  0  0  0
  161.0040  206.0700  148.7050 N   0  0  0  0  0  0  0  0  0  0  0  0
  161.5490  208.4190  149.2370 C   0  0  1  0  0  3  0  0  0  0  0  0
  161.9540  210.3220  153.7580 C   0  0  0  0  0  1  0  0  0  0  0  0
  161.2670  206.9990  149.6640 C   0  0  0  0  0  0  0  0  0  0  0  0
  161.2370  203.3580  152.8830 C   0  0  0  0  0  3  0  0  0  0  0  0
  160.8010  204.7590  148.9760 C   0  0  0  0  0  0  0  0  0  0  0  0
  160.9610  202.4900  151.8320 C   0  0  0  0  0  3  0  0  0  0  0  0
  161.1170  209.0040  151.7770 N   0  0  2  0  0  0  0  0  0  0  0  0
  161.5000  207.6540  152.1510 C   0  0  2  0  0  3  0  0  0  0  0  0
  161.2640  206.6210  151.0380 C   0  0  0  0  0  0  0  0  0  0  0  0
  160.9210  204.3030  150.2900 C   0  0  0  0  0  0  0  0  0  0  0  0
  162.2290  209.6610  151.0460 C   0  0  1  0  0  3  0  0  0  0  0  0
  160.3010  208.6270  153.9460 O   0  0  0  0  0  0  0  0  0  0  0  0
  162.6710  208.9180  149.9220 O   0  0  0  0  0  0  0  0  0  0  0  0
  161.3470  204.7230  152.6250 C   0  0  0  0  0  3  0  0  0  0  0  0
  160.7740  209.6240  153.0750 C   0  0  0  0  0  0  0  0  0  0  0  0
  162.7340  203.3150  147.0360 C   0  0  0  0  0  2  0  0  0  0  0  0
  161.1670  201.3400  147.5140 C   0  0  1  0  0  3  0  0  0  0  0  0
  161.4390  203.9050  146.7010 N   0  0  0  0  0  0  0  0  0  0  0  0
  162.6040  201.7970  147.2230 C   0  0  0  0  0  2  0  0  0  0  0  0
  160.4320  202.3610  148.3950 C   0  0  1  0  0  3  0  0  0  0  0  0
  160.5080  203.7960  147.8480 C   0  0  1  0  0  3  0  0  0  0  0  0
  159.0990  201.9880  148.5730 O   0  0  0  0  0  1  0  0  0  0  0  0
  160.8300  199.8600  145.8990 C   0  0  0  0  0  1  0  0  0  0  0  0
  160.4810  201.1480  146.3100 O   0  0  0  0  0  0  0  0  0  0  0  0
  161.6420  205.2970  146.3100 C   0  0  0  0  0  2  0  0  0  0  0  0
  161.2560  205.2870  143.8490 O   0  0  0  0  0  0  0  0  0  0  0  0
  160.8040  205.6110  145.1200 C   0  0  0  0  0  0  0  0  0  0  0  0
  159.7040  206.2040  145.2630 O   0  0  0  0  0  1  0  0  0  0  0  0
  161.9430  211.1280  150.6820 C   0  0  0  0  0  2  0  0  0  0  0  0
  162.4020  211.4970  149.2780 C   0  0  0  0  0  2  0  0  0  0  0  0
  161.4880  212.5600  148.7000 C   0  0  0  0  0  2  0  0  0  0  0  0
  161.2900  212.3250  147.2790 N   0  0  0  0  0  2  0  0  0  0  0  0
  162.3300  213.0590  146.5770 C   0  0  0  0  0  2  0  0  0  0  0  0
  161.8830  213.4170  145.1640 C   0  0  1  0  0  3  0  0  0  0  0  0
  163.0370  213.3270  144.1830 C   0  0  0  0  0  1  0  0  0  0  0  0
  160.8420  212.5760  144.7630 O   0  0  0  0  0  1  0  0  0  0  0  0
  1 18  1  0  0  0  0
  2 12  1  0  0  0  0
  3 21  1  0  0  0  0
  5 20  2  0  0  0  0
  6 11  2  0  0  0  0
  6  9  1  0  0  0  0
  7  4  1  6  0  0  0
  7  9  1  0  0  0  0
  7 19  1  0  0  0  0
  9 15  2  0  0  0  0
 11 16  1  0  0  0  0
 12 10  2  0  0  0  0
 13 14  1  0  0  0  0
 13 21  1  1  0  0  0
 14  1  1  1  0  0  0
 15  5  1  0  0  0  0
 15 14  1  0  0  0  0
 16  2  2  0  0  0  0
 16  5  1  0  0  0  0
 17 35  1  6  0  0  0
 17 13  1  0  0  0  0
 19 17  1  0  0  0  0
 20 10  1  0  0  0  0
 21  8  1  0  0  0  0
 21 18  1  0  0  0  0
 22 25  1  0  0  0  0
 23 30  1  6  0  0  0
 23 26  1  0  0  0  0
 24 22  1  0  0  0  0
 24 27  1  0  0  0  0
 25 23  1  0  0  0  0
 26 28  1  6  0  0  0
 27 26  1  0  0  0  0
 27 11  1  1  0  0  0
 29 30  1  0  0  0  0
 31 24  1  0  0  0  0
 32 33  2  0  0  0  0
 33 34  1  0  0  0  0
 33 31  1  0  0  0  0
 36 35  1  0  0  0  0
 37 36  1  0  0  0  0
 38 37  1  0  0  0  0
 39 38  1  0  0  0  0
 40 41  1  6  0  0  0
 40 39  1  0  0  0  0
 42 40  1  0  0  0  0
M  END
>  <MODEL>
5

>  <REMARK>
 VINA RESULT:      -2.8      3.186      9.820
  Name = 
  10 active torsions:
  status: ('A' for Active; 'I' for Inactive)
    1  A    between atoms: C_1  and  N_28
    2  A    between atoms: C_1  and  C_37
    3  A    between atoms: C_3  and  C_33
    4  A    between atoms: C_3  and  C_37
    5  A    between atoms: C_6  and  C_11
    6  A    between atoms: C_9  and  C_10
    7  A    between atoms: C_9  and  N_23
    8  A    between atoms: C_11  and  N_28
    9  A    between atoms: C_17  and  O_21
   10  A    between atoms: C_25  and  C_36
                            x       y       z     vdW  Elec       q    Type
                         _______ _______ _______ _____ _____    ______ ____

>  <TORSDO>
F 10

$$$$
=
 OpenBabel11072410573D

 42 46  0  0  1  0  0  0  0  0999 V2000
  160.9890  204.7880  153.4710 C   0  0  0  0  0  2  0  0  0  0  0  0
  160.3210  209.0880  156.3950 N   0  0  0  0  0  0  0  0  0  0  0  0
  162.9670  203.8600  150.8230 C   0  0  0  0  0  1  0  0  0  0  0  0
  161.7420  209.6350  150.2440 C   0  0  0  0  0  1  0  0  0  0  0  0
  160.4330  207.5720  154.5280 C   0  0  0  0  0  0  0  0  0  0  0  0
  161.5030  209.6140  153.0130 N   0  0  0  0  0  0  0  0  0  0  0  0
  161.5290  208.2910  150.9280 C   0  0  1  0  0  3  0  0  0  0  0  0
  160.5320  203.4840  150.5620 C   0  0  0  0  0  1  0  0  0  0  0  0
  161.2770  208.4140  152.4120 C   0  0  0  0  0  0  0  0  0  0  0  0
  159.4440  206.8870  156.6450 C   0  0  0  0  0  3  0  0  0  0  0  0
  161.2480  209.8480  154.3230 C   0  0  0  0  0  0  0  0  0  0  0  0
  159.7230  208.1450  157.1690 C   0  0  0  0  0  3  0  0  0  0  0  0
  161.4410  205.6900  151.3830 N   0  0  2  0  0  0  0  0  0  0  0  0
  160.6080  205.9230  152.5500 C   0  0  2  0  0  3  0  0  0  0  0  0
  160.8200  207.3080  153.1840 C   0  0  0  0  0  0  0  0  0  0  0  0
  160.6700  208.8420  155.1000 C   0  0  0  0  0  0  0  0  0  0  0  0
  160.7880  206.2510  150.1750 C   0  0  1  0  0  3  0  0  0  0  0  0
  161.5310  203.7480  152.7010 O   0  0  0  0  0  0  0  0  0  0  0  0
  160.4580  207.6230  150.3080 O   0  0  0  0  0  0  0  0  0  0  0  0
  159.7960  206.6080  155.3270 C   0  0  0  0  0  3  0  0  0  0  0  0
  161.6010  204.2190  151.3780 C   0  0  0  0  0  0  0  0  0  0  0  0
  159.3090  211.9820  155.4470 C   0  0  0  0  0  2  0  0  0  0  0  0
  161.1180  212.1560  157.2570 C   0  0  1  0  0  3  0  0  0  0  0  0
  160.4950  212.2250  154.6270 N   0  0  0  0  0  0  0  0  0  0  0  0
  159.6190  212.2220  156.9310 C   0  0  0  0  0  2  0  0  0  0  0  0
  161.8180  211.0790  156.4160 C   0  0  1  0  0  3  0  0  0  0  0  0
  161.5360  211.2110  154.9100 C   0  0  1  0  0  3  0  0  0  0  0  0
  163.1950  211.0910  156.6470 O   0  0  0  0  0  1  0  0  0  0  0  0
  160.6790  214.3280  157.2610 C   0  0  0  0  0  1  0  0  0  0  0  0
  161.7040  213.4060  157.0380 O   0  0  0  0  0  0  0  0  0  0  0  0
  160.1060  212.2110  153.2200 C   0  0  0  0  0  2  0  0  0  0  0  0
  158.9440  214.4130  153.2590 O   0  0  0  0  0  1  0  0  0  0  0  0
  158.8890  213.0470  153.0280 C   0  0  0  0  0  0  0  0  0  0  0  0
  157.8020  212.5090  152.6930 O   0  0  0  0  0  0  0  0  0  0  0  0
  161.5620  205.9750  148.8740 C   0  0  0  0  0  2  0  0  0  0  0  0
  161.2340  206.9610  147.7610 C   0  0  0  0  0  2  0  0  0  0  0  0
  161.7110  206.4130  146.4300 C   0  0  0  0  0  2  0  0  0  0  0  0
  160.5770  206.2020  145.5460 N   0  0  0  0  0  2  0  0  0  0  0  0
  160.8540  205.0000  144.7770 C   0  0  0  0  0  2  0  0  0  0  0  0
  161.4390  203.9090  145.6660 C   0  0  1  0  0  3  0  0  0  0  0  0
  160.6730  202.6070  145.5150 C   0  0  0  0  0  1  0  0  0  0  0  0
  162.7890  203.7130  145.3600 O   0  0  0  0  0  1  0  0  0  0  0  0
  2 12  1  0  0  0  0
  3 21  1  0  0  0  0
  5 16  1  0  0  0  0
  5 20  2  0  0  0  0
  6 11  2  0  0  0  0
  7  4  1  6  0  0  0
  7  9  1  0  0  0  0
  8 21  1  0  0  0  0
  9  6  1  0  0  0  0
  9 15  2  0  0  0  0
 10 12  2  0  0  0  0
 11 16  1  0  0  0  0
 13 21  1  6  0  0  0
 13 14  1  0  0  0  0
 14 15  1  0  0  0  0
 14  1  1  1  0  0  0
 15  5  1  0  0  0  0
 16  2  2  0  0  0  0
 17 35  1  6  0  0  0
 17 19  1  0  0  0  0
 17 13  1  0  0  0  0
 18  1  1  0  0  0  0
 19  7  1  0  0  0  0
 20 10  1  0  0  0  0
 21 18  1  0  0  0  0
 22 25  1  0  0  0  0
 23 30  1  6  0  0  0
 24 27  1  0  0  0  0
 24 22  1  0  0  0  0
 25 23  1  0  0  0  0
 26 28  1  6  0  0  0
 26 23  1  0  0  0  0
 27 11  1  1  0  0  0
 27 26  1  0  0  0  0
 30 29  1  0  0  0  0
 31 24  1  0  0  0  0
 33 31  1  0  0  0  0
 33 32  1  0  0  0  0
 34 33  2  0  0  0  0
 36 35  1  0  0  0  0
 37 36  1  0  0  0  0
 38 37  1  0  0  0  0
 39 38  1  0  0  0  0
 39 40  1  0  0  0  0
 40 41  1  6  0  0  0
 42 40  1  0  0  0  0
M  END
>  <MODEL>
6

>  <REMARK>
 VINA RESULT:      -2.1      2.469      4.682
  Name = 
  10 active torsions:
  status: ('A' for Active; 'I' for Inactive)
    1  A    between atoms: C_1  and  N_28
    2  A    between atoms: C_1  and  C_37
    3  A    between atoms: C_3  and  C_33
    4  A    between atoms: C_3  and  C_37
    5  A    between atoms: C_6  and  C_11
    6  A    between atoms: C_9  and  C_10
    7  A    between atoms: C_9  and  N_23
    8  A    between atoms: C_11  and  N_28
    9  A    between atoms: C_17  and  O_21
   10  A    between atoms: C_25  and  C_36
                            x       y       z     vdW  Elec       q    Type
                         _______ _______ _______ _____ _____    ______ ____

>  <TORSDO>
F 10

$$$$
