=
 OpenBabel11072411193D

 28 30  0  0  1  0  0  0  0  0999 V2000
  161.0440  211.2070  151.3800 N   0  0  0  0  0  0  0  0  0  0  0  0
  161.5590  210.3100  150.5210 C   0  0  0  0  0  0  0  0  0  0  0  0
  161.9170  210.0880  148.7660 S   0  0  0  0  0  0  0  0  0  0  0  0
  162.3550  208.6010  149.5340 C   0  0  1  0  0  3  0  0  0  0  0  0
  161.9950  209.0310  150.9110 C   0  0  0  0  0  0  0  0  0  0  0  0
  161.9310  208.5820  152.1760 N   0  0  0  0  0  0  0  0  0  0  0  0
  161.4110  209.4690  153.0950 C   0  0  0  0  0  0  0  0  0  0  0  0
  160.9700  210.7830  152.6880 C   0  0  0  0  0  3  0  0  0  0  0  0
  162.7500  210.7110  155.6810 N   0  0  0  0  0  1  0  0  0  0  0  0
  160.5290  208.0110  154.9120 N   0  0  0  0  0  0  0  0  0  0  0  0
  160.6670  207.9580  156.2290 N   0  0  0  0  0  0  0  0  0  0  0  0
  160.0060  206.9750  157.0650 C   0  0  0  0  0  1  0  0  0  0  0  0
  161.8700  209.5930  155.6260 C   0  0  0  0  0  0  0  0  0  0  0  0
  161.4720  208.8980  156.7030 N   0  0  0  0  0  0  0  0  0  0  0  0
  161.2880  209.0460  154.4990 C   0  0  0  0  0  0  0  0  0  0  0  0
  161.8970  206.5200  148.5100 C   0  0  0  0  0  3  0  0  0  0  0  0
  161.4550  207.5580  149.1190 N   0  0  0  0  0  0  0  0  0  0  0  0
  160.9670  205.3990  148.1810 C   0  0  0  0  0  2  0  0  0  0  0  0
  161.7450  204.2250  147.5980 C   0  0  0  0  0  2  0  0  0  0  0  0
  161.3260  202.9060  148.2390 C   0  0  2  0  0  3  0  0  0  0  0  0
  160.8320  202.3300  145.8590 C   0  0  0  0  0  3  0  0  0  0  0  0
  160.2780  201.5850  145.0090 O   0  0  0  0  0  0  0  0  0  0  0  0
  160.7090  202.0400  147.2470 N   0  0  0  0  0  2  0  0  0  0  0  0
  160.4110  203.1220  149.4490 C   0  0  0  0  0  2  0  0  0  0  0  0
  161.4460  201.0680  150.0990 O   0  0  0  0  0  1  0  0  0  0  0  0
  160.6570  202.1180  150.5690 C   0  0  1  0  0  3  0  0  0  0  0  0
  161.3650  202.8170  151.7150 C   0  0  0  0  0  2  0  0  0  0  0  0
  161.1080  204.3100  151.6580 C   0  0  0  0  0  1  0  0  0  0  0  0
  1  8  1  0  0  0  0
  2  5  1  0  0  0  0
  2  1  2  0  0  0  0
  3  4  1  0  0  0  0
  3  2  1  0  0  0  0
  4 17  1  6  0  0  0
  4  5  1  0  0  0  0
  5  6  2  0  0  0  0
  6  7  1  0  0  0  0
  7 15  1  0  0  0  0
  8  7  2  0  0  0  0
 10 11  1  0  0  0  0
 11 14  1  0  0  0  0
 11 12  1  0  0  0  0
 13  9  1  0  0  0  0
 13 14  2  0  0  0  0
 15 10  2  0  0  0  0
 15 13  1  0  0  0  0
 16 17  2  0  0  0  0
 18 16  1  0  0  0  0
 19 18  1  0  0  0  0
 20 19  1  6  0  0  0
 20 24  1  0  0  0  0
 21 23  1  0  0  0  0
 22 21  2  0  0  0  0
 23 20  1  0  0  0  0
 24 26  1  0  0  0  0
 26 25  1  6  0  0  0
 26 27  1  0  0  0  0
 28 27  1  0  0  0  0
M  END
>  <MODEL>
1

>  <REMARK>
 VINA RESULT:      -6.8      0.000      0.000
  Name = 
  9 active torsions:
  status: ('A' for Active; 'I' for Inactive)
    1  A    between atoms: C_1  and  C_28
    2  A    between atoms: C_6  and  C_7
    3  A    between atoms: C_6  and  C_14
    4  A    between atoms: C_10  and  N_27
    5  A    between atoms: C_14  and  C_26
    6  A    between atoms: C_19  and  C_24
    7  A    between atoms: N_22  and  C_26
    8  A    between atoms: C_25  and  C_26
    9  A    between atoms: C_25  and  C_28
                            x       y       z     vdW  Elec       q    Type
                         _______ _______ _______ _____ _____    ______ ____

>  <TORSDO>
F 9

$$$$
=
 OpenBabel11072411193D

 28 30  0  0  1  0  0  0  0  0999 V2000
  160.6380  211.7580  151.6530 N   0  0  0  0  0  0  0  0  0  0  0  0
  161.3110  211.0750  150.7120 C   0  0  0  0  0  0  0  0  0  0  0  0
  161.7120  211.1270  148.9530 S   0  0  0  0  0  0  0  0  0  0  0  0
  162.4080  209.6630  149.5570 C   0  0  1  0  0  3  0  0  0  0  0  0
  161.9690  209.8580  150.9640 C   0  0  0  0  0  0  0  0  0  0  0  0
  161.9810  209.2600  152.1680 N   0  0  0  0  0  0  0  0  0  0  0  0
  161.3050  209.9260  153.1680 C   0  0  0  0  0  0  0  0  0  0  0  0
  160.6360  211.1780  152.9020 C   0  0  0  0  0  3  0  0  0  0  0  0
  162.8680  210.7620  155.7910 N   0  0  0  0  0  1  0  0  0  0  0  0
  160.4740  208.2770  154.8400 N   0  0  0  0  0  0  0  0  0  0  0  0
  160.6950  208.0450  156.1260 N   0  0  0  0  0  0  0  0  0  0  0  0
  160.0430  206.9870  156.8730 C   0  0  0  0  0  1  0  0  0  0  0  0
  161.9340  209.6960  155.6550 C   0  0  0  0  0  0  0  0  0  0  0  0
  161.5730  208.8820  156.6590 N   0  0  0  0  0  0  0  0  0  0  0  0
  161.2530  209.3260  154.5110 C   0  0  0  0  0  0  0  0  0  0  0  0
  162.3600  207.6010  148.4030 C   0  0  0  0  0  3  0  0  0  0  0  0
  161.7140  208.5320  149.0020 N   0  0  0  0  0  0  0  0  0  0  0  0
  161.6380  206.3830  147.9270 C   0  0  0  0  0  2  0  0  0  0  0  0
  160.4990  206.0420  148.8820 C   0  0  0  0  0  2  0  0  0  0  0  0
  160.7100  204.6810  149.5380 C   0  0  2  0  0  3  0  0  0  0  0  0
  161.2680  205.7860  151.7080 C   0  0  0  0  0  3  0  0  0  0  0  0
  162.0210  205.9070  152.7080 O   0  0  0  0  0  0  0  0  0  0  0  0
  161.5610  204.8150  150.7090 N   0  0  0  0  0  2  0  0  0  0  0  0
  161.2640  203.6500  148.5500 C   0  0  0  0  0  2  0  0  0  0  0  0
  159.7550  202.1090  149.5800 O   0  0  0  0  0  1  0  0  0  0  0  0
  161.0140  202.2110  148.9860 C   0  0  1  0  0  3  0  0  0  0  0  0
  161.0800  201.3050  147.7710 C   0  0  0  0  0  2  0  0  0  0  0  0
  160.9320  202.1210  146.5010 C   0  0  0  0  0  1  0  0  0  0  0  0
  1  8  1  0  0  0  0
  2  5  1  0  0  0  0
  2  1  2  0  0  0  0
  3  4  1  0  0  0  0
  3  2  1  0  0  0  0
  4 17  1  6  0  0  0
  4  5  1  0  0  0  0
  5  6  2  0  0  0  0
  6  7  1  0  0  0  0
  7 15  1  0  0  0  0
  8  7  2  0  0  0  0
 10 11  1  0  0  0  0
 11 14  1  0  0  0  0
 11 12  1  0  0  0  0
 13  9  1  0  0  0  0
 13 14  2  0  0  0  0
 15 10  2  0  0  0  0
 15 13  1  0  0  0  0
 16 17  2  0  0  0  0
 18 16  1  0  0  0  0
 18 19  1  0  0  0  0
 19 20  1  0  0  0  0
 20 24  1  6  0  0  0
 20 23  1  0  0  0  0
 21 22  2  0  0  0  0
 23 21  1  0  0  0  0
 24 26  1  0  0  0  0
 26 25  1  6  0  0  0
 27 26  1  0  0  0  0
 28 27  1  0  0  0  0
M  END
>  <MODEL>
2

>  <REMARK>
 VINA RESULT:      -6.5      1.590      2.846
  Name = 
  9 active torsions:
  status: ('A' for Active; 'I' for Inactive)
    1  A    between atoms: C_1  and  C_28
    2  A    between atoms: C_6  and  C_7
    3  A    between atoms: C_6  and  C_14
    4  A    between atoms: C_10  and  N_27
    5  A    between atoms: C_14  and  C_26
    6  A    between atoms: C_19  and  C_24
    7  A    between atoms: N_22  and  C_26
    8  A    between atoms: C_25  and  C_26
    9  A    between atoms: C_25  and  C_28
                            x       y       z     vdW  Elec       q    Type
                         _______ _______ _______ _____ _____    ______ ____

>  <TORSDO>
F 9

$$$$
=
 OpenBabel11072411193D

 28 30  0  0  1  0  0  0  0  0999 V2000
  160.0840  211.9220  152.0110 N   0  0  0  0  0  0  0  0  0  0  0  0
  160.8370  210.8170  152.1440 C   0  0  0  0  0  0  0  0  0  0  0  0
  162.0190  209.8020  151.2330 S   0  0  0  0  0  0  0  0  0  0  0  0
  161.7780  209.0070  152.7510 C   0  0  1  0  0  3  0  0  0  0  0  0
  160.8200  210.0050  153.2930 C   0  0  0  0  0  0  0  0  0  0  0  0
  160.0450  210.2550  154.3630 N   0  0  0  0  0  0  0  0  0  0  0  0
  159.2560  211.3820  154.2730 C   0  0  0  0  0  0  0  0  0  0  0  0
  159.2820  212.2120  153.0910 C   0  0  0  0  0  3  0  0  0  0  0  0
  159.7800  213.2790  156.7530 N   0  0  0  0  0  1  0  0  0  0  0  0
  157.1090  211.2350  155.5280 N   0  0  0  0  0  0  0  0  0  0  0  0
  156.6300  211.7690  156.6430 N   0  0  0  0  0  0  0  0  0  0  0  0
  155.2960  211.5060  157.1480 C   0  0  0  0  0  1  0  0  0  0  0  0
  158.5930  212.5450  156.4730 C   0  0  0  0  0  0  0  0  0  0  0  0
  157.4970  212.5680  157.2480 N   0  0  0  0  0  0  0  0  0  0  0  0
  158.3620  211.7130  155.3950 C   0  0  0  0  0  0  0  0  0  0  0  0
  161.7310  206.6520  152.5440 C   0  0  0  0  0  3  0  0  0  0  0  0
  161.0890  207.7620  152.5410 N   0  0  0  0  0  0  0  0  0  0  0  0
  160.9860  205.3630  152.4320 C   0  0  0  0  0  2  0  0  0  0  0  0
  161.6910  204.4330  151.4520 C   0  0  0  0  0  2  0  0  0  0  0  0
  160.8250  204.1510  150.2290 C   0  0  2  0  0  3  0  0  0  0  0  0
  160.8650  202.1180  148.7770 C   0  0  0  0  0  3  0  0  0  0  0  0
  160.6990  200.8800  148.6300 O   0  0  0  0  0  0  0  0  0  0  0  0
  160.6580  202.7180  150.0510 N   0  0  0  0  0  2  0  0  0  0  0  0
  161.3830  204.8160  148.9670 C   0  0  0  0  0  2  0  0  0  0  0  0
  160.7250  207.0970  149.2470 O   0  0  0  0  0  1  0  0  0  0  0  0
  160.5130  205.9630  148.4620 C   0  0  1  0  0  3  0  0  0  0  0  0
  160.8760  206.2630  147.0200 C   0  0  0  0  0  2  0  0  0  0  0  0
  162.2790  205.7740  146.7200 C   0  0  0  0  0  1  0  0  0  0  0  0
  1  2  2  0  0  0  0
  1  8  1  0  0  0  0
  2  5  1  0  0  0  0
  3  2  1  0  0  0  0
  3  4  1  0  0  0  0
  4 17  1  6  0  0  0
  4  5  1  0  0  0  0
  5  6  2  0  0  0  0
  7  6  1  0  0  0  0
  7 15  1  0  0  0  0
  8  7  2  0  0  0  0
 10 11  1  0  0  0  0
 11 12  1  0  0  0  0
 11 14  1  0  0  0  0
 13  9  1  0  0  0  0
 13 14  2  0  0  0  0
 15 10  2  0  0  0  0
 15 13  1  0  0  0  0
 17 16  2  0  0  0  0
 18 16  1  0  0  0  0
 19 18  1  0  0  0  0
 20 24  1  6  0  0  0
 20 19  1  0  0  0  0
 21 23  1  0  0  0  0
 22 21  2  0  0  0  0
 23 20  1  0  0  0  0
 26 24  1  0  0  0  0
 26 25  1  1  0  0  0
 27 26  1  0  0  0  0
 28 27  1  0  0  0  0
M  END
>  <MODEL>
3

>  <REMARK>
 VINA RESULT:      -6.4      3.120      4.034
  Name = 
  9 active torsions:
  status: ('A' for Active; 'I' for Inactive)
    1  A    between atoms: C_1  and  C_28
    2  A    between atoms: C_6  and  C_7
    3  A    between atoms: C_6  and  C_14
    4  A    between atoms: C_10  and  N_27
    5  A    between atoms: C_14  and  C_26
    6  A    between atoms: C_19  and  C_24
    7  A    between atoms: N_22  and  C_26
    8  A    between atoms: C_25  and  C_26
    9  A    between atoms: C_25  and  C_28
                            x       y       z     vdW  Elec       q    Type
                         _______ _______ _______ _____ _____    ______ ____

>  <TORSDO>
F 9

$$$$
=
 OpenBabel11072411193D

 28 30  0  0  1  0  0  0  0  0999 V2000
  162.7490  207.7170  148.3320 N   0  0  0  0  0  0  0  0  0  0  0  0
  162.1140  208.1730  149.4250 C   0  0  0  0  0  0  0  0  0  0  0  0
  162.0130  209.6270  150.4890 S   0  0  0  0  0  0  0  0  0  0  0  0
  160.9620  208.4460  151.1940 C   0  0  1  0  0  3  0  0  0  0  0  0
  161.2030  207.3990  150.1670 C   0  0  0  0  0  0  0  0  0  0  0  0
  160.8870  206.1300  149.8560 N   0  0  0  0  0  0  0  0  0  0  0  0
  161.5130  205.6190  148.7390 C   0  0  0  0  0  0  0  0  0  0  0  0
  162.4440  206.4220  147.9800 C   0  0  0  0  0  3  0  0  0  0  0  0
  160.8070  203.1280  150.5600 N   0  0  0  0  0  1  0  0  0  0  0  0
  161.2300  203.7920  147.0690 N   0  0  0  0  0  0  0  0  0  0  0  0
  160.9280  202.5030  147.1240 N   0  0  0  0  0  0  0  0  0  0  0  0
  160.8190  201.6560  145.9520 C   0  0  0  0  0  1  0  0  0  0  0  0
  160.9240  203.1440  149.1410 C   0  0  0  0  0  0  0  0  0  0  0  0
  160.7350  202.0690  148.3610 N   0  0  0  0  0  0  0  0  0  0  0  0
  161.2360  204.2280  148.3440 C   0  0  0  0  0  0  0  0  0  0  0  0
  160.7520  207.8950  153.4830 C   0  0  0  0  0  3  0  0  0  0  0  0
  161.5050  208.0040  152.4500 N   0  0  0  0  0  0  0  0  0  0  0  0
  161.3080  207.3330  154.7500 C   0  0  0  0  0  2  0  0  0  0  0  0
  160.6900  208.0390  155.9520 C   0  0  0  0  0  2  0  0  0  0  0  0
  160.8900  209.5490  155.8750 C   0  0  2  0  0  3  0  0  0  0  0  0
  163.0710  210.6380  156.4170 C   0  0  0  0  0  3  0  0  0  0  0  0
  163.9370  210.9840  157.2610 O   0  0  0  0  0  0  0  0  0  0  0  0
  161.8880  209.9720  156.8430 N   0  0  0  0  0  2  0  0  0  0  0  0
  159.5720  210.3100  156.0500 C   0  0  0  0  0  2  0  0  0  0  0  0
  160.2200  212.6110  156.0090 O   0  0  0  0  0  1  0  0  0  0  0  0
  159.5390  211.6300  155.2870 C   0  0  1  0  0  3  0  0  0  0  0  0
  160.2020  211.4380  153.9360 C   0  0  0  0  0  2  0  0  0  0  0  0
  159.1520  211.2160  152.8640 C   0  0  0  0  0  1  0  0  0  0  0  0
  1  2  1  0  0  0  0
  2  5  2  0  0  0  0
  2  3  1  0  0  0  0
  3  4  1  0  0  0  0
  4 17  1  1  0  0  0
  5  4  1  0  0  0  0
  6  5  1  0  0  0  0
  7  6  2  0  0  0  0
  8  1  2  0  0  0  0
  8  7  1  0  0  0  0
 10 11  1  0  0  0  0
 10 15  2  0  0  0  0
 11 14  1  0  0  0  0
 12 11  1  0  0  0  0
 13  9  1  0  0  0  0
 14 13  2  0  0  0  0
 15  7  1  0  0  0  0
 15 13  1  0  0  0  0
 16 18  1  0  0  0  0
 17 16  2  0  0  0  0
 18 19  1  0  0  0  0
 20 19  1  1  0  0  0
 20 24  1  0  0  0  0
 20 23  1  0  0  0  0
 21 23  1  0  0  0  0
 21 22  2  0  0  0  0
 26 25  1  1  0  0  0
 26 24  1  0  0  0  0
 27 26  1  0  0  0  0
 28 27  1  0  0  0  0
M  END
>  <MODEL>
4

>  <REMARK>
 VINA RESULT:      -6.4      4.109      8.880
  Name = 
  9 active torsions:
  status: ('A' for Active; 'I' for Inactive)
    1  A    between atoms: C_1  and  C_28
    2  A    between atoms: C_6  and  C_7
    3  A    between atoms: C_6  and  C_14
    4  A    between atoms: C_10  and  N_27
    5  A    between atoms: C_14  and  C_26
    6  A    between atoms: C_19  and  C_24
    7  A    between atoms: N_22  and  C_26
    8  A    between atoms: C_25  and  C_26
    9  A    between atoms: C_25  and  C_28
                            x       y       z     vdW  Elec       q    Type
                         _______ _______ _______ _____ _____    ______ ____

>  <TORSDO>
F 9

$$$$
=
 OpenBabel11072411193D

 28 30  0  0  1  0  0  0  0  0999 V2000
  160.7670  203.7550  152.3000 N   0  0  0  0  0  0  0  0  0  0  0  0
  161.1720  205.0070  152.5760 C   0  0  0  0  0  0  0  0  0  0  0  0
  161.3490  206.1550  153.9570 S   0  0  0  0  0  0  0  0  0  0  0  0
  161.8220  207.0330  152.5430 C   0  0  1  0  0  3  0  0  0  0  0  0
  161.6100  205.9110  151.5920 C   0  0  0  0  0  0  0  0  0  0  0  0
  161.6600  205.6110  150.2820 N   0  0  0  0  0  0  0  0  0  0  0  0
  161.2560  204.3350  149.9500 C   0  0  0  0  0  0  0  0  0  0  0  0
  160.8120  203.4110  150.9680 C   0  0  0  0  0  3  0  0  0  0  0  0
  162.0970  206.0160  147.4030 N   0  0  0  0  0  1  0  0  0  0  0  0
  160.8980  202.7150  148.0920 N   0  0  0  0  0  0  0  0  0  0  0  0
  161.0510  202.7410  146.7760 N   0  0  0  0  0  0  0  0  0  0  0  0
  160.7650  201.6100  145.9140 C   0  0  0  0  0  1  0  0  0  0  0  0
  161.6330  204.6700  147.4250 C   0  0  0  0  0  0  0  0  0  0  0  0
  161.4940  203.9070  146.3290 N   0  0  0  0  0  0  0  0  0  0  0  0
  161.2610  203.9350  148.5330 C   0  0  0  0  0  0  0  0  0  0  0  0
  161.0380  209.2570  152.7110 C   0  0  0  0  0  3  0  0  0  0  0  0
  160.8590  208.0660  152.2710 N   0  0  0  0  0  0  0  0  0  0  0  0
  160.0840  210.3410  152.3300 C   0  0  0  0  0  2  0  0  0  0  0  0
  160.1310  211.4660  153.3570 C   0  0  0  0  0  2  0  0  0  0  0  0
  159.3530  211.1020  154.6180 C   0  0  2  0  0  3  0  0  0  0  0  0
  156.8780  211.3940  154.7920 C   0  0  0  0  0  3  0  0  0  0  0  0
  155.8730  212.1440  154.8880 O   0  0  0  0  0  0  0  0  0  0  0  0
  158.1850  211.9570  154.7510 N   0  0  0  0  0  2  0  0  0  0  0  0
  160.2360  211.1500  155.8690 C   0  0  0  0  0  2  0  0  0  0  0  0
  159.6180  208.8410  155.8900 O   0  0  0  0  0  1  0  0  0  0  0  0
  160.4490  209.7800  156.5020 C   0  0  1  0  0  3  0  0  0  0  0  0
  161.8990  209.3720  156.3250 C   0  0  0  0  0  2  0  0  0  0  0  0
  162.7620  210.5950  156.0800 C   0  0  0  0  0  1  0  0  0  0  0  0
  1  2  1  0  0  0  0
  2  3  1  0  0  0  0
  4 17  1  6  0  0  0
  4  3  1  0  0  0  0
  5  4  1  0  0  0  0
  5  2  2  0  0  0  0
  6  5  1  0  0  0  0
  7  6  2  0  0  0  0
  7  8  1  0  0  0  0
  8  1  2  0  0  0  0
  9 13  1  0  0  0  0
 10 15  2  0  0  0  0
 11 10  1  0  0  0  0
 12 11  1  0  0  0  0
 13 15  1  0  0  0  0
 14 11  1  0  0  0  0
 14 13  2  0  0  0  0
 15  7  1  0  0  0  0
 17 16  2  0  0  0  0
 18 16  1  0  0  0  0
 18 19  1  0  0  0  0
 20 19  1  6  0  0  0
 20 23  1  0  0  0  0
 20 24  1  0  0  0  0
 21 22  2  0  0  0  0
 23 21  1  0  0  0  0
 24 26  1  0  0  0  0
 26 25  1  6  0  0  0
 27 26  1  0  0  0  0
 28 27  1  0  0  0  0
M  END
>  <MODEL>
5

>  <REMARK>
 VINA RESULT:      -6.4      3.988      8.966
  Name = 
  9 active torsions:
  status: ('A' for Active; 'I' for Inactive)
    1  A    between atoms: C_1  and  C_28
    2  A    between atoms: C_6  and  C_7
    3  A    between atoms: C_6  and  C_14
    4  A    between atoms: C_10  and  N_27
    5  A    between atoms: C_14  and  C_26
    6  A    between atoms: C_19  and  C_24
    7  A    between atoms: N_22  and  C_26
    8  A    between atoms: C_25  and  C_26
    9  A    between atoms: C_25  and  C_28
                            x       y       z     vdW  Elec       q    Type
                         _______ _______ _______ _____ _____    ______ ____

>  <TORSDO>
F 9

$$$$
=
 OpenBabel11072411193D

 28 30  0  0  1  0  0  0  0  0999 V2000
  161.3670  210.9740  156.1530 N   0  0  0  0  0  0  0  0  0  0  0  0
  161.1580  209.6680  155.9170 C   0  0  0  0  0  0  0  0  0  0  0  0
  161.6370  208.0350  156.5200 S   0  0  0  0  0  0  0  0  0  0  0  0
  160.6110  207.7570  155.1550 C   0  0  1  0  0  3  0  0  0  0  0  0
  160.3530  209.1920  154.8660 C   0  0  0  0  0  0  0  0  0  0  0  0
  159.7230  209.9990  153.9950 N   0  0  0  0  0  0  0  0  0  0  0  0
  159.9060  211.3510  154.1980 C   0  0  0  0  0  0  0  0  0  0  0  0
  160.7310  211.8310  155.2830 C   0  0  0  0  0  3  0  0  0  0  0  0
  157.1580  212.8940  154.5030 N   0  0  0  0  0  1  0  0  0  0  0  0
  159.7990  212.6830  152.0960 N   0  0  0  0  0  0  0  0  0  0  0  0
  158.9420  213.5470  151.5700 N   0  0  0  0  0  0  0  0  0  0  0  0
  159.1470  214.2000  150.2910 C   0  0  0  0  0  1  0  0  0  0  0  0
  158.0690  212.9750  153.4120 C   0  0  0  0  0  0  0  0  0  0  0  0
  157.8800  213.7530  152.3340 N   0  0  0  0  0  0  0  0  0  0  0  0
  159.2660  212.3010  153.2740 C   0  0  0  0  0  0  0  0  0  0  0  0
  160.9310  206.1980  153.4070 C   0  0  0  0  0  3  0  0  0  0  0  0
  161.3800  207.1940  154.0770 N   0  0  0  0  0  0  0  0  0  0  0  0
  161.6930  205.6950  152.2250 C   0  0  0  0  0  2  0  0  0  0  0  0
  162.4570  206.8380  151.5670 C   0  0  0  0  0  2  0  0  0  0  0  0
  162.0310  207.0300  150.1150 C   0  0  2  0  0  3  0  0  0  0  0  0
  162.0780  209.4230  150.8280 C   0  0  0  0  0  3  0  0  0  0  0  0
  161.9720  210.6460  150.5520 O   0  0  0  0  0  0  0  0  0  0  0  0
  161.9330  208.4460  149.8030 N   0  0  0  0  0  2  0  0  0  0  0  0
  160.7290  206.2880  149.7970 C   0  0  0  0  0  2  0  0  0  0  0  0
  161.3350  206.5190  147.4970 O   0  0  0  0  0  1  0  0  0  0  0  0
  160.7230  205.6590  148.4090 C   0  0  1  0  0  3  0  0  0  0  0  0
  161.4790  204.3440  148.4580 C   0  0  0  0  0  2  0  0  0  0  0  0
  160.7920  203.3800  149.4050 C   0  0  0  0  0  1  0  0  0  0  0  0
  2  1  1  0  0  0  0
  2  3  1  0  0  0  0
  4 17  1  6  0  0  0
  4  3  1  0  0  0  0
  5  4  1  0  0  0  0
  5  2  2  0  0  0  0
  6  7  2  0  0  0  0
  6  5  1  0  0  0  0
  7  8  1  0  0  0  0
  8  1  2  0  0  0  0
 10 15  2  0  0  0  0
 11 10  1  0  0  0  0
 11 14  1  0  0  0  0
 12 11  1  0  0  0  0
 13  9  1  0  0  0  0
 14 13  2  0  0  0  0
 15 13  1  0  0  0  0
 15  7  1  0  0  0  0
 16 17  2  0  0  0  0
 18 16  1  0  0  0  0
 19 18  1  0  0  0  0
 20 24  1  1  0  0  0
 20 19  1  0  0  0  0
 22 21  2  0  0  0  0
 23 20  1  0  0  0  0
 23 21  1  0  0  0  0
 26 25  1  6  0  0  0
 26 27  1  0  0  0  0
 26 24  1  0  0  0  0
 27 28  1  0  0  0  0
M  END
>  <MODEL>
6

>  <REMARK>
 VINA RESULT:      -6.3      3.460      5.843
  Name = 
  9 active torsions:
  status: ('A' for Active; 'I' for Inactive)
    1  A    between atoms: C_1  and  C_28
    2  A    between atoms: C_6  and  C_7
    3  A    between atoms: C_6  and  C_14
    4  A    between atoms: C_10  and  N_27
    5  A    between atoms: C_14  and  C_26
    6  A    between atoms: C_19  and  C_24
    7  A    between atoms: N_22  and  C_26
    8  A    between atoms: C_25  and  C_26
    9  A    between atoms: C_25  and  C_28
                            x       y       z     vdW  Elec       q    Type
                         _______ _______ _______ _____ _____    ______ ____

>  <TORSDO>
F 9

$$$$
=
 OpenBabel11072411193D

 28 30  0  0  1  0  0  0  0  0999 V2000
  161.2540  210.9960  156.0750 N   0  0  0  0  0  0  0  0  0  0  0  0
  161.0940  209.6850  155.8250 C   0  0  0  0  0  0  0  0  0  0  0  0
  161.5760  208.0650  156.4570 S   0  0  0  0  0  0  0  0  0  0  0  0
  160.6480  207.7630  155.0290 C   0  0  1  0  0  3  0  0  0  0  0  0
  160.3720  209.1910  154.7240 C   0  0  0  0  0  0  0  0  0  0  0  0
  159.7790  209.9830  153.8140 N   0  0  0  0  0  0  0  0  0  0  0  0
  159.9130  211.3380  154.0300 C   0  0  0  0  0  0  0  0  0  0  0  0
  160.6530  211.8380  155.1650 C   0  0  0  0  0  3  0  0  0  0  0  0
  157.0880  212.7630  154.1270 N   0  0  0  0  0  1  0  0  0  0  0  0
  159.9190  212.6930  151.9390 N   0  0  0  0  0  0  0  0  0  0  0  0
  159.0720  213.5270  151.3530 N   0  0  0  0  0  0  0  0  0  0  0  0
  159.3510  214.2040  150.1010 C   0  0  0  0  0  1  0  0  0  0  0  0
  158.0790  212.8960  153.1130 C   0  0  0  0  0  0  0  0  0  0  0  0
  157.9440  213.6790  152.0310 N   0  0  0  0  0  0  0  0  0  0  0  0
  159.3100  212.2730  153.0650 C   0  0  0  0  0  0  0  0  0  0  0  0
  161.1190  206.2210  153.3000 C   0  0  0  0  0  3  0  0  0  0  0  0
  161.5000  207.2220  154.0040 N   0  0  0  0  0  0  0  0  0  0  0  0
  161.9690  205.7400  152.1700 C   0  0  0  0  0  2  0  0  0  0  0  0
  161.5600  204.3270  151.7700 C   0  0  0  0  0  2  0  0  0  0  0  0
  160.7600  204.3240  150.4720 C   0  0  2  0  0  3  0  0  0  0  0  0
  160.9570  202.4280  148.8580 C   0  0  0  0  0  3  0  0  0  0  0  0
  160.6670  201.2530  148.5150 O   0  0  0  0  0  0  0  0  0  0  0  0
  160.4490  202.9600  150.0760 N   0  0  0  0  0  2  0  0  0  0  0  0
  161.4790  205.0880  149.3550 C   0  0  0  0  0  2  0  0  0  0  0  0
  161.1490  207.4550  149.3070 O   0  0  0  0  0  1  0  0  0  0  0  0
  160.6600  206.2490  148.8030 C   0  0  1  0  0  3  0  0  0  0  0  0
  160.7580  206.2500  147.2890 C   0  0  0  0  0  2  0  0  0  0  0  0
  161.8640  205.3170  146.8350 C   0  0  0  0  0  1  0  0  0  0  0  0
  2  1  1  0  0  0  0
  2  3  1  0  0  0  0
  4 17  1  6  0  0  0
  4  3  1  0  0  0  0
  5  4  1  0  0  0  0
  5  2  2  0  0  0  0
  6  7  2  0  0  0  0
  6  5  1  0  0  0  0
  7  8  1  0  0  0  0
  8  1  2  0  0  0  0
 10 15  2  0  0  0  0
 11 10  1  0  0  0  0
 11 14  1  0  0  0  0
 12 11  1  0  0  0  0
 13  9  1  0  0  0  0
 14 13  2  0  0  0  0
 15 13  1  0  0  0  0
 15  7  1  0  0  0  0
 16 17  2  0  0  0  0
 18 16  1  0  0  0  0
 19 18  1  0  0  0  0
 20 24  1  6  0  0  0
 20 19  1  0  0  0  0
 21 23  1  0  0  0  0
 22 21  2  0  0  0  0
 23 20  1  0  0  0  0
 26 25  1  1  0  0  0
 26 24  1  0  0  0  0
 27 26  1  0  0  0  0
 28 27  1  0  0  0  0
M  END
>  <MODEL>
7

>  <REMARK>
 VINA RESULT:      -6.3      3.004      5.227
  Name = 
  9 active torsions:
  status: ('A' for Active; 'I' for Inactive)
    1  A    between atoms: C_1  and  C_28
    2  A    between atoms: C_6  and  C_7
    3  A    between atoms: C_6  and  C_14
    4  A    between atoms: C_10  and  N_27
    5  A    between atoms: C_14  and  C_26
    6  A    between atoms: C_19  and  C_24
    7  A    between atoms: N_22  and  C_26
    8  A    between atoms: C_25  and  C_26
    9  A    between atoms: C_25  and  C_28
                            x       y       z     vdW  Elec       q    Type
                         _______ _______ _______ _____ _____    ______ ____

>  <TORSDO>
F 9

$$$$
=
 OpenBabel11072411193D

 28 30  0  0  1  0  0  0  0  0999 V2000
  161.0270  211.5750  156.3380 N   0  0  0  0  0  0  0  0  0  0  0  0
  160.9950  210.2530  156.0950 C   0  0  0  0  0  0  0  0  0  0  0  0
  161.8590  208.7250  156.5150 S   0  0  0  0  0  0  0  0  0  0  0  0
  160.6290  208.2810  155.3820 C   0  0  1  0  0  3  0  0  0  0  0  0
  160.0770  209.6520  155.2150 C   0  0  0  0  0  0  0  0  0  0  0  0
  159.1510  210.3420  154.5290 N   0  0  0  0  0  0  0  0  0  0  0  0
  159.1430  211.7040  154.7470 C   0  0  0  0  0  0  0  0  0  0  0  0
  160.0860  212.3130  155.6560 C   0  0  0  0  0  3  0  0  0  0  0  0
  159.4480  213.1340  151.9390 N   0  0  0  0  0  1  0  0  0  0  0  0
  156.9290  212.8100  154.4620 N   0  0  0  0  0  0  0  0  0  0  0  0
  156.3650  213.5640  153.5290 N   0  0  0  0  0  0  0  0  0  0  0  0
  155.0120  214.0780  153.6250 C   0  0  0  0  0  1  0  0  0  0  0  0
  158.3060  213.1530  152.7900 C   0  0  0  0  0  0  0  0  0  0  0  0
  157.1640  213.7960  152.4980 N   0  0  0  0  0  0  0  0  0  0  0  0
  158.1710  212.5340  154.0170 C   0  0  0  0  0  0  0  0  0  0  0  0
  161.4490  206.6250  153.9080 C   0  0  0  0  0  3  0  0  0  0  0  0
  161.2360  207.8670  154.1460 N   0  0  0  0  0  0  0  0  0  0  0  0
  161.9800  206.2040  152.5770 C   0  0  0  0  0  2  0  0  0  0  0  0
  160.8310  205.9610  151.6060 C   0  0  0  0  0  2  0  0  0  0  0  0
  161.2970  206.0540  150.1570 C   0  0  2  0  0  3  0  0  0  0  0  0
  162.1490  208.1270  149.0530 C   0  0  0  0  0  3  0  0  0  0  0  0
  161.9560  209.2960  148.6310 O   0  0  0  0  0  0  0  0  0  0  0  0
  161.0800  207.3980  149.6450 N   0  0  0  0  0  2  0  0  0  0  0  0
  160.6290  204.9970  149.2720 C   0  0  0  0  0  2  0  0  0  0  0  0
  161.2100  203.0290  148.0460 O   0  0  0  0  0  1  0  0  0  0  0  0
  161.5930  204.3490  148.2850 C   0  0  1  0  0  3  0  0  0  0  0  0
  161.5720  205.1300  146.9850 C   0  0  0  0  0  2  0  0  0  0  0  0
  162.7940  204.7950  146.1520 C   0  0  0  0  0  1  0  0  0  0  0  0
  2  1  1  0  0  0  0
  2  3  1  0  0  0  0
  4 17  1  6  0  0  0
  4  3  1  0  0  0  0
  5  4  1  0  0  0  0
  5  2  2  0  0  0  0
  6  7  2  0  0  0  0
  6  5  1  0  0  0  0
  7  8  1  0  0  0  0
  8  1  2  0  0  0  0
  9 13  1  0  0  0  0
 11 12  1  0  0  0  0
 11 10  1  0  0  0  0
 13 15  1  0  0  0  0
 14 13  2  0  0  0  0
 14 11  1  0  0  0  0
 15 10  2  0  0  0  0
 15  7  1  0  0  0  0
 16 17  2  0  0  0  0
 18 16  1  0  0  0  0
 19 18  1  0  0  0  0
 20 24  1  6  0  0  0
 20 19  1  0  0  0  0
 21 23  1  0  0  0  0
 22 21  2  0  0  0  0
 23 20  1  0  0  0  0
 26 25  1  6  0  0  0
 26 24  1  0  0  0  0
 27 26  1  0  0  0  0
 28 27  1  0  0  0  0
M  END
>  <MODEL>
8

>  <REMARK>
 VINA RESULT:      -6.1      3.615      5.654
  Name = 
  9 active torsions:
  status: ('A' for Active; 'I' for Inactive)
    1  A    between atoms: C_1  and  C_28
    2  A    between atoms: C_6  and  C_7
    3  A    between atoms: C_6  and  C_14
    4  A    between atoms: C_10  and  N_27
    5  A    between atoms: C_14  and  C_26
    6  A    between atoms: C_19  and  C_24
    7  A    between atoms: N_22  and  C_26
    8  A    between atoms: C_25  and  C_26
    9  A    between atoms: C_25  and  C_28
                            x       y       z     vdW  Elec       q    Type
                         _______ _______ _______ _____ _____    ______ ____

>  <TORSDO>
F 9

$$$$
=
 OpenBabel11072411193D

 28 30  0  0  1  0  0  0  0  0999 V2000
  162.5410  205.9320  146.7570 N   0  0  0  0  0  0  0  0  0  0  0  0
  161.9570  206.5490  147.7980 C   0  0  0  0  0  0  0  0  0  0  0  0
  161.8380  208.1680  148.5870 S   0  0  0  0  0  0  0  0  0  0  0  0
  160.9170  207.0880  149.5760 C   0  0  1  0  0  3  0  0  0  0  0  0
  161.1520  205.8820  148.7390 C   0  0  0  0  0  0  0  0  0  0  0  0
  160.8970  204.5630  148.6900 N   0  0  0  0  0  0  0  0  0  0  0  0
  161.4740  203.8860  147.6360 C   0  0  0  0  0  0  0  0  0  0  0  0
  162.2950  204.5800  146.6710 C   0  0  0  0  0  3  0  0  0  0  0  0
  161.0050  201.7510  149.9260 N   0  0  0  0  0  1  0  0  0  0  0  0
  161.2170  201.7660  146.3530 N   0  0  0  0  0  0  0  0  0  0  0  0
  160.9940  200.4970  146.6640 N   0  0  0  0  0  0  0  0  0  0  0  0
  160.8770  199.4400  145.6770 C   0  0  0  0  0  1  0  0  0  0  0  0
  161.0510  201.5060  148.5240 C   0  0  0  0  0  0  0  0  0  0  0  0
  160.8870  200.2950  147.9690 N   0  0  0  0  0  0  0  0  0  0  0  0
  161.2600  202.4340  147.5230 C   0  0  0  0  0  0  0  0  0  0  0  0
  160.9110  206.5470  151.8770 C   0  0  0  0  0  3  0  0  0  0  0  0
  161.5750  206.9130  150.8440 N   0  0  0  0  0  0  0  0  0  0  0  0
  161.6250  206.2680  153.1590 C   0  0  0  0  0  2  0  0  0  0  0  0
  160.8660  206.8850  154.3280 C   0  0  0  0  0  2  0  0  0  0  0  0
  161.1850  208.3690  154.4780 C   0  0  2  0  0  3  0  0  0  0  0  0
  159.8660  209.7600  156.0790 C   0  0  0  0  0  3  0  0  0  0  0  0
  159.6360  210.1500  157.2520 O   0  0  0  0  0  0  0  0  0  0  0  0
  160.8960  208.8100  155.8330 N   0  0  0  0  0  2  0  0  0  0  0  0
  160.4520  209.2200  153.4370 C   0  0  0  0  0  2  0  0  0  0  0  0
  161.6510  210.1790  151.6050 O   0  0  0  0  0  1  0  0  0  0  0  0
  161.2820  210.3950  152.9330 C   0  0  1  0  0  3  0  0  0  0  0  0
  160.4590  211.6650  153.0350 C   0  0  0  0  0  2  0  0  0  0  0  0
  158.9920  211.3590  152.8020 C   0  0  0  0  0  1  0  0  0  0  0  0
  1  2  1  0  0  0  0
  2  3  1  0  0  0  0
  2  5  2  0  0  0  0
  3  4  1  0  0  0  0
  4 17  1  1  0  0  0
  5  4  1  0  0  0  0
  6  5  1  0  0  0  0
  7  6  2  0  0  0  0
  8  1  2  0  0  0  0
  8  7  1  0  0  0  0
 10 11  1  0  0  0  0
 10 15  2  0  0  0  0
 11 14  1  0  0  0  0
 12 11  1  0  0  0  0
 13  9  1  0  0  0  0
 14 13  2  0  0  0  0
 15  7  1  0  0  0  0
 15 13  1  0  0  0  0
 16 18  1  0  0  0  0
 17 16  2  0  0  0  0
 18 19  1  0  0  0  0
 19 20  1  0  0  0  0
 20 24  1  6  0  0  0
 20 23  1  0  0  0  0
 21 22  2  0  0  0  0
 23 21  1  0  0  0  0
 26 25  1  6  0  0  0
 26 27  1  0  0  0  0
 26 24  1  0  0  0  0
 28 27  1  0  0  0  0
M  END
>  <MODEL>
9

>  <REMARK>
 VINA RESULT:      -6.1      3.316      8.871
  Name = 
  9 active torsions:
  status: ('A' for Active; 'I' for Inactive)
    1  A    between atoms: C_1  and  C_28
    2  A    between atoms: C_6  and  C_7
    3  A    between atoms: C_6  and  C_14
    4  A    between atoms: C_10  and  N_27
    5  A    between atoms: C_14  and  C_26
    6  A    between atoms: C_19  and  C_24
    7  A    between atoms: N_22  and  C_26
    8  A    between atoms: C_25  and  C_26
    9  A    between atoms: C_25  and  C_28
                            x       y       z     vdW  Elec       q    Type
                         _______ _______ _______ _____ _____    ______ ____

>  <TORSDO>
F 9

$$$$
