=
 OpenBabel11072415153D

 40 43  0  0  1  0  0  0  0  0999 V2000
  160.9370  205.8450  150.6390 C   0  0  0  0  0  0  0  0  0  0  0  0
  160.1600  204.9450  150.9300 O   0  0  0  0  0  0  0  0  0  0  0  0
  161.5920  206.6550  151.7210 C   0  0  2  0  0  3  0  0  0  0  0  0
  162.9950  206.1380  151.9740 C   0  0  0  0  0  1  0  0  0  0  0  0
  160.8030  206.5980  152.9990 C   0  0  0  0  0  3  0  0  0  0  0  0
  160.6540  207.6450  153.8220 C   0  0  0  0  0  3  0  0  0  0  0  0
  161.2600  208.9880  153.5600 C   0  0  0  0  0  2  0  0  0  0  0  0
  160.7910  209.9800  154.6140 C   0  0  0  0  0  2  0  0  0  0  0  0
  160.2810  212.6810  155.3050 O   0  0  0  0  0  1  0  0  0  0  0  0
  159.3560  210.9510  152.8320 N   0  0  0  0  0  2  0  0  0  0  0  0
  159.1280  211.9510  155.0040 C   0  0  1  0  0  3  0  0  0  0  0  0
  158.6400  212.1630  152.7220 C   0  0  0  0  0  0  0  0  0  0  0  0
  158.2660  212.7640  154.0310 C   0  0  1  0  0  3  0  0  0  0  0  0
  159.4700  210.6560  154.2480 C   0  0  2  0  0  3  0  0  0  0  0  0
  158.3680  212.6850  151.6090 O   0  0  0  0  0  0  0  0  0  0  0  0
  156.7710  212.5320  154.3050 C   0  0  2  0  0  3  0  0  0  0  0  0
  155.9580  213.7480  153.9930 C   0  0  0  0  0  0  0  0  0  0  0  0
  155.3150  214.4530  155.0480 N   0  0  0  0  0  1  0  0  0  0  0  0
  155.8430  214.1560  152.8080 O   0  0  0  0  0  0  0  0  0  0  0  0
  156.4580  212.0270  156.0300 S   0  0  0  0  0  0  0  0  0  0  0  0
  154.9160  209.6390  155.1660 C   0  0  0  0  0  3  0  0  0  0  0  0
  155.5430  210.6070  155.5180 C   0  0  0  0  0  0  0  0  0  0  0  0
  161.3260  206.0850  149.2020 C   0  0  2  0  0  3  0  0  0  0  0  0
  161.7700  203.3970  146.4260 C   0  0  0  0  0  2  0  0  0  0  0  0
  161.2440  202.5690  147.5740 C   0  0  0  0  0  0  0  0  0  0  0  0
  161.4190  204.6920  147.0680 C   0  0  2  0  0  0  0  0  0  0  0  0
  161.8870  204.8340  148.5130 C   0  0  2  0  0  3  0  0  0  0  0  0
  160.7680  203.8850  148.1530 C   0  0  2  0  0  3  0  0  0  0  0  0
  161.1030  201.2780  147.8550 C   0  0  0  0  0  2  0  0  0  0  0  0
  160.3130  205.5380  146.4530 C   0  0  0  0  0  2  0  0  0  0  0  0
  160.8680  206.6460  145.8150 O   0  0  0  0  0  1  0  0  0  0  0  0
  162.2370  207.2240  149.0820 N   0  0  0  0  0  2  0  0  0  0  0  0
  161.4980  208.3640  148.7270 N   0  0  0  0  0  2  0  0  0  0  0  0
  161.5860  210.7770  148.7170 C   0  0  1  0  0  3  0  0  0  0  0  0
  162.3880  209.5010  148.8710 C   0  0  1  0  0  3  0  0  0  0  0  0
  161.9910  210.3010  150.0950 C   0  0  0  0  0  2  0  0  0  0  0  0
  162.5120  211.8910  148.2770 C   0  0  0  0  0  2  0  0  0  0  0  0
  161.7970  212.7820  147.2820 C   0  0  0  0  0  2  0  0  0  0  0  0
  160.4650  213.1120  147.7900 C   0  0  0  0  0  0  0  0  0  0  0  0
  159.4110  213.3720  148.1930 N   0  0  0  0  0  0  0  0  0  0  0  0
  1  2  2  0  0  0  0
  1  3  1  0  0  0  0
  3  4  1  1  0  0  0
  3  5  1  0  0  0  0
  5  6  2  0  0  0  0
  7  6  1  0  0  0  0
  7  8  1  0  0  0  0
 10 14  1  0  0  0  0
 11  9  1  6  0  0  0
 12 10  1  0  0  0  0
 12 13  1  0  0  0  0
 13 16  1  1  0  0  0
 13 11  1  0  0  0  0
 14  8  1  6  0  0  0
 14 11  1  0  0  0  0
 15 12  2  0  0  0  0
 16 17  1  1  0  0  0
 16 20  1  0  0  0  0
 17 18  1  0  0  0  0
 19 17  2  0  0  0  0
 21 22  3  0  0  0  0
 22 20  1  0  0  0  0
 23 32  1  1  0  0  0
 23  1  1  0  0  0  0
 24 26  1  0  0  0  0
 24 25  1  0  0  0  0
 25 29  2  0  0  0  0
 26 30  1  6  0  0  0
 26 28  1  0  0  0  0
 26 27  1  0  0  0  0
 27 23  1  1  0  0  0
 28 25  1  6  0  0  0
 28 27  1  0  0  0  0
 31 30  1  0  0  0  0
 33 32  1  0  0  0  0
 34 37  1  6  0  0  0
 34 35  1  0  0  0  0
 34 36  1  0  0  0  0
 35 33  1  1  0  0  0
 35 36  1  0  0  0  0
 38 39  1  0  0  0  0
 38 37  1  0  0  0  0
 39 40  3  0  0  0  0
M  END
>  <MODEL>
1

>  <REMARK>
 VINA RESULT:      -5.6      0.000      0.000
  Name = 
  18 active torsions:
  status: ('A' for Active; 'I' for Inactive)
    1  A    between atoms: C_1  and  C_25
    2  A    between atoms: C_2  and  C_8
    3  A    between atoms: C_4  and  C_32
    4  A    between atoms: C_6  and  C_8
    5  A    between atoms: C_6  and  C_40
    6  A    between atoms: C_10  and  C_38
    7  A    between atoms: C_11  and  C_28
    8  A    between atoms: C_11  and  C_32
    9  A    between atoms: C_12  and  C_24
   10  A    between atoms: C_16  and  S_26
   11  A    between atoms: C_17  and  N_23
   12  A    between atoms: N_21  and  N_23
   13  A    between atoms: N_21  and  C_40
   14  A    between atoms: C_25  and  C_38
   15  A    between atoms: S_26  and  C_36
   16  A    between atoms: C_27  and  C_36
   17  A    between atoms: C_29  and  C_40
   18  A    between atoms: C_30  and  C_36
                            x       y       z     vdW  Elec       q    Type
                         _______ _______ _______ _____ _____    ______ ____

>  <TORSDO>
F 18

$$$$
=
 OpenBabel11072415153D

 40 43  0  0  1  0  0  0  0  0999 V2000
  161.1520  206.4410  151.2900 C   0  0  0  0  0  0  0  0  0  0  0  0
  160.8000  205.3320  151.6690 O   0  0  0  0  0  0  0  0  0  0  0  0
  161.4240  207.5280  152.2900 C   0  0  2  0  0  3  0  0  0  0  0  0
  161.4760  206.9410  153.6880 C   0  0  0  0  0  1  0  0  0  0  0  0
  160.3690  208.5960  152.2370 C   0  0  0  0  0  3  0  0  0  0  0  0
  160.5150  209.8070  152.7910 C   0  0  0  0  0  3  0  0  0  0  0  0
  161.7470  210.2300  153.5280 C   0  0  0  0  0  2  0  0  0  0  0  0
  161.4110  210.4880  154.9880 C   0  0  0  0  0  2  0  0  0  0  0  0
  159.5220  209.8420  157.0010 O   0  0  0  0  0  1  0  0  0  0  0  0
  160.3700  212.6140  155.7490 N   0  0  0  0  0  2  0  0  0  0  0  0
  159.0060  210.6500  155.9850 C   0  0  1  0  0  3  0  0  0  0  0  0
  159.2590  212.9050  156.5710 C   0  0  0  0  0  0  0  0  0  0  0  0
  158.2420  211.8190  156.6200 C   0  0  1  0  0  3  0  0  0  0  0  0
  160.1310  211.3060  155.1670 C   0  0  2  0  0  3  0  0  0  0  0  0
  159.1630  213.9830  157.2140 O   0  0  0  0  0  0  0  0  0  0  0  0
  157.0250  212.2030  155.7630 C   0  0  2  0  0  3  0  0  0  0  0  0
  155.8630  211.2970  156.0180 C   0  0  0  0  0  0  0  0  0  0  0  0
  155.1360  211.4130  157.2350 N   0  0  0  0  0  1  0  0  0  0  0  0
  155.5180  210.4400  155.1630 O   0  0  0  0  0  0  0  0  0  0  0  0
  157.4100  212.1980  153.9800 S   0  0  0  0  0  0  0  0  0  0  0  0
  155.5470  214.4530  153.4580 C   0  0  0  0  0  3  0  0  0  0  0  0
  156.3050  213.5400  153.6700 C   0  0  0  0  0  0  0  0  0  0  0  0
  161.4170  206.7020  149.8290 C   0  0  2  0  0  3  0  0  0  0  0  0
  161.8210  204.1340  146.9360 C   0  0  0  0  0  2  0  0  0  0  0  0
  161.2750  203.2650  148.0430 C   0  0  0  0  0  0  0  0  0  0  0  0
  161.4930  205.4050  147.6340 C   0  0  2  0  0  0  0  0  0  0  0  0
  161.9570  205.4730  149.0860 C   0  0  2  0  0  3  0  0  0  0  0  0
  160.8220  204.5630  148.6800 C   0  0  2  0  0  3  0  0  0  0  0  0
  161.1080  201.9650  148.2660 C   0  0  0  0  0  2  0  0  0  0  0  0
  160.4050  206.2980  147.0540 C   0  0  0  0  0  2  0  0  0  0  0  0
  160.5650  206.3970  145.6730 O   0  0  0  0  0  1  0  0  0  0  0  0
  162.2820  207.8680  149.6450 N   0  0  0  0  0  2  0  0  0  0  0  0
  161.6530  208.7700  148.7730 N   0  0  0  0  0  2  0  0  0  0  0  0
  161.6200  211.1460  148.3410 C   0  0  1  0  0  3  0  0  0  0  0  0
  162.4800  209.9620  148.7350 C   0  0  1  0  0  3  0  0  0  0  0  0
  162.0040  210.9400  149.7900 C   0  0  0  0  0  2  0  0  0  0  0  0
  162.5030  212.2160  147.7340 C   0  0  0  0  0  2  0  0  0  0  0  0
  161.7230  212.9820  146.6860 C   0  0  0  0  0  2  0  0  0  0  0  0
  160.4190  213.3660  147.2290 C   0  0  0  0  0  0  0  0  0  0  0  0
  159.3880  213.6690  147.6580 N   0  0  0  0  0  0  0  0  0  0  0  0
  1  2  2  0  0  0  0
  1  3  1  0  0  0  0
  3  4  1  1  0  0  0
  5  3  1  0  0  0  0
  5  6  2  0  0  0  0
  6  7  1  0  0  0  0
  7  8  1  0  0  0  0
 10 12  1  0  0  0  0
 11 13  1  0  0  0  0
 11  9  1  1  0  0  0
 12 13  1  0  0  0  0
 12 15  2  0  0  0  0
 13 16  1  6  0  0  0
 14  8  1  1  0  0  0
 14 10  1  0  0  0  0
 14 11  1  0  0  0  0
 16 20  1  6  0  0  0
 16 17  1  0  0  0  0
 17 18  1  0  0  0  0
 19 17  2  0  0  0  0
 21 22  3  0  0  0  0
 22 20  1  0  0  0  0
 23 32  1  1  0  0  0
 23  1  1  0  0  0  0
 24 26  1  0  0  0  0
 24 25  1  0  0  0  0
 25 29  2  0  0  0  0
 26 30  1  6  0  0  0
 26 28  1  0  0  0  0
 26 27  1  0  0  0  0
 27 23  1  1  0  0  0
 28 25  1  6  0  0  0
 28 27  1  0  0  0  0
 31 30  1  0  0  0  0
 33 32  1  0  0  0  0
 34 37  1  6  0  0  0
 34 35  1  0  0  0  0
 34 36  1  0  0  0  0
 35 33  1  1  0  0  0
 35 36  1  0  0  0  0
 38 39  1  0  0  0  0
 38 37  1  0  0  0  0
 39 40  3  0  0  0  0
M  END
>  <MODEL>
2

>  <REMARK>
 VINA RESULT:      -5.5      1.782      2.277
  Name = 
  18 active torsions:
  status: ('A' for Active; 'I' for Inactive)
    1  A    between atoms: C_1  and  C_25
    2  A    between atoms: C_2  and  C_8
    3  A    between atoms: C_4  and  C_32
    4  A    between atoms: C_6  and  C_8
    5  A    between atoms: C_6  and  C_40
    6  A    between atoms: C_10  and  C_38
    7  A    between atoms: C_11  and  C_28
    8  A    between atoms: C_11  and  C_32
    9  A    between atoms: C_12  and  C_24
   10  A    between atoms: C_16  and  S_26
   11  A    between atoms: C_17  and  N_23
   12  A    between atoms: N_21  and  N_23
   13  A    between atoms: N_21  and  C_40
   14  A    between atoms: C_25  and  C_38
   15  A    between atoms: S_26  and  C_36
   16  A    between atoms: C_27  and  C_36
   17  A    between atoms: C_29  and  C_40
   18  A    between atoms: C_30  and  C_36
                            x       y       z     vdW  Elec       q    Type
                         _______ _______ _______ _____ _____    ______ ____

>  <TORSDO>
F 18

$$$$
=
 OpenBabel11072415153D

 40 43  0  0  1  0  0  0  0  0999 V2000
  160.9360  205.7370  150.2380 C   0  0  0  0  0  0  0  0  0  0  0  0
  160.1470  204.8110  150.3640 O   0  0  0  0  0  0  0  0  0  0  0  0
  161.5690  206.3590  151.4500 C   0  0  2  0  0  3  0  0  0  0  0  0
  161.5680  205.3680  152.5980 C   0  0  0  0  0  1  0  0  0  0  0  0
  160.8410  207.6050  151.8670 C   0  0  0  0  0  3  0  0  0  0  0  0
  160.8400  208.0760  153.1220 C   0  0  0  0  0  3  0  0  0  0  0  0
  161.5620  207.4080  154.2500 C   0  0  0  0  0  2  0  0  0  0  0  0
  161.4780  208.2700  155.4990 C   0  0  0  0  0  2  0  0  0  0  0  0
  158.9140  209.2120  156.2590 O   0  0  0  0  0  1  0  0  0  0  0  0
  161.6980  210.6860  156.0440 N   0  0  0  0  0  2  0  0  0  0  0  0
  159.5300  209.9910  155.2760 C   0  0  1  0  0  3  0  0  0  0  0  0
  160.7570  211.7100  156.2930 C   0  0  0  0  0  0  0  0  0  0  0  0
  159.4250  211.4680  155.6750 C   0  0  1  0  0  3  0  0  0  0  0  0
  161.0400  209.7050  155.2020 C   0  0  2  0  0  3  0  0  0  0  0  0
  161.0320  212.7190  156.9930 O   0  0  0  0  0  0  0  0  0  0  0  0
  159.2550  212.3570  154.4320 C   0  0  2  0  0  3  0  0  0  0  0  0
  158.1880  213.3860  154.6300 C   0  0  0  0  0  0  0  0  0  0  0  0
  158.4030  214.4520  155.5460 N   0  0  0  0  0  1  0  0  0  0  0  0
  157.1070  213.3200  153.9890 O   0  0  0  0  0  0  0  0  0  0  0  0
  158.8790  211.3820  152.9360 S   0  0  0  0  0  0  0  0  0  0  0  0
  159.9920  213.4840  151.1560 C   0  0  0  0  0  3  0  0  0  0  0  0
  159.5400  212.6300  151.8770 C   0  0  0  0  0  0  0  0  0  0  0  0
  161.3630  206.1970  148.8670 C   0  0  2  0  0  3  0  0  0  0  0  0
  161.9710  204.0400  145.6890 C   0  0  0  0  0  2  0  0  0  0  0  0
  161.3230  203.0410  146.6180 C   0  0  0  0  0  0  0  0  0  0  0  0
  161.6030  205.2110  146.5270 C   0  0  2  0  0  0  0  0  0  0  0  0
  161.9460  205.0680  148.0070 C   0  0  2  0  0  3  0  0  0  0  0  0
  160.8360  204.2510  147.3890 C   0  0  2  0  0  3  0  0  0  0  0  0
  161.1190  201.7280  146.6440 C   0  0  0  0  0  2  0  0  0  0  0  0
  160.5810  206.2030  145.9900 C   0  0  0  0  0  2  0  0  0  0  0  0
  160.5540  206.1420  144.5980 O   0  0  0  0  0  1  0  0  0  0  0  0
  162.2740  207.3400  148.9490 N   0  0  0  0  0  2  0  0  0  0  0  0
  161.5830  208.5030  148.5730 N   0  0  0  0  0  2  0  0  0  0  0  0
  161.7270  210.9130  148.5800 C   0  0  1  0  0  3  0  0  0  0  0  0
  162.4800  209.6180  148.8080 C   0  0  1  0  0  3  0  0  0  0  0  0
  161.9820  210.4260  149.9890 C   0  0  0  0  0  2  0  0  0  0  0  0
  162.7180  212.0060  148.2390 C   0  0  0  0  0  2  0  0  0  0  0  0
  162.1840  212.8320  147.0860 C   0  0  0  0  0  2  0  0  0  0  0  0
  160.7720  213.1380  147.3160 C   0  0  0  0  0  0  0  0  0  0  0  0
  159.6550  213.3800  147.4980 N   0  0  0  0  0  0  0  0  0  0  0  0
  1  2  2  0  0  0  0
  1  3  1  0  0  0  0
  3  5  1  0  0  0  0
  3  4  1  1  0  0  0
  5  6  2  0  0  0  0
  6  7  1  0  0  0  0
  7  8  1  0  0  0  0
 10 12  1  0  0  0  0
 11 13  1  0  0  0  0
 11  9  1  1  0  0  0
 12 15  2  0  0  0  0
 13 16  1  6  0  0  0
 13 12  1  0  0  0  0
 14 11  1  0  0  0  0
 14  8  1  1  0  0  0
 14 10  1  0  0  0  0
 16 20  1  6  0  0  0
 16 17  1  0  0  0  0
 17 18  1  0  0  0  0
 19 17  2  0  0  0  0
 21 22  3  0  0  0  0
 22 20  1  0  0  0  0
 23 32  1  1  0  0  0
 23  1  1  0  0  0  0
 24 26  1  0  0  0  0
 24 25  1  0  0  0  0
 25 29  2  0  0  0  0
 26 30  1  6  0  0  0
 26 28  1  0  0  0  0
 26 27  1  0  0  0  0
 27 23  1  1  0  0  0
 28 25  1  6  0  0  0
 28 27  1  0  0  0  0
 31 30  1  0  0  0  0
 33 32  1  0  0  0  0
 34 37  1  1  0  0  0
 34 35  1  0  0  0  0
 34 36  1  0  0  0  0
 35 33  1  6  0  0  0
 35 36  1  0  0  0  0
 38 39  1  0  0  0  0
 38 37  1  0  0  0  0
 39 40  3  0  0  0  0
M  END
>  <MODEL>
3

>  <REMARK>
 VINA RESULT:      -5.1      1.750      2.513
  Name = 
  18 active torsions:
  status: ('A' for Active; 'I' for Inactive)
    1  A    between atoms: C_1  and  C_25
    2  A    between atoms: C_2  and  C_8
    3  A    between atoms: C_4  and  C_32
    4  A    between atoms: C_6  and  C_8
    5  A    between atoms: C_6  and  C_40
    6  A    between atoms: C_10  and  C_38
    7  A    between atoms: C_11  and  C_28
    8  A    between atoms: C_11  and  C_32
    9  A    between atoms: C_12  and  C_24
   10  A    between atoms: C_16  and  S_26
   11  A    between atoms: C_17  and  N_23
   12  A    between atoms: N_21  and  N_23
   13  A    between atoms: N_21  and  C_40
   14  A    between atoms: C_25  and  C_38
   15  A    between atoms: S_26  and  C_36
   16  A    between atoms: C_27  and  C_36
   17  A    between atoms: C_29  and  C_40
   18  A    between atoms: C_30  and  C_36
                            x       y       z     vdW  Elec       q    Type
                         _______ _______ _______ _____ _____    ______ ____

>  <TORSDO>
F 18

$$$$
=
 OpenBabel11072415153D

 40 43  0  0  1  0  0  0  0  0999 V2000
  161.1840  205.7330  152.1310 C   0  0  0  0  0  0  0  0  0  0  0  0
  160.9210  204.6170  152.5610 O   0  0  0  0  0  0  0  0  0  0  0  0
  161.4300  206.8690  153.0820 C   0  0  2  0  0  3  0  0  0  0  0  0
  161.2850  206.3850  154.5120 C   0  0  0  0  0  1  0  0  0  0  0  0
  160.4710  208.0000  152.8410 C   0  0  0  0  0  3  0  0  0  0  0  0
  160.6570  209.2400  153.3140 C   0  0  0  0  0  3  0  0  0  0  0  0
  161.8400  209.6340  154.1410 C   0  0  0  0  0  2  0  0  0  0  0  0
  161.3760  210.1300  155.5020 C   0  0  0  0  0  2  0  0  0  0  0  0
  159.1490  210.1820  157.2550 O   0  0  0  0  0  1  0  0  0  0  0  0
  160.7820  212.5120  155.8880 N   0  0  0  0  0  2  0  0  0  0  0  0
  158.9720  210.9460  156.0990 C   0  0  1  0  0  3  0  0  0  0  0  0
  159.6770  213.1450  156.4990 C   0  0  0  0  0  0  0  0  0  0  0  0
  158.4340  212.3270  156.4960 C   0  0  1  0  0  3  0  0  0  0  0  0
  160.3160  211.2260  155.4040 C   0  0  2  0  0  3  0  0  0  0  0  0
  159.7590  214.2910  157.0140 O   0  0  0  0  0  0  0  0  0  0  0  0
  157.4610  212.8580  155.4300 C   0  0  2  0  0  3  0  0  0  0  0  0
  156.0940  213.0830  155.9940 C   0  0  0  0  0  0  0  0  0  0  0  0
  155.1010  213.7160  155.1960 N   0  0  0  0  0  1  0  0  0  0  0  0
  155.8140  212.7120  157.1640 O   0  0  0  0  0  0  0  0  0  0  0  0
  157.3400  211.7410  153.9920 S   0  0  0  0  0  0  0  0  0  0  0  0
  158.9950  213.5450  152.3090 C   0  0  0  0  0  3  0  0  0  0  0  0
  158.3240  212.8150  152.9930 C   0  0  0  0  0  0  0  0  0  0  0  0
  161.3660  205.9590  150.6510 C   0  0  2  0  0  3  0  0  0  0  0  0
  161.6250  209.2110  148.5340 C   0  0  0  0  0  2  0  0  0  0  0  0
  162.1190  209.6810  149.8810 C   0  0  0  0  0  0  0  0  0  0  0  0
  161.7170  207.7700  148.8910 C   0  0  2  0  0  0  0  0  0  0  0  0
  161.0670  207.4000  150.2210 C   0  0  2  0  0  3  0  0  0  0  0  0
  162.3390  208.2130  150.1830 C   0  0  2  0  0  3  0  0  0  0  0  0
  162.4020  210.8430  150.4610 C   0  0  0  0  0  2  0  0  0  0  0  0
  162.7620  206.9100  148.1950 C   0  0  0  0  0  2  0  0  0  0  0  0
  162.2010  206.3050  147.0720 O   0  0  0  0  0  1  0  0  0  0  0  0
  160.5980  204.9890  149.8680 N   0  0  0  0  0  2  0  0  0  0  0  0
  161.4390  203.9250  149.5070 N   0  0  0  0  0  2  0  0  0  0  0  0
  161.4420  201.5840  148.9140 C   0  0  1  0  0  3  0  0  0  0  0  0
  160.5800  202.7950  149.2060 C   0  0  1  0  0  3  0  0  0  0  0  0
  160.7670  201.7240  150.2610 C   0  0  0  0  0  2  0  0  0  0  0  0
  160.6560  200.6150  148.0560 C   0  0  0  0  0  2  0  0  0  0  0  0
  161.2980  200.5150  146.6870 C   0  0  0  0  0  2  0  0  0  0  0  0
  160.5570  201.3440  145.7370 C   0  0  0  0  0  0  0  0  0  0  0  0
  159.9700  202.0000  144.9860 N   0  0  0  0  0  0  0  0  0  0  0  0
  1  2  2  0  0  0  0
  1  3  1  0  0  0  0
  3  4  1  1  0  0  0
  5  3  1  0  0  0  0
  5  6  2  0  0  0  0
  6  7  1  0  0  0  0
  7  8  1  0  0  0  0
 10 12  1  0  0  0  0
 11 13  1  0  0  0  0
 11  9  1  1  0  0  0
 12 15  2  0  0  0  0
 13 16  1  6  0  0  0
 13 12  1  0  0  0  0
 14  8  1  1  0  0  0
 14 10  1  0  0  0  0
 14 11  1  0  0  0  0
 16 20  1  6  0  0  0
 16 17  1  0  0  0  0
 17 19  2  0  0  0  0
 18 17  1  0  0  0  0
 21 22  3  0  0  0  0
 22 20  1  0  0  0  0
 23 32  1  6  0  0  0
 23  1  1  0  0  0  0
 24 26  1  0  0  0  0
 24 25  1  0  0  0  0
 25 29  2  0  0  0  0
 26 30  1  6  0  0  0
 26 28  1  0  0  0  0
 26 27  1  0  0  0  0
 27 23  1  1  0  0  0
 28 25  1  6  0  0  0
 28 27  1  0  0  0  0
 31 30  1  0  0  0  0
 33 32  1  0  0  0  0
 34 37  1  6  0  0  0
 34 35  1  0  0  0  0
 34 36  1  0  0  0  0
 35 33  1  1  0  0  0
 35 36  1  0  0  0  0
 38 37  1  0  0  0  0
 39 38  1  0  0  0  0
 40 39  3  0  0  0  0
M  END
>  <MODEL>
4

>  <REMARK>
 VINA RESULT:      -4.7      2.691      5.619
  Name = 
  18 active torsions:
  status: ('A' for Active; 'I' for Inactive)
    1  A    between atoms: C_1  and  C_25
    2  A    between atoms: C_2  and  C_8
    3  A    between atoms: C_4  and  C_32
    4  A    between atoms: C_6  and  C_8
    5  A    between atoms: C_6  and  C_40
    6  A    between atoms: C_10  and  C_38
    7  A    between atoms: C_11  and  C_28
    8  A    between atoms: C_11  and  C_32
    9  A    between atoms: C_12  and  C_24
   10  A    between atoms: C_16  and  S_26
   11  A    between atoms: C_17  and  N_23
   12  A    between atoms: N_21  and  N_23
   13  A    between atoms: N_21  and  C_40
   14  A    between atoms: C_25  and  C_38
   15  A    between atoms: S_26  and  C_36
   16  A    between atoms: C_27  and  C_36
   17  A    between atoms: C_29  and  C_40
   18  A    between atoms: C_30  and  C_36
                            x       y       z     vdW  Elec       q    Type
                         _______ _______ _______ _____ _____    ______ ____

>  <TORSDO>
F 18

$$$$
=
 OpenBabel11072415153D

 40 43  0  0  1  0  0  0  0  0999 V2000
  161.5590  209.9960  152.7320 C   0  0  0  0  0  0  0  0  0  0  0  0
  162.7030  210.2430  153.0910 O   0  0  0  0  0  0  0  0  0  0  0  0
  161.3010  208.9110  151.7270 C   0  0  2  0  0  3  0  0  0  0  0  0
  161.3990  207.5540  152.3970 C   0  0  0  0  0  1  0  0  0  0  0  0
  162.2810  208.9760  150.5900 C   0  0  0  0  0  3  0  0  0  0  0  0
  162.0570  208.4260  149.3880 C   0  0  0  0  0  3  0  0  0  0  0  0
  160.8040  207.6820  149.0470 C   0  0  0  0  0  2  0  0  0  0  0  0
  161.0600  206.7530  147.8700 C   0  0  0  0  0  2  0  0  0  0  0  0
  162.9840  204.7220  147.4110 O   0  0  0  0  0  1  0  0  0  0  0  0
  160.7440  205.0130  149.6170 N   0  0  0  0  0  2  0  0  0  0  0  0
  161.6790  204.2400  147.5430 C   0  0  1  0  0  3  0  0  0  0  0  0
  161.2620  203.7110  149.7880 C   0  0  0  0  0  0  0  0  0  0  0  0
  161.6830  203.0570  148.5190 C   0  0  1  0  0  3  0  0  0  0  0  0
  160.7600  205.2890  148.1930 C   0  0  2  0  0  3  0  0  0  0  0  0
  161.3700  203.1740  150.9210 O   0  0  0  0  0  0  0  0  0  0  0  0
  160.6420  202.0050  148.1020 C   0  0  2  0  0  3  0  0  0  0  0  0
  160.1310  201.2370  149.2790 C   0  0  0  0  0  0  0  0  0  0  0  0
  158.7430  201.2640  149.5870 N   0  0  0  0  0  1  0  0  0  0  0  0
  160.9170  200.5630  149.9950 O   0  0  0  0  0  0  0  0  0  0  0  0
  161.3010  200.8380  146.8640 S   0  0  0  0  0  0  0  0  0  0  0  0
  159.7500  202.1140  144.6750 C   0  0  0  0  0  3  0  0  0  0  0  0
  160.3780  201.5940  145.5630 C   0  0  0  0  0  0  0  0  0  0  0  0
  160.3880  210.7040  153.3670 C   0  0  2  0  0  3  0  0  0  0  0  0
  159.6190  209.9000  157.0940 C   0  0  0  0  0  2  0  0  0  0  0  0
  160.4220  208.6900  156.6780 C   0  0  0  0  0  0  0  0  0  0  0  0
  159.9870  210.6840  155.8850 C   0  0  2  0  0  0  0  0  0  0  0  0
  159.8020  209.9450  154.5640 C   0  0  2  0  0  3  0  0  0  0  0  0
  160.8990  209.5480  155.5240 C   0  0  2  0  0  3  0  0  0  0  0  0
  160.7160  207.4980  157.1860 C   0  0  0  0  0  2  0  0  0  0  0  0
  160.8820  211.9050  156.0510 C   0  0  0  0  0  2  0  0  0  0  0  0
  160.1250  213.0660  155.9080 O   0  0  0  0  0  1  0  0  0  0  0  0
  159.3610  211.0280  152.3760 N   0  0  0  0  0  2  0  0  0  0  0  0
  158.4850  211.9800  152.9200 N   0  0  0  0  0  2  0  0  0  0  0  0
  158.2690  213.3020  150.9110 C   0  0  1  0  0  3  0  0  0  0  0  0
  158.8270  213.2550  152.3190 C   0  0  1  0  0  3  0  0  0  0  0  0
  157.5590  214.0320  152.0300 C   0  0  0  0  0  2  0  0  0  0  0  0
  159.0730  214.2920  150.0950 C   0  0  0  0  0  2  0  0  0  0  0  0
  159.4090  213.6850  148.7480 C   0  0  0  0  0  2  0  0  0  0  0  0
  158.1760  213.2790  148.0740 C   0  0  0  0  0  0  0  0  0  0  0  0
  157.2010  212.9570  147.5400 N   0  0  0  0  0  0  0  0  0  0  0  0
  1  2  2  0  0  0  0
  1 23  1  0  0  0  0
  3  4  1  1  0  0  0
  3  1  1  0  0  0  0
  5  3  1  0  0  0  0
  6  5  2  0  0  0  0
  7  6  1  0  0  0  0
  8  7  1  0  0  0  0
 10 12  1  0  0  0  0
 11  9  1  1  0  0  0
 11 14  1  0  0  0  0
 11 13  1  0  0  0  0
 12 15  2  0  0  0  0
 13 16  1  6  0  0  0
 13 12  1  0  0  0  0
 14  8  1  1  0  0  0
 14 10  1  0  0  0  0
 16 20  1  6  0  0  0
 16 17  1  0  0  0  0
 17 18  1  0  0  0  0
 17 19  2  0  0  0  0
 21 22  3  0  0  0  0
 22 20  1  0  0  0  0
 23 32  1  6  0  0  0
 25 24  1  0  0  0  0
 25 29  2  0  0  0  0
 26 30  1  1  0  0  0
 26 24  1  0  0  0  0
 27 23  1  6  0  0  0
 27 28  1  0  0  0  0
 27 26  1  0  0  0  0
 28 26  1  0  0  0  0
 28 25  1  1  0  0  0
 31 30  1  0  0  0  0
 32 33  1  0  0  0  0
 34 37  1  6  0  0  0
 34 36  1  0  0  0  0
 34 35  1  0  0  0  0
 35 33  1  1  0  0  0
 36 35  1  0  0  0  0
 38 37  1  0  0  0  0
 39 38  1  0  0  0  0
 40 39  3  0  0  0  0
M  END
>  <MODEL>
5

>  <REMARK>
 VINA RESULT:      -4.6      3.454      9.359
  Name = 
  18 active torsions:
  status: ('A' for Active; 'I' for Inactive)
    1  A    between atoms: C_1  and  C_25
    2  A    between atoms: C_2  and  C_8
    3  A    between atoms: C_4  and  C_32
    4  A    between atoms: C_6  and  C_8
    5  A    between atoms: C_6  and  C_40
    6  A    between atoms: C_10  and  C_38
    7  A    between atoms: C_11  and  C_28
    8  A    between atoms: C_11  and  C_32
    9  A    between atoms: C_12  and  C_24
   10  A    between atoms: C_16  and  S_26
   11  A    between atoms: C_17  and  N_23
   12  A    between atoms: N_21  and  N_23
   13  A    between atoms: N_21  and  C_40
   14  A    between atoms: C_25  and  C_38
   15  A    between atoms: S_26  and  C_36
   16  A    between atoms: C_27  and  C_36
   17  A    between atoms: C_29  and  C_40
   18  A    between atoms: C_30  and  C_36
                            x       y       z     vdW  Elec       q    Type
                         _______ _______ _______ _____ _____    ______ ____

>  <TORSDO>
F 18

$$$$
=
 OpenBabel11072415153D

 40 43  0  0  1  0  0  0  0  0999 V2000
  162.0150  207.7070  148.8140 C   0  0  0  0  0  0  0  0  0  0  0  0
  162.6510  207.8970  147.7850 O   0  0  0  0  0  0  0  0  0  0  0  0
  161.6180  208.8680  149.6800 C   0  0  2  0  0  3  0  0  0  0  0  0
  161.6830  210.1550  148.8790 C   0  0  0  0  0  1  0  0  0  0  0  0
  162.5110  208.9850  150.8820 C   0  0  0  0  0  3  0  0  0  0  0  0
  162.0830  209.3940  152.0840 C   0  0  0  0  0  3  0  0  0  0  0  0
  160.6660  209.7860  152.3600 C   0  0  0  0  0  2  0  0  0  0  0  0
  160.4240  209.8210  153.8620 C   0  0  0  0  0  2  0  0  0  0  0  0
  159.2870  209.8800  156.4580 O   0  0  0  0  0  1  0  0  0  0  0  0
  160.1360  212.2060  154.5000 N   0  0  0  0  0  2  0  0  0  0  0  0
  158.6040  210.6680  155.5280 C   0  0  1  0  0  3  0  0  0  0  0  0
  159.4640  212.8480  155.5630 C   0  0  0  0  0  0  0  0  0  0  0  0
  158.3480  212.0500  156.1410 C   0  0  1  0  0  3  0  0  0  0  0  0
  159.4680  210.9370  154.2830 C   0  0  2  0  0  3  0  0  0  0  0  0
  159.8050  213.9830  155.9870 O   0  0  0  0  0  0  0  0  0  0  0  0
  157.0000  212.6150  155.6630 C   0  0  2  0  0  3  0  0  0  0  0  0
  155.8540  211.7710  156.1230 C   0  0  0  0  0  0  0  0  0  0  0  0
  155.1000  212.1700  157.2610 N   0  0  0  0  0  1  0  0  0  0  0  0
  155.5480  210.7160  155.5080 O   0  0  0  0  0  0  0  0  0  0  0  0
  156.9300  212.7860  153.8480 S   0  0  0  0  0  0  0  0  0  0  0  0
  154.4700  214.4460  153.9860 C   0  0  0  0  0  3  0  0  0  0  0  0
  155.4690  213.7740  153.9320 C   0  0  0  0  0  0  0  0  0  0  0  0
  161.5360  206.3230  149.1720 C   0  0  2  0  0  3  0  0  0  0  0  0
  161.4200  204.3040  152.4940 C   0  0  0  0  0  2  0  0  0  0  0  0
  161.1140  205.7030  152.9750 C   0  0  0  0  0  0  0  0  0  0  0  0
  161.2100  204.6410  151.0620 C   0  0  2  0  0  0  0  0  0  0  0  0
  161.9440  205.8910  150.5870 C   0  0  2  0  0  3  0  0  0  0  0  0
  160.7690  205.9970  151.5290 C   0  0  2  0  0  3  0  0  0  0  0  0
  161.0160  206.3290  154.1420 C   0  0  0  0  0  2  0  0  0  0  0  0
  160.0150  204.0380  150.3360 C   0  0  0  0  0  2  0  0  0  0  0  0
  160.3350  202.7590  149.8860 O   0  0  0  0  0  1  0  0  0  0  0  0
  161.9470  205.3410  148.1670 N   0  0  0  0  0  2  0  0  0  0  0  0
  161.4120  205.7110  146.9230 N   0  0  0  0  0  2  0  0  0  0  0  0
  160.5300  203.7700  145.7880 C   0  0  1  0  0  3  0  0  0  0  0  0
  161.7470  204.6510  145.9910 C   0  0  1  0  0  3  0  0  0  0  0  0
  160.9060  204.7950  144.7390 C   0  0  0  0  0  2  0  0  0  0  0  0
  160.9850  202.3980  145.3360 C   0  0  0  0  0  2  0  0  0  0  0  0
  160.2210  201.3350  146.0990 C   0  0  0  0  0  2  0  0  0  0  0  0
  161.0880  200.7480  147.1210 C   0  0  0  0  0  0  0  0  0  0  0  0
  161.7740  200.2850  147.9300 N   0  0  0  0  0  0  0  0  0  0  0  0
  1 23  1  0  0  0  0
  1  3  1  0  0  0  0
  2  1  2  0  0  0  0
  3  4  1  6  0  0  0
  3  5  1  0  0  0  0
  5  6  2  0  0  0  0
  6  7  1  0  0  0  0
  7  8  1  0  0  0  0
 10 12  1  0  0  0  0
 11 13  1  0  0  0  0
 11  9  1  1  0  0  0
 12 15  2  0  0  0  0
 12 13  1  0  0  0  0
 13 16  1  6  0  0  0
 14  8  1  1  0  0  0
 14 10  1  0  0  0  0
 14 11  1  0  0  0  0
 16 20  1  6  0  0  0
 16 17  1  0  0  0  0
 17 18  1  0  0  0  0
 19 17  2  0  0  0  0
 20 22  1  0  0  0  0
 22 21  3  0  0  0  0
 23 32  1  6  0  0  0
 24 25  1  0  0  0  0
 25 29  2  0  0  0  0
 26 30  1  6  0  0  0
 26 28  1  0  0  0  0
 26 24  1  0  0  0  0
 27 23  1  6  0  0  0
 27 26  1  0  0  0  0
 27 28  1  0  0  0  0
 28 25  1  1  0  0  0
 31 30  1  0  0  0  0
 33 32  1  0  0  0  0
 34 37  1  6  0  0  0
 34 35  1  0  0  0  0
 35 33  1  1  0  0  0
 36 34  1  0  0  0  0
 36 35  1  0  0  0  0
 37 38  1  0  0  0  0
 38 39  1  0  0  0  0
 39 40  3  0  0  0  0
M  END
>  <MODEL>
6

>  <REMARK>
 VINA RESULT:      -4.6      2.303      5.459
  Name = 
  18 active torsions:
  status: ('A' for Active; 'I' for Inactive)
    1  A    between atoms: C_1  and  C_25
    2  A    between atoms: C_2  and  C_8
    3  A    between atoms: C_4  and  C_32
    4  A    between atoms: C_6  and  C_8
    5  A    between atoms: C_6  and  C_40
    6  A    between atoms: C_10  and  C_38
    7  A    between atoms: C_11  and  C_28
    8  A    between atoms: C_11  and  C_32
    9  A    between atoms: C_12  and  C_24
   10  A    between atoms: C_16  and  S_26
   11  A    between atoms: C_17  and  N_23
   12  A    between atoms: N_21  and  N_23
   13  A    between atoms: N_21  and  C_40
   14  A    between atoms: C_25  and  C_38
   15  A    between atoms: S_26  and  C_36
   16  A    between atoms: C_27  and  C_36
   17  A    between atoms: C_29  and  C_40
   18  A    between atoms: C_30  and  C_36
                            x       y       z     vdW  Elec       q    Type
                         _______ _______ _______ _____ _____    ______ ____

>  <TORSDO>
F 18

$$$$
=
 OpenBabel11072415153D

 40 43  0  0  1  0  0  0  0  0999 V2000
  161.4570  209.9000  152.3090 C   0  0  0  0  0  0  0  0  0  0  0  0
  162.5920  210.3420  152.1980 O   0  0  0  0  0  0  0  0  0  0  0  0
  161.1250  208.5340  151.7820 C   0  0  2  0  0  3  0  0  0  0  0  0
  160.4920  207.6980  152.8780 C   0  0  0  0  0  1  0  0  0  0  0  0
  162.3510  207.8340  151.2680 C   0  0  0  0  0  3  0  0  0  0  0  0
  162.7480  207.8820  149.9900 C   0  0  0  0  0  3  0  0  0  0  0  0
  162.0110  208.6380  148.9290 C   0  0  0  0  0  2  0  0  0  0  0  0
  161.9940  207.8320  147.6390 C   0  0  0  0  0  2  0  0  0  0  0  0
  159.6450  206.2640  147.3950 O   0  0  0  0  0  1  0  0  0  0  0  0
  162.6730  205.5870  146.8170 N   0  0  0  0  0  2  0  0  0  0  0  0
  160.6600  205.6440  148.1270 C   0  0  1  0  0  3  0  0  0  0  0  0
  161.9900  204.3580  146.6870 C   0  0  0  0  0  0  0  0  0  0  0  0
  160.8350  204.2090  147.6140 C   0  0  1  0  0  3  0  0  0  0  0  0
  162.0190  206.3230  147.8820 C   0  0  2  0  0  3  0  0  0  0  0  0
  162.3280  203.4860  145.8450 O   0  0  0  0  0  0  0  0  0  0  0  0
  161.2080  203.2620  148.7670 C   0  0  2  0  0  3  0  0  0  0  0  0
  160.5710  201.9190  148.6050 C   0  0  0  0  0  0  0  0  0  0  0  0
  161.2980  200.8670  147.9820 N   0  0  0  0  0  1  0  0  0  0  0  0
  159.4020  201.7090  149.0230 O   0  0  0  0  0  0  0  0  0  0  0  0
  160.7560  203.9490  150.3950 S   0  0  0  0  0  0  0  0  0  0  0  0
  162.1390  201.7460  151.8300 C   0  0  0  0  0  3  0  0  0  0  0  0
  161.5760  202.6390  151.2490 C   0  0  0  0  0  0  0  0  0  0  0  0
  160.4050  210.6740  153.0650 C   0  0  2  0  0  3  0  0  0  0  0  0
  159.5880  210.1480  156.8310 C   0  0  0  0  0  2  0  0  0  0  0  0
  160.6400  209.0900  156.5940 C   0  0  0  0  0  0  0  0  0  0  0  0
  159.8640  210.8520  155.5500 C   0  0  2  0  0  0  0  0  0  0  0  0
  159.9110  209.9480  154.3230 C   0  0  2  0  0  3  0  0  0  0  0  0
  161.0040  209.8940  155.3630 C   0  0  2  0  0  3  0  0  0  0  0  0
  161.1350  208.0480  157.2530 C   0  0  0  0  0  2  0  0  0  0  0  0
  160.4860  212.2400  155.5990 C   0  0  0  0  0  2  0  0  0  0  0  0
  159.4820  213.2060  155.5730 O   0  0  0  0  0  1  0  0  0  0  0  0
  159.2960  211.0560  152.1890 N   0  0  0  0  0  2  0  0  0  0  0  0
  158.9750  212.4030  152.4210 N   0  0  0  0  0  2  0  0  0  0  0  0
  159.7400  213.1120  150.2430 C   0  0  1  0  0  3  0  0  0  0  0  0
  159.9790  213.1960  151.7370 C   0  0  1  0  0  3  0  0  0  0  0  0
  159.3070  214.3430  151.0100 C   0  0  0  0  0  2  0  0  0  0  0  0
  161.0380  213.4020  149.5190 C   0  0  0  0  0  2  0  0  0  0  0  0
  161.1540  212.4990  148.3070 C   0  0  0  0  0  2  0  0  0  0  0  0
  162.5360  212.5000  147.8270 C   0  0  0  0  0  0  0  0  0  0  0  0
  163.6290  212.5010  147.4480 N   0  0  0  0  0  0  0  0  0  0  0  0
  1 23  1  0  0  0  0
  2  1  2  0  0  0  0
  3  1  1  0  0  0  0
  3  4  1  1  0  0  0
  5  3  1  0  0  0  0
  6  5  2  0  0  0  0
  7  6  1  0  0  0  0
  8  7  1  0  0  0  0
 10 14  1  0  0  0  0
 11  9  1  6  0  0  0
 12 10  1  0  0  0  0
 12 13  1  0  0  0  0
 13 11  1  0  0  0  0
 13 16  1  1  0  0  0
 14  8  1  6  0  0  0
 14 11  1  0  0  0  0
 15 12  2  0  0  0  0
 16 17  1  6  0  0  0
 16 20  1  0  0  0  0
 17 19  2  0  0  0  0
 18 17  1  0  0  0  0
 20 22  1  0  0  0  0
 22 21  3  0  0  0  0
 23 32  1  6  0  0  0
 25 24  1  0  0  0  0
 25 29  2  0  0  0  0
 26 30  1  6  0  0  0
 26 24  1  0  0  0  0
 27 23  1  6  0  0  0
 27 28  1  0  0  0  0
 27 26  1  0  0  0  0
 28 26  1  0  0  0  0
 28 25  1  1  0  0  0
 31 30  1  0  0  0  0
 32 33  1  0  0  0  0
 34 37  1  6  0  0  0
 34 36  1  0  0  0  0
 34 35  1  0  0  0  0
 35 33  1  1  0  0  0
 36 35  1  0  0  0  0
 38 37  1  0  0  0  0
 39 38  1  0  0  0  0
 40 39  3  0  0  0  0
M  END
>  <MODEL>
7

>  <REMARK>
 VINA RESULT:      -4.3      3.047      8.887
  Name = 
  18 active torsions:
  status: ('A' for Active; 'I' for Inactive)
    1  A    between atoms: C_1  and  C_25
    2  A    between atoms: C_2  and  C_8
    3  A    between atoms: C_4  and  C_32
    4  A    between atoms: C_6  and  C_8
    5  A    between atoms: C_6  and  C_40
    6  A    between atoms: C_10  and  C_38
    7  A    between atoms: C_11  and  C_28
    8  A    between atoms: C_11  and  C_32
    9  A    between atoms: C_12  and  C_24
   10  A    between atoms: C_16  and  S_26
   11  A    between atoms: C_17  and  N_23
   12  A    between atoms: N_21  and  N_23
   13  A    between atoms: N_21  and  C_40
   14  A    between atoms: C_25  and  C_38
   15  A    between atoms: S_26  and  C_36
   16  A    between atoms: C_27  and  C_36
   17  A    between atoms: C_29  and  C_40
   18  A    between atoms: C_30  and  C_36
                            x       y       z     vdW  Elec       q    Type
                         _______ _______ _______ _____ _____    ______ ____

>  <TORSDO>
F 18

$$$$
=
 OpenBabel11072415153D

 40 43  0  0  1  0  0  0  0  0999 V2000
  162.0960  205.2590  147.8690 C   0  0  0  0  0  0  0  0  0  0  0  0
  163.0980  205.1390  147.1760 O   0  0  0  0  0  0  0  0  0  0  0  0
  161.3210  206.5450  147.8580 C   0  0  2  0  0  3  0  0  0  0  0  0
  160.3980  206.5810  146.6560 C   0  0  0  0  0  1  0  0  0  0  0  0
  162.2380  207.7350  147.8180 C   0  0  0  0  0  3  0  0  0  0  0  0
  162.3180  208.6400  148.8030 C   0  0  0  0  0  3  0  0  0  0  0  0
  161.4980  208.5670  150.0530 C   0  0  0  0  0  2  0  0  0  0  0  0
  162.3500  208.9570  151.2510 C   0  0  0  0  0  2  0  0  0  0  0  0
  159.8150  208.7590  152.5030 O   0  0  0  0  0  1  0  0  0  0  0  0
  162.4240  210.3400  153.3150 N   0  0  0  0  0  2  0  0  0  0  0  0
  160.2520  210.0740  152.3240 C   0  0  1  0  0  3  0  0  0  0  0  0
  161.4330  210.7730  154.2240 C   0  0  0  0  0  0  0  0  0  0  0  0
  160.0660  210.8420  153.6390 C   0  0  1  0  0  3  0  0  0  0  0  0
  161.7630  210.1260  152.0420 C   0  0  2  0  0  3  0  0  0  0  0  0
  161.6960  211.0520  155.4230 O   0  0  0  0  0  0  0  0  0  0  0  0
  159.6880  212.3070  153.3640 C   0  0  2  0  0  3  0  0  0  0  0  0
  159.0540  212.9460  154.5590 C   0  0  0  0  0  0  0  0  0  0  0  0
  158.5460  212.1290  155.6060 N   0  0  0  0  0  1  0  0  0  0  0  0
  158.9720  214.1990  154.6480 O   0  0  0  0  0  0  0  0  0  0  0  0
  158.5710  212.4710  151.9310 S   0  0  0  0  0  0  0  0  0  0  0  0
  160.4580  214.2860  150.5270 C   0  0  0  0  0  3  0  0  0  0  0  0
  159.6940  213.5480  151.0970 C   0  0  0  0  0  0  0  0  0  0  0  0
  161.5690  204.0880  148.6600 C   0  0  2  0  0  3  0  0  0  0  0  0
  159.6480  200.9310  147.4470 C   0  0  0  0  0  2  0  0  0  0  0  0
  160.2240  201.4560  146.1530 C   0  0  0  0  0  0  0  0  0  0  0  0
  160.5050  201.7990  148.2980 C   0  0  2  0  0  0  0  0  0  0  0  0
  160.5170  203.2710  147.8980 C   0  0  2  0  0  3  0  0  0  0  0  0
  161.1850  202.2310  147.0310 C   0  0  2  0  0  3  0  0  0  0  0  0
  160.0780  201.2120  144.8550 C   0  0  0  0  0  2  0  0  0  0  0  0
  161.5840  201.1480  149.1520 C   0  0  0  0  0  2  0  0  0  0  0  0
  161.1940  201.1610  150.4900 O   0  0  0  0  0  1  0  0  0  0  0  0
  161.0800  204.5110  149.9730 N   0  0  0  0  0  2  0  0  0  0  0  0
  162.0490  205.3240  150.5810 N   0  0  0  0  0  2  0  0  0  0  0  0
  161.1350  206.0820  152.6840 C   0  0  1  0  0  3  0  0  0  0  0  0
  162.0010  205.0410  152.0030 C   0  0  1  0  0  3  0  0  0  0  0  0
  160.5800  204.7030  152.4020 C   0  0  0  0  0  2  0  0  0  0  0  0
  161.5330  206.1750  154.1420 C   0  0  0  0  0  2  0  0  0  0  0  0
  160.4880  206.9680  154.9020 C   0  0  0  0  0  2  0  0  0  0  0  0
  161.1000  207.5780  156.0820 C   0  0  0  0  0  0  0  0  0  0  0  0
  161.5840  208.0620  157.0160 N   0  0  0  0  0  0  0  0  0  0  0  0
  2  1  2  0  0  0  0
  3  4  1  6  0  0  0
  3  1  1  0  0  0  0
  5  3  1  0  0  0  0
  5  6  2  0  0  0  0
  6  7  1  0  0  0  0
  7  8  1  0  0  0  0
 10 12  1  0  0  0  0
 11  9  1  1  0  0  0
 11 13  1  0  0  0  0
 12 15  2  0  0  0  0
 13 16  1  6  0  0  0
 13 12  1  0  0  0  0
 14  8  1  1  0  0  0
 14 11  1  0  0  0  0
 14 10  1  0  0  0  0
 16 20  1  6  0  0  0
 16 17  1  0  0  0  0
 17 19  2  0  0  0  0
 17 18  1  0  0  0  0
 21 22  3  0  0  0  0
 22 20  1  0  0  0  0
 23  1  1  6  0  0  0
 23 32  1  0  0  0  0
 24 26  1  0  0  0  0
 25 24  1  0  0  0  0
 26 30  1  1  0  0  0
 27 26  1  0  0  0  0
 27 23  1  1  0  0  0
 28 25  1  6  0  0  0
 28 27  1  0  0  0  0
 28 26  1  0  0  0  0
 29 25  2  0  0  0  0
 30 31  1  0  0  0  0
 32 33  1  0  0  0  0
 34 37  1  1  0  0  0
 35 33  1  6  0  0  0
 35 36  1  0  0  0  0
 35 34  1  0  0  0  0
 36 34  1  0  0  0  0
 37 38  1  0  0  0  0
 38 39  1  0  0  0  0
 39 40  3  0  0  0  0
M  END
>  <MODEL>
8

>  <REMARK>
 VINA RESULT:      -4.3      2.735      5.228
  Name = 
  18 active torsions:
  status: ('A' for Active; 'I' for Inactive)
    1  A    between atoms: C_1  and  C_25
    2  A    between atoms: C_2  and  C_8
    3  A    between atoms: C_4  and  C_32
    4  A    between atoms: C_6  and  C_8
    5  A    between atoms: C_6  and  C_40
    6  A    between atoms: C_10  and  C_38
    7  A    between atoms: C_11  and  C_28
    8  A    between atoms: C_11  and  C_32
    9  A    between atoms: C_12  and  C_24
   10  A    between atoms: C_16  and  S_26
   11  A    between atoms: C_17  and  N_23
   12  A    between atoms: N_21  and  N_23
   13  A    between atoms: N_21  and  C_40
   14  A    between atoms: C_25  and  C_38
   15  A    between atoms: S_26  and  C_36
   16  A    between atoms: C_27  and  C_36
   17  A    between atoms: C_29  and  C_40
   18  A    between atoms: C_30  and  C_36
                            x       y       z     vdW  Elec       q    Type
                         _______ _______ _______ _____ _____    ______ ____

>  <TORSDO>
F 18

$$$$
=
 OpenBabel11072415153D

 40 43  0  0  1  0  0  0  0  0999 V2000
  160.8880  209.5880  152.3200 C   0  0  0  0  0  0  0  0  0  0  0  0
  160.0070  208.8060  151.9870 O   0  0  0  0  0  0  0  0  0  0  0  0
  162.1580  209.6770  151.5230 C   0  0  2  0  0  3  0  0  0  0  0  0
  161.8810  210.3330  150.1830 C   0  0  0  0  0  1  0  0  0  0  0  0
  162.7570  208.3180  151.2970 C   0  0  0  0  0  3  0  0  0  0  0  0
  162.4770  207.5540  150.2320 C   0  0  0  0  0  3  0  0  0  0  0  0
  161.5320  207.9700  149.1500 C   0  0  0  0  0  2  0  0  0  0  0  0
  162.1020  207.5890  147.7920 C   0  0  0  0  0  2  0  0  0  0  0  0
  160.2420  206.2940  146.0890 O   0  0  0  0  0  1  0  0  0  0  0  0
  163.2640  205.6580  146.7440 N   0  0  0  0  0  2  0  0  0  0  0  0
  160.8840  205.4300  146.9800 C   0  0  1  0  0  3  0  0  0  0  0  0
  162.8150  204.5620  145.9750 C   0  0  0  0  0  0  0  0  0  0  0  0
  161.3890  204.2050  146.2060 C   0  0  1  0  0  3  0  0  0  0  0  0
  162.1480  206.0770  147.5710 C   0  0  2  0  0  3  0  0  0  0  0  0
  163.5620  203.9640  145.1570 O   0  0  0  0  0  0  0  0  0  0  0  0
  161.3000  202.9390  147.0750 C   0  0  2  0  0  3  0  0  0  0  0  0
  160.8520  201.7550  146.2790 C   0  0  0  0  0  0  0  0  0  0  0  0
  161.2520  200.4500  146.6760 N   0  0  0  0  0  1  0  0  0  0  0  0
  160.1200  201.9030  145.2650 O   0  0  0  0  0  0  0  0  0  0  0  0
  160.1840  203.1610  148.5010 S   0  0  0  0  0  0  0  0  0  0  0  0
  161.4600  200.9260  149.9850 C   0  0  0  0  0  3  0  0  0  0  0  0
  160.9400  201.8320  149.3830 C   0  0  0  0  0  0  0  0  0  0  0  0
  160.6710  210.5420  153.4680 C   0  0  2  0  0  3  0  0  0  0  0  0
  158.3600  213.6620  153.2350 C   0  0  0  0  0  2  0  0  0  0  0  0
  158.3360  213.1550  151.8120 C   0  0  0  0  0  0  0  0  0  0  0  0
  158.9700  212.4180  153.7740 C   0  0  2  0  0  0  0  0  0  0  0  0
  160.2010  211.9310  153.0160 C   0  0  2  0  0  3  0  0  0  0  0  0
  158.8280  211.8460  152.3940 C   0  0  2  0  0  3  0  0  0  0  0  0
  157.9090  213.5930  150.6320 C   0  0  0  0  0  2  0  0  0  0  0  0
  158.1350  211.5290  154.6850 C   0  0  0  0  0  2  0  0  0  0  0  0
  158.4750  211.7680  156.0160 O   0  0  0  0  0  1  0  0  0  0  0  0
  161.8560  210.6230  154.3230 N   0  0  0  0  0  2  0  0  0  0  0  0
  161.5730  210.0120  155.5550 N   0  0  0  0  0  2  0  0  0  0  0  0
  161.4480  207.6090  155.3460 C   0  0  1  0  0  3  0  0  0  0  0  0
  160.6720  208.9090  155.2770 C   0  0  1  0  0  3  0  0  0  0  0  0
  160.5650  208.0240  156.5030 C   0  0  0  0  0  2  0  0  0  0  0  0
  160.7320  206.5630  154.5180 C   0  0  0  0  0  2  0  0  0  0  0  0
  161.6400  206.0940  153.3990 C   0  0  0  0  0  2  0  0  0  0  0  0
  161.1480  204.8230  152.8690 C   0  0  0  0  0  0  0  0  0  0  0  0
  160.7590  203.8170  152.4500 N   0  0  0  0  0  0  0  0  0  0  0  0
  2  1  2  0  0  0  0
  3  4  1  6  0  0  0
  3  1  1  0  0  0  0
  5  3  1  0  0  0  0
  6  5  2  0  0  0  0
  7  6  1  0  0  0  0
  8  7  1  0  0  0  0
 10 14  1  0  0  0  0
 11  9  1  6  0  0  0
 11 14  1  0  0  0  0
 12 13  1  0  0  0  0
 12 10  1  0  0  0  0
 13 11  1  0  0  0  0
 13 16  1  1  0  0  0
 14  8  1  6  0  0  0
 15 12  2  0  0  0  0
 16 17  1  6  0  0  0
 16 20  1  0  0  0  0
 17 18  1  0  0  0  0
 19 17  2  0  0  0  0
 20 22  1  0  0  0  0
 22 21  3  0  0  0  0
 23  1  1  6  0  0  0
 23 32  1  0  0  0  0
 24 26  1  0  0  0  0
 25 24  1  0  0  0  0
 26 30  1  1  0  0  0
 27 23  1  1  0  0  0
 27 26  1  0  0  0  0
 28 25  1  6  0  0  0
 28 27  1  0  0  0  0
 28 26  1  0  0  0  0
 29 25  2  0  0  0  0
 30 31  1  0  0  0  0
 32 33  1  0  0  0  0
 34 37  1  6  0  0  0
 34 36  1  0  0  0  0
 35 34  1  0  0  0  0
 35 33  1  1  0  0  0
 35 36  1  0  0  0  0
 38 37  1  0  0  0  0
 39 38  1  0  0  0  0
 40 39  3  0  0  0  0
M  END
>  <MODEL>
9

>  <REMARK>
 VINA RESULT:      -4.3      3.397      9.922
  Name = 
  18 active torsions:
  status: ('A' for Active; 'I' for Inactive)
    1  A    between atoms: C_1  and  C_25
    2  A    between atoms: C_2  and  C_8
    3  A    between atoms: C_4  and  C_32
    4  A    between atoms: C_6  and  C_8
    5  A    between atoms: C_6  and  C_40
    6  A    between atoms: C_10  and  C_38
    7  A    between atoms: C_11  and  C_28
    8  A    between atoms: C_11  and  C_32
    9  A    between atoms: C_12  and  C_24
   10  A    between atoms: C_16  and  S_26
   11  A    between atoms: C_17  and  N_23
   12  A    between atoms: N_21  and  N_23
   13  A    between atoms: N_21  and  C_40
   14  A    between atoms: C_25  and  C_38
   15  A    between atoms: S_26  and  C_36
   16  A    between atoms: C_27  and  C_36
   17  A    between atoms: C_29  and  C_40
   18  A    between atoms: C_30  and  C_36
                            x       y       z     vdW  Elec       q    Type
                         _______ _______ _______ _____ _____    ______ ____

>  <TORSDO>
F 18

$$$$
