=
 OpenBabel11072410073D

 43 48  0  0  1  0  0  0  0  0999 V2000
  162.4800  212.2770  148.1680 C   0  0  1  0  0  3  0  0  0  0  0  0
  162.8140  210.7930  147.8860 C   0  0  0  0  0  2  0  0  0  0  0  0
  163.0860  210.6180  150.7070 O   0  0  0  0  0  1  0  0  0  0  0  0
  161.1150  212.5040  148.9020 C   0  0  1  0  0  0  0  0  0  0  0  0
  161.6340  207.9020  150.0830 C   0  0  1  0  0  3  0  0  0  0  0  0
  159.9770  212.1250  147.9590 C   0  0  0  0  0  1  0  0  0  0  0  0
  161.9550  209.8650  148.7410 C   0  0  2  0  0  3  0  0  0  0  0  0
  162.5120  206.9340  150.8940 C   0  0  0  0  0  2  0  0  0  0  0  0
  161.1760  209.1650  150.8860 C   0  0  2  0  0  3  0  0  0  0  0  0
  161.8360  206.6550  152.2010 C   0  0  0  0  0  3  0  0  0  0  0  0
  159.9240  208.8330  154.2550 C   0  0  0  0  0  2  0  0  0  0  0  0
  161.3570  207.6970  152.8720 C   0  0  0  0  0  0  0  0  0  0  0  0
  160.5510  207.5960  153.9770 O   0  0  0  0  0  0  0  0  0  0  0  0
  160.5610  209.8790  153.3110 C   0  0  2  0  0  3  0  0  0  0  0  0
  161.8210  210.3510  150.1640 C   0  0  1  0  0  0  0  0  0  0  0  0
  163.6550  212.9140  148.8990 C   0  0  0  0  0  1  0  0  0  0  0  0
  162.3760  208.4150  148.8470 C   0  0  2  0  0  3  0  0  0  0  0  0
  161.5150  209.0900  152.3970 C   0  0  2  0  0  3  0  0  0  0  0  0
  160.9680  211.6260  150.1730 C   0  0  0  0  0  2  0  0  0  0  0  0
  161.3490  210.9140  154.1380 C   0  0  1  0  0  3  0  0  0  0  0  0
  160.5420  212.1950  154.3540 C   0  0  2  0  0  3  0  0  0  0  0  0
  159.9760  212.2700  155.7800 C   0  0  0  0  0  2  0  0  0  0  0  0
  157.7180  211.3880  156.3150 C   0  0  0  0  0  1  0  0  0  0  0  0
  158.2650  212.4810  154.1870 C   0  0  0  0  0  0  0  0  0  0  0  0
  159.4260  212.2670  153.4820 O   0  0  0  0  0  0  0  0  0  0  0  0
  157.1490  212.6430  153.6270 O   0  0  0  0  0  0  0  0  0  0  0  0
  158.4740  212.5210  155.6490 C   0  0  2  0  0  3  0  0  0  0  0  0
  161.8240  210.3460  155.4780 C   0  0  0  0  0  2  0  0  0  0  0  0
  163.1350  210.7470  155.7300 O   0  0  0  0  0  0  0  0  0  0  0  0
  163.1920  210.9080  157.1120 C   0  0  0  0  0  1  0  0  0  0  0  0
  162.1290  207.6620  147.6710 O   0  0  0  0  0  0  0  0  0  0  0  0
  160.8910  206.9980  147.7730 C   0  0  0  0  0  2  0  0  0  0  0  0
  160.9280  205.7020  146.9820 C   0  0  0  0  0  2  0  0  0  0  0  0
  161.8420  204.7950  147.5810 O   0  0  0  0  0  0  0  0  0  0  0  0
  161.0500  201.1530  148.4830 C   0  0  0  0  0  2  0  0  0  0  0  0
  160.7570  202.6230  150.4510 C   0  0  0  0  0  2  0  0  0  0  0  0
  160.1210  201.5050  149.6340 C   0  0  0  0  0  2  0  0  0  0  0  0
  161.1900  202.3520  147.5460 C   0  0  0  0  0  2  0  0  0  0  0  0
  161.1650  203.7820  149.5850 C   0  0  0  0  0  3  0  0  0  0  0  0
  161.4190  203.6600  148.2760 C   0  0  0  0  0  0  0  0  0  0  0  0
  160.9260  213.9680  149.3350 C   0  0  0  0  0  2  0  0  0  0  0  0
  158.7730  214.4500  150.2830 O   0  0  0  0  0  1  0  0  0  0  0  0
  160.0950  214.1470  150.6040 C   0  0  0  0  0  2  0  0  0  0  0  0
  1 16  1  1  0  0  0
  1  4  1  0  0  0  0
  2  1  1  0  0  0  0
  4  6  1  6  0  0  0
  4 41  1  0  0  0  0
  4 19  1  0  0  0  0
  5  9  1  0  0  0  0
  5  8  1  1  0  0  0
  7  2  1  6  0  0  0
  7 17  1  0  0  0  0
  7 15  1  0  0  0  0
  8 10  1  0  0  0  0
  9 18  1  0  0  0  0
 10 12  2  0  0  0  0
 12 13  1  0  0  0  0
 13 11  1  0  0  0  0
 14 20  1  0  0  0  0
 14 11  1  0  0  0  0
 15 19  1  0  0  0  0
 15  3  1  0  0  0  0
 15  9  1  0  0  0  0
 17  5  1  0  0  0  0
 18 12  1  0  0  0  0
 18 14  1  0  0  0  0
 20 21  1  0  0  0  0
 20 28  1  0  0  0  0
 21 22  1  0  0  0  0
 24 27  1  0  0  0  0
 25 24  1  0  0  0  0
 25 21  1  0  0  0  0
 26 24  2  0  0  0  0
 27 22  1  0  0  0  0
 27 23  1  0  0  0  0
 28 29  1  0  0  0  0
 29 30  1  0  0  0  0
 31 32  1  0  0  0  0
 31 17  1  0  0  0  0
 33 34  1  0  0  0  0
 33 32  1  0  0  0  0
 34 40  1  0  0  0  0
 35 37  1  0  0  0  0
 37 36  1  0  0  0  0
 38 40  1  0  0  0  0
 38 35  1  0  0  0  0
 39 36  1  0  0  0  0
 40 39  2  0  0  0  0
 41 43  1  0  0  0  0
 42 43  1  0  0  0  0
M  END
>  <MODEL>
1

>  <REMARK>
 VINA RESULT:      -5.0      0.000      0.000
  Name = 
  11 active torsions:
  status: ('A' for Active; 'I' for Inactive)
    1  A    between atoms: C_1  and  C_3
    2  A    between atoms: C_1  and  C_22
    3  A    between atoms: C_1  and  C_34
    4  A    between atoms: C_9  and  C_21
    5  A    between atoms: C_9  and  O_23
    6  A    between atoms: C_12  and  C_31
    7  A    between atoms: C_16  and  C_31
    8  A    between atoms: O_17  and  C_21
    9  A    between atoms: O_17  and  C_33
   10  A    between atoms: C_22  and  O_32
   11  A    between atoms: O_23  and  C_39
                            x       y       z     vdW  Elec       q    Type
                         _______ _______ _______ _____ _____    ______ ____

>  <TORSDO>
F 11

$$$$
=
 OpenBabel11072410073D

 43 48  0  0  1  0  0  0  0  0999 V2000
  160.1370  209.6590  155.5500 C   0  0  1  0  0  3  0  0  0  0  0  0
  160.3570  208.3410  154.7690 C   0  0  0  0  0  2  0  0  0  0  0  0
  159.6720  209.9090  152.5020 O   0  0  0  0  0  1  0  0  0  0  0  0
  161.2050  210.7680  155.2620 C   0  0  1  0  0  0  0  0  0  0  0  0
  162.0130  208.1690  151.3330 C   0  0  1  0  0  3  0  0  0  0  0  0
  162.5490  210.3180  155.8260 C   0  0  0  0  0  1  0  0  0  0  0  0
  161.3100  208.5530  153.5950 C   0  0  2  0  0  3  0  0  0  0  0  0
  161.3710  207.7020  150.0160 C   0  0  0  0  0  2  0  0  0  0  0  0
  161.8900  209.7080  151.5880 C   0  0  2  0  0  3  0  0  0  0  0  0
  161.8630  208.5790  148.9070 C   0  0  0  0  0  3  0  0  0  0  0  0
  162.5770  212.0590  148.9370 C   0  0  0  0  0  2  0  0  0  0  0  0
  161.8540  209.8910  149.1190 C   0  0  0  0  0  0  0  0  0  0  0  0
  162.4440  210.8090  148.2880 O   0  0  0  0  0  0  0  0  0  0  0  0
  161.8080  211.9530  150.2750 C   0  0  2  0  0  3  0  0  0  0  0  0
  161.0290  209.8350  152.8480 C   0  0  1  0  0  0  0  0  0  0  0  0
  158.7100  210.1370  155.3110 C   0  0  0  0  0  1  0  0  0  0  0  0
  161.3720  207.4730  152.5360 C   0  0  2  0  0  3  0  0  0  0  0  0
  161.3360  210.4900  150.3690 C   0  0  2  0  0  3  0  0  0  0  0  0
  161.4060  211.0210  153.7440 C   0  0  0  0  0  2  0  0  0  0  0  0
  160.5960  212.9040  150.2550 C   0  0  1  0  0  3  0  0  0  0  0  0
  160.4170  213.5590  148.8830 C   0  0  2  0  0  3  0  0  0  0  0  0
  159.1690  214.4530  148.8460 C   0  0  0  0  0  2  0  0  0  0  0  0
  156.9690  213.5610  148.1170 C   0  0  0  0  0  1  0  0  0  0  0  0
  159.1030  212.8490  147.1340 C   0  0  0  0  0  0  0  0  0  0  0  0
  160.2430  212.5950  147.8590 O   0  0  0  0  0  0  0  0  0  0  0  0
  158.7680  212.1660  146.1310 O   0  0  0  0  0  0  0  0  0  0  0  0
  158.3400  214.0070  147.6420 C   0  0  2  0  0  3  0  0  0  0  0  0
  159.3040  212.2070  150.6890 C   0  0  0  0  0  2  0  0  0  0  0  0
  158.9200  212.6570  151.9520 O   0  0  0  0  0  0  0  0  0  0  0  0
  157.6630  213.2240  151.7530 C   0  0  0  0  0  1  0  0  0  0  0  0
  162.0500  206.3010  152.9560 O   0  0  0  0  0  0  0  0  0  0  0  0
  161.1660  205.2060  152.9610 C   0  0  0  0  0  2  0  0  0  0  0  0
  161.6570  204.1330  152.0050 C   0  0  0  0  0  2  0  0  0  0  0  0
  160.6010  203.7330  151.1430 O   0  0  0  0  0  0  0  0  0  0  0  0
  161.6140  203.4330  147.4570 C   0  0  0  0  0  2  0  0  0  0  0  0
  161.0930  201.2070  148.4030 C   0  0  0  0  0  2  0  0  0  0  0  0
  160.8530  202.1370  147.2200 C   0  0  0  0  0  2  0  0  0  0  0  0
  161.0550  204.1420  148.6900 C   0  0  0  0  0  2  0  0  0  0  0  0
  160.8020  201.8860  149.7120 C   0  0  0  0  0  3  0  0  0  0  0  0
  160.8360  203.2150  149.8680 C   0  0  0  0  0  0  0  0  0  0  0  0
  160.8290  212.1140  155.9030 C   0  0  0  0  0  2  0  0  0  0  0  0
  159.5830  214.1560  155.6850 O   0  0  0  0  0  1  0  0  0  0  0  0
  159.6960  212.8550  155.1950 C   0  0  0  0  0  2  0  0  0  0  0  0
  1 16  1  6  0  0  0
  2  1  1  0  0  0  0
  3 15  1  0  0  0  0
  4  1  1  0  0  0  0
  4  6  1  1  0  0  0
  4 41  1  0  0  0  0
  5  8  1  6  0  0  0
  5  9  1  0  0  0  0
  5 17  1  0  0  0  0
  7  2  1  1  0  0  0
  9 15  1  0  0  0  0
 10 12  2  0  0  0  0
 10  8  1  0  0  0  0
 11 14  1  0  0  0  0
 12 18  1  0  0  0  0
 13 11  1  0  0  0  0
 13 12  1  0  0  0  0
 14 18  1  0  0  0  0
 15  7  1  0  0  0  0
 15 19  1  0  0  0  0
 17 31  1  0  0  0  0
 17  7  1  0  0  0  0
 18  9  1  0  0  0  0
 19  4  1  0  0  0  0
 20 14  1  0  0  0  0
 20 28  1  0  0  0  0
 21 20  1  0  0  0  0
 22 21  1  0  0  0  0
 24 27  1  0  0  0  0
 24 25  1  0  0  0  0
 25 21  1  0  0  0  0
 26 24  2  0  0  0  0
 27 23  1  0  0  0  0
 27 22  1  0  0  0  0
 28 29  1  0  0  0  0
 30 29  1  0  0  0  0
 31 32  1  0  0  0  0
 33 32  1  0  0  0  0
 34 33  1  0  0  0  0
 35 38  1  0  0  0  0
 36 39  1  0  0  0  0
 37 35  1  0  0  0  0
 37 36  1  0  0  0  0
 38 40  1  0  0  0  0
 39 40  2  0  0  0  0
 40 34  1  0  0  0  0
 43 42  1  0  0  0  0
 43 41  1  0  0  0  0
M  END
>  <MODEL>
2

>  <REMARK>
 VINA RESULT:      -4.8      1.817      5.495
  Name = 
  11 active torsions:
  status: ('A' for Active; 'I' for Inactive)
    1  A    between atoms: C_1  and  C_3
    2  A    between atoms: C_1  and  C_22
    3  A    between atoms: C_1  and  C_34
    4  A    between atoms: C_9  and  C_21
    5  A    between atoms: C_9  and  O_23
    6  A    between atoms: C_12  and  C_31
    7  A    between atoms: C_16  and  C_31
    8  A    between atoms: O_17  and  C_21
    9  A    between atoms: O_17  and  C_33
   10  A    between atoms: C_22  and  O_32
   11  A    between atoms: O_23  and  C_39
                            x       y       z     vdW  Elec       q    Type
                         _______ _______ _______ _____ _____    ______ ____

>  <TORSDO>
F 11

$$$$
=
 OpenBabel11072410073D

 43 48  0  0  1  0  0  0  0  0999 V2000
  160.0330  207.5710  155.9010 C   0  0  1  0  0  3  0  0  0  0  0  0
  160.2950  206.4410  154.8780 C   0  0  0  0  0  2  0  0  0  0  0  0
  159.5370  208.3950  152.9620 O   0  0  0  0  0  1  0  0  0  0  0  0
  161.0580  208.7540  155.8350 C   0  0  1  0  0  0  0  0  0  0  0  0
  161.9310  207.0040  151.4750 C   0  0  1  0  0  3  0  0  0  0  0  0
  162.4210  208.2520  156.3010 C   0  0  0  0  0  1  0  0  0  0  0  0
  161.2300  206.9120  153.7680 C   0  0  2  0  0  3  0  0  0  0  0  0
  161.2970  206.7800  150.0920 C   0  0  0  0  0  2  0  0  0  0  0  0
  161.7540  208.4580  152.0260 C   0  0  2  0  0  3  0  0  0  0  0  0
  161.7490  207.8750  149.1750 C   0  0  0  0  0  3  0  0  0  0  0  0
  162.3370  211.3050  149.8850 C   0  0  0  0  0  2  0  0  0  0  0  0
  161.6940  209.1190  149.6400 C   0  0  0  0  0  0  0  0  0  0  0  0
  162.2450  210.2020  149.0040 O   0  0  0  0  0  0  0  0  0  0  0  0
  161.5830  210.9120  151.1770 C   0  0  2  0  0  3  0  0  0  0  0  0
  160.8980  208.3050  153.2860 C   0  0  1  0  0  0  0  0  0  0  0  0
  158.5880  208.0350  155.7610 C   0  0  0  0  0  1  0  0  0  0  0  0
  161.3230  206.0640  152.5190 C   0  0  2  0  0  3  0  0  0  0  0  0
  161.1640  209.4430  150.9830 C   0  0  2  0  0  3  0  0  0  0  0  0
  161.2390  209.3060  154.3970 C   0  0  0  0  0  2  0  0  0  0  0  0
  160.3360  211.8030  151.3430 C   0  0  1  0  0  3  0  0  0  0  0  0
  159.7780  211.7300  152.7660 C   0  0  2  0  0  3  0  0  0  0  0  0
  158.2490  211.5870  152.7630 C   0  0  0  0  0  2  0  0  0  0  0  0
  156.7710  213.5800  152.8530 C   0  0  0  0  0  1  0  0  0  0  0  0
  158.9150  213.4410  154.0390 C   0  0  0  0  0  0  0  0  0  0  0  0
  160.0630  212.9070  153.5030 O   0  0  0  0  0  0  0  0  0  0  0  0
  158.9210  214.4530  154.7870 O   0  0  0  0  0  0  0  0  0  0  0  0
  157.6980  212.6930  153.6620 C   0  0  2  0  0  3  0  0  0  0  0  0
  160.6050  213.2560  150.9450 C   0  0  0  0  0  2  0  0  0  0  0  0
  159.4390  213.8390  150.4480 O   0  0  0  0  0  0  0  0  0  0  0  0
  159.6330  213.8880  149.0700 C   0  0  0  0  0  1  0  0  0  0  0  0
  162.0460  204.8580  152.7000 O   0  0  0  0  0  0  0  0  0  0  0  0
  161.2010  203.7510  152.4970 C   0  0  0  0  0  2  0  0  0  0  0  0
  161.5600  203.0510  151.1990 C   0  0  0  0  0  2  0  0  0  0  0  0
  160.8200  203.6130  150.1240 O   0  0  0  0  0  0  0  0  0  0  0  0
  161.7750  203.6050  146.4100 C   0  0  0  0  0  2  0  0  0  0  0  0
  161.0920  201.3420  147.1410 C   0  0  0  0  0  2  0  0  0  0  0  0
  160.9140  202.4010  146.0590 C   0  0  0  0  0  2  0  0  0  0  0  0
  161.2830  204.2290  147.7160 C   0  0  0  0  0  2  0  0  0  0  0  0
  160.8650  201.9080  148.5150 C   0  0  0  0  0  3  0  0  0  0  0  0
  161.0040  203.2080  148.8000 C   0  0  0  0  0  0  0  0  0  0  0  0
  160.6390  209.9340  156.7280 C   0  0  0  0  0  2  0  0  0  0  0  0
  160.6080  212.3240  156.9640 O   0  0  0  0  0  1  0  0  0  0  0  0
  161.2790  211.2690  156.3480 C   0  0  0  0  0  2  0  0  0  0  0  0
  1 16  1  6  0  0  0
  2  1  1  0  0  0  0
  3 15  1  0  0  0  0
  4  1  1  0  0  0  0
  4  6  1  1  0  0  0
  4 41  1  0  0  0  0
  5  8  1  6  0  0  0
  5  9  1  0  0  0  0
  5 17  1  0  0  0  0
  7  2  1  1  0  0  0
  9 15  1  0  0  0  0
 10 12  2  0  0  0  0
 10  8  1  0  0  0  0
 11 14  1  0  0  0  0
 12 18  1  0  0  0  0
 13 12  1  0  0  0  0
 13 11  1  0  0  0  0
 14 20  1  0  0  0  0
 15  7  1  0  0  0  0
 15 19  1  0  0  0  0
 17 31  1  0  0  0  0
 17  7  1  0  0  0  0
 18 14  1  0  0  0  0
 18  9  1  0  0  0  0
 19  4  1  0  0  0  0
 20 21  1  0  0  0  0
 21 25  1  0  0  0  0
 22 21  1  0  0  0  0
 22 27  1  0  0  0  0
 23 27  1  0  0  0  0
 24 26  2  0  0  0  0
 25 24  1  0  0  0  0
 27 24  1  0  0  0  0
 28 20  1  0  0  0  0
 29 28  1  0  0  0  0
 30 29  1  0  0  0  0
 32 31  1  0  0  0  0
 33 32  1  0  0  0  0
 34 33  1  0  0  0  0
 35 38  1  0  0  0  0
 36 39  1  0  0  0  0
 37 35  1  0  0  0  0
 37 36  1  0  0  0  0
 38 40  1  0  0  0  0
 39 40  2  0  0  0  0
 40 34  1  0  0  0  0
 43 41  1  0  0  0  0
 43 42  1  0  0  0  0
M  END
>  <MODEL>
3

>  <REMARK>
 VINA RESULT:      -4.3      1.689      5.217
  Name = 
  11 active torsions:
  status: ('A' for Active; 'I' for Inactive)
    1  A    between atoms: C_1  and  C_3
    2  A    between atoms: C_1  and  C_22
    3  A    between atoms: C_1  and  C_34
    4  A    between atoms: C_9  and  C_21
    5  A    between atoms: C_9  and  O_23
    6  A    between atoms: C_12  and  C_31
    7  A    between atoms: C_16  and  C_31
    8  A    between atoms: O_17  and  C_21
    9  A    between atoms: O_17  and  C_33
   10  A    between atoms: C_22  and  O_32
   11  A    between atoms: O_23  and  C_39
                            x       y       z     vdW  Elec       q    Type
                         _______ _______ _______ _____ _____    ______ ____

>  <TORSDO>
F 11

$$$$
=
 OpenBabel11072410073D

 43 48  0  0  1  0  0  0  0  0999 V2000
  160.4170  208.1140  155.4670 C   0  0  1  0  0  3  0  0  0  0  0  0
  161.0570  207.5170  154.1920 C   0  0  0  0  0  2  0  0  0  0  0  0
  159.4370  209.4180  152.8390 O   0  0  0  0  0  1  0  0  0  0  0  0
  160.8540  209.5850  155.7830 C   0  0  1  0  0  0  0  0  0  0  0  0
  162.0910  209.6050  151.1670 C   0  0  1  0  0  3  0  0  0  0  0  0
  162.3300  209.5900  156.1700 C   0  0  0  0  0  1  0  0  0  0  0  0
  161.6400  208.6150  153.3060 C   0  0  2  0  0  3  0  0  0  0  0  0
  161.5190  209.5210  149.7420 C   0  0  0  0  0  2  0  0  0  0  0  0
  161.3640  210.6460  152.0820 C   0  0  2  0  0  3  0  0  0  0  0  0
  161.4180  210.9070  149.1840 C   0  0  0  0  0  3  0  0  0  0  0  0
  160.5770  213.9400  150.8320 C   0  0  0  0  0  2  0  0  0  0  0  0
  160.8830  211.8400  149.9660 C   0  0  0  0  0  0  0  0  0  0  0  0
  160.8940  213.1810  149.6810 O   0  0  0  0  0  0  0  0  0  0  0  0
  160.1380  212.9360  151.9230 C   0  0  2  0  0  3  0  0  0  0  0  0
  160.7320  209.8170  153.2030 C   0  0  1  0  0  0  0  0  0  0  0  0
  158.9040  207.9550  155.3780 C   0  0  0  0  0  1  0  0  0  0  0  0
  161.9960  208.2540  151.8800 C   0  0  2  0  0  3  0  0  0  0  0  0
  160.3540  211.5380  151.3140 C   0  0  2  0  0  3  0  0  0  0  0  0
  160.6980  210.5280  154.5610 C   0  0  0  0  0  2  0  0  0  0  0  0
  158.6480  213.1480  152.2560 C   0  0  1  0  0  3  0  0  0  0  0  0
  158.3940  213.0870  153.7630 C   0  0  2  0  0  3  0  0  0  0  0  0
  157.6630  211.7950  154.1570 C   0  0  0  0  0  2  0  0  0  0  0  0
  155.1840  211.7040  154.2720 C   0  0  0  0  0  1  0  0  0  0  0  0
  156.4880  213.6840  154.9050 C   0  0  0  0  0  0  0  0  0  0  0  0
  157.5720  214.1550  154.2020 O   0  0  0  0  0  0  0  0  0  0  0  0
  155.6470  214.4470  155.4490 O   0  0  0  0  0  0  0  0  0  0  0  0
  156.4340  212.2090  154.9670 C   0  0  2  0  0  3  0  0  0  0  0  0
  158.1030  214.4530  151.6710 C   0  0  0  0  0  2  0  0  0  0  0  0
  156.8040  214.2610  151.2030 O   0  0  0  0  0  0  0  0  0  0  0  0
  156.9650  213.8770  149.8740 C   0  0  0  0  0  1  0  0  0  0  0  0
  163.1630  207.4580  151.7670 O   0  0  0  0  0  0  0  0  0  0  0  0
  162.8120  206.1050  151.5990 C   0  0  0  0  0  2  0  0  0  0  0  0
  161.4560  205.9970  150.9250 C   0  0  0  0  0  2  0  0  0  0  0  0
  160.8630  204.7410  151.2260 O   0  0  0  0  0  0  0  0  0  0  0  0
  161.2900  202.6580  148.0360 C   0  0  0  0  0  2  0  0  0  0  0  0
  160.9910  201.1890  150.0040 C   0  0  0  0  0  2  0  0  0  0  0  0
  160.5400  201.4480  148.5720 C   0  0  0  0  0  2  0  0  0  0  0  0
  160.9120  203.8990  148.8430 C   0  0  0  0  0  2  0  0  0  0  0  0
  160.8900  202.4270  150.8510 C   0  0  0  0  0  3  0  0  0  0  0  0
  160.9090  203.6640  150.3400 C   0  0  0  0  0  0  0  0  0  0  0  0
  160.0420  210.1960  156.9380 C   0  0  0  0  0  2  0  0  0  0  0  0
  158.8660  212.2800  157.1400 O   0  0  0  0  0  1  0  0  0  0  0  0
  160.1380  211.7170  157.0390 C   0  0  0  0  0  2  0  0  0  0  0  0
  1 16  1  6  0  0  0
  1  4  1  0  0  0  0
  2  1  1  0  0  0  0
  3 15  1  0  0  0  0
  4  6  1  1  0  0  0
  4 41  1  0  0  0  0
  5  8  1  6  0  0  0
  5 17  1  0  0  0  0
  5  9  1  0  0  0  0
  7  2  1  6  0  0  0
  9 15  1  0  0  0  0
 10  8  1  0  0  0  0
 10 12  2  0  0  0  0
 11 14  1  0  0  0  0
 12 18  1  0  0  0  0
 13 12  1  0  0  0  0
 13 11  1  0  0  0  0
 14 20  1  0  0  0  0
 15  7  1  0  0  0  0
 15 19  1  0  0  0  0
 17  7  1  0  0  0  0
 18 14  1  0  0  0  0
 18  9  1  0  0  0  0
 19  4  1  0  0  0  0
 20 21  1  0  0  0  0
 21 22  1  0  0  0  0
 21 25  1  0  0  0  0
 22 27  1  0  0  0  0
 23 27  1  0  0  0  0
 24 27  1  0  0  0  0
 24 26  2  0  0  0  0
 25 24  1  0  0  0  0
 28 20  1  0  0  0  0
 29 28  1  0  0  0  0
 30 29  1  0  0  0  0
 31 17  1  0  0  0  0
 32 31  1  0  0  0  0
 33 34  1  0  0  0  0
 33 32  1  0  0  0  0
 35 37  1  0  0  0  0
 35 38  1  0  0  0  0
 36 39  1  0  0  0  0
 37 36  1  0  0  0  0
 38 40  1  0  0  0  0
 40 39  2  0  0  0  0
 40 34  1  0  0  0  0
 41 43  1  0  0  0  0
 43 42  1  0  0  0  0
M  END
>  <MODEL>
4

>  <REMARK>
 VINA RESULT:      -3.5      1.976      5.184
  Name = 
  11 active torsions:
  status: ('A' for Active; 'I' for Inactive)
    1  A    between atoms: C_1  and  C_3
    2  A    between atoms: C_1  and  C_22
    3  A    between atoms: C_1  and  C_34
    4  A    between atoms: C_9  and  C_21
    5  A    between atoms: C_9  and  O_23
    6  A    between atoms: C_12  and  C_31
    7  A    between atoms: C_16  and  C_31
    8  A    between atoms: O_17  and  C_21
    9  A    between atoms: O_17  and  C_33
   10  A    between atoms: C_22  and  O_32
   11  A    between atoms: O_23  and  C_39
                            x       y       z     vdW  Elec       q    Type
                         _______ _______ _______ _____ _____    ______ ____

>  <TORSDO>
F 11

$$$$
=
 OpenBabel11072410073D

 43 48  0  0  1  0  0  0  0  0999 V2000
  162.5580  206.5980  149.2660 C   0  0  1  0  0  3  0  0  0  0  0  0
  162.6680  206.3180  150.7830 C   0  0  0  0  0  2  0  0  0  0  0  0
  162.7240  209.1480  151.0080 O   0  0  0  0  0  1  0  0  0  0  0  0
  161.2020  207.2460  148.8240 C   0  0  1  0  0  0  0  0  0  0  0  0
  160.8980  208.3960  153.4530 C   0  0  1  0  0  3  0  0  0  0  0  0
  160.0830  206.2270  149.0130 C   0  0  0  0  0  1  0  0  0  0  0  0
  161.6170  207.1030  151.5630 C   0  0  2  0  0  3  0  0  0  0  0  0
  161.5550  209.2480  154.5520 C   0  0  0  0  0  2  0  0  0  0  0  0
  160.5970  209.1850  152.1350 C   0  0  2  0  0  3  0  0  0  0  0  0
  160.7590  210.5060  154.7230 C   0  0  0  0  0  3  0  0  0  0  0  0
  159.0910  212.4630  152.2720 C   0  0  0  0  0  2  0  0  0  0  0  0
  160.4100  211.1590  153.6190 C   0  0  0  0  0  0  0  0  0  0  0  0
  159.5280  212.2090  153.5930 O   0  0  0  0  0  0  0  0  0  0  0  0
  159.9480  211.5760  151.3390 C   0  0  2  0  0  3  0  0  0  0  0  0
  161.4700  208.5220  151.0660 C   0  0  1  0  0  0  0  0  0  0  0  0
  163.7700  207.4110  148.8280 C   0  0  0  0  0  1  0  0  0  0  0  0
  161.7910  207.2170  153.0620 C   0  0  2  0  0  3  0  0  0  0  0  0
  160.8210  210.7140  152.2690 C   0  0  2  0  0  3  0  0  0  0  0  0
  160.8340  208.4930  149.6710 C   0  0  0  0  0  2  0  0  0  0  0  0
  160.8360  212.4650  150.4470 C   0  0  1  0  0  3  0  0  0  0  0  0
  161.2520  211.7400  149.1660 C   0  0  2  0  0  3  0  0  0  0  0  0
  162.5990  212.2580  148.6390 C   0  0  0  0  0  2  0  0  0  0  0  0
  162.7080  214.1140  146.9930 C   0  0  0  0  0  1  0  0  0  0  0  0
  160.9370  212.4150  146.9890 C   0  0  0  0  0  0  0  0  0  0  0  0
  160.3160  211.9410  148.1200 O   0  0  0  0  0  0  0  0  0  0  0  0
  160.3230  212.6120  145.9080 O   0  0  0  0  0  0  0  0  0  0  0  0
  162.3840  212.6430  147.1750 C   0  0  2  0  0  3  0  0  0  0  0  0
  160.1720  213.8030  150.1160 C   0  0  0  0  0  2  0  0  0  0  0  0
  158.7880  213.6460  150.0480 O   0  0  0  0  0  0  0  0  0  0  0  0
  158.3960  214.4530  148.9830 C   0  0  0  0  0  1  0  0  0  0  0  0
  161.5040  206.0180  153.7620 O   0  0  0  0  0  0  0  0  0  0  0  0
  160.6300  205.2130  153.0060 C   0  0  0  0  0  2  0  0  0  0  0  0
  161.3560  203.9750  152.5120 C   0  0  0  0  0  2  0  0  0  0  0  0
  160.4560  203.1380  151.7990 O   0  0  0  0  0  0  0  0  0  0  0  0
  161.4520  203.0090  148.0990 C   0  0  0  0  0  2  0  0  0  0  0  0
  161.1980  200.7240  149.0150 C   0  0  0  0  0  2  0  0  0  0  0  0
  160.8400  201.6390  147.8490 C   0  0  0  0  0  2  0  0  0  0  0  0
  160.8310  203.6320  149.3490 C   0  0  0  0  0  2  0  0  0  0  0  0
  160.8470  201.3470  150.3380 C   0  0  0  0  0  3  0  0  0  0  0  0
  160.7330  202.6690  150.5140 C   0  0  0  0  0  0  0  0  0  0  0  0
  161.2230  207.6860  147.3500 C   0  0  0  0  0  2  0  0  0  0  0  0
  162.0170  206.0100  145.8240 O   0  0  0  0  0  1  0  0  0  0  0  0
  160.8630  206.5810  146.3590 C   0  0  0  0  0  2  0  0  0  0  0  0
  1 16  1  1  0  0  0
  1  2  1  0  0  0  0
  3 15  1  0  0  0  0
  4  6  1  1  0  0  0
  4  1  1  0  0  0  0
  4 19  1  0  0  0  0
  5  8  1  1  0  0  0
  7  2  1  6  0  0  0
  7 17  1  0  0  0  0
  8 10  1  0  0  0  0
  9 18  1  0  0  0  0
  9  5  1  0  0  0  0
 11 13  1  0  0  0  0
 12 10  2  0  0  0  0
 13 12  1  0  0  0  0
 14 18  1  0  0  0  0
 14 11  1  0  0  0  0
 15  7  1  0  0  0  0
 15  9  1  0  0  0  0
 17  5  1  0  0  0  0
 17 31  1  0  0  0  0
 18 12  1  0  0  0  0
 19 15  1  0  0  0  0
 20 14  1  0  0  0  0
 21 20  1  0  0  0  0
 22 21  1  0  0  0  0
 23 27  1  0  0  0  0
 24 27  1  0  0  0  0
 24 25  1  0  0  0  0
 25 21  1  0  0  0  0
 26 24  2  0  0  0  0
 27 22  1  0  0  0  0
 28 20  1  0  0  0  0
 29 28  1  0  0  0  0
 30 29  1  0  0  0  0
 32 31  1  0  0  0  0
 33 32  1  0  0  0  0
 34 33  1  0  0  0  0
 35 38  1  0  0  0  0
 36 39  1  0  0  0  0
 37 35  1  0  0  0  0
 37 36  1  0  0  0  0
 38 40  1  0  0  0  0
 39 40  2  0  0  0  0
 40 34  1  0  0  0  0
 41  4  1  0  0  0  0
 42 43  1  0  0  0  0
 43 41  1  0  0  0  0
M  END
>  <MODEL>
5

>  <REMARK>
 VINA RESULT:      -2.7      1.743      5.662
  Name = 
  11 active torsions:
  status: ('A' for Active; 'I' for Inactive)
    1  A    between atoms: C_1  and  C_3
    2  A    between atoms: C_1  and  C_22
    3  A    between atoms: C_1  and  C_34
    4  A    between atoms: C_9  and  C_21
    5  A    between atoms: C_9  and  O_23
    6  A    between atoms: C_12  and  C_31
    7  A    between atoms: C_16  and  C_31
    8  A    between atoms: O_17  and  C_21
    9  A    between atoms: O_17  and  C_33
   10  A    between atoms: C_22  and  O_32
   11  A    between atoms: O_23  and  C_39
                            x       y       z     vdW  Elec       q    Type
                         _______ _______ _______ _____ _____    ______ ____

>  <TORSDO>
F 11

$$$$
