=
 OpenBabel11072414413D

 26 30  0  0  1  0  0  0  0  0999 V2000
  160.5800  203.0240  148.0810 O   0  0  0  0  0  1  0  0  0  0  0  0
  161.4210  203.2460  151.6580 C   0  0  0  0  0  3  0  0  0  0  0  0
  161.1930  202.7360  150.3820 C   0  0  0  0  0  3  0  0  0  0  0  0
  161.4660  206.9960  154.6290 C   0  0  0  0  0  3  0  0  0  0  0  0
  160.6940  204.9680  149.5400 C   0  0  0  0  0  0  0  0  0  0  0  0
  160.8540  208.5180  153.0110 C   0  0  0  0  0  0  0  0  0  0  0  0
  160.8220  203.5790  149.3340 C   0  0  0  0  0  0  0  0  0  0  0  0
  161.4710  205.0630  153.1510 O   0  0  0  0  0  0  0  0  0  0  0  0
  161.3170  206.3480  153.4210 C   0  0  0  0  0  0  0  0  0  0  0  0
  160.8890  205.4890  150.8410 C   0  0  0  0  0  0  0  0  0  0  0  0
  160.7110  206.8620  151.1140 C   0  0  0  0  0  3  0  0  0  0  0  0
  160.9330  207.2870  152.4130 C   0  0  0  0  0  0  0  0  0  0  0  0
  161.1800  208.3370  154.3560 C   0  0  0  0  0  0  0  0  0  0  0  0
  161.2680  204.6080  151.9100 C   0  0  0  0  0  0  0  0  0  0  0  0
  162.8720  205.4320  145.0830 O   0  0  0  0  0  0  0  0  0  0  0  0
  162.7440  205.4670  147.4880 C   0  0  0  0  0  2  0  0  0  0  0  0
  160.2700  205.8460  148.3820 C   0  0  2  0  0  3  0  0  0  0  0  0
  161.3230  206.0130  147.3370 C   0  0  0  0  0  0  0  0  0  0  0  0
  163.0860  204.6560  146.2380 C   0  0  0  0  0  2  0  0  0  0  0  0
  160.8830  206.4720  145.9530 C   0  0  0  0  0  2  0  0  0  0  0  0
  161.4780  205.5210  144.9150 C   0  0  0  0  0  2  0  0  0  0  0  0
  161.0760  207.0040  148.2970 O   0  0  0  0  0  0  0  0  0  0  0  0
  161.1650  209.4090  155.3900 C   0  0  0  0  0  2  0  0  0  0  0  0
  161.9180  209.0090  156.4940 O   0  0  0  0  0  1  0  0  0  0  0  0
  161.5830  210.3670  151.5520 C   0  0  0  0  0  1  0  0  0  0  0  0
  160.4330  209.7940  152.3570 C   0  0  0  0  0  2  0  0  0  0  0  0
  1  7  1  0  0  0  0
  2 14  1  0  0  0  0
  3  2  2  0  0  0  0
  5 10  1  0  0  0  0
  6 13  2  0  0  0  0
  7  5  2  0  0  0  0
  7  3  1  0  0  0  0
  8  9  1  0  0  0  0
  9  4  2  0  0  0  0
 10 11  1  0  0  0  0
 10 14  2  0  0  0  0
 11 12  2  0  0  0  0
 12  6  1  0  0  0  0
 12  9  1  0  0  0  0
 13  4  1  0  0  0  0
 13 23  1  0  0  0  0
 14  8  1  0  0  0  0
 15 19  1  0  0  0  0
 17  5  1  1  0  0  0
 18 16  1  0  0  0  0
 18 22  1  0  0  0  0
 18 17  1  0  0  0  0
 19 16  1  0  0  0  0
 20 18  1  0  0  0  0
 21 15  1  0  0  0  0
 21 20  1  0  0  0  0
 22 17  1  0  0  0  0
 23 24  1  0  0  0  0
 25 26  1  0  0  0  0
 26  6  1  0  0  0  0
M  END
>  <MODEL>
1

>  <REMARK>
 VINA RESULT:      -9.1      0.000      0.000
  Name = 
  3 active torsions:
  status: ('A' for Active; 'I' for Inactive)
    1  A    between atoms: C_7  and  C_10
    2  A    between atoms: C_9  and  C_25
    3  A    between atoms: C_11  and  C_23
                            x       y       z     vdW  Elec       q    Type
                         _______ _______ _______ _____ _____    ______ ____

>  <TORSDO>
F 3

$$$$
=
 OpenBabel11072414413D

 26 30  0  0  1  0  0  0  0  0999 V2000
  161.3010  210.7470  155.7330 O   0  0  0  0  0  1  0  0  0  0  0  0
  161.1950  207.0950  155.2890 C   0  0  0  0  0  3  0  0  0  0  0  0
  161.2430  208.3540  155.8820 C   0  0  0  0  0  3  0  0  0  0  0  0
  161.0780  204.4350  151.3130 C   0  0  0  0  0  3  0  0  0  0  0  0
  161.1370  209.4260  153.6960 C   0  0  0  0  0  0  0  0  0  0  0  0
  161.0510  206.2420  149.8850 C   0  0  0  0  0  0  0  0  0  0  0  0
  161.2270  209.5110  155.1010 C   0  0  0  0  0  0  0  0  0  0  0  0
  161.1220  205.7480  153.3620 O   0  0  0  0  0  0  0  0  0  0  0  0
  161.0890  205.6010  152.0480 C   0  0  0  0  0  0  0  0  0  0  0  0
  161.1240  208.1510  153.0840 C   0  0  0  0  0  0  0  0  0  0  0  0
  161.0990  208.0130  151.6800 C   0  0  0  0  0  3  0  0  0  0  0  0
  161.0760  206.7270  151.1670 C   0  0  0  0  0  0  0  0  0  0  0  0
  161.0490  204.8490  149.9790 C   0  0  0  0  0  0  0  0  0  0  0  0
  161.1430  206.9710  153.9010 C   0  0  0  0  0  0  0  0  0  0  0  0
  157.6380  212.9680  153.5200 O   0  0  0  0  0  0  0  0  0  0  0  0
  158.5250  210.7370  153.3420 C   0  0  0  0  0  2  0  0  0  0  0  0
  161.1440  210.7040  152.8830 C   0  0  2  0  0  3  0  0  0  0  0  0
  159.8070  211.3640  152.7900 C   0  0  0  0  0  0  0  0  0  0  0  0
  157.8270  211.7670  154.2290 C   0  0  0  0  0  2  0  0  0  0  0  0
  159.7690  212.8380  152.4080 C   0  0  0  0  0  2  0  0  0  0  0  0
  158.9020  213.5790  153.4250 C   0  0  0  0  0  2  0  0  0  0  0  0
  160.3190  210.5870  151.7410 O   0  0  0  0  0  0  0  0  0  0  0  0
  161.0810  203.9150  148.8190 C   0  0  0  0  0  2  0  0  0  0  0  0
  160.5020  202.6980  149.1790 O   0  0  0  0  0  1  0  0  0  0  0  0
  162.5200  207.3500  148.2450 C   0  0  0  0  0  1  0  0  0  0  0  0
  161.0850  207.0530  148.6310 C   0  0  0  0  0  2  0  0  0  0  0  0
  2  3  1  0  0  0  0
  4  9  2  0  0  0  0
  5  7  1  0  0  0  0
  6 13  2  0  0  0  0
  6 12  1  0  0  0  0
  7  1  1  0  0  0  0
  7  3  2  0  0  0  0
  8 14  1  0  0  0  0
  9  8  1  0  0  0  0
 10  5  2  0  0  0  0
 10 14  1  0  0  0  0
 11 10  1  0  0  0  0
 12 11  2  0  0  0  0
 12  9  1  0  0  0  0
 13  4  1  0  0  0  0
 14  2  2  0  0  0  0
 15 19  1  0  0  0  0
 16 19  1  0  0  0  0
 17  5  1  1  0  0  0
 18 17  1  0  0  0  0
 18 16  1  0  0  0  0
 20 18  1  0  0  0  0
 20 21  1  0  0  0  0
 21 15  1  0  0  0  0
 22 18  1  0  0  0  0
 22 17  1  0  0  0  0
 23 24  1  0  0  0  0
 23 13  1  0  0  0  0
 25 26  1  0  0  0  0
 26  6  1  0  0  0  0
M  END
>  <MODEL>
2

>  <REMARK>
 VINA RESULT:      -8.4      2.332      7.216
  Name = 
  3 active torsions:
  status: ('A' for Active; 'I' for Inactive)
    1  A    between atoms: C_7  and  C_10
    2  A    between atoms: C_9  and  C_25
    3  A    between atoms: C_11  and  C_23
                            x       y       z     vdW  Elec       q    Type
                         _______ _______ _______ _____ _____    ______ ____

>  <TORSDO>
F 3

$$$$
=
 OpenBabel11072414413D

 26 30  0  0  1  0  0  0  0  0999 V2000
  162.0740  206.6320  153.6200 O   0  0  0  0  0  1  0  0  0  0  0  0
  160.6480  203.4880  152.3420 C   0  0  0  0  0  3  0  0  0  0  0  0
  161.0490  204.5030  153.2080 C   0  0  0  0  0  3  0  0  0  0  0  0
  160.4100  201.7500  147.8900 C   0  0  0  0  0  3  0  0  0  0  0  0
  161.8750  205.8240  151.3340 C   0  0  0  0  0  0  0  0  0  0  0  0
  161.4210  203.5820  146.9250 C   0  0  0  0  0  0  0  0  0  0  0  0
  161.6670  205.6550  152.7180 C   0  0  0  0  0  0  0  0  0  0  0  0
  160.4960  202.6010  150.1690 O   0  0  0  0  0  0  0  0  0  0  0  0
  160.7100  202.6770  148.8670 C   0  0  0  0  0  0  0  0  0  0  0  0
  161.5030  204.7830  150.4510 C   0  0  0  0  0  0  0  0  0  0  0  0
  161.7480  204.8770  149.0650 C   0  0  0  0  0  3  0  0  0  0  0  0
  161.3410  203.8150  148.2740 C   0  0  0  0  0  0  0  0  0  0  0  0
  160.8520  202.3270  146.6970 C   0  0  0  0  0  0  0  0  0  0  0  0
  160.8710  203.6030  150.9710 C   0  0  0  0  0  0  0  0  0  0  0  0
  160.8100  210.5570  152.4680 O   0  0  0  0  0  0  0  0  0  0  0  0
  160.3690  208.3320  151.6580 C   0  0  0  0  0  2  0  0  0  0  0  0
  162.5680  207.0790  150.8450 C   0  0  2  0  0  3  0  0  0  0  0  0
  161.7910  208.3300  151.0930 C   0  0  0  0  0  0  0  0  0  0  0  0
  160.3240  209.2920  152.8480 C   0  0  0  0  0  2  0  0  0  0  0  0
  162.5480  209.6510  151.0700 C   0  0  0  0  0  2  0  0  0  0  0  0
  162.2050  210.4270  152.3420 C   0  0  0  0  0  2  0  0  0  0  0  0
  161.8140  207.7160  149.8320 O   0  0  0  0  0  0  0  0  0  0  0  0
  160.7790  201.6510  145.3710 C   0  0  0  0  0  2  0  0  0  0  0  0
  159.4880  201.7660  144.8550 O   0  0  0  0  0  1  0  0  0  0  0  0
  161.0240  205.4280  145.3410 C   0  0  0  0  0  1  0  0  0  0  0  0
  162.0560  204.4730  145.9090 C   0  0  0  0  0  2  0  0  0  0  0  0
  2  3  1  0  0  0  0
  4  9  2  0  0  0  0
  5  7  1  0  0  0  0
  6 12  1  0  0  0  0
  7  3  2  0  0  0  0
  7  1  1  0  0  0  0
  8 14  1  0  0  0  0
  9  8  1  0  0  0  0
 10 14  1  0  0  0  0
 10  5  2  0  0  0  0
 11 10  1  0  0  0  0
 12  9  1  0  0  0  0
 12 11  2  0  0  0  0
 13  6  2  0  0  0  0
 13  4  1  0  0  0  0
 14  2  2  0  0  0  0
 15 19  1  0  0  0  0
 16 19  1  0  0  0  0
 17 18  1  0  0  0  0
 17  5  1  1  0  0  0
 18 16  1  0  0  0  0
 20 18  1  0  0  0  0
 20 21  1  0  0  0  0
 21 15  1  0  0  0  0
 22 17  1  0  0  0  0
 22 18  1  0  0  0  0
 23 13  1  0  0  0  0
 24 23  1  0  0  0  0
 25 26  1  0  0  0  0
 26  6  1  0  0  0  0
M  END
>  <MODEL>
3

>  <REMARK>
 VINA RESULT:      -8.1      1.984      6.898
  Name = 
  3 active torsions:
  status: ('A' for Active; 'I' for Inactive)
    1  A    between atoms: C_7  and  C_10
    2  A    between atoms: C_9  and  C_25
    3  A    between atoms: C_11  and  C_23
                            x       y       z     vdW  Elec       q    Type
                         _______ _______ _______ _____ _____    ______ ____

>  <TORSDO>
F 3

$$$$
=
 OpenBabel11072414413D

 26 30  0  0  1  0  0  0  0  0999 V2000
  160.6530  211.3360  153.4060 O   0  0  0  0  0  1  0  0  0  0  0  0
  161.9570  210.3100  150.1200 C   0  0  0  0  0  3  0  0  0  0  0  0
  161.6060  211.0910  151.2190 C   0  0  0  0  0  3  0  0  0  0  0  0
  162.0400  206.0240  147.9940 C   0  0  0  0  0  3  0  0  0  0  0  0
  160.7750  209.1260  152.3960 C   0  0  0  0  0  0  0  0  0  0  0  0
  161.0600  204.9220  149.7640 C   0  0  0  0  0  0  0  0  0  0  0  0
  161.0100  210.5150  152.3420 C   0  0  0  0  0  0  0  0  0  0  0  0
  162.0320  208.2200  149.0430 O   0  0  0  0  0  0  0  0  0  0  0  0
  161.7900  206.9210  149.0110 C   0  0  0  0  0  0  0  0  0  0  0  0
  161.0950  208.3300  151.2710 C   0  0  0  0  0  0  0  0  0  0  0  0
  160.8210  206.9460  151.2500 C   0  0  0  0  0  3  0  0  0  0  0  0
  161.1780  206.2440  150.1120 C   0  0  0  0  0  0  0  0  0  0  0  0
  161.5870  204.7940  148.4770 C   0  0  0  0  0  0  0  0  0  0  0  0
  161.7050  208.9380  150.1220 C   0  0  0  0  0  0  0  0  0  0  0  0
  161.9270  209.9120  157.1790 O   0  0  0  0  0  0  0  0  0  0  0  0
  162.3270  209.2700  154.8930 C   0  0  0  0  0  2  0  0  0  0  0  0
  160.1070  208.5420  153.6240 C   0  0  2  0  0  3  0  0  0  0  0  0
  160.9070  208.7010  154.8750 C   0  0  0  0  0  0  0  0  0  0  0  0
  162.3880  210.3860  155.9360 C   0  0  0  0  0  2  0  0  0  0  0  0
  160.1760  208.5780  156.2050 C   0  0  0  0  0  2  0  0  0  0  0  0
  160.5300  209.7900  157.0660 C   0  0  0  0  0  2  0  0  0  0  0  0
  160.8760  207.4890  154.1700 O   0  0  0  0  0  0  0  0  0  0  0  0
  161.6090  203.5320  147.6860 C   0  0  0  0  0  2  0  0  0  0  0  0
  161.5910  203.8300  146.3240 O   0  0  0  0  0  1  0  0  0  0  0  0
  161.4020  203.3550  151.6350 C   0  0  0  0  0  1  0  0  0  0  0  0
  160.4270  203.8450  150.5830 C   0  0  0  0  0  2  0  0  0  0  0  0
  2 14  2  0  0  0  0
  2  3  1  0  0  0  0
  3  7  2  0  0  0  0
  4 13  1  0  0  0  0
  4  9  2  0  0  0  0
  6 12  1  0  0  0  0
  6 26  1  0  0  0  0
  7  5  1  0  0  0  0
  7  1  1  0  0  0  0
  8 14  1  0  0  0  0
  9  8  1  0  0  0  0
  9 12  1  0  0  0  0
 10  5  2  0  0  0  0
 11 10  1  0  0  0  0
 12 11  2  0  0  0  0
 13  6  2  0  0  0  0
 14 10  1  0  0  0  0
 16 19  1  0  0  0  0
 17  5  1  6  0  0  0
 17 22  1  0  0  0  0
 17 18  1  0  0  0  0
 18 16  1  0  0  0  0
 18 20  1  0  0  0  0
 19 15  1  0  0  0  0
 20 21  1  0  0  0  0
 21 15  1  0  0  0  0
 22 18  1  0  0  0  0
 23 13  1  0  0  0  0
 24 23  1  0  0  0  0
 26 25  1  0  0  0  0
M  END
>  <MODEL>
4

>  <REMARK>
 VINA RESULT:      -6.6      1.620      7.821
  Name = 
  3 active torsions:
  status: ('A' for Active; 'I' for Inactive)
    1  A    between atoms: C_7  and  C_10
    2  A    between atoms: C_9  and  C_25
    3  A    between atoms: C_11  and  C_23
                            x       y       z     vdW  Elec       q    Type
                         _______ _______ _______ _____ _____    ______ ____

>  <TORSDO>
F 3

$$$$
=
 OpenBabel11072414413D

 26 30  0  0  1  0  0  0  0  0999 V2000
  162.1870  203.5140  145.2610 O   0  0  0  0  0  1  0  0  0  0  0  0
  161.6200  206.8350  146.7440 C   0  0  0  0  0  3  0  0  0  0  0  0
  161.8460  205.8230  145.8140 C   0  0  0  0  0  3  0  0  0  0  0  0
  161.0030  208.1560  151.3010 C   0  0  0  0  0  3  0  0  0  0  0  0
  161.7730  204.1410  147.5750 C   0  0  0  0  0  0  0  0  0  0  0  0
  161.1310  206.0110  152.1320 C   0  0  0  0  0  0  0  0  0  0  0  0
  161.9360  204.4910  146.2190 C   0  0  0  0  0  0  0  0  0  0  0  0
  161.2980  207.5290  148.9680 O   0  0  0  0  0  0  0  0  0  0  0  0
  161.1890  207.2710  150.2600 C   0  0  0  0  0  0  0  0  0  0  0  0
  161.5780  205.1660  148.5310 C   0  0  0  0  0  0  0  0  0  0  0  0
  161.4730  204.8730  149.9070 C   0  0  0  0  0  3  0  0  0  0  0  0
  161.2730  205.9370  150.7700 C   0  0  0  0  0  0  0  0  0  0  0  0
  160.9650  207.3610  152.4490 C   0  0  0  0  0  0  0  0  0  0  0  0
  161.4910  206.5320  148.0980 C   0  0  0  0  0  0  0  0  0  0  0  0
  159.9580  200.1420  145.2210 O   0  0  0  0  0  0  0  0  0  0  0  0
  159.8680  202.2900  146.3060 C   0  0  0  0  0  2  0  0  0  0  0  0
  161.8970  202.6850  147.9770 C   0  0  2  0  0  3  0  0  0  0  0  0
  160.9540  201.7800  147.2560 C   0  0  0  0  0  0  0  0  0  0  0  0
  159.9850  201.5290  144.9850 C   0  0  0  0  0  2  0  0  0  0  0  0
  161.2800  200.2930  147.2280 C   0  0  0  0  0  2  0  0  0  0  0  0
  161.2060  199.8080  145.7800 C   0  0  0  0  0  2  0  0  0  0  0  0
  160.7010  202.2140  148.5650 O   0  0  0  0  0  0  0  0  0  0  0  0
  160.8310  207.9020  153.8310 C   0  0  0  0  0  2  0  0  0  0  0  0
  160.8420  209.2970  153.7920 O   0  0  0  0  0  1  0  0  0  0  0  0
  160.8310  203.5780  152.3930 C   0  0  0  0  0  1  0  0  0  0  0  0
  161.2060  204.8700  153.0920 C   0  0  0  0  0  2  0  0  0  0  0  0
  1  7  1  0  0  0  0
  2 14  1  0  0  0  0
  3  7  1  0  0  0  0
  3  2  2  0  0  0  0
  4 13  1  0  0  0  0
  5 10  1  0  0  0  0
  6 13  2  0  0  0  0
  6 26  1  0  0  0  0
  7  5  2  0  0  0  0
  8  9  1  0  0  0  0
  9 12  1  0  0  0  0
  9  4  2  0  0  0  0
 10 11  1  0  0  0  0
 11 12  2  0  0  0  0
 12  6  1  0  0  0  0
 13 23  1  0  0  0  0
 14 10  2  0  0  0  0
 14  8  1  0  0  0  0
 15 21  1  0  0  0  0
 16 18  1  0  0  0  0
 17  5  1  6  0  0  0
 17 22  1  0  0  0  0
 18 17  1  0  0  0  0
 18 22  1  0  0  0  0
 19 15  1  0  0  0  0
 19 16  1  0  0  0  0
 20 18  1  0  0  0  0
 21 20  1  0  0  0  0
 24 23  1  0  0  0  0
 25 26  1  0  0  0  0
M  END
>  <MODEL>
5

>  <REMARK>
 VINA RESULT:      -6.6      2.259      4.299
  Name = 
  3 active torsions:
  status: ('A' for Active; 'I' for Inactive)
    1  A    between atoms: C_7  and  C_10
    2  A    between atoms: C_9  and  C_25
    3  A    between atoms: C_11  and  C_23
                            x       y       z     vdW  Elec       q    Type
                         _______ _______ _______ _____ _____    ______ ____

>  <TORSDO>
F 3

$$$$
