=
 OpenBabel11072414473D

 45 50  0  0  1  0  0  0  0  0999 V2000
  159.4120  213.1690  150.1620 C   0  0  0  0  0  0  0  0  0  0  0  0
  160.3330  212.2850  150.6330 C   0  0  0  0  0  0  0  0  0  0  0  0
  158.9250  211.7530  154.0900 C   0  0  0  0  0  0  0  0  0  0  0  0
  157.4920  211.8420  156.1950 C   0  0  0  0  0  1  0  0  0  0  0  0
  158.3680  213.5830  150.9100 N   0  0  0  0  0  0  0  0  0  0  0  0
  157.1340  213.5620  152.9280 C   0  0  0  0  0  3  0  0  0  0  0  0
  159.7360  213.5630  148.7670 C   0  0  0  0  0  3  0  0  0  0  0  0
  158.2190  213.1180  152.1820 C   0  0  0  0  0  0  0  0  0  0  0  0
  159.1520  212.1930  152.7510 C   0  0  0  0  0  0  0  0  0  0  0  0
  156.9490  213.1270  154.1950 N   0  0  0  0  0  0  0  0  0  0  0  0
  160.2530  211.7720  151.9330 C   0  0  0  0  0  0  0  0  0  0  0  0
  161.3230  210.8300  152.3890 C   0  0  0  0  0  1  0  0  0  0  0  0
  157.7960  212.2510  154.7910 C   0  0  1  0  0  3  0  0  0  0  0  0
  160.9480  212.7850  148.4990 N   0  0  0  0  0  0  0  0  0  0  0  0
  161.2770  212.0860  149.5410 C   0  0  0  0  0  0  0  0  0  0  0  0
  161.9950  209.1350  156.0260 C   0  0  0  0  0  2  0  0  0  0  0  0
  160.7900  208.5690  156.7610 C   0  0  2  0  0  3  0  0  0  0  0  0
  162.0180  210.6700  156.0940 C   0  0  1  0  0  3  0  0  0  0  0  0
  159.1500  209.4790  155.0760 C   0  0  0  0  0  3  0  0  0  0  0  0
  161.1010  207.3170  157.2570 F   0  0  0  0  0  0  0  0  0  0  0  0
  160.6560  211.3770  155.9500 C   0  0  2  0  0  3  0  0  0  0  0  0
  158.7910  207.3750  155.9650 F   0  0  0  0  0  0  0  0  0  0  0  0
  159.5670  208.4880  155.8840 C   0  0  0  0  0  0  0  0  0  0  0  0
  159.8620  210.7780  154.7750 C   0  0  2  0  0  3  0  0  0  0  0  0
  160.8840  212.7420  155.7530 O   0  0  0  0  0  1  0  0  0  0  0  0
  164.1580  211.1520  156.7590 C   0  0  0  0  0  1  0  0  0  0  0  0
  162.8110  211.1690  157.1510 O   0  0  0  0  0  0  0  0  0  0  0  0
  162.4390  211.1480  149.5300 C   0  0  0  0  0  2  0  0  0  0  0  0
  162.1270  209.8630  150.2950 C   0  0  0  0  0  2  0  0  0  0  0  0
  161.2330  206.8610  153.1780 N   0  0  0  0  0  0  0  0  0  0  0  0
  161.5840  207.0970  151.0230 N   0  0  0  0  0  0  0  0  0  0  0  0
  161.4540  208.8910  149.4390 N   0  0  0  0  0  0  0  0  0  0  0  0
  161.7090  205.7540  151.2180 O   0  0  0  0  0  0  0  0  0  0  0  0
  161.4630  205.6350  152.5540 N   0  0  0  0  0  2  0  0  0  0  0  0
  161.2190  207.6480  149.7470 C   0  0  0  0  0  0  0  0  0  0  0  0
  161.2940  207.7380  152.2530 C   0  0  0  0  0  3  0  0  0  0  0  0
  160.6300  206.7530  148.7050 C   0  0  0  0  0  2  0  0  0  0  0  0
  162.8500  204.9660  146.1430 C   0  0  0  0  0  2  0  0  0  0  0  0
  161.5330  203.3560  147.5750 C   0  0  0  0  0  3  0  0  0  0  0  0
  161.2590  204.3510  148.4340 C   0  0  0  0  0  3  0  0  0  0  0  0
  161.9170  206.0400  146.6890 C   0  0  0  0  0  2  0  0  0  0  0  0
  161.6710  205.7790  148.1710 C   0  0  1  0  0  3  0  0  0  0  0  0
  162.1800  203.5900  146.2310 C   0  0  1  0  0  3  0  0  0  0  0  0
  160.6310  202.2200  145.4380 C   0  0  0  0  0  1  0  0  0  0  0  0
  161.2190  203.4680  145.2250 O   0  0  0  0  0  0  0  0  0  0  0  0
  1  2  1  0  0  0  0
  1  5  1  0  0  0  0
  2 11  2  0  0  0  0
  3 13  1  0  0  0  0
  5  8  2  0  0  0  0
  6 10  2  0  0  0  0
  7  1  2  0  0  0  0
  8  9  1  0  0  0  0
  8  6  1  0  0  0  0
  9  3  2  0  0  0  0
 10 13  1  0  0  0  0
 11 12  1  0  0  0  0
 11  9  1  0  0  0  0
 13  4  1  1  0  0  0
 14  7  1  0  0  0  0
 14 15  2  0  0  0  0
 15  2  1  0  0  0  0
 16 18  1  0  0  0  0
 16 17  1  0  0  0  0
 17 20  1  6  0  0  0
 18 27  1  1  0  0  0
 19 23  2  0  0  0  0
 21 25  1  6  0  0  0
 21 18  1  0  0  0  0
 23 22  1  0  0  0  0
 23 17  1  0  0  0  0
 24  3  1  1  0  0  0
 24 19  1  0  0  0  0
 24 21  1  0  0  0  0
 26 27  1  0  0  0  0
 28 15  1  0  0  0  0
 28 29  1  0  0  0  0
 31 33  1  0  0  0  0
 31 36  1  0  0  0  0
 32 35  2  0  0  0  0
 32 29  1  0  0  0  0
 33 34  1  0  0  0  0
 34 30  1  0  0  0  0
 35 31  1  0  0  0  0
 36 30  2  0  0  0  0
 37 35  1  0  0  0  0
 38 43  1  0  0  0  0
 38 41  1  0  0  0  0
 39 40  2  0  0  0  0
 41 42  1  0  0  0  0
 42 40  1  0  0  0  0
 42 37  1  6  0  0  0
 43 45  1  6  0  0  0
 43 39  1  0  0  0  0
 45 44  1  0  0  0  0
M  END
>  <MODEL>
1

>  <REMARK>
 VINA RESULT:      -7.6      0.000      0.000
  Name = 
  8 active torsions:
  status: ('A' for Active; 'I' for Inactive)
    1  A    between atoms: C_8  and  C_9
    2  A    between atoms: C_8  and  N_16
    3  A    between atoms: C_9  and  C_44
    4  A    between atoms: C_11  and  C_38
    5  A    between atoms: C_19  and  O_26
    6  A    between atoms: C_27  and  C_33
    7  A    between atoms: C_33  and  C_42
    8  A    between atoms: O_40  and  C_45
                            x       y       z     vdW  Elec       q    Type
                         _______ _______ _______ _____ _____    ______ ____

>  <TORSDO>
F 8

$$$$
=
 OpenBabel11072414473D

 45 50  0  0  1  0  0  0  0  0999 V2000
  158.7600  214.0540  145.3630 C   0  0  0  0  0  0  0  0  0  0  0  0
  159.9640  213.4710  145.1180 C   0  0  0  0  0  0  0  0  0  0  0  0
  159.7570  213.2430  141.3600 C   0  0  0  0  0  0  0  0  0  0  0  0
  159.0000  213.3940  138.9320 C   0  0  0  0  0  1  0  0  0  0  0  0
  157.9040  214.3750  144.3690 N   0  0  0  0  0  0  0  0  0  0  0  0
  157.3370  214.4520  142.0750 C   0  0  0  0  0  3  0  0  0  0  0  0
  158.5710  214.2660  146.8210 C   0  0  0  0  0  2  0  0  0  0  0  0
  158.2370  214.1090  143.0750 C   0  0  0  0  0  0  0  0  0  0  0  0
  159.4830  213.4880  142.7400 C   0  0  0  0  0  0  0  0  0  0  0  0
  157.6270  214.2040  140.7770 N   0  0  0  0  0  0  0  0  0  0  0  0
  160.3720  213.1560  143.8160 C   0  0  0  0  0  0  0  0  0  0  0  0
  161.6960  212.4850  143.6310 C   0  0  0  0  0  1  0  0  0  0  0  0
  158.7890  213.6200  140.3930 C   0  0  0  0  0  0  0  0  0  0  0  0
  159.8220  213.7420  147.3730 N   0  0  0  0  0  0  0  0  0  0  0  0
  160.5860  213.2950  146.4240 C   0  0  0  0  0  0  0  0  0  0  0  0
  163.4440  210.9710  140.2300 C   0  0  0  0  0  2  0  0  0  0  0  0
  163.5280  212.0090  139.1230 C   0  0  2  0  0  3  0  0  0  0  0  0
  162.0430  210.3440  140.3000 C   0  0  1  0  0  3  0  0  0  0  0  0
  161.9810  213.6110  140.3030 C   0  0  0  0  0  3  0  0  0  0  0  0
  164.8230  212.0630  138.6420 F   0  0  0  0  0  0  0  0  0  0  0  0
  160.8570  211.3040  140.0840 C   0  0  2  0  0  3  0  0  0  0  0  0
  163.8170  214.4520  139.1780 F   0  0  0  0  0  0  0  0  0  0  0  0
  163.0900  213.3760  139.5800 C   0  0  0  0  0  0  0  0  0  0  0  0
  161.0480  212.5880  140.9120 C   0  0  2  0  0  3  0  0  0  0  0  0
  159.6800  210.6450  140.4530 O   0  0  0  0  0  1  0  0  0  0  0  0
  161.9110  208.0620  140.4800 C   0  0  0  0  0  1  0  0  0  0  0  0
  161.9370  209.1350  139.5760 O   0  0  0  0  0  0  0  0  0  0  0  0
  161.9540  212.7610  146.6950 C   0  0  0  0  0  2  0  0  0  0  0  0
  162.0880  212.2780  148.1370 C   0  0  0  0  0  2  0  0  0  0  0  0
  160.4610  211.4480  151.9840 N   0  0  0  0  0  0  0  0  0  0  0  0
  161.9270  210.6590  150.5520 N   0  0  0  0  0  0  0  0  0  0  0  0
  162.3050  210.8350  148.1920 N   0  0  0  0  0  0  0  0  0  0  0  0
  162.2430  210.0180  151.7130 O   0  0  0  0  0  0  0  0  0  0  0  0
  161.3040  210.5070  152.5730 N   0  0  0  0  0  2  0  0  0  0  0  0
  162.2500  210.1020  149.2670 C   0  0  0  0  0  0  0  0  0  0  0  0
  160.8290  211.5280  150.7640 C   0  0  0  0  0  3  0  0  0  0  0  0
  162.6210  208.6580  149.1660 C   0  0  0  0  0  2  0  0  0  0  0  0
  160.7200  205.8380  150.9320 C   0  0  0  0  0  2  0  0  0  0  0  0
  160.4360  205.7760  148.4230 C   0  0  0  0  0  3  0  0  0  0  0  0
  160.9190  207.0270  148.3420 C   0  0  0  0  0  3  0  0  0  0  0  0
  161.8590  206.8160  150.6670 C   0  0  0  0  0  2  0  0  0  0  0  0
  161.4480  207.7670  149.5470 C   0  0  1  0  0  3  0  0  0  0  0  0
  160.4750  204.9650  149.6960 C   0  0  1  0  0  3  0  0  0  0  0  0
  161.0780  203.1730  148.5420 C   0  0  0  0  0  1  0  0  0  0  0  0
  161.4750  203.9950  149.5980 O   0  0  0  0  0  0  0  0  0  0  0  0
  1  7  1  0  0  0  0
  2  1  2  0  0  0  0
  2 15  1  0  0  0  0
  3  9  1  0  0  0  0
  4 13  1  0  0  0  0
  5  1  1  0  0  0  0
  6  8  1  0  0  0  0
  7 14  1  0  0  0  0
  8  5  2  0  0  0  0
  9  8  1  0  0  0  0
  9 11  2  0  0  0  0
 10  6  2  0  0  0  0
 11  2  1  0  0  0  0
 12 11  1  0  0  0  0
 13 10  1  0  0  0  0
 13  3  2  0  0  0  0
 15 28  1  0  0  0  0
 15 14  2  0  0  0  0
 16 18  1  0  0  0  0
 17 20  1  1  0  0  0
 17 23  1  0  0  0  0
 17 16  1  0  0  0  0
 18 27  1  6  0  0  0
 19 24  1  0  0  0  0
 21 18  1  0  0  0  0
 21 25  1  1  0  0  0
 21 24  1  0  0  0  0
 22 23  1  0  0  0  0
 23 19  2  0  0  0  0
 24  3  1  6  0  0  0
 27 26  1  0  0  0  0
 28 29  1  0  0  0  0
 29 32  1  0  0  0  0
 30 34  1  0  0  0  0
 31 36  1  0  0  0  0
 31 33  1  0  0  0  0
 32 35  2  0  0  0  0
 33 34  1  0  0  0  0
 35 31  1  0  0  0  0
 36 30  2  0  0  0  0
 37 35  1  0  0  0  0
 39 43  1  0  0  0  0
 40 39  2  0  0  0  0
 40 42  1  0  0  0  0
 41 38  1  0  0  0  0
 42 37  1  6  0  0  0
 42 41  1  0  0  0  0
 43 45  1  6  0  0  0
 43 38  1  0  0  0  0
 44 45  1  0  0  0  0
M  END
>  <MODEL>
2

>  <REMARK>
 VINA RESULT:      -7.2      6.771     10.630
  Name = 
  8 active torsions:
  status: ('A' for Active; 'I' for Inactive)
    1  A    between atoms: C_8  and  C_9
    2  A    between atoms: C_8  and  N_16
    3  A    between atoms: C_9  and  C_44
    4  A    between atoms: C_11  and  C_38
    5  A    between atoms: C_19  and  O_26
    6  A    between atoms: C_27  and  C_33
    7  A    between atoms: C_33  and  C_42
    8  A    between atoms: O_40  and  C_45
                            x       y       z     vdW  Elec       q    Type
                         _______ _______ _______ _____ _____    ______ ____

>  <TORSDO>
F 8

$$$$
=
 OpenBabel11072414473D

 45 50  0  0  1  0  0  0  0  0999 V2000
  161.8820  207.5920  150.2280 C   0  0  0  0  0  0  0  0  0  0  0  0
  161.7340  208.9280  150.4380 C   0  0  0  0  0  0  0  0  0  0  0  0
  160.7840  208.8510  154.0870 C   0  0  0  0  0  0  0  0  0  0  0  0
  160.2200  208.1110  156.4580 C   0  0  0  0  0  1  0  0  0  0  0  0
  161.6940  206.6870  151.2120 N   0  0  0  0  0  0  0  0  0  0  0  0
  161.1540  206.1510  153.4510 C   0  0  0  0  0  3  0  0  0  0  0  0
  162.2680  207.3280  148.8180 C   0  0  0  0  0  3  0  0  0  0  0  0
  161.3390  207.1050  152.4590 C   0  0  0  0  0  0  0  0  0  0  0  0
  161.1560  208.4940  152.7540 C   0  0  0  0  0  0  0  0  0  0  0  0
  160.8000  206.5220  154.7020 N   0  0  0  0  0  0  0  0  0  0  0  0
  161.3600  209.4340  151.6890 C   0  0  0  0  0  0  0  0  0  0  0  0
  161.1860  210.9130  151.8330 C   0  0  0  0  0  1  0  0  0  0  0  0
  160.6110  207.8190  155.0470 C   0  0  2  0  0  3  0  0  0  0  0  0
  162.3330  208.6790  148.2570 N   0  0  0  0  0  0  0  0  0  0  0  0
  162.0280  209.5600  149.1590 C   0  0  0  0  0  0  0  0  0  0  0  0
  159.8900  213.1490  154.9540 C   0  0  0  0  0  2  0  0  0  0  0  0
  160.3250  212.7700  156.3600 C   0  0  2  0  0  3  0  0  0  0  0  0
  158.8530  212.1560  154.4060 C   0  0  1  0  0  3  0  0  0  0  0  0
  161.5240  210.6910  155.5890 C   0  0  0  0  0  3  0  0  0  0  0  0
  160.6790  213.9130  157.0550 F   0  0  0  0  0  0  0  0  0  0  0  0
  159.0930  210.6700  154.7390 C   0  0  2  0  0  3  0  0  0  0  0  0
  162.4750  211.9780  157.2580 F   0  0  0  0  0  0  0  0  0  0  0  0
  161.4680  211.7880  156.3650 C   0  0  0  0  0  0  0  0  0  0  0  0
  160.5650  210.2950  154.4900 C   0  0  2  0  0  3  0  0  0  0  0  0
  158.2400  209.8950  153.9470 O   0  0  0  0  0  1  0  0  0  0  0  0
  157.2860  213.7300  153.8400 C   0  0  0  0  0  1  0  0  0  0  0  0
  157.5190  212.5760  154.6040 O   0  0  0  0  0  0  0  0  0  0  0  0
  162.0750  211.0260  148.8790 C   0  0  0  0  0  2  0  0  0  0  0  0
  160.9990  211.4380  147.8770 C   0  0  0  0  0  2  0  0  0  0  0  0
  157.5800  213.9750  147.9260 N   0  0  0  0  0  0  0  0  0  0  0  0
  159.3040  213.4710  146.6630 N   0  0  0  0  0  0  0  0  0  0  0  0
  161.4720  212.5080  147.0040 N   0  0  0  0  0  0  0  0  0  0  0  0
  158.4700  214.1310  145.8110 O   0  0  0  0  0  0  0  0  0  0  0  0
  157.4240  214.4520  146.6250 N   0  0  0  0  0  2  0  0  0  0  0  0
  160.7230  213.4140  146.4440 C   0  0  0  0  0  0  0  0  0  0  0  0
  158.7170  213.3960  147.9500 C   0  0  0  0  0  3  0  0  0  0  0  0
  161.3540  214.3640  145.4780 C   0  0  0  0  0  2  0  0  0  0  0  0
  160.1600  212.3190  142.4660 C   0  0  0  0  0  2  0  0  0  0  0  0
  162.1690  213.7520  141.9290 C   0  0  0  0  0  3  0  0  0  0  0  0
  161.9660  214.4510  143.0580 C   0  0  0  0  0  3  0  0  0  0  0  0
  160.4760  212.6180  143.9260 C   0  0  0  0  0  2  0  0  0  0  0  0
  160.8950  214.0790  144.0550 C   0  0  1  0  0  3  0  0  0  0  0  0
  161.4200  212.4810  141.6080 C   0  0  1  0  0  3  0  0  0  0  0  0
  162.3610  210.7820  140.5420 C   0  0  0  0  0  1  0  0  0  0  0  0
  162.2640  211.3840  141.7980 O   0  0  0  0  0  0  0  0  0  0  0  0
  1  2  1  0  0  0  0
  1  5  1  0  0  0  0
  2 11  2  0  0  0  0
  3 13  1  0  0  0  0
  5  8  2  0  0  0  0
  6 10  2  0  0  0  0
  7  1  2  0  0  0  0
  8  9  1  0  0  0  0
  8  6  1  0  0  0  0
  9  3  2  0  0  0  0
 10 13  1  0  0  0  0
 11 12  1  0  0  0  0
 11  9  1  0  0  0  0
 13  4  1  1  0  0  0
 14  7  1  0  0  0  0
 14 15  2  0  0  0  0
 15  2  1  0  0  0  0
 16 17  1  0  0  0  0
 17 23  1  0  0  0  0
 17 20  1  1  0  0  0
 18 27  1  1  0  0  0
 18 21  1  0  0  0  0
 18 16  1  0  0  0  0
 19 23  2  0  0  0  0
 21 25  1  6  0  0  0
 23 22  1  0  0  0  0
 24  3  1  1  0  0  0
 24 21  1  0  0  0  0
 24 19  1  0  0  0  0
 26 27  1  0  0  0  0
 28 15  1  0  0  0  0
 29 28  1  0  0  0  0
 30 36  2  0  0  0  0
 31 36  1  0  0  0  0
 32 29  1  0  0  0  0
 33 34  1  0  0  0  0
 33 31  1  0  0  0  0
 34 30  1  0  0  0  0
 35 31  1  0  0  0  0
 35 32  2  0  0  0  0
 37 35  1  0  0  0  0
 38 41  1  0  0  0  0
 39 40  2  0  0  0  0
 40 42  1  0  0  0  0
 41 42  1  0  0  0  0
 42 37  1  1  0  0  0
 43 45  1  1  0  0  0
 43 39  1  0  0  0  0
 43 38  1  0  0  0  0
 44 45  1  0  0  0  0
M  END
>  <MODEL>
3

>  <REMARK>
 VINA RESULT:      -6.6      3.876      6.798
  Name = 
  8 active torsions:
  status: ('A' for Active; 'I' for Inactive)
    1  A    between atoms: C_8  and  C_9
    2  A    between atoms: C_8  and  N_16
    3  A    between atoms: C_9  and  C_44
    4  A    between atoms: C_11  and  C_38
    5  A    between atoms: C_19  and  O_26
    6  A    between atoms: C_27  and  C_33
    7  A    between atoms: C_33  and  C_42
    8  A    between atoms: O_40  and  C_45
                            x       y       z     vdW  Elec       q    Type
                         _______ _______ _______ _____ _____    ______ ____

>  <TORSDO>
F 8

$$$$
=
 OpenBabel11072414473D

 45 50  0  0  1  0  0  0  0  0999 V2000
  158.5610  213.8170  145.5110 C   0  0  0  0  0  0  0  0  0  0  0  0
  159.7590  213.2160  145.2740 C   0  0  0  0  0  0  0  0  0  0  0  0
  159.6880  213.2230  141.5040 C   0  0  0  0  0  0  0  0  0  0  0  0
  159.0260  213.5410  139.0650 C   0  0  0  0  0  1  0  0  0  0  0  0
  157.7530  214.2210  144.5090 N   0  0  0  0  0  0  0  0  0  0  0  0
  157.2740  214.4530  142.2040 C   0  0  0  0  0  3  0  0  0  0  0  0
  158.3240  213.9450  146.9710 C   0  0  0  0  0  2  0  0  0  0  0  0
  158.1270  214.0250  143.2140 C   0  0  0  0  0  0  0  0  0  0  0  0
  159.3680  213.3910  142.8860 C   0  0  0  0  0  0  0  0  0  0  0  0
  157.6060  214.2760  140.9050 N   0  0  0  0  0  0  0  0  0  0  0  0
  160.2070  212.9700  143.9710 C   0  0  0  0  0  0  0  0  0  0  0  0
  161.5200  212.2750  143.7930 C   0  0  0  0  0  1  0  0  0  0  0  0
  158.7660  213.6840  140.5280 C   0  0  0  0  0  0  0  0  0  0  0  0
  159.5400  213.3550  147.5350 N   0  0  0  0  0  0  0  0  0  0  0  0
  160.3260  212.9450  146.5880 C   0  0  0  0  0  0  0  0  0  0  0  0
  163.3540  210.9210  140.3670 C   0  0  0  0  0  2  0  0  0  0  0  0
  163.5130  212.0280  139.3380 C   0  0  2  0  0  3  0  0  0  0  0  0
  161.9340  210.3330  140.3370 C   0  0  1  0  0  3  0  0  0  0  0  0
  161.9630  213.5940  140.5640 C   0  0  0  0  0  3  0  0  0  0  0  0
  164.8280  212.0750  138.9130 F   0  0  0  0  0  0  0  0  0  0  0  0
  160.7850  211.3420  140.1420 C   0  0  2  0  0  3  0  0  0  0  0  0
  163.8670  214.4520  139.5730 F   0  0  0  0  0  0  0  0  0  0  0  0
  163.0940  213.3740  139.8710 C   0  0  0  0  0  0  0  0  0  0  0  0
  160.9780  212.5600  141.0630 C   0  0  2  0  0  3  0  0  0  0  0  0
  159.5760  210.6960  140.4170 O   0  0  0  0  0  1  0  0  0  0  0  0
  161.6970  209.5740  138.1870 C   0  0  0  0  0  1  0  0  0  0  0  0
  161.8250  209.1800  139.5280 O   0  0  0  0  0  0  0  0  0  0  0  0
  161.6690  212.3570  146.8750 C   0  0  0  0  0  2  0  0  0  0  0  0
  161.5490  210.9500  147.4550 C   0  0  0  0  0  2  0  0  0  0  0  0
  161.9690  206.7460  147.9870 N   0  0  0  0  0  0  0  0  0  0  0  0
  161.5680  208.5730  149.1370 N   0  0  0  0  0  0  0  0  0  0  0  0
  161.9740  210.9180  148.8520 N   0  0  0  0  0  0  0  0  0  0  0  0
  161.1900  207.5760  149.9860 O   0  0  0  0  0  0  0  0  0  0  0  0
  161.4720  206.4580  149.2570 N   0  0  0  0  0  2  0  0  0  0  0  0
  161.9730  209.8660  149.6190 C   0  0  0  0  0  0  0  0  0  0  0  0
  162.0390  208.0190  147.9220 C   0  0  0  0  0  3  0  0  0  0  0  0
  162.3220  210.0340  151.0620 C   0  0  0  0  0  2  0  0  0  0  0  0
  159.5920  210.8350  153.6290 C   0  0  0  0  0  2  0  0  0  0  0  0
  160.8440  208.7100  154.1760 C   0  0  0  0  0  3  0  0  0  0  0  0
  161.3490  208.6930  152.9320 C   0  0  0  0  0  3  0  0  0  0  0  0
  160.7190  211.1120  152.6420 C   0  0  0  0  0  2  0  0  0  0  0  0
  161.1040  209.8110  151.9460 C   0  0  1  0  0  3  0  0  0  0  0  0
  160.0770  209.8870  154.7320 C   0  0  1  0  0  3  0  0  0  0  0  0
  161.5420  209.5960  156.3670 C   0  0  0  0  0  1  0  0  0  0  0  0
  160.8860  210.5850  155.6320 O   0  0  0  0  0  0  0  0  0  0  0  0
  1  7  1  0  0  0  0
  2  1  2  0  0  0  0
  2 15  1  0  0  0  0
  3  9  1  0  0  0  0
  4 13  1  0  0  0  0
  5  1  1  0  0  0  0
  6  8  1  0  0  0  0
  7 14  1  0  0  0  0
  8  5  2  0  0  0  0
  9  8  1  0  0  0  0
  9 11  2  0  0  0  0
 10  6  2  0  0  0  0
 11  2  1  0  0  0  0
 12 11  1  0  0  0  0
 13 10  1  0  0  0  0
 13  3  2  0  0  0  0
 15 28  1  0  0  0  0
 15 14  2  0  0  0  0
 17 20  1  1  0  0  0
 17 23  1  0  0  0  0
 17 16  1  0  0  0  0
 18 27  1  6  0  0  0
 18 16  1  0  0  0  0
 19 24  1  0  0  0  0
 21 18  1  0  0  0  0
 21 25  1  1  0  0  0
 21 24  1  0  0  0  0
 22 23  1  0  0  0  0
 23 19  2  0  0  0  0
 24  3  1  6  0  0  0
 26 27  1  0  0  0  0
 28 29  1  0  0  0  0
 29 32  1  0  0  0  0
 30 34  1  0  0  0  0
 31 35  1  0  0  0  0
 31 33  1  0  0  0  0
 32 35  2  0  0  0  0
 34 33  1  0  0  0  0
 35 37  1  0  0  0  0
 36 30  2  0  0  0  0
 36 31  1  0  0  0  0
 38 43  1  0  0  0  0
 39 43  1  0  0  0  0
 40 39  2  0  0  0  0
 41 38  1  0  0  0  0
 42 37  1  1  0  0  0
 42 41  1  0  0  0  0
 42 40  1  0  0  0  0
 43 45  1  1  0  0  0
 45 44  1  0  0  0  0
M  END
>  <MODEL>
4

>  <REMARK>
 VINA RESULT:      -6.1      6.691     11.243
  Name = 
  8 active torsions:
  status: ('A' for Active; 'I' for Inactive)
    1  A    between atoms: C_8  and  C_9
    2  A    between atoms: C_8  and  N_16
    3  A    between atoms: C_9  and  C_44
    4  A    between atoms: C_11  and  C_38
    5  A    between atoms: C_19  and  O_26
    6  A    between atoms: C_27  and  C_33
    7  A    between atoms: C_33  and  C_42
    8  A    between atoms: O_40  and  C_45
                            x       y       z     vdW  Elec       q    Type
                         _______ _______ _______ _____ _____    ______ ____

>  <TORSDO>
F 8

$$$$
=
 OpenBabel11072414473D

 45 50  0  0  1  0  0  0  0  0999 V2000
  161.2570  211.5920  149.8090 C   0  0  0  0  0  0  0  0  0  0  0  0
  161.1510  210.9920  151.0250 C   0  0  0  0  0  0  0  0  0  0  0  0
  158.1630  212.8710  152.3530 C   0  0  0  0  0  0  0  0  0  0  0  0
  156.1860  214.4530  152.6270 C   0  0  0  0  0  1  0  0  0  0  0  0
  160.4050  212.5610  149.4120 N   0  0  0  0  0  0  0  0  0  0  0  0
  158.5440  213.9660  149.8060 C   0  0  0  0  0  3  0  0  0  0  0  0
  162.3970  211.0230  149.0460 C   0  0  0  0  0  3  0  0  0  0  0  0
  159.4060  212.9680  150.2430 C   0  0  0  0  0  0  0  0  0  0  0  0
  159.2360  212.3900  151.5420 C   0  0  0  0  0  0  0  0  0  0  0  0
  157.5400  214.4010  150.6000 N   0  0  0  0  0  0  0  0  0  0  0  0
  160.1570  211.3630  151.9390 C   0  0  0  0  0  0  0  0  0  0  0  0
  160.1260  210.6790  153.2690 C   0  0  0  0  0  1  0  0  0  0  0  0
  157.3250  213.8950  151.8390 C   0  0  2  0  0  3  0  0  0  0  0  0
  162.9180  210.0170  149.9740 N   0  0  0  0  0  0  0  0  0  0  0  0
  162.2270  210.0110  151.0720 C   0  0  0  0  0  0  0  0  0  0  0  0
  157.7930  211.3670  156.5510 C   0  0  0  0  0  2  0  0  0  0  0  0
  156.3030  211.4870  156.2730 C   0  0  2  0  0  3  0  0  0  0  0  0
  158.5360  212.6560  156.1700 C   0  0  1  0  0  3  0  0  0  0  0  0
  156.6220  211.5290  153.7730 C   0  0  0  0  0  3  0  0  0  0  0  0
  155.6030  210.6950  157.1650 F   0  0  0  0  0  0  0  0  0  0  0  0
  158.0720  213.3500  154.8740 C   0  0  2  0  0  3  0  0  0  0  0  0
  154.8360  210.3560  154.6540 F   0  0  0  0  0  0  0  0  0  0  0  0
  155.9480  211.1090  154.8590 C   0  0  0  0  0  0  0  0  0  0  0  0
  157.9100  212.3210  153.7420 C   0  0  2  0  0  3  0  0  0  0  0  0
  159.0150  214.3240  154.5310 O   0  0  0  0  0  1  0  0  0  0  0  0
  159.9990  214.1010  157.1840 C   0  0  0  0  0  1  0  0  0  0  0  0
  158.7150  213.5390  157.2580 O   0  0  0  0  0  0  0  0  0  0  0  0
  162.4980  209.0380  152.1720 C   0  0  0  0  0  2  0  0  0  0  0  0
  162.7160  207.6280  151.6270 C   0  0  0  0  0  2  0  0  0  0  0  0
  160.9330  203.9370  152.7820 N   0  0  0  0  0  0  0  0  0  0  0  0
  161.4650  205.0790  150.9820 N   0  0  0  0  0  0  0  0  0  0  0  0
  161.8790  207.3800  150.4560 N   0  0  0  0  0  0  0  0  0  0  0  0
  161.2430  203.8220  150.5050 O   0  0  0  0  0  0  0  0  0  0  0  0
  160.8920  203.1440  151.6350 N   0  0  0  0  0  2  0  0  0  0  0  0
  161.3260  206.2420  150.1490 C   0  0  0  0  0  0  0  0  0  0  0  0
  161.2650  205.1040  152.3850 C   0  0  0  0  0  3  0  0  0  0  0  0
  160.6020  206.1290  148.8470 C   0  0  0  0  0  2  0  0  0  0  0  0
  162.0080  205.8700  145.2920 C   0  0  0  0  0  2  0  0  0  0  0  0
  161.7670  203.6160  146.4050 C   0  0  0  0  0  3  0  0  0  0  0  0
  161.6230  204.2230  147.5940 C   0  0  0  0  0  3  0  0  0  0  0  0
  161.1360  206.3980  146.4240 C   0  0  0  0  0  2  0  0  0  0  0  0
  161.5520  205.7260  147.7290 C   0  0  1  0  0  3  0  0  0  0  0  0
  161.7690  204.3680  145.0960 C   0  0  1  0  0  3  0  0  0  0  0  0
  160.1520  202.8810  144.8150 C   0  0  0  0  0  1  0  0  0  0  0  0
  160.5510  204.1660  144.4430 O   0  0  0  0  0  0  0  0  0  0  0  0
  1  2  1  0  0  0  0
  2 15  1  0  0  0  0
  2 11  2  0  0  0  0
  5  1  1  0  0  0  0
  5  8  2  0  0  0  0
  6  8  1  0  0  0  0
  6 10  2  0  0  0  0
  7  1  2  0  0  0  0
  7 14  1  0  0  0  0
  8  9  1  0  0  0  0
  9 11  1  0  0  0  0
  9  3  2  0  0  0  0
 10 13  1  0  0  0  0
 11 12  1  0  0  0  0
 13  3  1  0  0  0  0
 13  4  1  6  0  0  0
 14 15  2  0  0  0  0
 15 28  1  0  0  0  0
 17 16  1  0  0  0  0
 17 20  1  1  0  0  0
 18 16  1  0  0  0  0
 18 27  1  1  0  0  0
 19 23  2  0  0  0  0
 21 25  1  6  0  0  0
 21 18  1  0  0  0  0
 22 23  1  0  0  0  0
 23 17  1  0  0  0  0
 24  3  1  6  0  0  0
 24 19  1  0  0  0  0
 24 21  1  0  0  0  0
 26 27  1  0  0  0  0
 29 28  1  0  0  0  0
 31 36  1  0  0  0  0
 32 29  1  0  0  0  0
 33 31  1  0  0  0  0
 33 34  1  0  0  0  0
 34 30  1  0  0  0  0
 35 32  2  0  0  0  0
 35 31  1  0  0  0  0
 36 30  2  0  0  0  0
 37 35  1  0  0  0  0
 38 41  1  0  0  0  0
 39 40  2  0  0  0  0
 40 42  1  0  0  0  0
 41 42  1  0  0  0  0
 42 37  1  1  0  0  0
 43 45  1  1  0  0  0
 43 38  1  0  0  0  0
 43 39  1  0  0  0  0
 45 44  1  0  0  0  0
M  END
>  <MODEL>
5

>  <REMARK>
 VINA RESULT:      -6.0      2.362      3.110
  Name = 
  8 active torsions:
  status: ('A' for Active; 'I' for Inactive)
    1  A    between atoms: C_8  and  C_9
    2  A    between atoms: C_8  and  N_16
    3  A    between atoms: C_9  and  C_44
    4  A    between atoms: C_11  and  C_38
    5  A    between atoms: C_19  and  O_26
    6  A    between atoms: C_27  and  C_33
    7  A    between atoms: C_33  and  C_42
    8  A    between atoms: O_40  and  C_45
                            x       y       z     vdW  Elec       q    Type
                         _______ _______ _______ _____ _____    ______ ____

>  <TORSDO>
F 8

$$$$
=
 OpenBabel11072414473D

 45 50  0  0  1  0  0  0  0  0999 V2000
  160.3120  208.7670  156.0290 C   0  0  0  0  0  0  0  0  0  0  0  0
  160.2640  208.9150  154.6780 C   0  0  0  0  0  0  0  0  0  0  0  0
  158.5220  212.2560  154.5130 C   0  0  0  0  0  0  0  0  0  0  0  0
  157.3690  214.4510  155.0970 C   0  0  0  0  0  1  0  0  0  0  0  0
  159.8150  209.6980  156.8710 N   0  0  0  0  0  0  0  0  0  0  0  0
  158.7360  211.7660  157.2600 C   0  0  0  0  0  3  0  0  0  0  0  0
  160.9720  207.4850  156.3880 C   0  0  0  0  0  3  0  0  0  0  0  0
  159.2380  210.8260  156.3700 C   0  0  0  0  0  0  0  0  0  0  0  0
  159.1410  211.0490  154.9590 C   0  0  0  0  0  0  0  0  0  0  0  0
  158.1530  212.8980  156.8060 N   0  0  0  0  0  0  0  0  0  0  0  0
  159.6770  210.0410  154.0880 C   0  0  0  0  0  0  0  0  0  0  0  0
  159.6330  210.1170  152.5940 C   0  0  0  0  0  1  0  0  0  0  0  0
  158.0320  213.1700  155.4830 C   0  0  1  0  0  3  0  0  0  0  0  0
  161.3040  206.9300  155.0740 N   0  0  0  0  0  0  0  0  0  0  0  0
  160.9000  207.7250  154.1310 C   0  0  0  0  0  0  0  0  0  0  0  0
  157.7160  213.0200  150.1790 C   0  0  0  0  0  2  0  0  0  0  0  0
  158.7640  214.1060  150.3580 C   0  0  2  0  0  3  0  0  0  0  0  0
  156.6400  213.0980  151.2730 C   0  0  1  0  0  3  0  0  0  0  0  0
  159.6810  213.0780  152.4700 C   0  0  0  0  0  3  0  0  0  0  0  0
  159.2830  214.4520  149.1240 F   0  0  0  0  0  0  0  0  0  0  0  0
  157.1390  213.4260  152.6940 C   0  0  2  0  0  3  0  0  0  0  0  0
  161.1520  214.0050  150.9460 F   0  0  0  0  0  0  0  0  0  0  0  0
  159.8750  213.6860  151.2860 C   0  0  0  0  0  0  0  0  0  0  0  0
  158.3730  212.5750  153.0400 C   0  0  2  0  0  3  0  0  0  0  0  0
  156.0980  213.1840  153.5960 O   0  0  0  0  0  1  0  0  0  0  0  0
  155.6150  214.1690  149.5240 C   0  0  0  0  0  1  0  0  0  0  0  0
  155.5010  213.8370  150.8830 O   0  0  0  0  0  0  0  0  0  0  0  0
  161.1640  207.4390  152.6890 C   0  0  0  0  0  2  0  0  0  0  0  0
  162.0860  206.2320  152.5200 C   0  0  0  0  0  2  0  0  0  0  0  0
  162.4940  207.9070  148.6260 N   0  0  0  0  0  0  0  0  0  0  0  0
  161.2160  206.5240  149.7560 N   0  0  0  0  0  0  0  0  0  0  0  0
  161.4430  205.1850  151.7310 N   0  0  0  0  0  0  0  0  0  0  0  0
  160.4750  206.8050  148.6470 O   0  0  0  0  0  0  0  0  0  0  0  0
  161.3000  207.6420  147.9560 N   0  0  0  0  0  2  0  0  0  0  0  0
  161.0370  205.3070  150.5000 C   0  0  0  0  0  0  0  0  0  0  0  0
  162.4470  207.2230  149.7020 C   0  0  0  0  0  3  0  0  0  0  0  0
  160.2850  204.1740  149.8810 C   0  0  0  0  0  2  0  0  0  0  0  0
  161.7060  202.8440  146.5790 C   0  0  0  0  0  2  0  0  0  0  0  0
  161.0810  200.9930  148.1810 C   0  0  0  0  0  3  0  0  0  0  0  0
  161.0110  201.8880  149.1800 C   0  0  0  0  0  3  0  0  0  0  0  0
  160.9070  203.7580  147.5000 C   0  0  0  0  0  2  0  0  0  0  0  0
  161.1820  203.3700  148.9490 C   0  0  1  0  0  3  0  0  0  0  0  0
  161.2320  201.3940  146.7330 C   0  0  1  0  0  3  0  0  0  0  0  0
  160.1710  201.8710  144.8480 C   0  0  0  0  0  1  0  0  0  0  0  0
  160.0110  201.2250  146.0750 O   0  0  0  0  0  0  0  0  0  0  0  0
  1  7  2  0  0  0  0
  1  5  1  0  0  0  0
  2  1  1  0  0  0  0
  3  9  2  0  0  0  0
  3 13  1  0  0  0  0
  8  5  2  0  0  0  0
  8  6  1  0  0  0  0
  9  8  1  0  0  0  0
 10  6  2  0  0  0  0
 11  2  2  0  0  0  0
 11  9  1  0  0  0  0
 12 11  1  0  0  0  0
 13  4  1  6  0  0  0
 13 10  1  0  0  0  0
 14  7  1  0  0  0  0
 15  2  1  0  0  0  0
 15 14  2  0  0  0  0
 16 17  1  0  0  0  0
 16 18  1  0  0  0  0
 17 20  1  6  0  0  0
 17 23  1  0  0  0  0
 18 27  1  6  0  0  0
 18 21  1  0  0  0  0
 19 24  1  0  0  0  0
 21 24  1  0  0  0  0
 21 25  1  1  0  0  0
 22 23  1  0  0  0  0
 23 19  2  0  0  0  0
 24  3  1  1  0  0  0
 26 27  1  0  0  0  0
 28 15  1  0  0  0  0
 29 28  1  0  0  0  0
 30 36  2  0  0  0  0
 31 35  1  0  0  0  0
 32 29  1  0  0  0  0
 33 31  1  0  0  0  0
 34 30  1  0  0  0  0
 34 33  1  0  0  0  0
 35 32  2  0  0  0  0
 36 31  1  0  0  0  0
 37 35  1  0  0  0  0
 38 43  1  0  0  0  0
 38 41  1  0  0  0  0
 39 40  2  0  0  0  0
 41 42  1  0  0  0  0
 42 40  1  0  0  0  0
 42 37  1  1  0  0  0
 43 45  1  6  0  0  0
 43 39  1  0  0  0  0
 44 45  1  0  0  0  0
M  END
>  <MODEL>
6

>  <REMARK>
 VINA RESULT:      -5.5      3.192      5.552
  Name = 
  8 active torsions:
  status: ('A' for Active; 'I' for Inactive)
    1  A    between atoms: C_8  and  C_9
    2  A    between atoms: C_8  and  N_16
    3  A    between atoms: C_9  and  C_44
    4  A    between atoms: C_11  and  C_38
    5  A    between atoms: C_19  and  O_26
    6  A    between atoms: C_27  and  C_33
    7  A    between atoms: C_33  and  C_42
    8  A    between atoms: O_40  and  C_45
                            x       y       z     vdW  Elec       q    Type
                         _______ _______ _______ _____ _____    ______ ____

>  <TORSDO>
F 8

$$$$
=
 OpenBabel11072414473D

 45 50  0  0  1  0  0  0  0  0999 V2000
  161.4350  208.3500  152.0200 C   0  0  0  0  0  0  0  0  0  0  0  0
  161.7870  208.4760  150.7120 C   0  0  0  0  0  0  0  0  0  0  0  0
  160.7770  212.0690  150.1730 C   0  0  0  0  0  0  0  0  0  0  0  0
  159.9160  214.4470  150.4820 C   0  0  0  0  0  1  0  0  0  0  0  0
  160.9000  209.3720  152.7190 N   0  0  0  0  0  0  0  0  0  0  0  0
  160.1390  211.6080  152.8580 C   0  0  0  0  0  3  0  0  0  0  0  0
  161.7340  206.9800  152.5080 C   0  0  0  0  0  3  0  0  0  0  0  0
  160.6910  210.5740  152.1130 C   0  0  0  0  0  0  0  0  0  0  0  0
  161.0270  210.7810  150.7360 C   0  0  0  0  0  0  0  0  0  0  0  0
  159.9140  212.8160  152.2940 N   0  0  0  0  0  0  0  0  0  0  0  0
  161.5930  209.6760  150.0160 C   0  0  0  0  0  0  0  0  0  0  0  0
  161.9750  209.7260  148.5700 C   0  0  0  0  0  1  0  0  0  0  0  0
  160.2100  213.0760  150.9970 C   0  0  1  0  0  3  0  0  0  0  0  0
  162.3100  206.3460  151.3200 N   0  0  0  0  0  0  0  0  0  0  0  0
  162.3280  207.1800  150.3260 C   0  0  0  0  0  0  0  0  0  0  0  0
  161.4080  212.7410  145.7940 C   0  0  0  0  0  2  0  0  0  0  0  0
  162.1280  213.9920  146.2710 C   0  0  2  0  0  3  0  0  0  0  0  0
  160.0230  212.6120  146.4460 C   0  0  1  0  0  3  0  0  0  0  0  0
  162.4150  213.1120  148.6160 C   0  0  0  0  0  3  0  0  0  0  0  0
  162.9760  214.4420  145.2760 F   0  0  0  0  0  0  0  0  0  0  0  0
  159.9340  213.0030  147.9350 C   0  0  2  0  0  3  0  0  0  0  0  0
  164.1430  214.3050  147.6480 F   0  0  0  0  0  0  0  0  0  0  0  0
  162.9010  213.7620  147.5440 C   0  0  0  0  0  0  0  0  0  0  0  0
  161.0970  212.3780  148.7250 C   0  0  2  0  0  3  0  0  0  0  0  0
  158.7020  212.5690  148.4340 O   0  0  0  0  0  1  0  0  0  0  0  0
  159.0390  212.5660  144.3760 C   0  0  0  0  0  1  0  0  0  0  0  0
  158.9820  213.1450  145.6530 O   0  0  0  0  0  0  0  0  0  0  0  0
  162.9220  206.8200  149.0030 C   0  0  0  0  0  2  0  0  0  0  0  0
  161.8580  206.3030  148.0370 C   0  0  0  0  0  2  0  0  0  0  0  0
  161.5710  205.9660  143.8020 N   0  0  0  0  0  0  0  0  0  0  0  0
  161.1600  204.8210  145.6300 N   0  0  0  0  0  0  0  0  0  0  0  0
  161.9330  204.8520  147.8980 N   0  0  0  0  0  0  0  0  0  0  0  0
  160.4610  204.1490  144.6720 O   0  0  0  0  0  0  0  0  0  0  0  0
  160.7540  204.8650  143.5490 N   0  0  0  0  0  2  0  0  0  0  0  0
  161.6100  204.1760  146.8330 C   0  0  0  0  0  0  0  0  0  0  0  0
  161.8250  205.9300  145.0520 C   0  0  0  0  0  3  0  0  0  0  0  0
  161.6270  202.6840  146.9020 C   0  0  0  0  0  2  0  0  0  0  0  0
  159.9140  202.7160  150.3300 C   0  0  0  0  0  2  0  0  0  0  0  0
  161.3170  200.6460  149.9660 C   0  0  0  0  0  3  0  0  0  0  0  0
  161.3710  200.9200  148.6520 C   0  0  0  0  0  3  0  0  0  0  0  0
  160.6340  203.2820  149.1120 C   0  0  0  0  0  2  0  0  0  0  0  0
  160.7850  202.1820  148.0660 C   0  0  1  0  0  3  0  0  0  0  0  0
  160.7620  201.6170  150.9810 C   0  0  1  0  0  3  0  0  0  0  0  0
  161.2310  203.2380  152.4160 C   0  0  0  0  0  1  0  0  0  0  0  0
  161.8150  202.1940  151.6950 O   0  0  0  0  0  0  0  0  0  0  0  0
  1  7  2  0  0  0  0
  1  5  1  0  0  0  0
  2  1  1  0  0  0  0
  3  9  2  0  0  0  0
  3 13  1  0  0  0  0
  8  5  2  0  0  0  0
  8  6  1  0  0  0  0
  9  8  1  0  0  0  0
 10  6  2  0  0  0  0
 11  2  2  0  0  0  0
 11  9  1  0  0  0  0
 12 11  1  0  0  0  0
 13  4  1  6  0  0  0
 13 10  1  0  0  0  0
 14  7  1  0  0  0  0
 15  2  1  0  0  0  0
 15 14  2  0  0  0  0
 16 17  1  0  0  0  0
 16 18  1  0  0  0  0
 17 20  1  6  0  0  0
 17 23  1  0  0  0  0
 18 27  1  6  0  0  0
 18 21  1  0  0  0  0
 19 24  1  0  0  0  0
 21 25  1  1  0  0  0
 21 24  1  0  0  0  0
 23 22  1  0  0  0  0
 23 19  2  0  0  0  0
 24  3  1  1  0  0  0
 26 27  1  0  0  0  0
 28 15  1  0  0  0  0
 29 28  1  0  0  0  0
 30 36  2  0  0  0  0
 31 35  1  0  0  0  0
 32 29  1  0  0  0  0
 33 31  1  0  0  0  0
 34 30  1  0  0  0  0
 34 33  1  0  0  0  0
 35 37  1  0  0  0  0
 35 32  2  0  0  0  0
 36 31  1  0  0  0  0
 38 43  1  0  0  0  0
 39 43  1  0  0  0  0
 40 39  2  0  0  0  0
 41 38  1  0  0  0  0
 42 37  1  6  0  0  0
 42 40  1  0  0  0  0
 42 41  1  0  0  0  0
 43 45  1  6  0  0  0
 45 44  1  0  0  0  0
M  END
>  <MODEL>
7

>  <REMARK>
 VINA RESULT:      -5.4      4.209      7.244
  Name = 
  8 active torsions:
  status: ('A' for Active; 'I' for Inactive)
    1  A    between atoms: C_8  and  C_9
    2  A    between atoms: C_8  and  N_16
    3  A    between atoms: C_9  and  C_44
    4  A    between atoms: C_11  and  C_38
    5  A    between atoms: C_19  and  O_26
    6  A    between atoms: C_27  and  C_33
    7  A    between atoms: C_33  and  C_42
    8  A    between atoms: O_40  and  C_45
                            x       y       z     vdW  Elec       q    Type
                         _______ _______ _______ _____ _____    ______ ____

>  <TORSDO>
F 8

$$$$
=
 OpenBabel11072414473D

 45 50  0  0  1  0  0  0  0  0999 V2000
  162.1390  209.0800  149.2590 C   0  0  0  0  0  0  0  0  0  0  0  0
  161.7150  208.5170  150.4220 C   0  0  0  0  0  0  0  0  0  0  0  0
  160.1680  211.5610  152.0220 C   0  0  0  0  0  0  0  0  0  0  0  0
  159.3310  213.9180  152.5080 C   0  0  0  0  0  1  0  0  0  0  0  0
  161.9380  210.3850  148.9790 N   0  0  0  0  0  0  0  0  0  0  0  0
  161.1050  212.5200  149.5650 C   0  0  0  0  0  3  0  0  0  0  0  0
  162.8110  208.0670  148.4060 C   0  0  0  0  0  3  0  0  0  0  0  0
  161.2980  211.1810  149.8810 C   0  0  0  0  0  0  0  0  0  0  0  0
  160.8310  210.6630  151.1310 C   0  0  0  0  0  0  0  0  0  0  0  0
  160.4750  213.3450  150.4320 N   0  0  0  0  0  0  0  0  0  0  0  0
  161.0600  209.2720  151.4020 C   0  0  0  0  0  0  0  0  0  0  0  0
  160.6530  208.5880  152.6690 C   0  0  0  0  0  1  0  0  0  0  0  0
  160.0090  212.9170  151.6310 C   0  0  2  0  0  3  0  0  0  0  0  0
  162.7060  206.8560  149.2230 N   0  0  0  0  0  0  0  0  0  0  0  0
  162.1050  207.1160  150.3420 C   0  0  0  0  0  0  0  0  0  0  0  0
  158.9590  209.9820  156.0310 C   0  0  0  0  0  2  0  0  0  0  0  0
  158.0810  211.2230  156.0560 C   0  0  2  0  0  3  0  0  0  0  0  0
  160.4070  210.3320  155.6530 C   0  0  1  0  0  3  0  0  0  0  0  0
  158.2110  211.5480  153.5600 C   0  0  0  0  0  3  0  0  0  0  0  0
  157.0640  211.0480  156.9760 F   0  0  0  0  0  0  0  0  0  0  0  0
  160.5840  211.3940  154.5510 C   0  0  2  0  0  3  0  0  0  0  0  0
  156.2030  211.9380  154.6360 F   0  0  0  0  0  0  0  0  0  0  0  0
  157.5040  211.5480  154.7030 C   0  0  0  0  0  0  0  0  0  0  0  0
  159.6440  211.1030  153.3680 C   0  0  2  0  0  3  0  0  0  0  0  0
  161.9200  211.3870  154.1390 O   0  0  0  0  0  1  0  0  0  0  0  0
  161.9860  209.3590  157.0010 C   0  0  0  0  0  1  0  0  0  0  0  0
  161.2430  210.5280  156.7740 O   0  0  0  0  0  0  0  0  0  0  0  0
  161.8030  206.0490  151.3440 C   0  0  0  0  0  2  0  0  0  0  0  0
  160.7950  205.0400  150.7970 C   0  0  0  0  0  2  0  0  0  0  0  0
  159.8760  200.8830  150.7370 N   0  0  0  0  0  0  0  0  0  0  0  0
  161.0910  202.3710  149.6730 N   0  0  0  0  0  0  0  0  0  0  0  0
  161.0510  204.7500  149.3890 N   0  0  0  0  0  0  0  0  0  0  0  0
  161.6170  201.1810  149.2630 O   0  0  0  0  0  0  0  0  0  0  0  0
  160.8300  200.2800  149.9180 N   0  0  0  0  0  2  0  0  0  0  0  0
  161.2000  203.5620  148.8770 C   0  0  0  0  0  0  0  0  0  0  0  0
  160.0260  202.1400  150.5780 C   0  0  0  0  0  3  0  0  0  0  0  0
  161.5810  203.4490  147.4360 C   0  0  0  0  0  2  0  0  0  0  0  0
  160.3590  206.1980  145.0620 C   0  0  0  0  0  2  0  0  0  0  0  0
  162.8360  205.7540  144.8390 C   0  0  0  0  0  3  0  0  0  0  0  0
  162.8150  205.0780  145.9990 C   0  0  0  0  0  3  0  0  0  0  0  0
  160.3100  204.8920  145.8460 C   0  0  0  0  0  2  0  0  0  0  0  0
  161.5340  204.8070  146.7520 C   0  0  1  0  0  3  0  0  0  0  0  0
  161.5810  206.2120  144.1360 C   0  0  1  0  0  3  0  0  0  0  0  0
  161.5910  206.2030  141.9210 C   0  0  0  0  0  1  0  0  0  0  0  0
  161.3430  205.3920  143.0300 O   0  0  0  0  0  0  0  0  0  0  0  0
  1  2  1  0  0  0  0
  2 11  2  0  0  0  0
  5  1  1  0  0  0  0
  5  8  2  0  0  0  0
  6  8  1  0  0  0  0
  6 10  2  0  0  0  0
  7 14  1  0  0  0  0
  7  1  2  0  0  0  0
  8  9  1  0  0  0  0
  9 11  1  0  0  0  0
  9  3  2  0  0  0  0
 10 13  1  0  0  0  0
 11 12  1  0  0  0  0
 13  3  1  0  0  0  0
 13  4  1  6  0  0  0
 14 15  2  0  0  0  0
 15  2  1  0  0  0  0
 15 28  1  0  0  0  0
 16 17  1  0  0  0  0
 17 20  1  1  0  0  0
 18 16  1  0  0  0  0
 18 27  1  1  0  0  0
 19 23  2  0  0  0  0
 21 25  1  6  0  0  0
 21 18  1  0  0  0  0
 22 23  1  0  0  0  0
 23 17  1  0  0  0  0
 24  3  1  6  0  0  0
 24 19  1  0  0  0  0
 24 21  1  0  0  0  0
 27 26  1  0  0  0  0
 29 28  1  0  0  0  0
 31 36  1  0  0  0  0
 32 29  1  0  0  0  0
 33 31  1  0  0  0  0
 33 34  1  0  0  0  0
 34 30  1  0  0  0  0
 35 32  2  0  0  0  0
 35 31  1  0  0  0  0
 36 30  2  0  0  0  0
 37 35  1  0  0  0  0
 38 41  1  0  0  0  0
 39 40  2  0  0  0  0
 40 42  1  0  0  0  0
 41 42  1  0  0  0  0
 42 37  1  6  0  0  0
 43 45  1  6  0  0  0
 43 39  1  0  0  0  0
 43 38  1  0  0  0  0
 44 45  1  0  0  0  0
M  END
>  <MODEL>
8

>  <REMARK>
 VINA RESULT:      -5.2      2.495      4.207
  Name = 
  8 active torsions:
  status: ('A' for Active; 'I' for Inactive)
    1  A    between atoms: C_8  and  C_9
    2  A    between atoms: C_8  and  N_16
    3  A    between atoms: C_9  and  C_44
    4  A    between atoms: C_11  and  C_38
    5  A    between atoms: C_19  and  O_26
    6  A    between atoms: C_27  and  C_33
    7  A    between atoms: C_33  and  C_42
    8  A    between atoms: O_40  and  C_45
                            x       y       z     vdW  Elec       q    Type
                         _______ _______ _______ _____ _____    ______ ____

>  <TORSDO>
F 8

$$$$
=
 OpenBabel11072414473D

 45 50  0  0  1  0  0  0  0  0999 V2000
  159.9940  213.0890  150.5820 C   0  0  0  0  0  0  0  0  0  0  0  0
  160.6700  212.0880  151.2070 C   0  0  0  0  0  0  0  0  0  0  0  0
  159.1150  212.3690  154.6310 C   0  0  0  0  0  0  0  0  0  0  0  0
  157.7070  213.0730  156.6330 C   0  0  0  0  0  1  0  0  0  0  0  0
  159.0650  213.8330  151.2200 N   0  0  0  0  0  0  0  0  0  0  0  0
  157.8260  214.3720  153.1610 C   0  0  0  0  0  3  0  0  0  0  0  0
  160.4270  213.2050  149.1660 C   0  0  0  0  0  3  0  0  0  0  0  0
  158.7870  213.5910  152.5320 C   0  0  0  0  0  0  0  0  0  0  0  0
  159.4640  212.5600  153.2590 C   0  0  0  0  0  0  0  0  0  0  0  0
  157.5200  214.1670  154.4620 N   0  0  0  0  0  0  0  0  0  0  0  0
  160.4480  211.7870  152.5560 C   0  0  0  0  0  0  0  0  0  0  0  0
  161.2550  210.6920  153.1800 C   0  0  0  0  0  1  0  0  0  0  0  0
  158.1240  213.2070  155.2060 C   0  0  2  0  0  3  0  0  0  0  0  0
  161.4240  212.1380  149.0600 N   0  0  0  0  0  0  0  0  0  0  0  0
  161.5590  211.5280  150.1970 C   0  0  0  0  0  0  0  0  0  0  0  0
  160.7140  209.0590  157.1810 C   0  0  0  0  0  2  0  0  0  0  0  0
  162.0270  209.4080  156.5000 C   0  0  2  0  0  3  0  0  0  0  0  0
  159.5860  208.8750  156.1550 C   0  0  1  0  0  3  0  0  0  0  0  0
  161.2160  211.6820  155.7740 C   0  0  0  0  0  3  0  0  0  0  0  0
  163.0800  208.9330  157.2610 F   0  0  0  0  0  0  0  0  0  0  0  0
  159.5740  209.8660  154.9740 C   0  0  2  0  0  3  0  0  0  0  0  0
  163.3940  211.4550  156.5170 F   0  0  0  0  0  0  0  0  0  0  0  0
  162.1820  210.8900  156.2730 C   0  0  0  0  0  0  0  0  0  0  0  0
  159.7820  211.3050  155.4790 C   0  0  2  0  0  3  0  0  0  0  0  0
  158.3520  209.7440  154.3050 O   0  0  0  0  0  1  0  0  0  0  0  0
  160.4490  207.1380  154.9320 C   0  0  0  0  0  1  0  0  0  0  0  0
  159.3940  207.5290  155.7710 O   0  0  0  0  0  0  0  0  0  0  0  0
  162.4660  210.3520  150.3620 C   0  0  0  0  0  2  0  0  0  0  0  0
  162.1200  209.2400  149.3750 C   0  0  0  0  0  2  0  0  0  0  0  0
  162.3250  206.3350  146.2670 N   0  0  0  0  0  0  0  0  0  0  0  0
  161.1510  206.8310  148.0560 N   0  0  0  0  0  0  0  0  0  0  0  0
  161.5030  208.1050  150.0550 N   0  0  0  0  0  0  0  0  0  0  0  0
  160.3620  205.9350  147.3980 O   0  0  0  0  0  0  0  0  0  0  0  0
  161.1250  205.6280  146.3100 N   0  0  0  0  0  2  0  0  0  0  0  0
  161.0530  207.0290  149.4760 C   0  0  0  0  0  0  0  0  0  0  0  0
  162.3450  207.0490  147.3250 C   0  0  0  0  0  3  0  0  0  0  0  0
  160.3370  206.0160  150.3090 C   0  0  0  0  0  2  0  0  0  0  0  0
  161.8380  202.5560  149.6310 C   0  0  0  0  0  2  0  0  0  0  0  0
  160.8800  202.7570  151.9590 C   0  0  0  0  0  3  0  0  0  0  0  0
  160.8400  204.0930  151.8220 C   0  0  0  0  0  3  0  0  0  0  0  0
  161.0840  203.8450  149.3300 C   0  0  0  0  0  2  0  0  0  0  0  0
  161.2000  204.7820  150.5280 C   0  0  1  0  0  3  0  0  0  0  0  0
  161.1860  201.8260  150.8110 C   0  0  1  0  0  3  0  0  0  0  0  0
  160.2890  200.7310  149.1070 C   0  0  0  0  0  1  0  0  0  0  0  0
  160.0070  201.2060  150.3890 O   0  0  0  0  0  0  0  0  0  0  0  0
  1  2  1  0  0  0  0
  1  5  1  0  0  0  0
  2 11  2  0  0  0  0
  3 13  1  0  0  0  0
  5  8  2  0  0  0  0
  6 10  2  0  0  0  0
  7  1  2  0  0  0  0
  8  6  1  0  0  0  0
  8  9  1  0  0  0  0
  9  3  2  0  0  0  0
 10 13  1  0  0  0  0
 11 12  1  0  0  0  0
 11  9  1  0  0  0  0
 13  4  1  6  0  0  0
 14  7  1  0  0  0  0
 14 15  2  0  0  0  0
 15 28  1  0  0  0  0
 15  2  1  0  0  0  0
 17 16  1  0  0  0  0
 17 20  1  1  0  0  0
 18 27  1  6  0  0  0
 18 16  1  0  0  0  0
 19 23  2  0  0  0  0
 21 25  1  1  0  0  0
 21 24  1  0  0  0  0
 21 18  1  0  0  0  0
 23 17  1  0  0  0  0
 23 22  1  0  0  0  0
 24  3  1  6  0  0  0
 24 19  1  0  0  0  0
 26 27  1  0  0  0  0
 29 32  1  0  0  0  0
 29 28  1  0  0  0  0
 30 34  1  0  0  0  0
 30 36  2  0  0  0  0
 31 35  1  0  0  0  0
 33 31  1  0  0  0  0
 34 33  1  0  0  0  0
 35 32  2  0  0  0  0
 35 37  1  0  0  0  0
 36 31  1  0  0  0  0
 38 43  1  0  0  0  0
 40 39  2  0  0  0  0
 41 38  1  0  0  0  0
 41 42  1  0  0  0  0
 42 37  1  6  0  0  0
 42 40  1  0  0  0  0
 43 45  1  6  0  0  0
 43 39  1  0  0  0  0
 44 45  1  0  0  0  0
M  END
>  <MODEL>
9

>  <REMARK>
 VINA RESULT:      -5.2      2.313      3.225
  Name = 
  8 active torsions:
  status: ('A' for Active; 'I' for Inactive)
    1  A    between atoms: C_8  and  C_9
    2  A    between atoms: C_8  and  N_16
    3  A    between atoms: C_9  and  C_44
    4  A    between atoms: C_11  and  C_38
    5  A    between atoms: C_19  and  O_26
    6  A    between atoms: C_27  and  C_33
    7  A    between atoms: C_33  and  C_42
    8  A    between atoms: O_40  and  C_45
                            x       y       z     vdW  Elec       q    Type
                         _______ _______ _______ _____ _____    ______ ____

>  <TORSDO>
F 8

$$$$
