=
 OpenBabel11072413563D

 46 50  0  0  1  0  0  0  0  0999 V2000
  160.6030  211.2170  152.1640 C   0  0  0  0  0  3  0  0  0  0  0  0
  160.8680  207.1800  153.6200 C   0  0  0  0  0  2  0  0  0  0  0  0
  159.9010  209.4790  153.6880 C   0  0  0  0  0  3  0  0  0  0  0  0
  161.5270  208.9850  151.9520 C   0  0  0  0  0  0  0  0  0  0  0  0
  160.7400  208.5640  153.0460 C   0  0  0  0  0  0  0  0  0  0  0  0
  161.4060  206.1840  152.6000 C   0  0  0  0  0  2  0  0  0  0  0  0
  162.4010  208.0200  151.1920 C   0  0  1  0  0  3  0  0  0  0  0  0
  161.4490  210.3140  151.5200 C   0  0  0  0  0  3  0  0  0  0  0  0
  162.6820  206.7300  151.9700 C   0  0  0  0  0  2  0  0  0  0  0  0
  159.8120  210.8110  153.2480 C   0  0  0  0  0  0  0  0  0  0  0  0
  156.0630  212.0990  156.0370 C   0  0  0  0  0  0  0  0  0  0  0  0
  156.8900  211.0560  155.4010 C   0  0  0  0  0  3  0  0  0  0  0  0
  158.9050  211.7790  153.9160 C   0  0  0  0  0  0  0  0  0  0  0  0
  157.9050  211.3600  154.6480 C   0  0  0  0  0  0  0  0  0  0  0  0
  158.3290  214.1710  154.7600 C   0  0  0  0  0  2  0  0  0  0  0  0
  156.1620  213.4960  155.7100 N   0  0  0  0  0  2  0  0  0  0  0  0
  155.2240  211.7360  156.9480 N   0  0  0  0  0  2  0  0  0  0  0  0
  156.8240  214.0660  154.5410 C   0  0  0  0  0  2  0  0  0  0  0  0
  159.1400  213.2740  153.8050 C   0  0  2  0  0  3  0  0  0  0  0  0
  159.1090  213.7620  152.4220 N   0  0  0  0  0  2  0  0  0  0  0  0
  157.0320  212.9830  149.3120 C   0  0  0  0  0  2  0  0  0  0  0  0
  156.7580  214.4520  151.8520 C   0  0  0  0  0  2  0  0  0  0  0  0
  158.0170  213.6970  151.4970 C   0  0  0  0  0  0  0  0  0  0  0  0
  155.9960  214.0840  149.5060 C   0  0  0  0  0  2  0  0  0  0  0  0
  158.1560  213.1020  150.3020 C   0  0  0  0  0  3  0  0  0  0  0  0
  155.5670  214.0960  150.9650 C   0  0  0  0  0  2  0  0  0  0  0  0
  162.2740  208.3360  148.8340 O   0  0  0  0  0  0  0  0  0  0  0  0
  161.8320  207.7200  149.8400 C   0  0  0  0  0  0  0  0  0  0  0  0
  160.7930  206.7430  149.6940 N   0  0  0  0  0  2  0  0  0  0  0  0
  160.2700  206.3290  148.3980 C   0  0  0  0  0  2  0  0  0  0  0  0
  161.0370  205.1120  147.8740 C   0  0  2  0  0  3  0  0  0  0  0  0
  161.5720  204.3120  148.9090 O   0  0  0  0  0  0  0  0  0  0  0  0
  160.5250  203.8850  149.7460 C   0  0  0  0  0  2  0  0  0  0  0  0
  160.8820  202.5790  150.3750 C   0  0  0  0  0  0  0  0  0  0  0  0
  161.4030  202.5600  151.4790 O   0  0  0  0  0  0  0  0  0  0  0  0
  160.5820  201.3040  149.6470 C   0  0  2  0  0  3  0  0  0  0  0  0
  161.7770  200.8320  148.8350 C   0  0  0  0  0  1  0  0  0  0  0  0
  158.1900  201.0470  149.4940 O   0  0  0  0  0  1  0  0  0  0  0  0
  159.3300  201.4190  148.7820 C   0  0  0  0  0  2  0  0  0  0  0  0
  162.0520  205.4910  146.8960 N   0  0  0  0  0  2  0  0  0  0  0  0
  162.4860  204.2650  146.2480 C   0  0  0  0  0  2  0  0  0  0  0  0
  161.3440  203.5940  145.5550 C   0  0  0  0  0  0  0  0  0  0  0  0
  159.6120  203.2110  144.2200 C   0  0  0  0  0  3  0  0  0  0  0  0
  159.8100  202.0690  144.7910 N   0  0  0  0  0  0  0  0  0  0  0  0
  160.5700  204.2050  144.6790 C   0  0  0  0  0  3  0  0  0  0  0  0
  160.9340  202.1700  145.7050 C   0  0  0  0  0  2  0  0  0  0  0  0
  1 10  1  0  0  0  0
  4  5  2  0  0  0  0
  5  2  1  0  0  0  0
  5  3  1  0  0  0  0
  6  2  1  0  0  0  0
  7 28  1  6  0  0  0
  7  4  1  0  0  0  0
  7  9  1  0  0  0  0
  8  4  1  0  0  0  0
  8  1  2  0  0  0  0
  9  6  1  0  0  0  0
 10  3  2  0  0  0  0
 10 13  1  0  0  0  0
 11 17  2  0  0  0  0
 12 11  1  0  0  0  0
 13 14  2  0  0  0  0
 14 12  2  0  0  0  0
 16 11  1  0  0  0  0
 18 15  1  0  0  0  0
 18 16  1  0  0  0  0
 19 20  1  6  0  0  0
 19 13  1  0  0  0  0
 19 15  1  0  0  0  0
 21 24  1  0  0  0  0
 21 25  1  0  0  0  0
 23 22  1  0  0  0  0
 23 20  1  0  0  0  0
 24 26  1  0  0  0  0
 25 23  2  0  0  0  0
 26 22  1  0  0  0  0
 27 28  2  0  0  0  0
 29 28  1  0  0  0  0
 30 29  1  0  0  0  0
 31 30  1  1  0  0  0
 31 32  1  0  0  0  0
 32 33  1  0  0  0  0
 33 34  1  0  0  0  0
 34 35  2  0  0  0  0
 36 37  1  6  0  0  0
 36 34  1  0  0  0  0
 39 38  1  0  0  0  0
 39 36  1  0  0  0  0
 40 31  1  0  0  0  0
 41 40  1  0  0  0  0
 42 46  1  0  0  0  0
 42 41  1  0  0  0  0
 43 45  1  0  0  0  0
 43 44  2  0  0  0  0
 44 46  1  0  0  0  0
 45 42  2  0  0  0  0
M  END
>  <MODEL>
1

>  <REMARK>
 VINA RESULT:      -7.7      0.000      0.000
  Name = 
  14 active torsions:
  status: ('A' for Active; 'I' for Inactive)
    1  A    between atoms: C_1  and  C_22
    2  A    between atoms: C_1  and  C_42
    3  A    between atoms: C_3  and  C_35
    4  A    between atoms: C_11  and  C_44
    5  A    between atoms: C_16  and  C_30
    6  A    between atoms: C_19  and  N_24
    7  A    between atoms: C_19  and  C_45
    8  A    between atoms: C_21  and  N_41
    9  A    between atoms: C_22  and  C_23
   10  A    between atoms: C_23  and  O_27
   11  A    between atoms: O_27  and  C_45
   12  A    between atoms: C_35  and  N_43
   13  A    between atoms: C_39  and  N_41
   14  A    between atoms: N_43  and  C_45
                            x       y       z     vdW  Elec       q    Type
                         _______ _______ _______ _____ _____    ______ ____

>  <TORSDO>
F 14

$$$$
=
 OpenBabel11072413563D

 46 50  0  0  1  0  0  0  0  0999 V2000
  161.8820  209.6060  151.0930 C   0  0  0  0  0  3  0  0  0  0  0  0
  159.9630  210.0370  154.9170 C   0  0  0  0  0  2  0  0  0  0  0  0
  160.4120  210.8080  152.5870 C   0  0  0  0  0  3  0  0  0  0  0  0
  161.4270  208.7210  153.3060 C   0  0  0  0  0  0  0  0  0  0  0  0
  160.5860  209.8260  153.5660 C   0  0  0  0  0  0  0  0  0  0  0  0
  159.8250  208.7350  155.6960 C   0  0  0  0  0  2  0  0  0  0  0  0
  161.5990  207.6080  154.3080 C   0  0  1  0  0  3  0  0  0  0  0  0
  162.0690  208.6230  152.0660 C   0  0  0  0  0  3  0  0  0  0  0  0
  161.1640  208.0060  155.7210 C   0  0  0  0  0  2  0  0  0  0  0  0
  161.0460  210.7040  151.3360 C   0  0  0  0  0  0  0  0  0  0  0  0
  162.0640  213.0030  147.1930 C   0  0  0  0  0  0  0  0  0  0  0  0
  162.3650  211.9530  148.1840 C   0  0  0  0  0  3  0  0  0  0  0  0
  160.8440  211.7370  150.2880 C   0  0  0  0  0  0  0  0  0  0  0  0
  161.6410  211.8030  149.2540 C   0  0  0  0  0  0  0  0  0  0  0  0
  159.3950  213.5420  149.1020 C   0  0  0  0  0  2  0  0  0  0  0  0
  161.1170  214.0600  147.4220 N   0  0  0  0  0  2  0  0  0  0  0  0
  162.6700  212.9520  146.0540 N   0  0  0  0  0  2  0  0  0  0  0  0
  160.5530  214.4530  148.7090 C   0  0  0  0  0  2  0  0  0  0  0  0
  159.6840  212.7130  150.3680 C   0  0  2  0  0  3  0  0  0  0  0  0
  159.7040  213.5360  151.5810 N   0  0  0  0  0  2  0  0  0  0  0  0
  157.8990  213.7860  154.9390 C   0  0  0  0  0  2  0  0  0  0  0  0
  157.2420  213.7250  152.0670 C   0  0  0  0  0  2  0  0  0  0  0  0
  158.6680  213.6730  152.5620 C   0  0  0  0  0  0  0  0  0  0  0  0
  156.5160  213.3990  154.4290 C   0  0  0  0  0  2  0  0  0  0  0  0
  158.9450  213.6180  153.8740 C   0  0  0  0  0  3  0  0  0  0  0  0
  156.2440  214.1560  153.1390 C   0  0  0  0  0  2  0  0  0  0  0  0
  160.0480  205.8260  154.6180 O   0  0  0  0  0  0  0  0  0  0  0  0
  160.9000  206.3610  153.8600 C   0  0  0  0  0  0  0  0  0  0  0  0
  161.2000  205.7840  152.5840 N   0  0  0  0  0  2  0  0  0  0  0  0
  160.4840  204.6350  152.0430 C   0  0  0  0  0  2  0  0  0  0  0  0
  161.2290  204.0580  150.8380 C   0  0  2  0  0  3  0  0  0  0  0  0
  160.7550  204.5630  149.6050 O   0  0  0  0  0  0  0  0  0  0  0  0
  161.8510  204.9720  148.8250 C   0  0  0  0  0  2  0  0  0  0  0  0
  161.3650  205.5780  147.5500 C   0  0  0  0  0  0  0  0  0  0  0  0
  160.7450  206.6300  147.5770 O   0  0  0  0  0  0  0  0  0  0  0  0
  161.6590  204.8940  146.2500 C   0  0  2  0  0  3  0  0  0  0  0  0
  163.1470  204.9010  145.9420 C   0  0  0  0  0  1  0  0  0  0  0  0
  160.3260  204.4720  144.2860 O   0  0  0  0  0  1  0  0  0  0  0  0
  160.8480  205.4790  145.0980 C   0  0  0  0  0  2  0  0  0  0  0  0
  161.2480  202.5990  150.8600 N   0  0  0  0  0  2  0  0  0  0  0  0
  160.1210  202.1530  150.0580 C   0  0  0  0  0  2  0  0  0  0  0  0
  160.5870  201.5310  148.7810 C   0  0  0  0  0  0  0  0  0  0  0  0
  160.9790  201.1660  146.6260 C   0  0  0  0  0  3  0  0  0  0  0  0
  161.5820  200.1860  147.2120 N   0  0  0  0  0  0  0  0  0  0  0  0
  160.3360  202.0440  147.5920 C   0  0  0  0  0  3  0  0  0  0  0  0
  161.4120  200.2970  148.6500 C   0  0  0  0  0  2  0  0  0  0  0  0
  1 10  2  0  0  0  0
  1  8  1  0  0  0  0
  2  6  1  0  0  0  0
  3  5  2  0  0  0  0
  4  5  1  0  0  0  0
  4  7  1  0  0  0  0
  5  2  1  0  0  0  0
  6  9  1  0  0  0  0
  7 28  1  6  0  0  0
  7  9  1  0  0  0  0
  8  4  2  0  0  0  0
 10  3  1  0  0  0  0
 11 16  1  0  0  0  0
 11 12  1  0  0  0  0
 12 14  2  0  0  0  0
 13 19  1  0  0  0  0
 13 10  1  0  0  0  0
 14 13  2  0  0  0  0
 15 19  1  0  0  0  0
 16 18  1  0  0  0  0
 17 11  2  0  0  0  0
 18 15  1  0  0  0  0
 19 20  1  1  0  0  0
 20 23  1  0  0  0  0
 22 23  1  0  0  0  0
 22 26  1  0  0  0  0
 23 25  2  0  0  0  0
 24 21  1  0  0  0  0
 25 21  1  0  0  0  0
 26 24  1  0  0  0  0
 28 27  2  0  0  0  0
 29 28  1  0  0  0  0
 30 29  1  0  0  0  0
 31 40  1  0  0  0  0
 31 30  1  1  0  0  0
 32 31  1  0  0  0  0
 33 32  1  0  0  0  0
 34 35  2  0  0  0  0
 34 33  1  0  0  0  0
 36 37  1  6  0  0  0
 36 34  1  0  0  0  0
 38 39  1  0  0  0  0
 39 36  1  0  0  0  0
 41 40  1  0  0  0  0
 42 41  1  0  0  0  0
 43 44  2  0  0  0  0
 43 45  1  0  0  0  0
 44 46  1  0  0  0  0
 45 42  2  0  0  0  0
 46 42  1  0  0  0  0
M  END
>  <MODEL>
2

>  <REMARK>
 VINA RESULT:      -6.6      2.489      5.058
  Name = 
  14 active torsions:
  status: ('A' for Active; 'I' for Inactive)
    1  A    between atoms: C_1  and  C_22
    2  A    between atoms: C_1  and  C_42
    3  A    between atoms: C_3  and  C_35
    4  A    between atoms: C_11  and  C_44
    5  A    between atoms: C_16  and  C_30
    6  A    between atoms: C_19  and  N_24
    7  A    between atoms: C_19  and  C_45
    8  A    between atoms: C_21  and  N_41
    9  A    between atoms: C_22  and  C_23
   10  A    between atoms: C_23  and  O_27
   11  A    between atoms: O_27  and  C_45
   12  A    between atoms: C_35  and  N_43
   13  A    between atoms: C_39  and  N_41
   14  A    between atoms: N_43  and  C_45
                            x       y       z     vdW  Elec       q    Type
                         _______ _______ _______ _____ _____    ______ ____

>  <TORSDO>
F 14

$$$$
=
 OpenBabel11072413563D

 46 50  0  0  1  0  0  0  0  0999 V2000
  161.9370  213.8240  144.4500 C   0  0  0  0  0  3  0  0  0  0  0  0
  158.9980  214.0340  147.5830 C   0  0  0  0  0  2  0  0  0  0  0  0
  159.6340  213.9460  145.1710 C   0  0  0  0  0  3  0  0  0  0  0  0
  161.4140  213.8020  146.8190 C   0  0  0  0  0  0  0  0  0  0  0  0
  160.0390  213.8860  146.5080 C   0  0  0  0  0  0  0  0  0  0  0  0
  159.4770  213.4910  148.9230 C   0  0  0  0  0  2  0  0  0  0  0  0
  161.8940  213.6750  148.2420 C   0  0  1  0  0  3  0  0  0  0  0  0
  162.3530  213.7710  145.7820 C   0  0  0  0  0  3  0  0  0  0  0  0
  160.8350  214.0910  149.2680 C   0  0  0  0  0  2  0  0  0  0  0  0
  160.5750  213.9020  144.1280 C   0  0  0  0  0  0  0  0  0  0  0  0
  157.3290  214.1470  140.5370 C   0  0  0  0  0  0  0  0  0  0  0  0
  157.6470  214.0900  141.9760 C   0  0  0  0  0  3  0  0  0  0  0  0
  160.1440  213.9440  142.7070 C   0  0  0  0  0  0  0  0  0  0  0  0
  158.8750  214.0130  142.3960 C   0  0  0  0  0  0  0  0  0  0  0  0
  160.6310  214.2890  140.1760 C   0  0  0  0  0  2  0  0  0  0  0  0
  158.2960  213.9040  139.5020 N   0  0  0  0  0  2  0  0  0  0  0  0
  156.1220  214.4530  140.1950 N   0  0  0  0  0  2  0  0  0  0  0  0
  159.6060  213.2810  139.6700 C   0  0  0  0  0  2  0  0  0  0  0  0
  161.1630  213.9530  141.5820 C   0  0  2  0  0  3  0  0  0  0  0  0
  162.0330  212.7730  141.5820 N   0  0  0  0  0  2  0  0  0  0  0  0
  163.4420  211.2350  138.3820 C   0  0  0  0  0  2  0  0  0  0  0  0
  161.4060  210.6290  140.4240 C   0  0  0  0  0  2  0  0  0  0  0  0
  162.2720  211.8640  140.5000 C   0  0  0  0  0  0  0  0  0  0  0  0
  162.2870  210.2770  138.1180 C   0  0  0  0  0  2  0  0  0  0  0  0
  163.1370  212.1670  139.5190 C   0  0  0  0  0  3  0  0  0  0  0  0
  161.9150  209.5930  139.4240 C   0  0  0  0  0  2  0  0  0  0  0  0
  163.3820  211.8530  147.8640 O   0  0  0  0  0  0  0  0  0  0  0  0
  162.4040  212.2960  148.5240 C   0  0  0  0  0  0  0  0  0  0  0  0
  161.7850  211.4880  149.5320 N   0  0  0  0  0  2  0  0  0  0  0  0
  162.2960  210.1820  149.9280 C   0  0  0  0  0  2  0  0  0  0  0  0
  162.0840  209.9550  151.4260 C   0  0  2  0  0  3  0  0  0  0  0  0
  162.0830  208.5870  151.7810 O   0  0  0  0  0  0  0  0  0  0  0  0
  162.1540  207.8100  150.6100 C   0  0  0  0  0  2  0  0  0  0  0  0
  161.5100  206.4830  150.8460 C   0  0  0  0  0  0  0  0  0  0  0  0
  161.0140  206.2350  151.9340 O   0  0  0  0  0  0  0  0  0  0  0  0
  161.4680  205.4770  149.7360 C   0  0  2  0  0  3  0  0  0  0  0  0
  160.5640  205.9350  148.6040 C   0  0  0  0  0  1  0  0  0  0  0  0
  160.9460  203.1920  149.1760 O   0  0  0  0  0  1  0  0  0  0  0  0
  161.0780  204.0890  150.2350 C   0  0  0  0  0  2  0  0  0  0  0  0
  160.8960  210.6490  151.9170 N   0  0  0  0  0  2  0  0  0  0  0  0
  160.4570  209.9350  153.1050 C   0  0  0  0  0  2  0  0  0  0  0  0
  159.8370  210.8700  154.0910 C   0  0  0  0  0  0  0  0  0  0  0  0
  158.9850  211.7110  155.9620 C   0  0  0  0  0  3  0  0  0  0  0  0
  158.9670  212.7130  155.1470 N   0  0  0  0  0  0  0  0  0  0  0  0
  159.5340  210.5220  155.3270 C   0  0  0  0  0  2  0  0  0  0  0  0
  159.5080  212.3050  153.8620 C   0  0  0  0  0  3  0  0  0  0  0  0
  1  8  1  0  0  0  0
  2  6  1  0  0  0  0
  3  5  2  0  0  0  0
  4  7  1  0  0  0  0
  5  4  1  0  0  0  0
  5  2  1  0  0  0  0
  6  9  1  0  0  0  0
  7 28  1  1  0  0  0
  7  9  1  0  0  0  0
  8  4  2  0  0  0  0
 10  1  2  0  0  0  0
 10  3  1  0  0  0  0
 11 12  1  0  0  0  0
 12 14  2  0  0  0  0
 13 10  1  0  0  0  0
 14 13  2  0  0  0  0
 15 19  1  0  0  0  0
 16 18  1  0  0  0  0
 16 11  1  0  0  0  0
 17 11  2  0  0  0  0
 18 15  1  0  0  0  0
 19 20  1  6  0  0  0
 19 13  1  0  0  0  0
 21 25  1  0  0  0  0
 22 23  1  0  0  0  0
 23 20  1  0  0  0  0
 24 21  1  0  0  0  0
 24 26  1  0  0  0  0
 25 23  2  0  0  0  0
 26 22  1  0  0  0  0
 27 28  2  0  0  0  0
 28 29  1  0  0  0  0
 29 30  1  0  0  0  0
 31 30  1  6  0  0  0
 31 32  1  0  0  0  0
 31 40  1  0  0  0  0
 33 34  1  0  0  0  0
 33 32  1  0  0  0  0
 34 35  2  0  0  0  0
 36 37  1  6  0  0  0
 36 39  1  0  0  0  0
 36 34  1  0  0  0  0
 38 39  1  0  0  0  0
 40 41  1  0  0  0  0
 41 42  1  0  0  0  0
 42 45  1  0  0  0  0
 44 43  2  0  0  0  0
 45 43  1  0  0  0  0
 46 42  2  0  0  0  0
 46 44  1  0  0  0  0
M  END
>  <MODEL>
3

>  <REMARK>
 VINA RESULT:      -6.5      6.110     10.399
  Name = 
  14 active torsions:
  status: ('A' for Active; 'I' for Inactive)
    1  A    between atoms: C_1  and  C_22
    2  A    between atoms: C_1  and  C_42
    3  A    between atoms: C_3  and  C_35
    4  A    between atoms: C_11  and  C_44
    5  A    between atoms: C_16  and  C_30
    6  A    between atoms: C_19  and  N_24
    7  A    between atoms: C_19  and  C_45
    8  A    between atoms: C_21  and  N_41
    9  A    between atoms: C_22  and  C_23
   10  A    between atoms: C_23  and  O_27
   11  A    between atoms: O_27  and  C_45
   12  A    between atoms: C_35  and  N_43
   13  A    between atoms: C_39  and  N_41
   14  A    between atoms: N_43  and  C_45
                            x       y       z     vdW  Elec       q    Type
                         _______ _______ _______ _____ _____    ______ ____

>  <TORSDO>
F 14

$$$$
=
 OpenBabel11072413563D

 46 50  0  0  1  0  0  0  0  0999 V2000
  158.6290  213.5840  149.8600 C   0  0  0  0  0  3  0  0  0  0  0  0
  162.6000  213.1910  148.2580 C   0  0  0  0  0  2  0  0  0  0  0  0
  160.9310  212.8870  150.0880 C   0  0  0  0  0  3  0  0  0  0  0  0
  160.1520  213.8280  147.9880 C   0  0  0  0  0  0  0  0  0  0  0  0
  161.1880  213.2720  148.7690 C   0  0  0  0  0  0  0  0  0  0  0  0
  162.6590  213.1770  146.7360 C   0  0  0  0  0  2  0  0  0  0  0  0
  160.3670  214.2030  146.5440 C   0  0  1  0  0  3  0  0  0  0  0  0
  158.8770  213.9790  148.5450 C   0  0  0  0  0  3  0  0  0  0  0  0
  161.8480  214.3420  146.1780 C   0  0  0  0  0  2  0  0  0  0  0  0
  159.6480  213.0260  150.6450 C   0  0  0  0  0  0  0  0  0  0  0  0
  158.2570  213.6890  155.2400 C   0  0  0  0  0  0  0  0  0  0  0  0
  158.5240  214.2230  153.8910 C   0  0  0  0  0  3  0  0  0  0  0  0
  159.3690  212.5970  152.0390 C   0  0  0  0  0  0  0  0  0  0  0  0
  158.9500  213.4570  152.9300 C   0  0  0  0  0  0  0  0  0  0  0  0
  158.9340  210.7570  153.8250 C   0  0  0  0  0  2  0  0  0  0  0  0
  158.6460  212.3700  155.6600 N   0  0  0  0  0  2  0  0  0  0  0  0
  157.6220  214.4420  156.0750 N   0  0  0  0  0  2  0  0  0  0  0  0
  159.5960  211.4910  154.9850 C   0  0  0  0  0  2  0  0  0  0  0  0
  159.5200  211.1450  152.4540 C   0  0  2  0  0  3  0  0  0  0  0  0
  160.8790  210.6280  152.2620 N   0  0  0  0  0  2  0  0  0  0  0  0
  162.2270  207.6410  150.2980 C   0  0  0  0  0  2  0  0  0  0  0  0
  160.9270  208.1900  152.8850 C   0  0  0  0  0  2  0  0  0  0  0  0
  161.2640  209.2930  151.9100 C   0  0  0  0  0  0  0  0  0  0  0  0
  161.4920  206.5620  151.0830 C   0  0  0  0  0  2  0  0  0  0  0  0
  161.7810  209.0180  150.7020 C   0  0  0  0  0  3  0  0  0  0  0  0
  161.6210  206.8670  152.5670 C   0  0  0  0  0  2  0  0  0  0  0  0
  158.6540  212.6270  146.0340 O   0  0  0  0  0  0  0  0  0  0  0  0
  159.6720  213.2460  145.6250 C   0  0  0  0  0  0  0  0  0  0  0  0
  160.1620  213.0380  144.2950 N   0  0  0  0  0  2  0  0  0  0  0  0
  159.4750  212.2030  143.3170 C   0  0  0  0  0  2  0  0  0  0  0  0
  159.7230  212.7240  141.8990 C   0  0  2  0  0  3  0  0  0  0  0  0
  161.0560  213.1450  141.6930 O   0  0  0  0  0  0  0  0  0  0  0  0
  161.8870  212.0130  141.6160 C   0  0  0  0  0  2  0  0  0  0  0  0
  162.6370  212.0250  140.3250 C   0  0  0  0  0  0  0  0  0  0  0  0
  163.3630  212.9680  140.0540 O   0  0  0  0  0  0  0  0  0  0  0  0
  162.4990  210.8670  139.3830 C   0  0  2  0  0  3  0  0  0  0  0  0
  161.9750  211.3120  138.0270 C   0  0  0  0  0  1  0  0  0  0  0  0
  161.8110  208.5610  139.2570 O   0  0  0  0  0  1  0  0  0  0  0  0
  161.6450  209.7480  139.9700 C   0  0  0  0  0  2  0  0  0  0  0  0
  158.7590  213.7550  141.5240 N   0  0  0  0  0  2  0  0  0  0  0  0
  158.6290  213.6980  140.0780 C   0  0  0  0  0  2  0  0  0  0  0  0
  157.3650  213.0060  139.6820 C   0  0  0  0  0  0  0  0  0  0  0  0
  155.2380  212.6110  139.1790 C   0  0  0  0  0  3  0  0  0  0  0  0
  155.8120  211.4730  138.9700 N   0  0  0  0  0  0  0  0  0  0  0  0
  156.1940  213.6110  139.6300 C   0  0  0  0  0  2  0  0  0  0  0  0
  157.2320  211.5830  139.2600 C   0  0  0  0  0  3  0  0  0  0  0  0
  1 10  1  0  0  0  0
  2  5  1  0  0  0  0
  3 10  2  0  0  0  0
  4  8  1  0  0  0  0
  4  5  2  0  0  0  0
  5  3  1  0  0  0  0
  6  2  1  0  0  0  0
  7 28  1  6  0  0  0
  7  4  1  0  0  0  0
  8  1  2  0  0  0  0
  9  7  1  0  0  0  0
  9  6  1  0  0  0  0
 10 13  1  0  0  0  0
 11 16  1  0  0  0  0
 11 17  2  0  0  0  0
 12 11  1  0  0  0  0
 13 19  1  0  0  0  0
 13 14  2  0  0  0  0
 14 12  2  0  0  0  0
 15 18  1  0  0  0  0
 18 16  1  0  0  0  0
 19 20  1  1  0  0  0
 19 15  1  0  0  0  0
 21 25  1  0  0  0  0
 21 24  1  0  0  0  0
 23 20  1  0  0  0  0
 23 22  1  0  0  0  0
 24 26  1  0  0  0  0
 25 23  2  0  0  0  0
 26 22  1  0  0  0  0
 28 27  2  0  0  0  0
 29 28  1  0  0  0  0
 30 29  1  0  0  0  0
 31 30  1  1  0  0  0
 32 31  1  0  0  0  0
 33 32  1  0  0  0  0
 34 33  1  0  0  0  0
 35 34  2  0  0  0  0
 36 37  1  6  0  0  0
 36 39  1  0  0  0  0
 36 34  1  0  0  0  0
 38 39  1  0  0  0  0
 40 31  1  0  0  0  0
 41 40  1  0  0  0  0
 42 41  1  0  0  0  0
 43 45  1  0  0  0  0
 44 43  2  0  0  0  0
 44 46  1  0  0  0  0
 45 42  1  0  0  0  0
 46 42  2  0  0  0  0
M  END
>  <MODEL>
4

>  <REMARK>
 VINA RESULT:      -6.3      6.228      8.895
  Name = 
  14 active torsions:
  status: ('A' for Active; 'I' for Inactive)
    1  A    between atoms: C_1  and  C_22
    2  A    between atoms: C_1  and  C_42
    3  A    between atoms: C_3  and  C_35
    4  A    between atoms: C_11  and  C_44
    5  A    between atoms: C_16  and  C_30
    6  A    between atoms: C_19  and  N_24
    7  A    between atoms: C_19  and  C_45
    8  A    between atoms: C_21  and  N_41
    9  A    between atoms: C_22  and  C_23
   10  A    between atoms: C_23  and  O_27
   11  A    between atoms: O_27  and  C_45
   12  A    between atoms: C_35  and  N_43
   13  A    between atoms: C_39  and  N_41
   14  A    between atoms: N_43  and  C_45
                            x       y       z     vdW  Elec       q    Type
                         _______ _______ _______ _____ _____    ______ ____

>  <TORSDO>
F 14

$$$$
=
 OpenBabel11072413563D

 46 50  0  0  1  0  0  0  0  0999 V2000
  160.0660  211.3920  153.4760 C   0  0  0  0  0  3  0  0  0  0  0  0
  159.3800  207.8900  155.8760 C   0  0  0  0  0  2  0  0  0  0  0  0
  158.6360  210.0630  154.9000 C   0  0  0  0  0  3  0  0  0  0  0  0
  160.8410  209.2440  154.2940 C   0  0  0  0  0  0  0  0  0  0  0  0
  159.6160  209.0690  154.9730 C   0  0  0  0  0  0  0  0  0  0  0  0
  160.2610  206.7030  155.5110 C   0  0  0  0  0  2  0  0  0  0  0  0
  161.9030  208.1740  154.2950 C   0  0  1  0  0  3  0  0  0  0  0  0
  161.0540  210.4100  153.5490 C   0  0  0  0  0  3  0  0  0  0  0  0
  161.7160  207.1490  155.4170 C   0  0  0  0  0  2  0  0  0  0  0  0
  158.8420  211.2290  154.1420 C   0  0  0  0  0  0  0  0  0  0  0  0
  154.9920  213.7290  155.6940 C   0  0  0  0  0  0  0  0  0  0  0  0
  155.9770  212.6470  155.8770 C   0  0  0  0  0  3  0  0  0  0  0  0
  157.7930  212.2750  154.0470 C   0  0  0  0  0  0  0  0  0  0  0  0
  156.9020  212.4150  154.9940 C   0  0  0  0  0  0  0  0  0  0  0  0
  156.8190  214.4530  153.0110 C   0  0  0  0  0  2  0  0  0  0  0  0
  154.8310  214.4530  154.4620 N   0  0  0  0  0  2  0  0  0  0  0  0
  154.2540  214.0550  156.7020 N   0  0  0  0  0  2  0  0  0  0  0  0
  155.3510  214.0630  153.1550 C   0  0  0  0  0  2  0  0  0  0  0  0
  157.7540  213.2360  152.8720 C   0  0  2  0  0  3  0  0  0  0  0  0
  157.6030  212.5610  151.5790 N   0  0  0  0  0  2  0  0  0  0  0  0
  157.2070  213.8040  147.9880 C   0  0  0  0  0  2  0  0  0  0  0  0
  159.3580  213.3200  149.9440 C   0  0  0  0  0  2  0  0  0  0  0  0
  157.9040  213.0860  150.2800 C   0  0  0  0  0  0  0  0  0  0  0  0
  158.6580  213.6060  147.5680 C   0  0  0  0  0  2  0  0  0  0  0  0
  156.9450  213.2320  149.3530 C   0  0  0  0  0  3  0  0  0  0  0  0
  159.5610  214.1370  148.6700 C   0  0  0  0  0  2  0  0  0  0  0  0
  162.0290  206.2430  152.9060 O   0  0  0  0  0  0  0  0  0  0  0  0
  161.9990  207.5010  152.9610 C   0  0  0  0  0  0  0  0  0  0  0  0
  162.0550  208.2810  151.7610 N   0  0  0  0  0  2  0  0  0  0  0  0
  162.0420  207.6910  150.4280 C   0  0  0  0  0  2  0  0  0  0  0  0
  161.0110  206.5630  150.3520 C   0  0  2  0  0  3  0  0  0  0  0  0
  161.4920  205.3410  150.8730 O   0  0  0  0  0  0  0  0  0  0  0  0
  160.4090  204.4630  151.0580 C   0  0  0  0  0  2  0  0  0  0  0  0
  160.8570  203.0560  150.8370 C   0  0  0  0  0  0  0  0  0  0  0  0
  161.6280  202.5340  151.6280 O   0  0  0  0  0  0  0  0  0  0  0  0
  160.3400  202.2950  149.6540 C   0  0  2  0  0  3  0  0  0  0  0  0
  160.8480  200.8630  149.6480 C   0  0  0  0  0  1  0  0  0  0  0  0
  161.3440  202.1630  147.4670 O   0  0  0  0  0  1  0  0  0  0  0  0
  160.6500  203.0020  148.3380 C   0  0  0  0  0  2  0  0  0  0  0  0
  160.4740  206.4090  149.0030 N   0  0  0  0  0  2  0  0  0  0  0  0
  161.4650  206.9620  148.0940 C   0  0  0  0  0  2  0  0  0  0  0  0
  161.4690  206.2240  146.7940 C   0  0  0  0  0  0  0  0  0  0  0  0
  162.0740  204.9070  145.1120 C   0  0  0  0  0  3  0  0  0  0  0  0
  160.8990  205.3170  144.7650 N   0  0  0  0  0  0  0  0  0  0  0  0
  162.4690  205.4600  146.3990 C   0  0  0  0  0  2  0  0  0  0  0  0
  160.3690  206.2000  145.7900 C   0  0  0  0  0  3  0  0  0  0  0  0
  1  8  2  0  0  0  0
  1 10  1  0  0  0  0
  3  5  1  0  0  0  0
  4  7  1  0  0  0  0
  4  5  2  0  0  0  0
  5  2  1  0  0  0  0
  6  2  1  0  0  0  0
  7 28  1  6  0  0  0
  7  9  1  0  0  0  0
  8  4  1  0  0  0  0
  9  6  1  0  0  0  0
 10  3  2  0  0  0  0
 11 12  1  0  0  0  0
 11 17  2  0  0  0  0
 13 10  1  0  0  0  0
 13 14  2  0  0  0  0
 14 12  2  0  0  0  0
 15 18  1  0  0  0  0
 16 11  1  0  0  0  0
 18 16  1  0  0  0  0
 19 20  1  6  0  0  0
 19 15  1  0  0  0  0
 19 13  1  0  0  0  0
 21 25  1  0  0  0  0
 22 23  1  0  0  0  0
 23 20  1  0  0  0  0
 24 21  1  0  0  0  0
 24 26  1  0  0  0  0
 25 23  2  0  0  0  0
 26 22  1  0  0  0  0
 27 28  2  0  0  0  0
 29 28  1  0  0  0  0
 30 29  1  0  0  0  0
 31 30  1  6  0  0  0
 31 32  1  0  0  0  0
 32 33  1  0  0  0  0
 34 33  1  0  0  0  0
 34 35  2  0  0  0  0
 36 37  1  6  0  0  0
 36 34  1  0  0  0  0
 38 39  1  0  0  0  0
 39 36  1  0  0  0  0
 40 31  1  0  0  0  0
 41 40  1  0  0  0  0
 42 41  1  0  0  0  0
 43 45  1  0  0  0  0
 44 43  2  0  0  0  0
 44 46  1  0  0  0  0
 45 42  1  0  0  0  0
 46 42  2  0  0  0  0
M  END
>  <MODEL>
5

>  <REMARK>
 VINA RESULT:      -6.1      1.789      2.610
  Name = 
  14 active torsions:
  status: ('A' for Active; 'I' for Inactive)
    1  A    between atoms: C_1  and  C_22
    2  A    between atoms: C_1  and  C_42
    3  A    between atoms: C_3  and  C_35
    4  A    between atoms: C_11  and  C_44
    5  A    between atoms: C_16  and  C_30
    6  A    between atoms: C_19  and  N_24
    7  A    between atoms: C_19  and  C_45
    8  A    between atoms: C_21  and  N_41
    9  A    between atoms: C_22  and  C_23
   10  A    between atoms: C_23  and  O_27
   11  A    between atoms: O_27  and  C_45
   12  A    between atoms: C_35  and  N_43
   13  A    between atoms: C_39  and  N_41
   14  A    between atoms: N_43  and  C_45
                            x       y       z     vdW  Elec       q    Type
                         _______ _______ _______ _____ _____    ______ ____

>  <TORSDO>
F 14

$$$$
=
 OpenBabel11072413563D

 46 50  0  0  1  0  0  0  0  0999 V2000
  160.9450  209.9380  151.1900 C   0  0  0  0  0  3  0  0  0  0  0  0
  160.9370  207.0370  154.3650 C   0  0  0  0  0  2  0  0  0  0  0  0
  160.3170  209.2640  153.4240 C   0  0  0  0  0  3  0  0  0  0  0  0
  161.5060  207.7140  151.9790 C   0  0  0  0  0  0  0  0  0  0  0  0
  160.8900  208.0050  153.2160 C   0  0  0  0  0  0  0  0  0  0  0  0
  161.1360  205.6010  153.8970 C   0  0  0  0  0  2  0  0  0  0  0  0
  162.0840  206.3520  151.6880 C   0  0  1  0  0  3  0  0  0  0  0  0
  161.5270  208.6880  150.9750 C   0  0  0  0  0  3  0  0  0  0  0  0
  162.3320  205.5270  152.9550 C   0  0  0  0  0  2  0  0  0  0  0  0
  160.3260  210.2390  152.4120 C   0  0  0  0  0  0  0  0  0  0  0  0
  157.5590  213.4550  154.7540 C   0  0  0  0  0  0  0  0  0  0  0  0
  158.1120  212.0940  154.6240 C   0  0  0  0  0  3  0  0  0  0  0  0
  159.6980  211.5680  152.6250 C   0  0  0  0  0  0  0  0  0  0  0  0
  158.9060  211.7760  153.6440 C   0  0  0  0  0  0  0  0  0  0  0  0
  159.5320  214.1220  152.1620 C   0  0  0  0  0  2  0  0  0  0  0  0
  157.6600  214.4530  153.7240 N   0  0  0  0  0  2  0  0  0  0  0  0
  156.9720  213.7680  155.8610 N   0  0  0  0  0  2  0  0  0  0  0  0
  158.0200  214.2230  152.3280 C   0  0  0  0  0  2  0  0  0  0  0  0
  159.9950  212.7290  151.6930 C   0  0  2  0  0  3  0  0  0  0  0  0
  159.6270  212.4590  150.3000 N   0  0  0  0  0  2  0  0  0  0  0  0
  162.5870  213.0430  147.9560 C   0  0  0  0  0  2  0  0  0  0  0  0
  159.6420  213.1290  147.8740 C   0  0  0  0  0  2  0  0  0  0  0  0
  160.3960  212.7390  149.1230 C   0  0  0  0  0  0  0  0  0  0  0  0
  161.8260  213.8320  146.8970 C   0  0  0  0  0  2  0  0  0  0  0  0
  161.7370  212.7840  149.1670 C   0  0  0  0  0  3  0  0  0  0  0  0
  160.5090  213.1250  146.6170 C   0  0  0  0  0  2  0  0  0  0  0  0
  160.5530  206.2370  149.8660 O   0  0  0  0  0  0  0  0  0  0  0  0
  161.2360  205.5980  150.7110 C   0  0  0  0  0  0  0  0  0  0  0  0
  161.2000  204.1660  150.7400 N   0  0  0  0  0  2  0  0  0  0  0  0
  160.4800  203.3700  149.7540 C   0  0  0  0  0  2  0  0  0  0  0  0
  161.4520  202.4990  148.9550 C   0  0  2  0  0  3  0  0  0  0  0  0
  161.7240  203.0160  147.6680 O   0  0  0  0  0  0  0  0  0  0  0  0
  162.2900  204.2970  147.7990 C   0  0  0  0  0  2  0  0  0  0  0  0
  162.7740  204.7720  146.4680 C   0  0  0  0  0  0  0  0  0  0  0  0
  163.8180  204.3330  146.0110 O   0  0  0  0  0  0  0  0  0  0  0  0
  161.9620  205.7710  145.7020 C   0  0  2  0  0  3  0  0  0  0  0  0
  160.9450  206.4630  146.5940 C   0  0  0  0  0  1  0  0  0  0  0  0
  159.9230  205.3820  144.4770 O   0  0  0  0  0  1  0  0  0  0  0  0
  161.2980  205.1510  144.4760 C   0  0  0  0  0  2  0  0  0  0  0  0
  161.0180  201.1070  148.9050 N   0  0  0  0  0  2  0  0  0  0  0  0
  161.8920  200.4300  147.9620 C   0  0  0  0  0  2  0  0  0  0  0  0
  161.2160  200.2480  146.6420 C   0  0  0  0  0  0  0  0  0  0  0  0
  160.4280  199.3350  144.7770 C   0  0  0  0  0  3  0  0  0  0  0  0
  159.9940  200.5500  144.7230 N   0  0  0  0  0  0  0  0  0  0  0  0
  161.2060  199.1040  145.9850 C   0  0  0  0  0  2  0  0  0  0  0  0
  160.4370  201.2790  145.8990 C   0  0  0  0  0  3  0  0  0  0  0  0
  1 10  1  0  0  0  0
  4  5  2  0  0  0  0
  5  3  1  0  0  0  0
  5  2  1  0  0  0  0
  6  2  1  0  0  0  0
  7 28  1  6  0  0  0
  7  4  1  0  0  0  0
  7  9  1  0  0  0  0
  8  1  2  0  0  0  0
  8  4  1  0  0  0  0
  9  6  1  0  0  0  0
 10 13  1  0  0  0  0
 10  3  2  0  0  0  0
 11 17  2  0  0  0  0
 12 11  1  0  0  0  0
 13 14  2  0  0  0  0
 14 12  2  0  0  0  0
 15 18  1  0  0  0  0
 16 11  1  0  0  0  0
 18 16  1  0  0  0  0
 19 20  1  6  0  0  0
 19 15  1  0  0  0  0
 19 13  1  0  0  0  0
 21 25  1  0  0  0  0
 22 23  1  0  0  0  0
 23 25  2  0  0  0  0
 23 20  1  0  0  0  0
 24 21  1  0  0  0  0
 26 24  1  0  0  0  0
 26 22  1  0  0  0  0
 27 28  2  0  0  0  0
 28 29  1  0  0  0  0
 30 29  1  0  0  0  0
 31 30  1  6  0  0  0
 32 33  1  0  0  0  0
 32 31  1  0  0  0  0
 34 33  1  0  0  0  0
 35 34  2  0  0  0  0
 36 34  1  0  0  0  0
 36 37  1  1  0  0  0
 39 38  1  0  0  0  0
 39 36  1  0  0  0  0
 40 31  1  0  0  0  0
 41 40  1  0  0  0  0
 42 41  1  0  0  0  0
 43 45  1  0  0  0  0
 44 43  2  0  0  0  0
 44 46  1  0  0  0  0
 45 42  1  0  0  0  0
 46 42  2  0  0  0  0
M  END
>  <MODEL>
6

>  <REMARK>
 VINA RESULT:      -6.0      2.287      3.663
  Name = 
  14 active torsions:
  status: ('A' for Active; 'I' for Inactive)
    1  A    between atoms: C_1  and  C_22
    2  A    between atoms: C_1  and  C_42
    3  A    between atoms: C_3  and  C_35
    4  A    between atoms: C_11  and  C_44
    5  A    between atoms: C_16  and  C_30
    6  A    between atoms: C_19  and  N_24
    7  A    between atoms: C_19  and  C_45
    8  A    between atoms: C_21  and  N_41
    9  A    between atoms: C_22  and  C_23
   10  A    between atoms: C_23  and  O_27
   11  A    between atoms: O_27  and  C_45
   12  A    between atoms: C_35  and  N_43
   13  A    between atoms: C_39  and  N_41
   14  A    between atoms: N_43  and  C_45
                            x       y       z     vdW  Elec       q    Type
                         _______ _______ _______ _____ _____    ______ ____

>  <TORSDO>
F 14

$$$$
=
 OpenBabel11072413563D

 46 50  0  0  1  0  0  0  0  0999 V2000
  159.3850  212.4430  144.4120 C   0  0  0  0  0  3  0  0  0  0  0  0
  163.0780  213.7900  146.1550 C   0  0  0  0  0  2  0  0  0  0  0  0
  161.4860  213.6220  144.2400 C   0  0  0  0  0  3  0  0  0  0  0  0
  160.8180  212.6390  146.3590 C   0  0  0  0  0  0  0  0  0  0  0  0
  161.7490  213.3720  145.5900 C   0  0  0  0  0  0  0  0  0  0  0  0
  163.0480  213.8940  147.6740 C   0  0  0  0  0  2  0  0  0  0  0  0
  161.0300  212.3960  147.8320 C   0  0  1  0  0  3  0  0  0  0  0  0
  159.6400  212.1810  145.7590 C   0  0  0  0  0  3  0  0  0  0  0  0
  162.4820  212.6090  148.2680 C   0  0  0  0  0  2  0  0  0  0  0  0
  160.2980  213.1730  143.6380 C   0  0  0  0  0  0  0  0  0  0  0  0
  157.4230  214.0710  139.8420 C   0  0  0  0  0  0  0  0  0  0  0  0
  157.5970  213.7710  141.2750 C   0  0  0  0  0  3  0  0  0  0  0  0
  160.0090  213.4580  142.2100 C   0  0  0  0  0  0  0  0  0  0  0  0
  158.7780  213.6010  141.7930 C   0  0  0  0  0  0  0  0  0  0  0  0
  160.7450  214.2050  139.8300 C   0  0  0  0  0  2  0  0  0  0  0  0
  158.4870  213.9820  138.8780 N   0  0  0  0  0  2  0  0  0  0  0  0
  156.2570  214.4530  139.4400 N   0  0  0  0  0  2  0  0  0  0  0  0
  159.7710  213.3140  139.0670 C   0  0  0  0  0  2  0  0  0  0  0  0
  161.1340  213.6320  141.2060 C   0  0  2  0  0  3  0  0  0  0  0  0
  161.9960  212.4510  141.0940 N   0  0  0  0  0  2  0  0  0  0  0  0
  162.8190  210.3120  138.0370 C   0  0  0  0  0  2  0  0  0  0  0  0
  160.7710  210.4660  140.1500 C   0  0  0  0  0  2  0  0  0  0  0  0
  161.9400  211.4190  140.1000 C   0  0  0  0  0  0  0  0  0  0  0  0
  161.4380  209.6850  137.8780 C   0  0  0  0  0  2  0  0  0  0  0  0
  162.8190  211.3880  139.0850 C   0  0  0  0  0  3  0  0  0  0  0  0
  160.9430  209.2460  139.2480 C   0  0  0  0  0  2  0  0  0  0  0  0
  159.2640  213.9770  148.0850 O   0  0  0  0  0  0  0  0  0  0  0  0
  160.0920  213.2200  148.6590 C   0  0  0  0  0  0  0  0  0  0  0  0
  160.1390  213.1490  150.0890 N   0  0  0  0  0  2  0  0  0  0  0  0
  159.1880  213.8420  150.9500 C   0  0  0  0  0  2  0  0  0  0  0  0
  159.3050  213.3400  152.3910 C   0  0  2  0  0  3  0  0  0  0  0  0
  160.2480  212.2970  152.5350 O   0  0  0  0  0  0  0  0  0  0  0  0
  159.5780  211.0620  152.4780 C   0  0  0  0  0  2  0  0  0  0  0  0
  160.4320  209.9970  153.0850 C   0  0  0  0  0  0  0  0  0  0  0  0
  160.8020  210.1030  154.2440 O   0  0  0  0  0  0  0  0  0  0  0  0
  160.8110  208.8010  152.2650 C   0  0  2  0  0  3  0  0  0  0  0  0
  160.8430  207.5370  153.1090 C   0  0  0  0  0  1  0  0  0  0  0  0
  161.9090  209.5630  150.2600 O   0  0  0  0  0  1  0  0  0  0  0  0
  162.1260  209.0090  151.5210 C   0  0  0  0  0  2  0  0  0  0  0  0
  158.0030  212.9810  152.9470 N   0  0  0  0  0  2  0  0  0  0  0  0
  157.7790  213.8580  154.0840 C   0  0  0  0  0  2  0  0  0  0  0  0
  157.1940  213.1050  155.2340 C   0  0  0  0  0  0  0  0  0  0  0  0
  156.0740  212.6070  157.0860 C   0  0  0  0  0  3  0  0  0  0  0  0
  156.5250  211.4630  156.6910 N   0  0  0  0  0  0  0  0  0  0  0  0
  156.4760  213.6750  156.1830 C   0  0  0  0  0  2  0  0  0  0  0  0
  157.2880  211.6360  155.4660 C   0  0  0  0  0  3  0  0  0  0  0  0
  1  8  1  0  0  0  0
  2  6  1  0  0  0  0
  3  5  2  0  0  0  0
  4  7  1  0  0  0  0
  5  2  1  0  0  0  0
  5  4  1  0  0  0  0
  6  9  1  0  0  0  0
  7  9  1  0  0  0  0
  7 28  1  1  0  0  0
  8  4  2  0  0  0  0
 10  3  1  0  0  0  0
 10  1  2  0  0  0  0
 11 12  1  0  0  0  0
 12 14  2  0  0  0  0
 13 10  1  0  0  0  0
 14 13  2  0  0  0  0
 15 19  1  0  0  0  0
 16 18  1  0  0  0  0
 16 11  1  0  0  0  0
 17 11  2  0  0  0  0
 18 15  1  0  0  0  0
 19 20  1  6  0  0  0
 19 13  1  0  0  0  0
 21 25  1  0  0  0  0
 23 22  1  0  0  0  0
 23 20  1  0  0  0  0
 24 21  1  0  0  0  0
 24 26  1  0  0  0  0
 25 23  2  0  0  0  0
 26 22  1  0  0  0  0
 27 28  2  0  0  0  0
 28 29  1  0  0  0  0
 29 30  1  0  0  0  0
 31 30  1  6  0  0  0
 31 32  1  0  0  0  0
 31 40  1  0  0  0  0
 33 32  1  0  0  0  0
 33 34  1  0  0  0  0
 34 35  2  0  0  0  0
 36 34  1  0  0  0  0
 36 37  1  1  0  0  0
 38 39  1  0  0  0  0
 39 36  1  0  0  0  0
 40 41  1  0  0  0  0
 41 42  1  0  0  0  0
 42 46  2  0  0  0  0
 42 45  1  0  0  0  0
 44 43  2  0  0  0  0
 45 43  1  0  0  0  0
 46 44  1  0  0  0  0
M  END
>  <MODEL>
7

>  <REMARK>
 VINA RESULT:      -5.8      6.365     11.557
  Name = 
  14 active torsions:
  status: ('A' for Active; 'I' for Inactive)
    1  A    between atoms: C_1  and  C_22
    2  A    between atoms: C_1  and  C_42
    3  A    between atoms: C_3  and  C_35
    4  A    between atoms: C_11  and  C_44
    5  A    between atoms: C_16  and  C_30
    6  A    between atoms: C_19  and  N_24
    7  A    between atoms: C_19  and  C_45
    8  A    between atoms: C_21  and  N_41
    9  A    between atoms: C_22  and  C_23
   10  A    between atoms: C_23  and  O_27
   11  A    between atoms: O_27  and  C_45
   12  A    between atoms: C_35  and  N_43
   13  A    between atoms: C_39  and  N_41
   14  A    between atoms: N_43  and  C_45
                            x       y       z     vdW  Elec       q    Type
                         _______ _______ _______ _____ _____    ______ ____

>  <TORSDO>
F 14

$$$$
=
 OpenBabel11072413563D

 46 50  0  0  1  0  0  0  0  0999 V2000
  160.6220  210.4980  151.6740 C   0  0  0  0  0  3  0  0  0  0  0  0
  161.0630  207.2190  154.4200 C   0  0  0  0  0  2  0  0  0  0  0  0
  160.2100  209.4880  153.8300 C   0  0  0  0  0  3  0  0  0  0  0  0
  161.4050  208.2460  152.1180 C   0  0  0  0  0  0  0  0  0  0  0  0
  160.8600  208.3210  153.4180 C   0  0  0  0  0  0  0  0  0  0  0  0
  161.3360  205.8780  153.7510 C   0  0  0  0  0  2  0  0  0  0  0  0
  162.0620  206.9880  151.6100 C   0  0  1  0  0  3  0  0  0  0  0  0
  161.2800  209.3410  151.2560 C   0  0  0  0  0  3  0  0  0  0  0  0
  162.4630  206.0280  152.7350 C   0  0  0  0  0  2  0  0  0  0  0  0
  160.0720  210.5840  152.9610 C   0  0  0  0  0  0  0  0  0  0  0  0
  157.5250  213.3290  156.0380 C   0  0  0  0  0  0  0  0  0  0  0  0
  158.1840  212.0530  155.7020 C   0  0  0  0  0  3  0  0  0  0  0  0
  159.3620  211.8160  153.3900 C   0  0  0  0  0  0  0  0  0  0  0  0
  158.7840  211.8790  154.5610 C   0  0  0  0  0  0  0  0  0  0  0  0
  158.8270  214.3500  153.1530 C   0  0  0  0  0  2  0  0  0  0  0  0
  157.2990  214.3790  155.0820 N   0  0  0  0  0  2  0  0  0  0  0  0
  157.1540  213.5170  157.2600 N   0  0  0  0  0  2  0  0  0  0  0  0
  157.3810  214.2600  153.6290 C   0  0  0  0  0  2  0  0  0  0  0  0
  159.3290  213.0470  152.5020 C   0  0  2  0  0  3  0  0  0  0  0  0
  158.7080  212.8000  151.1970 N   0  0  0  0  0  2  0  0  0  0  0  0
  158.3900  214.3710  147.7290 C   0  0  0  0  0  2  0  0  0  0  0  0
  160.5080  213.5470  149.6060 C   0  0  0  0  0  2  0  0  0  0  0  0
  159.0430  213.4060  149.9420 C   0  0  0  0  0  0  0  0  0  0  0  0
  159.8170  214.0900  147.2720 C   0  0  0  0  0  2  0  0  0  0  0  0
  158.0920  213.7090  149.0440 C   0  0  0  0  0  3  0  0  0  0  0  0
  160.7690  214.4500  148.4020 C   0  0  0  0  0  2  0  0  0  0  0  0
  160.3730  205.4330  150.9740 O   0  0  0  0  0  0  0  0  0  0  0  0
  161.2050  206.2990  150.5940 C   0  0  0  0  0  0  0  0  0  0  0  0
  161.3320  206.6210  149.2040 N   0  0  0  0  0  2  0  0  0  0  0  0
  160.4590  206.0670  148.1770 C   0  0  0  0  0  2  0  0  0  0  0  0
  161.2800  205.3300  147.1160 C   0  0  2  0  0  3  0  0  0  0  0  0
  162.4190  204.6870  147.6510 O   0  0  0  0  0  0  0  0  0  0  0  0
  162.2680  203.2960  147.5120 C   0  0  0  0  0  2  0  0  0  0  0  0
  161.5230  202.7500  148.6850 C   0  0  0  0  0  0  0  0  0  0  0  0
  161.7190  203.2140  149.7980 O   0  0  0  0  0  0  0  0  0  0  0  0
  160.5290  201.6470  148.4790 C   0  0  2  0  0  3  0  0  0  0  0  0
  159.6890  201.4160  149.7250 C   0  0  0  0  0  1  0  0  0  0  0  0
  161.1200  200.2320  146.6200 O   0  0  0  0  0  1  0  0  0  0  0  0
  161.1930  200.3570  148.0070 C   0  0  0  0  0  2  0  0  0  0  0  0
  161.6180  206.1980  145.9920 N   0  0  0  0  0  2  0  0  0  0  0  0
  161.9110  205.3280  144.8660 C   0  0  0  0  0  2  0  0  0  0  0  0
  160.8540  204.2840  144.7070 C   0  0  0  0  0  0  0  0  0  0  0  0
  158.9490  203.2640  144.1940 C   0  0  0  0  0  3  0  0  0  0  0  0
  159.6850  202.3100  144.6600 N   0  0  0  0  0  0  0  0  0  0  0  0
  159.6600  204.5340  144.2060 C   0  0  0  0  0  3  0  0  0  0  0  0
  160.9840  202.8370  145.0390 C   0  0  0  0  0  2  0  0  0  0  0  0
  1 10  1  0  0  0  0
  4  5  2  0  0  0  0
  5  3  1  0  0  0  0
  5  2  1  0  0  0  0
  6  2  1  0  0  0  0
  7 28  1  6  0  0  0
  7  4  1  0  0  0  0
  7  9  1  0  0  0  0
  8  1  2  0  0  0  0
  8  4  1  0  0  0  0
  9  6  1  0  0  0  0
 10 13  1  0  0  0  0
 10  3  2  0  0  0  0
 11 17  2  0  0  0  0
 12 11  1  0  0  0  0
 13 14  2  0  0  0  0
 14 12  2  0  0  0  0
 15 18  1  0  0  0  0
 16 11  1  0  0  0  0
 18 16  1  0  0  0  0
 19 20  1  6  0  0  0
 19 15  1  0  0  0  0
 19 13  1  0  0  0  0
 21 25  1  0  0  0  0
 22 23  1  0  0  0  0
 23 20  1  0  0  0  0
 24 21  1  0  0  0  0
 24 26  1  0  0  0  0
 25 23  2  0  0  0  0
 26 22  1  0  0  0  0
 28 27  2  0  0  0  0
 29 28  1  0  0  0  0
 30 29  1  0  0  0  0
 31 32  1  0  0  0  0
 31 30  1  1  0  0  0
 33 32  1  0  0  0  0
 33 34  1  0  0  0  0
 34 35  2  0  0  0  0
 36 34  1  0  0  0  0
 36 37  1  1  0  0  0
 38 39  1  0  0  0  0
 39 36  1  0  0  0  0
 40 31  1  0  0  0  0
 41 40  1  0  0  0  0
 42 41  1  0  0  0  0
 42 46  1  0  0  0  0
 43 45  1  0  0  0  0
 43 44  2  0  0  0  0
 44 46  1  0  0  0  0
 45 42  2  0  0  0  0
M  END
>  <MODEL>
8

>  <REMARK>
 VINA RESULT:      -5.7      1.584      2.061
  Name = 
  14 active torsions:
  status: ('A' for Active; 'I' for Inactive)
    1  A    between atoms: C_1  and  C_22
    2  A    between atoms: C_1  and  C_42
    3  A    between atoms: C_3  and  C_35
    4  A    between atoms: C_11  and  C_44
    5  A    between atoms: C_16  and  C_30
    6  A    between atoms: C_19  and  N_24
    7  A    between atoms: C_19  and  C_45
    8  A    between atoms: C_21  and  N_41
    9  A    between atoms: C_22  and  C_23
   10  A    between atoms: C_23  and  O_27
   11  A    between atoms: O_27  and  C_45
   12  A    between atoms: C_35  and  N_43
   13  A    between atoms: C_39  and  N_41
   14  A    between atoms: N_43  and  C_45
                            x       y       z     vdW  Elec       q    Type
                         _______ _______ _______ _____ _____    ______ ____

>  <TORSDO>
F 14

$$$$
=
 OpenBabel11072413563D

 46 50  0  0  1  0  0  0  0  0999 V2000
  161.9000  206.3960  149.6780 C   0  0  0  0  0  3  0  0  0  0  0  0
  162.0930  210.5930  148.7630 C   0  0  0  0  0  2  0  0  0  0  0  0
  161.8270  208.2070  148.0810 C   0  0  0  0  0  3  0  0  0  0  0  0
  162.0650  208.6890  150.4500 C   0  0  0  0  0  0  0  0  0  0  0  0
  161.9560  209.1380  149.1160 C   0  0  0  0  0  0  0  0  0  0  0  0
  161.7530  211.5020  149.9360 C   0  0  0  0  0  2  0  0  0  0  0  0
  162.1450  209.6570  151.6040 C   0  0  1  0  0  3  0  0  0  0  0  0
  162.0360  207.3160  150.7180 C   0  0  0  0  0  3  0  0  0  0  0  0
  162.5400  211.0710  151.1680 C   0  0  0  0  0  2  0  0  0  0  0  0
  161.7850  206.8280  148.3500 C   0  0  0  0  0  0  0  0  0  0  0  0
  161.2060  205.4530  143.7380 C   0  0  0  0  0  0  0  0  0  0  0  0
  161.3340  206.5150  144.7530 C   0  0  0  0  0  3  0  0  0  0  0  0
  161.6270  205.8400  147.2520 C   0  0  0  0  0  0  0  0  0  0  0  0
  161.4780  206.2350  146.0140 C   0  0  0  0  0  0  0  0  0  0  0  0
  161.7960  203.4230  146.3060 C   0  0  0  0  0  2  0  0  0  0  0  0
  161.0090  204.0660  144.0640 N   0  0  0  0  0  2  0  0  0  0  0  0
  161.2980  205.7880  142.4950 N   0  0  0  0  0  2  0  0  0  0  0  0
  160.6040  203.5310  145.3610 C   0  0  0  0  0  2  0  0  0  0  0  0
  161.6780  204.3490  147.5320 C   0  0  2  0  0  3  0  0  0  0  0  0
  160.6440  203.9010  148.4700 N   0  0  0  0  0  2  0  0  0  0  0  0
  160.9540  203.0600  152.1840 C   0  0  0  0  0  2  0  0  0  0  0  0
  161.2050  201.7120  149.5760 C   0  0  0  0  0  2  0  0  0  0  0  0
  160.8270  203.1690  149.6890 C   0  0  0  0  0  0  0  0  0  0  0  0
  161.7390  201.7650  152.0110 C   0  0  0  0  0  2  0  0  0  0  0  0
  160.7980  203.7890  150.8790 C   0  0  0  0  0  3  0  0  0  0  0  0
  161.0970  200.9530  150.8970 C   0  0  0  0  0  2  0  0  0  0  0  0
  160.4560  208.6000  152.9100 O   0  0  0  0  0  0  0  0  0  0  0  0
  160.8720  209.6710  152.3910 C   0  0  0  0  0  0  0  0  0  0  0  0
  160.1350  210.8890  152.5520 N   0  0  0  0  0  2  0  0  0  0  0  0
  158.9480  210.9940  153.3910 C   0  0  0  0  0  2  0  0  0  0  0  0
  159.1680  212.0230  154.5030 C   0  0  2  0  0  3  0  0  0  0  0  0
  158.8300  213.3380  154.1100 O   0  0  0  0  0  0  0  0  0  0  0  0
  158.6160  214.1180  155.2600 C   0  0  0  0  0  2  0  0  0  0  0  0
  157.2220  213.9150  155.7550 C   0  0  0  0  0  0  0  0  0  0  0  0
  156.8960  214.3520  156.8480 O   0  0  0  0  0  0  0  0  0  0  0  0
  156.2330  213.1890  154.8950 C   0  0  2  0  0  3  0  0  0  0  0  0
  155.2020  214.1390  154.3080 C   0  0  0  0  0  1  0  0  0  0  0  0
  155.8250  210.8160  155.0060 O   0  0  0  0  0  1  0  0  0  0  0  0
  155.5670  212.0330  155.6360 C   0  0  0  0  0  2  0  0  0  0  0  0
  160.5170  211.9460  155.0540 N   0  0  0  0  0  2  0  0  0  0  0  0
  160.3840  211.4660  156.4190 C   0  0  0  0  0  2  0  0  0  0  0  0
  160.7870  210.0310  156.5240 C   0  0  0  0  0  0  0  0  0  0  0  0
  160.7470  207.8120  156.4440 C   0  0  0  0  0  3  0  0  0  0  0  0
  161.9570  208.0780  156.8090 N   0  0  0  0  0  0  0  0  0  0  0  0
  159.9730  209.0290  156.2500 C   0  0  0  0  0  3  0  0  0  0  0  0
  162.1330  209.5170  156.9010 C   0  0  0  0  0  2  0  0  0  0  0  0
  1  8  1  0  0  0  0
  2  5  1  0  0  0  0
  2  6  1  0  0  0  0
  3 10  1  0  0  0  0
  3  5  2  0  0  0  0
  4  8  2  0  0  0  0
  4  7  1  0  0  0  0
  5  4  1  0  0  0  0
  6  9  1  0  0  0  0
  7 28  1  6  0  0  0
  9  7  1  0  0  0  0
 10  1  2  0  0  0  0
 11 16  1  0  0  0  0
 11 12  1  0  0  0  0
 12 14  2  0  0  0  0
 13 19  1  0  0  0  0
 13 10  1  0  0  0  0
 14 13  2  0  0  0  0
 15 19  1  0  0  0  0
 16 18  1  0  0  0  0
 17 11  2  0  0  0  0
 18 15  1  0  0  0  0
 19 20  1  6  0  0  0
 20 23  1  0  0  0  0
 22 23  1  0  0  0  0
 22 26  1  0  0  0  0
 23 25  2  0  0  0  0
 24 21  1  0  0  0  0
 25 21  1  0  0  0  0
 26 24  1  0  0  0  0
 28 29  1  0  0  0  0
 28 27  2  0  0  0  0
 29 30  1  0  0  0  0
 31 30  1  6  0  0  0
 31 40  1  0  0  0  0
 32 31  1  0  0  0  0
 32 33  1  0  0  0  0
 33 34  1  0  0  0  0
 34 35  2  0  0  0  0
 36 37  1  1  0  0  0
 36 39  1  0  0  0  0
 36 34  1  0  0  0  0
 38 39  1  0  0  0  0
 40 41  1  0  0  0  0
 41 42  1  0  0  0  0
 42 46  1  0  0  0  0
 43 44  2  0  0  0  0
 44 46  1  0  0  0  0
 45 43  1  0  0  0  0
 45 42  2  0  0  0  0
M  END
>  <MODEL>
9

>  <REMARK>
 VINA RESULT:      -5.4      3.368     11.029
  Name = 
  14 active torsions:
  status: ('A' for Active; 'I' for Inactive)
    1  A    between atoms: C_1  and  C_22
    2  A    between atoms: C_1  and  C_42
    3  A    between atoms: C_3  and  C_35
    4  A    between atoms: C_11  and  C_44
    5  A    between atoms: C_16  and  C_30
    6  A    between atoms: C_19  and  N_24
    7  A    between atoms: C_19  and  C_45
    8  A    between atoms: C_21  and  N_41
    9  A    between atoms: C_22  and  C_23
   10  A    between atoms: C_23  and  O_27
   11  A    between atoms: O_27  and  C_45
   12  A    between atoms: C_35  and  N_43
   13  A    between atoms: C_39  and  N_41
   14  A    between atoms: N_43  and  C_45
                            x       y       z     vdW  Elec       q    Type
                         _______ _______ _______ _____ _____    ______ ____

>  <TORSDO>
F 14

$$$$
