=
 OpenBabel11072409513D

 66 72  0  0  1  0  0  0  0  0999 V2000
  160.0220  206.5110  150.2590 C   0  0  0  0  0  2  0  0  0  0  0  0
  160.6580  206.4910  148.9620 N   0  0  0  0  0  0  0  0  0  0  0  0
  159.6210  206.2530  147.9130 C   0  0  0  0  0  2  0  0  0  0  0  0
  159.9540  206.8220  146.6890 O   0  0  0  0  0  1  0  0  0  0  0  0
  161.7820  205.5450  148.9700 C   0  0  0  0  0  2  0  0  0  0  0  0
  162.7650  205.8010  147.8220 C   0  0  2  0  0  3  0  0  0  0  0  0
  162.9300  207.2760  147.4030 C   0  0  0  0  0  1  0  0  0  0  0  0
  162.6470  204.7230  146.6820 C   0  0  0  0  0  2  0  0  0  0  0  0
  162.0950  203.3510  147.1510 C   0  0  0  0  0  3  0  0  0  0  0  0
  162.0920  202.8270  148.3850 C   0  0  0  0  0  3  0  0  0  0  0  0
  161.1690  201.5550  148.7220 C   0  0  2  0  0  3  0  0  0  0  0  0
  159.9440  200.7870  150.6200 O   0  0  0  0  0  1  0  0  0  0  0  0
  160.0470  201.8380  149.6760 C   0  0  2  0  0  0  0  0  0  0  0  0
  158.7750  202.0530  148.8830 C   0  0  0  0  0  2  0  0  0  0  0  0
  157.8120  200.7930  148.8740 C   0  0  0  0  0  1  0  0  0  0  0  0
  160.2810  203.1160  150.3440 O   0  0  0  0  0  0  0  0  0  0  0  0
  161.8610  202.1740  151.7620 C   0  0  0  0  0  2  0  0  0  0  0  0
  160.6300  203.0290  151.6920 C   0  0  1  0  0  3  0  0  0  0  0  0
  162.0070  203.6860  151.9180 C   0  0  0  0  0  0  0  0  0  0  0  0
  162.7290  204.6750  152.0680 O   0  0  0  0  0  0  0  0  0  0  0  0
  162.0270  200.2990  148.7640 C   0  0  0  0  0  2  0  0  0  0  0  0
  162.0190  199.9100  147.3310 C   0  0  0  0  0  2  0  0  0  0  0  0
  160.6820  200.0710  146.7600 N   0  0  0  0  0  2  0  0  0  0  0  0
  160.6650  199.9240  145.3110 C   0  0  1  0  0  3  0  0  0  0  0  0
  160.4620  198.4620  145.1090 C   0  0  0  0  0  2  0  0  0  0  0  0
  161.6020  197.9730  144.4610 O   0  0  0  0  0  1  0  0  0  0  0  0
  159.8340  200.9730  144.5060 C   0  0  0  0  0  2  0  0  0  0  0  0
  159.5510  202.3140  145.1930 C   0  0  0  0  0  2  0  0  0  0  0  0
  159.4310  203.5540  143.9090 S   0  0  0  0  0  0  0  0  0  0  0  0
  160.9430  204.4960  144.3910 C   0  0  0  0  0  2  0  0  0  0  0  0
  161.2440  205.7900  143.6640 C   0  0  0  0  0  2  0  0  0  0  0  0
  161.7060  206.3270  141.6710 O   0  0  0  0  0  1  0  0  0  0  0  0
  162.1630  205.5830  142.6350 O   0  0  0  0  0  0  0  0  0  0  0  0
  161.0620  206.4190  151.4920 C   0  0  0  0  0  2  0  0  0  0  0  0
  160.2870  208.4480  152.9260 C   0  0  0  0  0  0  0  0  0  0  0  0
  162.5570  211.1690  156.9080 C   0  0  0  0  0  2  0  0  0  0  0  0
  157.5560  211.1520  155.3780 C   0  0  0  0  0  2  0  0  0  0  0  0
  161.7570  210.4870  153.0810 C   0  0  1  0  0  3  0  0  0  0  0  0
  161.1400  211.0390  156.2810 C   0  0  2  0  0  3  0  0  0  0  0  0
  162.3830  211.3130  155.4270 C   0  0  2  0  0  3  0  0  0  0  0  0
  159.2760  211.1250  153.6270 C   0  0  1  0  0  3  0  0  0  0  0  0
  159.8230  212.3940  154.3260 C   0  0  0  0  0  2  0  0  0  0  0  0
  161.4750  207.6540  152.3420 C   0  0  2  0  0  0  0  0  0  0  0  0
  159.4380  212.9310  156.8990 C   0  0  0  0  0  2  0  0  0  0  0  0
  162.3740  208.6460  151.5120 C   0  0  0  0  0  0  0  0  0  0  0  0
  162.3130  210.0390  151.7760 N   0  0  0  0  0  0  0  0  0  0  0  0
  159.3500  207.8230  153.4760 O   0  0  0  0  0  0  0  0  0  0  0  0
  162.9490  208.2520  150.4870 O   0  0  0  0  0  0  0  0  0  0  0  0
  158.0840  213.5710  156.4190 C   0  0  0  0  0  2  0  0  0  0  0  0
  160.3190  210.0000  153.1460 C   0  0  2  0  0  3  0  0  0  0  0  0
  162.5470  210.1150  154.3980 C   0  0  0  0  0  2  0  0  0  0  0  0
  160.2270  212.2300  155.8650 C   0  0  1  0  0  3  0  0  0  0  0  0
  157.7790  210.8360  153.9250 C   0  0  0  0  0  2  0  0  0  0  0  0
  157.1020  212.5500  155.7300 C   0  0  0  0  0  2  0  0  0  0  0  0
  162.2990  207.1000  153.4310 C   0  0  0  0  0  1  0  0  0  0  0  0
  161.0970  212.1440  148.2570 C   0  0  0  0  0  0  0  0  0  0  0  0
  161.0800  212.8000  149.5120 C   0  0  0  0  0  3  0  0  0  0  0  0
  161.5540  210.8120  148.2220 C   0  0  0  0  0  3  0  0  0  0  0  0
  161.8490  210.7760  150.6430 C   0  0  0  0  0  0  0  0  0  0  0  0
  161.9040  210.1790  149.3770 C   0  0  0  0  0  3  0  0  0  0  0  0
  161.4750  212.1600  150.6770 C   0  0  0  0  0  3  0  0  0  0  0  0
  160.2210  212.0830  145.8800 C   0  0  0  0  0  3  0  0  0  0  0  0
  160.8390  214.1900  146.8120 C   0  0  0  0  0  3  0  0  0  0  0  0
  160.5090  214.4510  145.4530 N   0  0  0  0  0  0  0  0  0  0  0  0
  160.0870  213.1570  144.8710 C   0  0  0  0  0  3  0  0  0  0  0  0
  160.7130  212.7700  147.0910 N   0  0  0  0  0  0  0  0  0  0  0  0
  1 34  1  0  0  0  0
  2  5  1  0  0  0  0
  2  1  1  0  0  0  0
  3  2  1  0  0  0  0
  4  3  1  0  0  0  0
  6  7  1  6  0  0  0
  6  5  1  0  0  0  0
  8  9  1  0  0  0  0
  8  6  1  0  0  0  0
  9 10  2  0  0  0  0
 11 10  1  1  0  0  0
 11 21  1  0  0  0  0
 11 13  1  0  0  0  0
 13 16  1  0  0  0  0
 13 12  1  1  0  0  0
 14 13  1  0  0  0  0
 15 14  1  0  0  0  0
 17 19  1  0  0  0  0
 18 16  1  6  0  0  0
 18 17  1  0  0  0  0
 18 19  1  0  0  0  0
 19 20  2  0  0  0  0
 22 21  1  0  0  0  0
 23 22  1  0  0  0  0
 24 27  1  6  0  0  0
 24 23  1  0  0  0  0
 25 24  1  0  0  0  0
 26 25  1  0  0  0  0
 27 28  1  0  0  0  0
 29 30  1  0  0  0  0
 29 28  1  0  0  0  0
 31 30  1  0  0  0  0
 32 33  1  0  0  0  0
 33 31  1  0  0  0  0
 34 43  1  0  0  0  0
 35 47  2  0  0  0  0
 37 54  1  0  0  0  0
 38 50  1  0  0  0  0
 38 51  1  1  0  0  0
 39 36  1  1  0  0  0
 40 51  1  6  0  0  0
 40 39  1  0  0  0  0
 40 36  1  0  0  0  0
 41 53  1  1  0  0  0
 41 42  1  0  0  0  0
 43 35  1  0  0  0  0
 43 55  1  1  0  0  0
 45 46  1  0  0  0  0
 45 43  1  0  0  0  0
 46 38  1  0  0  0  0
 48 45  2  0  0  0  0
 49 44  1  0  0  0  0
 50 35  1  1  0  0  0
 50 41  1  0  0  0  0
 52 42  1  6  0  0  0
 52 39  1  0  0  0  0
 52 44  1  0  0  0  0
 53 37  1  0  0  0  0
 54 49  1  0  0  0  0
 56 57  1  0  0  0  0
 57 61  2  0  0  0  0
 58 56  2  0  0  0  0
 58 60  1  0  0  0  0
 59 61  1  0  0  0  0
 59 46  1  0  0  0  0
 60 59  2  0  0  0  0
 62 66  1  0  0  0  0
 63 66  1  0  0  0  0
 64 63  2  0  0  0  0
 65 64  1  0  0  0  0
 65 62  2  0  0  0  0
 66 56  1  0  0  0  0
M  END
>  <MODEL>
1

>  <REMARK>
 VINA RESULT:       2.6      0.000      0.000
  Name = 
  26 active torsions:
  status: ('A' for Active; 'I' for Inactive)
    1  A    between atoms: N_1  and  C_4
    2  A    between atoms: N_1  and  C_23
    3  A    between atoms: N_1  and  C_24
    4  A    between atoms: C_2  and  C_55
    5  A    between atoms: C_3  and  N_34
    6  A    between atoms: C_3  and  C_52
    7  A    between atoms: C_4  and  C_12
    8  A    between atoms: C_5  and  C_7
    9  A    between atoms: C_5  and  C_23
   10  A    between atoms: C_7  and  C_26
   11  A    between atoms: C_11  and  C_52
   12  A    between atoms: C_11  and  C_55
   13  A    between atoms: C_11  and  C_60
   14  A    between atoms: C_12  and  C_38
   15  A    between atoms: C_14  and  N_37
   16  A    between atoms: C_15  and  C_28
   17  A    between atoms: C_15  and  O_59
   18  A    between atoms: C_22  and  O_56
   19  A    between atoms: C_28  and  S_31
   20  A    between atoms: S_31  and  C_46
   21  A    between atoms: N_34  and  C_40
   22  A    between atoms: C_35  and  N_45
   23  A    between atoms: C_40  and  C_42
   24  A    between atoms: C_40  and  C_44
   25  A    between atoms: C_44  and  C_46
   26  A    between atoms: C_55  and  O_56
                            x       y       z     vdW  Elec       q    Type
                         _______ _______ _______ _____ _____    ______ ____

>  <TORSDO>
F 26

$$$$
