=
 OpenBabel11072410393D

 50 56  0  0  1  0  0  0  0  0999 V2000
  159.4910  211.0810  153.6430 C   0  0  0  0  0  3  0  0  0  0  0  0
  163.2800  206.7210  150.6690 C   0  0  0  0  0  1  0  0  0  0  0  0
  161.2370  207.8590  153.5890 N   0  0  0  0  0  0  0  0  0  0  0  0
  161.9270  208.8270  151.0730 C   0  0  0  0  0  0  0  0  0  0  0  0
  161.1670  211.4430  150.3290 N   0  0  0  0  0  0  0  0  0  0  0  0
  162.1300  209.2870  149.6420 C   0  0  2  0  0  3  0  0  0  0  0  0
  160.7670  209.0720  153.1960 C   0  0  0  0  0  0  0  0  0  0  0  0
  161.8820  210.7750  149.4700 C   0  0  0  0  0  0  0  0  0  0  0  0
  159.8870  211.6160  152.4150 C   0  0  0  0  0  3  0  0  0  0  0  0
  160.7050  210.8720  151.5580 C   0  0  0  0  0  0  0  0  0  0  0  0
  159.9350  209.8120  154.0360 C   0  0  0  0  0  3  0  0  0  0  0  0
  162.0490  207.1200  152.7880 C   0  0  0  0  0  3  0  0  0  0  0  0
  161.1250  209.5880  151.9340 C   0  0  0  0  0  0  0  0  0  0  0  0
  162.4080  207.5800  151.5180 C   0  0  0  0  0  0  0  0  0  0  0  0
  162.3320  211.4730  148.2210 C   0  0  2  0  0  3  0  0  0  0  0  0
  163.7230  211.6010  148.2220 O   0  0  0  0  0  1  0  0  0  0  0  0
  161.2760  212.9290  145.2080 C   0  0  0  0  0  0  0  0  0  0  0  0
  163.2270  213.8890  144.7360 C   0  0  0  0  0  3  0  0  0  0  0  0
  160.2300  212.6910  147.4750 C   0  0  2  0  0  3  0  0  0  0  0  0
  161.6570  212.8430  148.0590 C   0  0  2  0  0  3  0  0  0  0  0  0
  162.6940  213.4620  143.6080 O   0  0  0  0  0  0  0  0  0  0  0  0
  161.5380  212.8870  143.8540 C   0  0  0  0  0  0  0  0  0  0  0  0
  162.5280  213.8070  147.2220 C   0  0  0  0  0  2  0  0  0  0  0  0
  160.2260  212.2200  146.0090 C   0  0  0  0  0  2  0  0  0  0  0  0
  159.4400  213.9780  147.6270 C   0  0  0  0  0  1  0  0  0  0  0  0
  162.3670  213.5440  145.7610 C   0  0  0  0  0  0  0  0  0  0  0  0
  161.5250  210.1780  139.9960 C   0  0  1  0  0  3  0  0  0  0  0  0
  162.6740  211.0790  140.0290 N   0  0  0  0  0  2  0  0  0  0  0  0
  160.0510  211.0880  140.5360 S   0  0  0  0  0  0  0  0  0  0  0  0
  161.1420  211.9220  141.6490 C   0  0  0  0  0  0  0  0  0  0  0  0
  162.5750  211.8690  141.2500 C   0  0  0  0  0  2  0  0  0  0  0  0
  161.3200  209.6620  138.5880 C   0  0  0  0  0  1  0  0  0  0  0  0
  160.7370  212.2720  142.8340 N   0  0  0  0  0  0  0  0  0  0  0  0
  161.2070  208.5630  148.7770 N   0  0  0  0  0  2  0  0  0  0  0  0
  160.8840  207.3010  149.4260 C   0  0  0  0  0  2  0  0  0  0  0  0
  160.8250  206.1850  148.3910 C   0  0  2  0  0  3  0  0  0  0  0  0
  160.7920  202.3280  150.2940 C   0  0  0  0  0  0  0  0  0  0  0  0
  161.0940  202.4210  148.9330 C   0  0  0  0  0  3  0  0  0  0  0  0
  160.5000  203.4810  151.0280 C   0  0  0  0  0  3  0  0  0  0  0  0
  161.1050  203.6700  148.3050 C   0  0  0  0  0  3  0  0  0  0  0  0
  160.8110  204.8300  149.0400 C   0  0  0  0  0  0  0  0  0  0  0  0
  160.5120  204.7310  150.4020 C   0  0  0  0  0  3  0  0  0  0  0  0
  160.7760  201.1180  150.9000 F   0  0  0  0  0  0  0  0  0  0  0  0
  161.9590  206.3000  147.4810 N   0  0  0  0  0  2  0  0  0  0  0  0
  161.8490  206.0360  146.0800 C   0  0  0  0  0  0  0  0  0  0  0  0
  162.8820  206.1120  145.3660 O   0  0  0  0  0  0  0  0  0  0  0  0
  160.1920  204.5940  144.9790 C   0  0  0  0  0  3  0  0  0  0  0  0
  160.5670  205.7250  145.5050 N   0  0  0  0  0  0  0  0  0  0  0  0
  161.0460  203.3670  144.9230 C   0  0  0  0  0  2  0  0  0  0  0  0
  160.1930  202.1320  145.1290 C   0  0  0  0  0  1  0  0  0  0  0  0
  1 11  1  0  0  0  0
  2 14  1  0  0  0  0
  4 14  2  0  0  0  0
  4 13  1  0  0  0  0
  5 10  1  0  0  0  0
  6 34  1  6  0  0  0
  6  4  1  0  0  0  0
  7  3  1  0  0  0  0
  7 11  2  0  0  0  0
  8  6  1  0  0  0  0
  8  5  2  0  0  0  0
  9  1  2  0  0  0  0
 10 13  2  0  0  0  0
 10  9  1  0  0  0  0
 12  3  2  0  0  0  0
 13  7  1  0  0  0  0
 14 12  1  0  0  0  0
 15 16  1  1  0  0  0
 15  8  1  0  0  0  0
 17 26  1  0  0  0  0
 17 24  1  0  0  0  0
 18 26  2  0  0  0  0
 19 25  1  6  0  0  0
 19 20  1  0  0  0  0
 20 15  1  6  0  0  0
 21 22  1  0  0  0  0
 21 18  1  0  0  0  0
 22 17  2  0  0  0  0
 23 20  1  0  0  0  0
 24 19  1  0  0  0  0
 26 23  1  0  0  0  0
 27 32  1  6  0  0  0
 27 28  1  0  0  0  0
 27 29  1  0  0  0  0
 28 31  1  0  0  0  0
 29 30  1  0  0  0  0
 30 33  2  0  0  0  0
 31 30  1  0  0  0  0
 33 22  1  0  0  0  0
 34 35  1  0  0  0  0
 36 41  1  0  0  0  0
 36 35  1  1  0  0  0
 37 43  1  0  0  0  0
 37 39  1  0  0  0  0
 38 37  2  0  0  0  0
 40 38  1  0  0  0  0
 40 41  2  0  0  0  0
 41 42  1  0  0  0  0
 42 39  2  0  0  0  0
 44 36  1  0  0  0  0
 45 44  1  0  0  0  0
 46 45  2  0  0  0  0
 47 48  2  0  0  0  0
 48 45  1  0  0  0  0
 49 47  1  0  0  0  0
 49 50  1  0  0  0  0
M  END
>  <MODEL>
1

>  <REMARK>
 VINA RESULT:      -8.5      0.000      0.000
  Name = 
  10 active torsions:
  status: ('A' for Active; 'I' for Inactive)
    1  A    between atoms: N_2  and  C_50
    2  A    between atoms: C_4  and  C_23
    3  A    between atoms: C_4  and  C_24
    4  A    between atoms: C_7  and  C_10
    5  A    between atoms: C_17  and  N_21
    6  A    between atoms: N_21  and  C_25
    7  A    between atoms: C_25  and  C_50
    8  A    between atoms: C_31  and  N_47
    9  A    between atoms: C_36  and  C_50
   10  A    between atoms: C_39  and  N_42
                            x       y       z     vdW  Elec       q    Type
                         _______ _______ _______ _____ _____    ______ ____

>  <TORSDO>
F 10

$$$$
