=
 OpenBabel11072411423D

 53 60  0  0  1  0  0  0  0  0999 V2000
  161.9560  207.9770  156.1050 O   0  0  0  0  0  0  0  0  0  0  0  0
  160.3250  209.1440  154.4570 C   0  0  1  0  0  3  0  0  0  0  0  0
  161.2440  208.3640  157.2570 C   0  0  0  0  0  2  0  0  0  0  0  0
  159.6010  209.6970  155.7130 C   0  0  2  0  0  3  0  0  0  0  0  0
  159.8070  208.8580  156.9870 C   0  0  0  0  0  2  0  0  0  0  0  0
  161.2100  206.9910  155.4340 C   0  0  2  0  0  3  0  0  0  0  0  0
  161.5830  207.0040  153.9590 C   0  0  2  0  0  3  0  0  0  0  0  0
  160.2660  207.6110  154.3830 C   0  0  2  0  0  3  0  0  0  0  0  0
  159.5760  211.3300  153.2010 C   0  0  1  0  0  3  0  0  0  0  0  0
  160.8880  210.7800  152.6570 C   0  0  0  0  0  2  0  0  0  0  0  0
  159.8380  209.8090  153.1740 C   0  0  1  0  0  3  0  0  0  0  0  0
  161.0930  211.9470  155.6840 S   0  0  0  0  0  0  0  0  0  0  0  0
  159.7710  212.2310  154.4590 C   0  0  0  0  0  0  0  0  0  0  0  0
  159.5880  214.0120  154.1020 S   0  0  0  0  0  0  0  0  0  0  0  0
  157.1300  213.4390  152.9980 C   0  0  2  0  0  3  0  0  0  0  0  0
  155.7870  213.2530  155.5740 C   0  0  2  0  0  3  0  0  0  0  0  0
  157.3160  213.2200  155.4730 C   0  0  0  0  0  2  0  0  0  0  0  0
  155.8170  212.9060  153.1690 O   0  0  0  0  0  0  0  0  0  0  0  0
  155.3300  212.0110  156.0210 O   0  0  0  0  0  1  0  0  0  0  0  0
  155.1470  213.5800  154.2150 C   0  0  0  0  0  2  0  0  0  0  0  0
  157.7760  214.0240  154.2670 C   0  0  1  0  0  3  0  0  0  0  0  0
  157.1750  214.4350  151.8440 C   0  0  0  0  0  2  0  0  0  0  0  0
  158.4530  214.3450  151.1520 N   0  0  0  0  0  2  0  0  0  0  0  0
  158.2720  213.4840  149.9890 C   0  0  0  0  0  2  0  0  0  0  0  0
  160.3310  214.3840  149.1150 O   0  0  0  0  0  0  0  0  0  0  0  0
  159.0140  213.0460  147.6640 C   0  0  1  0  0  3  0  0  0  0  0  0
  161.4870  213.4870  147.2320 C   0  0  0  0  0  2  0  0  0  0  0  0
  160.4190  212.4830  147.6550 C   0  0  1  0  0  3  0  0  0  0  0  0
  159.0030  214.0660  148.7790 C   0  0  1  0  0  3  0  0  0  0  0  0
  161.1420  213.3100  148.6970 C   0  0  2  0  0  3  0  0  0  0  0  0
  158.6540  213.6860  146.3330 C   0  0  0  0  0  2  0  0  0  0  0  0
  157.7160  212.9070  145.6570 O   0  0  0  0  0  1  0  0  0  0  0  0
  157.7020  210.2090  156.6000 O   0  0  0  0  0  1  0  0  0  0  0  0
  158.2250  209.7870  155.4700 O   0  0  0  0  0  0  0  0  0  0  0  0
  161.2860  205.6360  153.3550 C   0  0  0  0  0  2  0  0  0  0  0  0
  162.4590  206.1830  149.6840 C   0  0  0  0  0  2  0  0  0  0  0  0
  161.1000  203.0130  148.8850 C   0  0  2  0  0  3  0  0  0  0  0  0
  159.3830  206.1370  150.0370 F   0  0  0  0  0  0  0  0  0  0  0  0
  161.8810  206.5370  151.0550 C   0  0  1  0  0  3  0  0  0  0  0  0
  162.0780  205.4040  152.0660 C   0  0  2  0  0  3  0  0  0  0  0  0
  160.0380  205.2660  149.1850 C   0  0  2  0  0  3  0  0  0  0  0  0
  161.8830  204.7510  147.7980 O   0  0  0  0  0  0  0  0  0  0  0  0
  162.4540  207.8510  151.5620 C   0  0  0  0  0  1  0  0  0  0  0  0
  161.9080  204.1190  151.4840 O   0  0  0  0  0  0  0  0  0  0  0  0
  162.2590  203.7430  148.5830 O   0  0  0  0  0  0  0  0  0  0  0  0
  160.1660  203.8610  149.7750 C   0  0  2  0  0  3  0  0  0  0  0  0
  161.3930  205.7990  148.6180 C   0  0  2  0  0  0  0  0  0  0  0  0
  160.5350  203.8850  151.2620 C   0  0  0  0  0  2  0  0  0  0  0  0
  161.1430  207.0120  147.7380 C   0  0  0  0  0  0  0  0  0  0  0  0
  161.7070  208.3480  148.1100 C   0  0  0  0  0  1  0  0  0  0  0  0
  160.7900  206.8470  146.4580 C   0  0  0  0  0  2  0  0  0  0  0  0
  160.6910  200.7940  148.9560 O   0  0  0  0  0  1  0  0  0  0  0  0
  161.4480  201.7580  149.5330 N   0  0  0  0  0  2  0  0  0  0  0  0
  1  3  1  0  0  0  0
  2 11  1  6  0  0  0
  2  4  1  0  0  0  0
  4 34  1  6  0  0  0
  4  5  1  0  0  0  0
  5  3  1  0  0  0  0
  6  1  1  1  0  0  0
  7 35  1  6  0  0  0
  7  8  1  0  0  0  0
  7  6  1  0  0  0  0
  8  2  1  0  0  0  0
  8  6  1  0  0  0  0
  9 13  1  0  0  0  0
 10 11  1  0  0  0  0
 10  9  1  0  0  0  0
 11  9  1  0  0  0  0
 13 12  2  0  0  0  0
 14 21  1  0  0  0  0
 14 13  1  0  0  0  0
 15 18  1  0  0  0  0
 15 21  1  0  0  0  0
 16 19  1  0  0  0  0
 17 16  1  0  0  0  0
 18 20  1  0  0  0  0
 20 16  1  0  0  0  0
 21 17  1  0  0  0  0
 22 15  1  0  0  0  0
 23 22  1  0  0  0  0
 24 23  1  0  0  0  0
 26 29  1  0  0  0  0
 27 28  1  0  0  0  0
 27 30  1  0  0  0  0
 28 26  1  0  0  0  0
 28 30  1  0  0  0  0
 29 25  1  0  0  0  0
 29 24  1  0  0  0  0
 30 25  1  0  0  0  0
 31 26  1  0  0  0  0
 32 31  1  0  0  0  0
 34 33  1  0  0  0  0
 36 39  1  0  0  0  0
 37 53  1  0  0  0  0
 37 46  1  0  0  0  0
 39 43  1  0  0  0  0
 39 40  1  0  0  0  0
 40 35  1  0  0  0  0
 41 46  1  0  0  0  0
 41 38  1  0  0  0  0
 42 45  1  0  0  0  0
 42 47  1  0  0  0  0
 44 40  1  0  0  0  0
 45 37  1  0  0  0  0
 46 48  1  0  0  0  0
 47 41  1  0  0  0  0
 47 36  1  0  0  0  0
 48 44  1  0  0  0  0
 49 50  1  0  0  0  0
 49 47  1  0  0  0  0
 51 49  2  0  0  0  0
 52 53  1  0  0  0  0
M  END
>  <MODEL>
1

>  <REMARK>
 VINA RESULT:      -3.8      0.000      0.000
  Name = 
  14 active torsions:
  status: ('A' for Active; 'I' for Inactive)
    1  A    between atoms: C_2  and  C_49
    2  A    between atoms: C_5  and  C_21
    3  A    between atoms: C_5  and  S_40
    4  A    between atoms: C_6  and  C_8
    5  A    between atoms: C_7  and  C_45
    6  A    between atoms: C_11  and  N_37
    7  A    between atoms: C_13  and  C_48
    8  A    between atoms: O_14  and  C_22
    9  A    between atoms: N_19  and  C_28
   10  A    between atoms: N_19  and  C_49
   11  A    between atoms: C_23  and  C_31
   12  A    between atoms: C_28  and  C_41
   13  A    between atoms: C_31  and  C_42
   14  A    between atoms: S_40  and  C_47
                            x       y       z     vdW  Elec       q    Type
                         _______ _______ _______ _____ _____    ______ ____

>  <TORSDO>
F 14

$$$$
=
 OpenBabel11072411423D

 53 60  0  0  1  0  0  0  0  0999 V2000
  161.7350  210.8440  151.0350 O   0  0  0  0  0  0  0  0  0  0  0  0
  161.9720  212.4310  148.9950 C   0  0  1  0  0  3  0  0  0  0  0  0
  160.7070  211.5940  151.6390 C   0  0  0  0  0  2  0  0  0  0  0  0
  160.9400  213.3450  149.7050 C   0  0  2  0  0  3  0  0  0  0  0  0
  160.0240  212.6160  150.7040 C   0  0  0  0  0  2  0  0  0  0  0  0
  161.2070  210.2020  149.9000 C   0  0  2  0  0  3  0  0  0  0  0  0
  162.3330  209.9260  148.9170 C   0  0  2  0  0  3  0  0  0  0  0  0
  161.3790  211.0610  148.6310 C   0  0  2  0  0  3  0  0  0  0  0  0
  161.8340  213.1770  146.4760 C   0  0  1  0  0  3  0  0  0  0  0  0
  161.8430  214.3690  147.4260 C   0  0  0  0  0  2  0  0  0  0  0  0
  162.6250  213.1200  147.8010 C   0  0  1  0  0  3  0  0  0  0  0  0
  158.8840  213.5540  146.4420 S   0  0  0  0  0  0  0  0  0  0  0  0
  160.4110  212.5700  146.2780 C   0  0  0  0  0  0  0  0  0  0  0  0
  160.3050  211.4390  144.8490 S   0  0  0  0  0  0  0  0  0  0  0  0
  160.4930  212.2130  142.2120 C   0  0  2  0  0  3  0  0  0  0  0  0
  158.6530  214.4480  142.5240 C   0  0  2  0  0  3  0  0  0  0  0  0
  158.7430  213.3420  143.5810 C   0  0  0  0  0  2  0  0  0  0  0  0
  159.9310  212.9350  141.1160 O   0  0  0  0  0  0  0  0  0  0  0  0
  157.4000  214.3960  141.9110 O   0  0  0  0  0  1  0  0  0  0  0  0
  159.7550  214.2940  141.4620 C   0  0  0  0  0  2  0  0  0  0  0  0
  160.1480  212.7610  143.6090 C   0  0  1  0  0  3  0  0  0  0  0  0
  161.9980  212.0350  142.0420 C   0  0  0  0  0  2  0  0  0  0  0  0
  162.3220  211.8060  140.6420 N   0  0  0  0  0  2  0  0  0  0  0  0
  162.2670  210.3680  140.4000 C   0  0  0  0  0  2  0  0  0  0  0  0
  161.8020  208.7190  138.7050 O   0  0  0  0  0  0  0  0  0  0  0  0
  160.8540  210.8770  138.4270 C   0  0  1  0  0  3  0  0  0  0  0  0
  159.9490  208.8300  137.2060 C   0  0  0  0  0  2  0  0  0  0  0  0
  159.7340  209.8670  138.3050 C   0  0  1  0  0  3  0  0  0  0  0  0
  162.0480  210.0880  138.9130 C   0  0  1  0  0  3  0  0  0  0  0  0
  160.4060  208.5470  138.6240 C   0  0  2  0  0  3  0  0  0  0  0  0
  161.1520  211.5540  137.0980 C   0  0  0  0  0  2  0  0  0  0  0  0
  161.1260  212.9400  137.2430 O   0  0  0  0  0  1  0  0  0  0  0  0
  158.9040  213.5960  149.0380 O   0  0  0  0  0  1  0  0  0  0  0  0
  160.1290  213.9780  148.7550 O   0  0  0  0  0  0  0  0  0  0  0  0
  161.9410  208.7580  148.0200 C   0  0  0  0  0  2  0  0  0  0  0  0
  162.4460  204.9130  148.3630 C   0  0  0  0  0  2  0  0  0  0  0  0
  161.4840  205.1930  151.7600 C   0  0  2  0  0  3  0  0  0  0  0  0
  159.5030  205.8330  148.6450 F   0  0  0  0  0  0  0  0  0  0  0  0
  162.0350  206.2360  147.7170 C   0  0  1  0  0  3  0  0  0  0  0  0
  162.5540  207.4410  148.5050 C   0  0  2  0  0  3  0  0  0  0  0  0
  160.1470  205.1170  149.6380 C   0  0  2  0  0  3  0  0  0  0  0  0
  161.8180  203.5830  150.3060 O   0  0  0  0  0  0  0  0  0  0  0  0
  162.4700  206.2860  146.2600 C   0  0  0  0  0  1  0  0  0  0  0  0
  162.4970  207.2390  149.9100 O   0  0  0  0  0  0  0  0  0  0  0  0
  162.4590  204.5090  151.0180 O   0  0  0  0  0  0  0  0  0  0  0  0
  160.5770  206.0020  150.8080 C   0  0  2  0  0  3  0  0  0  0  0  0
  161.3030  204.1940  149.1350 C   0  0  2  0  0  0  0  0  0  0  0  0
  161.1590  207.3420  150.3420 C   0  0  0  0  0  2  0  0  0  0  0  0
  160.7400  203.1030  148.2400 C   0  0  0  0  0  0  0  0  0  0  0  0
  160.9610  203.1460  146.7600 C   0  0  0  0  0  1  0  0  0  0  0  0
  160.4110  201.9140  148.7610 C   0  0  0  0  0  2  0  0  0  0  0  0
  161.1420  206.4500  153.6030 O   0  0  0  0  0  1  0  0  0  0  0  0
  162.1150  206.0550  152.7460 N   0  0  0  0  0  2  0  0  0  0  0  0
  1  3  1  0  0  0  0
  2 11  1  6  0  0  0
  2  4  1  0  0  0  0
  4 34  1  6  0  0  0
  4  5  1  0  0  0  0
  5  3  1  0  0  0  0
  6  1  1  1  0  0  0
  7 35  1  6  0  0  0
  7  6  1  0  0  0  0
  8  7  1  0  0  0  0
  8  2  1  0  0  0  0
  8  6  1  0  0  0  0
  9 10  1  0  0  0  0
  9 11  1  0  0  0  0
 10 11  1  0  0  0  0
 13 12  2  0  0  0  0
 13  9  1  0  0  0  0
 14 13  1  0  0  0  0
 15 21  1  0  0  0  0
 16 17  1  0  0  0  0
 17 21  1  0  0  0  0
 18 20  1  0  0  0  0
 18 15  1  0  0  0  0
 19 16  1  0  0  0  0
 20 16  1  0  0  0  0
 21 14  1  0  0  0  0
 22 15  1  0  0  0  0
 23 22  1  0  0  0  0
 24 23  1  0  0  0  0
 25 29  1  0  0  0  0
 26 29  1  0  0  0  0
 27 28  1  0  0  0  0
 27 30  1  0  0  0  0
 28 26  1  0  0  0  0
 28 30  1  0  0  0  0
 29 24  1  0  0  0  0
 30 25  1  0  0  0  0
 31 32  1  0  0  0  0
 31 26  1  0  0  0  0
 34 33  1  0  0  0  0
 35 40  1  0  0  0  0
 36 47  1  0  0  0  0
 37 53  1  0  0  0  0
 38 41  1  0  0  0  0
 39 36  1  0  0  0  0
 39 40  1  0  0  0  0
 40 44  1  0  0  0  0
 41 46  1  0  0  0  0
 42 45  1  0  0  0  0
 43 39  1  0  0  0  0
 44 48  1  0  0  0  0
 45 37  1  0  0  0  0
 46 37  1  0  0  0  0
 47 41  1  0  0  0  0
 47 42  1  0  0  0  0
 48 46  1  0  0  0  0
 49 51  2  0  0  0  0
 49 47  1  0  0  0  0
 50 49  1  0  0  0  0
 53 52  1  0  0  0  0
M  END
>  <MODEL>
2

>  <REMARK>
 VINA RESULT:      -2.5      4.854      8.225
  Name = 
  14 active torsions:
  status: ('A' for Active; 'I' for Inactive)
    1  A    between atoms: C_2  and  C_49
    2  A    between atoms: C_5  and  C_21
    3  A    between atoms: C_5  and  S_40
    4  A    between atoms: C_6  and  C_8
    5  A    between atoms: C_7  and  C_45
    6  A    between atoms: C_11  and  N_37
    7  A    between atoms: C_13  and  C_48
    8  A    between atoms: O_14  and  C_22
    9  A    between atoms: N_19  and  C_28
   10  A    between atoms: N_19  and  C_49
   11  A    between atoms: C_23  and  C_31
   12  A    between atoms: C_28  and  C_41
   13  A    between atoms: C_31  and  C_42
   14  A    between atoms: S_40  and  C_47
                            x       y       z     vdW  Elec       q    Type
                         _______ _______ _______ _____ _____    ______ ____

>  <TORSDO>
F 14

$$$$
=
 OpenBabel11072411423D

 53 60  0  0  1  0  0  0  0  0999 V2000
  159.9640  206.6560  153.3280 O   0  0  0  0  0  0  0  0  0  0  0  0
  161.8600  207.6030  151.8290 C   0  0  1  0  0  3  0  0  0  0  0  0
  160.3960  205.3200  153.2210 C   0  0  0  0  0  2  0  0  0  0  0  0
  162.2740  206.1290  151.5840 C   0  0  2  0  0  3  0  0  0  0  0  0
  161.8360  205.1520  152.6890 C   0  0  0  0  0  2  0  0  0  0  0  0
  160.8770  207.3520  154.1410 C   0  0  2  0  0  3  0  0  0  0  0  0
  160.8290  208.8310  153.7890 C   0  0  2  0  0  3  0  0  0  0  0  0
  161.9970  208.0060  153.3050 C   0  0  2  0  0  3  0  0  0  0  0  0
  162.4510  208.3330  149.3720 C   0  0  1  0  0  3  0  0  0  0  0  0
  161.5720  209.3590  150.0770 C   0  0  0  0  0  2  0  0  0  0  0  0
  162.5810  208.5670  150.8930 C   0  0  1  0  0  3  0  0  0  0  0  0
  160.0710  206.5510  149.4430 S   0  0  0  0  0  0  0  0  0  0  0  0
  161.6310  207.1710  148.7310 C   0  0  0  0  0  0  0  0  0  0  0  0
  161.5130  207.2940  146.9130 S   0  0  0  0  0  0  0  0  0  0  0  0
  161.8370  205.0050  145.4150 C   0  0  2  0  0  3  0  0  0  0  0  0
  161.1330  203.2240  147.6080 C   0  0  2  0  0  3  0  0  0  0  0  0
  161.4900  204.6920  147.8630 C   0  0  0  0  0  2  0  0  0  0  0  0
  162.0430  203.5930  145.3850 O   0  0  0  0  0  0  0  0  0  0  0  0
  162.1160  202.4080  148.1720 O   0  0  0  0  0  1  0  0  0  0  0  0
  161.0200  202.9320  146.1020 C   0  0  0  0  0  2  0  0  0  0  0  0
  161.1050  205.5390  146.6600 C   0  0  1  0  0  3  0  0  0  0  0  0
  161.1740  205.4930  144.1310 C   0  0  0  0  0  2  0  0  0  0  0  0
  162.1870  205.8590  143.1510 N   0  0  0  0  0  2  0  0  0  0  0  0
  161.5080  206.1420  141.8910 C   0  0  0  0  0  2  0  0  0  0  0  0
  163.0250  206.1840  140.0180 O   0  0  0  0  0  0  0  0  0  0  0  0
  161.5560  208.0290  140.2830 C   0  0  1  0  0  3  0  0  0  0  0  0
  162.6970  207.5100  138.0630 C   0  0  0  0  0  2  0  0  0  0  0  0
  161.3990  207.5200  138.8670 C   0  0  1  0  0  3  0  0  0  0  0  0
  162.4010  206.9910  140.9860 C   0  0  1  0  0  3  0  0  0  0  0  0
  162.2670  206.2780  138.8350 C   0  0  2  0  0  3  0  0  0  0  0  0
  162.2230  209.3940  140.3220 C   0  0  0  0  0  2  0  0  0  0  0  0
  161.2770  210.3910  140.5540 O   0  0  0  0  0  1  0  0  0  0  0  0
  164.0170  205.0170  152.1980 O   0  0  0  0  0  1  0  0  0  0  0  0
  163.6650  206.0400  151.4510 O   0  0  0  0  0  0  0  0  0  0  0  0
  161.3050  209.6470  154.9850 C   0  0  0  0  0  2  0  0  0  0  0  0
  159.5970  213.1180  155.4180 C   0  0  0  0  0  2  0  0  0  0  0  0
  158.6450  212.9610  152.0110 C   0  0  2  0  0  3  0  0  0  0  0  0
  157.6220  210.7920  154.8900 F   0  0  0  0  0  0  0  0  0  0  0  0
  160.0340  211.6990  155.7820 C   0  0  1  0  0  3  0  0  0  0  0  0
  161.0540  211.1440  154.7840 C   0  0  2  0  0  3  0  0  0  0  0  0
  157.6790  211.9070  154.0740 C   0  0  2  0  0  3  0  0  0  0  0  0
  158.1740  214.1990  153.7610 O   0  0  0  0  0  0  0  0  0  0  0  0
  160.5540  211.6410  157.2100 C   0  0  0  0  0  1  0  0  0  0  0  0
  160.7710  211.5270  153.4460 O   0  0  0  0  0  0  0  0  0  0  0  0
  159.1490  213.9250  152.8970 O   0  0  0  0  0  0  0  0  0  0  0  0
  158.4160  211.6310  152.7630 C   0  0  2  0  0  3  0  0  0  0  0  0
  158.1830  213.2090  154.7760 C   0  0  2  0  0  0  0  0  0  0  0  0
  159.6730  210.7800  152.9690 C   0  0  0  0  0  2  0  0  0  0  0  0
  157.1980  213.6270  155.8550 C   0  0  0  0  0  0  0  0  0  0  0  0
  155.8140  213.0570  155.8810 C   0  0  0  0  0  1  0  0  0  0  0  0
  157.6450  214.1640  156.9970 C   0  0  0  0  0  2  0  0  0  0  0  0
  159.4110  213.8680  150.0920 O   0  0  0  0  0  1  0  0  0  0  0  0
  159.5530  212.7820  150.8900 N   0  0  0  0  0  2  0  0  0  0  0  0
  2 11  1  6  0  0  0
  2  8  1  0  0  0  0
  3  1  1  0  0  0  0
  4 34  1  1  0  0  0
  4  2  1  0  0  0  0
  4  5  1  0  0  0  0
  5  3  1  0  0  0  0
  6  1  1  6  0  0  0
  7  6  1  0  0  0  0
  7 35  1  1  0  0  0
  8  7  1  0  0  0  0
  8  6  1  0  0  0  0
  9 10  1  0  0  0  0
  9 11  1  0  0  0  0
 10 11  1  0  0  0  0
 13  9  1  0  0  0  0
 13 12  2  0  0  0  0
 14 13  1  0  0  0  0
 15 21  1  0  0  0  0
 16 17  1  0  0  0  0
 16 19  1  0  0  0  0
 18 15  1  0  0  0  0
 18 20  1  0  0  0  0
 20 16  1  0  0  0  0
 21 14  1  0  0  0  0
 21 17  1  0  0  0  0
 22 15  1  0  0  0  0
 23 22  1  0  0  0  0
 24 23  1  0  0  0  0
 25 29  1  0  0  0  0
 26 31  1  0  0  0  0
 26 29  1  0  0  0  0
 27 30  1  0  0  0  0
 27 28  1  0  0  0  0
 28 26  1  0  0  0  0
 29 24  1  0  0  0  0
 30 28  1  0  0  0  0
 30 25  1  0  0  0  0
 31 32  1  0  0  0  0
 34 33  1  0  0  0  0
 36 39  1  0  0  0  0
 37 46  1  0  0  0  0
 37 45  1  0  0  0  0
 39 43  1  0  0  0  0
 40 35  1  0  0  0  0
 40 39  1  0  0  0  0
 41 47  1  0  0  0  0
 41 38  1  0  0  0  0
 42 47  1  0  0  0  0
 44 40  1  0  0  0  0
 45 42  1  0  0  0  0
 46 48  1  0  0  0  0
 46 41  1  0  0  0  0
 47 36  1  0  0  0  0
 47 49  1  0  0  0  0
 48 44  1  0  0  0  0
 49 50  1  0  0  0  0
 49 51  2  0  0  0  0
 52 53  1  0  0  0  0
 53 37  1  0  0  0  0
M  END
>  <MODEL>
3

>  <REMARK>
 VINA RESULT:      -2.5      4.033      9.564
  Name = 
  14 active torsions:
  status: ('A' for Active; 'I' for Inactive)
    1  A    between atoms: C_2  and  C_49
    2  A    between atoms: C_5  and  C_21
    3  A    between atoms: C_5  and  S_40
    4  A    between atoms: C_6  and  C_8
    5  A    between atoms: C_7  and  C_45
    6  A    between atoms: C_11  and  N_37
    7  A    between atoms: C_13  and  C_48
    8  A    between atoms: O_14  and  C_22
    9  A    between atoms: N_19  and  C_28
   10  A    between atoms: N_19  and  C_49
   11  A    between atoms: C_23  and  C_31
   12  A    between atoms: C_28  and  C_41
   13  A    between atoms: C_31  and  C_42
   14  A    between atoms: S_40  and  C_47
                            x       y       z     vdW  Elec       q    Type
                         _______ _______ _______ _____ _____    ______ ____

>  <TORSDO>
F 14

$$$$
=
 OpenBabel11072411423D

 53 60  0  0  1  0  0  0  0  0999 V2000
  162.6730  206.3740  152.8200 O   0  0  0  0  0  0  0  0  0  0  0  0
  161.3530  207.5000  150.8890 C   0  0  1  0  0  3  0  0  0  0  0  0
  162.2170  207.2740  153.8040 C   0  0  0  0  0  2  0  0  0  0  0  0
  160.9470  208.5820  151.9240 C   0  0  2  0  0  3  0  0  0  0  0  0
  160.9890  208.1110  153.3880 C   0  0  0  0  0  2  0  0  0  0  0  0
  161.6020  205.5370  152.4560 C   0  0  2  0  0  3  0  0  0  0  0  0
  161.8330  205.0190  151.0450 C   0  0  2  0  0  3  0  0  0  0  0  0
  160.8130  206.1110  151.2620 C   0  0  2  0  0  3  0  0  0  0  0  0
  161.3460  209.3330  149.0030 C   0  0  1  0  0  3  0  0  0  0  0  0
  162.2520  208.1580  148.6550 C   0  0  0  0  0  2  0  0  0  0  0  0
  160.9900  207.9040  149.4640 C   0  0  1  0  0  3  0  0  0  0  0  0
  163.0710  209.9480  151.3460 S   0  0  0  0  0  0  0  0  0  0  0  0
  162.0490  210.3950  149.9030 C   0  0  0  0  0  0  0  0  0  0  0  0
  162.8270  211.7440  148.9490 S   0  0  0  0  0  0  0  0  0  0  0  0
  160.4420  212.6190  147.8830 C   0  0  2  0  0  3  0  0  0  0  0  0
  159.4440  213.6350  150.4220 C   0  0  2  0  0  3  0  0  0  0  0  0
  160.6380  212.6760  150.3670 C   0  0  0  0  0  2  0  0  0  0  0  0
  159.0880  213.0140  148.1000 O   0  0  0  0  0  0  0  0  0  0  0  0
  158.3690  212.9950  151.0420 O   0  0  0  0  0  1  0  0  0  0  0  0
  159.0310  214.0910  149.0130 C   0  0  0  0  0  2  0  0  0  0  0  0
  161.3990  212.8650  149.0640 C   0  0  1  0  0  3  0  0  0  0  0  0
  160.9910  213.2170  146.5920 C   0  0  0  0  0  2  0  0  0  0  0  0
  159.9150  213.4090  145.6300 N   0  0  0  0  0  2  0  0  0  0  0  0
  160.0260  212.3640  144.6190 C   0  0  0  0  0  2  0  0  0  0  0  0
  161.3090  213.9200  143.2980 O   0  0  0  0  0  0  0  0  0  0  0  0
  160.6390  211.8920  142.2630 C   0  0  1  0  0  3  0  0  0  0  0  0
  162.5470  213.3140  141.3510 C   0  0  0  0  0  2  0  0  0  0  0  0
  162.1330  212.0330  142.0680 C   0  0  1  0  0  3  0  0  0  0  0  0
  160.2630  212.9820  143.2410 C   0  0  1  0  0  3  0  0  0  0  0  0
  162.4830  213.2720  142.8650 C   0  0  2  0  0  3  0  0  0  0  0  0
  159.8800  212.0460  140.9540 C   0  0  0  0  0  2  0  0  0  0  0  0
  158.7200  212.7930  141.1510 O   0  0  0  0  0  1  0  0  0  0  0  0
  159.4910  210.0940  152.4230 O   0  0  0  0  0  1  0  0  0  0  0  0
  159.6520  209.0410  151.6520 O   0  0  0  0  0  0  0  0  0  0  0  0
  161.0750  203.7100  150.8610 C   0  0  0  0  0  2  0  0  0  0  0  0
  159.7940  202.2840  147.4730 C   0  0  0  0  0  2  0  0  0  0  0  0
  161.6990  204.7710  145.8220 C   0  0  2  0  0  3  0  0  0  0  0  0
  162.8290  201.8960  147.9430 F   0  0  0  0  0  0  0  0  0  0  0  0
  160.3090  202.2700  148.9130 C   0  0  1  0  0  3  0  0  0  0  0  0
  160.3280  203.6730  149.5250 C   0  0  2  0  0  3  0  0  0  0  0  0
  162.3370  202.5660  146.8370 C   0  0  2  0  0  3  0  0  0  0  0  0
  160.6050  202.9490  145.2730 O   0  0  0  0  0  0  0  0  0  0  0  0
  159.5100  201.2940  149.7640 C   0  0  0  0  0  1  0  0  0  0  0  0
  160.7240  204.6690  148.5920 O   0  0  0  0  0  0  0  0  0  0  0  0
  160.4240  204.1980  145.6990 O   0  0  0  0  0  0  0  0  0  0  0  0
  162.4700  204.0840  146.9700 C   0  0  2  0  0  3  0  0  0  0  0  0
  160.9020  202.1330  146.3930 C   0  0  2  0  0  0  0  0  0  0  0  0
  162.1140  204.5790  148.3760 C   0  0  0  0  0  2  0  0  0  0  0  0
  160.9210  200.6850  145.9320 C   0  0  0  0  0  0  0  0  0  0  0  0
  161.5050  199.6180  146.8060 C   0  0  0  0  0  1  0  0  0  0  0  0
  160.0830  200.2780  144.9720 C   0  0  0  0  0  2  0  0  0  0  0  0
  160.3540  206.5730  145.6270 O   0  0  0  0  0  1  0  0  0  0  0  0
  161.5890  206.2030  146.0450 N   0  0  0  0  0  2  0  0  0  0  0  0
  1  3  1  0  0  0  0
  2 11  1  6  0  0  0
  2  8  1  0  0  0  0
  2  4  1  0  0  0  0
  4 34  1  6  0  0  0
  4  5  1  0  0  0  0
  5  3  1  0  0  0  0
  6  1  1  6  0  0  0
  7 35  1  1  0  0  0
  7  8  1  0  0  0  0
  7  6  1  0  0  0  0
  8  6  1  0  0  0  0
  9 11  1  0  0  0  0
  9 13  1  0  0  0  0
 10  9  1  0  0  0  0
 10 11  1  0  0  0  0
 13 12  2  0  0  0  0
 14 21  1  0  0  0  0
 14 13  1  0  0  0  0
 15 18  1  0  0  0  0
 15 21  1  0  0  0  0
 16 19  1  0  0  0  0
 17 16  1  0  0  0  0
 18 20  1  0  0  0  0
 20 16  1  0  0  0  0
 21 17  1  0  0  0  0
 22 15  1  0  0  0  0
 23 22  1  0  0  0  0
 24 23  1  0  0  0  0
 26 29  1  0  0  0  0
 27 28  1  0  0  0  0
 27 30  1  0  0  0  0
 28 26  1  0  0  0  0
 28 30  1  0  0  0  0
 29 25  1  0  0  0  0
 29 24  1  0  0  0  0
 30 25  1  0  0  0  0
 31 32  1  0  0  0  0
 31 26  1  0  0  0  0
 34 33  1  0  0  0  0
 36 39  1  0  0  0  0
 37 53  1  0  0  0  0
 37 46  1  0  0  0  0
 39 40  1  0  0  0  0
 39 43  1  0  0  0  0
 40 35  1  0  0  0  0
 41 46  1  0  0  0  0
 41 38  1  0  0  0  0
 42 45  1  0  0  0  0
 42 47  1  0  0  0  0
 44 40  1  0  0  0  0
 45 37  1  0  0  0  0
 46 48  1  0  0  0  0
 47 41  1  0  0  0  0
 47 36  1  0  0  0  0
 48 44  1  0  0  0  0
 49 47  1  0  0  0  0
 49 50  1  0  0  0  0
 51 49  2  0  0  0  0
 52 53  1  0  0  0  0
M  END
>  <MODEL>
4

>  <REMARK>
 VINA RESULT:      -2.1      3.286      5.275
  Name = 
  14 active torsions:
  status: ('A' for Active; 'I' for Inactive)
    1  A    between atoms: C_2  and  C_49
    2  A    between atoms: C_5  and  C_21
    3  A    between atoms: C_5  and  S_40
    4  A    between atoms: C_6  and  C_8
    5  A    between atoms: C_7  and  C_45
    6  A    between atoms: C_11  and  N_37
    7  A    between atoms: C_13  and  C_48
    8  A    between atoms: O_14  and  C_22
    9  A    between atoms: N_19  and  C_28
   10  A    between atoms: N_19  and  C_49
   11  A    between atoms: C_23  and  C_31
   12  A    between atoms: C_28  and  C_41
   13  A    between atoms: C_31  and  C_42
   14  A    between atoms: S_40  and  C_47
                            x       y       z     vdW  Elec       q    Type
                         _______ _______ _______ _____ _____    ______ ____

>  <TORSDO>
F 14

$$$$
=
 OpenBabel11072411423D

 53 60  0  0  1  0  0  0  0  0999 V2000
  160.2110  210.6290  147.7710 O   0  0  0  0  0  0  0  0  0  0  0  0
  162.0070  211.1170  149.5810 C   0  0  1  0  0  3  0  0  0  0  0  0
  160.4970  211.7860  147.0190 C   0  0  0  0  0  2  0  0  0  0  0  0
  162.2460  212.4630  148.8470 C   0  0  2  0  0  3  0  0  0  0  0  0
  161.8430  212.4580  147.3620 C   0  0  0  0  0  2  0  0  0  0  0  0
  161.2740  209.7220  147.6080 C   0  0  2  0  0  3  0  0  0  0  0  0
  161.3300  208.8000  148.8170 C   0  0  2  0  0  3  0  0  0  0  0  0
  162.3500  209.9070  148.6980 C   0  0  2  0  0  3  0  0  0  0  0  0
  161.8760  211.3980  152.1930 C   0  0  1  0  0  3  0  0  0  0  0  0
  162.1260  209.9510  151.7860 C   0  0  0  0  0  2  0  0  0  0  0  0
  162.7080  211.0680  150.9350 C   0  0  1  0  0  3  0  0  0  0  0  0
  159.5950  212.6840  150.7820 S   0  0  0  0  0  0  0  0  0  0  0  0
  160.3650  211.7820  152.1690 C   0  0  0  0  0  0  0  0  0  0  0  0
  159.2740  210.4430  152.7590 S   0  0  0  0  0  0  0  0  0  0  0  0
  159.3320  212.6490  154.4070 C   0  0  2  0  0  3  0  0  0  0  0  0
  156.4330  212.8330  154.6040 C   0  0  2  0  0  3  0  0  0  0  0  0
  157.1010  211.9830  153.5180 C   0  0  0  0  0  2  0  0  0  0  0  0
  158.6460  213.7760  154.9510 O   0  0  0  0  0  0  0  0  0  0  0  0
  155.7710  213.9060  154.0040 O   0  0  0  0  0  1  0  0  0  0  0  0
  157.4680  213.3620  155.6120 C   0  0  0  0  0  2  0  0  0  0  0  0
  158.4380  211.4580  154.0160 C   0  0  1  0  0  3  0  0  0  0  0  0
  160.4760  212.2100  155.3140 C   0  0  0  0  0  2  0  0  0  0  0  0
  160.4720  210.7620  155.4630 N   0  0  0  0  0  2  0  0  0  0  0  0
  161.8540  210.3260  155.6310 C   0  0  0  0  0  2  0  0  0  0  0  0
  161.5360  208.5770  157.2590 O   0  0  0  0  0  0  0  0  0  0  0  0
  160.9430  208.1050  155.0100 C   0  0  1  0  0  3  0  0  0  0  0  0
  160.0520  206.7320  156.9650 C   0  0  0  0  0  2  0  0  0  0  0  0
  159.7520  207.7610  155.8790 C   0  0  1  0  0  3  0  0  0  0  0  0
  161.9050  208.8270  155.9250 C   0  0  1  0  0  3  0  0  0  0  0  0
  160.1740  208.2140  157.2610 C   0  0  2  0  0  3  0  0  0  0  0  0
  161.5840  206.8620  154.4130 C   0  0  0  0  0  2  0  0  0  0  0  0
  160.7530  206.3060  153.4420 O   0  0  0  0  0  1  0  0  0  0  0  0
  163.8570  213.4510  147.8070 O   0  0  0  0  0  1  0  0  0  0  0  0
  163.5980  212.8180  148.9300 O   0  0  0  0  0  0  0  0  0  0  0  0
  162.0160  207.4970  148.4220 C   0  0  0  0  0  2  0  0  0  0  0  0
  160.3760  204.0290  147.7630 C   0  0  0  0  0  2  0  0  0  0  0  0
  161.2220  204.3920  144.3440 C   0  0  2  0  0  3  0  0  0  0  0  0
  163.4430  204.0790  147.3460 F   0  0  0  0  0  0  0  0  0  0  0  0
  161.1900  205.0950  148.4970 C   0  0  1  0  0  3  0  0  0  0  0  0
  161.0170  206.4790  147.8650 C   0  0  2  0  0  3  0  0  0  0  0  0
  162.5710  203.6950  146.3420 C   0  0  2  0  0  3  0  0  0  0  0  0
  160.4910  202.7970  145.6640 O   0  0  0  0  0  0  0  0  0  0  0  0
  160.8550  205.1070  149.9810 C   0  0  0  0  0  1  0  0  0  0  0  0
  160.9480  206.4260  146.4470 O   0  0  0  0  0  0  0  0  0  0  0  0
  160.1230  203.9430  145.0920 O   0  0  0  0  0  0  0  0  0  0  0  0
  162.3720  204.7910  145.2950 C   0  0  2  0  0  3  0  0  0  0  0  0
  161.2170  203.0990  146.8440 C   0  0  2  0  0  0  0  0  0  0  0  0
  162.2350  206.1820  145.9260 C   0  0  0  0  0  2  0  0  0  0  0  0
  161.4700  201.7990  147.5890 C   0  0  0  0  0  0  0  0  0  0  0  0
  161.5050  201.7760  149.0850 C   0  0  0  0  0  1  0  0  0  0  0  0
  161.2610  200.6260  146.9780 C   0  0  0  0  0  2  0  0  0  0  0  0
  161.9180  205.8290  142.7500 O   0  0  0  0  0  1  0  0  0  0  0  0
  160.8330  205.5040  143.4930 N   0  0  0  0  0  2  0  0  0  0  0  0
  2 11  1  1  0  0  0
  3  5  1  0  0  0  0
  3  1  1  0  0  0  0
  4 34  1  6  0  0  0
  4  2  1  0  0  0  0
  5  4  1  0  0  0  0
  6  1  1  1  0  0  0
  6  8  1  0  0  0  0
  6  7  1  0  0  0  0
  7 35  1  6  0  0  0
  8  7  1  0  0  0  0
  8  2  1  0  0  0  0
 10  9  1  0  0  0  0
 11 10  1  0  0  0  0
 11  9  1  0  0  0  0
 12 13  2  0  0  0  0
 13  9  1  0  0  0  0
 13 14  1  0  0  0  0
 14 21  1  0  0  0  0
 15 18  1  0  0  0  0
 15 22  1  0  0  0  0
 16 20  1  0  0  0  0
 17 21  1  0  0  0  0
 17 16  1  0  0  0  0
 18 20  1  0  0  0  0
 19 16  1  0  0  0  0
 21 15  1  0  0  0  0
 22 23  1  0  0  0  0
 23 24  1  0  0  0  0
 24 29  1  0  0  0  0
 25 30  1  0  0  0  0
 26 28  1  0  0  0  0
 26 29  1  0  0  0  0
 27 30  1  0  0  0  0
 28 27  1  0  0  0  0
 28 30  1  0  0  0  0
 29 25  1  0  0  0  0
 31 26  1  0  0  0  0
 32 31  1  0  0  0  0
 33 34  1  0  0  0  0
 36 39  1  0  0  0  0
 37 45  1  0  0  0  0
 37 46  1  0  0  0  0
 39 43  1  0  0  0  0
 40 35  1  0  0  0  0
 40 39  1  0  0  0  0
 41 47  1  0  0  0  0
 41 38  1  0  0  0  0
 42 47  1  0  0  0  0
 44 40  1  0  0  0  0
 45 42  1  0  0  0  0
 46 48  1  0  0  0  0
 46 41  1  0  0  0  0
 47 49  1  0  0  0  0
 47 36  1  0  0  0  0
 48 44  1  0  0  0  0
 49 50  1  0  0  0  0
 51 49  2  0  0  0  0
 52 53  1  0  0  0  0
 53 37  1  0  0  0  0
M  END
>  <MODEL>
5

>  <REMARK>
 VINA RESULT:      -1.4      2.649      6.630
  Name = 
  14 active torsions:
  status: ('A' for Active; 'I' for Inactive)
    1  A    between atoms: C_2  and  C_49
    2  A    between atoms: C_5  and  C_21
    3  A    between atoms: C_5  and  S_40
    4  A    between atoms: C_6  and  C_8
    5  A    between atoms: C_7  and  C_45
    6  A    between atoms: C_11  and  N_37
    7  A    between atoms: C_13  and  C_48
    8  A    between atoms: O_14  and  C_22
    9  A    between atoms: N_19  and  C_28
   10  A    between atoms: N_19  and  C_49
   11  A    between atoms: C_23  and  C_31
   12  A    between atoms: C_28  and  C_41
   13  A    between atoms: C_31  and  C_42
   14  A    between atoms: S_40  and  C_47
                            x       y       z     vdW  Elec       q    Type
                         _______ _______ _______ _____ _____    ______ ____

>  <TORSDO>
F 14

$$$$
=
 OpenBabel11072411423D

 53 60  0  0  1  0  0  0  0  0999 V2000
  162.7420  205.8200  153.0210 O   0  0  0  0  0  0  0  0  0  0  0  0
  161.4410  207.2610  151.2990 C   0  0  1  0  0  3  0  0  0  0  0  0
  162.3930  206.6240  154.1230 C   0  0  0  0  0  2  0  0  0  0  0  0
  161.1570  208.2370  152.4710 C   0  0  2  0  0  3  0  0  0  0  0  0
  161.2170  207.5890  153.8660 C   0  0  0  0  0  2  0  0  0  0  0  0
  161.5990  205.1100  152.6100 C   0  0  2  0  0  3  0  0  0  0  0  0
  161.7380  204.7520  151.1390 C   0  0  2  0  0  3  0  0  0  0  0  0
  160.8120  205.8790  151.5290 C   0  0  2  0  0  3  0  0  0  0  0  0
  161.2770  209.3720  149.7380 C   0  0  1  0  0  3  0  0  0  0  0  0
  162.2990  208.3630  149.2280 C   0  0  0  0  0  2  0  0  0  0  0  0
  161.0580  207.8590  149.9480 C   0  0  1  0  0  3  0  0  0  0  0  0
  163.6440  210.6870  150.9690 S   0  0  0  0  0  0  0  0  0  0  0  0
  161.8610  210.3320  150.8190 C   0  0  0  0  0  0  0  0  0  0  0  0
  160.8750  211.8540  151.0370 S   0  0  0  0  0  0  0  0  0  0  0  0
  160.0610  213.5830  149.0530 C   0  0  2  0  0  3  0  0  0  0  0  0
  162.0010  212.6000  147.1170 C   0  0  2  0  0  3  0  0  0  0  0  0
  162.1380  212.2790  148.6090 C   0  0  0  0  0  2  0  0  0  0  0  0
  160.3560  214.2440  147.8230 O   0  0  0  0  0  0  0  0  0  0  0  0
  163.0580  213.4240  146.7260 O   0  0  0  0  0  1  0  0  0  0  0  0
  160.6640  213.2980  146.8190 C   0  0  0  0  0  2  0  0  0  0  0  0
  160.7650  212.2290  149.2600 C   0  0  1  0  0  3  0  0  0  0  0  0
  158.5560  213.4640  149.2680 C   0  0  0  0  0  2  0  0  0  0  0  0
  158.1320  214.3460  150.3460 N   0  0  0  0  0  2  0  0  0  0  0  0
  157.2890  213.5720  151.2500 C   0  0  0  0  0  2  0  0  0  0  0  0
  156.4340  214.4490  153.3270 O   0  0  0  0  0  0  0  0  0  0  0  0
  158.0440  212.7100  153.4490 C   0  0  1  0  0  3  0  0  0  0  0  0
  156.5060  213.2760  155.4030 C   0  0  0  0  0  2  0  0  0  0  0  0
  156.8560  212.2930  154.2890 C   0  0  1  0  0  3  0  0  0  0  0  0
  157.5880  213.9430  152.7030 C   0  0  1  0  0  3  0  0  0  0  0  0
  155.8420  213.3910  154.0450 C   0  0  2  0  0  3  0  0  0  0  0  0
  159.2640  213.0090  154.3060 C   0  0  0  0  0  2  0  0  0  0  0  0
  159.4380  212.0150  155.2680 O   0  0  0  0  0  1  0  0  0  0  0  0
  159.6640  209.4550  153.4400 O   0  0  0  0  0  1  0  0  0  0  0  0
  159.8920  208.8160  152.3140 O   0  0  0  0  0  0  0  0  0  0  0  0
  160.8760  203.5320  150.8360 C   0  0  0  0  0  2  0  0  0  0  0  0
  159.7170  202.4490  147.2820 C   0  0  0  0  0  2  0  0  0  0  0  0
  161.8320  204.9520  145.9400 C   0  0  2  0  0  3  0  0  0  0  0  0
  162.6980  201.8620  147.8740 F   0  0  0  0  0  0  0  0  0  0  0  0
  160.1490  202.2930  148.7400 C   0  0  1  0  0  3  0  0  0  0  0  0
  160.2040  203.6410  149.4650 C   0  0  2  0  0  3  0  0  0  0  0  0
  162.3020  202.6430  146.8030 C   0  0  2  0  0  3  0  0  0  0  0  0
  160.6810  203.2410  145.1880 O   0  0  0  0  0  0  0  0  0  0  0  0
  159.2570  201.2980  149.4660 C   0  0  0  0  0  1  0  0  0  0  0  0
  160.7000  204.6840  148.6390 O   0  0  0  0  0  0  0  0  0  0  0  0
  160.5390  204.4610  145.7050 O   0  0  0  0  0  0  0  0  0  0  0  0
  162.5030  204.1360  147.0660 C   0  0  2  0  0  3  0  0  0  0  0  0
  160.8750  202.3240  146.2520 C   0  0  2  0  0  0  0  0  0  0  0  0
  162.0950  204.5370  148.4880 C   0  0  0  0  0  2  0  0  0  0  0  0
  160.8480  200.9180  145.6750 C   0  0  0  0  0  0  0  0  0  0  0  0
  161.4640  199.7780  146.4260 C   0  0  0  0  0  1  0  0  0  0  0  0
  159.9520  200.5990  144.7340 C   0  0  0  0  0  2  0  0  0  0  0  0
  160.4730  206.7210  146.2850 O   0  0  0  0  0  1  0  0  0  0  0  0
  161.7810  206.3660  146.2740 N   0  0  0  0  0  2  0  0  0  0  0  0
  1  3  1  0  0  0  0
  2 11  1  6  0  0  0
  2  8  1  0  0  0  0
  2  4  1  0  0  0  0
  4 34  1  6  0  0  0
  4  5  1  0  0  0  0
  5  3  1  0  0  0  0
  6  1  1  6  0  0  0
  7 35  1  1  0  0  0
  7  8  1  0  0  0  0
  7  6  1  0  0  0  0
  8  6  1  0  0  0  0
  9 11  1  0  0  0  0
  9 13  1  0  0  0  0
 10  9  1  0  0  0  0
 10 11  1  0  0  0  0
 13 12  2  0  0  0  0
 13 14  1  0  0  0  0
 15 21  1  0  0  0  0
 15 22  1  0  0  0  0
 16 17  1  0  0  0  0
 17 21  1  0  0  0  0
 18 15  1  0  0  0  0
 19 16  1  0  0  0  0
 20 16  1  0  0  0  0
 20 18  1  0  0  0  0
 21 14  1  0  0  0  0
 22 23  1  0  0  0  0
 23 24  1  0  0  0  0
 24 29  1  0  0  0  0
 25 30  1  0  0  0  0
 26 28  1  0  0  0  0
 26 31  1  0  0  0  0
 28 27  1  0  0  0  0
 29 25  1  0  0  0  0
 29 26  1  0  0  0  0
 30 28  1  0  0  0  0
 30 27  1  0  0  0  0
 31 32  1  0  0  0  0
 34 33  1  0  0  0  0
 36 39  1  0  0  0  0
 37 53  1  0  0  0  0
 37 46  1  0  0  0  0
 39 40  1  0  0  0  0
 39 43  1  0  0  0  0
 40 35  1  0  0  0  0
 41 46  1  0  0  0  0
 41 38  1  0  0  0  0
 42 45  1  0  0  0  0
 42 47  1  0  0  0  0
 44 40  1  0  0  0  0
 45 37  1  0  0  0  0
 46 48  1  0  0  0  0
 47 41  1  0  0  0  0
 47 36  1  0  0  0  0
 48 44  1  0  0  0  0
 49 47  1  0  0  0  0
 49 50  1  0  0  0  0
 51 49  2  0  0  0  0
 53 52  1  0  0  0  0
M  END
>  <MODEL>
6

>  <REMARK>
 VINA RESULT:      -1.1      2.474      5.757
  Name = 
  14 active torsions:
  status: ('A' for Active; 'I' for Inactive)
    1  A    between atoms: C_2  and  C_49
    2  A    between atoms: C_5  and  C_21
    3  A    between atoms: C_5  and  S_40
    4  A    between atoms: C_6  and  C_8
    5  A    between atoms: C_7  and  C_45
    6  A    between atoms: C_11  and  N_37
    7  A    between atoms: C_13  and  C_48
    8  A    between atoms: O_14  and  C_22
    9  A    between atoms: N_19  and  C_28
   10  A    between atoms: N_19  and  C_49
   11  A    between atoms: C_23  and  C_31
   12  A    between atoms: C_28  and  C_41
   13  A    between atoms: C_31  and  C_42
   14  A    between atoms: S_40  and  C_47
                            x       y       z     vdW  Elec       q    Type
                         _______ _______ _______ _____ _____    ______ ____

>  <TORSDO>
F 14

$$$$
=
 OpenBabel11072411423D

 53 60  0  0  1  0  0  0  0  0999 V2000
  160.4560  206.5050  155.3260 O   0  0  0  0  0  0  0  0  0  0  0  0
  160.9830  208.8500  154.3470 C   0  0  1  0  0  3  0  0  0  0  0  0
  159.0980  206.7880  155.5670 C   0  0  0  0  0  2  0  0  0  0  0  0
  159.5280  209.2320  154.7280 C   0  0  2  0  0  3  0  0  0  0  0  0
  158.5640  208.0370  154.8330 C   0  0  0  0  0  2  0  0  0  0  0  0
  160.6440  206.3820  153.9370 C   0  0  2  0  0  3  0  0  0  0  0  0
  162.0930  206.7000  153.6020 C   0  0  2  0  0  3  0  0  0  0  0  0
  161.0320  207.7310  153.2960 C   0  0  2  0  0  3  0  0  0  0  0  0
  161.4690  211.4230  154.5960 C   0  0  1  0  0  3  0  0  0  0  0  0
  162.6140  210.5710  155.1300 C   0  0  0  0  0  2  0  0  0  0  0  0
  161.8090  210.0670  153.9420 C   0  0  1  0  0  3  0  0  0  0  0  0
  160.2960  210.7750  157.2510 S   0  0  0  0  0  0  0  0  0  0  0  0
  160.3300  211.6320  155.6410 C   0  0  0  0  0  0  0  0  0  0  0  0
  159.8340  213.3790  155.8240 S   0  0  0  0  0  0  0  0  0  0  0  0
  157.5500  212.9540  154.3430 C   0  0  2  0  0  3  0  0  0  0  0  0
  156.1950  211.5000  156.4710 C   0  0  2  0  0  3  0  0  0  0  0  0
  157.7070  211.7470  156.5180 C   0  0  0  0  0  2  0  0  0  0  0  0
  156.3510  212.2040  154.1500 O   0  0  0  0  0  0  0  0  0  0  0  0
  155.9580  210.1320  156.3240 O   0  0  0  0  0  1  0  0  0  0  0  0
  155.5430  212.2660  155.3080 C   0  0  0  0  0  2  0  0  0  0  0  0
  158.0460  213.0430  155.7980 C   0  0  1  0  0  3  0  0  0  0  0  0
  157.4450  214.3360  153.7070 C   0  0  0  0  0  2  0  0  0  0  0  0
  158.1810  214.3690  152.4520 N   0  0  0  0  0  2  0  0  0  0  0  0
  157.2250  214.1730  151.3680 C   0  0  0  0  0  2  0  0  0  0  0  0
  156.8320  212.9010  149.3590 O   0  0  0  0  0  0  0  0  0  0  0  0
  158.9360  213.9730  149.5850 C   0  0  1  0  0  3  0  0  0  0  0  0
  158.0380  213.2090  147.3240 C   0  0  0  0  0  2  0  0  0  0  0  0
  158.3560  214.3810  148.2480 C   0  0  1  0  0  3  0  0  0  0  0  0
  157.8160  213.2530  150.2990 C   0  0  1  0  0  3  0  0  0  0  0  0
  156.9740  213.7610  148.2530 C   0  0  2  0  0  3  0  0  0  0  0  0
  160.1490  213.0700  149.4220 C   0  0  0  0  0  2  0  0  0  0  0  0
  161.1590  213.7350  148.7280 O   0  0  0  0  0  1  0  0  0  0  0  0
  159.6210  209.8390  152.6600 O   0  0  0  0  0  1  0  0  0  0  0  0
  159.0080  210.1280  153.7860 O   0  0  0  0  0  0  0  0  0  0  0  0
  162.4640  206.0190  152.2890 C   0  0  0  0  0  2  0  0  0  0  0  0
  160.4710  205.4700  148.9910 C   0  0  0  0  0  2  0  0  0  0  0  0
  161.7390  208.5650  147.8290 C   0  0  2  0  0  3  0  0  0  0  0  0
  163.5460  205.3850  148.6410 F   0  0  0  0  0  0  0  0  0  0  0  0
  161.3300  205.1110  150.2050 C   0  0  1  0  0  3  0  0  0  0  0  0
  161.4110  206.2670  151.2060 C   0  0  2  0  0  3  0  0  0  0  0  0
  162.7510  206.2710  147.9370 C   0  0  2  0  0  3  0  0  0  0  0  0
  160.6620  206.8470  146.9900 O   0  0  0  0  0  0  0  0  0  0  0  0
  160.8340  203.8310  150.8600 C   0  0  0  0  0  1  0  0  0  0  0  0
  161.4960  207.5340  150.5700 O   0  0  0  0  0  0  0  0  0  0  0  0
  160.5140  207.8820  147.8140 O   0  0  0  0  0  0  0  0  0  0  0  0
  162.8160  207.6890  148.5060 C   0  0  2  0  0  3  0  0  0  0  0  0
  161.2820  205.7910  147.7040 C   0  0  2  0  0  0  0  0  0  0  0  0
  162.7920  207.7030  150.0390 C   0  0  0  0  0  2  0  0  0  0  0  0
  161.2790  204.5550  146.8200 C   0  0  0  0  0  0  0  0  0  0  0  0
  161.5920  204.6650  145.3600 C   0  0  0  0  0  1  0  0  0  0  0  0
  161.4060  203.3400  147.3680 C   0  0  0  0  0  2  0  0  0  0  0  0
  162.8470  210.3310  148.6940 O   0  0  0  0  0  1  0  0  0  0  0  0
  161.5970  209.8430  148.5080 N   0  0  0  0  0  2  0  0  0  0  0  0
  1  3  1  0  0  0  0
  2 11  1  6  0  0  0
  2  4  1  0  0  0  0
  4 34  1  6  0  0  0
  4  5  1  0  0  0  0
  5  3  1  0  0  0  0
  6  1  1  1  0  0  0
  7 35  1  6  0  0  0
  7  6  1  0  0  0  0
  8  7  1  0  0  0  0
  8  6  1  0  0  0  0
  8  2  1  0  0  0  0
  9 10  1  0  0  0  0
  9 13  1  0  0  0  0
 11  9  1  0  0  0  0
 11 10  1  0  0  0  0
 13 14  1  0  0  0  0
 13 12  2  0  0  0  0
 15 21  1  0  0  0  0
 16 17  1  0  0  0  0
 18 15  1  0  0  0  0
 18 20  1  0  0  0  0
 19 16  1  0  0  0  0
 20 16  1  0  0  0  0
 21 14  1  0  0  0  0
 21 17  1  0  0  0  0
 22 15  1  0  0  0  0
 23 22  1  0  0  0  0
 24 23  1  0  0  0  0
 25 29  1  0  0  0  0
 26 29  1  0  0  0  0
 27 28  1  0  0  0  0
 27 30  1  0  0  0  0
 28 30  1  0  0  0  0
 28 26  1  0  0  0  0
 29 24  1  0  0  0  0
 30 25  1  0  0  0  0
 31 26  1  0  0  0  0
 32 31  1  0  0  0  0
 33 34  1  0  0  0  0
 36 39  1  0  0  0  0
 37 46  1  0  0  0  0
 37 53  1  0  0  0  0
 39 43  1  0  0  0  0
 39 40  1  0  0  0  0
 40 35  1  0  0  0  0
 41 46  1  0  0  0  0
 41 38  1  0  0  0  0
 42 47  1  0  0  0  0
 42 45  1  0  0  0  0
 44 40  1  0  0  0  0
 45 37  1  0  0  0  0
 46 48  1  0  0  0  0
 47 41  1  0  0  0  0
 47 36  1  0  0  0  0
 48 44  1  0  0  0  0
 49 51  2  0  0  0  0
 49 47  1  0  0  0  0
 50 49  1  0  0  0  0
 53 52  1  0  0  0  0
M  END
>  <MODEL>
7

>  <REMARK>
 VINA RESULT:      -0.9      2.287      3.336
  Name = 
  14 active torsions:
  status: ('A' for Active; 'I' for Inactive)
    1  A    between atoms: C_2  and  C_49
    2  A    between atoms: C_5  and  C_21
    3  A    between atoms: C_5  and  S_40
    4  A    between atoms: C_6  and  C_8
    5  A    between atoms: C_7  and  C_45
    6  A    between atoms: C_11  and  N_37
    7  A    between atoms: C_13  and  C_48
    8  A    between atoms: O_14  and  C_22
    9  A    between atoms: N_19  and  C_28
   10  A    between atoms: N_19  and  C_49
   11  A    between atoms: C_23  and  C_31
   12  A    between atoms: C_28  and  C_41
   13  A    between atoms: C_31  and  C_42
   14  A    between atoms: S_40  and  C_47
                            x       y       z     vdW  Elec       q    Type
                         _______ _______ _______ _____ _____    ______ ____

>  <TORSDO>
F 14

$$$$
