=
 OpenBabel11072412173D

 38 43  0  0  1  0  0  0  0  0999 V2000
  161.9430  203.9540  150.9600 C   0  0  0  0  0  2  0  0  0  0  0  0
  161.8080  208.2490  148.5400 C   0  0  0  0  0  0  0  0  0  0  0  0
  160.4980  207.8260  153.1950 C   0  0  0  0  0  2  0  0  0  0  0  0
  159.8820  204.3570  152.2160 O   0  0  0  0  0  1  0  0  0  0  0  0
  161.8960  209.2120  151.1780 C   0  0  0  0  0  3  0  0  0  0  0  0
  162.1410  207.6310  147.4630 N   0  0  0  0  0  0  0  0  0  0  0  0
  162.1900  209.5950  148.8140 N   0  0  0  0  0  2  0  0  0  0  0  0
  161.5500  206.0170  149.0780 C   0  0  2  0  0  3  0  0  0  0  0  0
  161.7120  205.9730  154.1080 N   0  0  0  0  0  2  0  0  0  0  0  0
  161.7660  205.8430  152.6550 C   0  0  2  0  0  3  0  0  0  0  0  0
  160.9540  206.9730  152.0330 C   0  0  2  0  0  3  0  0  0  0  0  0
  161.7730  207.7120  150.9570 C   0  0  1  0  0  3  0  0  0  0  0  0
  161.0200  203.8830  149.7310 C   0  0  1  0  0  3  0  0  0  0  0  0
  161.2770  204.4510  152.2460 C   0  0  2  0  0  3  0  0  0  0  0  0
  161.1850  207.4000  149.5780 C   0  0  1  0  0  3  0  0  0  0  0  0
  161.7800  206.2280  147.5810 C   0  0  0  0  0  2  0  0  0  0  0  0
  160.6570  206.9310  154.4030 C   0  0  1  0  0  3  0  0  0  0  0  0
  162.1220  210.0630  150.1670 C   0  0  0  0  0  3  0  0  0  0  0  0
  160.4900  205.1290  149.3200 O   0  0  0  0  0  0  0  0  0  0  0  0
  160.6030  207.2190  156.7370 O   0  0  0  0  0  0  0  0  0  0  0  0
  160.9740  207.6810  155.6700 C   0  0  0  0  0  0  0  0  0  0  0  0
  161.7020  208.9930  155.6620 C   0  0  0  0  0  2  0  0  0  0  0  0
  161.0960  209.9090  156.6180 N   0  0  0  0  0  2  0  0  0  0  0  0
  160.0940  211.9160  157.1750 O   0  0  0  0  0  0  0  0  0  0  0  0
  160.3260  211.0690  156.2740 C   0  0  0  0  0  0  0  0  0  0  0  0
  158.4830  211.1880  154.5590 N   0  0  0  0  0  0  0  0  0  0  0  0
  159.5900  211.6970  152.7700 C   0  0  0  0  0  3  0  0  0  0  0  0
  158.3620  211.4550  153.2700 N   0  0  0  0  0  0  0  0  0  0  0  0
  160.5280  211.5950  153.7860 C   0  0  0  0  0  3  0  0  0  0  0  0
  159.7820  211.2840  154.9100 C   0  0  0  0  0  0  0  0  0  0  0  0
  156.7570  212.2530  155.9500 C   0  0  0  0  0  2  0  0  0  0  0  0
  157.3470  210.9440  155.4490 C   0  0  0  0  0  3  0  0  0  0  0  0
  156.0830  211.5070  154.8230 C   0  0  0  0  0  2  0  0  0  0  0  0
  161.6680  203.2400  148.6680 O   0  0  0  0  0  0  0  0  0  0  0  0
  160.8260  201.7870  148.4310 P   0  0  0  0  0  0  0  0  0  0  0  0
  160.4770  201.6150  146.7850 O   0  0  0  0  0  0  0  0  0  0  0  0
  161.6730  200.6190  148.8820 O   0  0  0  0  0  1  0  0  0  0  0  0
  159.3750  201.8060  149.3030 O   0  0  0  0  0  1  0  0  0  0  0  0
  1 14  1  0  0  0  0
  2  7  1  0  0  0  0
  3 17  1  0  0  0  0
  6 16  1  0  0  0  0
  6  2  2  0  0  0  0
  7 18  1  0  0  0  0
  8 16  1  6  0  0  0
  8 19  1  0  0  0  0
  8 15  1  0  0  0  0
  9 17  1  0  0  0  0
 10  9  1  1  0  0  0
 11 10  1  0  0  0  0
 11  3  1  1  0  0  0
 12  5  1  1  0  0  0
 12 11  1  0  0  0  0
 13 34  1  6  0  0  0
 13  1  1  0  0  0  0
 14  4  1  6  0  0  0
 14 10  1  0  0  0  0
 15  2  1  6  0  0  0
 15 12  1  0  0  0  0
 17 21  1  1  0  0  0
 18  5  2  0  0  0  0
 19 13  1  0  0  0  0
 21 20  2  0  0  0  0
 22 21  1  0  0  0  0
 22 23  1  0  0  0  0
 25 23  1  0  0  0  0
 25 24  2  0  0  0  0
 26 30  1  0  0  0  0
 26 32  1  0  0  0  0
 27 28  2  0  0  0  0
 27 29  1  0  0  0  0
 28 26  1  0  0  0  0
 29 30  2  0  0  0  0
 30 25  1  0  0  0  0
 32 31  1  0  0  0  0
 33 32  1  0  0  0  0
 33 31  1  0  0  0  0
 35 34  1  0  0  0  0
 35 37  1  0  0  0  0
 35 38  1  0  0  0  0
 36 35  2  0  0  0  0
M  END
>  <MODEL>
1

>  <REMARK>
 VINA RESULT:      -8.2      0.000      0.000
  Name = 
  7 active torsions:
  status: ('A' for Active; 'I' for Inactive)
    1  A    between atoms: N_4  and  C_27
    2  A    between atoms: C_6  and  N_17
    3  A    between atoms: O_11  and  P_16
    4  A    between atoms: O_11  and  C_24
    5  A    between atoms: C_27  and  C_29
    6  A    between atoms: C_29  and  C_32
    7  A    between atoms: C_30  and  C_37
                            x       y       z     vdW  Elec       q    Type
                         _______ _______ _______ _____ _____    ______ ____

>  <TORSDO>
F 7

$$$$
=
 OpenBabel11072412173D

 38 43  0  0  1  0  0  0  0  0999 V2000
  160.8570  205.8770  147.1520 C   0  0  0  0  0  2  0  0  0  0  0  0
  160.9600  202.4480  150.6940 C   0  0  0  0  0  0  0  0  0  0  0  0
  162.4110  207.0210  151.4370 C   0  0  0  0  0  2  0  0  0  0  0  0
  162.9600  206.9330  147.8220 O   0  0  0  0  0  1  0  0  0  0  0  0
  160.9650  204.7580  152.2940 C   0  0  0  0  0  3  0  0  0  0  0  0
  160.5880  201.5710  149.8320 N   0  0  0  0  0  0  0  0  0  0  0  0
  160.6010  202.3830  152.0730 N   0  0  0  0  0  2  0  0  0  0  0  0
  161.2120  203.5260  148.6660 C   0  0  2  0  0  3  0  0  0  0  0  0
  161.2060  208.4050  149.8960 N   0  0  0  0  0  2  0  0  0  0  0  0
  161.1060  207.0340  149.4040 C   0  0  2  0  0  3  0  0  0  0  0  0
  161.9100  206.1250  150.3260 C   0  0  2  0  0  3  0  0  0  0  0  0
  161.0650  204.9200  150.7850 C   0  0  1  0  0  3  0  0  0  0  0  0
  161.7410  204.6810  146.7570 C   0  0  1  0  0  3  0  0  0  0  0  0
  161.5670  206.9770  147.9450 C   0  0  2  0  0  3  0  0  0  0  0  0
  161.6060  203.6490  150.1240 C   0  0  1  0  0  3  0  0  0  0  0  0
  160.9370  202.0300  148.4970 C   0  0  0  0  0  2  0  0  0  0  0  0
  162.2800  208.4200  150.8780 C   0  0  1  0  0  3  0  0  0  0  0  0
  160.7150  203.5720  152.8660 C   0  0  0  0  0  3  0  0  0  0  0  0
  162.2700  203.9550  147.8490 O   0  0  0  0  0  0  0  0  0  0  0  0
  162.7620  210.4220  152.0140 O   0  0  0  0  0  0  0  0  0  0  0  0
  162.0100  209.4650  151.9280 C   0  0  0  0  0  0  0  0  0  0  0  0
  160.8680  209.3500  152.8950 C   0  0  0  0  0  2  0  0  0  0  0  0
  160.4670  210.6720  153.3550 N   0  0  0  0  0  2  0  0  0  0  0  0
  159.9770  212.1940  155.0250 O   0  0  0  0  0  0  0  0  0  0  0  0
  160.6030  211.1530  154.7000 C   0  0  0  0  0  0  0  0  0  0  0  0
  161.1380  209.3810  156.4120 N   0  0  0  0  0  0  0  0  0  0  0  0
  163.1370  209.9520  157.0140 C   0  0  0  0  0  3  0  0  0  0  0  0
  162.1520  209.0510  157.1940 N   0  0  0  0  0  0  0  0  0  0  0  0
  162.7400  210.8850  156.0680 C   0  0  0  0  0  3  0  0  0  0  0  0
  161.4690  210.4780  155.7000 C   0  0  0  0  0  0  0  0  0  0  0  0
  160.1790  207.2920  155.5390 C   0  0  0  0  0  2  0  0  0  0  0  0
  159.9140  208.5880  156.2880 C   0  0  0  0  0  3  0  0  0  0  0  0
  160.0780  207.2830  157.0460 C   0  0  0  0  0  2  0  0  0  0  0  0
  161.0530  203.8340  145.8790 O   0  0  0  0  0  0  0  0  0  0  0  0
  160.4860  204.8330  144.6300 P   0  0  0  0  0  0  0  0  0  0  0  0
  161.8040  205.4020  143.7380 O   0  0  0  0  0  1  0  0  0  0  0  0
  159.5720  204.0480  143.7160 O   0  0  0  0  0  0  0  0  0  0  0  0
  159.6450  206.1510  145.2760 O   0  0  0  0  0  1  0  0  0  0  0  0
  1 14  1  0  0  0  0
  2  7  1  0  0  0  0
  5 18  2  0  0  0  0
  6  2  2  0  0  0  0
  7 18  1  0  0  0  0
  8 16  1  6  0  0  0
  8 15  1  0  0  0  0
  9 17  1  0  0  0  0
 10  9  1  1  0  0  0
 10 11  1  0  0  0  0
 11 12  1  0  0  0  0
 11  3  1  1  0  0  0
 12  5  1  1  0  0  0
 13 34  1  6  0  0  0
 13  1  1  0  0  0  0
 13 19  1  0  0  0  0
 14  4  1  1  0  0  0
 14 10  1  0  0  0  0
 15  2  1  1  0  0  0
 15 12  1  0  0  0  0
 16  6  1  0  0  0  0
 17  3  1  0  0  0  0
 17 21  1  1  0  0  0
 19  8  1  0  0  0  0
 21 20  2  0  0  0  0
 21 22  1  0  0  0  0
 22 23  1  0  0  0  0
 23 25  1  0  0  0  0
 25 24  2  0  0  0  0
 25 30  1  0  0  0  0
 26 28  1  0  0  0  0
 27 28  2  0  0  0  0
 29 27  1  0  0  0  0
 30 29  2  0  0  0  0
 30 26  1  0  0  0  0
 31 32  1  0  0  0  0
 31 33  1  0  0  0  0
 32 26  1  0  0  0  0
 32 33  1  0  0  0  0
 35 38  1  0  0  0  0
 35 34  1  0  0  0  0
 36 35  1  0  0  0  0
 37 35  2  0  0  0  0
M  END
>  <MODEL>
2

>  <REMARK>
 VINA RESULT:      -6.9      2.591      4.694
  Name = 
  7 active torsions:
  status: ('A' for Active; 'I' for Inactive)
    1  A    between atoms: N_4  and  C_27
    2  A    between atoms: C_6  and  N_17
    3  A    between atoms: O_11  and  P_16
    4  A    between atoms: O_11  and  C_24
    5  A    between atoms: C_27  and  C_29
    6  A    between atoms: C_29  and  C_32
    7  A    between atoms: C_30  and  C_37
                            x       y       z     vdW  Elec       q    Type
                         _______ _______ _______ _____ _____    ______ ____

>  <TORSDO>
F 7

$$$$
=
 OpenBabel11072412173D

 38 43  0  0  1  0  0  0  0  0999 V2000
  162.7330  208.4300  149.2650 C   0  0  0  0  0  2  0  0  0  0  0  0
  161.2160  208.8270  153.9390 C   0  0  0  0  0  0  0  0  0  0  0  0
  160.1480  204.9940  151.1590 C   0  0  0  0  0  2  0  0  0  0  0  0
  160.6620  207.4060  148.4590 O   0  0  0  0  0  1  0  0  0  0  0  0
  161.0140  206.0420  153.6280 C   0  0  0  0  0  3  0  0  0  0  0  0
  161.7190  210.0090  153.9830 N   0  0  0  0  0  0  0  0  0  0  0  0
  161.1500  207.9680  155.0760 N   0  0  0  0  0  2  0  0  0  0  0  0
  161.6870  209.3100  151.7300 C   0  0  2  0  0  3  0  0  0  0  0  0
  161.8970  204.7870  149.5350 N   0  0  0  0  0  2  0  0  0  0  0  0
  161.9780  206.1400  150.0770 C   0  0  2  0  0  3  0  0  0  0  0  0
  160.8420  206.3340  151.0750 C   0  0  2  0  0  3  0  0  0  0  0  0
  161.3740  206.8840  152.4130 C   0  0  1  0  0  3  0  0  0  0  0  0
  161.8710  209.6860  149.4750 C   0  0  1  0  0  3  0  0  0  0  0  0
  161.9550  207.1550  148.9300 C   0  0  2  0  0  3  0  0  0  0  0  0
  160.9050  208.3320  152.5820 C   0  0  1  0  0  3  0  0  0  0  0  0
  161.8260  210.5370  152.6330 C   0  0  0  0  0  2  0  0  0  0  0  0
  160.5950  204.2610  149.9140 C   0  0  1  0  0  3  0  0  0  0  0  0
  160.9490  206.5650  154.8610 C   0  0  0  0  0  3  0  0  0  0  0  0
  160.9680  209.6050  150.5610 O   0  0  0  0  0  0  0  0  0  0  0  0
  161.2830  202.3140  151.0390 O   0  0  0  0  0  0  0  0  0  0  0  0
  160.6670  202.7670  150.0880 C   0  0  0  0  0  0  0  0  0  0  0  0
  160.0350  201.8180  149.1130 C   0  0  0  0  0  2  0  0  0  0  0  0
  161.0400  200.9150  148.5690 N   0  0  0  0  0  2  0  0  0  0  0  0
  161.9690  199.6920  146.8420 O   0  0  0  0  0  0  0  0  0  0  0  0
  161.2710  200.6840  147.1720 C   0  0  0  0  0  0  0  0  0  0  0  0
  161.1080  202.8670  145.9210 N   0  0  0  0  0  0  0  0  0  0  0  0
  159.6030  202.4030  144.4380 C   0  0  0  0  0  3  0  0  0  0  0  0
  160.4370  203.3570  144.8940 N   0  0  0  0  0  0  0  0  0  0  0  0
  159.7600  201.2540  145.1970 C   0  0  0  0  0  3  0  0  0  0  0  0
  160.7370  201.5850  146.1210 C   0  0  0  0  0  0  0  0  0  0  0  0
  163.2520  204.0460  145.6710 C   0  0  0  0  0  2  0  0  0  0  0  0
  162.1600  203.5970  146.6300 C   0  0  0  0  0  3  0  0  0  0  0  0
  162.2040  205.0310  146.1320 C   0  0  0  0  0  2  0  0  0  0  0  0
  162.6810  210.8240  149.5820 O   0  0  0  0  0  0  0  0  0  0  0  0
  161.9280  212.0130  148.6340 P   0  0  0  0  0  0  0  0  0  0  0  0
  163.1140  213.0140  147.9620 O   0  0  0  0  0  1  0  0  0  0  0  0
  161.1400  211.3620  147.5200 O   0  0  0  0  0  0  0  0  0  0  0  0
  160.8920  212.9490  149.5900 O   0  0  0  0  0  1  0  0  0  0  0  0
  1 13  1  0  0  0  0
  2  6  2  0  0  0  0
  2  7  1  0  0  0  0
  5 18  2  0  0  0  0
  8 15  1  0  0  0  0
  8 16  1  1  0  0  0
  9 17  1  0  0  0  0
 10  9  1  6  0  0  0
 10 11  1  0  0  0  0
 11  3  1  1  0  0  0
 11 12  1  0  0  0  0
 12 15  1  0  0  0  0
 12  5  1  1  0  0  0
 13 34  1  1  0  0  0
 13 19  1  0  0  0  0
 14  4  1  1  0  0  0
 14  1  1  0  0  0  0
 14 10  1  0  0  0  0
 15  2  1  1  0  0  0
 16  6  1  0  0  0  0
 17 21  1  1  0  0  0
 17  3  1  0  0  0  0
 18  7  1  0  0  0  0
 19  8  1  0  0  0  0
 21 20  2  0  0  0  0
 22 21  1  0  0  0  0
 23 22  1  0  0  0  0
 24 25  2  0  0  0  0
 25 23  1  0  0  0  0
 26 30  1  0  0  0  0
 26 32  1  0  0  0  0
 27 28  2  0  0  0  0
 27 29  1  0  0  0  0
 28 26  1  0  0  0  0
 29 30  2  0  0  0  0
 30 25  1  0  0  0  0
 31 33  1  0  0  0  0
 31 32  1  0  0  0  0
 33 32  1  0  0  0  0
 35 34  1  0  0  0  0
 35 38  1  0  0  0  0
 36 35  1  0  0  0  0
 37 35  2  0  0  0  0
M  END
>  <MODEL>
3

>  <REMARK>
 VINA RESULT:      -6.7      4.049      9.062
  Name = 
  7 active torsions:
  status: ('A' for Active; 'I' for Inactive)
    1  A    between atoms: N_4  and  C_27
    2  A    between atoms: C_6  and  N_17
    3  A    between atoms: O_11  and  P_16
    4  A    between atoms: O_11  and  C_24
    5  A    between atoms: C_27  and  C_29
    6  A    between atoms: C_29  and  C_32
    7  A    between atoms: C_30  and  C_37
                            x       y       z     vdW  Elec       q    Type
                         _______ _______ _______ _____ _____    ______ ____

>  <TORSDO>
F 7

$$$$
=
 OpenBabel11072412173D

 38 43  0  0  1  0  0  0  0  0999 V2000
  160.5090  206.9860  147.8120 C   0  0  0  0  0  2  0  0  0  0  0  0
  160.9020  202.9060  150.5520 C   0  0  0  0  0  0  0  0  0  0  0  0
  162.3820  207.2580  152.1120 C   0  0  0  0  0  2  0  0  0  0  0  0
  162.6520  207.9260  148.5270 O   0  0  0  0  0  1  0  0  0  0  0  0
  161.0180  204.8370  152.5890 C   0  0  0  0  0  3  0  0  0  0  0  0
  160.4690  202.2170  149.5570 N   0  0  0  0  0  0  0  0  0  0  0  0
  160.6510  202.5510  151.9110 N   0  0  0  0  0  2  0  0  0  0  0  0
  160.9910  204.3810  148.7770 C   0  0  2  0  0  3  0  0  0  0  0  0
  161.0560  208.9040  150.9840 N   0  0  0  0  0  2  0  0  0  0  0  0
  160.9250  207.6610  150.2290 C   0  0  2  0  0  3  0  0  0  0  0  0
  161.8020  206.5990  150.8810 C   0  0  2  0  0  3  0  0  0  0  0  0
  161.0010  205.3080  151.1430 C   0  0  1  0  0  3  0  0  0  0  0  0
  161.3650  205.9150  147.1140 C   0  0  1  0  0  3  0  0  0  0  0  0
  161.2730  207.9140  148.7590 C   0  0  2  0  0  3  0  0  0  0  0  0
  161.4960  204.2110  150.1960 C   0  0  1  0  0  3  0  0  0  0  0  0
  160.7120  202.9470  148.3240 C   0  0  0  0  0  2  0  0  0  0  0  0
  162.2010  208.7390  151.8650 C   0  0  1  0  0  3  0  0  0  0  0  0
  160.8200  203.5540  152.9210 C   0  0  0  0  0  3  0  0  0  0  0  0
  161.9810  204.9910  147.9900 O   0  0  0  0  0  0  0  0  0  0  0  0
  162.7800  210.4540  153.3670 O   0  0  0  0  0  0  0  0  0  0  0  0
  162.0080  209.5400  153.1260 C   0  0  0  0  0  0  0  0  0  0  0  0
  160.9190  209.2300  154.1100 C   0  0  0  0  0  2  0  0  0  0  0  0
  161.1300  209.9770  155.3430 N   0  0  0  0  0  2  0  0  0  0  0  0
  160.7520  211.7920  156.7230 O   0  0  0  0  0  0  0  0  0  0  0  0
  160.3110  211.0640  155.7980 C   0  0  0  0  0  0  0  0  0  0  0  0
  158.7000  212.1550  154.1960 N   0  0  0  0  0  0  0  0  0  0  0  0
  156.8100  211.3360  154.8590 C   0  0  0  0  0  3  0  0  0  0  0  0
  157.4000  212.1450  153.9570 N   0  0  0  0  0  0  0  0  0  0  0  0
  157.7760  210.7990  155.6960 C   0  0  0  0  0  3  0  0  0  0  0  0
  158.9660  211.3330  155.2320 C   0  0  0  0  0  0  0  0  0  0  0  0
  159.7660  212.2570  151.9820 C   0  0  0  0  0  2  0  0  0  0  0  0
  159.6730  212.8720  153.3700 C   0  0  0  0  0  3  0  0  0  0  0  0
  158.9610  213.5180  152.1940 C   0  0  0  0  0  2  0  0  0  0  0  0
  160.6160  205.2520  146.1330 O   0  0  0  0  0  0  0  0  0  0  0  0
  161.7520  204.5710  145.0720 P   0  0  0  0  0  0  0  0  0  0  0  0
  163.3080  204.9310  145.6260 O   0  0  0  0  0  1  0  0  0  0  0  0
  161.5790  203.0700  145.0230 O   0  0  0  0  0  1  0  0  0  0  0  0
  161.5570  205.2160  143.5190 O   0  0  0  0  0  0  0  0  0  0  0  0
  1 14  1  0  0  0  0
  2  7  1  0  0  0  0
  5 18  2  0  0  0  0
  6  2  2  0  0  0  0
  7 18  1  0  0  0  0
  8 16  1  6  0  0  0
  8 15  1  0  0  0  0
  9 17  1  0  0  0  0
 10 11  1  0  0  0  0
 10  9  1  1  0  0  0
 11 12  1  0  0  0  0
 11  3  1  1  0  0  0
 12  5  1  1  0  0  0
 13 34  1  6  0  0  0
 13  1  1  0  0  0  0
 13 19  1  0  0  0  0
 14  4  1  1  0  0  0
 14 10  1  0  0  0  0
 15  2  1  1  0  0  0
 15 12  1  0  0  0  0
 16  6  1  0  0  0  0
 17  3  1  0  0  0  0
 17 21  1  1  0  0  0
 19  8  1  0  0  0  0
 21 20  2  0  0  0  0
 21 22  1  0  0  0  0
 22 23  1  0  0  0  0
 23 25  1  0  0  0  0
 25 24  2  0  0  0  0
 26 30  1  0  0  0  0
 27 29  1  0  0  0  0
 28 26  1  0  0  0  0
 28 27  2  0  0  0  0
 30 29  2  0  0  0  0
 30 25  1  0  0  0  0
 31 33  1  0  0  0  0
 31 32  1  0  0  0  0
 32 26  1  0  0  0  0
 33 32  1  0  0  0  0
 35 36  1  0  0  0  0
 35 34  1  0  0  0  0
 37 35  1  0  0  0  0
 38 35  2  0  0  0  0
M  END
>  <MODEL>
4

>  <REMARK>
 VINA RESULT:      -6.6      2.383      4.075
  Name = 
  7 active torsions:
  status: ('A' for Active; 'I' for Inactive)
    1  A    between atoms: N_4  and  C_27
    2  A    between atoms: C_6  and  N_17
    3  A    between atoms: O_11  and  P_16
    4  A    between atoms: O_11  and  C_24
    5  A    between atoms: C_27  and  C_29
    6  A    between atoms: C_29  and  C_32
    7  A    between atoms: C_30  and  C_37
                            x       y       z     vdW  Elec       q    Type
                         _______ _______ _______ _____ _____    ______ ____

>  <TORSDO>
F 7

$$$$
=
 OpenBabel11072412173D

 38 43  0  0  1  0  0  0  0  0999 V2000
  160.4570  206.8680  147.9170 C   0  0  0  0  0  2  0  0  0  0  0  0
  160.8310  202.5330  150.2380 C   0  0  0  0  0  0  0  0  0  0  0  0
  162.1640  206.7250  152.2930 C   0  0  0  0  0  2  0  0  0  0  0  0
  162.5530  207.7640  148.8080 O   0  0  0  0  0  1  0  0  0  0  0  0
  160.8320  204.2460  152.4650 C   0  0  0  0  0  3  0  0  0  0  0  0
  160.4490  201.9450  149.1610 N   0  0  0  0  0  0  0  0  0  0  0  0
  160.5370  202.0370  151.5420 N   0  0  0  0  0  2  0  0  0  0  0  0
  160.9560  204.1860  148.6290 C   0  0  2  0  0  3  0  0  0  0  0  0
  160.8470  208.4560  151.2890 N   0  0  0  0  0  2  0  0  0  0  0  0
  160.7690  207.2970  150.4060 C   0  0  2  0  0  3  0  0  0  0  0  0
  161.6430  206.1870  150.9790 C   0  0  2  0  0  3  0  0  0  0  0  0
  160.8590  204.8630  151.0750 C   0  0  1  0  0  3  0  0  0  0  0  0
  161.3610  205.8900  147.1470 C   0  0  1  0  0  3  0  0  0  0  0  0
  161.1670  207.7060  148.9840 C   0  0  2  0  0  3  0  0  0  0  0  0
  161.4110  203.8790  150.0410 C   0  0  1  0  0  3  0  0  0  0  0  0
  160.7230  202.8020  148.0200 C   0  0  0  0  0  2  0  0  0  0  0  0
  161.9630  208.2200  152.1930 C   0  0  1  0  0  3  0  0  0  0  0  0
  160.6470  202.9320  152.6550 C   0  0  0  0  0  3  0  0  0  0  0  0
  161.9620  204.8900  147.9470 O   0  0  0  0  0  0  0  0  0  0  0  0
  161.1960  208.2310  154.4160 O   0  0  0  0  0  0  0  0  0  0  0  0
  161.7060  208.8830  153.5200 C   0  0  0  0  0  0  0  0  0  0  0  0
  162.0270  210.3280  153.7670 C   0  0  0  0  0  2  0  0  0  0  0  0
  161.5870  210.7190  155.0990 N   0  0  0  0  0  2  0  0  0  0  0  0
  160.3820  212.0640  156.5410 O   0  0  0  0  0  0  0  0  0  0  0  0
  160.4860  211.5950  155.3790 C   0  0  0  0  0  0  0  0  0  0  0  0
  158.1580  211.6130  154.4120 N   0  0  0  0  0  0  0  0  0  0  0  0
  158.4640  212.7050  152.5700 C   0  0  0  0  0  3  0  0  0  0  0  0
  157.5470  212.0900  153.3420 N   0  0  0  0  0  0  0  0  0  0  0  0
  159.7060  212.6290  153.1810 C   0  0  0  0  0  3  0  0  0  0  0  0
  159.4660  211.9390  154.3570 C   0  0  0  0  0  0  0  0  0  0  0  0
  156.8590  211.9530  156.4730 C   0  0  0  0  0  2  0  0  0  0  0  0
  157.4660  210.9410  155.5130 C   0  0  0  0  0  3  0  0  0  0  0  0
  155.9830  211.2650  155.4520 C   0  0  0  0  0  2  0  0  0  0  0  0
  160.6620  205.3190  146.0750 O   0  0  0  0  0  0  0  0  0  0  0  0
  161.8500  204.7210  145.0210 P   0  0  0  0  0  0  0  0  0  0  0  0
  163.3770  205.0820  145.6510 O   0  0  0  0  0  1  0  0  0  0  0  0
  161.7120  203.2220  144.8850 O   0  0  0  0  0  1  0  0  0  0  0  0
  161.6950  205.4450  143.4990 O   0  0  0  0  0  0  0  0  0  0  0  0
  1 14  1  0  0  0  0
  2  7  1  0  0  0  0
  5 18  2  0  0  0  0
  6  2  2  0  0  0  0
  7 18  1  0  0  0  0
  8 16  1  6  0  0  0
  8 15  1  0  0  0  0
  9 17  1  0  0  0  0
 10 11  1  0  0  0  0
 10  9  1  1  0  0  0
 11 12  1  0  0  0  0
 11  3  1  1  0  0  0
 12  5  1  1  0  0  0
 13 34  1  6  0  0  0
 13  1  1  0  0  0  0
 13 19  1  0  0  0  0
 14  4  1  1  0  0  0
 14 10  1  0  0  0  0
 15  2  1  1  0  0  0
 15 12  1  0  0  0  0
 16  6  1  0  0  0  0
 17  3  1  0  0  0  0
 17 21  1  1  0  0  0
 19  8  1  0  0  0  0
 21 22  1  0  0  0  0
 21 20  2  0  0  0  0
 22 23  1  0  0  0  0
 23 25  1  0  0  0  0
 25 24  2  0  0  0  0
 26 32  1  0  0  0  0
 27 29  1  0  0  0  0
 27 28  2  0  0  0  0
 28 26  1  0  0  0  0
 29 30  2  0  0  0  0
 30 26  1  0  0  0  0
 30 25  1  0  0  0  0
 32 31  1  0  0  0  0
 33 32  1  0  0  0  0
 33 31  1  0  0  0  0
 35 36  1  0  0  0  0
 35 34  1  0  0  0  0
 37 35  1  0  0  0  0
 38 35  2  0  0  0  0
M  END
>  <MODEL>
5

>  <REMARK>
 VINA RESULT:      -6.4      2.371      3.816
  Name = 
  7 active torsions:
  status: ('A' for Active; 'I' for Inactive)
    1  A    between atoms: N_4  and  C_27
    2  A    between atoms: C_6  and  N_17
    3  A    between atoms: O_11  and  P_16
    4  A    between atoms: O_11  and  C_24
    5  A    between atoms: C_27  and  C_29
    6  A    between atoms: C_29  and  C_32
    7  A    between atoms: C_30  and  C_37
                            x       y       z     vdW  Elec       q    Type
                         _______ _______ _______ _____ _____    ______ ____

>  <TORSDO>
F 7

$$$$
=
 OpenBabel11072412173D

 38 43  0  0  1  0  0  0  0  0999 V2000
  160.4000  207.5680  153.8990 C   0  0  0  0  0  2  0  0  0  0  0  0
  161.9190  209.6050  149.6730 C   0  0  0  0  0  0  0  0  0  0  0  0
  161.9740  204.8110  150.4350 C   0  0  0  0  0  2  0  0  0  0  0  0
  162.1400  205.8460  153.9380 O   0  0  0  0  0  1  0  0  0  0  0  0
  161.3860  207.0020  148.7610 C   0  0  0  0  0  3  0  0  0  0  0  0
  161.7430  210.7680  150.1920 N   0  0  0  0  0  0  0  0  0  0  0  0
  161.7440  209.3400  148.2830 N   0  0  0  0  0  2  0  0  0  0  0  0
  161.6140  209.1690  151.9210 C   0  0  2  0  0  3  0  0  0  0  0  0
  160.2490  204.3270  152.0250 N   0  0  0  0  0  2  0  0  0  0  0  0
  160.5200  205.7580  152.1150 C   0  0  2  0  0  3  0  0  0  0  0  0
  161.6560  206.1000  151.1580 C   0  0  2  0  0  3  0  0  0  0  0  0
  161.2730  207.2860  150.2510 C   0  0  1  0  0  3  0  0  0  0  0  0
  161.5600  208.5520  154.1300 C   0  0  1  0  0  3  0  0  0  0  0  0
  160.8210  206.1330  153.5690 C   0  0  2  0  0  3  0  0  0  0  0  0
  162.1030  208.5100  150.6480 C   0  0  1  0  0  3  0  0  0  0  0  0
  161.7930  210.6620  151.6410 C   0  0  0  0  0  2  0  0  0  0  0  0
  161.3640  203.7340  151.3020 C   0  0  1  0  0  3  0  0  0  0  0  0
  161.5730  207.9800  147.8630 C   0  0  0  0  0  3  0  0  0  0  0  0
  162.3980  208.7470  153.0070 O   0  0  0  0  0  0  0  0  0  0  0  0
  160.7030  201.4830  151.1280 O   0  0  0  0  0  0  0  0  0  0  0  0
  160.9010  202.5280  150.5280 C   0  0  0  0  0  0  0  0  0  0  0  0
  160.7060  202.5600  149.0410 C   0  0  0  0  0  2  0  0  0  0  0  0
  161.3490  201.4070  148.4260 N   0  0  0  0  0  2  0  0  0  0  0  0
  161.6240  199.8990  146.6960 O   0  0  0  0  0  0  0  0  0  0  0  0
  161.2540  201.0510  147.0400 C   0  0  0  0  0  0  0  0  0  0  0  0
  161.2100  203.2580  145.8220 N   0  0  0  0  0  0  0  0  0  0  0  0
  159.6520  202.9130  144.3590 C   0  0  0  0  0  3  0  0  0  0  0  0
  160.5540  203.8050  144.8130 N   0  0  0  0  0  0  0  0  0  0  0  0
  159.7490  201.7450  145.1000 C   0  0  0  0  0  3  0  0  0  0  0  0
  160.7600  202.0000  146.0100 C   0  0  0  0  0  0  0  0  0  0  0  0
  163.5270  204.0550  145.6090 C   0  0  0  0  0  2  0  0  0  0  0  0
  162.3180  203.9090  146.5210 C   0  0  0  0  0  3  0  0  0  0  0  0
  162.6240  205.2400  145.8570 C   0  0  0  0  0  2  0  0  0  0  0  0
  161.0750  209.7760  154.6110 O   0  0  0  0  0  0  0  0  0  0  0  0
  161.7950  209.9860  156.1330 P   0  0  0  0  0  0  0  0  0  0  0  0
  163.2590  210.8080  155.9420 O   0  0  0  0  0  0  0  0  0  0  0  0
  160.8840  210.7980  157.0270 O   0  0  0  0  0  1  0  0  0  0  0  0
  162.0950  208.4810  156.8470 O   0  0  0  0  0  1  0  0  0  0  0  0
  1 13  1  0  0  0  0
  2  6  2  0  0  0  0
  3 17  1  0  0  0  0
  6 16  1  0  0  0  0
  7  2  1  0  0  0  0
  8 16  1  6  0  0  0
  8 19  1  0  0  0  0
 10  9  1  1  0  0  0
 10 14  1  0  0  0  0
 11  3  1  6  0  0  0
 11 10  1  0  0  0  0
 12  5  1  6  0  0  0
 12 15  1  0  0  0  0
 12 11  1  0  0  0  0
 13 34  1  6  0  0  0
 14  1  1  0  0  0  0
 14  4  1  6  0  0  0
 15  2  1  6  0  0  0
 15  8  1  0  0  0  0
 17 21  1  6  0  0  0
 17  9  1  0  0  0  0
 18  7  1  0  0  0  0
 18  5  2  0  0  0  0
 19 13  1  0  0  0  0
 21 20  2  0  0  0  0
 22 21  1  0  0  0  0
 23 22  1  0  0  0  0
 24 25  2  0  0  0  0
 25 23  1  0  0  0  0
 26 30  1  0  0  0  0
 26 32  1  0  0  0  0
 27 28  2  0  0  0  0
 27 29  1  0  0  0  0
 28 26  1  0  0  0  0
 29 30  2  0  0  0  0
 30 25  1  0  0  0  0
 31 33  1  0  0  0  0
 31 32  1  0  0  0  0
 33 32  1  0  0  0  0
 34 35  1  0  0  0  0
 35 38  1  0  0  0  0
 35 37  1  0  0  0  0
 36 35  2  0  0  0  0
M  END
>  <MODEL>
6

>  <REMARK>
 VINA RESULT:      -6.1      3.436      8.909
  Name = 
  7 active torsions:
  status: ('A' for Active; 'I' for Inactive)
    1  A    between atoms: N_4  and  C_27
    2  A    between atoms: C_6  and  N_17
    3  A    between atoms: O_11  and  P_16
    4  A    between atoms: O_11  and  C_24
    5  A    between atoms: C_27  and  C_29
    6  A    between atoms: C_29  and  C_32
    7  A    between atoms: C_30  and  C_37
                            x       y       z     vdW  Elec       q    Type
                         _______ _______ _______ _____ _____    ______ ____

>  <TORSDO>
F 7

$$$$
=
 OpenBabel11072412173D

 38 43  0  0  1  0  0  0  0  0999 V2000
  160.1750  208.3410  154.1270 C   0  0  0  0  0  2  0  0  0  0  0  0
  161.9430  209.9830  149.8260 C   0  0  0  0  0  0  0  0  0  0  0  0
  162.4170  205.3690  151.2600 C   0  0  0  0  0  2  0  0  0  0  0  0
  162.0700  206.8610  154.5810 O   0  0  0  0  0  1  0  0  0  0  0  0
  161.7960  207.2380  149.2430 C   0  0  0  0  0  3  0  0  0  0  0  0
  161.5870  211.1730  150.1550 N   0  0  0  0  0  0  0  0  0  0  0  0
  161.9580  209.5200  148.4770 N   0  0  0  0  0  2  0  0  0  0  0  0
  161.4310  209.8070  152.0720 C   0  0  2  0  0  3  0  0  0  0  0  0
  160.5820  204.8900  152.7250 N   0  0  0  0  0  2  0  0  0  0  0  0
  160.6890  206.3440  152.6370 C   0  0  2  0  0  3  0  0  0  0  0  0
  161.8840  206.6930  151.7590 C   0  0  2  0  0  3  0  0  0  0  0  0
  161.4840  207.6970  150.6590 C   0  0  1  0  0  3  0  0  0  0  0  0
  161.1910  209.4790  154.3290 C   0  0  1  0  0  3  0  0  0  0  0  0
  160.7800  206.9370  154.0460 C   0  0  2  0  0  3  0  0  0  0  0  0
  162.1300  209.0520  150.9590 C   0  0  1  0  0  3  0  0  0  0  0  0
  161.4820  211.2620  151.6020 C   0  0  0  0  0  2  0  0  0  0  0  0
  161.8290  204.3470  152.2070 C   0  0  1  0  0  3  0  0  0  0  0  0
  161.9800  208.1070  148.2390 C   0  0  0  0  0  3  0  0  0  0  0  0
  162.1260  209.6270  153.2790 O   0  0  0  0  0  0  0  0  0  0  0  0
  162.1680  202.0280  152.0140 O   0  0  0  0  0  0  0  0  0  0  0  0
  161.5870  203.0050  151.5700 C   0  0  0  0  0  0  0  0  0  0  0  0
  160.6810  202.8340  150.3850 C   0  0  0  0  0  2  0  0  0  0  0  0
  161.0030  201.6000  149.6820 N   0  0  0  0  0  2  0  0  0  0  0  0
  161.1980  200.3340  147.7580 O   0  0  0  0  0  0  0  0  0  0  0  0
  161.1960  201.4850  148.2650 C   0  0  0  0  0  0  0  0  0  0  0  0
  161.1380  202.7350  146.0780 N   0  0  0  0  0  0  0  0  0  0  0  0
  161.9560  204.6540  146.6550 C   0  0  0  0  0  3  0  0  0  0  0  0
  161.4480  203.9400  145.6310 N   0  0  0  0  0  0  0  0  0  0  0  0
  161.9560  203.8750  147.8020 C   0  0  0  0  0  3  0  0  0  0  0  0
  161.4150  202.6680  147.3960 C   0  0  0  0  0  0  0  0  0  0  0  0
  158.9880  201.7030  145.4770 C   0  0  0  0  0  2  0  0  0  0  0  0
  160.4930  201.7060  145.2610 C   0  0  0  0  0  3  0  0  0  0  0  0
  159.5700  202.3650  144.2510 C   0  0  0  0  0  2  0  0  0  0  0  0
  160.5270  210.6880  154.5820 O   0  0  0  0  0  0  0  0  0  0  0  0
  160.8450  211.0520  156.2090 P   0  0  0  0  0  0  0  0  0  0  0  0
  160.1470  209.8630  157.1860 O   0  0  0  0  0  1  0  0  0  0  0  0
  162.3370  211.0790  156.4500 O   0  0  0  0  0  0  0  0  0  0  0  0
  160.1790  212.5560  156.6080 O   0  0  0  0  0  1  0  0  0  0  0  0
  1 13  1  0  0  0  0
  2  6  2  0  0  0  0
  3 17  1  0  0  0  0
  6 16  1  0  0  0  0
  7  2  1  0  0  0  0
  8 16  1  6  0  0  0
  8 19  1  0  0  0  0
 10  9  1  1  0  0  0
 10 14  1  0  0  0  0
 11  3  1  6  0  0  0
 11 10  1  0  0  0  0
 12  5  1  6  0  0  0
 12 15  1  0  0  0  0
 12 11  1  0  0  0  0
 13 34  1  6  0  0  0
 14  1  1  0  0  0  0
 14  4  1  6  0  0  0
 15  2  1  6  0  0  0
 15  8  1  0  0  0  0
 17 21  1  6  0  0  0
 17  9  1  0  0  0  0
 18  7  1  0  0  0  0
 18  5  2  0  0  0  0
 19 13  1  0  0  0  0
 21 20  2  0  0  0  0
 22 21  1  0  0  0  0
 23 22  1  0  0  0  0
 24 25  2  0  0  0  0
 25 23  1  0  0  0  0
 26 30  1  0  0  0  0
 27 29  1  0  0  0  0
 28 26  1  0  0  0  0
 28 27  2  0  0  0  0
 30 29  2  0  0  0  0
 30 25  1  0  0  0  0
 32 31  1  0  0  0  0
 32 26  1  0  0  0  0
 33 32  1  0  0  0  0
 33 31  1  0  0  0  0
 34 35  1  0  0  0  0
 35 37  2  0  0  0  0
 35 38  1  0  0  0  0
 35 36  1  0  0  0  0
M  END
>  <MODEL>
7

>  <REMARK>
 VINA RESULT:      -5.3      3.330      8.782
  Name = 
  7 active torsions:
  status: ('A' for Active; 'I' for Inactive)
    1  A    between atoms: N_4  and  C_27
    2  A    between atoms: C_6  and  N_17
    3  A    between atoms: O_11  and  P_16
    4  A    between atoms: O_11  and  C_24
    5  A    between atoms: C_27  and  C_29
    6  A    between atoms: C_29  and  C_32
    7  A    between atoms: C_30  and  C_37
                            x       y       z     vdW  Elec       q    Type
                         _______ _______ _______ _____ _____    ______ ____

>  <TORSDO>
F 7

$$$$
