=
 OpenBabel11072411223D

 42 46  0  0  1  0  0  0  0  0999 V2000
  161.0380  208.3970  154.7760 C   0  0  0  0  0  0  0  0  0  0  0  0
  162.1430  210.4420  151.8940 C   0  0  0  0  0  2  0  0  0  0  0  0
  161.6000  208.1860  152.4060 N   0  0  0  0  0  0  0  0  0  0  0  0
  160.9620  209.0930  155.8800 N   0  0  0  0  0  0  0  0  0  0  0  0
  160.2810  211.3750  155.0640 C   0  0  0  0  0  3  0  0  0  0  0  0
  161.0490  210.5520  156.0660 C   0  0  0  0  0  2  0  0  0  0  0  0
  161.6190  206.7470  152.5050 C   0  0  0  0  0  0  0  0  0  0  0  0
  160.9400  209.0040  153.4020 C   0  0  2  0  0  3  0  0  0  0  0  0
  161.5820  210.3550  153.3050 C   0  0  2  0  0  3  0  0  0  0  0  0
  161.0950  206.9690  154.8530 N   0  0  0  0  0  2  0  0  0  0  0  0
  162.4060  208.9910  151.5020 C   0  0  0  0  0  2  0  0  0  0  0  0
  160.5690  211.3710  153.7550 C   0  0  0  0  0  0  0  0  0  0  0  0
  161.3580  206.1750  153.6870 C   0  0  0  0  0  3  0  0  0  0  0  0
  160.1000  212.3430  151.4820 C   0  0  0  0  0  3  0  0  0  0  0  0
  159.7310  212.1700  152.8240 C   0  0  0  0  0  0  0  0  0  0  0  0
  158.1100  213.6620  151.0690 C   0  0  0  0  0  0  0  0  0  0  0  0
  159.2970  213.0840  150.6130 C   0  0  0  0  0  3  0  0  0  0  0  0
  157.7130  213.4880  152.4050 C   0  0  0  0  0  0  0  0  0  0  0  0
  158.5280  212.7410  153.2710 C   0  0  0  0  0  3  0  0  0  0  0  0
  155.6480  213.4090  153.7710 C   0  0  0  0  0  1  0  0  0  0  0  0
  156.5160  214.0590  152.8530 O   0  0  0  0  0  0  0  0  0  0  0  0
  157.2650  214.4410  150.1160 C   0  0  0  0  0  2  0  0  0  0  0  0
  156.5130  213.4970  149.1920 C   0  0  0  0  0  2  0  0  0  0  0  0
  156.8900  213.7640  147.7450 C   0  0  0  0  0  2  0  0  0  0  0  0
  160.1570  212.1640  146.8130 O   0  0  0  0  0  1  0  0  0  0  0  0
  159.1360  213.1140  146.8150 C   0  0  0  0  0  0  0  0  0  0  0  0
  158.1000  212.9220  145.7400 C   0  0  0  0  0  2  0  0  0  0  0  0
  157.7510  212.6330  147.2020 C   0  0  2  0  0  3  0  0  0  0  0  0
  159.4930  214.4430  147.0610 O   0  0  0  0  0  1  0  0  0  0  0  0
  161.8340  205.8860  151.3740 N   0  0  0  0  0  2  0  0  0  0  0  0
  160.8570  205.0680  150.6550 C   0  0  1  0  0  3  0  0  0  0  0  0
  161.2660  204.8160  149.1960 C   0  0  1  0  0  3  0  0  0  0  0  0
  160.5620  203.7390  148.6540 O   0  0  0  0  0  1  0  0  0  0  0  0
  161.6520  206.1220  147.0120 N   0  0  0  0  0  2  0  0  0  0  0  0
  160.4270  206.9970  148.7760 O   0  0  0  0  0  0  0  0  0  0  0  0
  161.0920  206.0290  148.3280 C   0  0  0  0  0  0  0  0  0  0  0  0
  162.4790  205.0950  146.3910 C   0  0  0  0  0  2  0  0  0  0  0  0
  161.7070  204.3580  145.3500 C   0  0  0  0  0  0  0  0  0  0  0  0
  161.2990  203.0530  145.5870 O   0  0  0  0  0  1  0  0  0  0  0  0
  161.3950  204.9260  144.2710 O   0  0  0  0  0  0  0  0  0  0  0  0
  161.7480  203.1290  151.7380 O   0  0  0  0  0  1  0  0  0  0  0  0
  160.5590  203.7910  151.4280 C   0  0  0  0  0  2  0  0  0  0  0  0
  1 10  1  0  0  0  0
  1  4  2  0  0  0  0
  3  7  1  0  0  0  0
  3  8  1  0  0  0  0
  4  6  1  0  0  0  0
  5  6  1  0  0  0  0
  7 13  2  0  0  0  0
  8  1  1  1  0  0  0
  9  2  1  6  0  0  0
  9  8  1  0  0  0  0
  9 12  1  0  0  0  0
 11  2  1  0  0  0  0
 11  3  1  0  0  0  0
 12  5  2  0  0  0  0
 13 10  1  0  0  0  0
 14 15  1  0  0  0  0
 15 19  2  0  0  0  0
 15 12  1  0  0  0  0
 16 18  2  0  0  0  0
 17 16  1  0  0  0  0
 17 14  2  0  0  0  0
 18 21  1  0  0  0  0
 18 19  1  0  0  0  0
 21 20  1  0  0  0  0
 22 16  1  0  0  0  0
 23 22  1  0  0  0  0
 24 23  1  0  0  0  0
 25 26  1  0  0  0  0
 26 29  1  0  0  0  0
 26 28  1  0  0  0  0
 27 26  1  0  0  0  0
 27 28  1  0  0  0  0
 28 24  1  1  0  0  0
 30  7  1  0  0  0  0
 31 30  1  0  0  0  0
 31 42  1  1  0  0  0
 32 33  1  6  0  0  0
 32 31  1  0  0  0  0
 34 36  1  0  0  0  0
 36 35  2  0  0  0  0
 36 32  1  0  0  0  0
 37 34  1  0  0  0  0
 38 39  1  0  0  0  0
 38 37  1  0  0  0  0
 40 38  2  0  0  0  0
 42 41  1  0  0  0  0
M  END
>  <MODEL>
1

>  <REMARK>
 VINA RESULT:      -7.5      0.000      0.000
  Name = 
  13 active torsions:
  status: ('A' for Active; 'I' for Inactive)
    1  A    between atoms: N_3  and  C_7
    2  A    between atoms: C_4  and  C_19
    3  A    between atoms: C_4  and  C_33
    4  A    between atoms: C_7  and  C_11
    5  A    between atoms: CA_12  and  C_15
    6  A    between atoms: CA_12  and  C_20
    7  A    between atoms: CA_12  and  N_22
    8  A    between atoms: C_15  and  C_31
    9  A    between atoms: C_16  and  N_22
   10  A    between atoms: C_17  and  C_39
   11  A    between atoms: C_27  and  O_38
   12  A    between atoms: C_28  and  C_33
   13  A    between atoms: C_28  and  C_36
                            x       y       z     vdW  Elec       q    Type
                         _______ _______ _______ _____ _____    ______ ____

>  <TORSDO>
F 13

$$$$
=
 OpenBabel11072411223D

 42 46  0  0  1  0  0  0  0  0999 V2000
  160.9220  208.1280  154.4970 C   0  0  0  0  0  0  0  0  0  0  0  0
  162.2820  210.0550  151.6420 C   0  0  0  0  0  2  0  0  0  0  0  0
  161.6310  207.8320  152.1760 N   0  0  0  0  0  0  0  0  0  0  0  0
  160.7960  208.8570  155.5750 N   0  0  0  0  0  0  0  0  0  0  0  0
  160.2470  211.1360  154.6550 C   0  0  0  0  0  3  0  0  0  0  0  0
  160.9200  210.3180  155.7280 C   0  0  0  0  0  2  0  0  0  0  0  0
  161.5950  206.3960  152.3150 C   0  0  0  0  0  0  0  0  0  0  0  0
  160.9340  208.6990  153.1040 C   0  0  2  0  0  3  0  0  0  0  0  0
  161.6260  210.0250  153.0150 C   0  0  2  0  0  3  0  0  0  0  0  0
  160.9250  206.7020  154.6160 N   0  0  0  0  0  2  0  0  0  0  0  0
  162.5210  208.5850  151.3080 C   0  0  0  0  0  2  0  0  0  0  0  0
  160.6200  211.0850  153.3690 C   0  0  0  0  0  0  0  0  0  0  0  0
  161.2380  205.8680  153.4910 C   0  0  0  0  0  3  0  0  0  0  0  0
  158.4950  212.1090  152.4930 C   0  0  0  0  0  3  0  0  0  0  0  0
  159.8730  211.8840  152.3630 C   0  0  0  0  0  0  0  0  0  0  0  0
  158.4830  213.4270  150.4600 C   0  0  0  0  0  0  0  0  0  0  0  0
  157.8060  212.8720  151.5490 C   0  0  0  0  0  3  0  0  0  0  0  0
  159.8660  213.2260  150.3180 C   0  0  0  0  0  0  0  0  0  0  0  0
  160.5490  212.4560  151.2740 C   0  0  0  0  0  3  0  0  0  0  0  0
  161.6510  213.1690  148.6010 C   0  0  0  0  0  1  0  0  0  0  0  0
  160.5410  213.7950  149.2310 O   0  0  0  0  0  0  0  0  0  0  0  0
  157.7240  214.2470  149.4710 C   0  0  0  0  0  2  0  0  0  0  0  0
  157.2220  213.3680  148.3370 C   0  0  0  0  0  2  0  0  0  0  0  0
  157.0980  214.1770  147.0580 C   0  0  0  0  0  2  0  0  0  0  0  0
  159.1830  212.3170  144.5490 O   0  0  0  0  0  1  0  0  0  0  0  0
  158.7010  213.4030  145.2800 C   0  0  0  0  0  0  0  0  0  0  0  0
  157.5800  214.1560  144.6170 C   0  0  0  0  0  2  0  0  0  0  0  0
  157.2980  213.2840  145.8430 C   0  0  2  0  0  3  0  0  0  0  0  0
  159.6390  214.2000  145.9410 O   0  0  0  0  0  1  0  0  0  0  0  0
  161.8560  205.4970  151.2240 N   0  0  0  0  0  2  0  0  0  0  0  0
  160.8950  204.8540  150.3270 C   0  0  1  0  0  3  0  0  0  0  0  0
  161.3690  204.8520  148.8660 C   0  0  1  0  0  3  0  0  0  0  0  0
  160.8790  203.7410  148.1780 O   0  0  0  0  0  1  0  0  0  0  0  0
  161.3930  206.3610  146.7800 N   0  0  0  0  0  2  0  0  0  0  0  0
  160.3110  206.9740  148.7380 O   0  0  0  0  0  0  0  0  0  0  0  0
  160.9980  206.1110  148.1350 C   0  0  0  0  0  0  0  0  0  0  0  0
  162.2250  205.4680  145.9840 C   0  0  0  0  0  2  0  0  0  0  0  0
  161.4660  204.9550  144.8080 C   0  0  0  0  0  0  0  0  0  0  0  0
  160.8030  203.7380  144.8910 O   0  0  0  0  0  1  0  0  0  0  0  0
  161.3970  205.6350  143.7510 O   0  0  0  0  0  0  0  0  0  0  0  0
  161.5240  202.9970  151.7000 O   0  0  0  0  0  1  0  0  0  0  0  0
  160.5280  203.4690  150.8440 C   0  0  0  0  0  2  0  0  0  0  0  0
  1 10  1  0  0  0  0
  1  4  2  0  0  0  0
  3  7  1  0  0  0  0
  3  8  1  0  0  0  0
  4  6  1  0  0  0  0
  5  6  1  0  0  0  0
  7 13  2  0  0  0  0
  8  1  1  1  0  0  0
  9  2  1  6  0  0  0
  9  8  1  0  0  0  0
  9 12  1  0  0  0  0
 11  2  1  0  0  0  0
 11  3  1  0  0  0  0
 12  5  2  0  0  0  0
 13 10  1  0  0  0  0
 15 14  1  0  0  0  0
 15 12  1  0  0  0  0
 16 17  1  0  0  0  0
 17 14  2  0  0  0  0
 18 16  2  0  0  0  0
 18 19  1  0  0  0  0
 19 15  2  0  0  0  0
 20 21  1  0  0  0  0
 21 18  1  0  0  0  0
 22 16  1  0  0  0  0
 23 22  1  0  0  0  0
 24 23  1  0  0  0  0
 25 26  1  0  0  0  0
 26 28  1  0  0  0  0
 26 29  1  0  0  0  0
 27 26  1  0  0  0  0
 27 28  1  0  0  0  0
 28 24  1  1  0  0  0
 30  7  1  0  0  0  0
 31 42  1  1  0  0  0
 31 30  1  0  0  0  0
 32 33  1  6  0  0  0
 32 31  1  0  0  0  0
 34 36  1  0  0  0  0
 36 35  2  0  0  0  0
 36 32  1  0  0  0  0
 37 34  1  0  0  0  0
 38 39  1  0  0  0  0
 38 37  1  0  0  0  0
 40 38  2  0  0  0  0
 42 41  1  0  0  0  0
M  END
>  <MODEL>
2

>  <REMARK>
 VINA RESULT:      -7.2      1.240      1.841
  Name = 
  13 active torsions:
  status: ('A' for Active; 'I' for Inactive)
    1  A    between atoms: N_3  and  C_7
    2  A    between atoms: C_4  and  C_19
    3  A    between atoms: C_4  and  C_33
    4  A    between atoms: C_7  and  C_11
    5  A    between atoms: CA_12  and  C_15
    6  A    between atoms: CA_12  and  C_20
    7  A    between atoms: CA_12  and  N_22
    8  A    between atoms: C_15  and  C_31
    9  A    between atoms: C_16  and  N_22
   10  A    between atoms: C_17  and  C_39
   11  A    between atoms: C_27  and  O_38
   12  A    between atoms: C_28  and  C_33
   13  A    between atoms: C_28  and  C_36
                            x       y       z     vdW  Elec       q    Type
                         _______ _______ _______ _____ _____    ______ ____

>  <TORSDO>
F 13

$$$$
=
 OpenBabel11072411223D

 42 46  0  0  1  0  0  0  0  0999 V2000
  160.9620  207.0140  153.8070 C   0  0  0  0  0  0  0  0  0  0  0  0
  162.2500  210.0690  152.1580 C   0  0  0  0  0  2  0  0  0  0  0  0
  161.8170  207.7870  151.6500 N   0  0  0  0  0  0  0  0  0  0  0  0
  160.7040  207.2030  155.0740 N   0  0  0  0  0  0  0  0  0  0  0  0
  159.9600  209.6070  155.1460 C   0  0  0  0  0  3  0  0  0  0  0  0
  160.6620  208.4640  155.8350 C   0  0  0  0  0  2  0  0  0  0  0  0
  161.9280  206.4310  151.1710 C   0  0  0  0  0  0  0  0  0  0  0  0
  160.9840  208.1220  152.7880 C   0  0  2  0  0  3  0  0  0  0  0  0
  161.5330  209.4090  153.3250 C   0  0  2  0  0  3  0  0  0  0  0  0
  161.1130  205.6770  153.3170 N   0  0  0  0  0  2  0  0  0  0  0  0
  162.6630  208.9040  151.2620 C   0  0  0  0  0  2  0  0  0  0  0  0
  160.4020  210.1370  153.9970 C   0  0  0  0  0  0  0  0  0  0  0  0
  161.5700  205.4270  151.9800 C   0  0  0  0  0  3  0  0  0  0  0  0
  160.0770  211.8460  152.1790 C   0  0  0  0  0  3  0  0  0  0  0  0
  159.6250  211.2280  153.3540 C   0  0  0  0  0  0  0  0  0  0  0  0
  158.1190  213.2730  152.1350 C   0  0  0  0  0  0  0  0  0  0  0  0
  159.3310  212.8600  151.5760 C   0  0  0  0  0  3  0  0  0  0  0  0
  157.6400  212.6560  153.3030 C   0  0  0  0  0  0  0  0  0  0  0  0
  158.3980  211.6370  153.9020 C   0  0  0  0  0  3  0  0  0  0  0  0
  155.6460  212.2420  154.7140 C   0  0  0  0  0  1  0  0  0  0  0  0
  156.4180  213.0660  153.8510 O   0  0  0  0  0  0  0  0  0  0  0  0
  157.3370  214.3520  151.4640 C   0  0  0  0  0  2  0  0  0  0  0  0
  156.7580  213.8420  150.1540 C   0  0  0  0  0  2  0  0  0  0  0  0
  157.4970  214.4530  148.9770 C   0  0  0  0  0  2  0  0  0  0  0  0
  160.2580  212.3080  147.6050 O   0  0  0  0  0  1  0  0  0  0  0  0
  159.5660  213.4750  147.9300 C   0  0  0  0  0  0  0  0  0  0  0  0
  158.6800  214.0030  146.8340 C   0  0  0  0  0  2  0  0  0  0  0  0
  158.0610  213.3620  148.0790 C   0  0  2  0  0  3  0  0  0  0  0  0
  160.2540  214.4510  148.6560 O   0  0  0  0  0  1  0  0  0  0  0  0
  162.3390  206.1050  149.8330 N   0  0  0  0  0  2  0  0  0  0  0  0
  161.8800  206.6900  148.5730 C   0  0  1  0  0  3  0  0  0  0  0  0
  161.0250  205.7140  147.7510 C   0  0  1  0  0  3  0  0  0  0  0  0
  160.4060  206.3630  146.6820 O   0  0  0  0  0  1  0  0  0  0  0  0
  161.6600  203.2200  147.7950 N   0  0  0  0  0  2  0  0  0  0  0  0
  162.6280  204.7180  146.3110 O   0  0  0  0  0  0  0  0  0  0  0  0
  161.8100  204.5370  147.2490 C   0  0  0  0  0  0  0  0  0  0  0  0
  160.7840  202.8830  148.9100 C   0  0  0  0  0  2  0  0  0  0  0  0
  160.8580  201.4250  149.2120 C   0  0  0  0  0  0  0  0  0  0  0  0
  161.3380  200.5440  148.2520 O   0  0  0  0  0  0  0  0  0  0  0  0
  160.5180  200.9940  150.3440 O   0  0  0  0  0  1  0  0  0  0  0  0
  161.9680  209.0670  148.3020 O   0  0  0  0  0  1  0  0  0  0  0  0
  161.1970  208.0280  148.8250 C   0  0  0  0  0  2  0  0  0  0  0  0
  1  4  2  0  0  0  0
  3  8  1  0  0  0  0
  4  6  1  0  0  0  0
  5  6  1  0  0  0  0
  7  3  1  0  0  0  0
  7 13  2  0  0  0  0
  8  9  1  0  0  0  0
  8  1  1  1  0  0  0
  9  2  1  6  0  0  0
  9 12  1  0  0  0  0
 10  1  1  0  0  0  0
 11  3  1  0  0  0  0
 11  2  1  0  0  0  0
 12  5  2  0  0  0  0
 13 10  1  0  0  0  0
 14 15  1  0  0  0  0
 15 19  2  0  0  0  0
 15 12  1  0  0  0  0
 16 18  2  0  0  0  0
 17 16  1  0  0  0  0
 17 14  2  0  0  0  0
 18 21  1  0  0  0  0
 18 19  1  0  0  0  0
 21 20  1  0  0  0  0
 22 16  1  0  0  0  0
 23 22  1  0  0  0  0
 24 23  1  0  0  0  0
 25 26  1  0  0  0  0
 26 28  1  0  0  0  0
 26 29  1  0  0  0  0
 27 26  1  0  0  0  0
 27 28  1  0  0  0  0
 28 24  1  1  0  0  0
 30  7  1  0  0  0  0
 31 42  1  1  0  0  0
 31 30  1  0  0  0  0
 32 33  1  6  0  0  0
 32 31  1  0  0  0  0
 34 37  1  0  0  0  0
 35 36  2  0  0  0  0
 36 32  1  0  0  0  0
 36 34  1  0  0  0  0
 37 38  1  0  0  0  0
 38 40  1  0  0  0  0
 39 38  2  0  0  0  0
 41 42  1  0  0  0  0
M  END
>  <MODEL>
3

>  <REMARK>
 VINA RESULT:      -6.5      1.600      2.610
  Name = 
  13 active torsions:
  status: ('A' for Active; 'I' for Inactive)
    1  A    between atoms: N_3  and  C_7
    2  A    between atoms: C_4  and  C_19
    3  A    between atoms: C_4  and  C_33
    4  A    between atoms: C_7  and  C_11
    5  A    between atoms: CA_12  and  C_15
    6  A    between atoms: CA_12  and  C_20
    7  A    between atoms: CA_12  and  N_22
    8  A    between atoms: C_15  and  C_31
    9  A    between atoms: C_16  and  N_22
   10  A    between atoms: C_17  and  C_39
   11  A    between atoms: C_27  and  O_38
   12  A    between atoms: C_28  and  C_33
   13  A    between atoms: C_28  and  C_36
                            x       y       z     vdW  Elec       q    Type
                         _______ _______ _______ _____ _____    ______ ____

>  <TORSDO>
F 13

$$$$
=
 OpenBabel11072411223D

 42 46  0  0  1  0  0  0  0  0999 V2000
  161.1360  207.0100  153.8210 C   0  0  0  0  0  0  0  0  0  0  0  0
  162.0360  210.4920  152.9400 C   0  0  0  0  0  2  0  0  0  0  0  0
  161.9420  208.3400  151.9340 N   0  0  0  0  0  0  0  0  0  0  0  0
  160.8140  206.8820  155.0810 N   0  0  0  0  0  0  0  0  0  0  0  0
  159.7400  209.0950  155.6170 C   0  0  0  0  0  3  0  0  0  0  0  0
  160.5720  207.9310  156.0890 C   0  0  0  0  0  2  0  0  0  0  0  0
  162.2570  207.1480  151.1860 C   0  0  0  0  0  0  0  0  0  0  0  0
  161.0350  208.3070  153.0640 C   0  0  2  0  0  3  0  0  0  0  0  0
  161.3810  209.5050  153.8950 C   0  0  2  0  0  3  0  0  0  0  0  0
  161.4880  205.8440  153.0690 N   0  0  0  0  0  2  0  0  0  0  0  0
  162.6360  209.6150  151.8450 C   0  0  0  0  0  2  0  0  0  0  0  0
  160.1390  209.9160  154.6350 C   0  0  0  0  0  0  0  0  0  0  0  0
  162.0180  205.9530  151.7400 C   0  0  0  0  0  3  0  0  0  0  0  0
  157.9040  211.0720  154.6190 C   0  0  0  0  0  3  0  0  0  0  0  0
  159.2380  211.0110  154.1920 C   0  0  0  0  0  0  0  0  0  0  0  0
  157.5570  213.1150  153.3630 C   0  0  0  0  0  0  0  0  0  0  0  0
  157.0710  212.1140  154.2080 C   0  0  0  0  0  3  0  0  0  0  0  0
  158.8950  213.0820  152.9350 C   0  0  0  0  0  0  0  0  0  0  0  0
  159.7240  212.0290  153.3550 C   0  0  0  0  0  3  0  0  0  0  0  0
  160.1430  213.8290  150.9300 C   0  0  0  0  0  1  0  0  0  0  0  0
  159.3800  214.0940  152.0990 O   0  0  0  0  0  0  0  0  0  0  0  0
  156.6480  214.2220  152.9460 C   0  0  0  0  0  2  0  0  0  0  0  0
  155.8140  213.7920  151.7500 C   0  0  0  0  0  2  0  0  0  0  0  0
  156.3310  214.4530  150.4830 C   0  0  0  0  0  2  0  0  0  0  0  0
  157.3130  212.4940  147.4330 O   0  0  0  0  0  1  0  0  0  0  0  0
  157.1910  213.5970  148.2790 C   0  0  0  0  0  0  0  0  0  0  0  0
  155.9810  214.4530  148.0200 C   0  0  0  0  0  2  0  0  0  0  0  0
  156.0460  213.5760  149.2730 C   0  0  2  0  0  3  0  0  0  0  0  0
  158.3570  214.3000  148.5920 O   0  0  0  0  0  1  0  0  0  0  0  0
  162.7510  207.1780  149.8370 N   0  0  0  0  0  2  0  0  0  0  0  0
  162.0200  206.9270  148.5950 C   0  0  1  0  0  3  0  0  0  0  0  0
  160.8540  205.9460  148.7900 C   0  0  1  0  0  3  0  0  0  0  0  0
  159.8010  206.2350  147.9210 O   0  0  0  0  0  1  0  0  0  0  0  0
  162.0530  204.0550  147.5190 N   0  0  0  0  0  2  0  0  0  0  0  0
  160.9190  203.6840  149.5090 O   0  0  0  0  0  0  0  0  0  0  0  0
  161.2710  204.5120  148.6300 C   0  0  0  0  0  0  0  0  0  0  0  0
  162.4860  204.8980  146.4120 C   0  0  0  0  0  2  0  0  0  0  0  0
  161.5470  204.7730  145.2600 C   0  0  0  0  0  0  0  0  0  0  0  0
  161.2390  205.8900  144.4950 O   0  0  0  0  0  0  0  0  0  0  0  0
  161.0590  203.6520  144.9580 O   0  0  0  0  0  1  0  0  0  0  0  0
  162.1520  209.3170  148.6470 O   0  0  0  0  0  1  0  0  0  0  0  0
  161.6000  208.2420  147.9490 C   0  0  0  0  0  2  0  0  0  0  0  0
  1  4  2  0  0  0  0
  3  8  1  0  0  0  0
  4  6  1  0  0  0  0
  5  6  1  0  0  0  0
  7 13  2  0  0  0  0
  7  3  1  0  0  0  0
  8  1  1  1  0  0  0
  8  9  1  0  0  0  0
  9  2  1  6  0  0  0
  9 12  1  0  0  0  0
 10  1  1  0  0  0  0
 11  3  1  0  0  0  0
 11  2  1  0  0  0  0
 12  5  2  0  0  0  0
 13 10  1  0  0  0  0
 15 14  2  0  0  0  0
 15 12  1  0  0  0  0
 16 17  2  0  0  0  0
 17 14  1  0  0  0  0
 18 19  2  0  0  0  0
 18 16  1  0  0  0  0
 19 15  1  0  0  0  0
 20 21  1  0  0  0  0
 21 18  1  0  0  0  0
 22 16  1  0  0  0  0
 23 22  1  0  0  0  0
 24 23  1  0  0  0  0
 25 26  1  0  0  0  0
 26 29  1  0  0  0  0
 26 28  1  0  0  0  0
 27 26  1  0  0  0  0
 27 28  1  0  0  0  0
 28 24  1  1  0  0  0
 30  7  1  0  0  0  0
 31 42  1  1  0  0  0
 31 32  1  0  0  0  0
 31 30  1  0  0  0  0
 32 33  1  6  0  0  0
 34 36  1  0  0  0  0
 36 32  1  0  0  0  0
 36 35  2  0  0  0  0
 37 34  1  0  0  0  0
 38 37  1  0  0  0  0
 39 38  2  0  0  0  0
 40 38  1  0  0  0  0
 42 41  1  0  0  0  0
M  END
>  <MODEL>
4

>  <REMARK>
 VINA RESULT:      -6.2      1.540      2.767
  Name = 
  13 active torsions:
  status: ('A' for Active; 'I' for Inactive)
    1  A    between atoms: N_3  and  C_7
    2  A    between atoms: C_4  and  C_19
    3  A    between atoms: C_4  and  C_33
    4  A    between atoms: C_7  and  C_11
    5  A    between atoms: CA_12  and  C_15
    6  A    between atoms: CA_12  and  C_20
    7  A    between atoms: CA_12  and  N_22
    8  A    between atoms: C_15  and  C_31
    9  A    between atoms: C_16  and  N_22
   10  A    between atoms: C_17  and  C_39
   11  A    between atoms: C_27  and  O_38
   12  A    between atoms: C_28  and  C_33
   13  A    between atoms: C_28  and  C_36
                            x       y       z     vdW  Elec       q    Type
                         _______ _______ _______ _____ _____    ______ ____

>  <TORSDO>
F 13

$$$$
=
 OpenBabel11072411223D

 42 46  0  0  1  0  0  0  0  0999 V2000
  161.2730  207.9750  154.4750 C   0  0  0  0  0  0  0  0  0  0  0  0
  161.5470  209.8340  151.2840 C   0  0  0  0  0  2  0  0  0  0  0  0
  160.9360  207.6760  152.0710 N   0  0  0  0  0  0  0  0  0  0  0  0
  161.6780  208.6800  155.4980 N   0  0  0  0  0  0  0  0  0  0  0  0
  161.0500  211.0300  154.8480 C   0  0  0  0  0  3  0  0  0  0  0  0
  162.0100  210.1150  155.5640 C   0  0  0  0  0  2  0  0  0  0  0  0
  160.8060  206.2490  152.2340 C   0  0  0  0  0  0  0  0  0  0  0  0
  160.7770  208.5830  153.1900 C   0  0  2  0  0  3  0  0  0  0  0  0
  161.5100  209.8320  152.8040 C   0  0  2  0  0  3  0  0  0  0  0  0
  161.1710  206.5530  154.6030 N   0  0  0  0  0  2  0  0  0  0  0  0
  161.4690  208.3580  150.9030 C   0  0  0  0  0  2  0  0  0  0  0  0
  160.8570  210.9800  153.5230 C   0  0  0  0  0  0  0  0  0  0  0  0
  160.9050  205.7250  153.4620 C   0  0  0  0  0  3  0  0  0  0  0  0
  160.1190  212.5320  151.6860 C   0  0  0  0  0  3  0  0  0  0  0  0
  159.8550  211.8820  152.8990 C   0  0  0  0  0  0  0  0  0  0  0  0
  157.9260  213.5620  151.7190 C   0  0  0  0  0  0  0  0  0  0  0  0
  159.1640  213.3660  151.1010 C   0  0  0  0  0  3  0  0  0  0  0  0
  157.6340  212.9080  152.9270 C   0  0  0  0  0  0  0  0  0  0  0  0
  158.6030  212.0720  153.5060 C   0  0  0  0  0  3  0  0  0  0  0  0
  156.1440  212.8040  154.9040 C   0  0  0  0  0  1  0  0  0  0  0  0
  156.3870  213.0990  153.5350 O   0  0  0  0  0  0  0  0  0  0  0  0
  156.9200  214.4500  151.0680 C   0  0  0  0  0  2  0  0  0  0  0  0
  156.0470  213.6450  150.1180 C   0  0  0  0  0  2  0  0  0  0  0  0
  156.8530  213.2010  148.9100 C   0  0  0  0  0  2  0  0  0  0  0  0
  156.3620  214.2440  145.3360 O   0  0  0  0  0  1  0  0  0  0  0  0
  156.9390  213.5910  146.4260 C   0  0  0  0  0  0  0  0  0  0  0  0
  158.0820  214.3320  147.0650 C   0  0  0  0  0  2  0  0  0  0  0  0
  156.7380  214.2240  147.7890 C   0  0  2  0  0  3  0  0  0  0  0  0
  157.1090  212.2080  146.3310 O   0  0  0  0  0  1  0  0  0  0  0  0
  160.4990  205.3610  151.1460 N   0  0  0  0  0  2  0  0  0  0  0  0
  161.3630  204.9460  150.0410 C   0  0  1  0  0  3  0  0  0  0  0  0
  161.6910  203.4460  150.0850 C   0  0  1  0  0  3  0  0  0  0  0  0
  161.8380  203.0010  151.4000 O   0  0  0  0  0  1  0  0  0  0  0  0
  160.7400  202.3290  147.9700 N   0  0  0  0  0  2  0  0  0  0  0  0
  159.7140  202.1310  150.0410 O   0  0  0  0  0  0  0  0  0  0  0  0
  160.6680  202.6080  149.3740 C   0  0  0  0  0  0  0  0  0  0  0  0
  161.7630  202.8550  147.0750 C   0  0  0  0  0  2  0  0  0  0  0  0
  161.2030  203.0760  145.7110 C   0  0  0  0  0  0  0  0  0  0  0  0
  161.4700  204.2610  145.0380 O   0  0  0  0  0  0  0  0  0  0  0  0
  160.5170  202.1790  145.1540 O   0  0  0  0  0  1  0  0  0  0  0  0
  161.5660  206.4050  148.1540 O   0  0  0  0  0  1  0  0  0  0  0  0
  160.7770  205.3960  148.7090 C   0  0  0  0  0  2  0  0  0  0  0  0
  1 10  1  0  0  0  0
  1  4  2  0  0  0  0
  3  7  1  0  0  0  0
  3  8  1  0  0  0  0
  4  6  1  0  0  0  0
  5  6  1  0  0  0  0
  7 13  2  0  0  0  0
  8  1  1  1  0  0  0
  9  2  1  6  0  0  0
  9  8  1  0  0  0  0
  9 12  1  0  0  0  0
 11  2  1  0  0  0  0
 11  3  1  0  0  0  0
 12  5  2  0  0  0  0
 13 10  1  0  0  0  0
 14 15  1  0  0  0  0
 15 19  2  0  0  0  0
 15 12  1  0  0  0  0
 16 18  2  0  0  0  0
 17 14  2  0  0  0  0
 17 16  1  0  0  0  0
 18 19  1  0  0  0  0
 18 21  1  0  0  0  0
 21 20  1  0  0  0  0
 22 16  1  0  0  0  0
 23 22  1  0  0  0  0
 24 23  1  0  0  0  0
 25 26  1  0  0  0  0
 26 27  1  0  0  0  0
 26 28  1  0  0  0  0
 27 28  1  0  0  0  0
 28 24  1  1  0  0  0
 29 26  1  0  0  0  0
 30  7  1  0  0  0  0
 31 42  1  6  0  0  0
 31 32  1  0  0  0  0
 31 30  1  0  0  0  0
 32 33  1  1  0  0  0
 34 36  1  0  0  0  0
 36 35  2  0  0  0  0
 36 32  1  0  0  0  0
 37 34  1  0  0  0  0
 38 37  1  0  0  0  0
 39 38  2  0  0  0  0
 40 38  1  0  0  0  0
 41 42  1  0  0  0  0
M  END
>  <MODEL>
5

>  <REMARK>
 VINA RESULT:      -6.1      1.455      2.107
  Name = 
  13 active torsions:
  status: ('A' for Active; 'I' for Inactive)
    1  A    between atoms: N_3  and  C_7
    2  A    between atoms: C_4  and  C_19
    3  A    between atoms: C_4  and  C_33
    4  A    between atoms: C_7  and  C_11
    5  A    between atoms: CA_12  and  C_15
    6  A    between atoms: CA_12  and  C_20
    7  A    between atoms: CA_12  and  N_22
    8  A    between atoms: C_15  and  C_31
    9  A    between atoms: C_16  and  N_22
   10  A    between atoms: C_17  and  C_39
   11  A    between atoms: C_27  and  O_38
   12  A    between atoms: C_28  and  C_33
   13  A    between atoms: C_28  and  C_36
                            x       y       z     vdW  Elec       q    Type
                         _______ _______ _______ _____ _____    ______ ____

>  <TORSDO>
F 13

$$$$
=
 OpenBabel11072411223D

 42 46  0  0  1  0  0  0  0  0999 V2000
  161.0840  205.8370  151.8830 C   0  0  0  0  0  0  0  0  0  0  0  0
  162.0670  209.0860  150.4030 C   0  0  0  0  0  2  0  0  0  0  0  0
  161.0950  207.0190  149.7430 N   0  0  0  0  0  0  0  0  0  0  0  0
  161.4020  205.7500  153.1480 N   0  0  0  0  0  0  0  0  0  0  0  0
  161.1590  208.1210  153.9570 C   0  0  0  0  0  3  0  0  0  0  0  0
  161.8830  206.8030  154.0600 C   0  0  0  0  0  2  0  0  0  0  0  0
  160.7770  205.8040  149.0330 C   0  0  0  0  0  0  0  0  0  0  0  0
  160.8680  207.1440  151.1690 C   0  0  2  0  0  3  0  0  0  0  0  0
  161.7930  208.2300  151.6300 C   0  0  2  0  0  3  0  0  0  0  0  0
  160.7990  204.6410  151.1510 N   0  0  0  0  0  2  0  0  0  0  0  0
  161.8800  208.1300  149.2280 C   0  0  0  0  0  2  0  0  0  0  0  0
  161.1720  208.8670  152.8430 C   0  0  0  0  0  0  0  0  0  0  0  0
  160.6210  204.6710  149.7270 C   0  0  0  0  0  3  0  0  0  0  0  0
  160.7850  211.2020  151.9920 C   0  0  0  0  0  3  0  0  0  0  0  0
  160.3900  210.1300  152.8040 C   0  0  0  0  0  0  0  0  0  0  0  0
  158.8750  212.5030  152.7230 C   0  0  0  0  0  0  0  0  0  0  0  0
  160.0340  212.3790  151.9530 C   0  0  0  0  0  3  0  0  0  0  0  0
  158.4540  211.4350  153.5320 C   0  0  0  0  0  0  0  0  0  0  0  0
  159.2160  210.2560  153.5640 C   0  0  0  0  0  3  0  0  0  0  0  0
  157.2770  211.4950  155.7120 C   0  0  0  0  0  1  0  0  0  0  0  0
  157.2840  211.5600  154.2920 O   0  0  0  0  0  0  0  0  0  0  0  0
  158.0870  213.7680  152.6540 C   0  0  0  0  0  2  0  0  0  0  0  0
  157.1130  213.7150  151.4890 C   0  0  0  0  0  2  0  0  0  0  0  0
  157.7900  214.1890  150.2140 C   0  0  0  0  0  2  0  0  0  0  0  0
  158.3320  212.5090  146.8990 O   0  0  0  0  0  1  0  0  0  0  0  0
  158.2520  213.5500  147.8250 C   0  0  0  0  0  0  0  0  0  0  0  0
  156.9100  214.2290  147.8870 C   0  0  0  0  0  2  0  0  0  0  0  0
  157.3660  213.3250  149.0350 C   0  0  2  0  0  3  0  0  0  0  0  0
  159.3520  214.4050  147.9300 O   0  0  0  0  0  1  0  0  0  0  0  0
  160.5440  205.7640  147.6160 N   0  0  0  0  0  2  0  0  0  0  0  0
  161.5030  205.9750  146.5300 C   0  0  1  0  0  3  0  0  0  0  0  0
  162.2880  204.7000  146.1870 C   0  0  1  0  0  3  0  0  0  0  0  0
  163.1420  204.3370  147.2290 O   0  0  0  0  0  1  0  0  0  0  0  0
  161.0400  202.5270  146.7770 N   0  0  0  0  0  2  0  0  0  0  0  0
  160.9370  203.4780  144.6640 O   0  0  0  0  0  0  0  0  0  0  0  0
  161.3930  203.5460  145.8340 C   0  0  0  0  0  0  0  0  0  0  0  0
  161.5340  202.4620  148.1460 C   0  0  0  0  0  2  0  0  0  0  0  0
  161.2870  201.1120  148.7290 C   0  0  0  0  0  0  0  0  0  0  0  0
  160.7510  200.9970  150.0050 O   0  0  0  0  0  1  0  0  0  0  0  0
  161.5320  200.0770  148.0570 O   0  0  0  0  0  0  0  0  0  0  0  0
  159.4780  206.2030  145.2740 O   0  0  0  0  0  1  0  0  0  0  0  0
  160.8140  206.6030  145.3260 C   0  0  0  0  0  2  0  0  0  0  0  0
  1  4  2  0  0  0  0
  3  8  1  0  0  0  0
  4  6  1  0  0  0  0
  5  6  1  0  0  0  0
  7 13  2  0  0  0  0
  7  3  1  0  0  0  0
  8  9  1  0  0  0  0
  8  1  1  1  0  0  0
  9  2  1  6  0  0  0
  9 12  1  0  0  0  0
 10  1  1  0  0  0  0
 11  3  1  0  0  0  0
 11  2  1  0  0  0  0
 12  5  2  0  0  0  0
 13 10  1  0  0  0  0
 14 15  1  0  0  0  0
 15 12  1  0  0  0  0
 15 19  2  0  0  0  0
 16 18  2  0  0  0  0
 17 14  2  0  0  0  0
 17 16  1  0  0  0  0
 18 19  1  0  0  0  0
 18 21  1  0  0  0  0
 21 20  1  0  0  0  0
 22 16  1  0  0  0  0
 23 22  1  0  0  0  0
 24 23  1  0  0  0  0
 25 26  1  0  0  0  0
 26 27  1  0  0  0  0
 26 29  1  0  0  0  0
 26 28  1  0  0  0  0
 27 28  1  0  0  0  0
 28 24  1  1  0  0  0
 30  7  1  0  0  0  0
 31 42  1  6  0  0  0
 31 30  1  0  0  0  0
 32 31  1  0  0  0  0
 32 33  1  1  0  0  0
 34 37  1  0  0  0  0
 35 36  2  0  0  0  0
 36 32  1  0  0  0  0
 36 34  1  0  0  0  0
 37 38  1  0  0  0  0
 38 39  1  0  0  0  0
 40 38  2  0  0  0  0
 41 42  1  0  0  0  0
M  END
>  <MODEL>
6

>  <REMARK>
 VINA RESULT:      -6.0      1.857      3.612
  Name = 
  13 active torsions:
  status: ('A' for Active; 'I' for Inactive)
    1  A    between atoms: N_3  and  C_7
    2  A    between atoms: C_4  and  C_19
    3  A    between atoms: C_4  and  C_33
    4  A    between atoms: C_7  and  C_11
    5  A    between atoms: CA_12  and  C_15
    6  A    between atoms: CA_12  and  C_20
    7  A    between atoms: CA_12  and  N_22
    8  A    between atoms: C_15  and  C_31
    9  A    between atoms: C_16  and  N_22
   10  A    between atoms: C_17  and  C_39
   11  A    between atoms: C_27  and  O_38
   12  A    between atoms: C_28  and  C_33
   13  A    between atoms: C_28  and  C_36
                            x       y       z     vdW  Elec       q    Type
                         _______ _______ _______ _____ _____    ______ ____

>  <TORSDO>
F 13

$$$$
=
 OpenBabel11072411223D

 42 46  0  0  1  0  0  0  0  0999 V2000
  160.9690  206.5590  153.3200 C   0  0  0  0  0  0  0  0  0  0  0  0
  161.9220  209.7120  151.6300 C   0  0  0  0  0  2  0  0  0  0  0  0
  161.0250  207.5760  151.0980 N   0  0  0  0  0  0  0  0  0  0  0  0
  161.2460  206.5750  154.5980 N   0  0  0  0  0  0  0  0  0  0  0  0
  160.9170  208.9940  155.2160 C   0  0  0  0  0  3  0  0  0  0  0  0
  161.6690  207.7070  155.4420 C   0  0  0  0  0  2  0  0  0  0  0  0
  160.7610  206.3030  150.4730 C   0  0  0  0  0  0  0  0  0  0  0  0
  160.7460  207.8020  152.5020 C   0  0  2  0  0  3  0  0  0  0  0  0
  161.6270  208.9440  152.9090 C   0  0  2  0  0  3  0  0  0  0  0  0
  160.7400  205.3030  152.6720 N   0  0  0  0  0  2  0  0  0  0  0  0
  161.7990  208.6660  150.5250 C   0  0  0  0  0  2  0  0  0  0  0  0
  160.9500  209.6530  154.0490 C   0  0  0  0  0  0  0  0  0  0  0  0
  160.6100  205.2210  151.2450 C   0  0  0  0  0  3  0  0  0  0  0  0
  159.3470  211.0940  152.7510 C   0  0  0  0  0  3  0  0  0  0  0  0
  160.1390  210.8880  153.8890 C   0  0  0  0  0  0  0  0  0  0  0  0
  158.5860  213.2230  153.6220 C   0  0  0  0  0  0  0  0  0  0  0  0
  158.5780  212.2510  152.6180 C   0  0  0  0  0  3  0  0  0  0  0  0
  159.3610  213.0300  154.7780 C   0  0  0  0  0  0  0  0  0  0  0  0
  160.1300  211.8610  154.9010 C   0  0  0  0  0  3  0  0  0  0  0  0
  160.0990  213.8670  156.9900 C   0  0  0  0  0  1  0  0  0  0  0  0
  159.3550  214.0010  155.7870 O   0  0  0  0  0  0  0  0  0  0  0  0
  157.7470  214.4460  153.4590 C   0  0  0  0  0  2  0  0  0  0  0  0
  156.2770  214.0990  153.6280 C   0  0  0  0  0  2  0  0  0  0  0  0
  156.0270  213.5220  155.0100 C   0  0  0  0  0  2  0  0  0  0  0  0
  154.5720  210.2480  156.1330 O   0  0  0  0  0  1  0  0  0  0  0  0
  155.2750  211.4500  156.2220 C   0  0  0  0  0  0  0  0  0  0  0  0
  156.7500  211.3340  155.9480 C   0  0  0  0  0  2  0  0  0  0  0  0
  155.8320  212.0150  154.9300 C   0  0  2  0  0  3  0  0  0  0  0  0
  154.9330  212.3200  157.2600 O   0  0  0  0  0  1  0  0  0  0  0  0
  160.5780  206.1500  149.0550 N   0  0  0  0  0  2  0  0  0  0  0  0
  161.5020  205.5750  148.0760 C   0  0  1  0  0  3  0  0  0  0  0  0
  160.8210  205.2860  146.7300 C   0  0  1  0  0  3  0  0  0  0  0  0
  160.7950  206.4240  145.9230 O   0  0  0  0  0  1  0  0  0  0  0  0
  161.6490  202.8530  146.5730 N   0  0  0  0  0  2  0  0  0  0  0  0
  161.8510  204.3450  144.8080 O   0  0  0  0  0  0  0  0  0  0  0  0
  161.4640  204.1490  145.9890 C   0  0  0  0  0  0  0  0  0  0  0  0
  161.2890  202.5050  147.9420 C   0  0  0  0  0  2  0  0  0  0  0  0
  161.1370  201.0290  148.0850 C   0  0  0  0  0  0  0  0  0  0  0  0
  161.5320  200.1900  147.0510 O   0  0  0  0  0  0  0  0  0  0  0  0
  160.6840  200.5380  149.1520 O   0  0  0  0  0  1  0  0  0  0  0  0
  162.3900  207.7790  147.7850 O   0  0  0  0  0  1  0  0  0  0  0  0
  162.7490  206.4400  147.9490 C   0  0  0  0  0  2  0  0  0  0  0  0
  1  4  2  0  0  0  0
  3  8  1  0  0  0  0
  4  6  1  0  0  0  0
  5  6  1  0  0  0  0
  7  3  1  0  0  0  0
  7 13  2  0  0  0  0
  8  9  1  0  0  0  0
  8  1  1  1  0  0  0
  9  2  1  6  0  0  0
  9 12  1  0  0  0  0
 10  1  1  0  0  0  0
 11  3  1  0  0  0  0
 11  2  1  0  0  0  0
 12  5  2  0  0  0  0
 13 10  1  0  0  0  0
 14 15  1  0  0  0  0
 15 12  1  0  0  0  0
 15 19  2  0  0  0  0
 16 18  2  0  0  0  0
 17 14  2  0  0  0  0
 17 16  1  0  0  0  0
 18 19  1  0  0  0  0
 18 21  1  0  0  0  0
 21 20  1  0  0  0  0
 22 16  1  0  0  0  0
 22 23  1  0  0  0  0
 23 24  1  0  0  0  0
 25 26  1  0  0  0  0
 26 29  1  0  0  0  0
 27 26  1  0  0  0  0
 28 24  1  1  0  0  0
 28 27  1  0  0  0  0
 28 26  1  0  0  0  0
 30  7  1  0  0  0  0
 31 42  1  6  0  0  0
 31 30  1  0  0  0  0
 32 33  1  6  0  0  0
 32 31  1  0  0  0  0
 34 37  1  0  0  0  0
 35 36  2  0  0  0  0
 36 34  1  0  0  0  0
 36 32  1  0  0  0  0
 37 38  1  0  0  0  0
 38 40  1  0  0  0  0
 39 38  2  0  0  0  0
 41 42  1  0  0  0  0
M  END
>  <MODEL>
7

>  <REMARK>
 VINA RESULT:      -5.9      2.904      4.834
  Name = 
  13 active torsions:
  status: ('A' for Active; 'I' for Inactive)
    1  A    between atoms: N_3  and  C_7
    2  A    between atoms: C_4  and  C_19
    3  A    between atoms: C_4  and  C_33
    4  A    between atoms: C_7  and  C_11
    5  A    between atoms: CA_12  and  C_15
    6  A    between atoms: CA_12  and  C_20
    7  A    between atoms: CA_12  and  N_22
    8  A    between atoms: C_15  and  C_31
    9  A    between atoms: C_16  and  N_22
   10  A    between atoms: C_17  and  C_39
   11  A    between atoms: C_27  and  O_38
   12  A    between atoms: C_28  and  C_33
   13  A    between atoms: C_28  and  C_36
                            x       y       z     vdW  Elec       q    Type
                         _______ _______ _______ _____ _____    ______ ____

>  <TORSDO>
F 13

$$$$
=
 OpenBabel11072411223D

 42 46  0  0  1  0  0  0  0  0999 V2000
  160.4980  212.8830  150.1190 C   0  0  0  0  0  0  0  0  0  0  0  0
  162.1340  210.1870  152.0610 C   0  0  0  0  0  2  0  0  0  0  0  0
  160.2620  211.6440  152.2140 N   0  0  1  0  0  0  0  0  0  0  0  0
  161.1590  213.1850  149.0320 N   0  0  0  0  0  0  0  0  0  0  0  0
  162.1630  210.9780  148.3510 C   0  0  0  0  0  3  0  0  0  0  0  0
  162.2930  212.4790  148.4080 C   0  0  0  0  0  2  0  0  0  0  0  0
  159.2700  212.5770  152.6910 C   0  0  1  0  0  3  0  0  0  0  0  0
  160.5940  211.5480  150.8070 C   0  0  2  0  0  3  0  0  0  0  0  0
  161.9700  210.9540  150.7570 C   0  0  2  0  0  3  0  0  0  0  0  0
  159.5350  213.8100  150.6300 N   0  0  0  0  0  0  0  0  0  0  0  0
  161.2010  210.9000  153.0360 C   0  0  0  0  0  2  0  0  0  0  0  0
  162.0980  210.2180  149.4520 C   0  0  0  0  0  0  0  0  0  0  0  0
  158.9190  213.6050  151.9100 C   0  0  0  0  0  3  0  0  0  0  0  0
  162.3090  208.0780  148.1450 C   0  0  0  0  0  3  0  0  0  0  0  0
  161.9190  208.7490  149.3120 C   0  0  0  0  0  0  0  0  0  0  0  0
  161.5980  205.9600  149.0820 C   0  0  0  0  0  0  0  0  0  0  0  0
  162.1490  206.6960  148.0300 C   0  0  0  0  0  3  0  0  0  0  0  0
  161.2140  206.6100  150.2670 C   0  0  0  0  0  0  0  0  0  0  0  0
  161.3800  208.0010  150.3710 C   0  0  0  0  0  3  0  0  0  0  0  0
  161.3950  205.5830  152.5140 C   0  0  0  0  0  1  0  0  0  0  0  0
  160.6740  205.8650  151.3230 O   0  0  0  0  0  0  0  0  0  0  0  0
  161.4470  204.4830  148.9370 C   0  0  0  0  0  2  0  0  0  0  0  0
  162.0300  204.0250  147.6100 C   0  0  0  0  0  2  0  0  0  0  0  0
  160.9460  203.4110  146.7420 C   0  0  0  0  0  2  0  0  0  0  0  0
  161.4530  205.5100  143.6700 O   0  0  0  0  0  1  0  0  0  0  0  0
  160.7960  204.9790  144.7800 C   0  0  0  0  0  0  0  0  0  0  0  0
  159.9540  203.7660  144.4880 C   0  0  0  0  0  2  0  0  0  0  0  0
  161.2630  203.6210  145.2680 C   0  0  2  0  0  3  0  0  0  0  0  0
  160.2390  205.8800  145.6910 O   0  0  0  0  0  1  0  0  0  0  0  0
  158.5800  212.4150  153.9420 N   0  0  0  0  0  2  0  0  0  0  0  0
  157.8910  213.4310  154.7370 C   0  0  1  0  0  3  0  0  0  0  0  0
  157.0010  212.8160  155.8280 C   0  0  1  0  0  3  0  0  0  0  0  0
  155.7280  213.3860  155.8220 O   0  0  0  0  0  1  0  0  0  0  0  0
  157.8220  210.4310  156.3420 N   0  0  0  0  0  2  0  0  0  0  0  0
  155.9470  210.8400  155.0400 O   0  0  0  0  0  0  0  0  0  0  0  0
  156.8930  211.3220  155.7130 C   0  0  0  0  0  0  0  0  0  0  0  0
  158.9850  210.8570  157.1100 C   0  0  0  0  0  2  0  0  0  0  0  0
  160.2110  210.1490  156.6400 C   0  0  0  0  0  0  0  0  0  0  0  0
  160.0970  208.9310  155.9830 O   0  0  0  0  0  0  0  0  0  0  0  0
  161.3460  210.6680  156.8070 O   0  0  0  0  0  1  0  0  0  0  0  0
  159.8290  213.8230  156.0850 O   0  0  0  0  0  1  0  0  0  0  0  0
  158.8850  214.4530  155.2740 C   0  0  0  0  0  2  0  0  0  0  0  0
  1 10  1  0  0  0  0
  2 11  1  0  0  0  0
  3  7  1  0  0  0  0
  3 11  1  1  0  0  0
  4  1  2  0  0  0  0
  5  6  1  0  0  0  0
  5 12  2  0  0  0  0
  6  4  1  0  0  0  0
  7 30  1  6  0  0  0
  8  1  1  1  0  0  0
  8  3  1  0  0  0  0
  9  8  1  0  0  0  0
  9  2  1  1  0  0  0
 10 13  2  0  0  0  0
 12  9  1  0  0  0  0
 13  7  1  0  0  0  0
 14 15  1  0  0  0  0
 15 12  1  0  0  0  0
 15 19  2  0  0  0  0
 16 18  2  0  0  0  0
 17 14  2  0  0  0  0
 17 16  1  0  0  0  0
 18 19  1  0  0  0  0
 18 21  1  0  0  0  0
 21 20  1  0  0  0  0
 22 16  1  0  0  0  0
 23 22  1  0  0  0  0
 24 23  1  0  0  0  0
 25 26  1  0  0  0  0
 26 28  1  0  0  0  0
 26 29  1  0  0  0  0
 27 26  1  0  0  0  0
 27 28  1  0  0  0  0
 28 24  1  1  0  0  0
 30 31  1  0  0  0  0
 31 42  1  1  0  0  0
 31 32  1  0  0  0  0
 32 33  1  6  0  0  0
 34 37  1  0  0  0  0
 35 36  2  0  0  0  0
 36 32  1  0  0  0  0
 36 34  1  0  0  0  0
 38 40  1  0  0  0  0
 38 37  1  0  0  0  0
 39 38  2  0  0  0  0
 42 41  1  0  0  0  0
M  END
>  <MODEL>
8

>  <REMARK>
 VINA RESULT:      -5.8      3.264      8.943
  Name = 
  13 active torsions:
  status: ('A' for Active; 'I' for Inactive)
    1  A    between atoms: N_3  and  C_7
    2  A    between atoms: C_4  and  C_19
    3  A    between atoms: C_4  and  C_33
    4  A    between atoms: C_7  and  C_11
    5  A    between atoms: CA_12  and  C_15
    6  A    between atoms: CA_12  and  C_20
    7  A    between atoms: CA_12  and  N_22
    8  A    between atoms: C_15  and  C_31
    9  A    between atoms: C_16  and  N_22
   10  A    between atoms: C_17  and  C_39
   11  A    between atoms: C_27  and  O_38
   12  A    between atoms: C_28  and  C_33
   13  A    between atoms: C_28  and  C_36
                            x       y       z     vdW  Elec       q    Type
                         _______ _______ _______ _____ _____    ______ ____

>  <TORSDO>
F 13

$$$$
=
 OpenBabel11072411223D

 42 46  0  0  1  0  0  0  0  0999 V2000
  161.0720  205.5700  151.7380 C   0  0  0  0  0  0  0  0  0  0  0  0
  162.1120  208.8430  150.3520 C   0  0  0  0  0  2  0  0  0  0  0  0
  161.0800  206.8240  149.6390 N   0  0  0  0  0  0  0  0  0  0  0  0
  161.4080  205.4320  152.9940 N   0  0  0  0  0  0  0  0  0  0  0  0
  161.2360  207.7810  153.8860 C   0  0  0  0  0  3  0  0  0  0  0  0
  161.9280  206.4430  153.9330 C   0  0  0  0  0  2  0  0  0  0  0  0
  160.7200  205.6420  148.8940 C   0  0  0  0  0  0  0  0  0  0  0  0
  160.8780  206.9060  151.0710 C   0  0  2  0  0  3  0  0  0  0  0  0
  161.8360  207.9530  151.5540 C   0  0  2  0  0  3  0  0  0  0  0  0
  160.7470  204.4070  150.9710 N   0  0  0  0  0  2  0  0  0  0  0  0
  161.8830  207.9320  149.1490 C   0  0  0  0  0  2  0  0  0  0  0  0
  161.2500  208.5630  152.7980 C   0  0  0  0  0  0  0  0  0  0  0  0
  160.5480  204.4890  149.5520 C   0  0  0  0  0  3  0  0  0  0  0  0
  159.4950  210.0860  153.7610 C   0  0  0  0  0  3  0  0  0  0  0  0
  160.4990  209.8450  152.8140 C   0  0  0  0  0  0  0  0  0  0  0  0
  159.1120  212.2960  152.8450 C   0  0  0  0  0  0  0  0  0  0  0  0
  158.8060  211.3010  153.7760 C   0  0  0  0  0  3  0  0  0  0  0  0
  160.1250  212.0810  151.8960 C   0  0  0  0  0  0  0  0  0  0  0  0
  160.8110  210.8560  151.8900 C   0  0  0  0  0  3  0  0  0  0  0  0
  160.4220  212.8750  149.5680 C   0  0  0  0  0  1  0  0  0  0  0  0
  160.4350  213.0880  150.9730 O   0  0  0  0  0  0  0  0  0  0  0  0
  158.3670  213.5880  152.8890 C   0  0  0  0  0  2  0  0  0  0  0  0
  158.5350  214.2430  154.2500 C   0  0  0  0  0  2  0  0  0  0  0  0
  157.1860  214.4010  154.9290 C   0  0  0  0  0  2  0  0  0  0  0  0
  155.7070  211.0220  155.6340 O   0  0  0  0  0  1  0  0  0  0  0  0
  155.7440  212.3680  155.2660 C   0  0  0  0  0  0  0  0  0  0  0  0
  155.4800  213.3310  156.3910 C   0  0  0  0  0  2  0  0  0  0  0  0
  156.8900  213.1970  155.8110 C   0  0  2  0  0  3  0  0  0  0  0  0
  155.1670  212.7160  154.0420 O   0  0  0  0  0  1  0  0  0  0  0  0
  160.4640  205.6550  147.4800 N   0  0  0  0  0  2  0  0  0  0  0  0
  161.4160  205.8490  146.3860 C   0  0  1  0  0  3  0  0  0  0  0  0
  162.1450  204.5500  146.0060 C   0  0  1  0  0  3  0  0  0  0  0  0
  163.0180  204.1480  147.0180 O   0  0  0  0  0  1  0  0  0  0  0  0
  160.9130  202.3650  146.5850 N   0  0  0  0  0  2  0  0  0  0  0  0
  160.6370  203.4380  144.5470 O   0  0  0  0  0  0  0  0  0  0  0  0
  161.2000  203.4320  145.6730 C   0  0  0  0  0  0  0  0  0  0  0  0
  161.5280  202.2140  147.8980 C   0  0  0  0  0  2  0  0  0  0  0  0
  161.3580  200.8200  148.3990 C   0  0  0  0  0  0  0  0  0  0  0  0
  160.9260  200.6010  149.7000 O   0  0  0  0  0  1  0  0  0  0  0  0
  161.5720  199.8410  147.6370 O   0  0  0  0  0  0  0  0  0  0  0  0
  159.3840  206.1900  145.1680 O   0  0  0  0  0  1  0  0  0  0  0  0
  160.7380  206.5280  145.2030 C   0  0  0  0  0  2  0  0  0  0  0  0
  1  4  2  0  0  0  0
  3  8  1  0  0  0  0
  4  6  1  0  0  0  0
  5  6  1  0  0  0  0
  7 13  2  0  0  0  0
  7  3  1  0  0  0  0
  8  9  1  0  0  0  0
  8  1  1  1  0  0  0
  9  2  1  6  0  0  0
  9 12  1  0  0  0  0
 10  1  1  0  0  0  0
 11  3  1  0  0  0  0
 11  2  1  0  0  0  0
 12 15  1  0  0  0  0
 12  5  2  0  0  0  0
 13 10  1  0  0  0  0
 14 17  1  0  0  0  0
 15 14  2  0  0  0  0
 16 22  1  0  0  0  0
 16 17  2  0  0  0  0
 18 16  1  0  0  0  0
 19 18  2  0  0  0  0
 19 15  1  0  0  0  0
 20 21  1  0  0  0  0
 21 18  1  0  0  0  0
 22 23  1  0  0  0  0
 23 24  1  0  0  0  0
 26 25  1  0  0  0  0
 26 28  1  0  0  0  0
 26 27  1  0  0  0  0
 28 24  1  6  0  0  0
 28 27  1  0  0  0  0
 29 26  1  0  0  0  0
 30  7  1  0  0  0  0
 31 42  1  6  0  0  0
 31 30  1  0  0  0  0
 32 31  1  0  0  0  0
 32 33  1  1  0  0  0
 34 37  1  0  0  0  0
 35 36  2  0  0  0  0
 36 32  1  0  0  0  0
 36 34  1  0  0  0  0
 37 38  1  0  0  0  0
 38 39  1  0  0  0  0
 40 38  2  0  0  0  0
 41 42  1  0  0  0  0
M  END
>  <MODEL>
9

>  <REMARK>
 VINA RESULT:      -5.7      2.432      5.240
  Name = 
  13 active torsions:
  status: ('A' for Active; 'I' for Inactive)
    1  A    between atoms: N_3  and  C_7
    2  A    between atoms: C_4  and  C_19
    3  A    between atoms: C_4  and  C_33
    4  A    between atoms: C_7  and  C_11
    5  A    between atoms: CA_12  and  C_15
    6  A    between atoms: CA_12  and  C_20
    7  A    between atoms: CA_12  and  N_22
    8  A    between atoms: C_15  and  C_31
    9  A    between atoms: C_16  and  N_22
   10  A    between atoms: C_17  and  C_39
   11  A    between atoms: C_27  and  O_38
   12  A    between atoms: C_28  and  C_33
   13  A    between atoms: C_28  and  C_36
                            x       y       z     vdW  Elec       q    Type
                         _______ _______ _______ _____ _____    ______ ____

>  <TORSDO>
F 13

$$$$
