=
 OpenBabel11072410183D

 33 38  0  0  1  0  0  0  0  0999 V2000
  160.3800  213.3110  144.9020 N   0  0  0  0  0  0  0  0  0  0  0  0
  159.1280  213.9990  147.3270 C   0  0  2  0  0  3  0  0  0  0  0  0
  157.7840  214.3960  151.4840 C   0  0  0  0  0  0  0  0  0  0  0  0
  157.2000  213.6750  152.6190 N   0  0  0  0  0  0  0  0  0  0  0  0
  160.9960  213.5850  149.4100 C   0  0  2  0  0  3  0  0  0  0  0  0
  158.8800  212.6290  146.6820 C   0  0  1  0  0  3  0  0  0  0  0  0
  155.4350  214.4100  150.6110 N   0  0  0  0  0  2  0  0  0  0  0  0
  157.2620  214.2860  149.0650 C   0  0  0  0  0  3  0  0  0  0  0  0
  160.6030  214.4490  147.1190 C   0  0  2  0  0  3  0  0  0  0  0  0
  162.3570  212.8020  146.2080 C   0  0  0  0  0  1  0  0  0  0  0  0
  157.4190  212.2200  146.7410 C   0  0  0  0  0  1  0  0  0  0  0  0
  155.0120  214.0550  151.7620 N   0  0  0  0  0  0  0  0  0  0  0  0
  159.5630  213.8670  149.7600 C   0  0  0  0  0  0  0  0  0  0  0  0
  155.9130  213.5710  152.7760 C   0  0  0  0  0  3  0  0  0  0  0  0
  161.3130  213.8560  145.8700 C   0  0  1  0  0  3  0  0  0  0  0  0
  161.4650  214.4530  148.3200 N   0  0  0  0  0  2  0  0  0  0  0  0
  156.8320  214.3770  150.3190 C   0  0  0  0  0  0  0  0  0  0  0  0
  158.6870  214.0800  148.7660 C   0  0  0  0  0  0  0  0  0  0  0  0
  159.2840  212.7240  145.2430 C   0  0  0  0  0  3  0  0  0  0  0  0
  159.1340  213.9070  151.1420 N   0  0  0  0  0  0  0  0  0  0  0  0
  161.3810  211.0410  148.8780 N   0  0  0  0  0  0  0  0  0  0  0  0
  161.2100  212.1610  149.1110 C   0  0  0  0  0  0  0  0  0  0  0  0
  160.1080  213.5560  152.1840 C   0  0  0  0  0  2  0  0  0  0  0  0
  159.6390  211.8760  154.0310 C   0  0  2  0  0  3  0  0  0  0  0  0
  159.7210  212.7590  155.2070 C   0  0  0  0  0  0  0  0  0  0  0  0
  160.3940  212.3110  156.2740 C   0  0  0  0  0  3  0  0  0  0  0  0
  159.7910  210.3990  154.2010 C   0  0  2  0  0  3  0  0  0  0  0  0
  159.8890  212.1900  152.7660 C   0  0  2  0  0  3  0  0  0  0  0  0
  160.8150  210.1010  155.2660 C   0  0  0  0  0  3  0  0  0  0  0  0
  160.2270  209.9530  152.8850 N   0  0  0  0  0  0  0  0  0  0  0  0
  160.2580  210.9620  152.0770 C   0  0  0  0  0  3  0  0  0  0  0  0
  158.9180  214.3130  155.2760 Cl  0  0  0  0  0  0  0  0  0  0  0  0
  161.0510  210.9780  156.2540 C   0  0  0  0  0  3  0  0  0  0  0  0
  1 19  2  0  0  0  0
  1 15  1  0  0  0  0
  2 18  1  1  0  0  0
  3  4  2  0  0  0  0
  4 14  1  0  0  0  0
  5 22  1  6  0  0  0
  5 13  1  0  0  0  0
  6 11  1  6  0  0  0
  6  2  1  0  0  0  0
  7 12  1  0  0  0  0
  8 17  2  0  0  0  0
  9  2  1  0  0  0  0
  9 16  1  1  0  0  0
 12 14  2  0  0  0  0
 13 20  1  0  0  0  0
 15 10  1  1  0  0  0
 15  9  1  0  0  0  0
 16  5  1  0  0  0  0
 17  7  1  0  0  0  0
 17  3  1  0  0  0  0
 18  8  1  0  0  0  0
 18 13  2  0  0  0  0
 19  6  1  0  0  0  0
 20  3  1  0  0  0  0
 20 23  1  0  0  0  0
 21 22  3  0  0  0  0
 24 27  1  0  0  0  0
 24 25  1  1  0  0  0
 25 32  1  0  0  0  0
 25 26  2  0  0  0  0
 27 29  1  1  0  0  0
 28 23  1  1  0  0  0
 28 24  1  0  0  0  0
 29 33  2  0  0  0  0
 30 27  1  0  0  0  0
 31 28  1  0  0  0  0
 31 30  2  0  0  0  0
 33 26  1  0  0  0  0
M  END
>  <MODEL>
1

>  <REMARK>
 VINA RESULT:      -4.3      0.000      0.000
  Name = 
  3 active torsions:
  status: ('A' for Active; 'I' for Inactive)
    1  A    between atoms: C_7  and  C_12
    2  A    between atoms: C_21  and  C_25
    3  A    between atoms: C_25  and  N_30
                            x       y       z     vdW  Elec       q    Type
                         _______ _______ _______ _____ _____    ______ ____

>  <TORSDO>
F 3

$$$$
=
 OpenBabel11072410183D

 33 38  0  0  1  0  0  0  0  0999 V2000
  160.9600  203.5220  148.8340 N   0  0  0  0  0  0  0  0  0  0  0  0
  160.6600  205.4360  150.8760 C   0  0  2  0  0  3  0  0  0  0  0  0
  160.9320  208.8700  153.5910 C   0  0  2  0  0  3  0  0  0  0  0  0
  161.8200  209.5980  154.5030 N   0  0  0  0  0  0  0  0  0  0  0  0
  161.4490  207.9420  149.8300 C   0  0  2  0  0  3  0  0  0  0  0  0
  161.9000  204.5320  150.8300 C   0  0  1  0  0  3  0  0  0  0  0  0
  160.7290  207.2480  155.4910 N   0  0  0  0  0  0  0  0  0  0  0  0
  160.6300  206.4370  153.2380 C   0  0  0  0  0  3  0  0  0  0  0  0
  160.2100  205.8310  149.4390 C   0  0  2  0  0  3  0  0  0  0  0  0
  161.7170  205.3330  147.4140 C   0  0  0  0  0  1  0  0  0  0  0  0
  162.2850  204.0120  152.2020 C   0  0  0  0  0  1  0  0  0  0  0  0
  161.2620  208.1070  156.2720 N   0  0  0  0  0  0  0  0  0  0  0  0
  161.2020  207.8130  151.3060 C   0  0  0  0  0  0  0  0  0  0  0  0
  161.9240  209.2780  155.7590 C   0  0  0  0  0  3  0  0  0  0  0  0
  160.6010  204.8280  148.3170 C   0  0  1  0  0  3  0  0  0  0  0  0
  160.4210  207.2400  149.0480 N   0  0  0  0  0  2  0  0  0  0  0  0
  160.7400  207.4600  154.0790 C   0  0  0  0  0  0  0  0  0  0  0  0
  160.8110  206.6240  151.7910 C   0  0  0  0  0  0  0  0  0  0  0  0
  161.5750  203.3590  149.9560 C   0  0  0  0  0  3  0  0  0  0  0  0
  161.3830  208.9460  152.1880 N   0  0  0  0  0  0  0  0  0  0  0  0
  163.8740  207.1670  149.1810 N   0  0  0  0  0  0  0  0  0  0  0  0
  162.8080  207.5100  149.4690 C   0  0  0  0  0  0  0  0  0  0  0  0
  161.9200  210.1900  151.6220 C   0  0  0  0  0  2  0  0  0  0  0  0
  160.6750  211.9280  150.2500 C   0  0  2  0  0  3  0  0  0  0  0  0
  161.5660  212.0170  149.0800 C   0  0  0  0  0  0  0  0  0  0  0  0
  161.8530  213.2360  148.6100 C   0  0  0  0  0  3  0  0  0  0  0  0
  159.7200  213.0400  150.5400 C   0  0  2  0  0  3  0  0  0  0  0  0
  160.8670  211.2280  151.3610 C   0  0  2  0  0  3  0  0  0  0  0  0
  160.3500  214.3680  150.2020 C   0  0  0  0  0  3  0  0  0  0  0  0
  159.4700  212.9040  151.9680 N   0  0  0  0  0  0  0  0  0  0  0  0
  160.1010  211.8680  152.4190 C   0  0  0  0  0  3  0  0  0  0  0  0
  162.1860  210.6000  148.2590 Cl  0  0  0  0  0  0  0  0  0  0  0  0
  161.3080  214.4530  149.2650 C   0  0  0  0  0  3  0  0  0  0  0  0
  1 19  2  0  0  0  0
  2 18  1  1  0  0  0
  3 17  1  1  0  0  0
  3  4  1  0  0  0  0
  4 14  2  0  0  0  0
  5 22  1  1  0  0  0
  5 13  1  0  0  0  0
  6  2  1  0  0  0  0
  6 11  1  1  0  0  0
  7 12  2  0  0  0  0
  8 17  2  0  0  0  0
  9 16  1  6  0  0  0
  9  2  1  0  0  0  0
 13 18  2  0  0  0  0
 13 20  1  0  0  0  0
 14 12  1  0  0  0  0
 15 10  1  1  0  0  0
 15  1  1  0  0  0  0
 15  9  1  0  0  0  0
 16  5  1  0  0  0  0
 17  7  1  0  0  0  0
 18  8  1  0  0  0  0
 19  6  1  0  0  0  0
 20  3  1  0  0  0  0
 21 22  3  0  0  0  0
 23 20  1  0  0  0  0
 24 25  1  1  0  0  0
 24 27  1  0  0  0  0
 24 28  1  0  0  0  0
 26 25  2  0  0  0  0
 26 33  1  0  0  0  0
 27 29  1  1  0  0  0
 27 30  1  0  0  0  0
 28 23  1  1  0  0  0
 28 31  1  0  0  0  0
 30 31  2  0  0  0  0
 32 25  1  0  0  0  0
 33 29  2  0  0  0  0
M  END
>  <MODEL>
2

>  <REMARK>
 VINA RESULT:      -3.8      4.426      7.567
  Name = 
  3 active torsions:
  status: ('A' for Active; 'I' for Inactive)
    1  A    between atoms: C_7  and  C_12
    2  A    between atoms: C_21  and  C_25
    3  A    between atoms: C_25  and  N_30
                            x       y       z     vdW  Elec       q    Type
                         _______ _______ _______ _____ _____    ______ ____

>  <TORSDO>
F 3

$$$$
=
 OpenBabel11072410183D

 33 38  0  0  1  0  0  0  0  0999 V2000
  160.4690  209.5010  157.2600 N   0  0  0  0  0  0  0  0  0  0  0  0
  161.4020  209.2670  154.6150 C   0  0  2  0  0  3  0  0  0  0  0  0
  162.0380  209.4080  150.2770 C   0  0  2  0  0  3  0  0  0  0  0  0
  161.4660  209.0400  148.9780 N   0  0  0  0  0  0  0  0  0  0  0  0
  160.4770  211.5180  153.1730 C   0  0  2  0  0  3  0  0  0  0  0  0
  160.1550  208.4980  155.0740 C   0  0  1  0  0  3  0  0  0  0  0  0
  162.6720  206.9870  150.3990 N   0  0  0  0  0  0  0  0  0  0  0  0
  162.1190  208.1590  152.4150 C   0  0  0  0  0  3  0  0  0  0  0  0
  161.4630  210.6710  155.2850 C   0  0  2  0  0  3  0  0  0  0  0  0
  159.4420  211.5890  156.5850 C   0  0  0  0  0  1  0  0  0  0  0  0
  160.1330  207.0730  154.5530 C   0  0  0  0  0  1  0  0  0  0  0  0
  162.4120  206.8630  149.1550 N   0  0  0  0  0  0  0  0  0  0  0  0
  161.1090  210.3800  152.4230 C   0  0  0  0  0  0  0  0  0  0  0  0
  161.6920  207.8790  148.4350 C   0  0  0  0  0  3  0  0  0  0  0  0
  160.7360  210.7910  156.6530 C   0  0  1  0  0  3  0  0  0  0  0  0
  161.2200  211.8320  154.4030 N   0  0  0  0  0  2  0  0  0  0  0  0
  162.2890  208.1720  151.0970 C   0  0  0  0  0  0  0  0  0  0  0  0
  161.5610  209.3240  153.1170 C   0  0  0  0  0  0  0  0  0  0  0  0
  160.1750  208.4520  156.5710 C   0  0  0  0  0  3  0  0  0  0  0  0
  161.2270  210.4210  150.9820 N   0  0  0  0  0  0  0  0  0  0  0  0
  157.9320  211.0640  153.6450 N   0  0  0  0  0  0  0  0  0  0  0  0
  159.0530  211.2660  153.4390 C   0  0  0  0  0  0  0  0  0  0  0  0
  160.6160  211.5460  150.2640 C   0  0  0  0  0  2  0  0  0  0  0  0
  161.3530  213.3690  148.6550 C   0  0  2  0  0  3  0  0  0  0  0  0
  160.0570  214.0200  148.3950 C   0  0  0  0  0  0  0  0  0  0  0  0
  159.7660  214.3410  147.1290 C   0  0  0  0  0  3  0  0  0  0  0  0
  162.4840  213.5610  147.6970 C   0  0  2  0  0  3  0  0  0  0  0  0
  161.5780  212.2740  149.3690 C   0  0  2  0  0  3  0  0  0  0  0  0
  161.9640  213.6140  146.2830 C   0  0  0  0  0  3  0  0  0  0  0  0
  163.3210  212.3920  147.9280 N   0  0  0  0  0  0  0  0  0  0  0  0
  162.8170  211.6840  148.8850 C   0  0  0  0  0  3  0  0  0  0  0  0
  158.9440  214.4460  149.6770 Cl  0  0  0  0  0  0  0  0  0  0  0  0
  160.7120  214.0260  146.0270 C   0  0  0  0  0  3  0  0  0  0  0  0
  2 18  1  6  0  0  0
  2  6  1  0  0  0  0
  2  9  1  0  0  0  0
  3  4  1  6  0  0  0
  3 20  1  0  0  0  0
  3 17  1  0  0  0  0
  5 22  1  1  0  0  0
  5 16  1  0  0  0  0
  6 11  1  6  0  0  0
  6 19  1  0  0  0  0
  7 17  1  0  0  0  0
  8 18  1  0  0  0  0
  9 16  1  6  0  0  0
  9 15  1  0  0  0  0
 12  7  2  0  0  0  0
 13 18  2  0  0  0  0
 13  5  1  0  0  0  0
 14  4  2  0  0  0  0
 14 12  1  0  0  0  0
 15 10  1  6  0  0  0
 15  1  1  0  0  0  0
 17  8  2  0  0  0  0
 19  1  2  0  0  0  0
 20 13  1  0  0  0  0
 22 21  3  0  0  0  0
 23 20  1  0  0  0  0
 24 25  1  6  0  0  0
 24 28  1  0  0  0  0
 25 32  1  0  0  0  0
 26 25  2  0  0  0  0
 27 29  1  6  0  0  0
 27 30  1  0  0  0  0
 27 24  1  0  0  0  0
 28 23  1  6  0  0  0
 30 31  2  0  0  0  0
 31 28  1  0  0  0  0
 33 29  2  0  0  0  0
 33 26  1  0  0  0  0
M  END
>  <MODEL>
3

>  <REMARK>
 VINA RESULT:      -3.5      2.662      8.179
  Name = 
  3 active torsions:
  status: ('A' for Active; 'I' for Inactive)
    1  A    between atoms: C_7  and  C_12
    2  A    between atoms: C_21  and  C_25
    3  A    between atoms: C_25  and  N_30
                            x       y       z     vdW  Elec       q    Type
                         _______ _______ _______ _____ _____    ______ ____

>  <TORSDO>
F 3

$$$$
=
 OpenBabel11072410183D

 33 38  0  0  1  0  0  0  0  0999 V2000
  157.6760  212.6740  156.6090 N   0  0  0  0  0  0  0  0  0  0  0  0
  158.6050  212.2230  153.9900 C   0  0  2  0  0  3  0  0  0  0  0  0
  160.7890  211.0550  150.3700 C   0  0  0  0  0  0  0  0  0  0  0  0
  162.0670  211.1730  149.6620 N   0  0  0  0  0  0  0  0  0  0  0  0
  160.0650  209.8000  154.0000 C   0  0  2  0  0  3  0  0  0  0  0  0
  159.3480  213.1850  154.9270 C   0  0  1  0  0  3  0  0  0  0  0  0
  160.3870  213.3740  149.5080 N   0  0  0  0  0  2  0  0  0  0  0  0
  159.4870  212.7390  151.6370 C   0  0  0  0  0  3  0  0  0  0  0  0
  158.0430  211.0050  154.7810 C   0  0  2  0  0  3  0  0  0  0  0  0
  158.7520  210.5910  157.2190 C   0  0  0  0  0  1  0  0  0  0  0  0
  159.7880  214.4530  154.2190 C   0  0  0  0  0  1  0  0  0  0  0  0
  161.3700  213.2390  148.7050 N   0  0  0  0  0  0  0  0  0  0  0  0
  160.1150  210.6780  152.7820 C   0  0  0  0  0  0  0  0  0  0  0  0
  162.3090  212.1560  148.8450 C   0  0  0  0  0  3  0  0  0  0  0  0
  157.7540  211.2620  156.2870 C   0  0  1  0  0  3  0  0  0  0  0  0
  158.6990  209.7030  154.5380 N   0  0  0  0  0  2  0  0  0  0  0  0
  160.1700  212.4150  150.5450 C   0  0  0  0  0  0  0  0  0  0  0  0
  159.4060  211.8170  152.7790 C   0  0  0  0  0  0  0  0  0  0  0  0
  158.4070  213.5640  156.0290 C   0  0  0  0  0  3  0  0  0  0  0  0
  160.9140  210.3050  151.6350 N   0  0  0  0  0  0  0  0  0  0  0  0
  161.7910  210.5780  155.8210 N   0  0  0  0  0  0  0  0  0  0  0  0
  161.0300  210.2340  155.0210 C   0  0  0  0  0  0  0  0  0  0  0  0
  161.7590  209.1070  151.7340 C   0  0  0  0  0  2  0  0  0  0  0  0
  160.8690  206.7540  151.3800 C   0  0  2  0  0  3  0  0  0  0  0  0
  161.0670  206.2000  152.7310 C   0  0  0  0  0  0  0  0  0  0  0  0
  161.5810  204.9680  152.8280 C   0  0  0  0  0  3  0  0  0  0  0  0
  160.7140  205.8300  150.2160 C   0  0  2  0  0  3  0  0  0  0  0  0
  161.2410  207.9470  150.9340 C   0  0  2  0  0  3  0  0  0  0  0  0
  161.6020  204.6240  150.3880 C   0  0  0  0  0  3  0  0  0  0  0  0
  161.1180  206.6480  149.0820 N   0  0  0  0  0  0  0  0  0  0  0  0
  161.3920  207.8450  149.4900 C   0  0  0  0  0  3  0  0  0  0  0  0
  160.5890  207.0580  154.1800 Cl  0  0  0  0  0  0  0  0  0  0  0  0
  161.9590  204.2030  151.6110 C   0  0  0  0  0  3  0  0  0  0  0  0
  2 18  1  6  0  0  0
  2  9  1  0  0  0  0
  2  6  1  0  0  0  0
  3 17  1  0  0  0  0
  3 20  1  0  0  0  0
  4  3  2  0  0  0  0
  5 16  1  0  0  0  0
  5 22  1  1  0  0  0
  6 11  1  6  0  0  0
  6 19  1  0  0  0  0
  7 17  1  0  0  0  0
  8 18  1  0  0  0  0
  9 16  1  1  0  0  0
  9 15  1  0  0  0  0
 12 14  2  0  0  0  0
 12  7  1  0  0  0  0
 13  5  1  0  0  0  0
 14  4  1  0  0  0  0
 15  1  1  0  0  0  0
 15 10  1  1  0  0  0
 17  8  2  0  0  0  0
 18 13  2  0  0  0  0
 19  1  2  0  0  0  0
 20 23  1  0  0  0  0
 20 13  1  0  0  0  0
 22 21  3  0  0  0  0
 24 25  1  1  0  0  0
 25 26  2  0  0  0  0
 25 32  1  0  0  0  0
 27 29  1  1  0  0  0
 27 24  1  0  0  0  0
 28 24  1  0  0  0  0
 28 23  1  1  0  0  0
 29 33  2  0  0  0  0
 30 31  2  0  0  0  0
 30 27  1  0  0  0  0
 31 28  1  0  0  0  0
 33 26  1  0  0  0  0
M  END
>  <MODEL>
4

>  <REMARK>
 VINA RESULT:      -3.2      3.420      7.228
  Name = 
  3 active torsions:
  status: ('A' for Active; 'I' for Inactive)
    1  A    between atoms: C_7  and  C_12
    2  A    between atoms: C_21  and  C_25
    3  A    between atoms: C_25  and  N_30
                            x       y       z     vdW  Elec       q    Type
                         _______ _______ _______ _____ _____    ______ ____

>  <TORSDO>
F 3

$$$$
=
 OpenBabel11072410183D

 33 38  0  0  1  0  0  0  0  0999 V2000
  160.3660  214.4530  145.7670 N   0  0  0  0  0  0  0  0  0  0  0  0
  160.0220  213.9060  148.5070 C   0  0  2  0  0  3  0  0  0  0  0  0
  159.8530  212.1720  152.5320 C   0  0  2  0  0  3  0  0  0  0  0  0
  159.2920  211.0800  153.3350 N   0  0  0  0  0  0  0  0  0  0  0  0
  161.9830  212.0120  149.2600 C   0  0  2  0  0  3  0  0  0  0  0  0
  159.1340  213.2230  147.4570 C   0  0  1  0  0  3  0  0  0  0  0  0
  157.5630  213.1670  152.7490 N   0  0  0  0  0  0  0  0  0  0  0  0
  158.8270  213.5520  150.7490 C   0  0  0  0  0  3  0  0  0  0  0  0
  161.4760  214.0730  147.9770 C   0  0  2  0  0  3  0  0  0  0  0  0
  162.2220  212.8970  145.8140 C   0  0  0  0  0  1  0  0  0  0  0  0
  157.6780  213.1700  147.8810 C   0  0  0  0  0  1  0  0  0  0  0  0
  157.2920  212.3250  153.6700 N   0  0  0  0  0  0  0  0  0  0  0  0
  160.8800  212.3430  150.2240 C   0  0  0  0  0  0  0  0  0  0  0  0
  158.1300  211.1800  153.9100 C   0  0  0  0  0  3  0  0  0  0  0  0
  161.6190  214.1500  146.4310 C   0  0  1  0  0  3  0  0  0  0  0  0
  162.5070  213.2210  148.6060 N   0  0  0  0  0  2  0  0  0  0  0  0
  158.7430  213.0110  151.9600 C   0  0  0  0  0  0  0  0  0  0  0  0
  159.9630  213.2550  149.8650 C   0  0  0  0  0  0  0  0  0  0  0  0
  159.2280  214.0220  146.1940 C   0  0  0  0  0  3  0  0  0  0  0  0
  160.8040  211.6890  151.5130 N   0  0  0  0  0  0  0  0  0  0  0  0
  161.2370  210.1940  147.5160 N   0  0  0  0  0  0  0  0  0  0  0  0
  161.5630  210.9960  148.2840 C   0  0  0  0  0  0  0  0  0  0  0  0
  161.7650  210.6180  151.8080 C   0  0  0  0  0  2  0  0  0  0  0  0
  160.9210  208.2430  152.1230 C   0  0  2  0  0  3  0  0  0  0  0  0
  161.0600  208.1130  153.5840 C   0  0  0  0  0  0  0  0  0  0  0  0
  161.5830  206.9770  154.0600 C   0  0  0  0  0  3  0  0  0  0  0  0
  160.8320  207.0160  151.2760 C   0  0  2  0  0  3  0  0  0  0  0  0
  161.3000  209.2620  151.3630 C   0  0  2  0  0  3  0  0  0  0  0  0
  161.7250  205.9350  151.8310 C   0  0  0  0  0  3  0  0  0  0  0  0
  161.2800  207.4770  149.9700 N   0  0  0  0  0  0  0  0  0  0  0  0
  161.5210  208.7460  150.0200 C   0  0  0  0  0  3  0  0  0  0  0  0
  160.5030  209.3460  154.6960 Cl  0  0  0  0  0  0  0  0  0  0  0  0
  162.0270  205.8990  153.1380 C   0  0  0  0  0  3  0  0  0  0  0  0
  1 19  2  0  0  0  0
  1 15  1  0  0  0  0
  2 18  1  1  0  0  0
  3 17  1  6  0  0  0
  3  4  1  0  0  0  0
  4 14  2  0  0  0  0
  5 22  1  6  0  0  0
  5 13  1  0  0  0  0
  6 11  1  1  0  0  0
  6  2  1  0  0  0  0
  7 12  2  0  0  0  0
  8 17  2  0  0  0  0
  9  2  1  0  0  0  0
  9 16  1  6  0  0  0
 12 14  1  0  0  0  0
 13 20  1  0  0  0  0
 15 10  1  6  0  0  0
 15  9  1  0  0  0  0
 16  5  1  0  0  0  0
 17  7  1  0  0  0  0
 18 13  2  0  0  0  0
 18  8  1  0  0  0  0
 19  6  1  0  0  0  0
 20 23  1  0  0  0  0
 20  3  1  0  0  0  0
 21 22  3  0  0  0  0
 24 25  1  1  0  0  0
 25 26  2  0  0  0  0
 25 32  1  0  0  0  0
 27 29  1  1  0  0  0
 27 24  1  0  0  0  0
 28 23  1  1  0  0  0
 28 24  1  0  0  0  0
 29 33  2  0  0  0  0
 30 31  2  0  0  0  0
 30 27  1  0  0  0  0
 31 28  1  0  0  0  0
 33 26  1  0  0  0  0
M  END
>  <MODEL>
5

>  <REMARK>
 VINA RESULT:      -2.9      2.407      3.276
  Name = 
  3 active torsions:
  status: ('A' for Active; 'I' for Inactive)
    1  A    between atoms: C_7  and  C_12
    2  A    between atoms: C_21  and  C_25
    3  A    between atoms: C_25  and  N_30
                            x       y       z     vdW  Elec       q    Type
                         _______ _______ _______ _____ _____    ______ ____

>  <TORSDO>
F 3

$$$$
=
 OpenBabel11072410183D

 33 38  0  0  1  0  0  0  0  0999 V2000
  161.0930  203.5000  150.4140 N   0  0  0  0  0  0  0  0  0  0  0  0
  161.7790  206.1800  149.8930 C   0  0  2  0  0  3  0  0  0  0  0  0
  162.4680  210.5110  149.9770 C   0  0  0  0  0  0  0  0  0  0  0  0
  161.8140  211.8170  150.0990 N   0  0  0  0  0  0  0  0  0  0  0  0
  162.3270  207.4260  152.3730 C   0  0  2  0  0  3  0  0  0  0  0  0
  160.3080  205.7450  149.9370 C   0  0  1  0  0  3  0  0  0  0  0  0
  161.6120  210.5850  147.6230 N   0  0  0  0  0  2  0  0  0  0  0  0
  161.7830  208.4740  148.7450 C   0  0  0  0  0  3  0  0  0  0  0  0
  162.6150  205.4100  150.9580 C   0  0  2  0  0  3  0  0  0  0  0  0
  161.4480  203.9920  152.7600 C   0  0  0  0  0  1  0  0  0  0  0  0
  159.4900  206.3690  148.8220 C   0  0  0  0  0  1  0  0  0  0  0  0
  161.3520  211.8270  147.7640 N   0  0  0  0  0  0  0  0  0  0  0  0
  162.2150  208.2750  151.1380 C   0  0  0  0  0  0  0  0  0  0  0  0
  161.3520  212.4510  149.0610 C   0  0  0  0  0  3  0  0  0  0  0  0
  162.0580  204.0180  151.3660 C   0  0  1  0  0  3  0  0  0  0  0  0
  163.0920  206.1980  152.1150 N   0  0  0  0  0  2  0  0  0  0  0  0
  161.9560  209.7910  148.7590 C   0  0  0  0  0  0  0  0  0  0  0  0
  161.9720  207.6730  149.9640 C   0  0  0  0  0  0  0  0  0  0  0  0
  160.2680  204.2570  149.7740 C   0  0  0  0  0  3  0  0  0  0  0  0
  162.3640  209.7120  151.2140 N   0  0  0  0  0  0  0  0  0  0  0  0
  159.9700  206.9170  153.4180 N   0  0  0  0  0  0  0  0  0  0  0  0
  161.0070  207.1410  152.9550 C   0  0  0  0  0  0  0  0  0  0  0  0
  162.5150  210.3290  152.5380 C   0  0  0  0  0  2  0  0  0  0  0  0
  160.9190  210.7460  154.4710 C   0  0  2  0  0  3  0  0  0  0  0  0
  161.7420  210.2560  155.5910 C   0  0  0  0  0  0  0  0  0  0  0  0
  161.1450  209.4880  156.5100 C   0  0  0  0  0  3  0  0  0  0  0  0
  159.4390  210.8600  154.6330 C   0  0  2  0  0  3  0  0  0  0  0  0
  161.2060  210.6950  153.1760 C   0  0  2  0  0  3  0  0  0  0  0  0
  158.9190  209.7250  155.4780 C   0  0  0  0  0  3  0  0  0  0  0  0
  158.9450  210.7930  153.2650 N   0  0  0  0  0  0  0  0  0  0  0  0
  159.9460  210.7220  152.4490 C   0  0  0  0  0  3  0  0  0  0  0  0
  163.4220  210.7030  155.7910 Cl  0  0  0  0  0  0  0  0  0  0  0  0
  159.7090  209.1260  156.3840 C   0  0  0  0  0  3  0  0  0  0  0  0
  1 15  1  0  0  0  0
  2  6  1  0  0  0  0
  2 18  1  1  0  0  0
  2  9  1  0  0  0  0
  3  4  2  0  0  0  0
  3 20  1  0  0  0  0
  5 22  1  6  0  0  0
  6 11  1  6  0  0  0
  7 12  1  0  0  0  0
  7 17  1  0  0  0  0
  8 17  2  0  0  0  0
  8 18  1  0  0  0  0
  9 15  1  0  0  0  0
  9 16  1  1  0  0  0
 12 14  2  0  0  0  0
 13 20  1  0  0  0  0
 13  5  1  0  0  0  0
 14  4  1  0  0  0  0
 15 10  1  1  0  0  0
 16  5  1  0  0  0  0
 17  3  1  0  0  0  0
 18 13  2  0  0  0  0
 19  6  1  0  0  0  0
 19  1  2  0  0  0  0
 20 23  1  0  0  0  0
 22 21  3  0  0  0  0
 24 27  1  0  0  0  0
 24 25  1  1  0  0  0
 25 32  1  0  0  0  0
 25 26  2  0  0  0  0
 27 29  1  1  0  0  0
 28 23  1  1  0  0  0
 28 24  1  0  0  0  0
 29 33  2  0  0  0  0
 30 27  1  0  0  0  0
 31 28  1  0  0  0  0
 31 30  2  0  0  0  0
 33 26  1  0  0  0  0
M  END
>  <MODEL>
6

>  <REMARK>
 VINA RESULT:      -2.4      3.945      6.771
  Name = 
  3 active torsions:
  status: ('A' for Active; 'I' for Inactive)
    1  A    between atoms: C_7  and  C_12
    2  A    between atoms: C_21  and  C_25
    3  A    between atoms: C_25  and  N_30
                            x       y       z     vdW  Elec       q    Type
                         _______ _______ _______ _____ _____    ______ ____

>  <TORSDO>
F 3

$$$$
=
 OpenBabel11072410183D

 33 38  0  0  1  0  0  0  0  0999 V2000
  160.8310  204.0350  148.5840 N   0  0  0  0  0  0  0  0  0  0  0  0
  160.4890  205.4650  150.9840 C   0  0  2  0  0  3  0  0  0  0  0  0
  160.7470  208.1910  154.4110 C   0  0  2  0  0  3  0  0  0  0  0  0
  161.6070  208.6440  155.5090 N   0  0  0  0  0  0  0  0  0  0  0  0
  161.4630  208.0880  150.5700 C   0  0  2  0  0  3  0  0  0  0  0  0
  161.6860  204.5200  150.8020 C   0  0  1  0  0  3  0  0  0  0  0  0
  160.3430  206.2050  155.8850 N   0  0  0  0  0  0  0  0  0  0  0  0
  160.3530  205.9190  153.5060 C   0  0  0  0  0  3  0  0  0  0  0  0
  160.1530  206.1940  149.6510 C   0  0  2  0  0  3  0  0  0  0  0  0
  161.7630  206.0660  147.6480 C   0  0  0  0  0  1  0  0  0  0  0  0
  161.9550  203.6870  152.0410 C   0  0  0  0  0  1  0  0  0  0  0  0
  160.8640  206.8350  156.8660 N   0  0  0  0  0  0  0  0  0  0  0  0
  161.1140  207.6510  151.9640 C   0  0  0  0  0  0  0  0  0  0  0  0
  161.6130  208.0480  156.6650 C   0  0  0  0  0  3  0  0  0  0  0  0
  160.5690  205.4430  148.3550 C   0  0  1  0  0  3  0  0  0  0  0  0
  160.4560  207.6400  149.5970 N   0  0  0  0  0  2  0  0  0  0  0  0
  160.4560  206.7220  154.5590 C   0  0  0  0  0  0  0  0  0  0  0  0
  160.6360  206.4100  152.1490 C   0  0  0  0  0  0  0  0  0  0  0  0
  161.3630  203.5920  149.6720 C   0  0  0  0  0  3  0  0  0  0  0  0
  161.2910  208.5470  153.0860 N   0  0  0  0  0  0  0  0  0  0  0  0
  163.8860  207.3280  149.8950 N   0  0  0  0  0  0  0  0  0  0  0  0
  162.8200  207.6650  150.1940 C   0  0  0  0  0  0  0  0  0  0  0  0
  161.9220  209.8510  152.8440 C   0  0  0  0  0  2  0  0  0  0  0  0
  160.5470  211.7550  153.8130 C   0  0  2  0  0  3  0  0  0  0  0  0
  160.8060  211.5520  155.2490 C   0  0  0  0  0  0  0  0  0  0  0  0
  159.7650  211.6390  156.0860 C   0  0  0  0  0  3  0  0  0  0  0  0
  159.3570  212.5470  153.3790 C   0  0  2  0  0  3  0  0  0  0  0  0
  160.9430  210.9880  152.8040 C   0  0  2  0  0  3  0  0  0  0  0  0
  158.1930  212.2810  154.3000 C   0  0  0  0  0  3  0  0  0  0  0  0
  159.1060  212.0620  152.0290 N   0  0  0  0  0  0  0  0  0  0  0  0
  160.0150  211.2020  151.7040 C   0  0  0  0  0  3  0  0  0  0  0  0
  162.4130  211.2810  155.8870 Cl  0  0  0  0  0  0  0  0  0  0  0  0
  158.3960  211.9070  155.5730 C   0  0  0  0  0  3  0  0  0  0  0  0
  1 19  2  0  0  0  0
  2 18  1  1  0  0  0
  3 17  1  6  0  0  0
  3  4  1  0  0  0  0
  4 14  2  0  0  0  0
  5 22  1  6  0  0  0
  5 13  1  0  0  0  0
  6  2  1  0  0  0  0
  6 11  1  1  0  0  0
  7 12  2  0  0  0  0
  8 17  2  0  0  0  0
  9 16  1  1  0  0  0
  9  2  1  0  0  0  0
 13 18  2  0  0  0  0
 13 20  1  0  0  0  0
 14 12  1  0  0  0  0
 15 10  1  1  0  0  0
 15  1  1  0  0  0  0
 15  9  1  0  0  0  0
 16  5  1  0  0  0  0
 17  7  1  0  0  0  0
 18  8  1  0  0  0  0
 19  6  1  0  0  0  0
 20  3  1  0  0  0  0
 21 22  3  0  0  0  0
 23 20  1  0  0  0  0
 24 25  1  1  0  0  0
 25 32  1  0  0  0  0
 25 26  2  0  0  0  0
 27 24  1  0  0  0  0
 27 29  1  1  0  0  0
 28 23  1  1  0  0  0
 28 24  1  0  0  0  0
 29 33  2  0  0  0  0
 30 27  1  0  0  0  0
 31 30  2  0  0  0  0
 31 28  1  0  0  0  0
 33 26  1  0  0  0  0
M  END
>  <MODEL>
7

>  <REMARK>
 VINA RESULT:      -1.8      4.264      7.130
  Name = 
  3 active torsions:
  status: ('A' for Active; 'I' for Inactive)
    1  A    between atoms: C_7  and  C_12
    2  A    between atoms: C_21  and  C_25
    3  A    between atoms: C_25  and  N_30
                            x       y       z     vdW  Elec       q    Type
                         _______ _______ _______ _____ _____    ______ ____

>  <TORSDO>
F 3

$$$$
