=
 OpenBabel11072412133D

 31 36  0  0  1  0  0  0  0  0999 V2000
  160.4930  205.4550  149.6160 C   0  0  2  0  0  3  0  0  0  0  0  0
  160.6640  206.9120  149.6410 C   0  0  2  0  0  0  0  0  0  0  0  0
  161.3670  207.4090  152.2780 C   0  0  0  0  0  0  0  0  0  0  0  0
  161.0250  206.7620  151.1020 C   0  0  0  0  0  0  0  0  0  0  0  0
  161.1820  207.1310  148.1970 C   0  0  2  0  0  3  0  0  0  0  0  0
  160.9080  205.3570  151.0310 C   0  0  0  0  0  0  0  0  0  0  0  0
  161.1480  204.5430  152.1180 C   0  0  0  0  0  3  0  0  0  0  0  0
  161.4280  204.8560  148.7630 O   0  0  0  0  0  0  0  0  0  0  0  0
  161.4850  205.7360  147.6800 C   0  0  2  0  0  3  0  0  0  0  0  0
  161.5070  205.1850  153.2770 N   0  0  0  0  0  0  0  0  0  0  0  0
  161.6160  206.5590  153.3830 C   0  0  0  0  0  3  0  0  0  0  0  0
  162.0690  207.4870  149.2800 C   0  0  0  0  0  2  0  0  0  0  0  0
  161.4970  209.1540  152.4010 S   0  0  0  0  0  0  0  0  0  0  0  0
  162.7370  209.6150  151.6840 O   0  0  0  0  0  0  0  0  0  0  0  0
  160.2820  209.7730  151.7670 O   0  0  0  0  0  0  0  0  0  0  0  0
  161.5840  209.5850  154.0790 N   0  0  0  0  0  2  0  0  0  0  0  0
  158.4620  210.9920  155.6120 C   0  0  1  0  0  3  0  0  0  0  0  0
  158.3490  212.4720  155.9190 C   0  0  0  0  0  1  0  0  0  0  0  0
  159.3480  210.7880  154.3820 C   0  0  0  0  0  2  0  0  0  0  0  0
  159.1530  210.3380  156.6640 O   0  0  0  0  0  0  0  0  0  0  0  0
  160.3410  209.7860  156.2180 C   0  0  0  0  0  0  0  0  0  0  0  0
  160.5070  210.0240  154.9230 C   0  0  0  0  0  0  0  0  0  0  0  0
  159.7660  207.1270  156.4980 N   0  0  0  0  0  1  0  0  0  0  0  0
  161.2530  208.9990  157.1190 C   0  0  1  0  0  3  0  0  0  0  0  0
  160.9370  207.5420  157.2590 C   0  0  2  0  0  3  0  0  0  0  0  0
  161.9280  208.0100  156.3770 O   0  0  0  0  0  0  0  0  0  0  0  0
  162.8010  205.6860  147.0640 N   0  0  0  0  0  2  0  0  0  0  0  0
  162.6930  204.7890  145.9240 C   0  0  0  0  0  2  0  0  0  0  0  0
  161.6800  205.3300  144.9280 C   0  0  0  0  0  2  0  0  0  0  0  0
  160.9260  202.9810  145.3040 C   0  0  0  0  0  1  0  0  0  0  0  0
  160.6550  204.2700  144.5500 C   0  0  0  0  0  2  0  0  0  0  0  0
  1  8  1  6  0  0  0
  1  2  1  0  0  0  0
  1  6  1  0  0  0  0
  2 12  1  6  0  0  0
  2  4  1  0  0  0  0
  3 13  1  0  0  0  0
  3 11  1  0  0  0  0
  4  3  2  0  0  0  0
  5 12  1  1  0  0  0
  5  2  1  0  0  0  0
  6  4  1  0  0  0  0
  6  7  2  0  0  0  0
  7 10  1  0  0  0  0
  9 27  1  1  0  0  0
  9  5  1  0  0  0  0
  9  8  1  0  0  0  0
 10 11  2  0  0  0  0
 13 16  1  0  0  0  0
 14 13  2  0  0  0  0
 15 13  2  0  0  0  0
 16 22  1  0  0  0  0
 17 18  1  1  0  0  0
 17 20  1  0  0  0  0
 19 22  1  0  0  0  0
 19 17  1  0  0  0  0
 21 20  1  0  0  0  0
 22 21  2  0  0  0  0
 24 21  1  6  0  0  0
 24 25  1  0  0  0  0
 25 23  1  6  0  0  0
 26 24  1  0  0  0  0
 26 25  1  0  0  0  0
 28 27  1  0  0  0  0
 29 28  1  0  0  0  0
 31 29  1  0  0  0  0
 31 30  1  0  0  0  0
M  END
>  <MODEL>
1

>  <REMARK>
 VINA RESULT:      -7.7      0.000      0.000
  Name = 
  8 active torsions:
  status: ('A' for Active; 'I' for Inactive)
    1  A    between atoms: C_5  and  S_15
    2  A    between atoms: C_6  and  C_8
    3  A    between atoms: C_6  and  N_25
    4  A    between atoms: C_8  and  C_27
    5  A    between atoms: S_15  and  N_29
    6  A    between atoms: C_17  and  C_24
    7  A    between atoms: C_23  and  N_25
    8  A    between atoms: N_29  and  C_31
                            x       y       z     vdW  Elec       q    Type
                         _______ _______ _______ _____ _____    ______ ____

>  <TORSDO>
F 8

$$$$
=
 OpenBabel11072412133D

 31 36  0  0  1  0  0  0  0  0999 V2000
  160.5520  205.4390  149.3330 C   0  0  2  0  0  3  0  0  0  0  0  0
  160.7580  206.8740  149.1110 C   0  0  2  0  0  0  0  0  0  0  0  0
  161.5640  207.7780  151.6060 C   0  0  0  0  0  0  0  0  0  0  0  0
  161.1660  206.9560  150.5650 C   0  0  0  0  0  0  0  0  0  0  0  0
  161.2320  206.8360  147.6360 C   0  0  2  0  0  3  0  0  0  0  0  0
  161.0130  205.5620  150.7320 C   0  0  0  0  0  0  0  0  0  0  0  0
  161.2700  204.9330  151.9300 C   0  0  0  0  0  3  0  0  0  0  0  0
  161.4420  204.6790  148.5630 O   0  0  0  0  0  0  0  0  0  0  0  0
  161.4830  205.3670  147.3490 C   0  0  2  0  0  3  0  0  0  0  0  0
  161.6840  205.7460  152.9560 N   0  0  0  0  0  0  0  0  0  0  0  0
  161.8300  207.1150  152.8290 C   0  0  0  0  0  3  0  0  0  0  0  0
  162.1640  207.3400  148.6180 C   0  0  0  0  0  2  0  0  0  0  0  0
  161.7400  209.5150  151.4350 S   0  0  0  0  0  0  0  0  0  0  0  0
  163.0600  209.9440  152.0170 O   0  0  0  0  0  0  0  0  0  0  0  0
  161.6920  209.8610  149.9720 O   0  0  0  0  0  0  0  0  0  0  0  0
  160.4370  210.2890  152.2780 N   0  0  0  0  0  2  0  0  0  0  0  0
  161.0250  211.2760  155.8500 C   0  0  1  0  0  3  0  0  0  0  0  0
  160.2460  210.6190  156.9730 C   0  0  0  0  0  1  0  0  0  0  0  0
  161.2250  210.2750  154.7100 C   0  0  0  0  0  2  0  0  0  0  0  0
  160.2510  212.3180  155.2790 O   0  0  0  0  0  0  0  0  0  0  0  0
  159.9560  212.0570  153.9530 C   0  0  0  0  0  0  0  0  0  0  0  0
  160.4790  210.8960  153.5800 C   0  0  0  0  0  0  0  0  0  0  0  0
  157.2310  211.9520  154.1730 N   0  0  0  0  0  1  0  0  0  0  0  0
  159.1800  213.0190  153.0940 C   0  0  1  0  0  3  0  0  0  0  0  0
  157.6900  212.9620  153.2290 C   0  0  2  0  0  3  0  0  0  0  0  0
  158.4650  213.9210  153.9060 O   0  0  0  0  0  0  0  0  0  0  0  0
  162.7760  205.1770  146.7100 N   0  0  0  0  0  2  0  0  0  0  0  0
  162.5710  204.2240  145.6300 C   0  0  0  0  0  2  0  0  0  0  0  0
  161.0850  203.9900  145.4140 C   0  0  0  0  0  2  0  0  0  0  0  0
  160.8130  201.8230  146.6210 C   0  0  0  0  0  1  0  0  0  0  0  0
  160.7730  202.5080  145.2670 C   0  0  0  0  0  2  0  0  0  0  0  0
  1  8  1  6  0  0  0
  1  6  1  0  0  0  0
  2 12  1  1  0  0  0
  2  1  1  0  0  0  0
  2  4  1  0  0  0  0
  3 11  1  0  0  0  0
  4  6  1  0  0  0  0
  4  3  2  0  0  0  0
  5 12  1  1  0  0  0
  5  2  1  0  0  0  0
  6  7  2  0  0  0  0
  7 10  1  0  0  0  0
  9 27  1  1  0  0  0
  9  5  1  0  0  0  0
  9  8  1  0  0  0  0
 11 10  2  0  0  0  0
 13  3  1  0  0  0  0
 13 14  2  0  0  0  0
 13 16  1  0  0  0  0
 15 13  2  0  0  0  0
 16 22  1  0  0  0  0
 17 18  1  1  0  0  0
 19 17  1  0  0  0  0
 20 17  1  0  0  0  0
 21 20  1  0  0  0  0
 22 21  2  0  0  0  0
 22 19  1  0  0  0  0
 24 25  1  0  0  0  0
 24 26  1  0  0  0  0
 24 21  1  1  0  0  0
 25 26  1  0  0  0  0
 25 23  1  1  0  0  0
 28 27  1  0  0  0  0
 29 28  1  0  0  0  0
 31 29  1  0  0  0  0
 31 30  1  0  0  0  0
M  END
>  <MODEL>
2

>  <REMARK>
 VINA RESULT:      -7.7      1.771      2.814
  Name = 
  8 active torsions:
  status: ('A' for Active; 'I' for Inactive)
    1  A    between atoms: C_5  and  S_15
    2  A    between atoms: C_6  and  C_8
    3  A    between atoms: C_6  and  N_25
    4  A    between atoms: C_8  and  C_27
    5  A    between atoms: S_15  and  N_29
    6  A    between atoms: C_17  and  C_24
    7  A    between atoms: C_23  and  N_25
    8  A    between atoms: N_29  and  C_31
                            x       y       z     vdW  Elec       q    Type
                         _______ _______ _______ _____ _____    ______ ____

>  <TORSDO>
F 8

$$$$
=
 OpenBabel11072412133D

 31 36  0  0  1  0  0  0  0  0999 V2000
  161.9580  207.1400  153.4180 C   0  0  2  0  0  3  0  0  0  0  0  0
  162.0700  207.6730  152.0560 C   0  0  2  0  0  0  0  0  0  0  0  0
  161.3000  205.5220  150.4830 C   0  0  0  0  0  0  0  0  0  0  0  0
  161.5880  206.3210  151.5760 C   0  0  0  0  0  0  0  0  0  0  0  0
  161.7010  209.1520  152.3320 C   0  0  2  0  0  3  0  0  0  0  0  0
  161.4370  205.8570  152.9010 C   0  0  0  0  0  0  0  0  0  0  0  0
  160.9730  204.5910  153.1870 C   0  0  0  0  0  3  0  0  0  0  0  0
  160.9830  207.8320  154.1490 O   0  0  0  0  0  0  0  0  0  0  0  0
  161.1710  209.1590  153.7540 C   0  0  2  0  0  3  0  0  0  0  0  0
  160.6680  203.8070  152.1020 N   0  0  0  0  0  0  0  0  0  0  0  0
  160.8180  204.2270  150.7940 C   0  0  0  0  0  3  0  0  0  0  0  0
  160.8290  208.4050  151.4560 C   0  0  0  0  0  2  0  0  0  0  0  0
  161.5010  206.0640  148.8270 S   0  0  0  0  0  0  0  0  0  0  0  0
  160.1490  206.3300  148.2200 O   0  0  0  0  0  0  0  0  0  0  0  0
  162.3150  207.3280  148.8300 O   0  0  0  0  0  0  0  0  0  0  0  0
  162.3210  204.8240  147.9340 N   0  0  0  0  0  2  0  0  0  0  0  0
  160.5350  201.7710  146.6830 C   0  0  1  0  0  3  0  0  0  0  0  0
  161.2040  200.4100  146.7250 C   0  0  0  0  0  1  0  0  0  0  0  0
  161.0250  202.6210  147.8560 C   0  0  0  0  0  2  0  0  0  0  0  0
  160.9610  202.4750  145.5280 O   0  0  0  0  0  0  0  0  0  0  0  0
  161.6520  203.6250  145.8660 C   0  0  0  0  0  0  0  0  0  0  0  0
  161.7280  203.7510  147.1850 C   0  0  0  0  0  0  0  0  0  0  0  0
  159.9490  205.6130  145.0710 N   0  0  0  0  0  1  0  0  0  0  0  0
  162.1810  204.5820  144.8330 C   0  0  1  0  0  3  0  0  0  0  0  0
  161.2470  205.6730  144.4110 C   0  0  2  0  0  3  0  0  0  0  0  0
  162.2530  205.8810  145.3710 O   0  0  0  0  0  0  0  0  0  0  0  0
  159.9140  209.8860  153.8360 N   0  0  0  0  0  2  0  0  0  0  0  0
  160.2520  211.3000  153.8770 C   0  0  0  0  0  2  0  0  0  0  0  0
  158.9880  212.1420  153.8150 C   0  0  0  0  0  2  0  0  0  0  0  0
  159.8110  212.7780  151.5470 C   0  0  0  0  0  1  0  0  0  0  0  0
  158.5870  212.4350  152.3760 C   0  0  0  0  0  2  0  0  0  0  0  0
  1  6  1  6  0  0  0
  1  8  1  0  0  0  0
  2 12  1  1  0  0  0
  2  5  1  0  0  0  0
  2  1  1  0  0  0  0
  3 11  2  0  0  0  0
  3  4  1  0  0  0  0
  4  2  1  0  0  0  0
  4  6  2  0  0  0  0
  5 12  1  6  0  0  0
  5  9  1  0  0  0  0
  6  7  1  0  0  0  0
  9 27  1  6  0  0  0
  9  8  1  0  0  0  0
 10  7  2  0  0  0  0
 11 10  1  0  0  0  0
 13 15  2  0  0  0  0
 13  3  1  0  0  0  0
 14 13  2  0  0  0  0
 16 13  1  0  0  0  0
 17 18  1  1  0  0  0
 17 19  1  0  0  0  0
 20 21  1  0  0  0  0
 20 17  1  0  0  0  0
 21 22  2  0  0  0  0
 22 19  1  0  0  0  0
 22 16  1  0  0  0  0
 24 26  1  0  0  0  0
 24 21  1  1  0  0  0
 25 24  1  0  0  0  0
 25 23  1  1  0  0  0
 25 26  1  0  0  0  0
 27 28  1  0  0  0  0
 29 28  1  0  0  0  0
 30 31  1  0  0  0  0
 31 29  1  0  0  0  0
M  END
>  <MODEL>
3

>  <REMARK>
 VINA RESULT:      -7.5      2.360      8.878
  Name = 
  8 active torsions:
  status: ('A' for Active; 'I' for Inactive)
    1  A    between atoms: C_5  and  S_15
    2  A    between atoms: C_6  and  C_8
    3  A    between atoms: C_6  and  N_25
    4  A    between atoms: C_8  and  C_27
    5  A    between atoms: S_15  and  N_29
    6  A    between atoms: C_17  and  C_24
    7  A    between atoms: C_23  and  N_25
    8  A    between atoms: N_29  and  C_31
                            x       y       z     vdW  Elec       q    Type
                         _______ _______ _______ _____ _____    ______ ____

>  <TORSDO>
F 8

$$$$
=
 OpenBabel11072412133D

 31 36  0  0  1  0  0  0  0  0999 V2000
  160.5270  209.1660  153.3770 C   0  0  2  0  0  3  0  0  0  0  0  0
  160.4130  207.7100  153.2390 C   0  0  2  0  0  0  0  0  0  0  0  0
  161.5490  207.2320  150.7540 C   0  0  0  0  0  0  0  0  0  0  0  0
  161.0980  207.8660  151.8990 C   0  0  0  0  0  0  0  0  0  0  0  0
  160.5600  207.3020  154.7260 C   0  0  2  0  0  3  0  0  0  0  0  0
  161.2440  209.2580  152.0880 C   0  0  0  0  0  0  0  0  0  0  0  0
  161.8620  210.0650  151.1570 C   0  0  0  0  0  3  0  0  0  0  0  0
  161.3580  209.5040  154.4530 O   0  0  0  0  0  0  0  0  0  0  0  0
  161.0120  208.5690  155.4310 C   0  0  2  0  0  3  0  0  0  0  0  0
  162.3270  209.4310  150.0310 N   0  0  0  0  0  0  0  0  0  0  0  0
  162.1870  208.0740  149.8100 C   0  0  0  0  0  3  0  0  0  0  0  0
  161.5710  206.8310  153.8070 C   0  0  0  0  0  2  0  0  0  0  0  0
  161.3600  205.5090  150.4820 S   0  0  0  0  0  0  0  0  0  0  0  0
  162.3100  204.7550  151.3740 O   0  0  0  0  0  0  0  0  0  0  0  0
  159.9430  205.1230  150.8070 O   0  0  0  0  0  0  0  0  0  0  0  0
  161.7090  205.1700  148.8180 N   0  0  0  0  0  2  0  0  0  0  0  0
  160.6920  201.7620  147.6220 C   0  0  1  0  0  3  0  0  0  0  0  0
  161.5180  200.5400  147.9720 C   0  0  0  0  0  1  0  0  0  0  0  0
  160.7850  202.7870  148.7540 C   0  0  0  0  0  2  0  0  0  0  0  0
  161.2610  202.4170  146.4990 O   0  0  0  0  0  0  0  0  0  0  0  0
  161.6910  203.6900  146.8250 C   0  0  0  0  0  0  0  0  0  0  0  0
  161.4540  203.9490  148.1040 C   0  0  0  0  0  0  0  0  0  0  0  0
  160.2580  204.0770  144.5270 N   0  0  0  0  0  1  0  0  0  0  0  0
  162.2980  204.6210  145.8100 C   0  0  1  0  0  3  0  0  0  0  0  0
  161.5020  204.8350  144.5590 C   0  0  2  0  0  3  0  0  0  0  0  0
  161.4690  205.7460  145.6310 O   0  0  0  0  0  0  0  0  0  0  0  0
  162.1520  208.3040  156.2940 N   0  0  0  0  0  2  0  0  0  0  0  0
  162.2040  209.3910  157.2600 C   0  0  0  0  0  2  0  0  0  0  0  0
  160.8890  210.1540  157.2600 C   0  0  0  0  0  2  0  0  0  0  0  0
  160.1600  212.3080  156.2330 C   0  0  0  0  0  1  0  0  0  0  0  0
  161.1210  211.6570  157.2110 C   0  0  0  0  0  2  0  0  0  0  0  0
  1  6  1  6  0  0  0
  1  8  1  0  0  0  0
  2  1  1  0  0  0  0
  2 12  1  1  0  0  0
  2  5  1  0  0  0  0
  3  4  1  0  0  0  0
  4  6  2  0  0  0  0
  4  2  1  0  0  0  0
  5 12  1  6  0  0  0
  5  9  1  0  0  0  0
  7  6  1  0  0  0  0
  8  9  1  0  0  0  0
  9 27  1  1  0  0  0
 10  7  2  0  0  0  0
 11 10  1  0  0  0  0
 11  3  2  0  0  0  0
 13  3  1  0  0  0  0
 13 15  2  0  0  0  0
 13 14  2  0  0  0  0
 16 13  1  0  0  0  0
 17 18  1  1  0  0  0
 17 19  1  0  0  0  0
 20 21  1  0  0  0  0
 20 17  1  0  0  0  0
 21 22  2  0  0  0  0
 22 19  1  0  0  0  0
 22 16  1  0  0  0  0
 24 21  1  1  0  0  0
 25 23  1  1  0  0  0
 25 26  1  0  0  0  0
 25 24  1  0  0  0  0
 26 24  1  0  0  0  0
 27 28  1  0  0  0  0
 28 29  1  0  0  0  0
 30 31  1  0  0  0  0
 31 29  1  0  0  0  0
M  END
>  <MODEL>
4

>  <REMARK>
 VINA RESULT:      -7.3      2.371      9.361
  Name = 
  8 active torsions:
  status: ('A' for Active; 'I' for Inactive)
    1  A    between atoms: C_5  and  S_15
    2  A    between atoms: C_6  and  C_8
    3  A    between atoms: C_6  and  N_25
    4  A    between atoms: C_8  and  C_27
    5  A    between atoms: S_15  and  N_29
    6  A    between atoms: C_17  and  C_24
    7  A    between atoms: C_23  and  N_25
    8  A    between atoms: N_29  and  C_31
                            x       y       z     vdW  Elec       q    Type
                         _______ _______ _______ _____ _____    ______ ____

>  <TORSDO>
F 8

$$$$
=
 OpenBabel11072412133D

 31 36  0  0  1  0  0  0  0  0999 V2000
  160.4630  205.6390  149.5920 C   0  0  2  0  0  3  0  0  0  0  0  0
  160.6030  207.0990  149.6200 C   0  0  2  0  0  0  0  0  0  0  0  0
  161.3660  207.5990  152.2400 C   0  0  0  0  0  0  0  0  0  0  0  0
  161.0070  206.9500  151.0700 C   0  0  0  0  0  0  0  0  0  0  0  0
  161.0770  207.3360  148.1640 C   0  0  2  0  0  3  0  0  0  0  0  0
  160.9180  205.5430  150.9950 C   0  0  0  0  0  0  0  0  0  0  0  0
  161.2050  204.7290  152.0700 C   0  0  0  0  0  3  0  0  0  0  0  0
  161.3870  205.0640  148.7110 O   0  0  0  0  0  0  0  0  0  0  0  0
  161.3950  205.9510  147.6320 C   0  0  2  0  0  3  0  0  0  0  0  0
  161.5810  205.3740  153.2230 N   0  0  0  0  0  0  0  0  0  0  0  0
  161.6630  206.7490  153.3330 C   0  0  0  0  0  3  0  0  0  0  0  0
  161.9850  207.7060  149.2250 C   0  0  0  0  0  2  0  0  0  0  0  0
  161.4620  209.3450  152.3690 S   0  0  0  0  0  0  0  0  0  0  0  0
  162.3800  209.8770  151.3010 O   0  0  0  0  0  0  0  0  0  0  0  0
  160.0830  209.9170  152.1860 O   0  0  0  0  0  0  0  0  0  0  0  0
  162.0770  209.7510  153.9390 N   0  0  0  0  0  2  0  0  0  0  0  0
  160.9150  208.3320  157.2120 C   0  0  1  0  0  3  0  0  0  0  0  0
  159.7860  207.3210  157.2610 C   0  0  0  0  0  1  0  0  0  0  0  0
  161.6980  208.1650  155.9090 C   0  0  0  0  0  2  0  0  0  0  0  0
  160.3780  209.6430  157.1420 O   0  0  0  0  0  0  0  0  0  0  0  0
  160.7300  210.2680  155.9590 C   0  0  0  0  0  0  0  0  0  0  0  0
  161.4760  209.4640  155.2120 C   0  0  0  0  0  0  0  0  0  0  0  0
  158.1070  210.6620  155.2930 N   0  0  0  0  0  1  0  0  0  0  0  0
  160.3280  211.6830  155.6440 C   0  0  1  0  0  3  0  0  0  0  0  0
  158.8880  211.8920  155.2900 C   0  0  2  0  0  3  0  0  0  0  0  0
  159.3820  212.1360  156.5840 O   0  0  0  0  0  0  0  0  0  0  0  0
  162.6950  205.9320  146.9800 N   0  0  0  0  0  2  0  0  0  0  0  0
  162.7090  204.7640  146.1120 C   0  0  0  0  0  2  0  0  0  0  0  0
  161.6490  204.9040  145.0320 C   0  0  0  0  0  2  0  0  0  0  0  0
  161.1840  202.6500  145.9960 C   0  0  0  0  0  1  0  0  0  0  0  0
  160.8280  203.6300  144.8930 C   0  0  0  0  0  2  0  0  0  0  0  0
  1  8  1  6  0  0  0
  1  2  1  0  0  0  0
  1  6  1  0  0  0  0
  2 12  1  6  0  0  0
  2  4  1  0  0  0  0
  3 13  1  0  0  0  0
  3 11  1  0  0  0  0
  4  3  2  0  0  0  0
  5 12  1  1  0  0  0
  5  2  1  0  0  0  0
  6  4  1  0  0  0  0
  6  7  2  0  0  0  0
  7 10  1  0  0  0  0
  9 27  1  1  0  0  0
  9  5  1  0  0  0  0
  9  8  1  0  0  0  0
 10 11  2  0  0  0  0
 13 16  1  0  0  0  0
 14 13  2  0  0  0  0
 15 13  2  0  0  0  0
 16 22  1  0  0  0  0
 17 18  1  6  0  0  0
 19 17  1  0  0  0  0
 20 17  1  0  0  0  0
 21 20  1  0  0  0  0
 22 19  1  0  0  0  0
 22 21  2  0  0  0  0
 24 21  1  1  0  0  0
 24 26  1  0  0  0  0
 25 23  1  1  0  0  0
 25 24  1  0  0  0  0
 25 26  1  0  0  0  0
 28 27  1  0  0  0  0
 29 28  1  0  0  0  0
 31 29  1  0  0  0  0
 31 30  1  0  0  0  0
M  END
>  <MODEL>
5

>  <REMARK>
 VINA RESULT:      -7.0      1.057      2.164
  Name = 
  8 active torsions:
  status: ('A' for Active; 'I' for Inactive)
    1  A    between atoms: C_5  and  S_15
    2  A    between atoms: C_6  and  C_8
    3  A    between atoms: C_6  and  N_25
    4  A    between atoms: C_8  and  C_27
    5  A    between atoms: S_15  and  N_29
    6  A    between atoms: C_17  and  C_24
    7  A    between atoms: C_23  and  N_25
    8  A    between atoms: N_29  and  C_31
                            x       y       z     vdW  Elec       q    Type
                         _______ _______ _______ _____ _____    ______ ____

>  <TORSDO>
F 8

$$$$
=
 OpenBabel11072412133D

 31 36  0  0  1  0  0  0  0  0999 V2000
  160.7860  210.5210  155.2190 C   0  0  2  0  0  3  0  0  0  0  0  0
  161.0890  210.4660  153.7840 C   0  0  2  0  0  0  0  0  0  0  0  0
  161.1560  207.7420  153.2680 C   0  0  0  0  0  0  0  0  0  0  0  0
  161.0190  208.9600  153.9110 C   0  0  0  0  0  0  0  0  0  0  0  0
  160.3700  211.7590  153.3240 C   0  0  2  0  0  3  0  0  0  0  0  0
  160.6730  209.0490  155.2770 C   0  0  0  0  0  0  0  0  0  0  0  0
  160.4290  207.9320  156.0470 C   0  0  0  0  0  3  0  0  0  0  0  0
  159.5510  211.1410  155.4470 O   0  0  0  0  0  0  0  0  0  0  0  0
  159.5430  212.1880  154.5230 C   0  0  2  0  0  3  0  0  0  0  0  0
  160.5450  206.7250  155.4030 N   0  0  0  0  0  0  0  0  0  0  0  0
  160.8960  206.6040  154.0720 C   0  0  0  0  0  3  0  0  0  0  0  0
  159.8910  210.5070  152.7850 C   0  0  0  0  0  2  0  0  0  0  0  0
  161.6080  207.6010  151.5790 S   0  0  0  0  0  0  0  0  0  0  0  0
  160.4070  207.8810  150.7150 O   0  0  0  0  0  0  0  0  0  0  0  0
  162.6900  208.6040  151.2860 O   0  0  0  0  0  0  0  0  0  0  0  0
  162.1860  205.9920  151.2930 N   0  0  0  0  0  2  0  0  0  0  0  0
  160.4030  202.9200  150.0850 C   0  0  1  0  0  3  0  0  0  0  0  0
  161.1620  201.6310  149.8350 C   0  0  0  0  0  1  0  0  0  0  0  0
  161.0660  203.6940  151.2250 C   0  0  0  0  0  2  0  0  0  0  0  0
  160.5240  203.7710  148.9560 O   0  0  0  0  0  0  0  0  0  0  0  0
  161.1860  204.9420  149.2790 C   0  0  0  0  0  0  0  0  0  0  0  0
  161.5280  204.9450  150.5610 C   0  0  0  0  0  0  0  0  0  0  0  0
  162.5580  204.2520  147.0150 N   0  0  0  0  0  1  0  0  0  0  0  0
  161.4150  206.0410  148.2770 C   0  0  1  0  0  3  0  0  0  0  0  0
  162.1580  205.6520  147.0360 C   0  0  2  0  0  3  0  0  0  0  0  0
  160.7540  205.7390  147.0700 O   0  0  0  0  0  0  0  0  0  0  0  0
  158.1780  212.4950  154.1280 N   0  0  0  0  0  2  0  0  0  0  0  0
  157.5310  213.0860  155.2900 C   0  0  0  0  0  2  0  0  0  0  0  0
  156.3780  212.2080  155.7490 C   0  0  0  0  0  2  0  0  0  0  0  0
  155.1310  210.1060  155.2480 C   0  0  0  0  0  1  0  0  0  0  0  0
  155.9510  211.2380  154.6570 C   0  0  0  0  0  2  0  0  0  0  0  0
  1  6  1  6  0  0  0
  1  8  1  0  0  0  0
  2 12  1  1  0  0  0
  2  4  1  0  0  0  0
  2  1  1  0  0  0  0
  3  4  2  0  0  0  0
  3 11  1  0  0  0  0
  4  6  1  0  0  0  0
  5 12  1  6  0  0  0
  5  2  1  0  0  0  0
  5  9  1  0  0  0  0
  6  7  2  0  0  0  0
  9 27  1  6  0  0  0
  9  8  1  0  0  0  0
 10  7  1  0  0  0  0
 11 10  2  0  0  0  0
 13  3  1  0  0  0  0
 14 13  2  0  0  0  0
 15 13  2  0  0  0  0
 16 13  1  0  0  0  0
 17 18  1  6  0  0  0
 17 19  1  0  0  0  0
 20 21  1  0  0  0  0
 20 17  1  0  0  0  0
 21 22  2  0  0  0  0
 22 19  1  0  0  0  0
 22 16  1  0  0  0  0
 24 21  1  1  0  0  0
 25 23  1  1  0  0  0
 25 26  1  0  0  0  0
 25 24  1  0  0  0  0
 26 24  1  0  0  0  0
 27 28  1  0  0  0  0
 28 29  1  0  0  0  0
 31 30  1  0  0  0  0
 31 29  1  0  0  0  0
M  END
>  <MODEL>
6

>  <REMARK>
 VINA RESULT:      -7.0      1.917      8.533
  Name = 
  8 active torsions:
  status: ('A' for Active; 'I' for Inactive)
    1  A    between atoms: C_5  and  S_15
    2  A    between atoms: C_6  and  C_8
    3  A    between atoms: C_6  and  N_25
    4  A    between atoms: C_8  and  C_27
    5  A    between atoms: S_15  and  N_29
    6  A    between atoms: C_17  and  C_24
    7  A    between atoms: C_23  and  N_25
    8  A    between atoms: N_29  and  C_31
                            x       y       z     vdW  Elec       q    Type
                         _______ _______ _______ _____ _____    ______ ____

>  <TORSDO>
F 8

$$$$
=
 OpenBabel11072412133D

 31 36  0  0  1  0  0  0  0  0999 V2000
  160.5380  210.6470  154.8380 C   0  0  2  0  0  3  0  0  0  0  0  0
  161.0700  210.3950  153.4940 C   0  0  2  0  0  0  0  0  0  0  0  0
  161.1960  207.6260  153.3860 C   0  0  0  0  0  0  0  0  0  0  0  0
  160.9670  208.9210  153.8200 C   0  0  0  0  0  0  0  0  0  0  0  0
  160.4470  211.5990  152.7450 C   0  0  2  0  0  3  0  0  0  0  0  0
  160.4040  209.1960  155.0850 C   0  0  0  0  0  0  0  0  0  0  0  0
  160.0270  208.1950  155.9550 C   0  0  0  0  0  3  0  0  0  0  0  0
  159.2880  211.2750  154.7720 O   0  0  0  0  0  0  0  0  0  0  0  0
  159.4400  212.1810  153.7200 C   0  0  2  0  0  3  0  0  0  0  0  0
  160.2360  206.9110  155.5150 N   0  0  0  0  0  0  0  0  0  0  0  0
  160.7980  206.6100  154.2890 C   0  0  0  0  0  3  0  0  0  0  0  0
  160.0520  210.2770  152.3170 C   0  0  0  0  0  2  0  0  0  0  0  0
  161.9160  207.2560  151.8310 S   0  0  0  0  0  0  0  0  0  0  0  0
  162.5400  208.5000  151.2590 O   0  0  0  0  0  0  0  0  0  0  0  0
  162.9720  206.2020  152.0270 O   0  0  0  0  0  0  0  0  0  0  0  0
  160.6740  206.6700  150.7710 N   0  0  0  0  0  2  0  0  0  0  0  0
  160.4350  203.1520  149.4910 C   0  0  1  0  0  3  0  0  0  0  0  0
  161.5570  202.1620  149.7330 C   0  0  0  0  0  1  0  0  0  0  0  0
  160.3570  204.1360  150.6590 C   0  0  0  0  0  2  0  0  0  0  0  0
  160.7450  203.9570  148.3650 O   0  0  0  0  0  0  0  0  0  0  0  0
  160.8730  205.2880  148.7190 C   0  0  0  0  0  0  0  0  0  0  0  0
  160.6730  205.4450  150.0220 C   0  0  0  0  0  0  0  0  0  0  0  0
  162.7260  204.6900  146.7970 N   0  0  0  0  0  1  0  0  0  0  0  0
  161.1590  206.3670  147.7100 C   0  0  1  0  0  3  0  0  0  0  0  0
  162.1670  206.0280  146.6550 C   0  0  2  0  0  3  0  0  0  0  0  0
  160.7820  205.9360  146.4230 O   0  0  0  0  0  0  0  0  0  0  0  0
  158.1600  212.4100  153.0690 N   0  0  0  0  0  2  0  0  0  0  0  0
  158.1110  213.8240  152.7300 C   0  0  0  0  0  2  0  0  0  0  0  0
  157.2600  214.0350  151.4890 C   0  0  0  0  0  2  0  0  0  0  0  0
  157.0170  213.0490  149.2100 C   0  0  0  0  0  1  0  0  0  0  0  0
  157.9970  213.5970  150.2310 C   0  0  0  0  0  2  0  0  0  0  0  0
  1  8  1  6  0  0  0
  1  6  1  0  0  0  0
  2 12  1  6  0  0  0
  2  4  1  0  0  0  0
  2  1  1  0  0  0  0
  3  4  2  0  0  0  0
  3 11  1  0  0  0  0
  4  6  1  0  0  0  0
  5 12  1  6  0  0  0
  5  2  1  0  0  0  0
  5  9  1  0  0  0  0
  6  7  2  0  0  0  0
  9 27  1  6  0  0  0
  9  8  1  0  0  0  0
 10  7  1  0  0  0  0
 11 10  2  0  0  0  0
 13 15  2  0  0  0  0
 13  3  1  0  0  0  0
 14 13  2  0  0  0  0
 16 13  1  0  0  0  0
 17 18  1  1  0  0  0
 17 19  1  0  0  0  0
 20 21  1  0  0  0  0
 20 17  1  0  0  0  0
 21 22  2  0  0  0  0
 22 19  1  0  0  0  0
 22 16  1  0  0  0  0
 24 21  1  1  0  0  0
 25 23  1  1  0  0  0
 25 24  1  0  0  0  0
 26 25  1  0  0  0  0
 26 24  1  0  0  0  0
 28 27  1  0  0  0  0
 29 28  1  0  0  0  0
 30 31  1  0  0  0  0
 31 29  1  0  0  0  0
M  END
>  <MODEL>
7

>  <REMARK>
 VINA RESULT:      -7.0      2.590      8.158
  Name = 
  8 active torsions:
  status: ('A' for Active; 'I' for Inactive)
    1  A    between atoms: C_5  and  S_15
    2  A    between atoms: C_6  and  C_8
    3  A    between atoms: C_6  and  N_25
    4  A    between atoms: C_8  and  C_27
    5  A    between atoms: S_15  and  N_29
    6  A    between atoms: C_17  and  C_24
    7  A    between atoms: C_23  and  N_25
    8  A    between atoms: N_29  and  C_31
                            x       y       z     vdW  Elec       q    Type
                         _______ _______ _______ _____ _____    ______ ____

>  <TORSDO>
F 8

$$$$
=
 OpenBabel11072412133D

 31 36  0  0  1  0  0  0  0  0999 V2000
  160.4180  205.3670  149.5430 C   0  0  2  0  0  3  0  0  0  0  0  0
  160.5220  206.8290  149.4760 C   0  0  2  0  0  0  0  0  0  0  0  0
  161.4080  207.5060  152.0160 C   0  0  0  0  0  0  0  0  0  0  0  0
  161.0050  206.7780  150.9090 C   0  0  0  0  0  0  0  0  0  0  0  0
  160.9140  206.9860  147.9850 C   0  0  2  0  0  3  0  0  0  0  0  0
  160.9480  205.3670  150.9230 C   0  0  0  0  0  0  0  0  0  0  0  0
  161.3100  204.6280  152.0290 C   0  0  0  0  0  3  0  0  0  0  0  0
  161.3100  204.7590  148.6500 O   0  0  0  0  0  0  0  0  0  0  0  0
  161.2400  205.5780  147.5210 C   0  0  2  0  0  3  0  0  0  0  0  0
  161.7290  205.3500  153.1190 N   0  0  0  0  0  0  0  0  0  0  0  0
  161.7820  206.7310  153.1410 C   0  0  0  0  0  3  0  0  0  0  0  0
  161.8670  207.4410  148.9720 C   0  0  0  0  0  2  0  0  0  0  0  0
  161.4650  209.2580  152.0350 S   0  0  0  0  0  0  0  0  0  0  0  0
  162.5960  209.7120  152.9190 O   0  0  0  0  0  0  0  0  0  0  0  0
  161.6900  209.7470  150.6300 O   0  0  0  0  0  0  0  0  0  0  0  0
  159.9550  209.8550  152.6440 N   0  0  0  0  0  2  0  0  0  0  0  0
  158.6170  213.3590  152.7390 C   0  0  1  0  0  3  0  0  0  0  0  0
  159.2440  214.4510  151.8940 C   0  0  0  0  0  1  0  0  0  0  0  0
  158.7400  212.0160  152.0170 C   0  0  0  0  0  2  0  0  0  0  0  0
  159.3630  213.1930  153.9330 O   0  0  0  0  0  0  0  0  0  0  0  0
  159.9240  211.9310  154.0050 C   0  0  0  0  0  0  0  0  0  0  0  0
  159.6090  211.2200  152.9300 C   0  0  0  0  0  0  0  0  0  0  0  0
  158.7410  212.1950  156.4580 N   0  0  0  0  0  1  0  0  0  0  0  0
  160.7330  211.4730  155.1880 C   0  0  1  0  0  3  0  0  0  0  0  0
  160.0740  211.6120  156.5260 C   0  0  2  0  0  3  0  0  0  0  0  0
  160.0900  210.3930  155.8230 O   0  0  0  0  0  0  0  0  0  0  0  0
  162.5040  205.5480  146.8040 N   0  0  0  0  0  2  0  0  0  0  0  0
  162.5820  204.2490  146.1510 C   0  0  0  0  0  2  0  0  0  0  0  0
  161.4090  204.0710  145.2010 C   0  0  0  0  0  2  0  0  0  0  0  0
  161.0070  202.0830  146.6550 C   0  0  0  0  0  1  0  0  0  0  0  0
  160.8650  202.6500  145.2550 C   0  0  0  0  0  2  0  0  0  0  0  0
  1  8  1  6  0  0  0
  1  6  1  0  0  0  0
  2 12  1  6  0  0  0
  2  1  1  0  0  0  0
  2  4  1  0  0  0  0
  3 13  1  0  0  0  0
  3 11  1  0  0  0  0
  4  6  1  0  0  0  0
  4  3  2  0  0  0  0
  5 12  1  1  0  0  0
  5  2  1  0  0  0  0
  6  7  2  0  0  0  0
  7 10  1  0  0  0  0
  9 27  1  1  0  0  0
  9  5  1  0  0  0  0
  9  8  1  0  0  0  0
 10 11  2  0  0  0  0
 13 16  1  0  0  0  0
 13 14  2  0  0  0  0
 15 13  2  0  0  0  0
 16 22  1  0  0  0  0
 17 18  1  6  0  0  0
 17 20  1  0  0  0  0
 19 17  1  0  0  0  0
 19 22  1  0  0  0  0
 20 21  1  0  0  0  0
 22 21  2  0  0  0  0
 24 21  1  6  0  0  0
 24 26  1  0  0  0  0
 24 25  1  0  0  0  0
 25 23  1  6  0  0  0
 26 25  1  0  0  0  0
 28 27  1  0  0  0  0
 29 31  1  0  0  0  0
 29 28  1  0  0  0  0
 31 30  1  0  0  0  0
M  END
>  <MODEL>
8

>  <REMARK>
 VINA RESULT:      -6.9      1.783      2.248
  Name = 
  8 active torsions:
  status: ('A' for Active; 'I' for Inactive)
    1  A    between atoms: C_5  and  S_15
    2  A    between atoms: C_6  and  C_8
    3  A    between atoms: C_6  and  N_25
    4  A    between atoms: C_8  and  C_27
    5  A    between atoms: S_15  and  N_29
    6  A    between atoms: C_17  and  C_24
    7  A    between atoms: C_23  and  N_25
    8  A    between atoms: N_29  and  C_31
                            x       y       z     vdW  Elec       q    Type
                         _______ _______ _______ _____ _____    ______ ____

>  <TORSDO>
F 8

$$$$
=
 OpenBabel11072412133D

 31 36  0  0  1  0  0  0  0  0999 V2000
  162.9330  206.5430  151.0900 C   0  0  2  0  0  3  0  0  0  0  0  0
  162.2990  207.2150  152.2300 C   0  0  2  0  0  0  0  0  0  0  0  0
  161.4920  209.6400  151.1510 C   0  0  0  0  0  0  0  0  0  0  0  0
  162.0160  208.3660  151.2890 C   0  0  0  0  0  0  0  0  0  0  0  0
  161.7260  205.9780  152.9670 C   0  0  2  0  0  3  0  0  0  0  0  0
  162.5820  207.6690  150.1990 C   0  0  0  0  0  0  0  0  0  0  0  0
  162.6280  208.2030  148.9290 C   0  0  0  0  0  3  0  0  0  0  0  0
  162.2350  205.3780  150.7450 O   0  0  0  0  0  0  0  0  0  0  0  0
  161.8880  204.8340  151.9830 C   0  0  2  0  0  3  0  0  0  0  0  0
  162.0890  209.4580  148.7900 N   0  0  0  0  0  0  0  0  0  0  0  0
  161.5410  210.1710  149.8390 C   0  0  0  0  0  3  0  0  0  0  0  0
  160.7800  206.9540  152.4780 C   0  0  0  0  0  2  0  0  0  0  0  0
  160.8050  210.5380  152.4920 S   0  0  0  0  0  0  0  0  0  0  0  0
  160.7380  211.9980  152.1340 O   0  0  0  0  0  0  0  0  0  0  0  0
  159.4200  210.0150  152.7610 O   0  0  0  0  0  0  0  0  0  0  0  0
  161.8130  210.3110  153.8840 N   0  0  0  0  0  2  0  0  0  0  0  0
  161.1770  208.4660  157.0880 C   0  0  1  0  0  3  0  0  0  0  0  0
  160.0870  207.4160  157.1740 C   0  0  0  0  0  1  0  0  0  0  0  0
  161.7610  208.4870  155.6750 C   0  0  0  0  0  2  0  0  0  0  0  0
  160.6110  209.7550  157.2610 O   0  0  0  0  0  0  0  0  0  0  0  0
  160.7720  210.5310  156.1270 C   0  0  0  0  0  0  0  0  0  0  0  0
  161.4130  209.8500  155.1850 C   0  0  0  0  0  0  0  0  0  0  0  0
  158.0980  210.9020  155.6830 N   0  0  0  0  0  1  0  0  0  0  0  0
  160.3010  211.9580  156.0520 C   0  0  1  0  0  3  0  0  0  0  0  0
  158.8350  212.1520  155.8190 C   0  0  2  0  0  3  0  0  0  0  0  0
  159.4030  212.2250  157.1040 O   0  0  0  0  0  0  0  0  0  0  0  0
  160.6550  204.0730  151.8650 N   0  0  0  0  0  2  0  0  0  0  0  0
  160.9800  202.8640  151.1230 C   0  0  0  0  0  2  0  0  0  0  0  0
  160.5240  203.0000  149.6790 C   0  0  0  0  0  2  0  0  0  0  0  0
  161.2640  200.8690  148.6130 C   0  0  0  0  0  1  0  0  0  0  0  0
  160.0710  201.6620  149.1130 C   0  0  0  0  0  2  0  0  0  0  0  0
  1  6  1  6  0  0  0
  1  2  1  0  0  0  0
  2 12  1  6  0  0  0
  2  5  1  0  0  0  0
  3  4  1  0  0  0  0
  3 13  1  0  0  0  0
  4  2  1  0  0  0  0
  5 12  1  6  0  0  0
  6  4  2  0  0  0  0
  7  6  1  0  0  0  0
  8  1  1  0  0  0  0
  8  9  1  0  0  0  0
  9 27  1  6  0  0  0
  9  5  1  0  0  0  0
 10  7  2  0  0  0  0
 10 11  1  0  0  0  0
 11  3  2  0  0  0  0
 13 15  2  0  0  0  0
 13 16  1  0  0  0  0
 14 13  2  0  0  0  0
 16 22  1  0  0  0  0
 17 18  1  6  0  0  0
 17 20  1  0  0  0  0
 19 17  1  0  0  0  0
 21 20  1  0  0  0  0
 22 19  1  0  0  0  0
 22 21  2  0  0  0  0
 24 21  1  1  0  0  0
 24 26  1  0  0  0  0
 25 23  1  1  0  0  0
 25 24  1  0  0  0  0
 25 26  1  0  0  0  0
 28 27  1  0  0  0  0
 29 28  1  0  0  0  0
 30 31  1  0  0  0  0
 31 29  1  0  0  0  0
M  END
>  <MODEL>
9

>  <REMARK>
 VINA RESULT:      -6.8      2.512      3.952
  Name = 
  8 active torsions:
  status: ('A' for Active; 'I' for Inactive)
    1  A    between atoms: C_5  and  S_15
    2  A    between atoms: C_6  and  C_8
    3  A    between atoms: C_6  and  N_25
    4  A    between atoms: C_8  and  C_27
    5  A    between atoms: S_15  and  N_29
    6  A    between atoms: C_17  and  C_24
    7  A    between atoms: C_23  and  N_25
    8  A    between atoms: N_29  and  C_31
                            x       y       z     vdW  Elec       q    Type
                         _______ _______ _______ _____ _____    ______ ____

>  <TORSDO>
F 8

$$$$
