=
 OpenBabel11072414103D

 28 32  0  0  1  0  0  0  0  0999 V2000
  158.9100  213.5660  154.3650 C   0  0  0  0  0  0  0  0  0  0  0  0
  161.6330  208.7690  150.6910 S   0  0  0  0  0  0  0  0  0  0  0  0
  161.8900  206.9510  150.4610 C   0  0  1  0  0  3  0  0  0  0  0  0
  160.9760  210.7270  155.0950 C   0  0  0  0  0  0  0  0  0  0  0  0
  160.6820  209.3110  153.3310 C   0  0  0  0  0  0  0  0  0  0  0  0
  160.7350  209.5660  155.6330 N   0  0  0  0  0  0  0  0  0  0  0  0
  158.5600  214.2500  155.5230 O   0  0  0  0  0  1  0  0  0  0  0  0
  160.0930  211.7670  153.2640 C   0  0  0  0  0  0  0  0  0  0  0  0
  160.3240  211.8940  155.5910 N   0  0  0  0  0  2  0  0  0  0  0  0
  159.7640  212.4640  154.4140 C   0  0  0  0  0  0  0  0  0  0  0  0
  160.8930  207.0330  154.4140 S   0  0  0  0  0  0  0  0  0  0  0  0
  161.6620  206.1660  151.7710 C   0  0  1  0  0  3  0  0  0  0  0  0
  158.7640  213.2740  151.9480 C   0  0  0  0  0  3  0  0  0  0  0  0
  158.4080  213.9710  153.1180 C   0  0  0  0  0  3  0  0  0  0  0  0
  161.0880  210.7120  153.5840 C   0  0  1  0  0  3  0  0  0  0  0  0
  160.9770  208.4310  152.2990 C   0  0  0  0  0  0  0  0  0  0  0  0
  159.6240  212.1650  152.0130 C   0  0  0  0  0  3  0  0  0  0  0  0
  160.5870  208.6890  154.5330 C   0  0  0  0  0  0  0  0  0  0  0  0
  162.9980  205.6610  152.2810 C   0  0  0  0  0  1  0  0  0  0  0  0
  161.0810  207.1380  152.7260 C   0  0  0  0  0  0  0  0  0  0  0  0
  161.0600  206.4240  149.2850 C   0  0  2  0  0  3  0  0  0  0  0  0
  161.3630  204.0290  149.0920 O   0  0  0  0  0  1  0  0  0  0  0  0
  160.4770  205.0240  149.5130 C   0  0  0  0  0  2  0  0  0  0  0  0
  161.8280  206.5270  147.9710 C   0  0  0  0  0  2  0  0  0  0  0  0
  160.8680  206.5160  146.7930 C   0  0  0  0  0  2  0  0  0  0  0  0
  160.9020  205.7460  144.5360 O   0  0  0  0  0  1  0  0  0  0  0  0
  162.7000  205.0920  145.9390 C   0  0  0  0  0  1  0  0  0  0  0  0
  161.2180  205.3840  145.8450 C   0  0  1  0  0  3  0  0  0  0  0  0
  1 10  1  0  0  0  0
  1  7  1  0  0  0  0
  2 16  1  0  0  0  0
  3 21  1  6  0  0  0
  3  2  1  0  0  0  0
  3 12  1  0  0  0  0
  4  9  1  0  0  0  0
  4  6  2  0  0  0  0
  5 15  1  0  0  0  0
  5 18  2  0  0  0  0
  8 10  2  0  0  0  0
 10  9  1  0  0  0  0
 11 18  1  0  0  0  0
 12 19  1  1  0  0  0
 12 20  1  0  0  0  0
 13 17  2  0  0  0  0
 13 14  1  0  0  0  0
 14  1  2  0  0  0  0
 15  8  1  6  0  0  0
 15  4  1  0  0  0  0
 16 20  2  0  0  0  0
 16  5  1  0  0  0  0
 17  8  1  0  0  0  0
 18  6  1  0  0  0  0
 20 11  1  0  0  0  0
 21 24  1  6  0  0  0
 21 23  1  0  0  0  0
 22 23  1  0  0  0  0
 25 24  1  0  0  0  0
 26 28  1  0  0  0  0
 28 27  1  6  0  0  0
 28 25  1  0  0  0  0
M  END
>  <MODEL>
1

>  <REMARK>
 VINA RESULT:      -7.4      0.000      0.000
  Name = 
  5 active torsions:
  status: ('A' for Active; 'I' for Inactive)
    1  A    between atoms: C_4  and  C_19
    2  A    between atoms: C_6  and  C_19
    3  A    between atoms: C_11  and  C_16
    4  A    between atoms: C_11  and  C_22
    5  A    between atoms: C_16  and  C_19
                            x       y       z     vdW  Elec       q    Type
                         _______ _______ _______ _____ _____    ______ ____

>  <TORSDO>
F 5

$$$$
=
 OpenBabel11072414103D

 28 32  0  0  1  0  0  0  0  0999 V2000
  161.8770  209.6720  151.6420 C   0  0  0  0  0  0  0  0  0  0  0  0
  162.2010  204.2110  147.8990 S   0  0  0  0  0  0  0  0  0  0  0  0
  161.5040  202.5340  147.5420 C   0  0  1  0  0  3  0  0  0  0  0  0
  162.0340  206.1600  152.3530 C   0  0  0  0  0  0  0  0  0  0  0  0
  161.3030  205.1370  150.4500 C   0  0  0  0  0  0  0  0  0  0  0  0
  161.1510  205.2940  152.7570 N   0  0  0  0  0  0  0  0  0  0  0  0
  161.7710  210.4210  152.8070 O   0  0  0  0  0  1  0  0  0  0  0  0
  162.0950  207.5350  150.5310 C   0  0  0  0  0  0  0  0  0  0  0  0
  162.0220  207.4890  152.8710 N   0  0  0  0  0  2  0  0  0  0  0  0
  162.0150  208.2840  151.6920 C   0  0  0  0  0  0  0  0  0  0  0  0
  160.1410  203.0750  151.3470 S   0  0  0  0  0  0  0  0  0  0  0  0
  160.7160  201.9700  148.7450 C   0  0  1  0  0  3  0  0  0  0  0  0
  161.9480  209.5340  149.2070 C   0  0  0  0  0  3  0  0  0  0  0  0
  161.8430  210.2980  150.3860 C   0  0  0  0  0  3  0  0  0  0  0  0
  162.3380  206.1100  150.8690 C   0  0  1  0  0  3  0  0  0  0  0  0
  161.2420  204.2480  149.3860 C   0  0  0  0  0  0  0  0  0  0  0  0
  162.0860  208.1380  149.2730 C   0  0  0  0  0  3  0  0  0  0  0  0
  160.7280  204.6420  151.5750 C   0  0  0  0  0  0  0  0  0  0  0  0
  161.5060  200.8290  149.3590 C   0  0  0  0  0  1  0  0  0  0  0  0
  160.5960  203.0890  149.7070 C   0  0  0  0  0  0  0  0  0  0  0  0
  160.7000  202.5400  146.2380 C   0  0  2  0  0  3  0  0  0  0  0  0
  159.4350  201.1990  144.6690 O   0  0  0  0  0  1  0  0  0  0  0  0
  160.3700  201.1410  145.7040 C   0  0  0  0  0  2  0  0  0  0  0  0
  161.3570  203.4240  145.1830 C   0  0  0  0  0  2  0  0  0  0  0  0
  160.3380  204.3740  144.5760 C   0  0  0  0  0  2  0  0  0  0  0  0
  160.1630  206.3730  145.8660 O   0  0  0  0  0  1  0  0  0  0  0  0
  162.2900  205.8410  144.9580 C   0  0  0  0  0  1  0  0  0  0  0  0
  160.7900  205.8110  144.7540 C   0  0  1  0  0  3  0  0  0  0  0  0
  1 10  1  0  0  0  0
  1  7  1  0  0  0  0
  2 16  1  0  0  0  0
  3 21  1  6  0  0  0
  3  2  1  0  0  0  0
  3 12  1  0  0  0  0
  4  6  2  0  0  0  0
  4  9  1  0  0  0  0
  5 18  2  0  0  0  0
  8 15  1  0  0  0  0
  8 10  2  0  0  0  0
 10  9  1  0  0  0  0
 11 18  1  0  0  0  0
 12 19  1  1  0  0  0
 12 20  1  0  0  0  0
 13 17  2  0  0  0  0
 13 14  1  0  0  0  0
 14  1  2  0  0  0  0
 15  5  1  6  0  0  0
 15  4  1  0  0  0  0
 16 20  2  0  0  0  0
 16  5  1  0  0  0  0
 17  8  1  0  0  0  0
 18  6  1  0  0  0  0
 20 11  1  0  0  0  0
 21 24  1  6  0  0  0
 22 23  1  0  0  0  0
 23 21  1  0  0  0  0
 25 28  1  0  0  0  0
 25 24  1  0  0  0  0
 28 27  1  1  0  0  0
 28 26  1  0  0  0  0
M  END
>  <MODEL>
2

>  <REMARK>
 VINA RESULT:      -7.3      3.445      4.998
  Name = 
  5 active torsions:
  status: ('A' for Active; 'I' for Inactive)
    1  A    between atoms: C_4  and  C_19
    2  A    between atoms: C_6  and  C_19
    3  A    between atoms: C_11  and  C_16
    4  A    between atoms: C_11  and  C_22
    5  A    between atoms: C_16  and  C_19
                            x       y       z     vdW  Elec       q    Type
                         _______ _______ _______ _____ _____    ______ ____

>  <TORSDO>
F 5

$$$$
=
 OpenBabel11072414103D

 28 32  0  0  1  0  0  0  0  0999 V2000
  161.7150  209.6750  155.5120 C   0  0  0  0  0  0  0  0  0  0  0  0
  159.9810  205.4910  150.6730 S   0  0  0  0  0  0  0  0  0  0  0  0
  160.3860  204.7990  149.0050 C   0  0  1  0  0  3  0  0  0  0  0  0
  161.2940  209.9940  151.9650 C   0  0  0  0  0  0  0  0  0  0  0  0
  161.4900  207.8710  151.1520 C   0  0  0  0  0  0  0  0  0  0  0  0
  162.1320  210.0900  150.9740 N   0  0  0  0  0  0  0  0  0  0  0  0
  162.1470  210.8660  156.0810 O   0  0  0  0  0  1  0  0  0  0  0  0
  161.0210  208.4000  153.5780 C   0  0  0  0  0  0  0  0  0  0  0  0
  161.5700  210.6460  153.2030 N   0  0  0  0  0  2  0  0  0  0  0  0
  161.4270  209.5930  154.1490 C   0  0  0  0  0  0  0  0  0  0  0  0
  162.5590  208.2460  148.8890 S   0  0  0  0  0  0  0  0  0  0  0  0
  161.3330  205.7250  148.2110 C   0  0  1  0  0  3  0  0  0  0  0  0
  161.1270  207.3160  155.7190 C   0  0  0  0  0  3  0  0  0  0  0  0
  161.5630  208.5230  156.3000 C   0  0  0  0  0  3  0  0  0  0  0  0
  160.6860  208.6170  152.1470 C   0  0  1  0  0  3  0  0  0  0  0  0
  161.2240  206.7240  150.4170 C   0  0  0  0  0  0  0  0  0  0  0  0
  160.8420  207.2500  154.3450 C   0  0  0  0  0  3  0  0  0  0  0  0
  162.2220  208.7770  150.4560 C   0  0  0  0  0  0  0  0  0  0  0  0
  160.5570  206.3620  147.0730 C   0  0  0  0  0  1  0  0  0  0  0  0
  161.7800  206.7600  149.1700 C   0  0  0  0  0  0  0  0  0  0  0  0
  160.8980  203.3580  149.1180 C   0  0  2  0  0  3  0  0  0  0  0  0
  161.1770  202.0860  151.1590 O   0  0  0  0  0  1  0  0  0  0  0  0
  161.7390  203.0950  150.3720 C   0  0  0  0  0  2  0  0  0  0  0  0
  161.6050  202.9170  147.8410 C   0  0  0  0  0  2  0  0  0  0  0  0
  160.8650  201.7560  147.1980 C   0  0  0  0  0  2  0  0  0  0  0  0
  159.6930  201.4660  145.1410 O   0  0  0  0  0  1  0  0  0  0  0  0
  161.1530  203.3280  145.3120 C   0  0  0  0  0  1  0  0  0  0  0  0
  160.9070  201.8820  145.6860 C   0  0  1  0  0  3  0  0  0  0  0  0
  1  7  1  0  0  0  0
  1 14  1  0  0  0  0
  3 21  1  1  0  0  0
  3  2  1  0  0  0  0
  4 15  1  0  0  0  0
  4  9  1  0  0  0  0
  6  4  2  0  0  0  0
  8 10  1  0  0  0  0
  8 17  2  0  0  0  0
  9 10  1  0  0  0  0
 10  1  2  0  0  0  0
 11 20  1  0  0  0  0
 11 18  1  0  0  0  0
 12 19  1  6  0  0  0
 12  3  1  0  0  0  0
 12 20  1  0  0  0  0
 13 14  2  0  0  0  0
 15  5  1  6  0  0  0
 15  8  1  0  0  0  0
 16  2  1  0  0  0  0
 16  5  1  0  0  0  0
 17 13  1  0  0  0  0
 18  6  1  0  0  0  0
 18  5  2  0  0  0  0
 20 16  2  0  0  0  0
 21 24  1  6  0  0  0
 21 23  1  0  0  0  0
 23 22  1  0  0  0  0
 25 24  1  0  0  0  0
 26 28  1  0  0  0  0
 28 27  1  1  0  0  0
 28 25  1  0  0  0  0
M  END
>  <MODEL>
3

>  <REMARK>
 VINA RESULT:      -7.3      2.741      4.254
  Name = 
  5 active torsions:
  status: ('A' for Active; 'I' for Inactive)
    1  A    between atoms: C_4  and  C_19
    2  A    between atoms: C_6  and  C_19
    3  A    between atoms: C_11  and  C_16
    4  A    between atoms: C_11  and  C_22
    5  A    between atoms: C_16  and  C_19
                            x       y       z     vdW  Elec       q    Type
                         _______ _______ _______ _____ _____    ______ ____

>  <TORSDO>
F 5

$$$$
=
 OpenBabel11072414103D

 28 32  0  0  1  0  0  0  0  0999 V2000
  160.6390  201.7210  147.0300 C   0  0  0  0  0  0  0  0  0  0  0  0
  161.9030  206.1630  151.7850 S   0  0  0  0  0  0  0  0  0  0  0  0
  161.7610  207.9230  152.3380 C   0  0  1  0  0  3  0  0  0  0  0  0
  162.1610  204.9690  147.0760 C   0  0  0  0  0  0  0  0  0  0  0  0
  161.3880  205.9580  148.9810 C   0  0  0  0  0  0  0  0  0  0  0  0
  161.7540  206.1470  146.7020 N   0  0  0  0  0  0  0  0  0  0  0  0
  160.5680  201.2130  145.7400 O   0  0  0  0  0  1  0  0  0  0  0  0
  161.3020  203.4670  148.5670 C   0  0  0  0  0  0  0  0  0  0  0  0
  161.8180  203.8160  146.3100 N   0  0  0  0  0  2  0  0  0  0  0  0
  161.2530  202.9480  147.2850 C   0  0  0  0  0  0  0  0  0  0  0  0
  161.2590  208.3980  148.3200 S   0  0  0  0  0  0  0  0  0  0  0  0
  161.5300  208.8830  151.1500 C   0  0  1  0  0  3  0  0  0  0  0  0
  160.1620  201.5310  149.4150 C   0  0  0  0  0  3  0  0  0  0  0  0
  160.0890  201.0100  148.1090 C   0  0  0  0  0  3  0  0  0  0  0  0
  162.0940  204.7230  148.5710 C   0  0  1  0  0  3  0  0  0  0  0  0
  161.3800  206.6700  150.1730 C   0  0  0  0  0  0  0  0  0  0  0  0
  160.7820  202.7670  149.6560 C   0  0  0  0  0  3  0  0  0  0  0  0
  161.3080  206.7650  147.8930 C   0  0  0  0  0  0  0  0  0  0  0  0
  162.7880  209.7040  150.9310 C   0  0  0  0  0  1  0  0  0  0  0  0
  161.2700  208.0170  149.9780 C   0  0  0  0  0  0  0  0  0  0  0  0
  160.7130  208.0670  153.4480 C   0  0  2  0  0  3  0  0  0  0  0  0
  161.4780  210.2160  154.2590 O   0  0  0  0  0  1  0  0  0  0  0  0
  160.3620  209.5210  153.7870 C   0  0  0  0  0  2  0  0  0  0  0  0
  161.0940  207.2570  154.6820 C   0  0  0  0  0  2  0  0  0  0  0  0
  159.9960  207.3340  155.7290 C   0  0  0  0  0  2  0  0  0  0  0  0
  161.9370  207.9910  156.9500 O   0  0  0  0  0  1  0  0  0  0  0  0
  159.9660  209.2750  157.2600 C   0  0  0  0  0  1  0  0  0  0  0  0
  160.5470  207.8970  157.0250 C   0  0  1  0  0  3  0  0  0  0  0  0
  1 10  2  0  0  0  0
  1 14  1  0  0  0  0
  2  3  1  0  0  0  0
  3 21  1  1  0  0  0
  5 16  1  0  0  0  0
  6  4  2  0  0  0  0
  6 18  1  0  0  0  0
  7  1  1  0  0  0  0
  8 15  1  0  0  0  0
  8 17  2  0  0  0  0
  9  4  1  0  0  0  0
  9 10  1  0  0  0  0
 10  8  1  0  0  0  0
 11 20  1  0  0  0  0
 12 19  1  6  0  0  0
 12  3  1  0  0  0  0
 13 17  1  0  0  0  0
 14 13  2  0  0  0  0
 15  4  1  6  0  0  0
 15  5  1  0  0  0  0
 16  2  1  0  0  0  0
 18 11  1  0  0  0  0
 18  5  2  0  0  0  0
 20 16  2  0  0  0  0
 20 12  1  0  0  0  0
 21 23  1  1  0  0  0
 21 24  1  0  0  0  0
 23 22  1  0  0  0  0
 24 25  1  0  0  0  0
 25 28  1  0  0  0  0
 26 28  1  0  0  0  0
 28 27  1  6  0  0  0
M  END
>  <MODEL>
4

>  <REMARK>
 VINA RESULT:      -7.2      3.916      9.289
  Name = 
  5 active torsions:
  status: ('A' for Active; 'I' for Inactive)
    1  A    between atoms: C_4  and  C_19
    2  A    between atoms: C_6  and  C_19
    3  A    between atoms: C_11  and  C_16
    4  A    between atoms: C_11  and  C_22
    5  A    between atoms: C_16  and  C_19
                            x       y       z     vdW  Elec       q    Type
                         _______ _______ _______ _____ _____    ______ ____

>  <TORSDO>
F 5

$$$$
=
 OpenBabel11072414103D

 28 32  0  0  1  0  0  0  0  0999 V2000
  158.9340  213.4150  153.9730 C   0  0  0  0  0  0  0  0  0  0  0  0
  162.0900  208.5940  150.6980 S   0  0  0  0  0  0  0  0  0  0  0  0
  162.3580  206.7730  150.5010 C   0  0  1  0  0  3  0  0  0  0  0  0
  160.8490  210.5530  154.9750 C   0  0  0  0  0  0  0  0  0  0  0  0
  160.7880  209.1430  153.1830 C   0  0  0  0  0  0  0  0  0  0  0  0
  160.5240  209.3940  155.4710 N   0  0  0  0  0  0  0  0  0  0  0  0
  158.4330  214.1010  155.0720 O   0  0  0  0  0  1  0  0  0  0  0  0
  160.2390  211.6050  153.0410 C   0  0  0  0  0  0  0  0  0  0  0  0
  160.1470  211.7270  155.3790 N   0  0  0  0  0  2  0  0  0  0  0  0
  159.7610  212.3040  154.1360 C   0  0  0  0  0  0  0  0  0  0  0  0
  160.8230  206.8610  154.2780 S   0  0  0  0  0  0  0  0  0  0  0  0
  161.9420  205.9900  151.7660 C   0  0  1  0  0  3  0  0  0  0  0  0
  159.1210  213.1270  151.5580 C   0  0  0  0  0  3  0  0  0  0  0  0
  158.6130  213.8270  152.6690 C   0  0  0  0  0  3  0  0  0  0  0  0
  161.1700  210.5390  153.4930 C   0  0  1  0  0  3  0  0  0  0  0  0
  161.2140  208.2610  152.1990 C   0  0  0  0  0  0  0  0  0  0  0  0
  159.9520  212.0100  151.7380 C   0  0  0  0  0  3  0  0  0  0  0  0
  160.5210  208.5200  154.3580 C   0  0  0  0  0  0  0  0  0  0  0  0
  163.1900  205.4700  152.4550 C   0  0  0  0  0  1  0  0  0  0  0  0
  161.2450  206.9660  152.6330 C   0  0  0  0  0  0  0  0  0  0  0  0
  161.6930  206.2560  149.2200 C   0  0  2  0  0  3  0  0  0  0  0  0
  160.7690  206.9220  147.0840 O   0  0  0  0  0  1  0  0  0  0  0  0
  161.0040  207.3480  148.3930 C   0  0  0  0  0  2  0  0  0  0  0  0
  160.7710  205.0770  149.5090 C   0  0  0  0  0  2  0  0  0  0  0  0
  161.2020  203.8580  148.7090 C   0  0  0  0  0  2  0  0  0  0  0  0
  161.2270  201.4740  148.7570 O   0  0  0  0  0  1  0  0  0  0  0  0
  160.9160  202.6040  150.8200 C   0  0  0  0  0  1  0  0  0  0  0  0
  160.6340  202.5970  149.3330 C   0  0  1  0  0  3  0  0  0  0  0  0
  1 10  1  0  0  0  0
  1  7  1  0  0  0  0
  2 16  1  0  0  0  0
  3 21  1  6  0  0  0
  3  2  1  0  0  0  0
  3 12  1  0  0  0  0
  4  9  1  0  0  0  0
  4  6  2  0  0  0  0
  5 15  1  0  0  0  0
  5 18  2  0  0  0  0
  8 10  2  0  0  0  0
 10  9  1  0  0  0  0
 11 18  1  0  0  0  0
 12 19  1  1  0  0  0
 12 20  1  0  0  0  0
 13 17  2  0  0  0  0
 13 14  1  0  0  0  0
 14  1  2  0  0  0  0
 15  8  1  6  0  0  0
 15  4  1  0  0  0  0
 16 20  2  0  0  0  0
 16  5  1  0  0  0  0
 17  8  1  0  0  0  0
 18  6  1  0  0  0  0
 20 11  1  0  0  0  0
 21 23  1  1  0  0  0
 21 24  1  0  0  0  0
 22 23  1  0  0  0  0
 25 28  1  0  0  0  0
 25 24  1  0  0  0  0
 26 28  1  0  0  0  0
 28 27  1  1  0  0  0
M  END
>  <MODEL>
5

>  <REMARK>
 VINA RESULT:      -7.1      1.260      2.146
  Name = 
  5 active torsions:
  status: ('A' for Active; 'I' for Inactive)
    1  A    between atoms: C_4  and  C_19
    2  A    between atoms: C_6  and  C_19
    3  A    between atoms: C_11  and  C_16
    4  A    between atoms: C_11  and  C_22
    5  A    between atoms: C_16  and  C_19
                            x       y       z     vdW  Elec       q    Type
                         _______ _______ _______ _____ _____    ______ ____

>  <TORSDO>
F 5

$$$$
=
 OpenBabel11072414103D

 28 32  0  0  1  0  0  0  0  0999 V2000
  161.8280  204.6070  147.0430 C   0  0  0  0  0  0  0  0  0  0  0  0
  160.4180  208.7040  152.0590 S   0  0  0  0  0  0  0  0  0  0  0  0
  160.6070  209.0650  153.8650 C   0  0  1  0  0  3  0  0  0  0  0  0
  160.4790  204.1550  150.3360 C   0  0  0  0  0  0  0  0  0  0  0  0
  161.1460  205.9960  151.5070 C   0  0  0  0  0  0  0  0  0  0  0  0
  160.9750  203.6870  151.4440 N   0  0  0  0  0  0  0  0  0  0  0  0
  161.9770  203.3930  146.3850 O   0  0  0  0  0  1  0  0  0  0  0  0
  161.1350  205.8750  148.9830 C   0  0  0  0  0  0  0  0  0  0  0  0
  160.8220  203.5560  149.0880 N   0  0  0  0  0  2  0  0  0  0  0  0
  161.2600  204.6680  148.3170 C   0  0  0  0  0  0  0  0  0  0  0  0
  161.4550  205.0770  153.8450 S   0  0  0  0  0  0  0  0  0  0  0  0
  160.9820  207.8010  154.6690 C   0  0  1  0  0  3  0  0  0  0  0  0
  162.1010  207.0310  147.1120 C   0  0  0  0  0  3  0  0  0  0  0  0
  162.2510  205.8020  146.4400 C   0  0  0  0  0  3  0  0  0  0  0  0
  160.4120  205.6680  150.2640 C   0  0  1  0  0  3  0  0  0  0  0  0
  161.0950  207.0960  152.3520 C   0  0  0  0  0  0  0  0  0  0  0  0
  161.5280  207.0760  148.3940 C   0  0  0  0  0  3  0  0  0  0  0  0
  161.3550  204.8350  152.1770 C   0  0  0  0  0  0  0  0  0  0  0  0
  159.7910  207.3830  155.5110 C   0  0  0  0  0  1  0  0  0  0  0  0
  161.2900  206.7610  153.6620 C   0  0  0  0  0  0  0  0  0  0  0  0
  161.5680  210.2380  154.0920 C   0  0  2  0  0  3  0  0  0  0  0  0
  163.4060  210.8030  155.5620 O   0  0  0  0  0  1  0  0  0  0  0  0
  162.0870  210.3450  155.5310 C   0  0  0  0  0  2  0  0  0  0  0  0
  160.9750  211.5490  153.5890 C   0  0  0  0  0  2  0  0  0  0  0  0
  159.9690  212.0960  154.5880 C   0  0  0  0  0  2  0  0  0  0  0  0
  158.6940  211.9060  152.5820 O   0  0  0  0  0  1  0  0  0  0  0  0
  157.5860  211.4430  154.6280 C   0  0  0  0  0  1  0  0  0  0  0  0
  158.6210  212.2900  153.9210 C   0  0  1  0  0  3  0  0  0  0  0  0
  1 10  1  0  0  0  0
  2 16  1  0  0  0  0
  2  3  1  0  0  0  0
  3 21  1  6  0  0  0
  3 12  1  0  0  0  0
  4  6  2  0  0  0  0
  5 18  2  0  0  0  0
  5 16  1  0  0  0  0
  6 18  1  0  0  0  0
  7  1  1  0  0  0  0
  9  4  1  0  0  0  0
 10  8  2  0  0  0  0
 10  9  1  0  0  0  0
 12 19  1  1  0  0  0
 13 17  2  0  0  0  0
 14  1  2  0  0  0  0
 14 13  1  0  0  0  0
 15  8  1  6  0  0  0
 15  4  1  0  0  0  0
 15  5  1  0  0  0  0
 16 20  2  0  0  0  0
 17  8  1  0  0  0  0
 18 11  1  0  0  0  0
 20 11  1  0  0  0  0
 20 12  1  0  0  0  0
 21 24  1  1  0  0  0
 21 23  1  0  0  0  0
 23 22  1  0  0  0  0
 24 25  1  0  0  0  0
 26 28  1  0  0  0  0
 28 25  1  0  0  0  0
 28 27  1  1  0  0  0
M  END
>  <MODEL>
6

>  <REMARK>
 VINA RESULT:      -6.8      2.836      8.095
  Name = 
  5 active torsions:
  status: ('A' for Active; 'I' for Inactive)
    1  A    between atoms: C_4  and  C_19
    2  A    between atoms: C_6  and  C_19
    3  A    between atoms: C_11  and  C_16
    4  A    between atoms: C_11  and  C_22
    5  A    between atoms: C_16  and  C_19
                            x       y       z     vdW  Elec       q    Type
                         _______ _______ _______ _____ _____    ______ ____

>  <TORSDO>
F 5

$$$$
=
 OpenBabel11072414103D

 28 32  0  0  1  0  0  0  0  0999 V2000
  161.3250  209.0020  155.4240 C   0  0  0  0  0  0  0  0  0  0  0  0
  160.4550  205.5250  149.8480 S   0  0  0  0  0  0  0  0  0  0  0  0
  160.9770  205.2560  148.0930 C   0  0  1  0  0  3  0  0  0  0  0  0
  160.8040  209.8810  151.9860 C   0  0  0  0  0  0  0  0  0  0  0  0
  161.4340  208.0360  150.8010 C   0  0  0  0  0  0  0  0  0  0  0  0
  161.5920  210.3330  151.0540 N   0  0  0  0  0  0  0  0  0  0  0  0
  161.5020  210.1300  156.2140 O   0  0  0  0  0  1  0  0  0  0  0  0
  160.8920  207.9940  153.2680 C   0  0  0  0  0  0  0  0  0  0  0  0
  160.9510  210.3340  153.3300 N   0  0  0  0  0  2  0  0  0  0  0  0
  161.0440  209.1180  154.0620 C   0  0  0  0  0  0  0  0  0  0  0  0
  162.3740  209.0420  148.6770 S   0  0  0  0  0  0  0  0  0  0  0  0
  161.6990  206.4910  147.5110 C   0  0  1  0  0  3  0  0  0  0  0  0
  161.2500  206.5770  155.1750 C   0  0  0  0  0  3  0  0  0  0  0  0
  161.4280  207.7170  155.9810 C   0  0  0  0  0  3  0  0  0  0  0  0
  160.5020  208.3980  151.8940 C   0  0  1  0  0  3  0  0  0  0  0  0
  161.4070  207.0170  149.8600 C   0  0  0  0  0  0  0  0  0  0  0  0
  160.9680  206.7090  153.8050 C   0  0  0  0  0  3  0  0  0  0  0  0
  161.9500  209.1880  150.3050 C   0  0  0  0  0  0  0  0  0  0  0  0
  160.7930  207.1520  146.4880 C   0  0  0  0  0  1  0  0  0  0  0  0
  161.9290  207.4000  148.6570 C   0  0  0  0  0  0  0  0  0  0  0  0
  161.7830  203.9600  147.9530 C   0  0  2  0  0  3  0  0  0  0  0  0
  161.9800  203.8260  145.5430 O   0  0  0  0  0  1  0  0  0  0  0  0
  162.7090  203.9320  146.7300 C   0  0  0  0  0  2  0  0  0  0  0  0
  160.8810  202.7330  148.0260 C   0  0  0  0  0  2  0  0  0  0  0  0
  161.5810  201.6020  148.7610 C   0  0  0  0  0  2  0  0  0  0  0  0
  161.1510  202.1750  151.0360 O   0  0  0  0  0  1  0  0  0  0  0  0
  159.3410  201.3160  149.7650 C   0  0  0  0  0  1  0  0  0  0  0  0
  160.8290  201.2600  150.0340 C   0  0  1  0  0  3  0  0  0  0  0  0
  1 14  1  0  0  0  0
  1  7  1  0  0  0  0
  2 16  1  0  0  0  0
  3 21  1  1  0  0  0
  3  2  1  0  0  0  0
  4  9  1  0  0  0  0
  6  4  2  0  0  0  0
  8 17  2  0  0  0  0
  8 10  1  0  0  0  0
  9 10  1  0  0  0  0
 10  1  2  0  0  0  0
 11 18  1  0  0  0  0
 12 19  1  6  0  0  0
 12  3  1  0  0  0  0
 12 20  1  0  0  0  0
 13 14  2  0  0  0  0
 15  5  1  6  0  0  0
 15  4  1  0  0  0  0
 15  8  1  0  0  0  0
 16  5  1  0  0  0  0
 17 13  1  0  0  0  0
 18  5  2  0  0  0  0
 18  6  1  0  0  0  0
 20 11  1  0  0  0  0
 20 16  2  0  0  0  0
 21 23  1  6  0  0  0
 21 24  1  0  0  0  0
 22 23  1  0  0  0  0
 24 25  1  0  0  0  0
 25 28  1  0  0  0  0
 28 27  1  6  0  0  0
 28 26  1  0  0  0  0
M  END
>  <MODEL>
7

>  <REMARK>
 VINA RESULT:      -6.7      2.669      4.880
  Name = 
  5 active torsions:
  status: ('A' for Active; 'I' for Inactive)
    1  A    between atoms: C_4  and  C_19
    2  A    between atoms: C_6  and  C_19
    3  A    between atoms: C_11  and  C_16
    4  A    between atoms: C_11  and  C_22
    5  A    between atoms: C_16  and  C_19
                            x       y       z     vdW  Elec       q    Type
                         _______ _______ _______ _____ _____    ______ ____

>  <TORSDO>
F 5

$$$$
=
 OpenBabel11072414103D

 28 32  0  0  1  0  0  0  0  0999 V2000
  160.6100  202.0220  147.4390 C   0  0  0  0  0  0  0  0  0  0  0  0
  162.0790  206.4410  152.1570 S   0  0  0  0  0  0  0  0  0  0  0  0
  161.9740  208.2010  152.7170 C   0  0  1  0  0  3  0  0  0  0  0  0
  162.1670  205.2530  147.4400 C   0  0  0  0  0  0  0  0  0  0  0  0
  161.4690  206.2470  149.3710 C   0  0  0  0  0  0  0  0  0  0  0  0
  161.7610  206.4360  147.0810 N   0  0  0  0  0  0  0  0  0  0  0  0
  160.4900  201.5170  146.1510 O   0  0  0  0  0  1  0  0  0  0  0  0
  161.3420  203.7580  148.9560 C   0  0  0  0  0  0  0  0  0  0  0  0
  161.7870  204.1050  146.6830 N   0  0  0  0  0  2  0  0  0  0  0  0
  161.2450  203.2420  147.6760 C   0  0  0  0  0  0  0  0  0  0  0  0
  161.3440  208.6890  148.7180 S   0  0  0  0  0  0  0  0  0  0  0  0
  161.7140  209.1660  151.5390 C   0  0  1  0  0  3  0  0  0  0  0  0
  160.2100  201.8320  149.8380 C   0  0  0  0  0  3  0  0  0  0  0  0
  160.0880  201.3140  148.5340 C   0  0  0  0  0  3  0  0  0  0  0  0
  162.1480  205.0050  148.9350 C   0  0  1  0  0  3  0  0  0  0  0  0
  161.5080  206.9560  150.5630 C   0  0  0  0  0  0  0  0  0  0  0  0
  160.8510  203.0610  150.0600 C   0  0  0  0  0  3  0  0  0  0  0  0
  161.3610  207.0570  148.2880 C   0  0  0  0  0  0  0  0  0  0  0  0
  162.9720  209.9730  151.2780 C   0  0  0  0  0  1  0  0  0  0  0  0
  161.4060  208.3050  150.3740 C   0  0  0  0  0  0  0  0  0  0  0  0
  160.9650  208.3540  153.8600 C   0  0  2  0  0  3  0  0  0  0  0  0
  160.2350  207.0480  155.7630 O   0  0  0  0  0  1  0  0  0  0  0  0
  160.4040  207.0240  154.3770 C   0  0  0  0  0  2  0  0  0  0  0  0
  159.8650  209.3490  153.5040 C   0  0  0  0  0  2  0  0  0  0  0  0
  159.9380  210.5680  154.4070 C   0  0  0  0  0  2  0  0  0  0  0  0
  159.0900  211.5940  152.4280 O   0  0  0  0  0  1  0  0  0  0  0  0
  159.1510  212.9110  154.4000 C   0  0  0  0  0  1  0  0  0  0  0  0
  159.8340  211.8370  153.5820 C   0  0  1  0  0  3  0  0  0  0  0  0
  1 10  2  0  0  0  0
  1 14  1  0  0  0  0
  2  3  1  0  0  0  0
  3 21  1  1  0  0  0
  5 16  1  0  0  0  0
  6  4  2  0  0  0  0
  6 18  1  0  0  0  0
  7  1  1  0  0  0  0
  8 17  2  0  0  0  0
  9  4  1  0  0  0  0
  9 10  1  0  0  0  0
 10  8  1  0  0  0  0
 11 20  1  0  0  0  0
 12 19  1  6  0  0  0
 12  3  1  0  0  0  0
 13 17  1  0  0  0  0
 14 13  2  0  0  0  0
 15  4  1  6  0  0  0
 15  8  1  0  0  0  0
 15  5  1  0  0  0  0
 16  2  1  0  0  0  0
 18 11  1  0  0  0  0
 18  5  2  0  0  0  0
 20 16  2  0  0  0  0
 20 12  1  0  0  0  0
 21 24  1  6  0  0  0
 21 23  1  0  0  0  0
 23 22  1  0  0  0  0
 24 25  1  0  0  0  0
 26 28  1  0  0  0  0
 28 27  1  1  0  0  0
 28 25  1  0  0  0  0
M  END
>  <MODEL>
8

>  <REMARK>
 VINA RESULT:      -6.4      3.639      8.800
  Name = 
  5 active torsions:
  status: ('A' for Active; 'I' for Inactive)
    1  A    between atoms: C_4  and  C_19
    2  A    between atoms: C_6  and  C_19
    3  A    between atoms: C_11  and  C_16
    4  A    between atoms: C_11  and  C_22
    5  A    between atoms: C_16  and  C_19
                            x       y       z     vdW  Elec       q    Type
                         _______ _______ _______ _____ _____    ______ ____

>  <TORSDO>
F 5

$$$$
=
 OpenBabel11072414103D

 28 32  0  0  1  0  0  0  0  0999 V2000
  161.2580  201.1980  147.1550 C   0  0  0  0  0  0  0  0  0  0  0  0
  160.7020  207.3240  149.6240 S   0  0  0  0  0  0  0  0  0  0  0  0
  161.2110  208.5130  150.9490 C   0  0  1  0  0  3  0  0  0  0  0  0
  160.5460  202.5260  150.4100 C   0  0  0  0  0  0  0  0  0  0  0  0
  161.3760  204.6500  150.3780 C   0  0  0  0  0  0  0  0  0  0  0  0
  161.2460  202.6290  151.5020 N   0  0  0  0  0  0  0  0  0  0  0  0
  161.3090  199.8110  147.1730 O   0  0  0  0  0  1  0  0  0  0  0  0
  160.9050  203.3030  148.2930 C   0  0  0  0  0  0  0  0  0  0  0  0
  160.6660  201.3660  149.5880 N   0  0  0  0  0  2  0  0  0  0  0  0
  160.9310  201.9190  148.3040 C   0  0  0  0  0  0  0  0  0  0  0  0
  162.1280  204.9820  152.7710 S   0  0  0  0  0  0  0  0  0  0  0  0
  161.7550  207.7850  152.1980 C   0  0  1  0  0  3  0  0  0  0  0  0
  161.4860  203.3140  145.9620 C   0  0  0  0  0  3  0  0  0  0  0  0
  161.5370  201.9070  145.9750 C   0  0  0  0  0  3  0  0  0  0  0  0
  160.4330  203.8070  149.6070 C   0  0  1  0  0  3  0  0  0  0  0  0
  161.4560  206.0240  150.5580 C   0  0  0  0  0  0  0  0  0  0  0  0
  161.1570  204.0260  147.1270 C   0  0  0  0  0  3  0  0  0  0  0  0
  161.7290  203.9580  151.4900 C   0  0  0  0  0  0  0  0  0  0  0  0
  160.7480  207.9230  153.3240 C   0  0  0  0  0  1  0  0  0  0  0  0
  161.8960  206.3640  151.8060 C   0  0  0  0  0  0  0  0  0  0  0  0
  162.1720  209.5720  150.3960 C   0  0  2  0  0  3  0  0  0  0  0  0
  160.9750  211.1490  151.7890 O   0  0  0  0  0  1  0  0  0  0  0  0
  162.2210  210.8600  151.2260 C   0  0  0  0  0  2  0  0  0  0  0  0
  161.9120  209.8420  148.9180 C   0  0  0  0  0  2  0  0  0  0  0  0
  162.4320  211.2160  148.5300 C   0  0  0  0  0  2  0  0  0  0  0  0
  160.6410  212.7820  148.6940 O   0  0  0  0  0  1  0  0  0  0  0  0
  162.0040  212.8810  146.7540 C   0  0  0  0  0  1  0  0  0  0  0  0
  161.3560  211.9930  147.7940 C   0  0  1  0  0  3  0  0  0  0  0  0
  1  7  1  0  0  0  0
  1 10  1  0  0  0  0
  2 16  1  0  0  0  0
  2  3  1  0  0  0  0
  3 21  1  6  0  0  0
  3 12  1  0  0  0  0
  4  6  2  0  0  0  0
  5 16  1  0  0  0  0
  5 18  2  0  0  0  0
  8 10  2  0  0  0  0
  9  4  1  0  0  0  0
 10  9  1  0  0  0  0
 12 19  1  1  0  0  0
 13 14  1  0  0  0  0
 13 17  2  0  0  0  0
 14  1  2  0  0  0  0
 15  8  1  6  0  0  0
 15  5  1  0  0  0  0
 15  4  1  0  0  0  0
 16 20  2  0  0  0  0
 17  8  1  0  0  0  0
 18  6  1  0  0  0  0
 18 11  1  0  0  0  0
 20 12  1  0  0  0  0
 20 11  1  0  0  0  0
 21 24  1  6  0  0  0
 21 23  1  0  0  0  0
 23 22  1  0  0  0  0
 25 24  1  0  0  0  0
 28 27  1  6  0  0  0
 28 25  1  0  0  0  0
 28 26  1  0  0  0  0
M  END
>  <MODEL>
9

>  <REMARK>
 VINA RESULT:      -6.3      4.052      8.412
  Name = 
  5 active torsions:
  status: ('A' for Active; 'I' for Inactive)
    1  A    between atoms: C_4  and  C_19
    2  A    between atoms: C_6  and  C_19
    3  A    between atoms: C_11  and  C_16
    4  A    between atoms: C_11  and  C_22
    5  A    between atoms: C_16  and  C_19
                            x       y       z     vdW  Elec       q    Type
                         _______ _______ _______ _____ _____    ______ ____

>  <TORSDO>
F 5

$$$$
