=
 OpenBabel11072413443D

 44 47  0  0  1  0  0  0  0  0999 V2000
  158.3570  210.9870  156.2820 C   0  0  0  0  0  0  0  0  0  0  0  0
  155.6260  213.6520  152.4220 C   0  0  0  0  0  2  0  0  0  0  0  0
  161.1590  210.7720  150.0840 C   0  0  2  0  0  3  0  0  0  0  0  0
  161.7800  210.5390  153.4540 S   0  0  0  0  0  0  0  0  0  0  0  0
  159.9460  213.2380  152.9940 O   0  0  0  0  0  1  0  0  0  0  0  0
  156.9960  213.6450  153.0350 C   0  0  2  0  0  3  0  0  0  0  0  0
  157.9340  213.8100  151.8270 C   0  0  1  0  0  3  0  0  0  0  0  0
  157.9650  211.3210  153.2520 O   0  0  0  0  0  0  0  0  0  0  0  0
  156.9340  211.0680  155.8310 C   0  0  0  0  0  2  0  0  0  0  0  0
  161.4390  209.3570  154.7920 C   0  0  0  0  0  2  0  0  0  0  0  0
  159.2780  210.1550  155.5690 N   0  0  0  0  0  2  0  0  0  0  0  0
  158.6620  211.4660  152.0220 C   0  0  0  0  0  2  0  0  0  0  0  0
  160.6880  210.0390  155.9220 C   0  0  1  0  0  3  0  0  0  0  0  0
  161.5370  209.2840  152.1460 C   0  0  1  0  0  3  0  0  0  0  0  0
  159.1760  212.8960  151.8730 C   0  0  2  0  0  0  0  0  0  0  0  0
  157.2050  212.3620  153.8000 C   0  0  0  0  0  0  0  0  0  0  0  0
  160.0540  213.0030  150.6060 C   0  0  2  0  0  3  0  0  0  0  0  0
  160.8300  209.2050  157.1810 C   0  0  0  0  0  1  0  0  0  0  0  0
  163.4950  210.1890  150.8460 C   0  0  0  0  0  1  0  0  0  0  0  0
  155.8810  213.9860  150.9730 C   0  0  0  0  0  2  0  0  0  0  0  0
  161.3130  212.1480  150.7430 C   0  0  0  0  0  2  0  0  0  0  0  0
  156.7220  212.2490  155.0000 N   0  0  0  0  0  0  0  0  0  0  0  0
  160.1960  208.8910  152.1070 O   0  0  0  0  0  1  0  0  0  0  0  0
  162.0590  209.6710  150.7340 C   0  0  2  0  0  0  0  0  0  0  0  0
  157.1890  213.5950  150.6530 O   0  0  0  0  0  0  0  0  0  0  0  0
  158.7450  211.6800  157.2610 O   0  0  0  0  0  0  0  0  0  0  0  0
  161.2730  208.5830  148.6780 O   0  0  0  0  0  1  0  0  0  0  0  0
  162.0590  208.4020  149.8190 C   0  0  2  0  0  3  0  0  0  0  0  0
  161.8070  205.9110  149.3880 C   0  0  0  0  0  2  0  0  0  0  0  0
  161.0800  204.6230  149.7910 C   0  0  1  0  0  0  0  0  0  0  0  0
  161.9410  205.9020  152.5770 O   0  0  0  0  0  0  0  0  0  0  0  0
  161.5060  204.6040  152.3050 C   0  0  0  0  0  0  0  0  0  0  0  0
  161.7650  203.9410  150.9830 C   0  0  0  0  0  2  0  0  0  0  0  0
  160.8740  203.9700  153.1890 O   0  0  0  0  0  0  0  0  0  0  0  0
  159.6080  204.9030  150.0720 C   0  0  0  0  0  1  0  0  0  0  0  0
  161.7760  207.0190  150.4390 C   0  0  1  0  0  3  0  0  0  0  0  0
  161.1470  203.7480  148.7090 O   0  0  0  0  0  1  0  0  0  0  0  0
  162.6580  206.6900  151.6370 C   0  0  0  0  0  2  0  0  0  0  0  0
  160.4970  214.4370  150.3360 C   0  0  0  0  0  2  0  0  0  0  0  0
  161.7780  214.4490  149.7880 O   0  0  0  0  0  1  0  0  0  0  0  0
  161.4120  210.9190  148.5810 C   0  0  0  0  0  2  0  0  0  0  0  0
  161.3770  212.3880  146.1450 O   0  0  0  0  0  0  0  0  0  0  0  0
  162.1220  212.8040  147.0710 C   0  0  0  0  0  3  0  0  0  0  0  0
  162.1910  212.1200  148.3200 N   0  0  0  0  0  2  0  0  0  0  0  0
  1 26  2  0  0  0  0
  3 41  1  6  0  0  0
  3 24  1  0  0  0  0
  3 21  1  0  0  0  0
  4 10  1  0  0  0  0
  6  2  1  6  0  0  0
  6 16  1  0  0  0  0
  7 25  1  6  0  0  0
  7 15  1  0  0  0  0
  7  6  1  0  0  0  0
  8 16  1  0  0  0  0
  9  1  1  0  0  0  0
 10 13  1  0  0  0  0
 11 13  1  0  0  0  0
 11  1  1  0  0  0  0
 12  8  1  0  0  0  0
 13 18  1  1  0  0  0
 14 23  1  6  0  0  0
 14  4  1  0  0  0  0
 15 12  1  0  0  0  0
 15  5  1  1  0  0  0
 16 22  2  0  0  0  0
 17 39  1  1  0  0  0
 17 21  1  0  0  0  0
 17 15  1  0  0  0  0
 20  2  1  0  0  0  0
 22  9  1  0  0  0  0
 24 19  1  1  0  0  0
 24 14  1  0  0  0  0
 25 20  1  0  0  0  0
 28 27  1  6  0  0  0
 28 24  1  0  0  0  0
 29 30  1  0  0  0  0
 29 36  1  0  0  0  0
 30 35  1  1  0  0  0
 30 33  1  0  0  0  0
 32 31  1  0  0  0  0
 32 34  2  0  0  0  0
 33 32  1  0  0  0  0
 36 28  1  6  0  0  0
 36 38  1  0  0  0  0
 37 30  1  0  0  0  0
 38 31  1  0  0  0  0
 40 39  1  0  0  0  0
 42 43  2  0  0  0  0
 43 44  1  0  0  0  0
 44 41  1  0  0  0  0
M  END
>  <MODEL>
1

>  <REMARK>
 VINA RESULT:      -1.9      0.000      0.000
  Name = 
  5 active torsions:
  status: ('A' for Active; 'I' for Inactive)
    1  A    between atoms: C_3  and  C_25
    2  A    between atoms: C_25  and  N_26
    3  A    between atoms: C_28  and  C_34
    4  A    between atoms: C_35  and  C_44
    5  A    between atoms: C_39  and  C_44
                            x       y       z     vdW  Elec       q    Type
                         _______ _______ _______ _____ _____    ______ ____

>  <TORSDO>
F 5

$$$$
=
 OpenBabel11072413443D

 44 47  0  0  1  0  0  0  0  0999 V2000
  159.7070  209.6250  156.0250 C   0  0  0  0  0  0  0  0  0  0  0  0
  158.6560  213.5620  152.4400 C   0  0  0  0  0  2  0  0  0  0  0  0
  161.4520  208.2250  149.5980 C   0  0  2  0  0  3  0  0  0  0  0  0
  162.0800  207.5050  152.8970 S   0  0  0  0  0  0  0  0  0  0  0  0
  162.0370  210.7870  152.6160 O   0  0  0  0  0  1  0  0  0  0  0  0
  159.8280  212.7620  152.9260 C   0  0  2  0  0  3  0  0  0  0  0  0
  160.6090  212.4430  151.6390 C   0  0  1  0  0  3  0  0  0  0  0  0
  159.3490  210.2840  153.0450 O   0  0  0  0  0  0  0  0  0  0  0  0
  158.5420  210.5070  155.7060 C   0  0  0  0  0  2  0  0  0  0  0  0
  161.2360  206.6400  154.2560 C   0  0  0  0  0  2  0  0  0  0  0  0
  159.9510  208.4620  155.2290 N   0  0  0  0  0  2  0  0  0  0  0  0
  159.9160  210.0830  151.7570 C   0  0  0  0  0  2  0  0  0  0  0  0
  161.0770  207.5630  155.4520 C   0  0  1  0  0  3  0  0  0  0  0  0
  161.0830  206.6680  151.6110 C   0  0  1  0  0  3  0  0  0  0  0  0
  161.1290  210.9920  151.5690 C   0  0  2  0  0  0  0  0  0  0  0  0
  159.3410  211.5400  153.6640 C   0  0  0  0  0  0  0  0  0  0  0  0
  161.8220  210.6620  150.2280 C   0  0  2  0  0  3  0  0  0  0  0  0
  160.8210  206.7230  156.6890 C   0  0  0  0  0  1  0  0  0  0  0  0
  163.1130  206.4030  150.1430 C   0  0  0  0  0  1  0  0  0  0  0  0
  158.9480  213.7760  150.9750 C   0  0  0  0  0  2  0  0  0  0  0  0
  162.3950  209.2450  150.2470 C   0  0  0  0  0  2  0  0  0  0  0  0
  158.9660  211.6500  154.9020 N   0  0  0  0  0  0  0  0  0  0  0  0
  159.7530  207.0900  151.6920 O   0  0  0  0  0  1  0  0  0  0  0  0
  161.6290  206.7760  150.1600 C   0  0  2  0  0  0  0  0  0  0  0  0
  159.7880  212.7420  150.5360 O   0  0  0  0  0  0  0  0  0  0  0  0
  160.4840  209.9310  156.9680 O   0  0  0  0  0  0  0  0  0  0  0  0
  159.4970  206.0980  149.1460 O   0  0  0  0  0  1  0  0  0  0  0  0
  160.8530  205.7730  149.2430 C   0  0  2  0  0  3  0  0  0  0  0  0
  160.3960  203.8100  150.7900 C   0  0  0  0  0  2  0  0  0  0  0  0
  160.9160  202.4710  151.3230 C   0  0  1  0  0  0  0  0  0  0  0  0
  161.3330  202.2380  148.1750 O   0  0  0  0  0  0  0  0  0  0  0  0
  161.3580  201.2290  149.1400 C   0  0  0  0  0  0  0  0  0  0  0  0
  160.5350  201.3110  150.3940 C   0  0  0  0  0  2  0  0  0  0  0  0
  162.0940  200.2250  148.9600 O   0  0  0  0  0  0  0  0  0  0  0  0
  162.4210  202.5330  151.5590 C   0  0  0  0  0  1  0  0  0  0  0  0
  161.0170  204.2570  149.4680 C   0  0  1  0  0  3  0  0  0  0  0  0
  160.3040  202.2430  152.5540 O   0  0  0  0  0  1  0  0  0  0  0  0
  160.5350  203.4070  148.2990 C   0  0  0  0  0  2  0  0  0  0  0  0
  162.9680  211.6200  149.9260 C   0  0  0  0  0  2  0  0  0  0  0  0
  162.8660  212.0950  148.6190 O   0  0  0  0  0  1  0  0  0  0  0  0
  161.6340  208.2880  148.0790 C   0  0  0  0  0  2  0  0  0  0  0  0
  161.0090  206.4690  145.9830 O   0  0  0  0  0  0  0  0  0  0  0  0
  162.1120  206.3280  146.5730 C   0  0  0  0  0  3  0  0  0  0  0  0
  162.4940  207.2020  147.6330 N   0  0  0  0  0  2  0  0  0  0  0  0
  1 26  2  0  0  0  0
  3 41  1  6  0  0  0
  3 24  1  0  0  0  0
  3 21  1  0  0  0  0
  4 10  1  0  0  0  0
  6  2  1  6  0  0  0
  6 16  1  0  0  0  0
  7 25  1  6  0  0  0
  7  6  1  0  0  0  0
  8 16  1  0  0  0  0
  9  1  1  0  0  0  0
 10 13  1  0  0  0  0
 11 13  1  0  0  0  0
 11  1  1  0  0  0  0
 12  8  1  0  0  0  0
 13 18  1  1  0  0  0
 14 23  1  6  0  0  0
 14  4  1  0  0  0  0
 15  7  1  0  0  0  0
 15 12  1  0  0  0  0
 15  5  1  1  0  0  0
 16 22  2  0  0  0  0
 17 39  1  1  0  0  0
 17 21  1  0  0  0  0
 17 15  1  0  0  0  0
 20  2  1  0  0  0  0
 22  9  1  0  0  0  0
 24 19  1  6  0  0  0
 24 14  1  0  0  0  0
 25 20  1  0  0  0  0
 28 27  1  1  0  0  0
 28 24  1  0  0  0  0
 29 30  1  0  0  0  0
 30 35  1  1  0  0  0
 30 37  1  0  0  0  0
 31 38  1  0  0  0  0
 31 32  1  0  0  0  0
 32 33  1  0  0  0  0
 33 30  1  0  0  0  0
 34 32  2  0  0  0  0
 36 28  1  6  0  0  0
 36 29  1  0  0  0  0
 38 36  1  0  0  0  0
 40 39  1  0  0  0  0
 42 43  2  0  0  0  0
 43 44  1  0  0  0  0
 44 41  1  0  0  0  0
M  END
>  <MODEL>
2

>  <REMARK>
 VINA RESULT:       0.1      2.141      3.428
  Name = 
  5 active torsions:
  status: ('A' for Active; 'I' for Inactive)
    1  A    between atoms: C_3  and  C_25
    2  A    between atoms: C_25  and  N_26
    3  A    between atoms: C_28  and  C_34
    4  A    between atoms: C_35  and  C_44
    5  A    between atoms: C_39  and  C_44
                            x       y       z     vdW  Elec       q    Type
                         _______ _______ _______ _____ _____    ______ ____

>  <TORSDO>
F 5

$$$$
=
 OpenBabel11072413443D

 44 47  0  0  1  0  0  0  0  0999 V2000
  157.0890  213.3070  155.0830 C   0  0  0  0  0  0  0  0  0  0  0  0
  161.4610  210.7530  157.0360 C   0  0  0  0  0  2  0  0  0  0  0  0
  161.6030  211.3100  150.3990 C   0  0  2  0  0  3  0  0  0  0  0  0
  158.3100  212.1020  150.9640 S   0  0  0  0  0  0  0  0  0  0  0  0
  159.2240  210.0180  153.3460 O   0  0  0  0  0  1  0  0  0  0  0  0
  160.3480  210.5010  156.0620 C   0  0  2  0  0  3  0  0  0  0  0  0
  161.0490  209.8050  154.8820 C   0  0  1  0  0  3  0  0  0  0  0  0
  159.9710  212.4320  154.4760 O   0  0  0  0  0  0  0  0  0  0  0  0
  158.0690  213.5430  156.1870 C   0  0  0  0  0  2  0  0  0  0  0  0
  157.3400  213.6010  151.3110 C   0  0  0  0  0  2  0  0  0  0  0  0
  157.4390  213.6560  153.7410 N   0  0  0  0  0  2  0  0  0  0  0  0
  160.7930  211.8210  153.4910 C   0  0  0  0  0  2  0  0  0  0  0  0
  156.5560  213.4360  152.6010 C   0  0  1  0  0  3  0  0  0  0  0  0
  159.7130  213.0480  150.2700 C   0  0  1  0  0  3  0  0  0  0  0  0
  160.5870  210.3070  153.4990 C   0  0  2  0  0  0  0  0  0  0  0  0
  159.6860  211.8060  155.6960 C   0  0  0  0  0  0  0  0  0  0  0  0
  161.3720  209.6700  152.3300 C   0  0  2  0  0  3  0  0  0  0  0  0
  155.4310  214.4530  152.6250 C   0  0  0  0  0  1  0  0  0  0  0  0
  160.0150  211.3480  148.4370 C   0  0  0  0  0  1  0  0  0  0  0  0
  162.6440  210.0440  156.4230 C   0  0  0  0  0  2  0  0  0  0  0  0
  160.8140  210.1330  150.9840 C   0  0  0  0  0  2  0  0  0  0  0  0
  158.8030  212.3190  156.4960 N   0  0  0  0  0  0  0  0  0  0  0  0
  160.3290  213.7920  151.2800 O   0  0  0  0  0  1  0  0  0  0  0  0
  160.7480  212.2200  149.4580 C   0  0  2  0  0  0  0  0  0  0  0  0
  162.4390  209.9580  155.0390 O   0  0  0  0  0  0  0  0  0  0  0  0
  155.9780  212.7700  155.3370 O   0  0  0  0  0  0  0  0  0  0  0  0
  161.7790  214.4440  149.3130 O   0  0  0  0  0  1  0  0  0  0  0  0
  161.6970  213.1960  148.6880 C   0  0  2  0  0  3  0  0  0  0  0  0
  160.1500  213.9410  146.8160 C   0  0  0  0  0  2  0  0  0  0  0  0
  159.7110  213.7040  145.3660 C   0  0  1  0  0  0  0  0  0  0  0  0
  162.8910  213.7030  145.1970 O   0  0  0  0  0  0  0  0  0  0  0  0
  161.9580  213.8160  144.1650 C   0  0  0  0  0  0  0  0  0  0  0  0
  160.6150  214.4530  144.3770 C   0  0  0  0  0  2  0  0  0  0  0  0
  162.2460  213.3690  143.0250 O   0  0  0  0  0  0  0  0  0  0  0  0
  159.6540  212.2130  145.0590 C   0  0  0  0  0  1  0  0  0  0  0  0
  161.5270  213.3800  147.1670 C   0  0  1  0  0  3  0  0  0  0  0  0
  158.4230  214.2150  145.2290 O   0  0  0  0  0  1  0  0  0  0  0  0
  162.6480  214.1780  146.5150 C   0  0  0  0  0  2  0  0  0  0  0  0
  161.3050  208.1470  152.3590 C   0  0  0  0  0  2  0  0  0  0  0  0
  160.6240  207.6750  151.2380 O   0  0  0  0  0  1  0  0  0  0  0  0
  162.8530  210.7630  149.7030 C   0  0  0  0  0  2  0  0  0  0  0  0
  163.2060  207.9460  149.5290 O   0  0  0  0  0  0  0  0  0  0  0  0
  162.6810  208.5340  148.5470 C   0  0  0  0  0  3  0  0  0  0  0  0
  162.4730  209.9450  148.5630 N   0  0  0  0  0  2  0  0  0  0  0  0
  1 26  2  0  0  0  0
  1  9  1  0  0  0  0
  3 41  1  6  0  0  0
  3 21  1  0  0  0  0
  4 10  1  0  0  0  0
  6  2  1  1  0  0  0
  7 25  1  1  0  0  0
  7  6  1  0  0  0  0
  8 16  1  0  0  0  0
  9 22  1  0  0  0  0
 10 13  1  0  0  0  0
 11  1  1  0  0  0  0
 12 15  1  0  0  0  0
 12  8  1  0  0  0  0
 13 18  1  6  0  0  0
 13 11  1  0  0  0  0
 14  4  1  0  0  0  0
 14 23  1  1  0  0  0
 15  5  1  6  0  0  0
 15  7  1  0  0  0  0
 16  6  1  0  0  0  0
 16 22  2  0  0  0  0
 17 39  1  6  0  0  0
 17 15  1  0  0  0  0
 20  2  1  0  0  0  0
 21 17  1  0  0  0  0
 24 19  1  6  0  0  0
 24 14  1  0  0  0  0
 24  3  1  0  0  0  0
 25 20  1  0  0  0  0
 28 27  1  1  0  0  0
 28 24  1  0  0  0  0
 29 36  1  0  0  0  0
 30 35  1  6  0  0  0
 30 29  1  0  0  0  0
 31 38  1  0  0  0  0
 32 33  1  0  0  0  0
 32 31  1  0  0  0  0
 33 30  1  0  0  0  0
 34 32  2  0  0  0  0
 36 28  1  1  0  0  0
 37 30  1  0  0  0  0
 38 36  1  0  0  0  0
 40 39  1  0  0  0  0
 43 44  1  0  0  0  0
 43 42  2  0  0  0  0
 44 41  1  0  0  0  0
M  END
>  <MODEL>
3

>  <REMARK>
 VINA RESULT:       0.3      2.384      6.763
  Name = 
  5 active torsions:
  status: ('A' for Active; 'I' for Inactive)
    1  A    between atoms: C_3  and  C_25
    2  A    between atoms: C_25  and  N_26
    3  A    between atoms: C_28  and  C_34
    4  A    between atoms: C_35  and  C_44
    5  A    between atoms: C_39  and  C_44
                            x       y       z     vdW  Elec       q    Type
                         _______ _______ _______ _____ _____    ______ ____

>  <TORSDO>
F 5

$$$$
