=
 OpenBabel11072411113D

 30 31  0  0  1  0  0  0  0  0999 V2000
  161.0240  212.5180  149.6310 C   0  0  0  0  0  0  0  0  0  0  0  0
  158.4540  213.7860  150.8210 C   0  0  0  0  0  2  0  0  0  0  0  0
  161.3860  211.7660  148.4900 C   0  0  0  0  0  0  0  0  0  0  0  0
  159.7560  213.4790  153.6650 O   0  0  0  0  0  0  0  0  0  0  0  0
  158.6730  213.1360  153.2130 C   0  0  0  0  0  0  0  0  0  0  0  0
  160.2010  207.6380  155.6360 O   0  0  0  0  0  0  0  0  0  0  0  0
  160.4720  213.8010  149.5050 O   0  0  0  0  0  0  0  0  0  0  0  0
  161.1940  211.9580  150.9040 C   0  0  0  0  0  3  0  0  0  0  0  0
  161.0660  209.6950  154.7860 C   0  0  0  0  0  2  0  0  0  0  0  0
  158.0250  211.8550  153.6670 C   0  0  1  0  0  3  0  0  0  0  0  0
  159.0570  209.9380  152.7020 O   0  0  0  0  0  0  0  0  0  0  0  0
  158.9880  210.7020  153.7000 C   0  0  0  0  0  0  0  0  0  0  0  0
  157.9610  214.0230  152.2410 C   0  0  0  0  0  2  0  0  0  0  0  0
  161.9390  209.8650  149.9320 C   0  0  0  0  0  0  0  0  0  0  0  0
  161.6470  210.6530  151.0490 C   0  0  0  0  0  3  0  0  0  0  0  0
  162.8470  207.8370  149.1070 O   0  0  0  0  0  0  0  0  0  0  0  0
  162.3040  208.4310  150.0760 C   0  0  0  0  0  0  0  0  0  0  0  0
  161.9940  207.6720  151.2570 N   0  0  0  0  0  0  0  0  0  0  0  0
  161.8280  210.4410  148.6590 C   0  0  0  0  0  3  0  0  0  0  0  0
  159.8020  214.4520  150.5820 C   0  0  0  0  0  2  0  0  0  0  0  0
  161.1250  206.2350  153.4540 O   0  0  0  0  0  0  0  0  0  0  0  0
  159.8590  210.5130  154.8220 N   0  0  0  0  0  2  0  0  0  0  0  0
  161.5240  208.2260  152.3000 N   0  0  0  0  0  0  0  0  0  0  0  0
  160.7560  208.2350  154.6750 C   0  0  0  0  0  0  0  0  0  0  0  0
  161.1460  207.4960  153.4660 C   0  0  0  0  0  0  0  0  0  0  0  0
  161.2770  212.3110  147.1180 C   0  0  0  0  0  0  0  0  0  0  0  0
  160.1980  212.1980  146.4770 O   0  0  0  0  0  0  0  0  0  0  0  0
  162.3540  212.9440  146.5090 O   0  0  0  0  0  1  0  0  0  0  0  0
  156.2930  211.1600  155.3170 C   0  0  0  0  0  2  0  0  0  0  0  0
  157.2420  212.0190  154.9420 C   0  0  0  0  0  3  0  0  0  0  0  0
  1  8  1  0  0  0  0
  2 13  1  0  0  0  0
  3 19  1  0  0  0  0
  3  1  2  0  0  0  0
  5  4  2  0  0  0  0
  5 10  1  0  0  0  0
  7  1  1  0  0  0  0
  7 20  1  0  0  0  0
  8 15  2  0  0  0  0
  9 22  1  0  0  0  0
 10 12  1  0  0  0  0
 10 30  1  1  0  0  0
 11 12  2  0  0  0  0
 12 22  1  0  0  0  0
 13  5  1  0  0  0  0
 14 17  1  0  0  0  0
 14 15  1  0  0  0  0
 16 17  2  0  0  0  0
 17 18  1  0  0  0  0
 18 23  2  0  0  0  0
 19 14  2  0  0  0  0
 20  2  1  0  0  0  0
 21 25  2  0  0  0  0
 23 25  1  0  0  0  0
 24  9  1  0  0  0  0
 24  6  2  0  0  0  0
 25 24  1  0  0  0  0
 26  3  1  0  0  0  0
 27 26  2  0  0  0  0
 28 26  1  0  0  0  0
 30 29  2  0  0  0  0
M  END
>  <MODEL>
1

>  <REMARK>
 VINA RESULT:      -4.7      0.000      0.000
  Name = 
  2 active torsions:
  status: ('A' for Active; 'I' for Inactive)
    1  A    between atoms: C_3  and  C_19
    2  A    between atoms: C_8  and  C_12
                            x       y       z     vdW  Elec       q    Type
                         _______ _______ _______ _____ _____    ______ ____

>  <TORSDO>
F 2

$$$$
=
 OpenBabel11072411113D

 30 31  0  0  1  0  0  0  0  0999 V2000
  161.9160  209.7700  149.5490 C   0  0  0  0  0  0  0  0  0  0  0  0
  160.0470  211.9810  148.4350 C   0  0  0  0  0  2  0  0  0  0  0  0
  162.0070  208.3590  149.5080 C   0  0  0  0  0  0  0  0  0  0  0  0
  160.8900  213.7670  150.8790 O   0  0  0  0  0  0  0  0  0  0  0  0
  159.7990  213.4390  150.4350 C   0  0  0  0  0  0  0  0  0  0  0  0
  158.6780  211.8340  156.3170 O   0  0  0  0  0  0  0  0  0  0  0  0
  161.9700  210.5310  148.3730 O   0  0  0  0  0  0  0  0  0  0  0  0
  161.7410  210.4100  150.7830 C   0  0  0  0  0  3  0  0  0  0  0  0
  160.3910  212.1770  154.6890 C   0  0  0  0  0  2  0  0  0  0  0  0
  158.6390  213.1890  151.3630 C   0  0  1  0  0  3  0  0  0  0  0  0
  158.8280  211.1000  152.4900 O   0  0  0  0  0  0  0  0  0  0  0  0
  159.0170  212.3440  152.5450 C   0  0  0  0  0  0  0  0  0  0  0  0
  159.6000  213.3400  148.9550 C   0  0  0  0  0  2  0  0  0  0  0  0
  161.5980  208.2740  151.9220 C   0  0  0  0  0  0  0  0  0  0  0  0
  161.5880  209.6720  151.9500 C   0  0  0  0  0  3  0  0  0  0  0  0
  161.6180  206.2570  153.1670 O   0  0  0  0  0  0  0  0  0  0  0  0
  161.3100  207.4790  153.1440 C   0  0  0  0  0  0  0  0  0  0  0  0
  160.6250  208.0310  154.2800 N   0  0  0  0  0  0  0  0  0  0  0  0
  161.8320  207.6300  150.6990 C   0  0  0  0  0  3  0  0  0  0  0  0
  161.5640  211.8970  148.3290 C   0  0  0  0  0  2  0  0  0  0  0  0
  159.0740  209.1080  156.3010 O   0  0  0  0  0  0  0  0  0  0  0  0
  159.6450  212.9330  153.6910 N   0  0  0  0  0  2  0  0  0  0  0  0
  160.3590  209.2730  154.3580 N   0  0  0  0  0  0  0  0  0  0  0  0
  159.5000  211.3080  155.5210 C   0  0  0  0  0  0  0  0  0  0  0  0
  159.6260  209.8450  155.4390 C   0  0  0  0  0  0  0  0  0  0  0  0
  162.2360  207.6190  148.2480 C   0  0  0  0  0  0  0  0  0  0  0  0
  163.4100  207.3490  147.8770 O   0  0  0  0  0  1  0  0  0  0  0  0
  161.1730  207.2150  147.4480 O   0  0  0  0  0  0  0  0  0  0  0  0
  156.6420  214.4530  152.1530 C   0  0  0  0  0  2  0  0  0  0  0  0
  157.9100  214.4520  151.7360 C   0  0  0  0  0  3  0  0  0  0  0  0
  1  8  1  0  0  0  0
  2 13  1  0  0  0  0
  3  1  2  0  0  0  0
  3 19  1  0  0  0  0
  5  4  2  0  0  0  0
  5 10  1  0  0  0  0
  7  1  1  0  0  0  0
  8 15  2  0  0  0  0
  9 24  1  0  0  0  0
 10 30  1  1  0  0  0
 10 12  1  0  0  0  0
 11 12  2  0  0  0  0
 12 22  1  0  0  0  0
 13  5  1  0  0  0  0
 14 15  1  0  0  0  0
 14 17  1  0  0  0  0
 17 16  2  0  0  0  0
 17 18  1  0  0  0  0
 18 23  2  0  0  0  0
 19 14  2  0  0  0  0
 20  7  1  0  0  0  0
 20  2  1  0  0  0  0
 22  9  1  0  0  0  0
 23 25  1  0  0  0  0
 24  6  2  0  0  0  0
 25 24  1  0  0  0  0
 25 21  2  0  0  0  0
 26  3  1  0  0  0  0
 27 26  1  0  0  0  0
 28 26  2  0  0  0  0
 30 29  2  0  0  0  0
M  END
>  <MODEL>
2

>  <REMARK>
 VINA RESULT:      -4.5      1.783      3.609
  Name = 
  2 active torsions:
  status: ('A' for Active; 'I' for Inactive)
    1  A    between atoms: C_3  and  C_19
    2  A    between atoms: C_8  and  C_12
                            x       y       z     vdW  Elec       q    Type
                         _______ _______ _______ _____ _____    ______ ____

>  <TORSDO>
F 2

$$$$
=
 OpenBabel11072411113D

 30 31  0  0  1  0  0  0  0  0999 V2000
  161.9340  207.6710  152.2920 C   0  0  0  0  0  0  0  0  0  0  0  0
  160.5610  205.1070  153.3750 C   0  0  0  0  0  2  0  0  0  0  0  0
  161.5990  209.0300  152.0910 C   0  0  0  0  0  0  0  0  0  0  0  0
  162.4850  203.4380  151.5340 O   0  0  0  0  0  0  0  0  0  0  0  0
  161.2700  203.4390  151.6700 C   0  0  0  0  0  0  0  0  0  0  0  0
  161.2890  203.9440  145.4910 O   0  0  0  0  0  0  0  0  0  0  0  0
  161.9000  207.1010  153.5720 O   0  0  0  0  0  0  0  0  0  0  0  0
  162.2750  206.8780  151.1880 C   0  0  0  0  0  3  0  0  0  0  0  0
  162.5480  204.3550  147.4790 C   0  0  0  0  0  2  0  0  0  0  0  0
  160.3670  203.1960  150.4890 C   0  0  1  0  0  3  0  0  0  0  0  0
  160.2290  205.0980  149.0620 O   0  0  0  0  0  0  0  0  0  0  0  0
  160.7770  203.9850  149.2780 C   0  0  0  0  0  0  0  0  0  0  0  0
  160.6770  203.6290  153.0310 C   0  0  0  0  0  2  0  0  0  0  0  0
  161.8190  208.7140  149.6720 C   0  0  0  0  0  0  0  0  0  0  0  0
  162.2210  207.3950  149.9000 C   0  0  0  0  0  3  0  0  0  0  0  0
  161.5770  210.4800  148.1100 O   0  0  0  0  0  0  0  0  0  0  0  0
  161.6400  209.2350  148.2910 C   0  0  0  0  0  0  0  0  0  0  0  0
  161.4600  208.3700  147.1580 N   0  0  0  0  0  0  0  0  0  0  0  0
  161.5340  209.5290  150.7760 C   0  0  0  0  0  3  0  0  0  0  0  0
  161.9090  205.6900  153.7800 C   0  0  0  0  0  2  0  0  0  0  0  0
  160.8630  206.6350  145.0890 O   0  0  0  0  0  0  0  0  0  0  0  0
  161.8210  203.5100  148.4190 N   0  0  0  0  0  2  0  0  0  0  0  0
  161.5940  207.1090  147.2550 N   0  0  0  0  0  0  0  0  0  0  0  0
  161.6900  204.7920  146.3330 C   0  0  0  0  0  0  0  0  0  0  0  0
  161.3620  206.2150  146.1680 C   0  0  0  0  0  0  0  0  0  0  0  0
  161.2710  209.9370  153.2130 C   0  0  0  0  0  0  0  0  0  0  0  0
  160.0760  210.2720  153.4280 O   0  0  0  0  0  0  0  0  0  0  0  0
  162.2670  210.4410  154.0420 O   0  0  0  0  0  1  0  0  0  0  0  0
  159.5480  201.2920  149.1060 C   0  0  0  0  0  2  0  0  0  0  0  0
  160.1560  201.7330  150.2100 C   0  0  0  0  0  3  0  0  0  0  0  0
  1  7  1  0  0  0  0
  2 20  1  0  0  0  0
  3  1  1  0  0  0  0
  3 26  1  0  0  0  0
  4  5  2  0  0  0  0
  5 13  1  0  0  0  0
  6 24  2  0  0  0  0
  7 20  1  0  0  0  0
  8  1  2  0  0  0  0
  9 22  1  0  0  0  0
 10 30  1  6  0  0  0
 10  5  1  0  0  0  0
 11 12  2  0  0  0  0
 12 10  1  0  0  0  0
 13  2  1  0  0  0  0
 14 15  2  0  0  0  0
 14 19  1  0  0  0  0
 15  8  1  0  0  0  0
 16 17  2  0  0  0  0
 17 14  1  0  0  0  0
 18 23  2  0  0  0  0
 18 17  1  0  0  0  0
 19  3  2  0  0  0  0
 21 25  2  0  0  0  0
 22 12  1  0  0  0  0
 24  9  1  0  0  0  0
 25 24  1  0  0  0  0
 25 23  1  0  0  0  0
 26 27  2  0  0  0  0
 26 28  1  0  0  0  0
 29 30  2  0  0  0  0
M  END
>  <MODEL>
3

>  <REMARK>
 VINA RESULT:      -4.5      3.876      7.895
  Name = 
  2 active torsions:
  status: ('A' for Active; 'I' for Inactive)
    1  A    between atoms: C_3  and  C_19
    2  A    between atoms: C_8  and  C_12
                            x       y       z     vdW  Elec       q    Type
                         _______ _______ _______ _____ _____    ______ ____

>  <TORSDO>
F 2

$$$$
=
 OpenBabel11072411113D

 30 31  0  0  1  0  0  0  0  0999 V2000
  162.2110  206.9820  149.2560 C   0  0  0  0  0  0  0  0  0  0  0  0
  161.3020  209.8280  148.4170 C   0  0  0  0  0  2  0  0  0  0  0  0
  161.7410  205.6550  149.1260 C   0  0  0  0  0  0  0  0  0  0  0  0
  162.8880  210.9400  150.8920 O   0  0  0  0  0  0  0  0  0  0  0  0
  161.7370  211.0970  150.5130 C   0  0  0  0  0  0  0  0  0  0  0  0
  160.3540  209.5640  156.3580 O   0  0  0  0  0  0  0  0  0  0  0  0
  162.5020  207.7590  148.1260 O   0  0  0  0  0  0  0  0  0  0  0  0
  162.3570  207.5350  150.5350 C   0  0  0  0  0  3  0  0  0  0  0  0
  161.9870  209.3550  154.6290 C   0  0  0  0  0  2  0  0  0  0  0  0
  160.6150  211.2380  151.5090 C   0  0  1  0  0  3  0  0  0  0  0  0
  160.0270  209.1510  152.4940 O   0  0  0  0  0  0  0  0  0  0  0  0
  160.6890  210.2160  152.6070 C   0  0  0  0  0  0  0  0  0  0  0  0
  161.4460  211.2050  149.0480 C   0  0  0  0  0  2  0  0  0  0  0  0
  161.4450  205.5340  151.5540 C   0  0  0  0  0  0  0  0  0  0  0  0
  161.9830  206.8190  151.6650 C   0  0  0  0  0  3  0  0  0  0  0  0
  160.7350  203.5690  152.6740 O   0  0  0  0  0  0  0  0  0  0  0  0
  160.9270  204.8120  152.7460 C   0  0  0  0  0  0  0  0  0  0  0  0
  160.5650  205.4900  153.9610 N   0  0  0  0  0  0  0  0  0  0  0  0
  161.3520  204.9530  150.2820 C   0  0  0  0  0  3  0  0  0  0  0  0
  162.6590  209.1750  148.1930 C   0  0  0  0  0  2  0  0  0  0  0  0
  159.6540  206.9090  156.1530 O   0  0  0  0  0  0  0  0  0  0  0  0
  161.5490  210.4210  153.7350 N   0  0  0  0  0  2  0  0  0  0  0  0
  160.8090  206.7260  154.1310 N   0  0  0  0  0  0  0  0  0  0  0  0
  160.8680  208.8300  155.4730 C   0  0  0  0  0  0  0  0  0  0  0  0
  160.4090  207.4450  155.2960 C   0  0  0  0  0  0  0  0  0  0  0  0
  161.6050  204.9910  147.8100 C   0  0  0  0  0  0  0  0  0  0  0  0
  162.1090  203.8520  147.6220 O   0  0  0  0  0  1  0  0  0  0  0  0
  160.9310  205.6070  146.7620 O   0  0  0  0  0  0  0  0  0  0  0  0
  159.6900  213.5480  151.3880 C   0  0  0  0  0  2  0  0  0  0  0  0
  160.4550  212.6480  152.0090 C   0  0  0  0  0  3  0  0  0  0  0  0
  1  8  1  0  0  0  0
  2 13  1  0  0  0  0
  3  1  2  0  0  0  0
  3 19  1  0  0  0  0
  5  4  2  0  0  0  0
  5 10  1  0  0  0  0
  7 20  1  0  0  0  0
  7  1  1  0  0  0  0
  8 15  2  0  0  0  0
  9 24  1  0  0  0  0
 10 30  1  1  0  0  0
 10 12  1  0  0  0  0
 11 12  2  0  0  0  0
 12 22  1  0  0  0  0
 13  5  1  0  0  0  0
 14 15  1  0  0  0  0
 14 17  1  0  0  0  0
 16 17  2  0  0  0  0
 17 18  1  0  0  0  0
 18 23  2  0  0  0  0
 19 14  2  0  0  0  0
 20  2  1  0  0  0  0
 22  9  1  0  0  0  0
 23 25  1  0  0  0  0
 24  6  2  0  0  0  0
 25 24  1  0  0  0  0
 25 21  2  0  0  0  0
 26  3  1  0  0  0  0
 27 26  1  0  0  0  0
 28 26  2  0  0  0  0
 29 30  2  0  0  0  0
M  END
>  <MODEL>
4

>  <REMARK>
 VINA RESULT:      -4.0      2.645      4.851
  Name = 
  2 active torsions:
  status: ('A' for Active; 'I' for Inactive)
    1  A    between atoms: C_3  and  C_19
    2  A    between atoms: C_8  and  C_12
                            x       y       z     vdW  Elec       q    Type
                         _______ _______ _______ _____ _____    ______ ____

>  <TORSDO>
F 2

$$$$
=
 OpenBabel11072411113D

 30 31  0  0  1  0  0  0  0  0999 V2000
  159.3520  211.0800  155.8420 C   0  0  0  0  0  0  0  0  0  0  0  0
  159.2830  207.9870  156.0740 C   0  0  0  0  0  2  0  0  0  0  0  0
  158.4260  212.1370  155.6830 C   0  0  0  0  0  0  0  0  0  0  0  0
  162.1890  207.9460  154.8780 O   0  0  0  0  0  0  0  0  0  0  0  0
  161.1610  207.3610  154.5680 C   0  0  0  0  0  0  0  0  0  0  0  0
  162.4980  209.4970  148.9040 O   0  0  0  0  0  0  0  0  0  0  0  0
  159.2920  210.2300  156.9550 O   0  0  0  0  0  0  0  0  0  0  0  0
  160.3240  210.8660  154.8570 C   0  0  0  0  0  3  0  0  0  0  0  0
  162.8040  209.8680  151.2430 C   0  0  0  0  0  2  0  0  0  0  0  0
  160.8530  207.0710  153.1220 C   0  0  1  0  0  3  0  0  0  0  0  0
  160.1200  209.0140  151.9560 O   0  0  0  0  0  0  0  0  0  0  0  0
  161.0890  208.2580  152.2330 C   0  0  0  0  0  0  0  0  0  0  0  0
  160.2300  206.8800  155.6360 C   0  0  0  0  0  2  0  0  0  0  0  0
  159.3900  212.6340  153.4870 C   0  0  0  0  0  0  0  0  0  0  0  0
  160.3420  211.6340  153.6990 C   0  0  0  0  0  3  0  0  0  0  0  0
  158.6770  214.4530  152.1430 O   0  0  0  0  0  0  0  0  0  0  0  0
  159.3270  213.3750  152.1990 C   0  0  0  0  0  0  0  0  0  0  0  0
  159.9190  212.8710  150.9900 N   0  0  0  0  0  0  0  0  0  0  0  0
  158.4520  212.8930  154.4960 C   0  0  0  0  0  3  0  0  0  0  0  0
  159.9760  208.9790  156.9970 C   0  0  0  0  0  2  0  0  0  0  0  0
  160.8600  211.6980  148.6690 O   0  0  0  0  0  0  0  0  0  0  0  0
  162.4070  208.5640  151.7610 N   0  0  0  0  0  2  0  0  0  0  0  0
  160.6560  211.8350  150.9920 N   0  0  0  0  0  0  0  0  0  0  0  0
  162.1710  210.1660  149.9190 C   0  0  0  0  0  0  0  0  0  0  0  0
  161.2080  211.2710  149.8040 C   0  0  0  0  0  0  0  0  0  0  0  0
  157.4020  212.4510  156.7040 C   0  0  0  0  0  0  0  0  0  0  0  0
  157.3500  213.6010  157.2150 O   0  0  0  0  0  1  0  0  0  0  0  0
  156.4900  211.4900  157.1240 O   0  0  0  0  0  0  0  0  0  0  0  0
  161.1750  205.2310  151.4740 C   0  0  0  0  0  2  0  0  0  0  0  0
  161.5100  205.8110  152.6280 C   0  0  0  0  0  3  0  0  0  0  0  0
  1  7  1  0  0  0  0
  2 20  1  0  0  0  0
  3  1  1  0  0  0  0
  3 26  1  0  0  0  0
  5  4  2  0  0  0  0
  5 13  1  0  0  0  0
  6 24  2  0  0  0  0
  7 20  1  0  0  0  0
  8  1  2  0  0  0  0
  9 22  1  0  0  0  0
 10 30  1  6  0  0  0
 10  5  1  0  0  0  0
 11 12  2  0  0  0  0
 12 10  1  0  0  0  0
 13  2  1  0  0  0  0
 14 15  2  0  0  0  0
 14 19  1  0  0  0  0
 15  8  1  0  0  0  0
 16 17  2  0  0  0  0
 17 14  1  0  0  0  0
 18 23  2  0  0  0  0
 18 17  1  0  0  0  0
 19  3  2  0  0  0  0
 21 25  2  0  0  0  0
 22 12  1  0  0  0  0
 24  9  1  0  0  0  0
 25 24  1  0  0  0  0
 25 23  1  0  0  0  0
 26 28  2  0  0  0  0
 26 27  1  0  0  0  0
 29 30  2  0  0  0  0
M  END
>  <MODEL>
5

>  <REMARK>
 VINA RESULT:      -3.9      2.335      7.015
  Name = 
  2 active torsions:
  status: ('A' for Active; 'I' for Inactive)
    1  A    between atoms: C_3  and  C_19
    2  A    between atoms: C_8  and  C_12
                            x       y       z     vdW  Elec       q    Type
                         _______ _______ _______ _____ _____    ______ ____

>  <TORSDO>
F 2

$$$$
=
 OpenBabel11072411113D

 30 31  0  0  1  0  0  0  0  0999 V2000
  162.1850  209.8610  150.1960 C   0  0  0  0  0  0  0  0  0  0  0  0
  160.7220  210.3970  152.8800 C   0  0  0  0  0  2  0  0  0  0  0  0
  161.9290  210.0280  148.8150 C   0  0  0  0  0  0  0  0  0  0  0  0
  162.3940  208.0470  154.1280 O   0  0  0  0  0  0  0  0  0  0  0  0
  161.1940  208.2820  154.1020 C   0  0  0  0  0  0  0  0  0  0  0  0
  160.8120  202.4360  152.0750 O   0  0  0  0  0  0  0  0  0  0  0  0
  162.2030  210.9620  151.0650 O   0  0  0  0  0  0  0  0  0  0  0  0
  162.3930  208.5730  150.7040 C   0  0  0  0  0  3  0  0  0  0  0  0
  162.2330  204.3490  152.2340 C   0  0  0  0  0  2  0  0  0  0  0  0
  160.1960  207.1590  153.9990 C   0  0  1  0  0  3  0  0  0  0  0  0
  160.0860  206.2580  151.7980 O   0  0  0  0  0  0  0  0  0  0  0  0
  160.5720  206.1480  152.9540 C   0  0  0  0  0  0  0  0  0  0  0  0
  160.7130  209.6930  154.2290 C   0  0  0  0  0  2  0  0  0  0  0  0
  161.9570  207.5960  148.5280 C   0  0  0  0  0  0  0  0  0  0  0  0
  162.2840  207.4590  149.8800 C   0  0  0  0  0  3  0  0  0  0  0  0
  161.7250  206.5400  146.4190 O   0  0  0  0  0  0  0  0  0  0  0  0
  161.7160  206.4050  147.6710 C   0  0  0  0  0  0  0  0  0  0  0  0
  161.3990  205.1140  148.2180 N   0  0  0  0  0  0  0  0  0  0  0  0
  161.8060  208.8860  148.0020 C   0  0  0  0  0  3  0  0  0  0  0  0
  162.1310  210.8160  152.4810 C   0  0  0  0  0  2  0  0  0  0  0  0
  160.5410  202.7420  149.3510 O   0  0  0  0  0  0  0  0  0  0  0  0
  161.5180  205.1130  153.2500 N   0  0  0  0  0  2  0  0  0  0  0  0
  161.4540  204.8880  149.4680 N   0  0  0  0  0  0  0  0  0  0  0  0
  161.3270  203.4220  151.4840 C   0  0  0  0  0  0  0  0  0  0  0  0
  161.0860  203.6390  150.0500 C   0  0  0  0  0  0  0  0  0  0  0  0
  161.7440  211.3620  148.2010 C   0  0  0  0  0  0  0  0  0  0  0  0
  160.6820  211.6300  147.5800 O   0  0  0  0  0  0  0  0  0  0  0  0
  162.7320  212.3360  148.2900 O   0  0  0  0  0  1  0  0  0  0  0  0
  159.9230  207.2410  156.4740 C   0  0  0  0  0  2  0  0  0  0  0  0
  159.8670  206.5490  155.3350 C   0  0  0  0  0  3  0  0  0  0  0  0
  1  8  1  0  0  0  0
  1  7  1  0  0  0  0
  2 13  1  0  0  0  0
  3  1  2  0  0  0  0
  5  4  2  0  0  0  0
  5 13  1  0  0  0  0
  7 20  1  0  0  0  0
  9 22  1  0  0  0  0
 10  5  1  0  0  0  0
 10 30  1  1  0  0  0
 11 12  2  0  0  0  0
 12 22  1  0  0  0  0
 12 10  1  0  0  0  0
 14 15  1  0  0  0  0
 15  8  2  0  0  0  0
 16 17  2  0  0  0  0
 17 18  1  0  0  0  0
 17 14  1  0  0  0  0
 18 23  2  0  0  0  0
 19 14  2  0  0  0  0
 19  3  1  0  0  0  0
 20  2  1  0  0  0  0
 21 25  2  0  0  0  0
 23 25  1  0  0  0  0
 24  6  2  0  0  0  0
 24  9  1  0  0  0  0
 25 24  1  0  0  0  0
 26 28  1  0  0  0  0
 26  3  1  0  0  0  0
 27 26  2  0  0  0  0
 30 29  2  0  0  0  0
M  END
>  <MODEL>
6

>  <REMARK>
 VINA RESULT:      -3.6      2.982      4.466
  Name = 
  2 active torsions:
  status: ('A' for Active; 'I' for Inactive)
    1  A    between atoms: C_3  and  C_19
    2  A    between atoms: C_8  and  C_12
                            x       y       z     vdW  Elec       q    Type
                         _______ _______ _______ _____ _____    ______ ____

>  <TORSDO>
F 2

$$$$
=
 OpenBabel11072411113D

 30 31  0  0  1  0  0  0  0  0999 V2000
  161.1050  206.9370  152.8000 C   0  0  0  0  0  0  0  0  0  0  0  0
  161.2550  208.0350  155.6990 C   0  0  0  0  0  2  0  0  0  0  0  0
  161.9880  206.3750  151.8490 C   0  0  0  0  0  0  0  0  0  0  0  0
  158.7970  209.8680  155.0100 O   0  0  0  0  0  0  0  0  0  0  0  0
  159.8970  210.1090  155.4860 C   0  0  0  0  0  0  0  0  0  0  0  0
  160.0780  214.4530  151.0670 O   0  0  0  0  0  0  0  0  0  0  0  0
  160.8960  206.3220  154.0430 O   0  0  0  0  0  0  0  0  0  0  0  0
  160.4550  208.1420  152.5040 C   0  0  0  0  0  3  0  0  0  0  0  0
  159.1200  212.3570  151.6940 C   0  0  0  0  0  2  0  0  0  0  0  0
  160.6070  211.3980  155.1630 C   0  0  1  0  0  3  0  0  0  0  0  0
  161.5400  211.3800  152.9720 O   0  0  0  0  0  0  0  0  0  0  0  0
  160.5690  211.7240  153.6970 C   0  0  0  0  0  0  0  0  0  0  0  0
  160.5190  209.1400  156.4420 C   0  0  0  0  0  2  0  0  0  0  0  0
  161.6460  208.3210  150.4010 C   0  0  0  0  0  0  0  0  0  0  0  0
  160.7210  208.8190  151.3210 C   0  0  0  0  0  3  0  0  0  0  0  0
  162.6150  208.5150  148.2460 O   0  0  0  0  0  0  0  0  0  0  0  0
  162.0280  209.1010  149.1940 C   0  0  0  0  0  0  0  0  0  0  0  0
  161.8170  210.5190  149.0950 N   0  0  0  0  0  0  0  0  0  0  0  0
  162.2550  207.0860  150.6640 C   0  0  0  0  0  3  0  0  0  0  0  0
  160.2870  207.0020  155.1380 C   0  0  0  0  0  2  0  0  0  0  0  0
  161.6110  213.2770  149.1050 O   0  0  0  0  0  0  0  0  0  0  0  0
  159.4200  212.3570  153.1210 N   0  0  0  0  0  2  0  0  0  0  0  0
  161.1580  211.1580  149.9750 N   0  0  0  0  0  0  0  0  0  0  0  0
  160.0800  213.2030  150.9160 C   0  0  0  0  0  0  0  0  0  0  0  0
  160.9830  212.5730  149.9420 C   0  0  0  0  0  0  0  0  0  0  0  0
  162.6740  205.0840  152.0740 C   0  0  0  0  0  0  0  0  0  0  0  0
  163.8960  205.0620  152.3790 O   0  0  0  0  0  1  0  0  0  0  0  0
  161.9940  203.8780  151.9480 O   0  0  0  0  0  0  0  0  0  0  0  0
  160.7130  212.7670  157.2410 C   0  0  0  0  0  2  0  0  0  0  0  0
  160.1720  212.5380  156.0430 C   0  0  0  0  0  3  0  0  0  0  0  0
  1  7  1  0  0  0  0
  2 13  1  0  0  0  0
  3 26  1  0  0  0  0
  3  1  2  0  0  0  0
  4  5  2  0  0  0  0
  5 13  1  0  0  0  0
  7 20  1  0  0  0  0
  8  1  1  0  0  0  0
  9 22  1  0  0  0  0
 10  5  1  0  0  0  0
 10 30  1  1  0  0  0
 11 12  2  0  0  0  0
 12 10  1  0  0  0  0
 14 19  2  0  0  0  0
 14 15  1  0  0  0  0
 15  8  2  0  0  0  0
 16 17  2  0  0  0  0
 17 14  1  0  0  0  0
 18 17  1  0  0  0  0
 18 23  2  0  0  0  0
 19  3  1  0  0  0  0
 20  2  1  0  0  0  0
 21 25  2  0  0  0  0
 22 12  1  0  0  0  0
 24  6  2  0  0  0  0
 24  9  1  0  0  0  0
 25 23  1  0  0  0  0
 25 24  1  0  0  0  0
 26 27  1  0  0  0  0
 28 26  2  0  0  0  0
 30 29  2  0  0  0  0
M  END
>  <MODEL>
7

>  <REMARK>
 VINA RESULT:      -3.3      2.187      5.878
  Name = 
  2 active torsions:
  status: ('A' for Active; 'I' for Inactive)
    1  A    between atoms: C_3  and  C_19
    2  A    between atoms: C_8  and  C_12
                            x       y       z     vdW  Elec       q    Type
                         _______ _______ _______ _____ _____    ______ ____

>  <TORSDO>
F 2

$$$$
=
 OpenBabel11072411113D

 30 31  0  0  1  0  0  0  0  0999 V2000
  161.9270  209.7070  151.0330 C   0  0  0  0  0  0  0  0  0  0  0  0
  160.6290  211.0690  148.5650 C   0  0  0  0  0  2  0  0  0  0  0  0
  161.9610  208.4210  151.6190 C   0  0  0  0  0  0  0  0  0  0  0  0
  160.7050  213.7750  150.1610 O   0  0  0  0  0  0  0  0  0  0  0  0
  159.8060  213.1880  149.5770 C   0  0  0  0  0  0  0  0  0  0  0  0
  156.7480  214.0390  154.9010 O   0  0  0  0  0  0  0  0  0  0  0  0
  162.3980  209.9190  149.7300 O   0  0  0  0  0  0  0  0  0  0  0  0
  161.3870  210.7770  151.7580 C   0  0  0  0  0  3  0  0  0  0  0  0
  158.9130  213.8510  153.9130 C   0  0  0  0  0  2  0  0  0  0  0  0
  158.3960  213.2280  150.1040 C   0  0  1  0  0  3  0  0  0  0  0  0
  158.1090  211.8160  152.0010 O   0  0  0  0  0  0  0  0  0  0  0  0
  158.3270  212.9850  151.5850 C   0  0  0  0  0  0  0  0  0  0  0  0
  160.0990  212.4700  148.2970 C   0  0  0  0  0  2  0  0  0  0  0  0
  160.7800  209.2950  153.5790 C   0  0  0  0  0  0  0  0  0  0  0  0
  160.8260  210.5720  153.0130 C   0  0  0  0  0  3  0  0  0  0  0  0
  160.3000  207.9810  155.4930 O   0  0  0  0  0  0  0  0  0  0  0  0
  160.0720  209.0480  154.8630 C   0  0  0  0  0  0  0  0  0  0  0  0
  159.0780  209.9480  155.3800 N   0  0  0  0  0  0  0  0  0  0  0  0
  161.3730  208.2320  152.8840 C   0  0  0  0  0  3  0  0  0  0  0  0
  162.0910  211.0990  148.9900 C   0  0  0  0  0  2  0  0  0  0  0  0
  157.0020  211.6010  156.1580 O   0  0  0  0  0  0  0  0  0  0  0  0
  158.5700  214.0520  152.5100 N   0  0  0  0  0  2  0  0  0  0  0  0
  158.8590  211.0790  154.8420 N   0  0  0  0  0  0  0  0  0  0  0  0
  157.7600  213.3160  154.7040 C   0  0  0  0  0  0  0  0  0  0  0  0
  157.8390  211.9700  155.2890 C   0  0  0  0  0  0  0  0  0  0  0  0
  162.5570  207.2540  150.9310 C   0  0  0  0  0  0  0  0  0  0  0  0
  163.0400  206.3030  151.6010 O   0  0  0  0  0  1  0  0  0  0  0  0
  162.6040  207.1870  149.5430 O   0  0  0  0  0  0  0  0  0  0  0  0
  156.3320  214.4410  149.4170 C   0  0  0  0  0  2  0  0  0  0  0  0
  157.6430  214.4530  149.6610 C   0  0  0  0  0  3  0  0  0  0  0  0
  1  3  2  0  0  0  0
  1  8  1  0  0  0  0
  2 20  1  0  0  0  0
  3 19  1  0  0  0  0
  5 10  1  0  0  0  0
  5  4  2  0  0  0  0
  7  1  1  0  0  0  0
  8 15  2  0  0  0  0
  9 24  1  0  0  0  0
 10 30  1  1  0  0  0
 10 12  1  0  0  0  0
 12 11  2  0  0  0  0
 12 22  1  0  0  0  0
 13  2  1  0  0  0  0
 13  5  1  0  0  0  0
 14 17  1  0  0  0  0
 15 14  1  0  0  0  0
 17 18  1  0  0  0  0
 17 16  2  0  0  0  0
 19 14  2  0  0  0  0
 20  7  1  0  0  0  0
 22  9  1  0  0  0  0
 23 25  1  0  0  0  0
 23 18  2  0  0  0  0
 24  6  2  0  0  0  0
 24 25  1  0  0  0  0
 25 21  2  0  0  0  0
 26 27  1  0  0  0  0
 26  3  1  0  0  0  0
 28 26  2  0  0  0  0
 29 30  2  0  0  0  0
M  END
>  <MODEL>
8

>  <REMARK>
 VINA RESULT:      -3.2      2.139      5.132
  Name = 
  2 active torsions:
  status: ('A' for Active; 'I' for Inactive)
    1  A    between atoms: C_3  and  C_19
    2  A    between atoms: C_8  and  C_12
                            x       y       z     vdW  Elec       q    Type
                         _______ _______ _______ _____ _____    ______ ____

>  <TORSDO>
F 2

$$$$
=
 OpenBabel11072411113D

 30 31  0  0  1  0  0  0  0  0999 V2000
  161.4410  203.0740  146.5790 C   0  0  0  0  0  0  0  0  0  0  0  0
  160.7730  205.9430  145.6010 C   0  0  0  0  0  2  0  0  0  0  0  0
  160.7710  201.8380  146.7270 C   0  0  0  0  0  0  0  0  0  0  0  0
  163.0420  206.9970  147.5040 O   0  0  0  0  0  0  0  0  0  0  0  0
  161.8680  207.3090  147.3700 C   0  0  0  0  0  0  0  0  0  0  0  0
  161.7060  206.5760  153.5230 O   0  0  0  0  0  0  0  0  0  0  0  0
  161.5640  203.6840  145.3220 O   0  0  0  0  0  0  0  0  0  0  0  0
  161.9630  203.7110  147.7130 C   0  0  0  0  0  3  0  0  0  0  0  0
  162.8360  205.9370  151.5190 C   0  0  0  0  0  2  0  0  0  0  0  0
  161.0460  207.7270  148.5610 C   0  0  1  0  0  3  0  0  0  0  0  0
  160.4170  205.8690  149.9110 O   0  0  0  0  0  0  0  0  0  0  0  0
  161.2320  206.8130  149.7390 C   0  0  0  0  0  0  0  0  0  0  0  0
  161.2570  207.3280  146.0030 C   0  0  0  0  0  2  0  0  0  0  0  0
  161.0440  201.9930  149.1560 C   0  0  0  0  0  0  0  0  0  0  0  0
  161.7690  203.1750  148.9800 C   0  0  0  0  0  3  0  0  0  0  0  0
  160.3480  200.2870  150.6470 O   0  0  0  0  0  0  0  0  0  0  0  0
  160.7260  201.4820  150.5150 C   0  0  0  0  0  0  0  0  0  0  0  0
  160.7630  202.3200  151.6820 N   0  0  0  0  0  0  0  0  0  0  0  0
  160.5710  201.3210  148.0200 C   0  0  0  0  0  3  0  0  0  0  0  0
  161.9320  205.0530  145.1710 C   0  0  0  0  0  2  0  0  0  0  0  0
  160.6080  204.0680  153.8200 O   0  0  0  0  0  0  0  0  0  0  0  0
  162.3550  206.9740  150.6140 N   0  0  0  0  0  2  0  0  0  0  0  0
  161.2130  203.5080  151.6350 N   0  0  0  0  0  0  0  0  0  0  0  0
  161.8860  205.6880  152.6490 C   0  0  0  0  0  0  0  0  0  0  0  0
  161.2060  204.3890  152.7570 C   0  0  0  0  0  0  0  0  0  0  0  0
  160.2340  201.0880  145.5700 C   0  0  0  0  0  0  0  0  0  0  0  0
  159.3340  201.5960  144.8490 O   0  0  0  0  0  0  0  0  0  0  0  0
  160.7000  199.8150  145.2610 O   0  0  0  0  0  1  0  0  0  0  0  0
  162.3310  209.8600  148.6350 C   0  0  0  0  0  2  0  0  0  0  0  0
  161.2110  209.1840  148.8990 C   0  0  0  0  0  3  0  0  0  0  0  0
  1  3  2  0  0  0  0
  1  8  1  0  0  0  0
  2 13  1  0  0  0  0
  3 19  1  0  0  0  0
  5  4  2  0  0  0  0
  5 10  1  0  0  0  0
  7  1  1  0  0  0  0
  8 15  2  0  0  0  0
  9 24  1  0  0  0  0
 10 30  1  1  0  0  0
 10 12  1  0  0  0  0
 12 11  2  0  0  0  0
 12 22  1  0  0  0  0
 13  5  1  0  0  0  0
 14 17  1  0  0  0  0
 15 14  1  0  0  0  0
 17 16  2  0  0  0  0
 17 18  1  0  0  0  0
 19 14  2  0  0  0  0
 20  7  1  0  0  0  0
 20  2  1  0  0  0  0
 22  9  1  0  0  0  0
 23 18  2  0  0  0  0
 23 25  1  0  0  0  0
 24 25  1  0  0  0  0
 24  6  2  0  0  0  0
 25 21  2  0  0  0  0
 26  3  1  0  0  0  0
 27 26  2  0  0  0  0
 28 26  1  0  0  0  0
 29 30  2  0  0  0  0
M  END
>  <MODEL>
9

>  <REMARK>
 VINA RESULT:      -3.2      5.178      8.242
  Name = 
  2 active torsions:
  status: ('A' for Active; 'I' for Inactive)
    1  A    between atoms: C_3  and  C_19
    2  A    between atoms: C_8  and  C_12
                            x       y       z     vdW  Elec       q    Type
                         _______ _______ _______ _____ _____    ______ ____

>  <TORSDO>
F 2

$$$$
