=
 OpenBabel11072410353D

 54 57  0  0  1  0  0  0  0  0999 V2000
  162.0550  202.8020  150.9570 C   0  0  0  0  0  2  0  0  0  0  0  0
  160.5290  206.6040  148.7390 C   0  0  2  0  0  3  0  0  0  0  0  0
  160.7410  200.7520  148.4870 C   0  0  1  0  0  3  0  0  0  0  0  0
  161.0080  207.6540  155.9270 O   0  0  0  0  0  0  0  0  0  0  0  0
  161.5350  205.0980  145.7050 C   0  0  1  0  0  0  0  0  0  0  0  0
  161.0130  205.3840  153.5980 C   0  0  0  0  0  2  0  0  0  0  0  0
  160.9970  208.8490  155.5250 C   0  0  0  0  0  0  0  0  0  0  0  0
  162.6030  208.0320  151.7210 C   0  0  0  0  0  2  0  0  0  0  0  0
  161.4690  206.5730  149.9530 C   0  0  1  0  0  3  0  0  0  0  0  0
  163.3510  207.7690  147.3480 O   0  0  0  0  0  0  0  0  0  0  0  0
  162.1870  204.1170  151.7340 C   0  0  2  0  0  3  0  0  0  0  0  0
  162.3600  207.0510  147.0480 C   0  0  0  0  0  0  0  0  0  0  0  0
  162.6780  203.3490  146.9720 O   0  0  0  0  0  1  0  0  0  0  0  0
  160.3020  203.6050  149.5730 O   0  0  0  0  0  0  0  0  0  0  0  0
  160.2470  201.6020  147.4820 O   0  0  0  0  0  0  0  0  0  0  0  0
  162.1300  200.6840  148.4770 F   0  0  0  0  0  0  0  0  0  0  0  0
  160.9660  202.4690  145.3660 C   0  0  2  0  0  3  0  0  0  0  0  0
  162.5280  205.5850  149.7330 N   0  0  0  0  0  2  0  0  0  0  0  0
  159.6630  208.6720  152.1300 O   0  0  0  0  0  0  0  0  0  0  0  0
  160.8680  204.7090  152.2380 C   0  0  0  0  0  2  0  0  0  0  0  0
  161.0060  207.4520  147.5550 C   0  0  0  0  0  2  0  0  0  0  0  0
  159.6830  202.7830  144.9030 O   0  0  0  0  0  1  0  0  0  0  0  0
  162.0100  207.9630  150.3140 C   0  0  0  0  0  2  0  0  0  0  0  0
  160.8660  201.2490  146.2740 C   0  0  0  0  0  2  0  0  0  0  0  0
  161.6420  203.6570  146.0860 C   0  0  2  0  0  0  0  0  0  0  0  0
  160.2910  201.2690  149.8510 C   0  0  0  0  0  2  0  0  0  0  0  0
  161.6490  207.6280  152.7540 N   0  0  0  0  0  0  0  0  0  0  0  0
  159.1520  207.0730  149.1690 C   0  0  0  0  0  1  0  0  0  0  0  0
  160.7010  204.5180  146.6890 O   0  0  0  0  0  0  0  0  0  0  0  0
  162.5680  205.9210  146.2490 O   0  0  0  0  0  0  0  0  0  0  0  0
  160.3830  209.1780  154.2730 N   0  0  0  0  0  2  0  0  0  0  0  0
  160.8250  202.6440  150.1090 C   0  0  0  0  0  0  0  0  0  0  0  0
  162.0390  206.5170  153.6150 C   0  0  0  0  0  2  0  0  0  0  0  0
  160.5080  208.4560  153.0390 C   0  0  0  0  0  0  0  0  0  0  0  0
  163.0770  205.1380  151.0110 C   0  0  0  0  0  2  0  0  0  0  0  0
  160.1620  206.7120  144.5980 F   0  0  0  0  0  0  0  0  0  0  0  0
  160.8590  205.5360  144.3820 C   0  0  2  0  0  0  0  0  0  0  0  0
  159.9410  204.5620  143.9780 O   0  0  0  0  0  1  0  0  0  0  0  0
  161.8540  205.7710  143.2510 C   0  0  0  0  0  2  0  0  0  0  0  0
  161.2360  205.6880  141.9940 O   0  0  0  0  0  0  0  0  0  0  0  0
  160.8950  208.4670  142.0180 O   0  0  0  0  0  1  0  0  0  0  0  0
  162.8890  207.3040  141.8670 O   0  0  0  0  0  0  0  0  0  0  0  0
  162.3870  208.8250  140.0430 C   0  0  0  0  0  1  0  0  0  0  0  0
  161.8550  207.9410  141.1550 C   0  0  2  0  0  0  0  0  0  0  0  0
  162.0250  206.4630  141.1300 C   0  0  2  0  0  0  0  0  0  0  0  0
  162.7620  205.7680  140.0170 C   0  0  0  0  0  0  0  0  0  0  0  0
  163.6560  204.9740  140.2700 O   0  0  0  0  0  0  0  0  0  0  0  0
  162.3830  206.0340  138.5940 C   0  0  0  0  0  1  0  0  0  0  0  0
  161.5350  209.9230  156.4290 C   0  0  2  0  0  3  0  0  0  0  0  0
  160.7380  212.3500  156.9950 C   0  0  0  0  0  1  0  0  0  0  0  0
  159.2820  210.4060  157.2610 C   0  0  0  0  0  2  0  0  0  0  0  0
  160.4780  210.8790  156.9150 C   0  0  0  0  0  0  0  0  0  0  0  0
  163.7980  210.9510  156.7370 C   0  0  0  0  0  1  0  0  0  0  0  0
  162.6840  210.6570  155.7480 C   0  0  0  0  0  2  0  0  0  0  0  0
  2 28  1  1  0  0  0
  2  9  1  0  0  0  0
  3 16  1  1  0  0  0
  3 26  1  0  0  0  0
  5 37  1  6  0  0  0
  5 25  1  0  0  0  0
  5 30  1  0  0  0  0
  5 29  1  0  0  0  0
  6 33  1  0  0  0  0
  7  4  2  0  0  0  0
  7 49  1  0  0  0  0
  8 27  1  0  0  0  0
  9 23  1  6  0  0  0
 11  1  1  6  0  0  0
 11 20  1  0  0  0  0
 12 10  2  0  0  0  0
 12 21  1  0  0  0  0
 14 32  2  0  0  0  0
 15  3  1  0  0  0  0
 17 22  1  1  0  0  0
 17 25  1  0  0  0  0
 17 24  1  0  0  0  0
 18  9  1  0  0  0  0
 18 35  1  0  0  0  0
 19 34  2  0  0  0  0
 20  6  1  0  0  0  0
 21  2  1  0  0  0  0
 23  8  1  0  0  0  0
 24 15  1  0  0  0  0
 25 29  1  0  0  0  0
 25 13  1  1  0  0  0
 26 32  1  0  0  0  0
 27 34  1  0  0  0  0
 27 33  1  0  0  0  0
 30 12  1  0  0  0  0
 31  7  1  0  0  0  0
 32  1  1  0  0  0  0
 34 31  1  0  0  0  0
 35 11  1  0  0  0  0
 37 38  1  6  0  0  0
 37 36  1  0  0  0  0
 39 37  1  0  0  0  0
 40 39  1  0  0  0  0
 44 43  1  6  0  0  0
 44 42  1  0  0  0  0
 44 41  1  0  0  0  0
 45 46  1  6  0  0  0
 45 44  1  0  0  0  0
 45 42  1  0  0  0  0
 45 40  1  0  0  0  0
 46 47  2  0  0  0  0
 48 46  1  0  0  0  0
 49 54  1  6  0  0  0
 49 52  1  0  0  0  0
 52 50  1  0  0  0  0
 52 51  2  0  0  0  0
 54 53  1  0  0  0  0
M  END
>  <MODEL>
1

>  <REMARK>
 VINA RESULT:       8.8      0.000      0.000
  Name = 
  8 active torsions:
  status: ('A' for Active; 'I' for Inactive)
    1  A    between atoms: C_7  and  C_35
    2  A    between atoms: C_9  and  C_25
    3  A    between atoms: C_15  and  C_46
    4  A    between atoms: C_24  and  C_35
    5  A    between atoms: C_24  and  O_48
    6  A    between atoms: C_25  and  C_34
    7  A    between atoms: C_25  and  C_52
    8  A    between atoms: C_46  and  O_48
                            x       y       z     vdW  Elec       q    Type
                         _______ _______ _______ _____ _____    ______ ____

>  <TORSDO>
F 8

$$$$
=
 OpenBabel11072410353D

 54 57  0  0  1  0  0  0  0  0999 V2000
  162.7010  208.8740  148.0690 C   0  0  0  0  0  2  0  0  0  0  0  0
  160.3230  206.7280  151.4520 C   0  0  2  0  0  3  0  0  0  0  0  0
  161.4770  211.9590  149.0730 C   0  0  1  0  0  3  0  0  0  0  0  0
  161.4300  202.3770  145.7220 O   0  0  0  0  0  0  0  0  0  0  0  0
  161.2160  209.3840  153.6060 C   0  0  1  0  0  0  0  0  0  0  0  0
  161.5500  205.4640  146.7380 C   0  0  0  0  0  2  0  0  0  0  0  0
  161.1740  201.5190  146.6100 C   0  0  0  0  0  0  0  0  0  0  0  0
  162.4540  203.8750  149.8550 C   0  0  0  0  0  2  0  0  0  0  0  0
  161.3860  206.0950  150.5430 C   0  0  1  0  0  3  0  0  0  0  0  0
  162.7360  206.0940  153.6950 O   0  0  0  0  0  0  0  0  0  0  0  0
  162.6990  207.3420  148.0050 C   0  0  2  0  0  3  0  0  0  0  0  0
  161.8510  206.9600  153.4580 C   0  0  0  0  0  0  0  0  0  0  0  0
  162.7700  210.2120  151.9120 O   0  0  0  0  0  1  0  0  0  0  0  0
  160.6940  208.9880  149.3310 O   0  0  0  0  0  0  0  0  0  0  0  0
  160.7380  211.7350  150.2470 O   0  0  0  0  0  0  0  0  0  0  0  0
  162.8470  211.8930  149.2970 F   0  0  0  0  0  0  0  0  0  0  0  0
  161.0580  211.9030  152.6160 C   0  0  2  0  0  3  0  0  0  0  0  0
  162.5630  206.9650  150.4780 N   0  0  0  0  0  2  0  0  0  0  0  0
  159.5140  203.4000  149.2640 O   0  0  0  0  0  0  0  0  0  0  0  0
  161.3660  206.7100  147.5970 C   0  0  0  0  0  2  0  0  0  0  0  0
  160.5150  206.4980  152.9540 C   0  0  0  0  0  2  0  0  0  0  0  0
  159.6970  211.9670  152.9350 O   0  0  0  0  0  1  0  0  0  0  0  0
  161.7250  204.6540  150.9500 C   0  0  0  0  0  2  0  0  0  0  0  0
  161.2660  212.5540  151.2550 C   0  0  0  0  0  2  0  0  0  0  0  0
  161.6040  210.4570  152.6430 C   0  0  2  0  0  0  0  0  0  0  0  0
  161.1040  210.9060  148.0320 C   0  0  0  0  0  2  0  0  0  0  0  0
  161.7030  203.8330  148.6000 N   0  0  0  0  0  0  0  0  0  0  0  0
  158.9450  206.2460  151.0430 C   0  0  0  0  0  1  0  0  0  0  0  0
  160.6070  209.5080  152.3350 O   0  0  0  0  0  0  0  0  0  0  0  0
  162.1530  208.3080  153.6840 O   0  0  0  0  0  0  0  0  0  0  0  0
  160.3770  201.8790  147.7450 N   0  0  0  0  0  2  0  0  0  0  0  0
  161.4270  209.5280  148.5210 C   0  0  0  0  0  0  0  0  0  0  0  0
  162.3670  204.3650  147.4150 C   0  0  0  0  0  2  0  0  0  0  0  0
  160.4800  203.0810  148.5210 C   0  0  0  0  0  0  0  0  0  0  0  0
  163.3190  206.7020  149.2560 C   0  0  0  0  0  2  0  0  0  0  0  0
  161.0020  210.5690  155.6710 F   0  0  0  0  0  0  0  0  0  0  0  0
  160.3320  209.6870  154.8410 C   0  0  2  0  0  0  0  0  0  0  0  0
  160.1080  208.5090  155.5590 O   0  0  0  0  0  1  0  0  0  0  0  0
  158.9860  210.3030  154.4780 C   0  0  0  0  0  2  0  0  0  0  0  0
  158.0710  210.2090  155.5370 O   0  0  0  0  0  0  0  0  0  0  0  0
  155.5790  210.8220  154.4190 O   0  0  0  0  0  1  0  0  0  0  0  0
  156.3790  211.4680  156.4900 O   0  0  0  0  0  0  0  0  0  0  0  0
  155.7520  213.2550  154.9710 C   0  0  0  0  0  1  0  0  0  0  0  0
  156.2290  211.8240  155.1370 C   0  0  2  0  0  0  0  0  0  0  0  0
  157.5610  211.5040  155.7170 C   0  0  2  0  0  0  0  0  0  0  0  0
  158.4940  212.5800  156.2010 C   0  0  0  0  0  0  0  0  0  0  0  0
  159.0910  212.4500  157.2600 O   0  0  0  0  0  0  0  0  0  0  0  0
  158.7100  213.8060  155.3720 C   0  0  0  0  0  1  0  0  0  0  0  0
  161.6250  200.1000  146.3990 C   0  0  2  0  0  3  0  0  0  0  0  0
  159.7970  200.0820  144.5270 C   0  0  0  0  0  1  0  0  0  0  0  0
  161.1640  198.1200  145.0320 C   0  0  0  0  0  2  0  0  0  0  0  0
  160.8640  199.3880  145.3120 C   0  0  0  0  0  0  0  0  0  0  0  0
  161.8550  200.2520  148.8880 C   0  0  0  0  0  1  0  0  0  0  0  0
  161.5750  199.3310  147.7140 C   0  0  0  0  0  2  0  0  0  0  0  0
  1 32  1  0  0  0  0
  2 28  1  6  0  0  0
  2 21  1  0  0  0  0
  3 16  1  1  0  0  0
  3 15  1  0  0  0  0
  4  7  2  0  0  0  0
  5 30  1  0  0  0  0
  5 37  1  1  0  0  0
  6 33  1  0  0  0  0
  6 20  1  0  0  0  0
  7 31  1  0  0  0  0
  8 23  1  0  0  0  0
  9 23  1  1  0  0  0
  9  2  1  0  0  0  0
 11 20  1  1  0  0  0
 11  1  1  0  0  0  0
 11 35  1  0  0  0  0
 12 30  1  0  0  0  0
 12 10  2  0  0  0  0
 15 24  1  0  0  0  0
 17 25  1  0  0  0  0
 17 22  1  6  0  0  0
 18  9  1  0  0  0  0
 21 12  1  0  0  0  0
 24 17  1  0  0  0  0
 25 13  1  6  0  0  0
 25  5  1  0  0  0  0
 26 32  1  0  0  0  0
 26  3  1  0  0  0  0
 27  8  1  0  0  0  0
 29 25  1  0  0  0  0
 29  5  1  0  0  0  0
 31 34  1  0  0  0  0
 32 14  2  0  0  0  0
 33 27  1  0  0  0  0
 34 27  1  0  0  0  0
 34 19  2  0  0  0  0
 35 18  1  0  0  0  0
 37 38  1  1  0  0  0
 37 36  1  0  0  0  0
 39 37  1  0  0  0  0
 39 40  1  0  0  0  0
 41 44  1  0  0  0  0
 44 43  1  6  0  0  0
 44 45  1  0  0  0  0
 44 42  1  0  0  0  0
 45 40  1  6  0  0  0
 45 46  1  0  0  0  0
 45 42  1  0  0  0  0
 46 47  2  0  0  0  0
 48 46  1  0  0  0  0
 49  7  1  0  0  0  0
 49 54  1  1  0  0  0
 50 52  1  0  0  0  0
 51 52  2  0  0  0  0
 52 49  1  0  0  0  0
 54 53  1  0  0  0  0
M  END
>  <MODEL>
2

>  <REMARK>
 VINA RESULT:      10.4      3.817     11.141
  Name = 
  8 active torsions:
  status: ('A' for Active; 'I' for Inactive)
    1  A    between atoms: C_7  and  C_35
    2  A    between atoms: C_9  and  C_25
    3  A    between atoms: C_15  and  C_46
    4  A    between atoms: C_24  and  C_35
    5  A    between atoms: C_24  and  O_48
    6  A    between atoms: C_25  and  C_34
    7  A    between atoms: C_25  and  C_52
    8  A    between atoms: C_46  and  O_48
                            x       y       z     vdW  Elec       q    Type
                         _______ _______ _______ _____ _____    ______ ____

>  <TORSDO>
F 8

$$$$
=
 OpenBabel11072410353D

 54 57  0  0  1  0  0  0  0  0999 V2000
  162.7610  208.9260  148.0860 C   0  0  0  0  0  2  0  0  0  0  0  0
  160.2730  206.8140  151.4110 C   0  0  2  0  0  3  0  0  0  0  0  0
  161.5440  212.0260  149.0510 C   0  0  1  0  0  3  0  0  0  0  0  0
  161.4820  202.4370  145.7210 O   0  0  0  0  0  0  0  0  0  0  0  0
  161.1380  209.4650  153.5810 C   0  0  1  0  0  0  0  0  0  0  0  0
  161.6080  205.5250  146.7330 C   0  0  0  0  0  2  0  0  0  0  0  0
  161.1940  201.5840  146.6050 C   0  0  0  0  0  0  0  0  0  0  0  0
  162.4140  203.9350  149.8760 C   0  0  0  0  0  2  0  0  0  0  0  0
  161.3520  206.1680  150.5320 C   0  0  1  0  0  3  0  0  0  0  0  0
  162.6210  206.1600  153.7170 O   0  0  0  0  0  0  0  0  0  0  0  0
  162.7440  207.3940  148.0260 C   0  0  2  0  0  3  0  0  0  0  0  0
  161.7510  207.0340  153.4560 C   0  0  0  0  0  0  0  0  0  0  0  0
  162.7450  210.2730  151.9270 O   0  0  0  0  0  1  0  0  0  0  0  0
  160.7230  209.0640  149.2950 O   0  0  0  0  0  0  0  0  0  0  0  0
  160.7720  211.8130  150.2060 O   0  0  0  0  0  0  0  0  0  0  0  0
  162.9070  211.9460  149.3110 F   0  0  0  0  0  0  0  0  0  0  0  0
  161.0330  211.9830  152.5830 C   0  0  2  0  0  3  0  0  0  0  0  0
  162.5400  207.0250  150.4950 N   0  0  0  0  0  2  0  0  0  0  0  0
  159.4860  203.4890  149.2100 O   0  0  0  0  0  0  0  0  0  0  0  0
  161.4160  206.7750  147.5850 C   0  0  0  0  0  2  0  0  0  0  0  0
  160.4250  206.5850  152.9190 C   0  0  0  0  0  2  0  0  0  0  0  0
  159.6650  212.0620  152.8660 O   0  0  0  0  0  1  0  0  0  0  0  0
  161.6660  204.7240  150.9500 C   0  0  0  0  0  2  0  0  0  0  0  0
  161.2830  212.6290  151.2250 C   0  0  0  0  0  2  0  0  0  0  0  0
  161.5630  210.5320  152.6260 C   0  0  2  0  0  0  0  0  0  0  0  0
  161.1870  210.9750  148.0030 C   0  0  0  0  0  2  0  0  0  0  0  0
  161.6960  203.8980  148.6020 N   0  0  0  0  0  0  0  0  0  0  0  0
  158.9010  206.3450  150.9680 C   0  0  0  0  0  1  0  0  0  0  0  0
  160.5640  209.5920  152.2950 O   0  0  0  0  0  0  0  0  0  0  0  0
  162.0610  208.3790  153.6860 O   0  0  0  0  0  0  0  0  0  0  0  0
  160.3720  201.9550  147.7180 N   0  0  0  0  0  2  0  0  0  0  0  0
  161.4820  209.5950  148.5040 C   0  0  0  0  0  0  0  0  0  0  0  0
  162.3960  204.4190  147.4340 C   0  0  0  0  0  2  0  0  0  0  0  0
  160.4670  203.1580  148.4940 C   0  0  0  0  0  0  0  0  0  0  0  0
  163.3250  206.7510  149.2930 C   0  0  0  0  0  2  0  0  0  0  0  0
  160.8850  210.6570  155.6380 F   0  0  0  0  0  0  0  0  0  0  0  0
  160.2260  209.7810  154.7930 C   0  0  2  0  0  0  0  0  0  0  0  0
  159.9700  208.6070  155.5070 O   0  0  0  0  0  1  0  0  0  0  0  0
  158.8970  210.4110  154.3930 C   0  0  0  0  0  2  0  0  0  0  0  0
  158.3750  211.2110  155.4210 O   0  0  0  0  0  0  0  0  0  0  0  0
  157.9730  213.8400  154.5450 O   0  0  0  0  0  1  0  0  0  0  0  0
  157.0940  211.9100  153.6230 O   0  0  0  0  0  0  0  0  0  0  0  0
  155.4920  213.5720  154.3750 C   0  0  0  0  0  1  0  0  0  0  0  0
  156.8800  212.9760  154.5170 C   0  0  2  0  0  0  0  0  0  0  0  0
  157.0890  211.5830  154.9980 C   0  0  2  0  0  0  0  0  0  0  0  0
  155.9350  210.6800  155.3380 C   0  0  0  0  0  0  0  0  0  0  0  0
  155.4910  209.9040  154.5040 O   0  0  0  0  0  0  0  0  0  0  0  0
  155.3410  210.7170  156.7100 C   0  0  0  0  0  1  0  0  0  0  0  0
  161.6350  200.1600  146.4090 C   0  0  2  0  0  3  0  0  0  0  0  0
  161.1550  198.0130  144.9920 C   0  0  0  0  0  1  0  0  0  0  0  0
  159.8820  200.0780  144.6980 C   0  0  0  0  0  2  0  0  0  0  0  0
  160.8610  199.4380  145.3370 C   0  0  0  0  0  0  0  0  0  0  0  0
  161.7980  200.3590  148.9000 C   0  0  0  0  0  1  0  0  0  0  0  0
  161.5920  199.4090  147.7330 C   0  0  0  0  0  2  0  0  0  0  0  0
  1 32  1  0  0  0  0
  2 28  1  6  0  0  0
  2 21  1  0  0  0  0
  3 16  1  1  0  0  0
  3 15  1  0  0  0  0
  4  7  2  0  0  0  0
  5 30  1  0  0  0  0
  5 37  1  1  0  0  0
  6 33  1  0  0  0  0
  6 20  1  0  0  0  0
  7 31  1  0  0  0  0
  8 23  1  0  0  0  0
  9 23  1  1  0  0  0
  9  2  1  0  0  0  0
 11 20  1  1  0  0  0
 11  1  1  0  0  0  0
 11 35  1  0  0  0  0
 12 30  1  0  0  0  0
 12 10  2  0  0  0  0
 15 24  1  0  0  0  0
 17 25  1  0  0  0  0
 17 22  1  6  0  0  0
 18  9  1  0  0  0  0
 21 12  1  0  0  0  0
 24 17  1  0  0  0  0
 25 13  1  6  0  0  0
 25  5  1  0  0  0  0
 26 32  1  0  0  0  0
 26  3  1  0  0  0  0
 27  8  1  0  0  0  0
 29 25  1  0  0  0  0
 29  5  1  0  0  0  0
 31 34  1  0  0  0  0
 32 14  2  0  0  0  0
 33 27  1  0  0  0  0
 34 27  1  0  0  0  0
 34 19  2  0  0  0  0
 35 18  1  0  0  0  0
 37 38  1  1  0  0  0
 37 36  1  0  0  0  0
 39 37  1  0  0  0  0
 39 40  1  0  0  0  0
 42 44  1  0  0  0  0
 42 45  1  0  0  0  0
 44 43  1  1  0  0  0
 44 41  1  0  0  0  0
 44 45  1  0  0  0  0
 45 46  1  1  0  0  0
 45 40  1  0  0  0  0
 46 48  1  0  0  0  0
 47 46  2  0  0  0  0
 49  7  1  0  0  0  0
 49 54  1  1  0  0  0
 50 52  1  0  0  0  0
 51 52  2  0  0  0  0
 52 49  1  0  0  0  0
 54 53  1  0  0  0  0
M  END
>  <MODEL>
3

>  <REMARK>
 VINA RESULT:      10.8      3.832     11.014
  Name = 
  8 active torsions:
  status: ('A' for Active; 'I' for Inactive)
    1  A    between atoms: C_7  and  C_35
    2  A    between atoms: C_9  and  C_25
    3  A    between atoms: C_15  and  C_46
    4  A    between atoms: C_24  and  C_35
    5  A    between atoms: C_24  and  O_48
    6  A    between atoms: C_25  and  C_34
    7  A    between atoms: C_25  and  C_52
    8  A    between atoms: C_46  and  O_48
                            x       y       z     vdW  Elec       q    Type
                         _______ _______ _______ _____ _____    ______ ____

>  <TORSDO>
F 8

$$$$
