=
 OpenBabel11072414013D

 29 33  0  0  1  0  0  0  0  0999 V2000
  162.2670  208.8910  150.4220 C   0  0  0  0  0  1  0  0  0  0  0  0
  162.2870  206.6610  151.6730 C   0  0  1  0  0  3  0  0  0  0  0  0
  161.1010  206.5580  150.7190 C   0  0  1  0  0  3  0  0  0  0  0  0
  161.4990  207.9130  151.2990 C   0  0  2  0  0  0  0  0  0  0  0  0
  161.2070  204.9680  148.7120 C   0  0  1  0  0  3  0  0  0  0  0  0
  160.4460  206.2270  148.3450 C   0  0  1  0  0  3  0  0  0  0  0  0
  161.6180  206.3200  149.3000 C   0  0  1  0  0  3  0  0  0  0  0  0
  160.8500  206.6560  147.0820 O   0  0  0  0  0  1  0  0  0  0  0  0
  160.4450  204.2080  149.6050 O   0  0  0  0  0  0  0  0  0  0  0  0
  160.8160  202.8870  149.3480 C   0  0  0  0  0  2  0  0  0  0  0  0
  161.2420  202.7440  147.8990 C   0  0  0  0  0  2  0  0  0  0  0  0
  160.9270  201.4680  147.4350 O   0  0  0  0  0  0  0  0  0  0  0  0
  160.7180  201.6330  146.0670 C   0  0  0  0  0  1  0  0  0  0  0  0
  161.1310  204.7750  152.7950 C   0  0  0  0  0  1  0  0  0  0  0  0
  161.8990  206.0610  153.0160 C   0  0  0  0  0  2  0  0  0  0  0  0
  160.5210  208.4880  152.3180 C   0  0  0  0  0  2  0  0  0  0  0  0
  161.1230  209.5320  153.0250 O   0  0  0  0  0  0  0  0  0  0  0  0
  159.0110  211.4840  152.4880 O   0  0  0  0  0  1  0  0  0  0  0  0
  160.1510  209.9570  153.9400 C   0  0  2  0  0  3  0  0  0  0  0  0
  159.7820  211.4120  153.6490 C   0  0  2  0  0  3  0  0  0  0  0  0
  161.8030  209.0380  155.4480 O   0  0  0  0  0  1  0  0  0  0  0  0
  159.6470  209.1220  156.1360 O   0  0  0  0  0  1  0  0  0  0  0  0
  159.6710  213.2000  155.3870 C   0  0  1  0  0  0  0  0  0  0  0  0
  160.6300  209.7960  155.4020 C   0  0  0  0  0  0  0  0  0  0  0  0
  158.9910  211.9820  154.8210 C   0  0  2  0  0  3  0  0  0  0  0  0
  160.1800  213.0740  156.7940 C   0  0  0  0  0  2  0  0  0  0  0  0
  158.5870  214.0560  155.5680 O   0  0  0  0  0  1  0  0  0  0  0  0
  160.8970  211.0670  155.9740 O   0  0  0  0  0  0  0  0  0  0  0  0
  159.7030  211.8160  156.1530 C   0  0  2  0  0  0  0  0  0  0  0  0
  2 15  1  1  0  0  0
  3  7  1  6  0  0  0
  3  4  1  0  0  0  0
  3  2  1  0  0  0  0
  4  1  1  6  0  0  0
  4  2  1  0  0  0  0
  4 16  1  0  0  0  0
  5  7  1  0  0  0  0
  5  9  1  1  0  0  0
  6  8  1  6  0  0  0
  6  5  1  0  0  0  0
  6  7  1  0  0  0  0
 10  9  1  0  0  0  0
 11 10  1  0  0  0  0
 12 11  1  0  0  0  0
 13 12  1  0  0  0  0
 14 15  1  0  0  0  0
 16 17  1  0  0  0  0
 17 19  1  0  0  0  0
 18 20  1  0  0  0  0
 19 24  1  0  0  0  0
 20 19  1  0  0  0  0
 20 25  1  0  0  0  0
 23 27  1  0  0  0  0
 23 29  1  0  0  0  0
 23 26  1  0  0  0  0
 24 21  1  0  0  0  0
 24 28  1  0  0  0  0
 24 22  1  0  0  0  0
 25 23  1  0  0  0  0
 25 29  1  0  0  0  0
 28 29  1  0  0  0  0
 29 26  1  0  0  0  0
M  END
>  <MODEL>
1

>  <REMARK>
 VINA RESULT:      -6.8      0.000      0.000
  Name = 
  9 active torsions:
  status: ('A' for Active; 'I' for Inactive)
    1  A    between atoms: O_1  and  C_28
    2  A    between atoms: C_2  and  O_29
    3  A    between atoms: C_3  and  C_23
    4  A    between atoms: C_3  and  O_25
    5  A    between atoms: C_6  and  O_25
    6  A    between atoms: C_13  and  C_15
    7  A    between atoms: C_14  and  C_27
    8  A    between atoms: C_26  and  C_28
    9  A    between atoms: C_26  and  O_29
                            x       y       z     vdW  Elec       q    Type
                         _______ _______ _______ _____ _____    ______ ____

>  <TORSDO>
F 9

$$$$
=
 OpenBabel11072414013D

 29 33  0  0  1  0  0  0  0  0999 V2000
  162.6350  205.8700  153.1470 C   0  0  0  0  0  1  0  0  0  0  0  0
  161.7970  208.2260  152.6130 C   0  0  1  0  0  3  0  0  0  0  0  0
  160.6630  207.5830  153.4050 C   0  0  1  0  0  3  0  0  0  0  0  0
  161.5490  206.7240  152.5070 C   0  0  2  0  0  0  0  0  0  0  0  0
  160.5650  208.7380  155.6900 C   0  0  1  0  0  3  0  0  0  0  0  0
  159.7970  207.4320  155.7300 C   0  0  1  0  0  3  0  0  0  0  0  0
  161.0490  207.5310  154.8830 C   0  0  1  0  0  3  0  0  0  0  0  0
  160.0960  206.7590  156.9120 O   0  0  0  0  0  1  0  0  0  0  0  0
  159.8720  209.6630  154.9040 O   0  0  0  0  0  0  0  0  0  0  0  0
  159.7090  210.7760  155.7290 C   0  0  0  0  0  2  0  0  0  0  0  0
  159.8650  212.0480  154.9170 C   0  0  0  0  0  2  0  0  0  0  0  0
  160.5230  211.7670  153.7190 O   0  0  0  0  0  0  0  0  0  0  0  0
  159.7760  212.4290  152.7460 C   0  0  0  0  0  1  0  0  0  0  0  0
  162.2010  210.0870  151.0230 C   0  0  0  0  0  1  0  0  0  0  0  0
  161.2070  209.0350  151.4670 C   0  0  0  0  0  2  0  0  0  0  0  0
  160.8660  206.1860  151.2540 C   0  0  0  0  0  2  0  0  0  0  0  0
  161.8170  205.6490  150.3830 O   0  0  0  0  0  0  0  0  0  0  0  0
  160.3990  203.3040  149.3570 O   0  0  0  0  0  1  0  0  0  0  0  0
  161.1660  205.5640  149.1450 C   0  0  2  0  0  3  0  0  0  0  0  0
  161.2520  204.1290  148.6230 C   0  0  2  0  0  3  0  0  0  0  0  0
  162.6170  207.4580  148.7510 O   0  0  0  0  0  1  0  0  0  0  0  0
  160.7170  207.2870  147.5310 O   0  0  0  0  0  1  0  0  0  0  0  0
  161.9590  203.5250  146.3070 C   0  0  1  0  0  0  0  0  0  0  0  0
  161.7580  206.5570  148.1170 C   0  0  0  0  0  0  0  0  0  0  0  0
  160.8520  204.0970  147.1520 C   0  0  2  0  0  3  0  0  0  0  0  0
  162.5820  204.4670  145.3170 C   0  0  0  0  0  2  0  0  0  0  0  0
  161.2440  202.6800  145.4610 O   0  0  0  0  0  1  0  0  0  0  0  0
  162.4950  205.8570  147.1270 O   0  0  0  0  0  0  0  0  0  0  0  0
  161.6430  205.0760  146.3010 C   0  0  2  0  0  0  0  0  0  0  0  0
  2 15  1  6  0  0  0
  2  3  1  0  0  0  0
  3  7  1  1  0  0  0
  4  2  1  0  0  0  0
  4  1  1  1  0  0  0
  4  3  1  0  0  0  0
  5  9  1  6  0  0  0
  5  6  1  0  0  0  0
  6  8  1  1  0  0  0
  7  5  1  0  0  0  0
  7  6  1  0  0  0  0
  9 10  1  0  0  0  0
 11 10  1  0  0  0  0
 12 11  1  0  0  0  0
 13 12  1  0  0  0  0
 14 15  1  0  0  0  0
 16  4  1  0  0  0  0
 17 16  1  0  0  0  0
 19 17  1  0  0  0  0
 20 19  1  0  0  0  0
 20 18  1  0  0  0  0
 22 24  1  0  0  0  0
 23 25  1  0  0  0  0
 24 21  1  0  0  0  0
 24 19  1  0  0  0  0
 25 20  1  0  0  0  0
 26 29  1  0  0  0  0
 26 23  1  0  0  0  0
 27 23  1  0  0  0  0
 28 24  1  0  0  0  0
 29 23  1  0  0  0  0
 29 28  1  0  0  0  0
 29 25  1  0  0  0  0
M  END
>  <MODEL>
2

>  <REMARK>
 VINA RESULT:      -6.2      1.721      9.034
  Name = 
  9 active torsions:
  status: ('A' for Active; 'I' for Inactive)
    1  A    between atoms: O_1  and  C_28
    2  A    between atoms: C_2  and  O_29
    3  A    between atoms: C_3  and  C_23
    4  A    between atoms: C_3  and  O_25
    5  A    between atoms: C_6  and  O_25
    6  A    between atoms: C_13  and  C_15
    7  A    between atoms: C_14  and  C_27
    8  A    between atoms: C_26  and  C_28
    9  A    between atoms: C_26  and  O_29
                            x       y       z     vdW  Elec       q    Type
                         _______ _______ _______ _____ _____    ______ ____

>  <TORSDO>
F 9

$$$$
=
 OpenBabel11072414013D

 29 33  0  0  1  0  0  0  0  0999 V2000
  162.2290  209.1690  150.2080 C   0  0  0  0  0  1  0  0  0  0  0  0
  162.1420  207.1830  151.8170 C   0  0  1  0  0  3  0  0  0  0  0  0
  160.9590  206.9710  150.8780 C   0  0  1  0  0  3  0  0  0  0  0  0
  161.4120  208.3860  151.2270 C   0  0  2  0  0  0  0  0  0  0  0  0
  161.0930  205.0260  149.2150 C   0  0  1  0  0  3  0  0  0  0  0  0
  160.2990  206.1710  148.6190 C   0  0  1  0  0  3  0  0  0  0  0  0
  161.4730  206.4750  149.5260 C   0  0  1  0  0  3  0  0  0  0  0  0
  160.6850  206.3570  147.2930 O   0  0  0  0  0  1  0  0  0  0  0  0
  160.3570  204.4340  150.2450 O   0  0  0  0  0  0  0  0  0  0  0  0
  160.8710  203.1410  150.3490 C   0  0  0  0  0  2  0  0  0  0  0  0
  160.3110  202.2730  149.2370 C   0  0  0  0  0  2  0  0  0  0  0  0
  161.3530  201.6400  148.5600 O   0  0  0  0  0  0  0  0  0  0  0  0
  160.8570  201.4290  147.2740 C   0  0  0  0  0  1  0  0  0  0  0  0
  161.2370  205.4000  153.2860 C   0  0  0  0  0  1  0  0  0  0  0  0
  161.7180  206.8350  153.2360 C   0  0  0  0  0  2  0  0  0  0  0  0
  160.4540  209.1650  152.1210 C   0  0  0  0  0  2  0  0  0  0  0  0
  160.6010  210.5370  151.9020 O   0  0  0  0  0  0  0  0  0  0  0  0
  163.1310  210.3900  153.3640 O   0  0  0  0  0  1  0  0  0  0  0  0
  160.8460  211.0820  153.1680 C   0  0  2  0  0  3  0  0  0  0  0  0
  161.8590  210.2110  153.9100 C   0  0  2  0  0  3  0  0  0  0  0  0
  158.4280  211.0160  153.1770 O   0  0  0  0  0  1  0  0  0  0  0  0
  159.4670  212.5290  154.5040 O   0  0  0  0  0  1  0  0  0  0  0  0
  161.5610  209.4060  156.2540 C   0  0  1  0  0  0  0  0  0  0  0  0
  159.5440  211.2280  153.9910 C   0  0  0  0  0  0  0  0  0  0  0  0
  161.8800  210.5940  155.3850 C   0  0  2  0  0  3  0  0  0  0  0  0
  160.2870  209.4950  157.0450 C   0  0  0  0  0  2  0  0  0  0  0  0
  162.5140  209.5440  157.2610 O   0  0  0  0  0  1  0  0  0  0  0  0
  159.5170  210.2750  155.0410 O   0  0  0  0  0  0  0  0  0  0  0  0
  160.5020  210.5600  156.0260 C   0  0  2  0  0  0  0  0  0  0  0  0
  2 15  1  1  0  0  0
  3  7  1  6  0  0  0
  3  4  1  0  0  0  0
  3  2  1  0  0  0  0
  4  1  1  6  0  0  0
  4  2  1  0  0  0  0
  4 16  1  0  0  0  0
  5  7  1  0  0  0  0
  5  9  1  1  0  0  0
  6  8  1  6  0  0  0
  6  5  1  0  0  0  0
  6  7  1  0  0  0  0
  9 10  1  0  0  0  0
 11 10  1  0  0  0  0
 12 11  1  0  0  0  0
 13 12  1  0  0  0  0
 15 14  1  0  0  0  0
 17 16  1  0  0  0  0
 17 19  1  0  0  0  0
 18 20  1  0  0  0  0
 19 20  1  0  0  0  0
 19 24  1  0  0  0  0
 20 25  1  0  0  0  0
 21 24  1  0  0  0  0
 23 26  1  0  0  0  0
 23 27  1  0  0  0  0
 24 22  1  0  0  0  0
 24 28  1  0  0  0  0
 25 29  1  0  0  0  0
 25 23  1  0  0  0  0
 28 29  1  0  0  0  0
 29 23  1  0  0  0  0
 29 26  1  0  0  0  0
M  END
>  <MODEL>
3

>  <REMARK>
 VINA RESULT:      -6.0      1.278      2.399
  Name = 
  9 active torsions:
  status: ('A' for Active; 'I' for Inactive)
    1  A    between atoms: O_1  and  C_28
    2  A    between atoms: C_2  and  O_29
    3  A    between atoms: C_3  and  C_23
    4  A    between atoms: C_3  and  O_25
    5  A    between atoms: C_6  and  O_25
    6  A    between atoms: C_13  and  C_15
    7  A    between atoms: C_14  and  C_27
    8  A    between atoms: C_26  and  C_28
    9  A    between atoms: C_26  and  O_29
                            x       y       z     vdW  Elec       q    Type
                         _______ _______ _______ _____ _____    ______ ____

>  <TORSDO>
F 9

$$$$
=
 OpenBabel11072414013D

 29 33  0  0  1  0  0  0  0  0999 V2000
  162.4570  206.0290  153.2900 C   0  0  0  0  0  1  0  0  0  0  0  0
  161.8830  208.4520  152.7070 C   0  0  1  0  0  3  0  0  0  0  0  0
  160.6450  207.9240  153.4250 C   0  0  1  0  0  3  0  0  0  0  0  0
  161.5010  206.9800  152.5840 C   0  0  2  0  0  0  0  0  0  0  0  0
  160.2950  208.9730  155.7370 C   0  0  1  0  0  3  0  0  0  0  0  0
  159.6360  207.6090  155.6740 C   0  0  1  0  0  3  0  0  0  0  0  0
  160.9310  207.8420  154.9250 C   0  0  1  0  0  3  0  0  0  0  0  0
  159.9070  206.9130  156.8510 O   0  0  0  0  0  1  0  0  0  0  0  0
  159.5840  209.8710  154.9350 O   0  0  0  0  0  0  0  0  0  0  0  0
  159.3420  210.9670  155.7630 C   0  0  0  0  0  2  0  0  0  0  0  0
  157.8480  211.1520  155.9500 C   0  0  0  0  0  2  0  0  0  0  0  0
  157.2310  211.3100  154.7090 O   0  0  0  0  0  0  0  0  0  0  0  0
  155.8930  210.9930  154.9410 C   0  0  0  0  0  1  0  0  0  0  0  0
  160.9730  210.6570  152.0260 C   0  0  0  0  0  1  0  0  0  0  0  0
  161.4460  209.3080  151.5270 C   0  0  0  0  0  2  0  0  0  0  0  0
  160.8490  206.5040  151.2900 C   0  0  0  0  0  2  0  0  0  0  0  0
  161.8010  205.8880  150.4720 O   0  0  0  0  0  0  0  0  0  0  0  0
  160.4040  203.5290  149.4500 O   0  0  0  0  0  1  0  0  0  0  0  0
  161.1860  205.7810  149.2190 C   0  0  2  0  0  3  0  0  0  0  0  0
  161.2810  204.3370  148.7260 C   0  0  2  0  0  3  0  0  0  0  0  0
  162.6560  207.6630  148.8300 O   0  0  0  0  0  1  0  0  0  0  0  0
  160.7910  207.4750  147.5590 O   0  0  0  0  0  1  0  0  0  0  0  0
  162.0530  203.6860  146.4440 C   0  0  1  0  0  0  0  0  0  0  0  0
  161.8110  206.7520  148.1890 C   0  0  0  0  0  0  0  0  0  0  0  0
  160.9240  204.2780  147.2450 C   0  0  2  0  0  3  0  0  0  0  0  0
  162.7080  204.6070  145.4550 C   0  0  0  0  0  2  0  0  0  0  0  0
  161.3590  202.8270  145.5940 O   0  0  0  0  0  1  0  0  0  0  0  0
  162.5750  206.0310  147.2350 O   0  0  0  0  0  0  0  0  0  0  0  0
  161.7430  205.2370  146.3990 C   0  0  2  0  0  0  0  0  0  0  0  0
  2 15  1  6  0  0  0
  2  3  1  0  0  0  0
  3  7  1  1  0  0  0
  4  2  1  0  0  0  0
  4  1  1  1  0  0  0
  4  3  1  0  0  0  0
  5  9  1  6  0  0  0
  6  5  1  0  0  0  0
  6  8  1  1  0  0  0
  7  6  1  0  0  0  0
  7  5  1  0  0  0  0
  9 10  1  0  0  0  0
 10 11  1  0  0  0  0
 12 13  1  0  0  0  0
 12 11  1  0  0  0  0
 15 14  1  0  0  0  0
 16  4  1  0  0  0  0
 17 16  1  0  0  0  0
 19 17  1  0  0  0  0
 20 19  1  0  0  0  0
 20 18  1  0  0  0  0
 22 24  1  0  0  0  0
 23 25  1  0  0  0  0
 24 21  1  0  0  0  0
 24 19  1  0  0  0  0
 25 20  1  0  0  0  0
 26 29  1  0  0  0  0
 26 23  1  0  0  0  0
 27 23  1  0  0  0  0
 28 24  1  0  0  0  0
 29 23  1  0  0  0  0
 29 28  1  0  0  0  0
 29 25  1  0  0  0  0
M  END
>  <MODEL>
4

>  <REMARK>
 VINA RESULT:      -6.0      1.880      9.082
  Name = 
  9 active torsions:
  status: ('A' for Active; 'I' for Inactive)
    1  A    between atoms: O_1  and  C_28
    2  A    between atoms: C_2  and  O_29
    3  A    between atoms: C_3  and  C_23
    4  A    between atoms: C_3  and  O_25
    5  A    between atoms: C_6  and  O_25
    6  A    between atoms: C_13  and  C_15
    7  A    between atoms: C_14  and  C_27
    8  A    between atoms: C_26  and  C_28
    9  A    between atoms: C_26  and  O_29
                            x       y       z     vdW  Elec       q    Type
                         _______ _______ _______ _____ _____    ______ ____

>  <TORSDO>
F 9

$$$$
=
 OpenBabel11072414013D

 29 33  0  0  1  0  0  0  0  0999 V2000
  162.5450  209.8940  150.8590 C   0  0  0  0  0  1  0  0  0  0  0  0
  161.8860  207.9250  152.3520 C   0  0  1  0  0  3  0  0  0  0  0  0
  160.9560  207.8240  151.1480 C   0  0  1  0  0  3  0  0  0  0  0  0
  161.4360  209.1910  151.6290 C   0  0  2  0  0  0  0  0  0  0  0  0
  161.4120  205.8270  149.6070 C   0  0  1  0  0  3  0  0  0  0  0  0
  160.7800  206.9610  148.8230 C   0  0  1  0  0  3  0  0  0  0  0  0
  161.7390  207.2820  149.9510 C   0  0  1  0  0  3  0  0  0  0  0  0
  161.4430  207.1030  147.6060 O   0  0  0  0  0  1  0  0  0  0  0  0
  160.4630  205.2750  150.4730 O   0  0  0  0  0  0  0  0  0  0  0  0
  160.9360  203.9900  150.7400 C   0  0  0  0  0  2  0  0  0  0  0  0
  160.6190  203.0710  149.5740 C   0  0  0  0  0  2  0  0  0  0  0  0
  160.8200  201.7430  149.9490 O   0  0  0  0  0  0  0  0  0  0  0  0
  161.1220  201.0850  148.7570 C   0  0  0  0  0  1  0  0  0  0  0  0
  161.1430  206.1300  153.8950 C   0  0  0  0  0  1  0  0  0  0  0  0
  161.0980  207.6180  153.6170 C   0  0  0  0  0  2  0  0  0  0  0  0
  160.3630  210.0570  152.2800 C   0  0  0  0  0  2  0  0  0  0  0  0
  160.5040  211.3850  151.8690 O   0  0  0  0  0  0  0  0  0  0  0  0
  161.4650  211.0510  154.6120 O   0  0  0  0  0  1  0  0  0  0  0  0
  160.1060  212.1490  152.9730 C   0  0  2  0  0  3  0  0  0  0  0  0
  160.1420  211.2820  154.2320 C   0  0  2  0  0  3  0  0  0  0  0  0
  158.2880  212.6050  151.4440 O   0  0  0  0  0  1  0  0  0  0  0  0
  158.7480  214.1310  153.0530 O   0  0  0  0  0  1  0  0  0  0  0  0
  158.2780  211.1380  155.8850 C   0  0  1  0  0  0  0  0  0  0  0  0
  158.6990  212.7600  152.7710 C   0  0  0  0  0  0  0  0  0  0  0  0
  159.4040  211.9900  155.3620 C   0  0  2  0  0  3  0  0  0  0  0  0
  156.8940  211.6820  155.6790 C   0  0  0  0  0  2  0  0  0  0  0  0
  158.4310  211.3030  157.2600 O   0  0  0  0  0  1  0  0  0  0  0  0
  157.7570  212.1110  153.6090 O   0  0  0  0  0  0  0  0  0  0  0  0
  157.9930  212.4040  154.9800 C   0  0  2  0  0  0  0  0  0  0  0  0
  2 15  1  1  0  0  0
  3  7  1  6  0  0  0
  3  4  1  0  0  0  0
  3  2  1  0  0  0  0
  4  1  1  6  0  0  0
  4 16  1  0  0  0  0
  4  2  1  0  0  0  0
  5  7  1  0  0  0  0
  5  9  1  1  0  0  0
  6  8  1  6  0  0  0
  6  5  1  0  0  0  0
  6  7  1  0  0  0  0
  9 10  1  0  0  0  0
 11 12  1  0  0  0  0
 11 10  1  0  0  0  0
 13 12  1  0  0  0  0
 15 14  1  0  0  0  0
 17 16  1  0  0  0  0
 17 19  1  0  0  0  0
 19 20  1  0  0  0  0
 20 18  1  0  0  0  0
 20 25  1  0  0  0  0
 21 24  1  0  0  0  0
 23 27  1  0  0  0  0
 24 19  1  0  0  0  0
 24 22  1  0  0  0  0
 24 28  1  0  0  0  0
 25 23  1  0  0  0  0
 26 23  1  0  0  0  0
 28 29  1  0  0  0  0
 29 25  1  0  0  0  0
 29 26  1  0  0  0  0
 29 23  1  0  0  0  0
M  END
>  <MODEL>
5

>  <REMARK>
 VINA RESULT:      -6.0      1.617      2.715
  Name = 
  9 active torsions:
  status: ('A' for Active; 'I' for Inactive)
    1  A    between atoms: O_1  and  C_28
    2  A    between atoms: C_2  and  O_29
    3  A    between atoms: C_3  and  C_23
    4  A    between atoms: C_3  and  O_25
    5  A    between atoms: C_6  and  O_25
    6  A    between atoms: C_13  and  C_15
    7  A    between atoms: C_14  and  C_27
    8  A    between atoms: C_26  and  C_28
    9  A    between atoms: C_26  and  O_29
                            x       y       z     vdW  Elec       q    Type
                         _______ _______ _______ _____ _____    ______ ____

>  <TORSDO>
F 9

$$$$
=
 OpenBabel11072414013D

 29 33  0  0  1  0  0  0  0  0999 V2000
  162.7630  207.9380  150.0470 C   0  0  0  0  0  1  0  0  0  0  0  0
  161.6790  205.6490  150.4040 C   0  0  1  0  0  3  0  0  0  0  0  0
  160.7680  206.3560  149.4050 C   0  0  1  0  0  3  0  0  0  0  0  0
  161.5180  207.1650  150.4600 C   0  0  2  0  0  0  0  0  0  0  0  0
  161.5020  204.9860  147.3670 C   0  0  1  0  0  3  0  0  0  0  0  0
  160.4260  205.9790  146.9720 C   0  0  1  0  0  3  0  0  0  0  0  0
  161.4390  206.3640  148.0310 C   0  0  1  0  0  3  0  0  0  0  0  0
  160.7760  206.5800  145.7650 O   0  0  0  0  0  1  0  0  0  0  0  0
  160.9400  203.9840  148.1640 O   0  0  0  0  0  0  0  0  0  0  0  0
  161.3960  202.7910  147.6020 C   0  0  0  0  0  2  0  0  0  0  0  0
  160.4810  201.6490  148.0050 C   0  0  0  0  0  2  0  0  0  0  0  0
  161.1960  200.7070  148.7430 O   0  0  0  0  0  0  0  0  0  0  0  0
  160.8360  200.9530  150.0680 C   0  0  0  0  0  1  0  0  0  0  0  0
  161.6250  203.7590  152.0100 C   0  0  0  0  0  1  0  0  0  0  0  0
  160.8230  204.8960  151.4110 C   0  0  0  0  0  2  0  0  0  0  0  0
  160.6410  207.7630  151.5550 C   0  0  0  0  0  2  0  0  0  0  0  0
  161.4390  208.3060  152.5660 O   0  0  0  0  0  0  0  0  0  0  0  0
  159.9650  210.8320  152.6620 O   0  0  0  0  0  1  0  0  0  0  0  0
  160.5410  208.6900  153.5690 C   0  0  2  0  0  3  0  0  0  0  0  0
  160.5910  210.2090  153.7430 C   0  0  2  0  0  3  0  0  0  0  0  0
  161.7630  206.9470  154.7170 O   0  0  0  0  0  1  0  0  0  0  0  0
  159.6550  207.4120  155.4020 O   0  0  0  0  0  1  0  0  0  0  0  0
  160.8090  211.3570  155.9470 C   0  0  1  0  0  0  0  0  0  0  0  0
  160.8370  207.9770  154.9090 C   0  0  0  0  0  0  0  0  0  0  0  0
  159.8820  210.5990  155.0350 C   0  0  2  0  0  3  0  0  0  0  0  0
  161.1480  210.6830  157.2460 C   0  0  0  0  0  2  0  0  0  0  0  0
  159.9760  212.3840  156.3860 O   0  0  0  0  0  1  0  0  0  0  0  0
  161.3800  208.8950  155.8450 O   0  0  0  0  0  0  0  0  0  0  0  0
  160.4130  209.8550  156.2490 C   0  0  2  0  0  0  0  0  0  0  0  0
  2  4  1  0  0  0  0
  2 15  1  1  0  0  0
  3  7  1  6  0  0  0
  3  2  1  0  0  0  0
  3  4  1  0  0  0  0
  4  1  1  6  0  0  0
  4 16  1  0  0  0  0
  5  7  1  0  0  0  0
  5  9  1  1  0  0  0
  6  8  1  6  0  0  0
  6  5  1  0  0  0  0
  6  7  1  0  0  0  0
 10 11  1  0  0  0  0
 10  9  1  0  0  0  0
 11 12  1  0  0  0  0
 12 13  1  0  0  0  0
 15 14  1  0  0  0  0
 16 17  1  0  0  0  0
 17 19  1  0  0  0  0
 18 20  1  0  0  0  0
 19 20  1  0  0  0  0
 19 24  1  0  0  0  0
 20 25  1  0  0  0  0
 21 24  1  0  0  0  0
 23 29  1  0  0  0  0
 23 27  1  0  0  0  0
 23 26  1  0  0  0  0
 24 22  1  0  0  0  0
 24 28  1  0  0  0  0
 25 23  1  0  0  0  0
 25 29  1  0  0  0  0
 28 29  1  0  0  0  0
 29 26  1  0  0  0  0
M  END
>  <MODEL>
6

>  <REMARK>
 VINA RESULT:      -5.7      1.462      1.835
  Name = 
  9 active torsions:
  status: ('A' for Active; 'I' for Inactive)
    1  A    between atoms: O_1  and  C_28
    2  A    between atoms: C_2  and  O_29
    3  A    between atoms: C_3  and  C_23
    4  A    between atoms: C_3  and  O_25
    5  A    between atoms: C_6  and  O_25
    6  A    between atoms: C_13  and  C_15
    7  A    between atoms: C_14  and  C_27
    8  A    between atoms: C_26  and  C_28
    9  A    between atoms: C_26  and  O_29
                            x       y       z     vdW  Elec       q    Type
                         _______ _______ _______ _____ _____    ______ ____

>  <TORSDO>
F 9

$$$$
=
 OpenBabel11072414013D

 29 33  0  0  1  0  0  0  0  0999 V2000
  163.0650  206.3600  151.8710 C   0  0  0  0  0  1  0  0  0  0  0  0
  161.8400  204.2120  151.2180 C   0  0  1  0  0  3  0  0  0  0  0  0
  160.9860  205.3360  150.6390 C   0  0  1  0  0  3  0  0  0  0  0  0
  161.7710  205.5610  151.9280 C   0  0  2  0  0  0  0  0  0  0  0  0
  161.5350  205.0060  148.1570 C   0  0  1  0  0  3  0  0  0  0  0  0
  160.6310  206.2100  148.3390 C   0  0  1  0  0  3  0  0  0  0  0  0
  161.6730  205.8980  149.3940 C   0  0  1  0  0  3  0  0  0  0  0  0
  161.0900  207.2540  147.5380 O   0  0  0  0  0  1  0  0  0  0  0  0
  160.8130  203.8380  148.4190 O   0  0  0  0  0  0  0  0  0  0  0  0
  161.3070  202.9060  147.5060 C   0  0  0  0  0  2  0  0  0  0  0  0
  160.8300  203.2510  146.1080 C   0  0  0  0  0  2  0  0  0  0  0  0
  161.8820  203.7860  145.3660 O   0  0  0  0  0  0  0  0  0  0  0  0
  161.2760  204.7060  144.5110 C   0  0  0  0  0  1  0  0  0  0  0  0
  160.9230  201.9270  150.9200 C   0  0  0  0  0  1  0  0  0  0  0  0
  160.9270  203.1500  151.8120 C   0  0  0  0  0  2  0  0  0  0  0  0
  160.9180  205.6760  153.1870 C   0  0  0  0  0  2  0  0  0  0  0  0
  161.5180  206.5550  154.0940 O   0  0  0  0  0  0  0  0  0  0  0  0
  160.8230  208.8420  152.4070 O   0  0  0  0  0  1  0  0  0  0  0  0
  160.5330  207.5100  154.3770 C   0  0  2  0  0  3  0  0  0  0  0  0
  160.9530  208.8610  153.7960 C   0  0  2  0  0  3  0  0  0  0  0  0
  160.8910  206.5800  156.5810 O   0  0  0  0  0  1  0  0  0  0  0  0
  158.8900  207.5410  156.1310 O   0  0  0  0  0  1  0  0  0  0  0  0
  160.9050  211.0060  155.0700 C   0  0  1  0  0  0  0  0  0  0  0  0
  160.2680  207.6270  155.8970 C   0  0  0  0  0  0  0  0  0  0  0  0
  160.0720  209.9620  154.3750 C   0  0  2  0  0  3  0  0  0  0  0  0
  160.7000  211.1290  156.5520 C   0  0  0  0  0  2  0  0  0  0  0  0
  160.3030  212.1780  154.6160 O   0  0  0  0  0  1  0  0  0  0  0  0
  160.7830  208.8530  156.3920 O   0  0  0  0  0  0  0  0  0  0  0  0
  160.0470  209.9630  155.8940 C   0  0  2  0  0  0  0  0  0  0  0  0
  2 15  1  1  0  0  0
  2  4  1  0  0  0  0
  3  7  1  6  0  0  0
  3  2  1  0  0  0  0
  3  4  1  0  0  0  0
  4  1  1  6  0  0  0
  4 16  1  0  0  0  0
  5  6  1  0  0  0  0
  5  9  1  1  0  0  0
  5  7  1  0  0  0  0
  6  8  1  6  0  0  0
  6  7  1  0  0  0  0
 10  9  1  0  0  0  0
 11 10  1  0  0  0  0
 12 11  1  0  0  0  0
 13 12  1  0  0  0  0
 14 15  1  0  0  0  0
 16 17  1  0  0  0  0
 17 19  1  0  0  0  0
 18 20  1  0  0  0  0
 19 24  1  0  0  0  0
 20 25  1  0  0  0  0
 20 19  1  0  0  0  0
 23 29  1  0  0  0  0
 23 26  1  0  0  0  0
 24 22  1  0  0  0  0
 24 28  1  0  0  0  0
 24 21  1  0  0  0  0
 25 23  1  0  0  0  0
 25 29  1  0  0  0  0
 27 23  1  0  0  0  0
 29 28  1  0  0  0  0
 29 26  1  0  0  0  0
M  END
>  <MODEL>
7

>  <REMARK>
 VINA RESULT:      -5.7      1.711      2.424
  Name = 
  9 active torsions:
  status: ('A' for Active; 'I' for Inactive)
    1  A    between atoms: O_1  and  C_28
    2  A    between atoms: C_2  and  O_29
    3  A    between atoms: C_3  and  C_23
    4  A    between atoms: C_3  and  O_25
    5  A    between atoms: C_6  and  O_25
    6  A    between atoms: C_13  and  C_15
    7  A    between atoms: C_14  and  C_27
    8  A    between atoms: C_26  and  C_28
    9  A    between atoms: C_26  and  O_29
                            x       y       z     vdW  Elec       q    Type
                         _______ _______ _______ _____ _____    ______ ____

>  <TORSDO>
F 9

$$$$
=
 OpenBabel11072414013D

 29 33  0  0  1  0  0  0  0  0999 V2000
  160.7870  204.3590  152.3090 C   0  0  0  0  0  1  0  0  0  0  0  0
  160.1260  205.3370  150.0410 C   0  0  1  0  0  3  0  0  0  0  0  0
  161.1920  204.2960  149.7160 C   0  0  1  0  0  3  0  0  0  0  0  0
  161.2470  205.0580  151.0370 C   0  0  2  0  0  0  0  0  0  0  0  0
  160.6040  202.1020  148.5290 C   0  0  1  0  0  3  0  0  0  0  0  0
  161.6550  201.8570  149.5940 C   0  0  1  0  0  3  0  0  0  0  0  0
  160.5820  202.8980  149.8360 C   0  0  1  0  0  3  0  0  0  0  0  0
  161.3340  200.6980  150.2990 O   0  0  0  0  0  1  0  0  0  0  0  0
  161.1690  202.8220  147.4740 O   0  0  0  0  0  0  0  0  0  0  0  0
  160.8910  202.0610  146.3380 C   0  0  0  0  0  2  0  0  0  0  0  0
  160.8230  202.9610  145.1180 C   0  0  0  0  0  2  0  0  0  0  0  0
  161.7460  203.9990  145.2430 O   0  0  0  0  0  0  0  0  0  0  0  0
  161.2850  204.9840  144.3700 C   0  0  0  0  0  1  0  0  0  0  0  0
  160.6820  206.1430  147.7610 C   0  0  0  0  0  1  0  0  0  0  0  0
  160.3550  206.5690  149.1770 C   0  0  0  0  0  2  0  0  0  0  0  0
  162.3860  206.0660  151.1510 C   0  0  0  0  0  2  0  0  0  0  0  0
  162.5280  206.4810  152.4770 O   0  0  0  0  0  0  0  0  0  0  0  0
  161.5920  208.6600  150.7640 O   0  0  0  0  0  1  0  0  0  0  0  0
  161.4150  207.2930  152.7240 C   0  0  2  0  0  3  0  0  0  0  0  0
  161.6680  208.6900  152.1570 C   0  0  2  0  0  3  0  0  0  0  0  0
  161.8150  206.4100  154.9400 O   0  0  0  0  0  1  0  0  0  0  0  0
  159.7200  207.0940  154.4170 O   0  0  0  0  0  1  0  0  0  0  0  0
  161.2850  210.8040  153.4270 C   0  0  1  0  0  0  0  0  0  0  0  0
  161.0810  207.3670  154.2330 C   0  0  0  0  0  0  0  0  0  0  0  0
  160.6260  209.6600  152.7040 C   0  0  2  0  0  3  0  0  0  0  0  0
  161.0110  210.8920  154.9010 C   0  0  0  0  0  2  0  0  0  0  0  0
  160.5460  211.8860  152.9510 O   0  0  0  0  0  1  0  0  0  0  0  0
  161.4070  208.6490  154.7450 O   0  0  0  0  0  0  0  0  0  0  0  0
  160.5470  209.6510  154.2210 C   0  0  2  0  0  0  0  0  0  0  0  0
  2 15  1  6  0  0  0
  2  4  1  0  0  0  0
  3  7  1  1  0  0  0
  3  2  1  0  0  0  0
  3  4  1  0  0  0  0
  4 16  1  0  0  0  0
  4  1  1  1  0  0  0
  5  9  1  6  0  0  0
  5  6  1  0  0  0  0
  5  7  1  0  0  0  0
  6  7  1  0  0  0  0
  6  8  1  1  0  0  0
 10  9  1  0  0  0  0
 11 12  1  0  0  0  0
 11 10  1  0  0  0  0
 13 12  1  0  0  0  0
 14 15  1  0  0  0  0
 16 17  1  0  0  0  0
 17 19  1  0  0  0  0
 18 20  1  0  0  0  0
 19 24  1  0  0  0  0
 20 25  1  0  0  0  0
 20 19  1  0  0  0  0
 23 29  1  0  0  0  0
 23 26  1  0  0  0  0
 24 22  1  0  0  0  0
 24 28  1  0  0  0  0
 24 21  1  0  0  0  0
 25 23  1  0  0  0  0
 25 29  1  0  0  0  0
 27 23  1  0  0  0  0
 29 28  1  0  0  0  0
 29 26  1  0  0  0  0
M  END
>  <MODEL>
8

>  <REMARK>
 VINA RESULT:      -5.6      1.881      3.650
  Name = 
  9 active torsions:
  status: ('A' for Active; 'I' for Inactive)
    1  A    between atoms: O_1  and  C_28
    2  A    between atoms: C_2  and  O_29
    3  A    between atoms: C_3  and  C_23
    4  A    between atoms: C_3  and  O_25
    5  A    between atoms: C_6  and  O_25
    6  A    between atoms: C_13  and  C_15
    7  A    between atoms: C_14  and  C_27
    8  A    between atoms: C_26  and  C_28
    9  A    between atoms: C_26  and  O_29
                            x       y       z     vdW  Elec       q    Type
                         _______ _______ _______ _____ _____    ______ ____

>  <TORSDO>
F 9

$$$$
=
 OpenBabel11072414013D

 29 33  0  0  1  0  0  0  0  0999 V2000
  161.5330  204.2540  152.4670 C   0  0  0  0  0  1  0  0  0  0  0  0
  162.5000  206.5390  151.8470 C   0  0  1  0  0  3  0  0  0  0  0  0
  161.1480  206.8520  152.4810 C   0  0  1  0  0  3  0  0  0  0  0  0
  161.3440  205.5550  151.6990 C   0  0  2  0  0  0  0  0  0  0  0  0
  161.4560  207.9910  154.7550 C   0  0  1  0  0  3  0  0  0  0  0  0
  160.0780  207.3650  154.6640 C   0  0  1  0  0  3  0  0  0  0  0  0
  161.2510  206.6780  153.9960 C   0  0  1  0  0  3  0  0  0  0  0  0
  159.7890  206.7150  155.8620 O   0  0  0  0  0  1  0  0  0  0  0  0
  161.5220  209.0960  153.9010 O   0  0  0  0  0  0  0  0  0  0  0  0
  160.9960  210.1510  154.6480 C   0  0  0  0  0  2  0  0  0  0  0  0
  160.4630  211.2250  153.7190 C   0  0  0  0  0  2  0  0  0  0  0  0
  159.0900  211.0590  153.5390 O   0  0  0  0  0  0  0  0  0  0  0  0
  158.7710  211.9060  152.4790 C   0  0  0  0  0  1  0  0  0  0  0  0
  161.9400  208.7350  150.8390 C   0  0  0  0  0  1  0  0  0  0  0  0
  162.7050  207.4440  150.6410 C   0  0  0  0  0  2  0  0  0  0  0  0
  160.6100  205.4930  150.3630 C   0  0  0  0  0  2  0  0  0  0  0  0
  160.1700  204.1890  150.1180 O   0  0  0  0  0  0  0  0  0  0  0  0
  161.6690  205.7570  148.1550 O   0  0  0  0  0  1  0  0  0  0  0  0
  161.0710  203.6750  149.1780 C   0  0  2  0  0  3  0  0  0  0  0  0
  161.0360  204.5370  147.9150 C   0  0  2  0  0  3  0  0  0  0  0  0
  159.8290  201.6760  149.7370 O   0  0  0  0  0  1  0  0  0  0  0  0
  161.9400  201.4450  148.9510 O   0  0  0  0  0  1  0  0  0  0  0  0
  160.8250  203.6230  145.6030 C   0  0  1  0  0  0  0  0  0  0  0  0
  160.7640  202.1970  148.8390 C   0  0  0  0  0  0  0  0  0  0  0  0
  161.7460  203.8090  146.7800 C   0  0  2  0  0  3  0  0  0  0  0  0
  160.4770  202.2020  145.2610 C   0  0  0  0  0  2  0  0  0  0  0  0
  161.6690  203.9560  144.5450 O   0  0  0  0  0  1  0  0  0  0  0  0
  160.2290  202.0940  147.5280 O   0  0  0  0  0  0  0  0  0  0  0  0
  161.2060  202.4090  146.5440 C   0  0  2  0  0  0  0  0  0  0  0  0
  2 15  1  6  0  0  0
  2  3  1  0  0  0  0
  3  7  1  1  0  0  0
  4  2  1  0  0  0  0
  4  1  1  1  0  0  0
  4  3  1  0  0  0  0
  5  9  1  6  0  0  0
  6  5  1  0  0  0  0
  6  8  1  1  0  0  0
  7  6  1  0  0  0  0
  7  5  1  0  0  0  0
  9 10  1  0  0  0  0
 11 10  1  0  0  0  0
 12 11  1  0  0  0  0
 13 12  1  0  0  0  0
 15 14  1  0  0  0  0
 16  4  1  0  0  0  0
 17 16  1  0  0  0  0
 19 17  1  0  0  0  0
 20 18  1  0  0  0  0
 20 19  1  0  0  0  0
 23 29  1  0  0  0  0
 23 25  1  0  0  0  0
 24 22  1  0  0  0  0
 24 19  1  0  0  0  0
 24 21  1  0  0  0  0
 25 20  1  0  0  0  0
 26 23  1  0  0  0  0
 26 29  1  0  0  0  0
 27 23  1  0  0  0  0
 28 24  1  0  0  0  0
 29 25  1  0  0  0  0
 29 28  1  0  0  0  0
M  END
>  <MODEL>
9

>  <REMARK>
 VINA RESULT:      -5.6      1.746      9.236
  Name = 
  9 active torsions:
  status: ('A' for Active; 'I' for Inactive)
    1  A    between atoms: O_1  and  C_28
    2  A    between atoms: C_2  and  O_29
    3  A    between atoms: C_3  and  C_23
    4  A    between atoms: C_3  and  O_25
    5  A    between atoms: C_6  and  O_25
    6  A    between atoms: C_13  and  C_15
    7  A    between atoms: C_14  and  C_27
    8  A    between atoms: C_26  and  C_28
    9  A    between atoms: C_26  and  O_29
                            x       y       z     vdW  Elec       q    Type
                         _______ _______ _______ _____ _____    ______ ____

>  <TORSDO>
F 9

$$$$
