=
 OpenBabel11072412393D

 31 35  0  0  1  0  0  0  0  0999 V2000
  160.9150  210.3860  155.3100 C   0  0  0  0  0  0  0  0  0  0  0  0
  162.0150  207.7160  152.7780 C   0  0  1  0  0  3  0  0  0  0  0  0
  161.3710  208.9750  153.3460 C   0  0  0  0  0  0  0  0  0  0  0  0
  161.4000  206.3420  150.5810 C   0  0  1  0  0  3  0  0  0  0  0  0
  161.6690  211.1340  148.4080 N   0  0  0  0  0  0  0  0  0  0  0  0
  160.4150  209.8650  152.5550 C   0  0  1  0  0  3  0  0  0  0  0  0
  161.5550  210.9180  150.5660 C   0  0  0  0  0  0  0  0  0  0  0  0
  161.2180  211.7100  149.6070 N   0  0  0  0  0  0  0  0  0  0  0  0
  159.2660  210.3090  153.4770 C   0  0  2  0  0  3  0  0  0  0  0  0
  161.5420  206.4680  153.5290 C   0  0  0  0  0  2  0  0  0  0  0  0
  162.2730  209.7970  150.0030 C   0  0  0  0  0  0  0  0  0  0  0  0
  158.4250  211.2220  152.8370 O   0  0  0  0  0  1  0  0  0  0  0  0
  162.2530  210.0190  148.6020 N   0  0  0  0  0  0  0  0  0  0  0  0
  160.8460  205.2570  151.5100 C   0  0  0  0  0  2  0  0  0  0  0  0
  162.1910  208.6260  150.5500 C   0  0  0  0  0  0  0  0  0  0  0  0
  161.6310  209.2890  154.6280 C   0  0  0  0  0  3  0  0  0  0  0  0
  161.9870  207.5580  151.2630 C   0  0  0  0  0  0  0  0  0  0  0  0
  161.1560  211.1000  152.0000 C   0  0  0  0  0  2  0  0  0  0  0  0
  160.3570  205.8260  152.8300 C   0  0  0  0  0  2  0  0  0  0  0  0
  159.8030  210.8960  154.7550 C   0  0  0  0  0  3  0  0  0  0  0  0
  162.7690  210.6970  156.9260 C   0  0  0  0  0  1  0  0  0  0  0  0
  161.4140  210.8620  156.5270 O   0  0  0  0  0  0  0  0  0  0  0  0
  162.2920  205.7450  149.4760 C   0  0  0  0  0  2  0  0  0  0  0  0
  160.4060  206.0300  147.7660 C   0  0  0  0  0  2  0  0  0  0  0  0
  160.5210  206.2570  146.2690 C   0  0  0  0  0  2  0  0  0  0  0  0
  162.3700  205.9030  144.8300 O   0  0  0  0  0  0  0  0  0  0  0  0
  161.8840  205.7970  145.9440 C   0  0  0  0  0  0  0  0  0  0  0  0
  162.6130  205.1950  147.0800 C   0  0  0  0  0  2  0  0  0  0  0  0
  161.6020  205.1800  148.2190 C   0  0  1  0  0  0  0  0  0  0  0  0
  161.1690  203.7910  148.4290 C   0  0  0  0  0  0  0  0  0  0  0  0
  160.8150  202.6490  148.5930 C   0  0  0  0  0  3  0  0  0  0  0  0
  1 22  1  0  0  0  0
  2  3  1  0  0  0  0
  2 10  1  1  0  0  0
  3 16  2  0  0  0  0
  4 23  1  1  0  0  0
  4 17  1  0  0  0  0
  4 14  1  0  0  0  0
  5 13  2  0  0  0  0
  5  8  1  0  0  0  0
  6 18  1  1  0  0  0
  6  3  1  0  0  0  0
  6  9  1  0  0  0  0
  7 18  1  0  0  0  0
  8  7  2  0  0  0  0
  9 12  1  6  0  0  0
  9 20  1  0  0  0  0
 11 15  2  0  0  0  0
 11  7  1  0  0  0  0
 13 11  1  0  0  0  0
 14 19  1  0  0  0  0
 15 17  2  0  0  0  0
 16  1  1  0  0  0  0
 17  2  1  0  0  0  0
 19 10  1  0  0  0  0
 20  1  2  0  0  0  0
 22 21  1  0  0  0  0
 24 29  1  0  0  0  0
 25 24  1  0  0  0  0
 26 27  2  0  0  0  0
 27 25  1  0  0  0  0
 27 28  1  0  0  0  0
 28 29  1  0  0  0  0
 29 30  1  1  0  0  0
 29 23  1  0  0  0  0
 30 31  3  0  0  0  0
M  END
>  <MODEL>
1

>  <REMARK>
 VINA RESULT:      -7.0      0.000      0.000
  Name = 
  4 active torsions:
  status: ('A' for Active; 'I' for Inactive)
    1  A    between atoms: C_1  and  O_26
    2  A    between atoms: C_4  and  C_30
    3  A    between atoms: C_5  and  C_14
    4  A    between atoms: C_14  and  C_30
                            x       y       z     vdW  Elec       q    Type
                         _______ _______ _______ _____ _____    ______ ____

>  <TORSDO>
F 4

$$$$
=
 OpenBabel11072412393D

 31 35  0  0  1  0  0  0  0  0999 V2000
  161.2650  210.7370  154.5930 C   0  0  0  0  0  0  0  0  0  0  0  0
  162.2160  208.5270  151.5980 C   0  0  1  0  0  3  0  0  0  0  0  0
  161.5600  209.6380  152.4110 C   0  0  0  0  0  0  0  0  0  0  0  0
  161.4180  207.3940  149.3240 C   0  0  1  0  0  3  0  0  0  0  0  0
  161.0270  212.4290  147.8220 N   0  0  0  0  0  0  0  0  0  0  0  0
  160.4420  210.5280  151.8740 C   0  0  1  0  0  3  0  0  0  0  0  0
  161.2200  211.9290  149.9260 C   0  0  0  0  0  0  0  0  0  0  0  0
  160.6980  212.8020  149.1360 N   0  0  0  0  0  0  0  0  0  0  0  0
  159.3960  210.7410  152.9830 C   0  0  2  0  0  3  0  0  0  0  0  0
  161.9440  207.1540  152.2200 C   0  0  0  0  0  2  0  0  0  0  0  0
  161.9400  210.9610  149.1290 C   0  0  0  0  0  0  0  0  0  0  0  0
  158.4100  211.6460  152.5840 O   0  0  0  0  0  1  0  0  0  0  0  0
  161.7150  211.3580  147.7850 N   0  0  0  0  0  0  0  0  0  0  0  0
  161.0780  206.1520  150.1540 C   0  0  0  0  0  2  0  0  0  0  0  0
  162.0220  209.7270  149.5130 C   0  0  0  0  0  0  0  0  0  0  0  0
  161.9650  209.8080  153.6820 C   0  0  0  0  0  3  0  0  0  0  0  0
  161.9970  208.5630  150.0910 C   0  0  0  0  0  0  0  0  0  0  0  0
  161.0050  211.8870  151.4090 C   0  0  0  0  0  2  0  0  0  0  0  0
  160.7290  206.5000  151.5900 C   0  0  0  0  0  2  0  0  0  0  0  0
  160.0530  211.2070  154.2540 C   0  0  0  0  0  3  0  0  0  0  0  0
  162.7280  210.2160  156.5250 C   0  0  0  0  0  1  0  0  0  0  0  0
  161.8850  211.0980  155.7930 O   0  0  0  0  0  0  0  0  0  0  0  0
  162.1970  207.0300  148.0450 C   0  0  0  0  0  2  0  0  0  0  0  0
  162.8860  205.0140  146.6240 C   0  0  0  0  0  2  0  0  0  0  0  0
  162.6640  203.5400  146.9120 C   0  0  0  0  0  2  0  0  0  0  0  0
  161.1660  202.5130  148.4340 O   0  0  0  0  0  0  0  0  0  0  0  0
  161.5680  203.5330  147.9000 C   0  0  0  0  0  0  0  0  0  0  0  0
  160.9970  204.8660  148.1870 C   0  0  0  0  0  2  0  0  0  0  0  0
  161.7230  205.8070  147.2360 C   0  0  1  0  0  0  0  0  0  0  0  0
  160.7840  206.2020  146.1760 C   0  0  0  0  0  0  0  0  0  0  0  0
  160.0170  206.5210  145.3020 C   0  0  0  0  0  3  0  0  0  0  0  0
  1 22  1  0  0  0  0
  2 10  1  1  0  0  0
  2  3  1  0  0  0  0
  3 16  2  0  0  0  0
  4 23  1  6  0  0  0
  4 17  1  0  0  0  0
  4 14  1  0  0  0  0
  5  8  1  0  0  0  0
  6 18  1  1  0  0  0
  6  3  1  0  0  0  0
  6  9  1  0  0  0  0
  7 18  1  0  0  0  0
  8  7  2  0  0  0  0
  9 12  1  6  0  0  0
  9 20  1  0  0  0  0
 11 15  2  0  0  0  0
 11  7  1  0  0  0  0
 13  5  2  0  0  0  0
 13 11  1  0  0  0  0
 14 19  1  0  0  0  0
 15 17  2  0  0  0  0
 16  1  1  0  0  0  0
 17  2  1  0  0  0  0
 19 10  1  0  0  0  0
 20  1  2  0  0  0  0
 22 21  1  0  0  0  0
 24 25  1  0  0  0  0
 24 29  1  0  0  0  0
 25 27  1  0  0  0  0
 27 28  1  0  0  0  0
 27 26  2  0  0  0  0
 29 30  1  6  0  0  0
 29 23  1  0  0  0  0
 29 28  1  0  0  0  0
 31 30  3  0  0  0  0
M  END
>  <MODEL>
2

>  <REMARK>
 VINA RESULT:      -5.9      1.377      2.104
  Name = 
  4 active torsions:
  status: ('A' for Active; 'I' for Inactive)
    1  A    between atoms: C_1  and  O_26
    2  A    between atoms: C_4  and  C_30
    3  A    between atoms: C_5  and  C_14
    4  A    between atoms: C_14  and  C_30
                            x       y       z     vdW  Elec       q    Type
                         _______ _______ _______ _____ _____    ______ ____

>  <TORSDO>
F 4

$$$$
=
 OpenBabel11072412393D

 31 35  0  0  1  0  0  0  0  0999 V2000
  161.2140  208.9230  155.2840 C   0  0  0  0  0  0  0  0  0  0  0  0
  161.9670  206.2960  152.5840 C   0  0  1  0  0  3  0  0  0  0  0  0
  161.5060  207.5970  153.2310 C   0  0  0  0  0  0  0  0  0  0  0  0
  161.2120  205.1880  150.2830 C   0  0  1  0  0  3  0  0  0  0  0  0
  162.2670  210.0200  148.4680 N   0  0  0  0  0  0  0  0  0  0  0  0
  160.7190  208.6760  152.4900 C   0  0  1  0  0  3  0  0  0  0  0  0
  162.0610  209.6760  150.6030 C   0  0  0  0  0  0  0  0  0  0  0  0
  161.8750  210.5750  149.6980 N   0  0  0  0  0  0  0  0  0  0  0  0
  159.6260  209.2270  153.4220 C   0  0  2  0  0  3  0  0  0  0  0  0
  161.2890  205.0870  153.2340 C   0  0  0  0  0  2  0  0  0  0  0  0
  162.6160  208.4990  149.9720 C   0  0  0  0  0  0  0  0  0  0  0  0
  158.9520  210.3000  152.8350 O   0  0  0  0  0  1  0  0  0  0  0  0
  162.6700  208.8190  148.5900 N   0  0  0  0  0  0  0  0  0  0  0  0
  160.4740  204.1400  151.1220 C   0  0  0  0  0  2  0  0  0  0  0  0
  162.3420  207.3200  150.4310 C   0  0  0  0  0  0  0  0  0  0  0  0
  161.7750  207.7780  154.5360 C   0  0  0  0  0  3  0  0  0  0  0  0
  161.9580  206.2500  151.0610 C   0  0  0  0  0  0  0  0  0  0  0  0
  161.6550  209.8170  152.0390 C   0  0  0  0  0  2  0  0  0  0  0  0
  160.0410  204.6840  152.4700 C   0  0  0  0  0  2  0  0  0  0  0  0
  160.2090  209.6340  154.7480 C   0  0  0  0  0  3  0  0  0  0  0  0
  162.7570  210.2120  156.7340 C   0  0  0  0  0  1  0  0  0  0  0  0
  161.7460  209.2310  156.5400 O   0  0  0  0  0  0  0  0  0  0  0  0
  162.0340  204.5390  149.1530 C   0  0  0  0  0  2  0  0  0  0  0  0
  162.7430  204.8950  146.7170 C   0  0  0  0  0  2  0  0  0  0  0  0
  162.4570  204.0120  145.5160 C   0  0  0  0  0  2  0  0  0  0  0  0
  160.8410  202.2980  145.2580 O   0  0  0  0  0  0  0  0  0  0  0  0
  161.3050  203.1940  145.9430 C   0  0  0  0  0  0  0  0  0  0  0  0
  160.7600  203.5530  147.2690 C   0  0  0  0  0  2  0  0  0  0  0  0
  161.5700  204.7670  147.7010 C   0  0  1  0  0  0  0  0  0  0  0  0
  160.7080  205.9530  147.5980 C   0  0  0  0  0  0  0  0  0  0  0  0
  160.0000  206.9250  147.5050 C   0  0  0  0  0  3  0  0  0  0  0  0
  1 22  1  0  0  0  0
  2  3  1  0  0  0  0
  2 10  1  1  0  0  0
  3 16  2  0  0  0  0
  4 23  1  1  0  0  0
  4 17  1  0  0  0  0
  4 14  1  0  0  0  0
  5 13  2  0  0  0  0
  5  8  1  0  0  0  0
  6 18  1  1  0  0  0
  6  3  1  0  0  0  0
  6  9  1  0  0  0  0
  7 18  1  0  0  0  0
  8  7  2  0  0  0  0
  9 12  1  6  0  0  0
  9 20  1  0  0  0  0
 11 15  2  0  0  0  0
 11  7  1  0  0  0  0
 13 11  1  0  0  0  0
 14 19  1  0  0  0  0
 15 17  2  0  0  0  0
 16  1  1  0  0  0  0
 17  2  1  0  0  0  0
 19 10  1  0  0  0  0
 20  1  2  0  0  0  0
 22 21  1  0  0  0  0
 24 29  1  0  0  0  0
 25 27  1  0  0  0  0
 25 24  1  0  0  0  0
 26 27  2  0  0  0  0
 27 28  1  0  0  0  0
 28 29  1  0  0  0  0
 29 30  1  6  0  0  0
 29 23  1  0  0  0  0
 31 30  3  0  0  0  0
M  END
>  <MODEL>
3

>  <REMARK>
 VINA RESULT:      -5.7      1.355      1.897
  Name = 
  4 active torsions:
  status: ('A' for Active; 'I' for Inactive)
    1  A    between atoms: C_1  and  O_26
    2  A    between atoms: C_4  and  C_30
    3  A    between atoms: C_5  and  C_14
    4  A    between atoms: C_14  and  C_30
                            x       y       z     vdW  Elec       q    Type
                         _______ _______ _______ _____ _____    ______ ____

>  <TORSDO>
F 4

$$$$
=
 OpenBabel11072412393D

 31 35  0  0  1  0  0  0  0  0999 V2000
  158.7570  212.4320  153.7520 C   0  0  0  0  0  0  0  0  0  0  0  0
  160.1440  209.1820  152.2460 C   0  0  1  0  0  3  0  0  0  0  0  0
  159.8390  210.2770  153.2610 C   0  0  0  0  0  0  0  0  0  0  0  0
  162.1490  207.4300  152.1920 C   0  0  1  0  0  3  0  0  0  0  0  0
  160.5860  206.6160  157.1570 N   0  0  0  0  0  0  0  0  0  0  0  0
  160.4990  210.3600  154.6360 C   0  0  1  0  0  3  0  0  0  0  0  0
  159.9100  208.3730  156.0730 C   0  0  0  0  0  0  0  0  0  0  0  0
  160.1940  207.9610  157.2610 N   0  0  0  0  0  0  0  0  0  0  0  0
  160.8300  211.8310  154.9450 C   0  0  2  0  0  3  0  0  0  0  0  0
  160.7950  209.7630  150.9870 C   0  0  0  0  0  2  0  0  0  0  0  0
  160.0890  207.2720  155.1520 C   0  0  0  0  0  0  0  0  0  0  0  0
  161.3280  211.9780  156.2410 O   0  0  0  0  0  1  0  0  0  0  0  0
  160.5640  206.2020  155.9530 N   0  0  0  0  0  0  0  0  0  0  0  0
  162.7170  208.2360  151.0190 C   0  0  0  0  0  2  0  0  0  0  0  0
  160.4770  207.4930  153.9370 C   0  0  0  0  0  0  0  0  0  0  0  0
  158.9740  211.2430  152.9030 C   0  0  0  0  0  3  0  0  0  0  0  0
  160.8470  207.9380  152.7730 C   0  0  0  0  0  0  0  0  0  0  0  0
  159.5650  209.7890  155.7230 C   0  0  0  0  0  2  0  0  0  0  0  0
  162.3080  209.6970  151.0750 C   0  0  0  0  0  2  0  0  0  0  0  0
  159.6220  212.7040  154.7430 C   0  0  0  0  0  3  0  0  0  0  0  0
  156.4200  213.1320  154.1900 C   0  0  0  0  0  1  0  0  0  0  0  0
  157.6540  213.2520  153.4930 O   0  0  0  0  0  0  0  0  0  0  0  0
  162.1650  205.9170  151.9050 C   0  0  0  0  0  2  0  0  0  0  0  0
  160.2440  206.2350  150.2410 C   0  0  0  0  0  2  0  0  0  0  0  0
  160.3250  206.5940  148.7690 C   0  0  0  0  0  2  0  0  0  0  0  0
  162.1720  206.4740  147.2890 O   0  0  0  0  0  0  0  0  0  0  0  0
  161.7090  206.2450  148.3940 C   0  0  0  0  0  0  0  0  0  0  0  0
  162.4850  205.5920  149.4680 C   0  0  0  0  0  2  0  0  0  0  0  0
  161.4930  205.4210  150.6100 C   0  0  1  0  0  0  0  0  0  0  0  0
  161.1430  203.9960  150.7040 C   0  0  0  0  0  0  0  0  0  0  0  0
  160.8620  202.8260  150.7740 C   0  0  0  0  0  3  0  0  0  0  0  0
  1 20  2  0  0  0  0
  2 10  1  6  0  0  0
  2 17  1  0  0  0  0
  2  3  1  0  0  0  0
  3  6  1  0  0  0  0
  4 23  1  6  0  0  0
  4 17  1  0  0  0  0
  5  8  1  0  0  0  0
  6  9  1  0  0  0  0
  6 18  1  1  0  0  0
  7  8  2  0  0  0  0
  9 12  1  1  0  0  0
 10 19  1  0  0  0  0
 11 13  1  0  0  0  0
 11  7  1  0  0  0  0
 13  5  2  0  0  0  0
 14 19  1  0  0  0  0
 14  4  1  0  0  0  0
 15 11  2  0  0  0  0
 16  3  2  0  0  0  0
 16  1  1  0  0  0  0
 17 15  2  0  0  0  0
 18  7  1  0  0  0  0
 20  9  1  0  0  0  0
 22  1  1  0  0  0  0
 22 21  1  0  0  0  0
 24 29  1  0  0  0  0
 25 24  1  0  0  0  0
 26 27  2  0  0  0  0
 27 25  1  0  0  0  0
 27 28  1  0  0  0  0
 28 29  1  0  0  0  0
 29 30  1  1  0  0  0
 29 23  1  0  0  0  0
 30 31  3  0  0  0  0
M  END
>  <MODEL>
4

>  <REMARK>
 VINA RESULT:      -4.6      3.141      4.475
  Name = 
  4 active torsions:
  status: ('A' for Active; 'I' for Inactive)
    1  A    between atoms: C_1  and  O_26
    2  A    between atoms: C_4  and  C_30
    3  A    between atoms: C_5  and  C_14
    4  A    between atoms: C_14  and  C_30
                            x       y       z     vdW  Elec       q    Type
                         _______ _______ _______ _____ _____    ______ ____

>  <TORSDO>
F 4

$$$$
=
 OpenBabel11072412393D

 31 35  0  0  1  0  0  0  0  0999 V2000
  160.8310  202.7370  145.5800 C   0  0  0  0  0  0  0  0  0  0  0  0
  160.2620  203.4350  149.3140 C   0  0  1  0  0  3  0  0  0  0  0  0
  160.8080  203.5660  147.8970 C   0  0  0  0  0  0  0  0  0  0  0  0
  161.3350  204.2160  151.6230 C   0  0  1  0  0  3  0  0  0  0  0  0
  161.8760  208.7430  148.9850 N   0  0  0  0  0  0  0  0  0  0  0  0
  161.9780  204.4730  147.5240 C   0  0  1  0  0  3  0  0  0  0  0  0
  161.4330  206.9040  147.9190 C   0  0  0  0  0  0  0  0  0  0  0  0
  162.0420  208.0320  147.7850 N   0  0  0  0  0  0  0  0  0  0  0  0
  162.8800  203.7390  146.5180 C   0  0  2  0  0  3  0  0  0  0  0  0
  160.4640  202.0160  149.8540 C   0  0  0  0  0  2  0  0  0  0  0  0
  160.8200  206.8670  149.2280 C   0  0  0  0  0  0  0  0  0  0  0  0
  163.9030  204.5680  146.0520 O   0  0  0  0  0  1  0  0  0  0  0  0
  161.2040  208.0860  149.8440 N   0  0  0  0  0  0  0  0  0  0  0  0
  161.5800  202.7320  151.9200 C   0  0  0  0  0  2  0  0  0  0  0  0
  160.7000  205.7440  149.8620 C   0  0  0  0  0  0  0  0  0  0  0  0
  160.2520  202.8050  146.9380 C   0  0  0  0  0  3  0  0  0  0  0  0
  160.6610  204.5220  150.3030 C   0  0  0  0  0  0  0  0  0  0  0  0
  161.4670  205.7940  146.9120 C   0  0  0  0  0  2  0  0  0  0  0  0
  161.7500  201.9140  150.6530 C   0  0  0  0  0  2  0  0  0  0  0  0
  162.0720  203.2040  145.3670 C   0  0  0  0  0  3  0  0  0  0  0  0
  159.7060  200.8020  144.5130 C   0  0  0  0  0  1  0  0  0  0  0  0
  160.0680  202.1770  144.5500 O   0  0  0  0  0  0  0  0  0  0  0  0
  160.7190  204.9450  152.8320 C   0  0  0  0  0  2  0  0  0  0  0  0
  160.3210  207.4560  153.1420 C   0  0  0  0  0  2  0  0  0  0  0  0
  160.3970  208.2690  154.4220 C   0  0  0  0  0  2  0  0  0  0  0  0
  161.4150  207.7260  156.4920 O   0  0  0  0  0  0  0  0  0  0  0  0
  161.2070  207.4310  155.3270 C   0  0  0  0  0  0  0  0  0  0  0  0
  161.7470  206.2050  154.7030 C   0  0  0  0  0  2  0  0  0  0  0  0
  161.3270  206.3000  153.2430 C   0  0  1  0  0  0  0  0  0  0  0  0
  162.5190  206.6130  152.4430 C   0  0  0  0  0  0  0  0  0  0  0  0
  163.4950  206.8640  151.7800 C   0  0  0  0  0  3  0  0  0  0  0  0
  1 16  1  0  0  0  0
  2 10  1  1  0  0  0
  2 17  1  0  0  0  0
  3  2  1  0  0  0  0
  4 14  1  0  0  0  0
  4 23  1  1  0  0  0
  5 13  2  0  0  0  0
  6 18  1  6  0  0  0
  6  3  1  0  0  0  0
  7 11  1  0  0  0  0
  8  7  2  0  0  0  0
  8  5  1  0  0  0  0
  9 12  1  6  0  0  0
  9  6  1  0  0  0  0
 10 19  1  0  0  0  0
 11 13  1  0  0  0  0
 11 15  2  0  0  0  0
 15 17  2  0  0  0  0
 16  3  2  0  0  0  0
 17  4  1  0  0  0  0
 18  7  1  0  0  0  0
 19 14  1  0  0  0  0
 20  1  2  0  0  0  0
 20  9  1  0  0  0  0
 21 22  1  0  0  0  0
 22  1  1  0  0  0  0
 23 29  1  0  0  0  0
 24 29  1  0  0  0  0
 24 25  1  0  0  0  0
 25 27  1  0  0  0  0
 27 26  2  0  0  0  0
 28 27  1  0  0  0  0
 29 30  1  6  0  0  0
 29 28  1  0  0  0  0
 31 30  3  0  0  0  0
M  END
>  <MODEL>
5

>  <REMARK>
 VINA RESULT:      -4.0      2.434      7.973
  Name = 
  4 active torsions:
  status: ('A' for Active; 'I' for Inactive)
    1  A    between atoms: C_1  and  O_26
    2  A    between atoms: C_4  and  C_30
    3  A    between atoms: C_5  and  C_14
    4  A    between atoms: C_14  and  C_30
                            x       y       z     vdW  Elec       q    Type
                         _______ _______ _______ _____ _____    ______ ____

>  <TORSDO>
F 4

$$$$
