=
 OpenBabel11072412583D

 48 54  0  0  1  0  0  0  0  0999 V2000
  161.1430  208.2280  151.3900 C   0  0  2  0  0  3  0  0  0  0  0  0
  161.5950  208.1780  149.0010 C   0  0  0  0  0  0  0  0  0  0  0  0
  162.6890  210.5950  151.6860 S   0  0  0  0  0  0  0  0  0  0  0  0
  161.6180  210.9890  150.2630 C   0  0  1  0  0  3  0  0  0  0  0  0
  162.0510  208.0560  150.3130 O   0  0  0  0  0  0  0  0  0  0  0  0
  163.4260  212.5800  148.2430 O   0  0  0  0  0  1  0  0  0  0  0  0
  162.4190  211.6790  147.9030 C   0  0  2  0  0  3  0  0  0  0  0  0
  161.2800  212.4720  150.2920 C   0  0  0  0  0  2  0  0  0  0  0  0
  161.0880  212.4190  147.7420 C   0  0  0  0  0  2  0  0  0  0  0  0
  162.3340  210.5650  148.9600 C   0  0  2  0  0  3  0  0  0  0  0  0
  161.6300  209.2810  152.4000 C   0  0  1  0  0  3  0  0  0  0  0  0
  161.6990  209.3450  148.3590 C   0  0  0  0  0  3  0  0  0  0  0  0
  160.4420  212.8490  149.0730 C   0  0  0  0  0  2  0  0  0  0  0  0
  160.9290  207.0230  148.3170 C   0  0  0  0  0  3  0  0  0  0  0  0
  161.9480  206.1660  147.5940 C   0  0  0  0  0  2  0  0  0  0  0  0
  161.1070  207.1480  146.8160 C   0  0  0  0  0  2  0  0  0  0  0  0
  159.2510  209.7850  152.6750 O   0  0  0  0  0  1  0  0  0  0  0  0
  160.5150  209.8950  153.2650 C   0  0  1  0  0  3  0  0  0  0  0  0
  160.1040  209.5650  157.0530 C   0  0  0  0  0  3  0  0  0  0  0  0
  160.6290  207.3910  156.1330 C   0  0  0  0  0  3  0  0  0  0  0  0
  160.4870  209.3260  154.6610 C   0  0  0  0  0  0  0  0  0  0  0  0
  160.7000  207.9530  154.8540 C   0  0  0  0  0  3  0  0  0  0  0  0
  160.1720  210.1390  155.7740 C   0  0  0  0  0  0  0  0  0  0  0  0
  160.3330  208.1980  157.2330 C   0  0  0  0  0  3  0  0  0  0  0  0
  159.8480  211.8660  155.6070 S   0  0  0  0  0  0  0  0  0  0  0  0
  160.4380  212.5910  156.7890 O   0  0  0  0  0  0  0  0  0  0  0  0
  160.5080  212.3800  154.3570 O   0  0  0  0  0  0  0  0  0  0  0  0
  157.5940  211.5170  156.6370 O   0  0  0  0  0  1  0  0  0  0  0  0
  158.1230  212.1010  155.5370 N   0  0  0  0  0  0  0  0  0  0  0  0
  156.3320  213.7640  155.3740 C   0  0  0  0  0  0  0  0  0  0  0  0
  155.1590  213.6850  155.6940 O   0  0  0  0  0  0  0  0  0  0  0  0
  157.8220  213.5270  155.6320 C   0  0  2  0  0  3  0  0  0  0  0  0
  157.4370  214.1410  154.3840 C   0  0  1  0  0  3  0  0  0  0  0  0
  157.3470  213.2080  153.1810 C   0  0  0  0  0  2  0  0  0  0  0  0
  157.9920  213.8340  152.0040 C   0  0  0  0  0  0  0  0  0  0  0  0
  157.4050  213.7180  150.7510 O   0  0  0  0  0  0  0  0  0  0  0  0
  159.0760  214.4530  152.1390 O   0  0  0  0  0  1  0  0  0  0  0  0
  160.8480  206.8950  152.0670 C   0  0  0  0  0  2  0  0  0  0  0  0
  162.0430  205.9530  152.0130 C   0  0  0  0  0  2  0  0  0  0  0  0
  160.8180  202.1620  150.4840 C   0  0  0  0  0  0  0  0  0  0  0  0
  161.6330  204.6270  151.4730 C   0  0  0  0  0  0  0  0  0  0  0  0
  160.4120  200.9600  149.8630 N   0  0  0  0  0  0  0  0  0  0  0  0
  160.8030  202.3710  151.8660 C   0  0  0  0  0  3  0  0  0  0  0  0
  160.5080  201.0100  148.4100 C   0  0  0  0  0  3  0  0  0  0  0  0
  161.1380  202.6690  147.9050 S   0  0  0  0  0  0  0  0  0  0  0  0
  161.2310  203.1390  149.6180 C   0  0  0  0  0  0  0  0  0  0  0  0
  161.2130  203.6180  152.3580 C   0  0  0  0  0  3  0  0  0  0  0  0
  161.6420  204.3860  150.0890 C   0  0  0  0  0  3  0  0  0  0  0  0
  1 38  1  1  0  0  0
  1 11  1  0  0  0  0
  2  5  1  0  0  0  0
  3 11  1  0  0  0  0
  4  8  1  6  0  0  0
  4  3  1  0  0  0  0
  5  1  1  0  0  0  0
  7  6  1  1  0  0  0
  7 10  1  0  0  0  0
  9  7  1  0  0  0  0
  9 13  1  0  0  0  0
 10 12  1  6  0  0  0
 10  4  1  0  0  0  0
 11 18  1  6  0  0  0
 12  2  2  0  0  0  0
 13  8  1  0  0  0  0
 14  2  1  0  0  0  0
 15 14  1  0  0  0  0
 16 15  1  0  0  0  0
 16 14  1  0  0  0  0
 18 17  1  6  0  0  0
 18 21  1  0  0  0  0
 19 24  1  0  0  0  0
 20 24  2  0  0  0  0
 21 22  2  0  0  0  0
 21 23  1  0  0  0  0
 22 20  1  0  0  0  0
 23 19  2  0  0  0  0
 25 23  1  0  0  0  0
 25 26  2  0  0  0  0
 27 25  2  0  0  0  0
 29 25  1  0  0  0  0
 29 28  1  0  0  0  0
 30 32  1  0  0  0  0
 30 31  2  0  0  0  0
 32 29  1  6  0  0  0
 33 34  1  6  0  0  0
 33 30  1  0  0  0  0
 33 32  1  0  0  0  0
 35 37  1  0  0  0  0
 35 34  1  0  0  0  0
 36 35  2  0  0  0  0
 39 38  1  0  0  0  0
 40 43  1  0  0  0  0
 41 39  1  0  0  0  0
 41 47  1  0  0  0  0
 42 40  1  0  0  0  0
 43 47  2  0  0  0  0
 44 42  2  0  0  0  0
 45 44  1  0  0  0  0
 45 46  1  0  0  0  0
 46 48  1  0  0  0  0
 46 40  2  0  0  0  0
 48 41  2  0  0  0  0
M  END
>  <MODEL>
1

>  <REMARK>
 VINA RESULT:      -6.3      0.000      0.000
  Name = 
  11 active torsions:
  status: ('A' for Active; 'I' for Inactive)
    1  A    between atoms: C_3  and  C_6
    2  A    between atoms: C_4  and  C_12
    3  A    between atoms: C_5  and  C_10
    4  A    between atoms: S_8  and  N_37
    5  A    between atoms: S_8  and  C_43
    6  A    between atoms: C_10  and  C_33
    7  A    between atoms: C_12  and  C_42
    8  A    between atoms: C_18  and  C_33
    9  A    between atoms: C_29  and  C_35
   10  A    between atoms: C_30  and  N_37
   11  A    between atoms: C_35  and  C_41
                            x       y       z     vdW  Elec       q    Type
                         _______ _______ _______ _____ _____    ______ ____

>  <TORSDO>
F 11

$$$$
=
 OpenBabel11072412583D

 48 54  0  0  1  0  0  0  0  0999 V2000
  161.2180  208.0420  151.5170 C   0  0  2  0  0  3  0  0  0  0  0  0
  161.6280  208.0530  149.1200 C   0  0  0  0  0  0  0  0  0  0  0  0
  162.7420  210.4190  151.8410 S   0  0  0  0  0  0  0  0  0  0  0  0
  161.6410  210.8330  150.4480 C   0  0  1  0  0  3  0  0  0  0  0  0
  162.1090  207.9060  150.4210 O   0  0  0  0  0  0  0  0  0  0  0  0
  163.3930  212.4930  148.4330 O   0  0  0  0  0  1  0  0  0  0  0  0
  162.3910  211.5880  148.0910 C   0  0  2  0  0  3  0  0  0  0  0  0
  161.2870  212.3110  150.5170 C   0  0  0  0  0  2  0  0  0  0  0  0
  161.0490  212.3160  147.9700 C   0  0  0  0  0  2  0  0  0  0  0  0
  162.3380  210.4480  149.1220 C   0  0  2  0  0  3  0  0  0  0  0  0
  161.7110  209.0760  152.5430 C   0  0  1  0  0  3  0  0  0  0  0  0
  161.7070  209.2350  148.5040 C   0  0  0  0  0  3  0  0  0  0  0  0
  160.4220  212.7070  149.3230 C   0  0  0  0  0  2  0  0  0  0  0  0
  160.9630  206.9060  148.4220 C   0  0  0  0  0  3  0  0  0  0  0  0
  161.9260  206.2250  147.4700 C   0  0  0  0  0  2  0  0  0  0  0  0
  160.8950  207.1870  146.9330 C   0  0  0  0  0  2  0  0  0  0  0  0
  159.3540  209.6800  152.8130 O   0  0  0  0  0  1  0  0  0  0  0  0
  160.6040  209.6570  153.4420 C   0  0  1  0  0  3  0  0  0  0  0  0
  160.4600  208.9700  157.2010 C   0  0  0  0  0  3  0  0  0  0  0  0
  160.0780  206.8990  156.0150 C   0  0  0  0  0  3  0  0  0  0  0  0
  160.5050  208.9460  154.7680 C   0  0  0  0  0  0  0  0  0  0  0  0
  160.2270  207.5710  154.7980 C   0  0  0  0  0  3  0  0  0  0  0  0
  160.6100  209.6560  155.9860 C   0  0  0  0  0  0  0  0  0  0  0  0
  160.1980  207.5980  157.2170 C   0  0  0  0  0  3  0  0  0  0  0  0
  160.9160  211.3940  156.0310 S   0  0  0  0  0  0  0  0  0  0  0  0
  161.9950  211.6750  157.0450 O   0  0  0  0  0  0  0  0  0  0  0  0
  161.4000  211.8510  154.6820 O   0  0  0  0  0  0  0  0  0  0  0  0
  159.7680  213.2480  157.2580 O   0  0  0  0  0  1  0  0  0  0  0  0
  159.4360  212.2050  156.4640 N   0  0  0  0  0  0  0  0  0  0  0  0
  157.4360  213.3270  155.6020 C   0  0  0  0  0  0  0  0  0  0  0  0
  156.7080  214.1470  156.1350 O   0  0  0  0  0  0  0  0  0  0  0  0
  158.8200  212.7670  155.2650 C   0  0  2  0  0  3  0  0  0  0  0  0
  157.6620  212.0480  154.7940 C   0  0  1  0  0  3  0  0  0  0  0  0
  157.2250  210.8580  155.6410 C   0  0  0  0  0  2  0  0  0  0  0  0
  155.7480  210.7580  155.6540 C   0  0  0  0  0  0  0  0  0  0  0  0
  155.0710  210.3690  154.5060 O   0  0  0  0  0  0  0  0  0  0  0  0
  155.1090  211.0420  156.6980 O   0  0  0  0  0  1  0  0  0  0  0  0
  160.9510  206.6900  152.1680 C   0  0  0  0  0  2  0  0  0  0  0  0
  162.1370  205.7450  152.0250 C   0  0  0  0  0  2  0  0  0  0  0  0
  160.8430  202.0630  150.3000 C   0  0  0  0  0  0  0  0  0  0  0  0
  161.7020  204.4580  151.4160 C   0  0  0  0  0  0  0  0  0  0  0  0
  160.4080  200.9040  149.6180 N   0  0  0  0  0  0  0  0  0  0  0  0
  160.8990  202.1760  151.6920 C   0  0  0  0  0  3  0  0  0  0  0  0
  160.4290  201.0560  148.1690 C   0  0  0  0  0  3  0  0  0  0  0  0
  161.0290  202.7500  147.7500 S   0  0  0  0  0  0  0  0  0  0  0  0
  161.2080  203.1000  149.4850 C   0  0  0  0  0  0  0  0  0  0  0  0
  161.3310  203.3870  152.2490 C   0  0  0  0  0  3  0  0  0  0  0  0
  161.6400  204.3140  150.0200 C   0  0  0  0  0  3  0  0  0  0  0  0
  1 38  1  1  0  0  0
  1 11  1  0  0  0  0
  2  5  1  0  0  0  0
  3 11  1  0  0  0  0
  4  8  1  6  0  0  0
  4  3  1  0  0  0  0
  5  1  1  0  0  0  0
  7  6  1  1  0  0  0
  7 10  1  0  0  0  0
  9  7  1  0  0  0  0
  9 13  1  0  0  0  0
 10 12  1  6  0  0  0
 10  4  1  0  0  0  0
 11 18  1  6  0  0  0
 12  2  2  0  0  0  0
 13  8  1  0  0  0  0
 14  2  1  0  0  0  0
 15 14  1  0  0  0  0
 16 15  1  0  0  0  0
 16 14  1  0  0  0  0
 18 17  1  6  0  0  0
 18 21  1  0  0  0  0
 19 24  1  0  0  0  0
 20 24  2  0  0  0  0
 21 22  2  0  0  0  0
 21 23  1  0  0  0  0
 22 20  1  0  0  0  0
 23 25  1  0  0  0  0
 23 19  2  0  0  0  0
 25 29  1  0  0  0  0
 25 26  2  0  0  0  0
 27 25  2  0  0  0  0
 29 28  1  0  0  0  0
 30 31  2  0  0  0  0
 32 30  1  0  0  0  0
 32 29  1  1  0  0  0
 33 32  1  0  0  0  0
 33 30  1  0  0  0  0
 33 34  1  1  0  0  0
 34 35  1  0  0  0  0
 35 37  1  0  0  0  0
 36 35  2  0  0  0  0
 39 38  1  0  0  0  0
 40 43  1  0  0  0  0
 41 39  1  0  0  0  0
 41 47  1  0  0  0  0
 42 40  1  0  0  0  0
 43 47  2  0  0  0  0
 44 42  2  0  0  0  0
 45 44  1  0  0  0  0
 45 46  1  0  0  0  0
 46 48  1  0  0  0  0
 46 40  2  0  0  0  0
 48 41  2  0  0  0  0
M  END
>  <MODEL>
2

>  <REMARK>
 VINA RESULT:      -6.1      1.303      1.765
  Name = 
  11 active torsions:
  status: ('A' for Active; 'I' for Inactive)
    1  A    between atoms: C_3  and  C_6
    2  A    between atoms: C_4  and  C_12
    3  A    between atoms: C_5  and  C_10
    4  A    between atoms: S_8  and  N_37
    5  A    between atoms: S_8  and  C_43
    6  A    between atoms: C_10  and  C_33
    7  A    between atoms: C_12  and  C_42
    8  A    between atoms: C_18  and  C_33
    9  A    between atoms: C_29  and  C_35
   10  A    between atoms: C_30  and  N_37
   11  A    between atoms: C_35  and  C_41
                            x       y       z     vdW  Elec       q    Type
                         _______ _______ _______ _____ _____    ______ ____

>  <TORSDO>
F 11

$$$$
=
 OpenBabel11072412583D

 48 54  0  0  1  0  0  0  0  0999 V2000
  160.7190  211.3100  151.5120 C   0  0  2  0  0  3  0  0  0  0  0  0
  159.5970  213.1810  152.5880 C   0  0  0  0  0  0  0  0  0  0  0  0
  162.0150  210.6200  153.9460 S   0  0  0  0  0  0  0  0  0  0  0  0
  160.2780  210.8310  154.4600 C   0  0  1  0  0  3  0  0  0  0  0  0
  160.7720  212.5890  152.1250 O   0  0  0  0  0  0  0  0  0  0  0  0
  160.3800  212.2550  157.2610 O   0  0  0  0  0  1  0  0  0  0  0  0
  159.4180  212.4600  156.2740 C   0  0  2  0  0  3  0  0  0  0  0  0
  159.9690  209.8450  155.5770 C   0  0  0  0  0  2  0  0  0  0  0  0
  158.2420  211.5000  156.4830 C   0  0  0  0  0  2  0  0  0  0  0  0
  160.0510  212.3010  154.8820 C   0  0  2  0  0  3  0  0  0  0  0  0
  161.6810  210.3080  152.1710 C   0  0  1  0  0  3  0  0  0  0  0  0
  159.2330  213.0410  153.8660 C   0  0  0  0  0  3  0  0  0  0  0  0
  158.5410  210.0440  156.0800 C   0  0  0  0  0  2  0  0  0  0  0  0
  158.7000  213.9270  151.6480 C   0  0  0  0  0  3  0  0  0  0  0  0
  157.2640  213.8850  152.1300 C   0  0  0  0  0  2  0  0  0  0  0  0
  157.7090  212.9650  151.0200 C   0  0  0  0  0  2  0  0  0  0  0  0
  159.9480  208.5810  152.1040 O   0  0  0  0  0  1  0  0  0  0  0  0
  161.3160  208.8300  151.9410 C   0  0  1  0  0  3  0  0  0  0  0  0
  162.3260  206.4990  149.0830 C   0  0  0  0  0  3  0  0  0  0  0  0
  162.3570  208.7790  148.2780 C   0  0  0  0  0  3  0  0  0  0  0  0
  161.7790  208.3230  150.5990 C   0  0  0  0  0  0  0  0  0  0  0  0
  161.9770  209.2290  149.5460 C   0  0  0  0  0  3  0  0  0  0  0  0
  161.9440  206.9390  150.3600 C   0  0  0  0  0  0  0  0  0  0  0  0
  162.5340  207.4140  148.0470 C   0  0  0  0  0  3  0  0  0  0  0  0
  161.6720  205.7340  151.6200 S   0  0  0  0  0  0  0  0  0  0  0  0
  162.6720  205.9480  152.7260 O   0  0  0  0  0  0  0  0  0  0  0  0
  160.2900  205.9090  152.1880 O   0  0  0  0  0  0  0  0  0  0  0  0
  162.2760  203.3230  151.9040 O   0  0  0  0  0  1  0  0  0  0  0  0
  161.8560  204.1500  150.9200 N   0  0  0  0  0  0  0  0  0  0  0  0
  160.6810  202.2150  149.9810 C   0  0  0  0  0  0  0  0  0  0  0  0
  160.8620  201.0240  150.1660 O   0  0  0  0  0  0  0  0  0  0  0  0
  160.5520  203.6560  150.4830 C   0  0  2  0  0  3  0  0  0  0  0  0
  160.4480  203.4180  149.0630 C   0  0  1  0  0  3  0  0  0  0  0  0
  161.7160  203.6580  148.2520 C   0  0  0  0  0  2  0  0  0  0  0  0
  161.4210  203.5470  146.8040 C   0  0  0  0  0  0  0  0  0  0  0  0
  161.0740  202.3170  146.2620 O   0  0  0  0  0  1  0  0  0  0  0  0
  161.5030  204.5620  146.0680 O   0  0  0  0  0  0  0  0  0  0  0  0
  160.9620  211.4190  150.0120 C   0  0  0  0  0  2  0  0  0  0  0  0
  161.2400  212.8530  149.5820 C   0  0  0  0  0  2  0  0  0  0  0  0
  161.3610  213.0940  145.3240 C   0  0  0  0  0  0  0  0  0  0  0  0
  161.2710  212.9520  148.0970 C   0  0  0  0  0  0  0  0  0  0  0  0
  161.2830  213.1260  143.9130 N   0  0  0  0  0  0  0  0  0  0  0  0
  162.5420  213.2840  146.0460 C   0  0  0  0  0  3  0  0  0  0  0  0
  159.9380  212.8790  143.4120 C   0  0  0  0  0  3  0  0  0  0  0  0
  158.8030  212.6070  144.8410 S   0  0  0  0  0  0  0  0  0  0  0  0
  160.1700  212.8500  145.9530 C   0  0  0  0  0  0  0  0  0  0  0  0
  162.4900  213.2090  147.4450 C   0  0  0  0  0  3  0  0  0  0  0  0
  160.0980  212.7700  147.3440 C   0  0  0  0  0  3  0  0  0  0  0  0
  1 38  1  6  0  0  0
  1  5  1  0  0  0  0
  1 11  1  0  0  0  0
  2 12  2  0  0  0  0
  3  4  1  0  0  0  0
  4 10  1  0  0  0  0
  4  8  1  1  0  0  0
  5  2  1  0  0  0  0
  7  9  1  0  0  0  0
  7  6  1  1  0  0  0
  8 13  1  0  0  0  0
 10 12  1  6  0  0  0
 10  7  1  0  0  0  0
 11 18  1  1  0  0  0
 11  3  1  0  0  0  0
 13  9  1  0  0  0  0
 14 15  1  0  0  0  0
 14  2  1  0  0  0  0
 16 14  1  0  0  0  0
 16 15  1  0  0  0  0
 18 17  1  6  0  0  0
 19 23  1  0  0  0  0
 20 22  2  0  0  0  0
 21 18  1  0  0  0  0
 22 21  1  0  0  0  0
 23 21  2  0  0  0  0
 23 25  1  0  0  0  0
 24 20  1  0  0  0  0
 24 19  2  0  0  0  0
 25 27  2  0  0  0  0
 25 26  2  0  0  0  0
 29 25  1  0  0  0  0
 29 28  1  0  0  0  0
 30 31  2  0  0  0  0
 30 32  1  0  0  0  0
 32 29  1  6  0  0  0
 33 34  1  6  0  0  0
 33 30  1  0  0  0  0
 33 32  1  0  0  0  0
 35 34  1  0  0  0  0
 36 35  1  0  0  0  0
 37 35  2  0  0  0  0
 39 38  1  0  0  0  0
 40 46  2  0  0  0  0
 40 43  1  0  0  0  0
 41 39  1  0  0  0  0
 42 40  1  0  0  0  0
 43 47  2  0  0  0  0
 44 42  2  0  0  0  0
 44 45  1  0  0  0  0
 45 46  1  0  0  0  0
 46 48  1  0  0  0  0
 47 41  1  0  0  0  0
 48 41  2  0  0  0  0
M  END
>  <MODEL>
3

>  <REMARK>
 VINA RESULT:      -4.3      3.358      9.124
  Name = 
  11 active torsions:
  status: ('A' for Active; 'I' for Inactive)
    1  A    between atoms: C_3  and  C_6
    2  A    between atoms: C_4  and  C_12
    3  A    between atoms: C_5  and  C_10
    4  A    between atoms: S_8  and  N_37
    5  A    between atoms: S_8  and  C_43
    6  A    between atoms: C_10  and  C_33
    7  A    between atoms: C_12  and  C_42
    8  A    between atoms: C_18  and  C_33
    9  A    between atoms: C_29  and  C_35
   10  A    between atoms: C_30  and  N_37
   11  A    between atoms: C_35  and  C_41
                            x       y       z     vdW  Elec       q    Type
                         _______ _______ _______ _____ _____    ______ ____

>  <TORSDO>
F 11

$$$$
=
 OpenBabel11072412583D

 48 54  0  0  1  0  0  0  0  0999 V2000
  161.9300  206.9820  148.9940 C   0  0  2  0  0  3  0  0  0  0  0  0
  161.6660  205.1370  147.4310 C   0  0  0  0  0  0  0  0  0  0  0  0
  160.0780  205.7920  150.7920 S   0  0  0  0  0  0  0  0  0  0  0  0
  161.1920  204.4060  150.3860 C   0  0  1  0  0  3  0  0  0  0  0  0
  161.1330  206.2560  148.0700 O   0  0  0  0  0  0  0  0  0  0  0  0
  159.3510  201.8720  150.1290 O   0  0  0  0  0  1  0  0  0  0  0  0
  160.4860  202.1370  149.3670 C   0  0  2  0  0  3  0  0  0  0  0  0
  161.3350  203.5110  151.6080 C   0  0  0  0  0  2  0  0  0  0  0  0
  161.7210  201.5280  150.0390 C   0  0  0  0  0  2  0  0  0  0  0  0
  160.6350  203.6530  149.1570 C   0  0  2  0  0  3  0  0  0  0  0  0
  161.2400  207.1410  150.3590 C   0  0  1  0  0  3  0  0  0  0  0  0
  161.4620  203.9160  147.9330 C   0  0  0  0  0  3  0  0  0  0  0  0
  162.2070  202.3010  151.2800 C   0  0  0  0  0  2  0  0  0  0  0  0
  162.5230  205.2940  146.2120 C   0  0  0  0  0  3  0  0  0  0  0  0
  161.7090  205.8240  145.0480 C   0  0  0  0  0  2  0  0  0  0  0  0
  162.0390  204.3540  145.1250 C   0  0  0  0  0  2  0  0  0  0  0  0
  162.7560  208.7070  151.4730 O   0  0  0  0  0  1  0  0  0  0  0  0
  162.2010  207.4240  151.5280 C   0  0  1  0  0  3  0  0  0  0  0  0
  160.3410  208.0030  154.8190 C   0  0  0  0  0  3  0  0  0  0  0  0
  160.8280  205.6450  154.6030 C   0  0  0  0  0  3  0  0  0  0  0  0
  161.5580  207.1940  152.8730 C   0  0  0  0  0  0  0  0  0  0  0  0
  161.4650  205.8910  153.3830 C   0  0  0  0  0  3  0  0  0  0  0  0
  160.9770  208.2620  153.5950 C   0  0  0  0  0  0  0  0  0  0  0  0
  160.2680  206.7020  155.3220 C   0  0  0  0  0  3  0  0  0  0  0  0
  161.0150  209.9230  152.9990 S   0  0  0  0  0  0  0  0  0  0  0  0
  162.4190  210.2550  152.5630 O   0  0  0  0  0  0  0  0  0  0  0  0
  160.1050  210.0470  151.8070 O   0  0  0  0  0  0  0  0  0  0  0  0
  161.6070  211.3500  154.9670 O   0  0  0  0  0  1  0  0  0  0  0  0
  160.5000  210.9830  154.2820 N   0  0  0  0  0  0  0  0  0  0  0  0
  159.3490  213.0780  154.8200 C   0  0  0  0  0  0  0  0  0  0  0  0
  159.4660  213.8090  155.7880 O   0  0  0  0  0  0  0  0  0  0  0  0
  159.9350  212.2020  153.7100 C   0  0  2  0  0  3  0  0  0  0  0  0
  158.5000  212.3020  153.8110 C   0  0  1  0  0  3  0  0  0  0  0  0
  157.8020  211.1610  154.5440 C   0  0  0  0  0  2  0  0  0  0  0  0
  156.3750  211.4920  154.7590 C   0  0  0  0  0  0  0  0  0  0  0  0
  155.4700  210.4860  155.0690 O   0  0  0  0  0  1  0  0  0  0  0  0
  155.9830  212.6800  154.6440 O   0  0  0  0  0  0  0  0  0  0  0  0
  162.3410  208.3290  148.4130 C   0  0  0  0  0  2  0  0  0  0  0  0
  161.6600  209.4890  149.1270 C   0  0  0  0  0  2  0  0  0  0  0  0
  162.2660  213.0900  146.9180 C   0  0  0  0  0  0  0  0  0  0  0  0
  161.8570  210.7530  148.3650 C   0  0  0  0  0  0  0  0  0  0  0  0
  162.3660  214.2490  146.1180 N   0  0  0  0  0  0  0  0  0  0  0  0
  163.2570  212.6660  147.8080 C   0  0  0  0  0  3  0  0  0  0  0  0
  161.2020  214.4530  145.2650 C   0  0  0  0  0  3  0  0  0  0  0  0
  159.9980  213.0850  145.5520 S   0  0  0  0  0  0  0  0  0  0  0  0
  161.1040  212.3840  146.7550 C   0  0  0  0  0  0  0  0  0  0  0  0
  163.0450  211.4850  148.5330 C   0  0  0  0  0  3  0  0  0  0  0  0
  160.8760  211.2060  147.4670 C   0  0  0  0  0  3  0  0  0  0  0  0
  1 38  1  6  0  0  0
  1 11  1  0  0  0  0
  2 12  2  0  0  0  0
  2  5  1  0  0  0  0
  4  3  1  0  0  0  0
  4  8  1  1  0  0  0
  5  1  1  0  0  0  0
  7  9  1  0  0  0  0
  7  6  1  1  0  0  0
  9 13  1  0  0  0  0
 10 12  1  6  0  0  0
 10  7  1  0  0  0  0
 10  4  1  0  0  0  0
 11  3  1  0  0  0  0
 11 18  1  1  0  0  0
 13  8  1  0  0  0  0
 14  2  1  0  0  0  0
 15 16  1  0  0  0  0
 15 14  1  0  0  0  0
 16 14  1  0  0  0  0
 18 17  1  1  0  0  0
 18 21  1  0  0  0  0
 19 24  1  0  0  0  0
 20 24  2  0  0  0  0
 21 22  2  0  0  0  0
 21 23  1  0  0  0  0
 22 20  1  0  0  0  0
 23 19  2  0  0  0  0
 25 23  1  0  0  0  0
 25 29  1  0  0  0  0
 26 25  2  0  0  0  0
 27 25  2  0  0  0  0
 29 28  1  0  0  0  0
 30 31  2  0  0  0  0
 32 33  1  0  0  0  0
 32 29  1  1  0  0  0
 32 30  1  0  0  0  0
 33 34  1  1  0  0  0
 33 30  1  0  0  0  0
 34 35  1  0  0  0  0
 35 36  1  0  0  0  0
 37 35  2  0  0  0  0
 38 39  1  0  0  0  0
 40 43  1  0  0  0  0
 41 47  1  0  0  0  0
 41 39  1  0  0  0  0
 42 40  1  0  0  0  0
 43 47  2  0  0  0  0
 44 45  1  0  0  0  0
 44 42  2  0  0  0  0
 45 46  1  0  0  0  0
 46 40  2  0  0  0  0
 46 48  1  0  0  0  0
 48 41  2  0  0  0  0
M  END
>  <MODEL>
4

>  <REMARK>
 VINA RESULT:      -4.3      2.779      6.647
  Name = 
  11 active torsions:
  status: ('A' for Active; 'I' for Inactive)
    1  A    between atoms: C_3  and  C_6
    2  A    between atoms: C_4  and  C_12
    3  A    between atoms: C_5  and  C_10
    4  A    between atoms: S_8  and  N_37
    5  A    between atoms: S_8  and  C_43
    6  A    between atoms: C_10  and  C_33
    7  A    between atoms: C_12  and  C_42
    8  A    between atoms: C_18  and  C_33
    9  A    between atoms: C_29  and  C_35
   10  A    between atoms: C_30  and  N_37
   11  A    between atoms: C_35  and  C_41
                            x       y       z     vdW  Elec       q    Type
                         _______ _______ _______ _____ _____    ______ ____

>  <TORSDO>
F 11

$$$$
=
 OpenBabel11072412583D

 48 54  0  0  1  0  0  0  0  0999 V2000
  161.3260  209.2940  151.2300 C   0  0  2  0  0  3  0  0  0  0  0  0
  160.9490  210.8780  153.0370 C   0  0  0  0  0  0  0  0  0  0  0  0
  162.6350  207.5010  153.0060 S   0  0  0  0  0  0  0  0  0  0  0  0
  161.1130  207.9290  153.9150 C   0  0  1  0  0  3  0  0  0  0  0  0
  161.8310  210.2220  152.1780 O   0  0  0  0  0  0  0  0  0  0  0  0
  161.9640  208.2080  156.9290 O   0  0  0  0  0  1  0  0  0  0  0  0
  160.9980  208.9730  156.2780 C   0  0  2  0  0  3  0  0  0  0  0  0
  160.6570  206.7190  154.7170 C   0  0  0  0  0  2  0  0  0  0  0  0
  159.6220  208.3150  156.4280 C   0  0  0  0  0  2  0  0  0  0  0  0
  161.3860  209.1650  154.8030 C   0  0  2  0  0  3  0  0  0  0  0  0
  162.0170  207.9230  151.3340 C   0  0  1  0  0  3  0  0  0  0  0  0
  160.7130  210.3900  154.2580 C   0  0  0  0  0  3  0  0  0  0  0  0
  159.4240  207.0660  155.5470 C   0  0  0  0  0  2  0  0  0  0  0  0
  160.2110  212.0990  152.5810 C   0  0  0  0  0  3  0  0  0  0  0  0
  159.1930  212.5300  153.6180 C   0  0  0  0  0  2  0  0  0  0  0  0
  158.7420  211.7670  152.3960 C   0  0  0  0  0  2  0  0  0  0  0  0
  159.8210  206.9670  150.8260 O   0  0  0  0  0  1  0  0  0  0  0  0
  161.2020  206.7560  150.7460 C   0  0  1  0  0  3  0  0  0  0  0  0
  161.9050  204.8420  147.5110 C   0  0  0  0  0  3  0  0  0  0  0  0
  162.2270  207.2040  147.1060 C   0  0  0  0  0  3  0  0  0  0  0  0
  161.5970  206.4320  149.3280 C   0  0  0  0  0  0  0  0  0  0  0  0
  161.9080  207.4730  148.4400 C   0  0  0  0  0  3  0  0  0  0  0  0
  161.5830  205.1010  148.8520 C   0  0  0  0  0  0  0  0  0  0  0  0
  162.2280  205.8870  146.6420 C   0  0  0  0  0  3  0  0  0  0  0  0
  161.1590  203.7410  149.8950 S   0  0  0  0  0  0  0  0  0  0  0  0
  161.8180  203.9290  151.2370 O   0  0  0  0  0  0  0  0  0  0  0  0
  159.6690  203.7120  150.0970 O   0  0  0  0  0  0  0  0  0  0  0  0
  162.4050  201.5780  150.0680 O   0  0  0  0  0  1  0  0  0  0  0  0
  161.7090  202.2710  149.1380 N   0  0  0  0  0  0  0  0  0  0  0  0
  160.9830  200.3570  147.7920 C   0  0  0  0  0  0  0  0  0  0  0  0
  161.5700  199.3250  147.5180 O   0  0  0  0  0  0  0  0  0  0  0  0
  160.5570  201.4500  148.7760 C   0  0  2  0  0  3  0  0  0  0  0  0
  160.1420  201.5740  147.4000 C   0  0  1  0  0  3  0  0  0  0  0  0
  160.9930  202.4900  146.5270 C   0  0  0  0  0  2  0  0  0  0  0  0
  160.4210  202.5670  145.1630 C   0  0  0  0  0  0  0  0  0  0  0  0
  160.4450  203.7690  144.4700 O   0  0  0  0  0  0  0  0  0  0  0  0
  159.9000  201.5480  144.6430 O   0  0  0  0  0  1  0  0  0  0  0  0
  161.4130  209.8610  149.8180 C   0  0  0  0  0  2  0  0  0  0  0  0
  162.4460  210.9740  149.7150 C   0  0  0  0  0  2  0  0  0  0  0  0
  161.7640  213.3220  146.2180 C   0  0  0  0  0  0  0  0  0  0  0  0
  162.1950  211.8020  148.5030 C   0  0  0  0  0  0  0  0  0  0  0  0
  161.4350  214.0300  145.0400 N   0  0  0  0  0  0  0  0  0  0  0  0
  162.9910  213.4310  146.8770 C   0  0  0  0  0  3  0  0  0  0  0  0
  160.1000  213.7210  144.5460 C   0  0  0  0  0  3  0  0  0  0  0  0
  159.3130  212.4860  145.6690 S   0  0  0  0  0  0  0  0  0  0  0  0
  160.7770  212.4940  146.6780 C   0  0  0  0  0  0  0  0  0  0  0  0
  163.2030  212.6600  148.0290 C   0  0  0  0  0  3  0  0  0  0  0  0
  160.9690  211.7170  147.8220 C   0  0  0  0  0  3  0  0  0  0  0  0
  1 38  1  6  0  0  0
  1 11  1  0  0  0  0
  1  5  1  0  0  0  0
  2 12  2  0  0  0  0
  3  4  1  0  0  0  0
  4  8  1  1  0  0  0
  4 10  1  0  0  0  0
  5  2  1  0  0  0  0
  7  9  1  0  0  0  0
  7  6  1  6  0  0  0
  8 13  1  0  0  0  0
 10 12  1  6  0  0  0
 10  7  1  0  0  0  0
 11 18  1  1  0  0  0
 11  3  1  0  0  0  0
 13  9  1  0  0  0  0
 14  2  1  0  0  0  0
 14 15  1  0  0  0  0
 16 14  1  0  0  0  0
 16 15  1  0  0  0  0
 18 17  1  6  0  0  0
 19 23  1  0  0  0  0
 20 22  2  0  0  0  0
 21 18  1  0  0  0  0
 22 21  1  0  0  0  0
 23 21  2  0  0  0  0
 23 25  1  0  0  0  0
 24 20  1  0  0  0  0
 24 19  2  0  0  0  0
 25 27  2  0  0  0  0
 25 26  2  0  0  0  0
 29 25  1  0  0  0  0
 29 28  1  0  0  0  0
 30 32  1  0  0  0  0
 31 30  2  0  0  0  0
 32 29  1  6  0  0  0
 33 34  1  6  0  0  0
 33 30  1  0  0  0  0
 33 32  1  0  0  0  0
 35 34  1  0  0  0  0
 36 35  2  0  0  0  0
 37 35  1  0  0  0  0
 39 38  1  0  0  0  0
 40 46  2  0  0  0  0
 40 43  1  0  0  0  0
 41 39  1  0  0  0  0
 42 40  1  0  0  0  0
 43 47  2  0  0  0  0
 44 42  2  0  0  0  0
 44 45  1  0  0  0  0
 45 46  1  0  0  0  0
 46 48  1  0  0  0  0
 47 41  1  0  0  0  0
 48 41  2  0  0  0  0
M  END
>  <MODEL>
5

>  <REMARK>
 VINA RESULT:      -3.7      3.597      9.899
  Name = 
  11 active torsions:
  status: ('A' for Active; 'I' for Inactive)
    1  A    between atoms: C_3  and  C_6
    2  A    between atoms: C_4  and  C_12
    3  A    between atoms: C_5  and  C_10
    4  A    between atoms: S_8  and  N_37
    5  A    between atoms: S_8  and  C_43
    6  A    between atoms: C_10  and  C_33
    7  A    between atoms: C_12  and  C_42
    8  A    between atoms: C_18  and  C_33
    9  A    between atoms: C_29  and  C_35
   10  A    between atoms: C_30  and  N_37
   11  A    between atoms: C_35  and  C_41
                            x       y       z     vdW  Elec       q    Type
                         _______ _______ _______ _____ _____    ______ ____

>  <TORSDO>
F 11

$$$$
=
 OpenBabel11072412583D

 48 54  0  0  1  0  0  0  0  0999 V2000
  161.2860  208.9070  150.8400 C   0  0  2  0  0  3  0  0  0  0  0  0
  161.4730  210.4360  152.7220 C   0  0  0  0  0  0  0  0  0  0  0  0
  162.2600  206.7570  152.4230 S   0  0  0  0  0  0  0  0  0  0  0  0
  160.9770  207.4940  153.4900 C   0  0  1  0  0  3  0  0  0  0  0  0
  162.0860  209.6320  151.7620 O   0  0  0  0  0  0  0  0  0  0  0  0
  162.1320  207.3940  156.4120 O   0  0  0  0  0  1  0  0  0  0  0  0
  161.3320  208.4050  155.8840 C   0  0  2  0  0  3  0  0  0  0  0  0
  160.3080  206.3900  154.2960 C   0  0  0  0  0  2  0  0  0  0  0  0
  159.8550  208.0950  156.1480 C   0  0  0  0  0  2  0  0  0  0  0  0
  161.6250  208.5760  154.3840 C   0  0  2  0  0  3  0  0  0  0  0  0
  161.6210  207.4060  150.8330 C   0  0  1  0  0  3  0  0  0  0  0  0
  161.2310  209.9560  153.9450 C   0  0  0  0  0  3  0  0  0  0  0  0
  159.2770  206.9830  155.2530 C   0  0  0  0  0  2  0  0  0  0  0  0
  161.0230  211.8230  152.3780 C   0  0  0  0  0  3  0  0  0  0  0  0
  159.9830  212.3110  153.3670 C   0  0  0  0  0  2  0  0  0  0  0  0
  159.5510  211.8050  152.0130 C   0  0  0  0  0  2  0  0  0  0  0  0
  160.1160  206.8380  148.9880 O   0  0  0  0  0  1  0  0  0  0  0  0
  160.4950  206.5060  150.2930 C   0  0  1  0  0  3  0  0  0  0  0  0
  161.8660  203.0360  149.4550 C   0  0  0  0  0  3  0  0  0  0  0  0
  160.9040  202.9800  151.6730 C   0  0  0  0  0  3  0  0  0  0  0  0
  160.8370  205.0400  150.3770 C   0  0  0  0  0  0  0  0  0  0  0  0
  160.5500  204.3260  151.5500 C   0  0  0  0  0  3  0  0  0  0  0  0
  161.5150  204.3880  149.3210 C   0  0  0  0  0  0  0  0  0  0  0  0
  161.5600  202.3330  150.6230 C   0  0  0  0  0  3  0  0  0  0  0  0
  161.9510  205.2280  147.8310 S   0  0  0  0  0  0  0  0  0  0  0  0
  162.1010  206.6990  148.1240 O   0  0  0  0  0  0  0  0  0  0  0  0
  163.2710  204.7060  147.3310 O   0  0  0  0  0  0  0  0  0  0  0  0
  160.1900  206.1690  146.3230 O   0  0  0  0  0  1  0  0  0  0  0  0
  160.6940  204.9580  146.6560 N   0  0  0  0  0  0  0  0  0  0  0  0
  160.1980  203.6680  144.6330 C   0  0  0  0  0  0  0  0  0  0  0  0
  159.1990  203.6590  143.9360 O   0  0  0  0  0  0  0  0  0  0  0  0
  161.2760  204.3960  145.4410 C   0  0  2  0  0  3  0  0  0  0  0  0
  161.3100  202.9540  145.4050 C   0  0  1  0  0  3  0  0  0  0  0  0
  160.6880  202.2430  146.6010 C   0  0  0  0  0  2  0  0  0  0  0  0
  160.9460  200.7860  146.5160 C   0  0  0  0  0  0  0  0  0  0  0  0
  160.5960  200.0880  145.3690 O   0  0  0  0  0  0  0  0  0  0  0  0
  161.4640  200.1840  147.4890 O   0  0  0  0  0  1  0  0  0  0  0  0
  161.3860  209.5110  149.4440 C   0  0  0  0  0  2  0  0  0  0  0  0
  162.4340  210.6130  149.3750 C   0  0  0  0  0  2  0  0  0  0  0  0
  161.4860  213.3810  146.2690 C   0  0  0  0  0  0  0  0  0  0  0  0
  162.0910  211.5870  148.3030 C   0  0  0  0  0  0  0  0  0  0  0  0
  161.0650  214.2330  145.2230 N   0  0  0  0  0  0  0  0  0  0  0  0
  162.7750  213.3860  146.8100 C   0  0  0  0  0  3  0  0  0  0  0  0
  159.6790  214.0110  144.8330 C   0  0  0  0  0  3  0  0  0  0  0  0
  158.9680  212.6640  145.8750 S   0  0  0  0  0  0  0  0  0  0  0  0
  160.5240  212.5220  146.7250 C   0  0  0  0  0  0  0  0  0  0  0  0
  163.0740  212.4770  147.8350 C   0  0  0  0  0  3  0  0  0  0  0  0
  160.8020  211.6090  147.7430 C   0  0  0  0  0  3  0  0  0  0  0  0
  1 38  1  6  0  0  0
  1  5  1  0  0  0  0
  2 12  2  0  0  0  0
  3  4  1  0  0  0  0
  4  8  1  1  0  0  0
  4 10  1  0  0  0  0
  5  2  1  0  0  0  0
  7  9  1  0  0  0  0
  7  6  1  6  0  0  0
  8 13  1  0  0  0  0
 10 12  1  6  0  0  0
 10  7  1  0  0  0  0
 11 18  1  1  0  0  0
 11  1  1  0  0  0  0
 11  3  1  0  0  0  0
 13  9  1  0  0  0  0
 14  2  1  0  0  0  0
 14 15  1  0  0  0  0
 16 14  1  0  0  0  0
 16 15  1  0  0  0  0
 18 17  1  6  0  0  0
 18 21  1  0  0  0  0
 19 24  1  0  0  0  0
 21 22  2  0  0  0  0
 22 20  1  0  0  0  0
 23 19  2  0  0  0  0
 23 21  1  0  0  0  0
 24 20  2  0  0  0  0
 25 26  2  0  0  0  0
 25 23  1  0  0  0  0
 27 25  2  0  0  0  0
 28 29  1  0  0  0  0
 29 25  1  0  0  0  0
 30 33  1  0  0  0  0
 30 32  1  0  0  0  0
 31 30  2  0  0  0  0
 32 29  1  1  0  0  0
 33 32  1  0  0  0  0
 33 34  1  1  0  0  0
 35 34  1  0  0  0  0
 35 37  1  0  0  0  0
 36 35  2  0  0  0  0
 39 38  1  0  0  0  0
 40 46  2  0  0  0  0
 40 43  1  0  0  0  0
 41 39  1  0  0  0  0
 42 40  1  0  0  0  0
 43 47  2  0  0  0  0
 44 42  2  0  0  0  0
 44 45  1  0  0  0  0
 45 46  1  0  0  0  0
 46 48  1  0  0  0  0
 47 41  1  0  0  0  0
 48 41  2  0  0  0  0
M  END
>  <MODEL>
6

>  <REMARK>
 VINA RESULT:      -3.5      3.693      9.788
  Name = 
  11 active torsions:
  status: ('A' for Active; 'I' for Inactive)
    1  A    between atoms: C_3  and  C_6
    2  A    between atoms: C_4  and  C_12
    3  A    between atoms: C_5  and  C_10
    4  A    between atoms: S_8  and  N_37
    5  A    between atoms: S_8  and  C_43
    6  A    between atoms: C_10  and  C_33
    7  A    between atoms: C_12  and  C_42
    8  A    between atoms: C_18  and  C_33
    9  A    between atoms: C_29  and  C_35
   10  A    between atoms: C_30  and  N_37
   11  A    between atoms: C_35  and  C_41
                            x       y       z     vdW  Elec       q    Type
                         _______ _______ _______ _____ _____    ______ ____

>  <TORSDO>
F 11

$$$$
=
 OpenBabel11072412583D

 48 55  0  0  1  0  0  0  0  0999 V2000
  160.5500  210.5920  152.9900 C   0  0  2  0  0  3  0  0  0  0  0  0
  160.3770  209.9630  155.3330 C   0  0  0  0  0  0  0  0  0  0  0  0
  157.9470  211.7330  153.0500 S   0  0  0  0  0  0  0  0  0  0  0  0
  158.7330  212.4440  154.5340 C   0  0  1  0  0  3  0  0  0  0  0  0
  159.9660  209.7990  154.0110 O   0  0  0  0  0  0  0  0  0  0  0  0
  156.5070  212.4740  156.7530 O   0  0  0  0  0  1  0  0  0  0  0  0
  157.8640  212.2370  156.9600 C   0  0  2  0  0  3  0  0  0  0  0  0
  158.2050  213.8550  154.7470 C   0  0  0  0  0  2  0  0  0  0  0  0
  158.5840  213.5550  157.2590 C   0  0  0  0  0  2  0  0  0  0  0  0
  158.4630  211.5170  155.7410 C   0  0  2  0  0  3  0  0  0  0  0  0
  159.4950  211.3340  152.1530 C   0  0  1  0  0  3  0  0  0  0  0  0
  159.7030  210.7760  156.1500 C   0  0  0  0  0  3  0  0  0  0  0  0
  158.7910  214.4530  156.0240 C   0  0  0  0  0  2  0  0  0  0  0  0
  161.6140  209.2820  155.8340 C   0  0  0  0  0  3  0  0  0  0  0  0
  161.9550  209.7510  157.2350 C   0  0  0  0  0  2  0  0  0  0  0  0
  162.7080  210.3100  156.0530 C   0  0  0  0  0  2  0  0  0  0  0  0
  161.2310  212.3310  150.7440 O   0  0  0  0  0  0  0  0  0  0  0  0
  160.0280  212.5760  151.4140 C   0  0  1  0  0  3  0  0  0  0  0  0
  158.3720  213.9460  148.2510 C   0  0  0  0  0  3  0  0  0  0  0  0
  156.7210  213.8460  150.0160 C   0  0  0  0  0  3  0  0  0  0  0  0
  159.0140  213.1620  150.4640 C   0  0  0  0  0  0  0  0  0  0  0  0
  157.6920  213.3530  150.8920 C   0  0  0  0  0  3  0  0  0  0  0  0
  159.3540  213.4510  149.1230 C   0  0  0  0  0  0  0  0  0  0  0  0
  157.0620  214.1460  148.6950 C   0  0  0  0  0  3  0  0  0  0  0  0
  160.9850  213.1970  148.4960 S   0  0  1  0  0  0  0  0  0  0  0  0
  161.7970  214.4450  148.7250 O   0  0  0  0  0  1  0  0  0  0  0  0
  161.6350  212.0630  149.2420 O   0  0  0  0  0  0  0  0  0  0  0  0
  159.8890  211.9220  146.6430 O   0  0  0  0  0  1  0  0  0  0  0  0
  160.8740  212.8360  146.7960 N   0  0  0  0  0  0  0  0  0  0  0  0
  160.0570  213.6620  144.6390 C   0  0  0  0  0  0  0  0  0  0  0  0
  159.3100  213.1370  143.8320 O   0  0  0  0  0  0  0  0  0  0  0  0
  160.4550  214.0320  146.0700 C   0  0  2  0  0  3  0  0  0  0  0  0
  161.3370  214.4210  144.9970 C   0  0  1  0  0  3  0  0  0  0  0  0
  162.5280  213.5030  144.7470 C   0  0  0  0  0  2  0  0  0  0  0  0
  162.6900  213.2650  143.2940 C   0  0  0  0  0  0  0  0  0  0  0  0
  163.4800  214.1190  142.5370 O   0  0  0  0  0  0  0  0  0  0  0  0
  162.0990  212.3010  142.7470 O   0  0  0  0  0  1  0  0  0  0  0  0
  161.4730  209.7530  152.1130 C   0  0  0  0  0  2  0  0  0  0  0  0
  161.1760  208.2650  152.2360 C   0  0  0  0  0  2  0  0  0  0  0  0
  161.5440  206.3860  148.4220 C   0  0  0  0  0  0  0  0  0  0  0  0
  161.2870  207.6030  150.9070 C   0  0  0  0  0  0  0  0  0  0  0  0
  161.6730  205.6530  147.2210 N   0  0  0  0  0  0  0  0  0  0  0  0
  161.6460  207.7770  148.5040 C   0  0  0  0  0  3  0  0  0  0  0  0
  161.5430  204.2150  147.4160 C   0  0  0  0  0  3  0  0  0  0  0  0
  161.2520  203.8730  149.2050 S   0  0  0  0  0  0  0  0  0  0  0  0
  161.3130  205.6210  149.5340 C   0  0  0  0  0  0  0  0  0  0  0  0
  161.5170  208.3850  149.7610 C   0  0  0  0  0  3  0  0  0  0  0  0
  161.1840  206.2070  150.7930 C   0  0  0  0  0  3  0  0  0  0  0  0
  1 38  1  6  0  0  0
  1  5  1  0  0  0  0
  2 14  1  0  0  0  0
  2 12  2  0  0  0  0
  3  4  1  0  0  0  0
  4  8  1  1  0  0  0
  4 10  1  0  0  0  0
  5  2  1  0  0  0  0
  7  6  1  6  0  0  0
  7  9  1  0  0  0  0
  8 13  1  0  0  0  0
 10 12  1  1  0  0  0
 10  7  1  0  0  0  0
 11  1  1  0  0  0  0
 11  3  1  1  0  0  0
 13  9  1  0  0  0  0
 14 16  1  0  0  0  0
 14 15  1  0  0  0  0
 16 15  1  0  0  0  0
 17 18  1  0  0  0  0
 18 21  1  6  0  0  0
 18 11  1  0  0  0  0
 19 24  2  0  0  0  0
 19 23  1  0  0  0  0
 20 22  2  0  0  0  0
 21 22  1  0  0  0  0
 23 21  2  0  0  0  0
 24 20  1  0  0  0  0
 25 26  1  1  0  0  0
 25 23  1  0  0  0  0
 25 27  1  0  0  0  0
 27 17  1  0  0  0  0
 28 29  1  0  0  0  0
 29 25  1  0  0  0  0
 30 33  1  0  0  0  0
 30 32  1  0  0  0  0
 31 30  2  0  0  0  0
 32 29  1  1  0  0  0
 33 34  1  1  0  0  0
 33 32  1  0  0  0  0
 35 34  1  0  0  0  0
 36 35  2  0  0  0  0
 37 35  1  0  0  0  0
 38 39  1  0  0  0  0
 40 43  2  0  0  0  0
 40 46  1  0  0  0  0
 41 39  1  0  0  0  0
 42 44  2  0  0  0  0
 42 40  1  0  0  0  0
 43 47  1  0  0  0  0
 44 45  1  0  0  0  0
 45 46  1  0  0  0  0
 46 48  2  0  0  0  0
 47 41  2  0  0  0  0
 48 41  1  0  0  0  0
M  END
>  <MODEL>
7

>  <REMARK>
 VINA RESULT:      -3.4      3.026      7.675
  Name = 
  11 active torsions:
  status: ('A' for Active; 'I' for Inactive)
    1  A    between atoms: C_3  and  C_6
    2  A    between atoms: C_4  and  C_12
    3  A    between atoms: C_5  and  C_10
    4  A    between atoms: S_8  and  N_37
    5  A    between atoms: S_8  and  C_43
    6  A    between atoms: C_10  and  C_33
    7  A    between atoms: C_12  and  C_42
    8  A    between atoms: C_18  and  C_33
    9  A    between atoms: C_29  and  C_35
   10  A    between atoms: C_30  and  N_37
   11  A    between atoms: C_35  and  C_41
                            x       y       z     vdW  Elec       q    Type
                         _______ _______ _______ _____ _____    ______ ____

>  <TORSDO>
F 11

$$$$
