=
 OpenBabel11072414153D

 34 36  0  0  1  0  0  0  0  0999 V2000
  160.9920  207.3010  152.2200 C   0  0  2  0  0  3  0  0  0  0  0  0
  161.2740  207.4420  153.6860 C   0  0  0  0  0  0  0  0  0  0  0  0
  161.5820  206.4190  154.3530 O   0  0  0  0  0  0  0  0  0  0  0  0
  161.2130  208.7230  154.3180 N   0  0  0  0  0  2  0  0  0  0  0  0
  159.6320  211.1400  156.1240 C   0  0  1  0  0  0  0  0  0  0  0  0
  159.1310  209.6900  156.1810 C   0  0  0  0  0  2  0  0  0  0  0  0
  160.3730  211.5100  157.2600 O   0  0  0  0  0  0  0  0  0  0  0  0
  161.0710  211.5050  156.0270 C   0  0  1  0  0  3  0  0  0  0  0  0
  162.0000  210.3190  155.9730 C   0  0  0  0  0  0  0  0  0  0  0  0
  161.4900  208.9260  155.7340 C   0  0  1  0  0  3  0  0  0  0  0  0
  163.1990  210.4990  156.1040 O   0  0  0  0  0  0  0  0  0  0  0  0
  160.2280  208.6940  156.5540 C   0  0  0  0  0  2  0  0  0  0  0  0
  158.7050  212.1530  155.7590 O   0  0  0  0  0  0  0  0  0  0  0  0
  156.7120  211.5450  154.5230 O   0  0  0  0  0  0  0  0  0  0  0  0
  157.3310  211.9120  155.7130 C   0  0  0  0  0  0  0  0  0  0  0  0
  156.6450  212.0280  156.7600 O   0  0  0  0  0  1  0  0  0  0  0  0
  162.0640  206.4940  151.4960 C   0  0  0  0  0  2  0  0  0  0  0  0
  160.8540  206.3860  148.7540 Cl  0  0  0  0  0  0  0  0  0  0  0  0
  161.5350  205.1550  151.0630 C   0  0  0  0  0  0  0  0  0  0  0  0
  160.9840  205.0070  149.8390 C   0  0  0  0  0  0  0  0  0  0  0  0
  161.6200  204.0540  151.9750 N   0  0  0  0  0  2  0  0  0  0  0  0
  160.6010  203.5600  152.5010 O   0  0  0  0  0  1  0  0  0  0  0  0
  160.4670  203.7620  149.3410 N   0  0  0  0  0  2  0  0  0  0  0  0
  161.2050  202.7350  148.6170 C   0  0  0  0  0  2  0  0  0  0  0  0
  161.3420  200.3820  148.3040 F   0  0  0  0  0  0  0  0  0  0  0  0
  161.4290  201.1920  150.4100 F   0  0  0  0  0  0  0  0  0  0  0  0
  159.4920  201.2380  149.2620 F   0  0  0  0  0  0  0  0  0  0  0  0
  160.8640  201.3570  149.1600 C   0  0  0  0  0  0  0  0  0  0  0  0
  160.7120  208.6410  151.5340 C   0  0  0  0  0  2  0  0  0  0  0  0
  162.7420  210.0900  151.5290 C   0  0  0  0  0  2  0  0  0  0  0  0
  160.7340  211.3600  150.9320 O   0  0  0  0  0  1  0  0  0  0  0  0
  161.8310  210.6360  150.4620 C   0  0  0  0  0  0  0  0  0  0  0  0
  162.4850  211.1200  149.3290 O   0  0  0  0  0  1  0  0  0  0  0  0
  161.8850  209.1380  150.6920 C   0  0  2  0  0  3  0  0  0  0  0  0
  1 17  1  6  0  0  0
  1  2  1  0  0  0  0
  2  4  1  0  0  0  0
  2  3  2  0  0  0  0
  5 13  1  6  0  0  0
  5  6  1  0  0  0  0
  5  7  1  0  0  0  0
  6 12  1  0  0  0  0
  8  9  1  1  0  0  0
  8  5  1  0  0  0  0
  8  7  1  0  0  0  0
  9 11  2  0  0  0  0
 10  4  1  6  0  0  0
 10  9  1  0  0  0  0
 10 12  1  0  0  0  0
 14 15  2  0  0  0  0
 15 13  1  0  0  0  0
 15 16  1  0  0  0  0
 18 20  1  0  0  0  0
 19 17  1  0  0  0  0
 19 21  1  0  0  0  0
 20 19  2  0  0  0  0
 21 22  1  0  0  0  0
 23 20  1  0  0  0  0
 24 28  1  0  0  0  0
 24 23  1  0  0  0  0
 25 28  1  0  0  0  0
 28 27  1  0  0  0  0
 28 26  1  0  0  0  0
 29  1  1  0  0  0  0
 32 34  1  0  0  0  0
 32 31  1  0  0  0  0
 32 30  1  0  0  0  0
 33 32  1  0  0  0  0
 34 30  1  0  0  0  0
 34 29  1  1  0  0  0
M  END
>  <MODEL>
1

>  <REMARK>
 VINA RESULT:      -6.5      0.000      0.000
  Name = 
  12 active torsions:
  status: ('A' for Active; 'I' for Inactive)
    1  A    between atoms: N_1  and  C_33
    2  A    between atoms: N_1  and  C_34
    3  A    between atoms: C_2  and  C_7
    4  A    between atoms: C_2  and  C_11
    5  A    between atoms: C_2  and  C_30
    6  A    between atoms: C_3  and  O_17
    7  A    between atoms: N_10  and  C_18
    8  A    between atoms: C_11  and  C_18
    9  A    between atoms: O_17  and  C_22
   10  A    between atoms: C_20  and  N_29
   11  A    between atoms: C_28  and  C_33
   12  A    between atoms: C_30  and  C_31
                            x       y       z     vdW  Elec       q    Type
                         _______ _______ _______ _____ _____    ______ ____

>  <TORSDO>
F 12

$$$$
=
 OpenBabel11072414153D

 34 36  0  0  1  0  0  0  0  0999 V2000
  162.2680  207.9100  151.1110 C   0  0  2  0  0  3  0  0  0  0  0  0
  162.2270  209.2540  151.7740 C   0  0  0  0  0  0  0  0  0  0  0  0
  162.8090  210.2270  151.2260 O   0  0  0  0  0  0  0  0  0  0  0  0
  161.5210  209.4350  153.0050 N   0  0  0  0  0  2  0  0  0  0  0  0
  160.3140  209.6920  156.1800 C   0  0  1  0  0  0  0  0  0  0  0  0
  161.8300  209.6500  155.9380 C   0  0  0  0  0  2  0  0  0  0  0  0
  159.8380  210.9860  156.4530 O   0  0  0  0  0  0  0  0  0  0  0  0
  159.3590  210.3760  155.2670 C   0  0  1  0  0  3  0  0  0  0  0  0
  160.0100  211.0140  154.0680 C   0  0  0  0  0  0  0  0  0  0  0  0
  161.4340  210.7190  153.6900 C   0  0  1  0  0  3  0  0  0  0  0  0
  159.3560  211.7730  153.3730 O   0  0  0  0  0  0  0  0  0  0  0  0
  162.3040  210.7060  154.9410 C   0  0  0  0  0  2  0  0  0  0  0  0
  159.7530  208.7360  157.0690 O   0  0  0  0  0  0  0  0  0  0  0  0
  161.1190  206.7440  157.2600 O   0  0  0  0  0  1  0  0  0  0  0  0
  159.9330  207.3640  156.8840 C   0  0  0  0  0  0  0  0  0  0  0  0
  159.0100  206.6800  156.3710 O   0  0  0  0  0  0  0  0  0  0  0  0
  161.1650  207.7410  150.0710 C   0  0  0  0  0  2  0  0  0  0  0  0
  161.0400  205.1370  148.5890 Cl  0  0  0  0  0  0  0  0  0  0  0  0
  161.7290  207.7500  148.6770 C   0  0  2  0  0  3  0  0  0  0  0  0
  161.7040  206.6270  147.9280 C   0  0  0  0  0  0  0  0  0  0  0  0
  162.2960  208.9630  148.1720 N   0  0  0  0  0  2  0  0  0  0  0  0
  161.8030  210.0790  148.4420 O   0  0  0  0  0  1  0  0  0  0  0  0
  162.2080  206.5510  146.5850 N   0  0  0  0  0  0  0  0  0  0  0  0
  162.1440  205.4030  145.6900 C   0  0  0  0  0  2  0  0  0  0  0  0
  160.1180  206.5430  145.1890 F   0  0  0  0  0  0  0  0  0  0  0  0
  161.3760  205.7850  143.4730 F   0  0  0  0  0  0  0  0  0  0  0  0
  160.2460  204.3340  144.7730 F   0  0  0  0  0  0  0  0  0  0  0  0
  160.9470  205.5230  144.7610 C   0  0  0  0  0  0  0  0  0  0  0  0
  162.3050  206.7510  152.1110 C   0  0  0  0  0  2  0  0  0  0  0  0
  161.0090  205.0600  153.4080 C   0  0  0  0  0  2  0  0  0  0  0  0
  162.4420  203.9960  151.7300 O   0  0  0  0  0  1  0  0  0  0  0  0
  161.1700  204.4950  152.0220 C   0  0  0  0  0  0  0  0  0  0  0  0
  160.0720  203.7750  151.5530 O   0  0  0  0  0  1  0  0  0  0  0  0
  160.9830  205.9900  152.1930 C   0  0  2  0  0  3  0  0  0  0  0  0
  1 17  1  1  0  0  0
  1  2  1  0  0  0  0
  1 29  1  0  0  0  0
  2  4  1  0  0  0  0
  3  2  2  0  0  0  0
  5  7  1  0  0  0  0
  5 13  1  1  0  0  0
  6  5  1  0  0  0  0
  8  9  1  6  0  0  0
  8  5  1  0  0  0  0
  8  7  1  0  0  0  0
 10  4  1  1  0  0  0
 10  9  1  0  0  0  0
 10 12  1  0  0  0  0
 11  9  2  0  0  0  0
 12  6  1  0  0  0  0
 15 13  1  0  0  0  0
 15 14  1  0  0  0  0
 16 15  2  0  0  0  0
 19 17  1  1  0  0  0
 20 18  1  0  0  0  0
 20 19  1  0  0  0  0
 21 22  1  0  0  0  0
 21 19  1  0  0  0  0
 23 20  2  0  0  0  0
 24 23  1  0  0  0  0
 26 28  1  0  0  0  0
 28 27  1  0  0  0  0
 28 25  1  0  0  0  0
 28 24  1  0  0  0  0
 31 32  1  0  0  0  0
 32 34  1  0  0  0  0
 32 30  1  0  0  0  0
 33 32  1  0  0  0  0
 34 29  1  1  0  0  0
 34 30  1  0  0  0  0
M  END
>  <MODEL>
2

>  <REMARK>
 VINA RESULT:      -6.5      3.029      4.828
  Name = 
  12 active torsions:
  status: ('A' for Active; 'I' for Inactive)
    1  A    between atoms: N_1  and  C_33
    2  A    between atoms: N_1  and  C_34
    3  A    between atoms: C_2  and  C_7
    4  A    between atoms: C_2  and  C_11
    5  A    between atoms: C_2  and  C_30
    6  A    between atoms: C_3  and  O_17
    7  A    between atoms: N_10  and  C_18
    8  A    between atoms: C_11  and  C_18
    9  A    between atoms: O_17  and  C_22
   10  A    between atoms: C_20  and  N_29
   11  A    between atoms: C_28  and  C_33
   12  A    between atoms: C_30  and  C_31
                            x       y       z     vdW  Elec       q    Type
                         _______ _______ _______ _____ _____    ______ ____

>  <TORSDO>
F 12

$$$$
=
 OpenBabel11072414153D

 34 36  0  0  1  0  0  0  0  0999 V2000
  161.2560  208.0230  152.6900 C   0  0  2  0  0  3  0  0  0  0  0  0
  161.4350  209.5120  152.7000 C   0  0  0  0  0  0  0  0  0  0  0  0
  162.5180  210.0030  152.2850 O   0  0  0  0  0  0  0  0  0  0  0  0
  160.3840  210.3660  153.1590 N   0  0  0  0  0  2  0  0  0  0  0  0
  157.7050  212.3520  153.8570 C   0  0  1  0  0  0  0  0  0  0  0  0
  158.7200  212.0170  154.9600 C   0  0  0  0  0  2  0  0  0  0  0  0
  157.8690  213.6470  153.3370 O   0  0  0  0  0  0  0  0  0  0  0  0
  158.0880  212.5760  152.4370 C   0  0  1  0  0  3  0  0  0  0  0  0
  159.5630  212.4280  152.1700 C   0  0  0  0  0  0  0  0  0  0  0  0
  160.4920  211.8200  153.1810 C   0  0  1  0  0  3  0  0  0  0  0  0
  160.0100  212.7930  151.0950 O   0  0  0  0  0  0  0  0  0  0  0  0
  160.1590  212.3500  154.5700 C   0  0  0  0  0  2  0  0  0  0  0  0
  156.3360  212.0590  154.0970 O   0  0  0  0  0  0  0  0  0  0  0  0
  155.6890  212.2210  156.4260 O   0  0  0  0  0  1  0  0  0  0  0  0
  155.9080  211.4600  155.2830 C   0  0  0  0  0  0  0  0  0  0  0  0
  155.7180  210.2170  155.3180 O   0  0  0  0  0  0  0  0  0  0  0  0
  160.7630  207.5060  151.3420 C   0  0  0  0  0  2  0  0  0  0  0  0
  160.1540  206.3480  148.6440 Cl  0  0  0  0  0  0  0  0  0  0  0  0
  161.1350  206.0620  151.1480 C   0  0  0  0  0  0  0  0  0  0  0  0
  160.9100  205.4590  149.9600 C   0  0  0  0  0  0  0  0  0  0  0  0
  161.7170  205.3470  152.2420 N   0  0  0  0  0  2  0  0  0  0  0  0
  161.0980  204.4370  152.8330 O   0  0  0  0  0  1  0  0  0  0  0  0
  161.2460  204.0890  149.6850 N   0  0  0  0  0  2  0  0  0  0  0  0
  161.4020  203.4730  148.3740 C   0  0  0  0  0  2  0  0  0  0  0  0
  159.6930  202.0340  149.1860 F   0  0  0  0  0  0  0  0  0  0  0  0
  160.4590  201.7120  147.0860 F   0  0  0  0  0  0  0  0  0  0  0  0
  161.7510  201.1840  148.8520 F   0  0  0  0  0  0  0  0  0  0  0  0
  160.8100  202.0730  148.3730 C   0  0  0  0  0  0  0  0  0  0  0  0
  160.4010  207.5150  153.8540 C   0  0  0  0  0  2  0  0  0  0  0  0
  160.2620  206.8590  156.2560 C   0  0  0  0  0  2  0  0  0  0  0  0
  159.3800  209.1160  155.8910 O   0  0  0  0  0  1  0  0  0  0  0  0
  160.4940  208.3470  156.2370 C   0  0  0  0  0  0  0  0  0  0  0  0
  161.3130  208.8230  157.2610 O   0  0  0  0  0  1  0  0  0  0  0  0
  161.1550  207.4830  155.1810 C   0  0  2  0  0  3  0  0  0  0  0  0
  1 17  1  6  0  0  0
  1  2  1  0  0  0  0
  1 29  1  0  0  0  0
  2  4  1  0  0  0  0
  3  2  2  0  0  0  0
  5 13  1  1  0  0  0
  5  6  1  0  0  0  0
  7  5  1  0  0  0  0
  8  9  1  1  0  0  0
  8  7  1  0  0  0  0
  8  5  1  0  0  0  0
  9 10  1  0  0  0  0
 10  4  1  1  0  0  0
 10 12  1  0  0  0  0
 11  9  2  0  0  0  0
 12  6  1  0  0  0  0
 13 15  1  0  0  0  0
 15 16  2  0  0  0  0
 15 14  1  0  0  0  0
 18 20  1  0  0  0  0
 19 17  1  0  0  0  0
 19 21  1  0  0  0  0
 20 19  2  0  0  0  0
 21 22  1  0  0  0  0
 23 20  1  0  0  0  0
 24 23  1  0  0  0  0
 26 28  1  0  0  0  0
 28 24  1  0  0  0  0
 28 27  1  0  0  0  0
 28 25  1  0  0  0  0
 31 32  1  0  0  0  0
 32 30  1  0  0  0  0
 32 33  1  0  0  0  0
 34 29  1  6  0  0  0
 34 32  1  0  0  0  0
 34 30  1  0  0  0  0
M  END
>  <MODEL>
3

>  <REMARK>
 VINA RESULT:      -6.3      1.801      3.679
  Name = 
  12 active torsions:
  status: ('A' for Active; 'I' for Inactive)
    1  A    between atoms: N_1  and  C_33
    2  A    between atoms: N_1  and  C_34
    3  A    between atoms: C_2  and  C_7
    4  A    between atoms: C_2  and  C_11
    5  A    between atoms: C_2  and  C_30
    6  A    between atoms: C_3  and  O_17
    7  A    between atoms: N_10  and  C_18
    8  A    between atoms: C_11  and  C_18
    9  A    between atoms: O_17  and  C_22
   10  A    between atoms: C_20  and  N_29
   11  A    between atoms: C_28  and  C_33
   12  A    between atoms: C_30  and  C_31
                            x       y       z     vdW  Elec       q    Type
                         _______ _______ _______ _____ _____    ______ ____

>  <TORSDO>
F 12

$$$$
=
 OpenBabel11072414153D

 34 36  0  0  1  0  0  0  0  0999 V2000
  161.2590  206.7690  152.1270 C   0  0  2  0  0  3  0  0  0  0  0  0
  160.9970  206.7920  153.6040 C   0  0  0  0  0  0  0  0  0  0  0  0
  160.9270  205.7030  154.2320 O   0  0  0  0  0  0  0  0  0  0  0  0
  160.8460  208.0350  154.2940 N   0  0  0  0  0  2  0  0  0  0  0  0
  160.3650  211.0280  155.8480 C   0  0  1  0  0  0  0  0  0  0  0  0
  159.1570  210.1670  155.4520 C   0  0  0  0  0  2  0  0  0  0  0  0
  160.6630  210.9560  157.2200 O   0  0  0  0  0  0  0  0  0  0  0  0
  161.6500  210.4580  156.3350 C   0  0  1  0  0  3  0  0  0  0  0  0
  161.6700  208.9520  156.3890 C   0  0  0  0  0  0  0  0  0  0  0  0
  160.6050  208.1240  155.7290 C   0  0  1  0  0  3  0  0  0  0  0  0
  162.5870  208.3920  156.9650 O   0  0  0  0  0  0  0  0  0  0  0  0
  159.2370  208.7410  155.9930 C   0  0  0  0  0  2  0  0  0  0  0  0
  160.4140  212.3680  155.3770 O   0  0  0  0  0  0  0  0  0  0  0  0
  158.5180  213.5960  156.2520 O   0  0  0  0  0  1  0  0  0  0  0  0
  159.2560  213.1200  155.1740 C   0  0  0  0  0  0  0  0  0  0  0  0
  158.8760  213.3700  154.0020 O   0  0  0  0  0  0  0  0  0  0  0  0
  161.8440  205.4390  151.6610 C   0  0  0  0  0  2  0  0  0  0  0  0
  161.4080  202.4780  151.8450 Cl  0  0  0  0  0  0  0  0  0  0  0  0
  161.0030  204.8300  150.5730 C   0  0  0  0  0  0  0  0  0  0  0  0
  160.7410  203.5050  150.5810 C   0  0  0  0  0  0  0  0  0  0  0  0
  160.5000  205.6770  149.5360 N   0  0  0  0  0  2  0  0  0  0  0  0
  161.0520  205.7410  148.4170 O   0  0  0  0  0  1  0  0  0  0  0  0
  159.9380  202.8440  149.5900 N   0  0  0  0  0  2  0  0  0  0  0  0
  160.0200  201.4460  149.1870 C   0  0  0  0  0  2  0  0  0  0  0  0
  162.3170  200.8610  149.0050 F   0  0  0  0  0  0  0  0  0  0  0  0
  160.9170  200.2420  147.3450 F   0  0  0  0  0  0  0  0  0  0  0  0
  161.4820  202.4070  147.5960 F   0  0  0  0  0  0  0  0  0  0  0  0
  161.2090  201.2300  148.2650 C   0  0  0  0  0  0  0  0  0  0  0  0
  162.0850  207.9650  151.6470 C   0  0  0  0  0  2  0  0  0  0  0  0
  162.1290  210.2000  150.5410 C   0  0  0  0  0  2  0  0  0  0  0  0
  162.3990  210.3960  152.9680 O   0  0  0  0  0  1  0  0  0  0  0  0
  161.5050  210.4110  151.8950 C   0  0  0  0  0  0  0  0  0  0  0  0
  160.4790  211.3550  151.9250 O   0  0  0  0  0  1  0  0  0  0  0  0
  161.2250  209.1230  151.1460 C   0  0  2  0  0  3  0  0  0  0  0  0
  1 29  1  1  0  0  0
  1  2  1  0  0  0  0
  2  3  2  0  0  0  0
  2  4  1  0  0  0  0
  5 13  1  6  0  0  0
  5  8  1  0  0  0  0
  5  7  1  0  0  0  0
  6  5  1  0  0  0  0
  6 12  1  0  0  0  0
  8  9  1  1  0  0  0
  8  7  1  0  0  0  0
  9 11  2  0  0  0  0
 10  4  1  6  0  0  0
 10 12  1  0  0  0  0
 10  9  1  0  0  0  0
 15 13  1  0  0  0  0
 15 14  1  0  0  0  0
 16 15  2  0  0  0  0
 17  1  1  0  0  0  0
 19 20  2  0  0  0  0
 19 17  1  0  0  0  0
 20 18  1  0  0  0  0
 21 19  1  0  0  0  0
 22 21  1  0  0  0  0
 23 20  1  0  0  0  0
 24 23  1  0  0  0  0
 26 28  1  0  0  0  0
 27 28  1  0  0  0  0
 28 25  1  0  0  0  0
 28 24  1  0  0  0  0
 30 34  1  0  0  0  0
 30 32  1  0  0  0  0
 32 33  1  0  0  0  0
 32 31  1  0  0  0  0
 34 29  1  1  0  0  0
 34 32  1  0  0  0  0
M  END
>  <MODEL>
4

>  <REMARK>
 VINA RESULT:      -6.3      1.794      2.183
  Name = 
  12 active torsions:
  status: ('A' for Active; 'I' for Inactive)
    1  A    between atoms: N_1  and  C_33
    2  A    between atoms: N_1  and  C_34
    3  A    between atoms: C_2  and  C_7
    4  A    between atoms: C_2  and  C_11
    5  A    between atoms: C_2  and  C_30
    6  A    between atoms: C_3  and  O_17
    7  A    between atoms: N_10  and  C_18
    8  A    between atoms: C_11  and  C_18
    9  A    between atoms: O_17  and  C_22
   10  A    between atoms: C_20  and  N_29
   11  A    between atoms: C_28  and  C_33
   12  A    between atoms: C_30  and  C_31
                            x       y       z     vdW  Elec       q    Type
                         _______ _______ _______ _____ _____    ______ ____

>  <TORSDO>
F 12

$$$$
=
 OpenBabel11072414153D

 34 36  0  0  1  0  0  0  0  0999 V2000
  161.8620  207.0960  152.2930 C   0  0  2  0  0  3  0  0  0  0  0  0
  161.3610  207.1920  153.7030 C   0  0  0  0  0  0  0  0  0  0  0  0
  160.8220  206.1840  154.2330 O   0  0  0  0  0  0  0  0  0  0  0  0
  161.5080  208.4060  154.4450 N   0  0  0  0  0  2  0  0  0  0  0  0
  160.2850  211.3620  155.6150 C   0  0  1  0  0  0  0  0  0  0  0  0
  159.3180  210.2580  155.1620 C   0  0  0  0  0  2  0  0  0  0  0  0
  160.3950  211.4540  157.0130 O   0  0  0  0  0  0  0  0  0  0  0  0
  161.5700  211.0870  156.3120 C   0  0  1  0  0  3  0  0  0  0  0  0
  161.8510  209.6210  156.5210 C   0  0  0  0  0  0  0  0  0  0  0  0
  161.0550  208.5560  155.8220 C   0  0  1  0  0  3  0  0  0  0  0  0
  162.7630  209.2930  157.2610 O   0  0  0  0  0  0  0  0  0  0  0  0
  159.5760  208.9190  155.8510 C   0  0  0  0  0  2  0  0  0  0  0  0
  160.1590  212.6460  155.0200 O   0  0  0  0  0  0  0  0  0  0  0  0
  158.7210  213.1650  153.1410 O   0  0  0  0  0  0  0  0  0  0  0  0
  158.9440  213.1060  154.5120 C   0  0  0  0  0  0  0  0  0  0  0  0
  158.0380  213.4720  155.3050 O   0  0  0  0  0  1  0  0  0  0  0  0
  160.9440  207.8040  151.3010 C   0  0  0  0  0  2  0  0  0  0  0  0
  161.4660  207.8320  148.3480 Cl  0  0  0  0  0  0  0  0  0  0  0  0
  161.5900  209.0490  150.7600 C   0  0  0  0  0  0  0  0  0  0  0  0
  161.8510  209.1580  149.4390 C   0  0  0  0  0  0  0  0  0  0  0  0
  161.9260  210.1010  151.6700 N   0  0  0  0  0  2  0  0  0  0  0  0
  161.0570  210.8650  152.1380 O   0  0  0  0  0  1  0  0  0  0  0  0
  162.4520  210.3160  148.8370 N   0  0  0  0  0  2  0  0  0  0  0  0
  161.8320  211.6190  148.6330 C   0  0  0  0  0  2  0  0  0  0  0  0
  163.9530  211.9310  147.6070 F   0  0  0  0  0  0  0  0  0  0  0  0
  162.1060  212.5390  146.4590 F   0  0  0  0  0  0  0  0  0  0  0  0
  162.7810  213.7470  148.2360 F   0  0  0  0  0  0  0  0  0  0  0  0
  162.6860  212.4730  147.7120 C   0  0  0  0  0  0  0  0  0  0  0  0
  162.1780  205.6600  151.8670 C   0  0  0  0  0  2  0  0  0  0  0  0
  160.0920  204.4060  151.3200 C   0  0  0  0  0  2  0  0  0  0  0  0
  162.0100  202.8990  151.5500 O   0  0  0  0  0  1  0  0  0  0  0  0
  161.2220  203.6490  150.6740 C   0  0  0  0  0  0  0  0  0  0  0  0
  160.9130  203.0810  149.4390 O   0  0  0  0  0  1  0  0  0  0  0  0
  161.2860  205.1620  150.7320 C   0  0  2  0  0  3  0  0  0  0  0  0
  1 17  1  6  0  0  0
  1  2  1  0  0  0  0
  2  3  2  0  0  0  0
  2  4  1  0  0  0  0
  5 13  1  6  0  0  0
  5  8  1  0  0  0  0
  5  7  1  0  0  0  0
  6  5  1  0  0  0  0
  6 12  1  0  0  0  0
  8  9  1  1  0  0  0
  8  7  1  0  0  0  0
  9 11  2  0  0  0  0
 10  4  1  6  0  0  0
 10 12  1  0  0  0  0
 10  9  1  0  0  0  0
 14 15  2  0  0  0  0
 15 13  1  0  0  0  0
 15 16  1  0  0  0  0
 18 20  1  0  0  0  0
 19 17  1  0  0  0  0
 19 21  1  0  0  0  0
 20 19  2  0  0  0  0
 21 22  1  0  0  0  0
 23 20  1  0  0  0  0
 24 23  1  0  0  0  0
 25 28  1  0  0  0  0
 26 28  1  0  0  0  0
 28 27  1  0  0  0  0
 28 24  1  0  0  0  0
 29  1  1  0  0  0  0
 32 34  1  0  0  0  0
 32 30  1  0  0  0  0
 32 31  1  0  0  0  0
 33 32  1  0  0  0  0
 34 30  1  0  0  0  0
 34 29  1  1  0  0  0
M  END
>  <MODEL>
5

>  <REMARK>
 VINA RESULT:      -6.2      4.022      5.760
  Name = 
  12 active torsions:
  status: ('A' for Active; 'I' for Inactive)
    1  A    between atoms: N_1  and  C_33
    2  A    between atoms: N_1  and  C_34
    3  A    between atoms: C_2  and  C_7
    4  A    between atoms: C_2  and  C_11
    5  A    between atoms: C_2  and  C_30
    6  A    between atoms: C_3  and  O_17
    7  A    between atoms: N_10  and  C_18
    8  A    between atoms: C_11  and  C_18
    9  A    between atoms: O_17  and  C_22
   10  A    between atoms: C_20  and  N_29
   11  A    between atoms: C_28  and  C_33
   12  A    between atoms: C_30  and  C_31
                            x       y       z     vdW  Elec       q    Type
                         _______ _______ _______ _____ _____    ______ ____

>  <TORSDO>
F 12

$$$$
=
 OpenBabel11072414153D

 34 36  0  0  1  0  0  0  0  0999 V2000
  161.7640  206.4330  151.8030 C   0  0  2  0  0  3  0  0  0  0  0  0
  161.3180  206.9430  153.1410 C   0  0  0  0  0  0  0  0  0  0  0  0
  161.0440  206.1180  154.0520 O   0  0  0  0  0  0  0  0  0  0  0  0
  161.2230  208.3490  153.3860 N   0  0  0  0  0  2  0  0  0  0  0  0
  160.1070  211.5550  153.6690 C   0  0  1  0  0  0  0  0  0  0  0  0
  159.1010  210.4000  153.5720 C   0  0  0  0  0  2  0  0  0  0  0  0
  160.2560  212.0440  154.9780 O   0  0  0  0  0  0  0  0  0  0  0  0
  161.4030  211.4520  154.3940 C   0  0  1  0  0  3  0  0  0  0  0  0
  161.6510  210.1010  155.0140 C   0  0  0  0  0  0  0  0  0  0  0  0
  160.8090  208.9060  154.6680 C   0  0  1  0  0  3  0  0  0  0  0  0
  162.5730  209.9710  155.8020 O   0  0  0  0  0  0  0  0  0  0  0  0
  159.3410  209.3090  154.6150 C   0  0  0  0  0  2  0  0  0  0  0  0
  160.0000  212.6150  152.7300 O   0  0  0  0  0  0  0  0  0  0  0  0
  158.1750  214.0760  153.3630 O   0  0  0  0  0  1  0  0  0  0  0  0
  158.7780  213.2250  152.4440 C   0  0  0  0  0  0  0  0  0  0  0  0
  158.2150  213.0020  151.3420 O   0  0  0  0  0  0  0  0  0  0  0  0
  160.8130  206.8350  150.6810 C   0  0  0  0  0  2  0  0  0  0  0  0
  160.6720  204.8100  148.4730 Cl  0  0  0  0  0  0  0  0  0  0  0  0
  161.5690  207.1770  149.4260 C   0  0  2  0  0  3  0  0  0  0  0  0
  161.5520  206.3310  148.3740 C   0  0  0  0  0  0  0  0  0  0  0  0
  162.3060  208.4020  149.3800 N   0  0  0  0  0  2  0  0  0  0  0  0
  161.9740  209.3930  150.0630 O   0  0  0  0  0  1  0  0  0  0  0  0
  162.2340  206.5850  147.1350 N   0  0  0  0  0  0  0  0  0  0  0  0
  162.5170  205.6230  146.0780 C   0  0  0  0  0  2  0  0  0  0  0  0
  160.7920  204.2390  145.2050 F   0  0  0  0  0  0  0  0  0  0  0  0
  160.3690  206.4410  145.4750 F   0  0  0  0  0  0  0  0  0  0  0  0
  161.7580  205.7490  143.8430 F   0  0  0  0  0  0  0  0  0  0  0  0
  161.3310  205.5100  145.1340 C   0  0  0  0  0  0  0  0  0  0  0  0
  162.0570  204.9300  151.8040 C   0  0  0  0  0  2  0  0  0  0  0  0
  160.3790  203.1790  152.3870 C   0  0  0  0  0  2  0  0  0  0  0  0
  162.4890  202.1840  151.6360 O   0  0  0  0  0  1  0  0  0  0  0  0
  161.2110  202.6110  151.2670 C   0  0  0  0  0  0  0  0  0  0  0  0
  160.5050  201.8230  150.3590 O   0  0  0  0  0  1  0  0  0  0  0  0
  160.8950  204.0930  151.2740 C   0  0  2  0  0  3  0  0  0  0  0  0
  1 17  1  6  0  0  0
  1 29  1  0  0  0  0
  1  2  1  0  0  0  0
  2  4  1  0  0  0  0
  2  3  2  0  0  0  0
  5 13  1  6  0  0  0
  5  8  1  0  0  0  0
  5  7  1  0  0  0  0
  6  5  1  0  0  0  0
  6 12  1  0  0  0  0
  8  7  1  1  0  0  0
  8  9  1  0  0  0  0
  9 11  2  0  0  0  0
 10  4  1  6  0  0  0
 10  9  1  0  0  0  0
 12 10  1  0  0  0  0
 15 13  1  0  0  0  0
 15 14  1  0  0  0  0
 16 15  2  0  0  0  0
 19 17  1  1  0  0  0
 20 18  1  0  0  0  0
 20 19  1  0  0  0  0
 21 19  1  0  0  0  0
 21 22  1  0  0  0  0
 23 20  2  0  0  0  0
 24 23  1  0  0  0  0
 27 28  1  0  0  0  0
 28 25  1  0  0  0  0
 28 26  1  0  0  0  0
 28 24  1  0  0  0  0
 32 34  1  0  0  0  0
 32 31  1  0  0  0  0
 32 30  1  0  0  0  0
 33 32  1  0  0  0  0
 34 29  1  1  0  0  0
 34 30  1  0  0  0  0
M  END
>  <MODEL>
6

>  <REMARK>
 VINA RESULT:      -6.1      3.005      4.621
  Name = 
  12 active torsions:
  status: ('A' for Active; 'I' for Inactive)
    1  A    between atoms: N_1  and  C_33
    2  A    between atoms: N_1  and  C_34
    3  A    between atoms: C_2  and  C_7
    4  A    between atoms: C_2  and  C_11
    5  A    between atoms: C_2  and  C_30
    6  A    between atoms: C_3  and  O_17
    7  A    between atoms: N_10  and  C_18
    8  A    between atoms: C_11  and  C_18
    9  A    between atoms: O_17  and  C_22
   10  A    between atoms: C_20  and  N_29
   11  A    between atoms: C_28  and  C_33
   12  A    between atoms: C_30  and  C_31
                            x       y       z     vdW  Elec       q    Type
                         _______ _______ _______ _____ _____    ______ ____

>  <TORSDO>
F 12

$$$$
=
 OpenBabel11072414153D

 34 36  0  0  1  0  0  0  0  0999 V2000
  161.9830  208.1870  151.4680 C   0  0  2  0  0  3  0  0  0  0  0  0
  161.9580  209.6130  151.9310 C   0  0  0  0  0  0  0  0  0  0  0  0
  162.8430  210.4070  151.5180 O   0  0  0  0  0  0  0  0  0  0  0  0
  160.9340  210.0710  152.8180 N   0  0  0  0  0  2  0  0  0  0  0  0
  158.0810  211.3150  154.2020 C   0  0  1  0  0  0  0  0  0  0  0  0
  159.2180  210.8170  155.1070 C   0  0  0  0  0  2  0  0  0  0  0  0
  158.0270  212.7170  154.1110 O   0  0  0  0  0  0  0  0  0  0  0  0
  158.3120  212.0190  152.9120 C   0  0  1  0  0  3  0  0  0  0  0  0
  159.7670  212.1860  152.5590 C   0  0  0  0  0  0  0  0  0  0  0  0
  160.8490  211.4460  153.2920 C   0  0  1  0  0  3  0  0  0  0  0  0
  160.0720  212.9260  151.6380 O   0  0  0  0  0  0  0  0  0  0  0  0
  160.5630  211.4690  154.7890 C   0  0  0  0  0  2  0  0  0  0  0  0
  156.7870  210.7580  154.3870 O   0  0  0  0  0  0  0  0  0  0  0  0
  155.5470  212.6680  155.2120 O   0  0  0  0  0  0  0  0  0  0  0  0
  155.8650  211.3160  155.2730 C   0  0  0  0  0  0  0  0  0  0  0  0
  155.3130  210.5870  156.1360 O   0  0  0  0  0  1  0  0  0  0  0  0
  160.9400  207.9070  150.3910 C   0  0  0  0  0  2  0  0  0  0  0  0
  160.4430  205.3670  148.8770 Cl  0  0  0  0  0  0  0  0  0  0  0  0
  161.5760  207.8180  149.0310 C   0  0  0  0  0  0  0  0  0  0  0  0
  161.3960  206.7170  148.2700 C   0  0  0  0  0  0  0  0  0  0  0  0
  162.3760  208.9120  148.5720 N   0  0  0  0  0  2  0  0  0  0  0  0
  161.8910  210.0480  148.3940 O   0  0  0  0  0  1  0  0  0  0  0  0
  161.9560  206.5540  146.9570 N   0  0  0  0  0  2  0  0  0  0  0  0
  161.4910  205.6490  145.9140 C   0  0  0  0  0  2  0  0  0  0  0  0
  163.4450  204.4490  145.2830 F   0  0  0  0  0  0  0  0  0  0  0  0
  162.5130  204.0030  147.2910 F   0  0  0  0  0  0  0  0  0  0  0  0
  161.4880  203.3410  145.3990 F   0  0  0  0  0  0  0  0  0  0  0  0
  162.2540  204.3350  145.9750 C   0  0  0  0  0  0  0  0  0  0  0  0
  161.9080  207.1820  152.6210 C   0  0  0  0  0  2  0  0  0  0  0  0
  160.9460  205.0620  153.5190 C   0  0  0  0  0  2  0  0  0  0  0  0
  162.7820  204.6230  151.9570 O   0  0  0  0  0  1  0  0  0  0  0  0
  161.4010  204.7590  152.1160 C   0  0  0  0  0  0  0  0  0  0  0  0
  160.5810  203.8750  151.4150 O   0  0  0  0  0  1  0  0  0  0  0  0
  160.8230  206.1260  152.4250 C   0  0  2  0  0  3  0  0  0  0  0  0
  1 17  1  6  0  0  0
  1  2  1  0  0  0  0
  1 29  1  0  0  0  0
  2  4  1  0  0  0  0
  3  2  2  0  0  0  0
  5 13  1  1  0  0  0
  5  6  1  0  0  0  0
  7  5  1  0  0  0  0
  8  9  1  1  0  0  0
  8  7  1  0  0  0  0
  8  5  1  0  0  0  0
  9 10  1  0  0  0  0
 10  4  1  6  0  0  0
 10 12  1  0  0  0  0
 11  9  2  0  0  0  0
 12  6  1  0  0  0  0
 13 15  1  0  0  0  0
 14 15  2  0  0  0  0
 15 16  1  0  0  0  0
 19 17  1  0  0  0  0
 20 18  1  0  0  0  0
 20 19  2  0  0  0  0
 21 19  1  0  0  0  0
 22 21  1  0  0  0  0
 23 20  1  0  0  0  0
 24 28  1  0  0  0  0
 24 23  1  0  0  0  0
 25 28  1  0  0  0  0
 27 28  1  0  0  0  0
 28 26  1  0  0  0  0
 31 32  1  0  0  0  0
 32 34  1  0  0  0  0
 32 30  1  0  0  0  0
 33 32  1  0  0  0  0
 34 29  1  1  0  0  0
 34 30  1  0  0  0  0
M  END
>  <MODEL>
7

>  <REMARK>
 VINA RESULT:      -5.8      2.712      4.280
  Name = 
  12 active torsions:
  status: ('A' for Active; 'I' for Inactive)
    1  A    between atoms: N_1  and  C_33
    2  A    between atoms: N_1  and  C_34
    3  A    between atoms: C_2  and  C_7
    4  A    between atoms: C_2  and  C_11
    5  A    between atoms: C_2  and  C_30
    6  A    between atoms: C_3  and  O_17
    7  A    between atoms: N_10  and  C_18
    8  A    between atoms: C_11  and  C_18
    9  A    between atoms: O_17  and  C_22
   10  A    between atoms: C_20  and  N_29
   11  A    between atoms: C_28  and  C_33
   12  A    between atoms: C_30  and  C_31
                            x       y       z     vdW  Elec       q    Type
                         _______ _______ _______ _____ _____    ______ ____

>  <TORSDO>
F 12

$$$$
=
 OpenBabel11072414153D

 34 36  0  0  1  0  0  0  0  0999 V2000
  161.1080  206.5780  150.2020 C   0  0  2  0  0  3  0  0  0  0  0  0
  161.7700  206.8090  148.8750 C   0  0  0  0  0  0  0  0  0  0  0  0
  162.6830  207.6710  148.7870 O   0  0  0  0  0  0  0  0  0  0  0  0
  161.3820  206.0470  147.7290 N   0  0  0  0  0  2  0  0  0  0  0  0
  160.5420  204.0630  145.0900 C   0  0  1  0  0  0  0  0  0  0  0  0
  159.9040  205.4520  145.2380 C   0  0  0  0  0  2  0  0  0  0  0  0
  161.5600  204.0270  144.1220 O   0  0  0  0  0  0  0  0  0  0  0  0
  161.9530  203.7690  145.4570 C   0  0  1  0  0  3  0  0  0  0  0  0
  162.7030  204.9550  146.0060 C   0  0  0  0  0  0  0  0  0  0  0  0
  161.9960  206.2150  146.4180 C   0  0  1  0  0  3  0  0  0  0  0  0
  163.9130  204.8810  146.1400 O   0  0  0  0  0  0  0  0  0  0  0  0
  160.9350  206.5700  145.3830 C   0  0  0  0  0  2  0  0  0  0  0  0
  159.6790  202.9410  144.9760 O   0  0  0  0  0  0  0  0  0  0  0  0
  160.4820  201.4000  146.6640 O   0  0  0  0  0  1  0  0  0  0  0  0
  160.0810  201.6600  145.3580 C   0  0  0  0  0  0  0  0  0  0  0  0
  160.0810  200.7300  144.5120 O   0  0  0  0  0  0  0  0  0  0  0  0
  162.0660  206.7780  151.3720 C   0  0  0  0  0  2  0  0  0  0  0  0
  162.0740  209.7700  151.1830 Cl  0  0  0  0  0  0  0  0  0  0  0  0
  161.3960  207.5090  152.5020 C   0  0  0  0  0  0  0  0  0  0  0  0
  161.3380  208.8580  152.4960 C   0  0  0  0  0  0  0  0  0  0  0  0
  160.8340  206.7490  153.5770 N   0  0  0  0  0  2  0  0  0  0  0  0
  161.5150  205.9230  154.2200 O   0  0  0  0  0  1  0  0  0  0  0  0
  160.7060  209.6350  153.5260 N   0  0  0  0  0  2  0  0  0  0  0  0
  161.2450  210.8170  154.1860 C   0  0  0  0  0  2  0  0  0  0  0  0
  161.2980  211.1740  156.5360 F   0  0  0  0  0  0  0  0  0  0  0  0
  161.6890  209.0900  155.7580 F   0  0  0  0  0  0  0  0  0  0  0  0
  163.2270  210.7100  155.4720 F   0  0  0  0  0  0  0  0  0  0  0  0
  161.8740  210.4380  155.5170 C   0  0  0  0  0  0  0  0  0  0  0  0
  160.3710  205.2390  150.2780 C   0  0  0  0  0  2  0  0  0  0  0  0
  160.4720  202.7520  150.1100 C   0  0  0  0  0  2  0  0  0  0  0  0
  160.4050  203.4910  152.4450 O   0  0  0  0  0  1  0  0  0  0  0  0
  161.2130  203.1210  151.3670 C   0  0  0  0  0  0  0  0  0  0  0  0
  162.3290  202.3300  151.6400 O   0  0  0  0  0  1  0  0  0  0  0  0
  161.3040  204.0350  150.1620 C   0  0  2  0  0  3  0  0  0  0  0  0
  1 29  1  6  0  0  0
  1 17  1  0  0  0  0
  2  1  1  0  0  0  0
  3  2  2  0  0  0  0
  4  2  1  0  0  0  0
  5 13  1  1  0  0  0
  5  6  1  0  0  0  0
  5  8  1  0  0  0  0
  6 12  1  0  0  0  0
  7  5  1  0  0  0  0
  8  7  1  6  0  0  0
  8  9  1  0  0  0  0
  9 11  2  0  0  0  0
  9 10  1  0  0  0  0
 10  4  1  1  0  0  0
 12 10  1  0  0  0  0
 13 15  1  0  0  0  0
 15 14  1  0  0  0  0
 16 15  2  0  0  0  0
 17 19  1  0  0  0  0
 18 20  1  0  0  0  0
 19 21  1  0  0  0  0
 20 19  2  0  0  0  0
 20 23  1  0  0  0  0
 21 22  1  0  0  0  0
 23 24  1  0  0  0  0
 24 28  1  0  0  0  0
 27 28  1  0  0  0  0
 28 26  1  0  0  0  0
 28 25  1  0  0  0  0
 30 34  1  0  0  0  0
 30 32  1  0  0  0  0
 32 33  1  0  0  0  0
 32 31  1  0  0  0  0
 34 29  1  1  0  0  0
 34 32  1  0  0  0  0
M  END
>  <MODEL>
8

>  <REMARK>
 VINA RESULT:      -5.7      4.920      9.799
  Name = 
  12 active torsions:
  status: ('A' for Active; 'I' for Inactive)
    1  A    between atoms: N_1  and  C_33
    2  A    between atoms: N_1  and  C_34
    3  A    between atoms: C_2  and  C_7
    4  A    between atoms: C_2  and  C_11
    5  A    between atoms: C_2  and  C_30
    6  A    between atoms: C_3  and  O_17
    7  A    between atoms: N_10  and  C_18
    8  A    between atoms: C_11  and  C_18
    9  A    between atoms: O_17  and  C_22
   10  A    between atoms: C_20  and  N_29
   11  A    between atoms: C_28  and  C_33
   12  A    between atoms: C_30  and  C_31
                            x       y       z     vdW  Elec       q    Type
                         _______ _______ _______ _____ _____    ______ ____

>  <TORSDO>
F 12

$$$$
=
 OpenBabel11072414153D

 34 36  0  0  1  0  0  0  0  0999 V2000
  161.1750  206.6170  150.1860 C   0  0  2  0  0  3  0  0  0  0  0  0
  161.8120  206.8320  148.8460 C   0  0  0  0  0  0  0  0  0  0  0  0
  162.7150  207.7010  148.7280 O   0  0  0  0  0  0  0  0  0  0  0  0
  161.4130  206.0480  147.7190 N   0  0  0  0  0  2  0  0  0  0  0  0
  160.5340  204.0240  145.1220 C   0  0  1  0  0  0  0  0  0  0  0  0
  159.8940  205.4130  145.2630 C   0  0  0  0  0  2  0  0  0  0  0  0
  161.5350  203.9790  144.1370 O   0  0  0  0  0  0  0  0  0  0  0  0
  161.9520  203.7400  145.4690 C   0  0  1  0  0  3  0  0  0  0  0  0
  162.7070  204.9360  145.9880 C   0  0  0  0  0  0  0  0  0  0  0  0
  162.0030  206.1990  146.3950 C   0  0  1  0  0  3  0  0  0  0  0  0
  163.9200  204.8680  146.1010 O   0  0  0  0  0  0  0  0  0  0  0  0
  160.9230  206.5370  145.3740 C   0  0  0  0  0  2  0  0  0  0  0  0
  159.6730  202.8980  145.0390 O   0  0  0  0  0  0  0  0  0  0  0  0
  160.5570  201.3570  146.6860 O   0  0  0  0  0  1  0  0  0  0  0  0
  160.0970  201.6180  145.4000 C   0  0  0  0  0  0  0  0  0  0  0  0
  160.0640  200.6900  144.5520 O   0  0  0  0  0  0  0  0  0  0  0  0
  162.1510  206.8440  151.3370 C   0  0  0  0  0  2  0  0  0  0  0  0
  162.3270  209.8370  151.3750 Cl  0  0  0  0  0  0  0  0  0  0  0  0
  161.4750  207.5270  152.4930 C   0  0  0  0  0  0  0  0  0  0  0  0
  161.4890  208.8740  152.5870 C   0  0  0  0  0  0  0  0  0  0  0  0
  160.8300  206.7230  153.4860 N   0  0  0  0  0  2  0  0  0  0  0  0
  161.4010  205.7430  154.0080 O   0  0  0  0  0  1  0  0  0  0  0  0
  160.8580  209.6080  153.6490 N   0  0  0  0  0  2  0  0  0  0  0  0
  160.8430  211.0540  153.8250 C   0  0  0  0  0  2  0  0  0  0  0  0
  158.6750  211.9230  154.2720 F   0  0  0  0  0  0  0  0  0  0  0  0
  159.8520  212.8030  152.5570 F   0  0  0  0  0  0  0  0  0  0  0  0
  158.9930  210.7290  152.3900 F   0  0  0  0  0  0  0  0  0  0  0  0
  159.5650  211.6430  153.2510 C   0  0  0  0  0  0  0  0  0  0  0  0
  160.4510  205.2720  150.2960 C   0  0  0  0  0  2  0  0  0  0  0  0
  160.5670  202.7970  150.0080 C   0  0  0  0  0  2  0  0  0  0  0  0
  160.3570  203.4150  152.3690 O   0  0  0  0  0  1  0  0  0  0  0  0
  161.2300  203.1000  151.3260 C   0  0  0  0  0  0  0  0  0  0  0  0
  162.3280  202.2950  151.6250 O   0  0  0  0  0  1  0  0  0  0  0  0
  161.3920  204.0750  150.1760 C   0  0  2  0  0  3  0  0  0  0  0  0
  1 29  1  6  0  0  0
  1 17  1  0  0  0  0
  2  1  1  0  0  0  0
  3  2  2  0  0  0  0
  4  2  1  0  0  0  0
  5 13  1  1  0  0  0
  5  6  1  0  0  0  0
  5  8  1  0  0  0  0
  6 12  1  0  0  0  0
  7  5  1  0  0  0  0
  8  7  1  6  0  0  0
  8  9  1  0  0  0  0
  9 11  2  0  0  0  0
  9 10  1  0  0  0  0
 10  4  1  1  0  0  0
 12 10  1  0  0  0  0
 13 15  1  0  0  0  0
 15 14  1  0  0  0  0
 16 15  2  0  0  0  0
 17 19  1  0  0  0  0
 18 20  1  0  0  0  0
 19 20  2  0  0  0  0
 19 21  1  0  0  0  0
 20 23  1  0  0  0  0
 21 22  1  0  0  0  0
 23 24  1  0  0  0  0
 26 28  1  0  0  0  0
 27 28  1  0  0  0  0
 28 24  1  0  0  0  0
 28 25  1  0  0  0  0
 30 34  1  0  0  0  0
 30 32  1  0  0  0  0
 32 33  1  0  0  0  0
 32 31  1  0  0  0  0
 34 29  1  1  0  0  0
 34 32  1  0  0  0  0
M  END
>  <MODEL>
9

>  <REMARK>
 VINA RESULT:      -5.7      5.044      9.809
  Name = 
  12 active torsions:
  status: ('A' for Active; 'I' for Inactive)
    1  A    between atoms: N_1  and  C_33
    2  A    between atoms: N_1  and  C_34
    3  A    between atoms: C_2  and  C_7
    4  A    between atoms: C_2  and  C_11
    5  A    between atoms: C_2  and  C_30
    6  A    between atoms: C_3  and  O_17
    7  A    between atoms: N_10  and  C_18
    8  A    between atoms: C_11  and  C_18
    9  A    between atoms: O_17  and  C_22
   10  A    between atoms: C_20  and  N_29
   11  A    between atoms: C_28  and  C_33
   12  A    between atoms: C_30  and  C_31
                            x       y       z     vdW  Elec       q    Type
                         _______ _______ _______ _____ _____    ______ ____

>  <TORSDO>
F 12

$$$$
