=
 OpenBabel11072414433D

 60 67  0  0  1  0  0  0  0  0999 V2000
  160.1740  204.6620  144.4520 N   0  0  0  0  0  0  0  0  0  0  0  0
  161.3040  204.0870  144.9720 C   0  0  0  0  0  0  0  0  0  0  0  0
  161.4120  206.3400  141.6720 N   0  0  0  0  0  0  0  0  0  0  0  0
  160.2250  205.4950  143.4530 C   0  0  0  0  0  3  0  0  0  0  0  0
  161.5060  205.8020  142.8590 C   0  0  0  0  0  0  0  0  0  0  0  0
  162.7520  205.7290  143.6800 C   0  0  0  0  0  2  0  0  0  0  0  0
  162.6840  204.6510  144.8400 C   0  0  1  0  0  3  0  0  0  0  0  0
  161.1750  202.9900  145.6800 O   0  0  0  0  0  0  0  0  0  0  0  0
  163.2680  206.4040  140.2000 O   0  0  0  0  0  0  0  0  0  0  0  0
  162.2990  206.9810  140.7800 C   0  0  0  0  0  0  0  0  0  0  0  0
  163.3290  209.0990  139.9040 C   0  0  0  0  0  2  0  0  0  0  0  0
  160.2420  210.0360  139.8750 C   0  0  0  0  0  2  0  0  0  0  0  0
  161.9240  212.5110  139.6470 C   0  0  0  0  0  2  0  0  0  0  0  0
  160.8560  212.2140  140.6300 N   0  0  0  0  0  0  0  0  0  0  0  0
  163.0710  210.3590  139.0610 C   0  0  0  0  0  2  0  0  0  0  0  0
  163.1880  211.6670  139.8480 C   0  0  0  0  0  2  0  0  0  0  0  0
  162.1200  208.4650  140.6670 C   0  0  1  0  0  3  0  0  0  0  0  0
  160.7780  208.6250  139.9600 C   0  0  0  0  0  2  0  0  0  0  0  0
  160.6910  210.8240  141.0680 C   0  0  0  0  0  2  0  0  0  0  0  0
  159.6670  213.4340  142.4610 C   0  0  0  0  0  0  0  0  0  0  0  0
  161.8190  213.1760  143.5810 O   0  0  0  0  0  0  0  0  0  0  0  0
  159.8470  213.1010  141.0750 C   0  0  0  0  0  0  0  0  0  0  0  0
  157.5480  213.9260  140.7350 C   0  0  0  0  0  3  0  0  0  0  0  0
  157.4030  214.1320  142.0690 N   0  0  0  0  0  0  0  0  0  0  0  0
  158.7650  213.4700  140.2180 C   0  0  0  0  0  0  0  0  0  0  0  0
  158.5220  214.3370  144.3420 C   0  0  0  0  0  2  0  0  0  0  0  0
  159.9440  214.1460  144.6740 N   0  0  0  0  0  0  0  0  0  0  0  0
  160.5860  213.5280  143.5640 C   0  0  0  0  0  0  0  0  0  0  0  0
  158.9160  213.3780  138.8610 F   0  0  0  0  0  0  0  0  0  0  0  0
  158.4880  213.9100  142.9100 C   0  0  0  0  0  0  0  0  0  0  0  0
  160.4160  214.4530  146.0310 C   0  0  0  0  0  2  0  0  0  0  0  0
  160.5120  212.3390  147.2050 C   0  0  0  0  0  3  0  0  0  0  0  0
  162.6430  213.4430  146.8350 C   0  0  0  0  0  3  0  0  0  0  0  0
  161.2480  211.2260  147.8640 C   0  0  0  0  0  2  0  0  0  0  0  0
  163.2280  212.6970  147.7110 N   0  0  0  0  0  0  0  0  0  0  0  0
  162.4820  211.7750  148.5860 C   0  0  0  0  0  2  0  0  0  0  0  0
  161.1910  213.3650  146.6650 C   0  0  0  0  0  0  0  0  0  0  0  0
  163.0230  205.1570  146.1180 O   0  0  0  0  0  0  0  0  0  0  0  0
  161.0800  206.7510  147.3300 C   0  0  0  0  0  1  0  0  0  0  0  0
  162.2410  203.5430  147.5960 O   0  0  0  0  0  0  0  0  0  0  0  0
  162.4530  204.7800  147.3360 C   0  0  0  0  0  0  0  0  0  0  0  0
  161.7320  205.7510  148.1350 N   0  0  0  0  0  0  0  0  0  0  0  0
  161.8550  204.7930  150.6720 C   0  0  2  0  0  3  0  0  0  0  0  0
  162.3040  205.6680  151.9380 C   0  0  0  0  0  2  0  0  0  0  0  0
  161.3300  206.8490  152.3830 C   0  0  2  0  0  0  0  0  0  0  0  0
  161.0860  207.1150  150.0170 N   0  0  0  0  0  2  0  0  0  0  0  0
  160.6710  206.4170  153.6780 C   0  0  0  0  0  2  0  0  0  0  0  0
  160.9390  207.4790  154.7460 C   0  0  0  0  0  2  0  0  0  0  0  0
  161.2900  208.7520  154.0510 C   0  0  1  0  0  3  0  0  0  0  0  0
  161.4310  205.7410  149.5330 C   0  0  1  0  0  3  0  0  0  0  0  0
  160.3470  206.9990  151.2770 C   0  0  0  0  0  2  0  0  0  0  0  0
  161.8410  208.2870  152.7120 C   0  0  2  0  0  3  0  0  0  0  0  0
  162.8110  210.6580  152.1100 C   0  0  0  0  0  2  0  0  0  0  0  0
  162.2590  209.3350  151.6590 C   0  0  2  0  0  3  0  0  0  0  0  0
  161.4550  210.5200  151.7340 O   0  0  0  0  0  0  0  0  0  0  0  0
  160.5980  203.5080  152.3720 O   0  0  0  0  0  1  0  0  0  0  0  0
  160.6830  202.6870  150.2490 O   0  0  0  0  0  1  0  0  0  0  0  0
  160.6610  203.8650  151.0310 C   0  0  0  0  0  3  0  0  0  0  0  0
  159.4080  209.6660  155.3620 O   0  0  0  0  0  1  0  0  0  0  0  0
  160.0070  209.6020  154.1130 C   0  0  0  0  0  2  0  0  0  0  0  0
  1  2  1  0  0  0  0
  2  8  2  0  0  0  0
  3  5  2  0  0  0  0
  4  1  2  0  0  0  0
  5  4  1  0  0  0  0
  5  6  1  0  0  0  0
  6  7  1  0  0  0  0
  7  2  1  0  0  0  0
  7 38  1  1  0  0  0
  9 10  2  0  0  0  0
 10  3  1  0  0  0  0
 11 17  1  0  0  0  0
 12 18  1  0  0  0  0
 12 19  1  0  0  0  0
 13 16  1  0  0  0  0
 13 14  1  0  0  0  0
 14 19  1  0  0  0  0
 14 22  1  0  0  0  0
 15 16  1  0  0  0  0
 15 11  1  0  0  0  0
 17 10  1  6  0  0  0
 18 17  1  0  0  0  0
 20 30  1  0  0  0  0
 20 28  1  0  0  0  0
 22 20  2  0  0  0  0
 23 24  1  0  0  0  0
 24 30  2  0  0  0  0
 25 23  2  0  0  0  0
 25 22  1  0  0  0  0
 26 27  1  0  0  0  0
 27 31  1  0  0  0  0
 28 21  2  0  0  0  0
 28 27  1  0  0  0  0
 29 25  1  0  0  0  0
 30 26  1  0  0  0  0
 31 37  1  0  0  0  0
 32 34  1  0  0  0  0
 33 35  2  0  0  0  0
 34 36  1  0  0  0  0
 35 36  1  0  0  0  0
 37 33  1  0  0  0  0
 37 32  2  0  0  0  0
 38 41  1  0  0  0  0
 39 42  1  0  0  0  0
 41 40  2  0  0  0  0
 41 42  1  0  0  0  0
 43 58  1  1  0  0  0
 43 44  1  0  0  0  0
 44 45  1  0  0  0  0
 45 51  1  6  0  0  0
 45 52  1  0  0  0  0
 45 47  1  0  0  0  0
 46 51  1  0  0  0  0
 47 48  1  0  0  0  0
 49 60  1  6  0  0  0
 49 48  1  0  0  0  0
 50 42  1  6  0  0  0
 50 46  1  0  0  0  0
 50 43  1  0  0  0  0
 52 54  1  6  0  0  0
 52 49  1  0  0  0  0
 54 55  1  0  0  0  0
 54 53  1  1  0  0  0
 55 53  1  0  0  0  0
 57 58  1  0  0  0  0
 58 56  1  0  0  0  0
 60 59  1  0  0  0  0
M  END
>  <MODEL>
1

>  <REMARK>
 VINA RESULT:      -2.5      0.000      0.000
  Name = 
  11 active torsions:
  status: ('A' for Active; 'I' for Inactive)
    1  A    between atoms: C_3  and  C_35
    2  A    between atoms: C_11  and  C_54
    3  A    between atoms: C_12  and  N_39
    4  A    between atoms: C_12  and  C_49
    5  A    between atoms: O_19  and  C_33
    6  A    between atoms: O_19  and  C_58
    7  A    between atoms: C_21  and  C_28
    8  A    between atoms: C_22  and  N_38
    9  A    between atoms: C_34  and  N_56
   10  A    between atoms: N_36  and  C_59
   11  A    between atoms: C_45  and  C_59
                            x       y       z     vdW  Elec       q    Type
                         _______ _______ _______ _____ _____    ______ ____

>  <TORSDO>
F 11

$$$$
=
 OpenBabel11072414433D

 60 67  0  0  1  0  0  0  0  0999 V2000
  161.3610  203.7340  145.9560 N   0  0  0  0  0  0  0  0  0  0  0  0
  160.8100  204.3320  144.8530 C   0  0  0  0  0  0  0  0  0  0  0  0
  161.4770  206.3550  148.2350 N   0  0  0  0  0  0  0  0  0  0  0  0
  161.6940  204.4170  147.0130 C   0  0  0  0  0  3  0  0  0  0  0  0
  161.4520  205.8420  147.0340 C   0  0  0  0  0  0  0  0  0  0  0  0
  161.4440  206.6220  145.7600 C   0  0  0  0  0  2  0  0  0  0  0  0
  160.9610  205.7810  144.5060 C   0  0  1  0  0  3  0  0  0  0  0  0
  160.1440  203.5840  144.0060 O   0  0  0  0  0  0  0  0  0  0  0  0
  161.8020  208.7000  148.1160 O   0  0  0  0  0  0  0  0  0  0  0  0
  161.5010  207.6590  148.7770 C   0  0  0  0  0  0  0  0  0  0  0  0
  161.4330  206.3130  150.8970 C   0  0  0  0  0  2  0  0  0  0  0  0
  162.2300  209.1630  152.1800 C   0  0  0  0  0  2  0  0  0  0  0  0
  161.2690  207.4180  154.4240 C   0  0  0  0  0  2  0  0  0  0  0  0
  160.7960  208.7690  154.0450 N   0  0  0  0  0  0  0  0  0  0  0  0
  161.9690  206.2180  152.3360 C   0  0  0  0  0  2  0  0  0  0  0  0
  160.8850  206.3330  153.4110 C   0  0  0  0  0  2  0  0  0  0  0  0
  161.2910  207.7330  150.2580 C   0  0  1  0  0  3  0  0  0  0  0  0
  162.3320  208.7420  150.7320 C   0  0  0  0  0  2  0  0  0  0  0  0
  160.7990  209.1260  152.6230 C   0  0  0  0  0  2  0  0  0  0  0  0
  159.9260  211.0750  154.4710 C   0  0  0  0  0  0  0  0  0  0  0  0
  158.6650  210.6180  152.4330 O   0  0  0  0  0  0  0  0  0  0  0  0
  160.4970  209.8370  154.9250 C   0  0  0  0  0  0  0  0  0  0  0  0
  161.1600  211.0640  156.9590 C   0  0  0  0  0  3  0  0  0  0  0  0
  160.6860  212.2240  156.4380 N   0  0  0  0  0  0  0  0  0  0  0  0
  161.0260  209.8640  156.2510 C   0  0  0  0  0  0  0  0  0  0  0  0
  159.2710  213.3560  154.6550 C   0  0  0  0  0  2  0  0  0  0  0  0
  158.5720  212.7310  153.5200 N   0  0  0  0  0  0  0  0  0  0  0  0
  159.0440  211.3960  153.3810 C   0  0  0  0  0  0  0  0  0  0  0  0
  161.4120  208.6950  156.8500 F   0  0  0  0  0  0  0  0  0  0  0  0
  160.0440  212.2010  155.2050 C   0  0  0  0  0  0  0  0  0  0  0  0
  157.6840  213.5480  152.6820 C   0  0  0  0  0  2  0  0  0  0  0  0
  157.4530  213.5940  150.2730 C   0  0  0  0  0  3  0  0  0  0  0  0
  159.6090  214.2910  151.1420 C   0  0  0  0  0  3  0  0  0  0  0  0
  157.9590  213.8730  148.9020 C   0  0  0  0  0  2  0  0  0  0  0  0
  160.1620  214.1720  149.9820 N   0  0  0  0  0  0  0  0  0  0  0  0
  159.4600  213.5740  148.8320 C   0  0  0  0  0  2  0  0  0  0  0  0
  158.2270  213.8520  151.3400 C   0  0  0  0  0  0  0  0  0  0  0  0
  161.8470  205.8280  143.4040 O   0  0  0  0  0  0  0  0  0  0  0  0
  163.7310  207.1940  141.8630 C   0  0  0  0  0  1  0  0  0  0  0  0
  160.7850  205.5290  141.3580 O   0  0  0  0  0  0  0  0  0  0  0  0
  161.5370  206.2470  142.1070 C   0  0  0  0  0  0  0  0  0  0  0  0
  162.3530  207.2490  141.4500 N   0  0  0  0  0  0  0  0  0  0  0  0
  160.9600  208.0250  139.2520 C   0  0  2  0  0  3  0  0  0  0  0  0
  160.2500  209.4540  139.1020 C   0  0  0  0  0  2  0  0  0  0  0  0
  161.2040  210.7280  139.0040 C   0  0  2  0  0  0  0  0  0  0  0  0
  162.4640  209.5170  140.6380 N   0  0  0  0  0  2  0  0  0  0  0  0
  161.1400  211.2210  137.5720 C   0  0  0  0  0  2  0  0  0  0  0  0
  160.7160  212.6910  137.5740 C   0  0  0  0  0  2  0  0  0  0  0  0
  161.0020  213.2500  138.9280 C   0  0  1  0  0  3  0  0  0  0  0  0
  162.0330  208.1130  140.3550 C   0  0  1  0  0  3  0  0  0  0  0  0
  162.5610  210.2440  139.3700 C   0  0  0  0  0  2  0  0  0  0  0  0
  160.9630  212.0280  139.8330 C   0  0  2  0  0  3  0  0  0  0  0  0
  160.2430  211.8370  142.3570 C   0  0  0  0  0  2  0  0  0  0  0  0
  161.2860  212.1870  141.3340 C   0  0  2  0  0  3  0  0  0  0  0  0
  160.4580  213.1770  141.9590 O   0  0  0  0  0  0  0  0  0  0  0  0
  160.7730  206.9960  137.0110 O   0  0  0  0  0  1  0  0  0  0  0  0
  162.7190  206.7190  138.1610 O   0  0  0  0  0  1  0  0  0  0  0  0
  161.6360  207.5940  137.9200 C   0  0  0  0  0  3  0  0  0  0  0  0
  162.9070  214.4500  139.9400 O   0  0  0  0  0  1  0  0  0  0  0  0
  162.3050  214.0520  138.7560 C   0  0  0  0  0  2  0  0  0  0  0  0
  1  4  2  0  0  0  0
  2  1  1  0  0  0  0
  3 10  1  0  0  0  0
  4  5  1  0  0  0  0
  5  3  2  0  0  0  0
  6  5  1  0  0  0  0
  7 38  1  6  0  0  0
  7  2  1  0  0  0  0
  7  6  1  0  0  0  0
  8  2  2  0  0  0  0
  9 10  2  0  0  0  0
 11 15  1  0  0  0  0
 12 19  1  0  0  0  0
 14 13  1  0  0  0  0
 14 22  1  0  0  0  0
 15 16  1  0  0  0  0
 16 13  1  0  0  0  0
 17 10  1  6  0  0  0
 17 18  1  0  0  0  0
 17 11  1  0  0  0  0
 18 12  1  0  0  0  0
 19 14  1  0  0  0  0
 20 22  2  0  0  0  0
 20 30  1  0  0  0  0
 21 28  2  0  0  0  0
 22 25  1  0  0  0  0
 24 23  1  0  0  0  0
 25 29  1  0  0  0  0
 25 23  2  0  0  0  0
 26 30  1  0  0  0  0
 27 26  1  0  0  0  0
 28 27  1  0  0  0  0
 28 20  1  0  0  0  0
 30 24  2  0  0  0  0
 31 27  1  0  0  0  0
 32 37  2  0  0  0  0
 33 37  1  0  0  0  0
 34 32  1  0  0  0  0
 35 33  2  0  0  0  0
 36 34  1  0  0  0  0
 36 35  1  0  0  0  0
 37 31  1  0  0  0  0
 40 41  2  0  0  0  0
 41 38  1  0  0  0  0
 42 39  1  0  0  0  0
 42 41  1  0  0  0  0
 43 58  1  6  0  0  0
 43 50  1  0  0  0  0
 44 43  1  0  0  0  0
 45 47  1  6  0  0  0
 45 44  1  0  0  0  0
 45 51  1  0  0  0  0
 45 52  1  0  0  0  0
 47 48  1  0  0  0  0
 48 49  1  0  0  0  0
 49 60  1  6  0  0  0
 49 52  1  0  0  0  0
 50 46  1  0  0  0  0
 50 42  1  1  0  0  0
 51 46  1  0  0  0  0
 52 54  1  1  0  0  0
 54 55  1  0  0  0  0
 54 53  1  1  0  0  0
 55 53  1  0  0  0  0
 56 58  1  0  0  0  0
 58 57  1  0  0  0  0
 60 59  1  0  0  0  0
M  END
>  <MODEL>
2

>  <REMARK>
 VINA RESULT:      -2.2      3.697     11.143
  Name = 
  11 active torsions:
  status: ('A' for Active; 'I' for Inactive)
    1  A    between atoms: C_3  and  C_35
    2  A    between atoms: C_11  and  C_54
    3  A    between atoms: C_12  and  N_39
    4  A    between atoms: C_12  and  C_49
    5  A    between atoms: O_19  and  C_33
    6  A    between atoms: O_19  and  C_58
    7  A    between atoms: C_21  and  C_28
    8  A    between atoms: C_22  and  N_38
    9  A    between atoms: C_34  and  N_56
   10  A    between atoms: N_36  and  C_59
   11  A    between atoms: C_45  and  C_59
                            x       y       z     vdW  Elec       q    Type
                         _______ _______ _______ _____ _____    ______ ____

>  <TORSDO>
F 11

$$$$
=
 OpenBabel11072414433D

 60 67  0  0  1  0  0  0  0  0999 V2000
  162.9290  210.3980  152.4000 N   0  0  0  0  0  0  0  0  0  0  0  0
  161.9830  210.1690  153.3650 C   0  0  0  0  0  0  0  0  0  0  0  0
  161.2540  212.5200  150.2160 N   0  0  0  0  0  0  0  0  0  0  0  0
  162.6540  211.0600  151.3130 C   0  0  0  0  0  3  0  0  0  0  0  0
  161.3220  211.5910  151.1310 C   0  0  0  0  0  0  0  0  0  0  0  0
  160.1510  210.9170  151.7690 C   0  0  0  0  0  2  0  0  0  0  0  0
  160.5050  210.1850  153.1300 C   0  0  1  0  0  3  0  0  0  0  0  0
  162.3890  209.8640  154.5750 O   0  0  0  0  0  0  0  0  0  0  0  0
  159.1010  213.4960  150.0570 O   0  0  0  0  0  0  0  0  0  0  0  0
  160.2180  213.1950  149.5360 C   0  0  0  0  0  0  0  0  0  0  0  0
  161.9410  213.8280  147.8210 C   0  0  0  0  0  2  0  0  0  0  0  0
  160.0170  212.0700  145.9200 C   0  0  0  0  0  2  0  0  0  0  0  0
  161.8020  213.6840  144.1270 C   0  0  0  0  0  2  0  0  0  0  0  0
  160.3230  213.6090  144.1220 N   0  0  0  0  0  0  0  0  0  0  0  0
  162.5940  213.4130  146.4910 C   0  0  0  0  0  2  0  0  0  0  0  0
  162.3700  214.4110  145.3530 C   0  0  0  0  0  2  0  0  0  0  0  0
  160.4550  213.4110  148.0720 C   0  0  1  0  0  3  0  0  0  0  0  0
  160.0580  212.0850  147.4300 C   0  0  0  0  0  2  0  0  0  0  0  0
  159.6390  213.4270  145.4070 C   0  0  0  0  0  2  0  0  0  0  0  0
  159.9780  213.1280  141.6930 C   0  0  0  0  0  0  0  0  0  0  0  0
  161.9440  211.7240  142.0300 O   0  0  0  0  0  0  0  0  0  0  0  0
  159.4860  213.5180  142.9850 C   0  0  0  0  0  0  0  0  0  0  0  0
  157.5390  214.4520  141.7930 C   0  0  0  0  0  3  0  0  0  0  0  0
  158.0980  214.1420  140.5960 N   0  0  0  0  0  0  0  0  0  0  0  0
  158.1820  214.1020  142.9860 C   0  0  0  0  0  0  0  0  0  0  0  0
  159.8800  212.8450  139.3310 C   0  0  0  0  0  2  0  0  0  0  0  0
  160.9580  212.0080  139.8850 N   0  0  0  0  0  0  0  0  0  0  0  0
  161.0500  212.2610  141.2830 C   0  0  0  0  0  0  0  0  0  0  0  0
  157.5420  214.3270  144.1740 F   0  0  0  0  0  0  0  0  0  0  0  0
  159.3040  213.4510  140.5700 C   0  0  0  0  0  0  0  0  0  0  0  0
  161.8020  211.2230  138.9750 C   0  0  0  0  0  2  0  0  0  0  0  0
  162.3720  209.1020  139.9940 C   0  0  0  0  0  3  0  0  0  0  0  0
  160.7680  209.0060  138.1750 C   0  0  0  0  0  3  0  0  0  0  0  0
  162.2350  207.6280  140.1410 C   0  0  0  0  0  2  0  0  0  0  0  0
  160.9290  207.7320  138.0460 N   0  0  0  0  0  0  0  0  0  0  0  0
  161.9760  206.9920  138.7720 C   0  0  0  0  0  2  0  0  0  0  0  0
  161.6240  209.7590  139.0930 C   0  0  0  0  0  0  0  0  0  0  0  0
  160.0860  208.8340  153.1830 O   0  0  0  0  0  0  0  0  0  0  0  0
  160.5620  208.5090  150.4520 C   0  0  0  0  0  1  0  0  0  0  0  0
  161.7670  207.2420  153.3930 O   0  0  0  0  0  0  0  0  0  0  0  0
  160.7960  207.7270  152.7110 C   0  0  0  0  0  0  0  0  0  0  0  0
  160.7350  207.3650  151.3090 N   0  0  0  0  0  0  0  0  0  0  0  0
  160.3740  204.7160  150.8380 C   0  0  2  0  0  3  0  0  0  0  0  0
  160.1060  204.0940  149.3850 C   0  0  0  0  0  2  0  0  0  0  0  0
  161.3050  204.1630  148.3380 C   0  0  2  0  0  0  0  0  0  0  0  0
  161.6330  206.3140  149.3320 N   0  0  0  0  0  2  0  0  0  0  0  0
  161.8380  202.7520  148.1780 C   0  0  0  0  0  2  0  0  0  0  0  0
  161.7900  202.3710  146.6980 C   0  0  0  0  0  2  0  0  0  0  0  0
  161.7300  203.6300  145.9000 C   0  0  1  0  0  3  0  0  0  0  0  0
  161.0070  206.1110  150.6760 C   0  0  1  0  0  3  0  0  0  0  0  0
  162.3130  205.0780  148.9370 C   0  0  0  0  0  2  0  0  0  0  0  0
  161.1110  204.6320  146.8610 C   0  0  2  0  0  3  0  0  0  0  0  0
  159.7780  206.4860  145.5540 C   0  0  0  0  0  2  0  0  0  0  0  0
  160.9440  206.1020  146.4200 C   0  0  2  0  0  3  0  0  0  0  0  0
  161.0570  206.2510  144.9990 O   0  0  0  0  0  0  0  0  0  0  0  0
  160.8950  203.5420  152.9520 O   0  0  0  0  0  1  0  0  0  0  0  0
  162.6260  204.3840  151.7350 O   0  0  0  0  0  1  0  0  0  0  0  0
  161.3340  203.8140  151.6630 C   0  0  0  0  0  3  0  0  0  0  0  0
  164.1110  204.0990  146.3570 O   0  0  0  0  0  1  0  0  0  0  0  0
  163.1650  203.8340  145.3780 C   0  0  0  0  0  2  0  0  0  0  0  0
  1  2  1  0  0  0  0
  2  8  2  0  0  0  0
  3  5  2  0  0  0  0
  4  1  2  0  0  0  0
  5  4  1  0  0  0  0
  5  6  1  0  0  0  0
  6  7  1  0  0  0  0
  7 38  1  6  0  0  0
  7  2  1  0  0  0  0
 10  9  2  0  0  0  0
 10  3  1  0  0  0  0
 11 17  1  0  0  0  0
 12 18  1  0  0  0  0
 13 16  1  0  0  0  0
 14 13  1  0  0  0  0
 14 19  1  0  0  0  0
 15 11  1  0  0  0  0
 16 15  1  0  0  0  0
 17 10  1  1  0  0  0
 18 17  1  0  0  0  0
 19 12  1  0  0  0  0
 20 22  1  0  0  0  0
 22 25  2  0  0  0  0
 22 14  1  0  0  0  0
 23 25  1  0  0  0  0
 24 23  2  0  0  0  0
 25 29  1  0  0  0  0
 26 27  1  0  0  0  0
 26 30  1  0  0  0  0
 27 28  1  0  0  0  0
 28 20  1  0  0  0  0
 28 21  2  0  0  0  0
 30 24  1  0  0  0  0
 30 20  2  0  0  0  0
 31 37  1  0  0  0  0
 31 27  1  0  0  0  0
 32 34  1  0  0  0  0
 33 37  1  0  0  0  0
 35 33  2  0  0  0  0
 35 36  1  0  0  0  0
 36 34  1  0  0  0  0
 37 32  2  0  0  0  0
 39 42  1  0  0  0  0
 41 38  1  0  0  0  0
 41 40  2  0  0  0  0
 42 41  1  0  0  0  0
 43 58  1  1  0  0  0
 44 43  1  0  0  0  0
 45 47  1  6  0  0  0
 45 51  1  0  0  0  0
 45 44  1  0  0  0  0
 46 50  1  0  0  0  0
 48 47  1  0  0  0  0
 49 60  1  1  0  0  0
 49 48  1  0  0  0  0
 49 52  1  0  0  0  0
 50 43  1  0  0  0  0
 50 42  1  6  0  0  0
 51 46  1  0  0  0  0
 52 54  1  1  0  0  0
 52 45  1  0  0  0  0
 54 53  1  6  0  0  0
 55 53  1  0  0  0  0
 55 54  1  0  0  0  0
 58 57  1  0  0  0  0
 58 56  1  0  0  0  0
 60 59  1  0  0  0  0
M  END
>  <MODEL>
3

>  <REMARK>
 VINA RESULT:      -2.0      2.067      7.390
  Name = 
  11 active torsions:
  status: ('A' for Active; 'I' for Inactive)
    1  A    between atoms: C_3  and  C_35
    2  A    between atoms: C_11  and  C_54
    3  A    between atoms: C_12  and  N_39
    4  A    between atoms: C_12  and  C_49
    5  A    between atoms: O_19  and  C_33
    6  A    between atoms: O_19  and  C_58
    7  A    between atoms: C_21  and  C_28
    8  A    between atoms: C_22  and  N_38
    9  A    between atoms: C_34  and  N_56
   10  A    between atoms: N_36  and  C_59
   11  A    between atoms: C_45  and  C_59
                            x       y       z     vdW  Elec       q    Type
                         _______ _______ _______ _____ _____    ______ ____

>  <TORSDO>
F 11

$$$$
=
 OpenBabel11072414433D

 60 67  0  0  1  0  0  0  0  0999 V2000
  159.6150  211.3900  144.8550 N   0  0  0  0  0  0  0  0  0  0  0  0
  158.5620  212.2570  144.7260 C   0  0  0  0  0  0  0  0  0  0  0  0
  161.2660  212.6470  147.6430 N   0  0  0  0  0  0  0  0  0  0  0  0
  160.5640  211.5870  145.7250 C   0  0  0  0  0  3  0  0  0  0  0  0
  160.4910  212.7380  146.5960 C   0  0  0  0  0  0  0  0  0  0  0  0
  159.7820  213.9750  146.1490 C   0  0  0  0  0  2  0  0  0  0  0  0
  158.5840  213.6930  145.1500 C   0  0  1  0  0  3  0  0  0  0  0  0
  157.4680  211.8260  144.1450 O   0  0  0  0  0  0  0  0  0  0  0  0
  162.5630  214.4480  148.4750 O   0  0  0  0  0  0  0  0  0  0  0  0
  161.7070  213.5290  148.6540 C   0  0  0  0  0  0  0  0  0  0  0  0
  160.0430  214.1850  150.4190 C   0  0  0  0  0  2  0  0  0  0  0  0
  160.4260  211.0960  151.2660 C   0  0  0  0  0  2  0  0  0  0  0  0
  159.1160  212.4940  153.5750 C   0  0  0  0  0  2  0  0  0  0  0  0
  160.3540  211.6810  153.5780 N   0  0  0  0  0  0  0  0  0  0  0  0
  158.9470  213.6600  151.3610 C   0  0  0  0  0  2  0  0  0  0  0  0
  159.2700  213.8350  152.8470 C   0  0  0  0  0  2  0  0  0  0  0  0
  161.2060  213.2150  150.0310 C   0  0  1  0  0  3  0  0  0  0  0  0
  160.8000  211.7460  149.9540 C   0  0  0  0  0  2  0  0  0  0  0  0
  161.2050  211.7200  152.3840 C   0  0  0  0  0  2  0  0  0  0  0  0
  160.6050  209.3060  154.3210 C   0  0  0  0  0  0  0  0  0  0  0  0
  160.7320  208.9140  151.9160 O   0  0  0  0  0  0  0  0  0  0  0  0
  160.7310  210.7200  154.5460 C   0  0  0  0  0  0  0  0  0  0  0  0
  160.8630  210.1710  156.9470 C   0  0  0  0  0  3  0  0  0  0  0  0
  160.6480  208.8590  156.6790 N   0  0  0  0  0  0  0  0  0  0  0  0
  160.9640  211.0990  155.9030 C   0  0  0  0  0  0  0  0  0  0  0  0
  160.5680  207.0080  154.9390 C   0  0  0  0  0  2  0  0  0  0  0  0
  160.7430  207.1250  153.4810 N   0  0  0  0  0  0  0  0  0  0  0  0
  160.6770  208.5030  153.1300 C   0  0  0  0  0  0  0  0  0  0  0  0
  161.2920  212.3940  156.1970 F   0  0  0  0  0  0  0  0  0  0  0  0
  160.5530  208.4430  155.3560 C   0  0  0  0  0  0  0  0  0  0  0  0
  160.8030  205.9070  152.6620 C   0  0  0  0  0  2  0  0  0  0  0  0
  162.4700  206.8670  151.1920 C   0  0  0  0  0  3  0  0  0  0  0  0
  160.6810  205.6380  150.1050 C   0  0  0  0  0  3  0  0  0  0  0  0
  163.0650  207.1110  149.8500 C   0  0  0  0  0  2  0  0  0  0  0  0
  160.9690  206.1530  148.9570 N   0  0  0  0  0  0  0  0  0  0  0  0
  161.9530  207.2400  148.8050 C   0  0  0  0  0  2  0  0  0  0  0  0
  161.3640  206.1130  151.3090 C   0  0  0  0  0  0  0  0  0  0  0  0
  158.6380  214.4520  143.9560 O   0  0  0  0  0  0  0  0  0  0  0  0
  157.0050  214.4530  141.6930 C   0  0  0  0  0  1  0  0  0  0  0  0
  160.3480  214.2600  142.3940 O   0  0  0  0  0  0  0  0  0  0  0  0
  159.1320  214.0220  142.7220 C   0  0  0  0  0  0  0  0  0  0  0  0
  158.2190  213.6800  141.6500 N   0  0  0  0  0  0  0  0  0  0  0  0
  158.4050  213.1770  138.9880 C   0  0  2  0  0  3  0  0  0  0  0  0
  159.6800  212.5000  138.2920 C   0  0  0  0  0  2  0  0  0  0  0  0
  159.9720  210.9740  138.6480 C   0  0  2  0  0  0  0  0  0  0  0  0
  159.2840  211.6780  140.8290 N   0  0  0  0  0  2  0  0  0  0  0  0
  159.6260  210.1570  137.4180 C   0  0  0  0  0  2  0  0  0  0  0  0
  160.8490  209.3350  137.0110 C   0  0  0  0  0  2  0  0  0  0  0  0
  161.7460  209.2250  138.1980 C   0  0  1  0  0  3  0  0  0  0  0  0
  158.4300  212.8610  140.4970 C   0  0  1  0  0  3  0  0  0  0  0  0
  159.0900  210.6520  139.8010 C   0  0  0  0  0  2  0  0  0  0  0  0
  161.3940  210.4520  139.0250 C   0  0  2  0  0  3  0  0  0  0  0  0
  162.7480  211.9720  140.6930 C   0  0  0  0  0  2  0  0  0  0  0  0
  162.0740  210.6630  140.3950 C   0  0  2  0  0  3  0  0  0  0  0  0
  163.4900  210.8460  140.2680 O   0  0  0  0  0  0  0  0  0  0  0  0
  156.9410  212.8740  137.0180 O   0  0  0  0  0  1  0  0  0  0  0  0
  155.9580  213.1640  139.0510 O   0  0  0  0  0  1  0  0  0  0  0  0
  157.0820  212.6340  138.3780 C   0  0  0  0  0  3  0  0  0  0  0  0
  161.9990  206.7790  137.9800 O   0  0  0  0  0  1  0  0  0  0  0  0
  161.4920  207.8110  138.7540 C   0  0  0  0  0  2  0  0  0  0  0  0
  1  4  2  0  0  0  0
  2  1  1  0  0  0  0
  2  7  1  0  0  0  0
  3 10  1  0  0  0  0
  4  5  1  0  0  0  0
  5  3  2  0  0  0  0
  6  5  1  0  0  0  0
  7 38  1  6  0  0  0
  7  6  1  0  0  0  0
  8  2  2  0  0  0  0
  9 10  2  0  0  0  0
 11 15  1  0  0  0  0
 12 19  1  0  0  0  0
 13 14  1  0  0  0  0
 14 22  1  0  0  0  0
 15 16  1  0  0  0  0
 16 13  1  0  0  0  0
 17 10  1  6  0  0  0
 17 11  1  0  0  0  0
 18 17  1  0  0  0  0
 18 12  1  0  0  0  0
 19 14  1  0  0  0  0
 20 22  2  0  0  0  0
 20 30  1  0  0  0  0
 21 28  2  0  0  0  0
 22 25  1  0  0  0  0
 24 23  1  0  0  0  0
 25 29  1  0  0  0  0
 25 23  2  0  0  0  0
 26 30  1  0  0  0  0
 27 26  1  0  0  0  0
 28 27  1  0  0  0  0
 28 20  1  0  0  0  0
 30 24  2  0  0  0  0
 31 27  1  0  0  0  0
 32 37  2  0  0  0  0
 33 37  1  0  0  0  0
 34 32  1  0  0  0  0
 35 33  2  0  0  0  0
 36 35  1  0  0  0  0
 36 34  1  0  0  0  0
 37 31  1  0  0  0  0
 40 41  2  0  0  0  0
 41 38  1  0  0  0  0
 42 39  1  0  0  0  0
 42 41  1  0  0  0  0
 43 58  1  6  0  0  0
 43 50  1  0  0  0  0
 44 45  1  0  0  0  0
 44 43  1  0  0  0  0
 45 47  1  6  0  0  0
 45 52  1  0  0  0  0
 45 51  1  0  0  0  0
 48 47  1  0  0  0  0
 48 49  1  0  0  0  0
 49 60  1  1  0  0  0
 49 52  1  0  0  0  0
 50 46  1  0  0  0  0
 50 42  1  1  0  0  0
 51 46  1  0  0  0  0
 52 54  1  1  0  0  0
 54 53  1  6  0  0  0
 55 54  1  0  0  0  0
 55 53  1  0  0  0  0
 56 58  1  0  0  0  0
 58 57  1  0  0  0  0
 59 60  1  0  0  0  0
M  END
>  <MODEL>
4

>  <REMARK>
 VINA RESULT:      -0.8      3.819     12.407
  Name = 
  11 active torsions:
  status: ('A' for Active; 'I' for Inactive)
    1  A    between atoms: C_3  and  C_35
    2  A    between atoms: C_11  and  C_54
    3  A    between atoms: C_12  and  N_39
    4  A    between atoms: C_12  and  C_49
    5  A    between atoms: O_19  and  C_33
    6  A    between atoms: O_19  and  C_58
    7  A    between atoms: C_21  and  C_28
    8  A    between atoms: C_22  and  N_38
    9  A    between atoms: C_34  and  N_56
   10  A    between atoms: N_36  and  C_59
   11  A    between atoms: C_45  and  C_59
                            x       y       z     vdW  Elec       q    Type
                         _______ _______ _______ _____ _____    ______ ____

>  <TORSDO>
F 11

$$$$
=
 OpenBabel11072414433D

 60 67  0  0  1  0  0  0  0  0999 V2000
  161.4270  206.4540  148.1890 N   0  0  0  0  0  0  0  0  0  0  0  0
  162.4380  206.5060  149.1130 C   0  0  0  0  0  0  0  0  0  0  0  0
  161.0700  209.7940  147.2990 N   0  0  0  0  0  0  0  0  0  0  0  0
  160.8960  207.5340  147.6910 C   0  0  0  0  0  3  0  0  0  0  0  0
  161.4050  208.8220  148.1040 C   0  0  0  0  0  0  0  0  0  0  0  0
  162.0170  208.9900  149.4560 C   0  0  0  0  0  2  0  0  0  0  0  0
  162.7210  207.6780  150.0010 C   0  0  1  0  0  3  0  0  0  0  0  0
  163.1870  205.4410  149.2770 O   0  0  0  0  0  0  0  0  0  0  0  0
  161.7700  211.8670  148.2110 O   0  0  0  0  0  0  0  0  0  0  0  0
  161.1300  211.2050  147.3380 C   0  0  0  0  0  0  0  0  0  0  0  0
  159.2200  212.8180  147.0940 C   0  0  0  0  0  2  0  0  0  0  0  0
  160.6160  213.3130  144.2280 C   0  0  0  0  0  2  0  0  0  0  0  0
  157.8450  214.4530  144.0740 C   0  0  0  0  0  2  0  0  0  0  0  0
  158.4820  213.4670  143.1720 N   0  0  0  0  0  0  0  0  0  0  0  0
  158.7480  214.1000  146.3870 C   0  0  0  0  0  2  0  0  0  0  0  0
  157.5400  213.8940  145.4690 C   0  0  0  0  0  2  0  0  0  0  0  0
  160.2470  211.9040  146.3490 C   0  0  1  0  0  3  0  0  0  0  0  0
  161.2200  212.6570  145.4480 C   0  0  0  0  0  2  0  0  0  0  0  0
  159.4370  212.5180  143.7540 C   0  0  0  0  0  2  0  0  0  0  0  0
  159.5430  213.1480  140.9300 C   0  0  0  0  0  0  0  0  0  0  0  0
  161.0700  211.7490  142.2190 O   0  0  0  0  0  0  0  0  0  0  0  0
  158.4070  213.4430  141.7590 C   0  0  0  0  0  0  0  0  0  0  0  0
  157.3850  214.4310  139.7430 C   0  0  0  0  0  3  0  0  0  0  0  0
  158.5210  214.2100  139.0350 N   0  0  0  0  0  0  0  0  0  0  0  0
  157.2890  214.0090  141.0740 C   0  0  0  0  0  0  0  0  0  0  0  0
  160.7650  213.0240  138.8900 C   0  0  0  0  0  2  0  0  0  0  0  0
  161.4040  212.1650  139.9020 N   0  0  0  0  0  0  0  0  0  0  0  0
  160.7040  212.3230  141.1320 C   0  0  0  0  0  0  0  0  0  0  0  0
  156.0940  214.1450  141.7270 F   0  0  0  0  0  0  0  0  0  0  0  0
  159.5770  213.5380  139.6390 C   0  0  0  0  0  0  0  0  0  0  0  0
  162.6440  211.4540  139.5660 C   0  0  0  0  0  2  0  0  0  0  0  0
  162.4040  209.8050  137.8100 C   0  0  0  0  0  3  0  0  0  0  0  0
  162.1540  208.9800  140.0800 C   0  0  0  0  0  3  0  0  0  0  0  0
  162.1930  208.4150  137.3230 C   0  0  0  0  0  2  0  0  0  0  0  0
  161.6080  207.8860  139.6660 N   0  0  0  0  0  0  0  0  0  0  0  0
  161.2280  207.6790  138.2570 C   0  0  0  0  0  2  0  0  0  0  0  0
  162.4420  210.0550  139.1300 C   0  0  0  0  0  0  0  0  0  0  0  0
  162.3030  207.2950  151.2980 O   0  0  0  0  0  0  0  0  0  0  0  0
  162.6800  209.9530  152.0610 C   0  0  0  0  0  1  0  0  0  0  0  0
  160.1070  207.7000  151.9430 O   0  0  0  0  0  0  0  0  0  0  0  0
  161.3560  207.9490  152.0900 C   0  0  0  0  0  0  0  0  0  0  0  0
  161.7030  209.1760  152.7790 N   0  0  0  0  0  0  0  0  0  0  0  0
  161.6930  210.4360  155.1840 C   0  0  2  0  0  3  0  0  0  0  0  0
  160.9360  211.8210  155.4650 C   0  0  0  0  0  2  0  0  0  0  0  0
  159.3430  211.7960  155.4200 C   0  0  2  0  0  0  0  0  0  0  0  0
  159.7320  210.3070  153.5880 N   0  0  0  0  0  2  0  0  0  0  0  0
  158.8560  211.9380  156.8490 C   0  0  0  0  0  2  0  0  0  0  0  0
  157.9140  213.1390  156.9320 C   0  0  0  0  0  2  0  0  0  0  0  0
  157.4140  213.4280  155.5570 C   0  0  1  0  0  3  0  0  0  0  0  0
  161.0950  209.7860  153.9210 C   0  0  1  0  0  3  0  0  0  0  0  0
  158.9770  210.4800  154.8310 C   0  0  0  0  0  2  0  0  0  0  0  0
  158.5030  212.8670  154.6560 C   0  0  2  0  0  3  0  0  0  0  0  0
  159.2040  213.7990  152.2970 C   0  0  0  0  0  2  0  0  0  0  0  0
  158.3170  212.9120  153.1250 C   0  0  2  0  0  3  0  0  0  0  0  0
  157.9030  214.2080  152.6720 O   0  0  0  0  0  0  0  0  0  0  0  0
  162.6690  209.3310  157.1700 O   0  0  0  0  0  1  0  0  0  0  0  0
  161.1410  208.1750  155.9400 O   0  0  0  0  0  1  0  0  0  0  0  0
  161.5330  209.4590  156.3820 C   0  0  0  0  0  3  0  0  0  0  0  0
  155.7570  211.9400  154.4910 O   0  0  0  0  0  1  0  0  0  0  0  0
  155.9920  212.8370  155.5220 C   0  0  0  0  0  2  0  0  0  0  0  0
  1  2  1  0  0  0  0
  2  8  2  0  0  0  0
  2  7  1  0  0  0  0
  3 10  1  0  0  0  0
  3  5  2  0  0  0  0
  4  5  1  0  0  0  0
  4  1  2  0  0  0  0
  5  6  1  0  0  0  0
  6  7  1  0  0  0  0
  7 38  1  1  0  0  0
 10  9  2  0  0  0  0
 12 18  1  0  0  0  0
 13 16  1  0  0  0  0
 14 19  1  0  0  0  0
 14 13  1  0  0  0  0
 15 11  1  0  0  0  0
 16 15  1  0  0  0  0
 17 11  1  0  0  0  0
 17 10  1  1  0  0  0
 18 17  1  0  0  0  0
 19 12  1  0  0  0  0
 20 28  1  0  0  0  0
 20 22  1  0  0  0  0
 22 14  1  0  0  0  0
 23 25  1  0  0  0  0
 24 30  1  0  0  0  0
 24 23  2  0  0  0  0
 25 29  1  0  0  0  0
 25 22  2  0  0  0  0
 26 30  1  0  0  0  0
 26 27  1  0  0  0  0
 27 28  1  0  0  0  0
 28 21  2  0  0  0  0
 30 20  2  0  0  0  0
 31 27  1  0  0  0  0
 32 37  2  0  0  0  0
 34 32  1  0  0  0  0
 34 36  1  0  0  0  0
 35 33  2  0  0  0  0
 36 35  1  0  0  0  0
 37 31  1  0  0  0  0
 37 33  1  0  0  0  0
 38 41  1  0  0  0  0
 39 42  1  0  0  0  0
 40 41  2  0  0  0  0
 41 42  1  0  0  0  0
 43 44  1  0  0  0  0
 43 58  1  1  0  0  0
 45 51  1  6  0  0  0
 45 44  1  0  0  0  0
 45 47  1  0  0  0  0
 46 50  1  0  0  0  0
 46 51  1  0  0  0  0
 47 48  1  0  0  0  0
 49 60  1  6  0  0  0
 49 48  1  0  0  0  0
 50 42  1  6  0  0  0
 50 43  1  0  0  0  0
 52 54  1  6  0  0  0
 52 45  1  0  0  0  0
 52 49  1  0  0  0  0
 53 55  1  0  0  0  0
 54 53  1  6  0  0  0
 55 54  1  0  0  0  0
 57 58  1  0  0  0  0
 58 56  1  0  0  0  0
 59 60  1  0  0  0  0
M  END
>  <MODEL>
5

>  <REMARK>
 VINA RESULT:      -0.5      2.667      6.412
  Name = 
  11 active torsions:
  status: ('A' for Active; 'I' for Inactive)
    1  A    between atoms: C_3  and  C_35
    2  A    between atoms: C_11  and  C_54
    3  A    between atoms: C_12  and  N_39
    4  A    between atoms: C_12  and  C_49
    5  A    between atoms: O_19  and  C_33
    6  A    between atoms: O_19  and  C_58
    7  A    between atoms: C_21  and  C_28
    8  A    between atoms: C_22  and  N_38
    9  A    between atoms: C_34  and  N_56
   10  A    between atoms: N_36  and  C_59
   11  A    between atoms: C_45  and  C_59
                            x       y       z     vdW  Elec       q    Type
                         _______ _______ _______ _____ _____    ______ ____

>  <TORSDO>
F 11

$$$$
