=
 OpenBabel11072414193D

 56 61  0  0  1  0  0  0  0  0999 V2000
  162.7960  214.4370  147.6970 N   0  0  0  0  0  0  0  0  0  0  0  0
  161.3700  210.6280  148.3240 C   0  0  0  0  0  0  0  0  0  0  0  0
  161.6940  211.8720  148.0920 C   0  0  0  0  0  0  0  0  0  0  0  0
  162.4930  213.6370  146.5510 C   0  0  0  0  0  0  0  0  0  0  0  0
  162.9060  213.9940  145.4180 O   0  0  0  0  0  0  0  0  0  0  0  0
  161.0440  209.3830  148.5410 C   0  0  0  0  0  3  0  0  0  0  0  0
  161.6360  212.4110  146.6850 C   0  0  2  0  0  3  0  0  0  0  0  0
  162.4860  213.9840  149.0220 C   0  0  0  0  0  3  0  0  0  0  0  0
  161.9780  212.7670  149.2260 C   0  0  0  0  0  2  0  0  0  0  0  0
  160.2020  212.7770  146.3140 C   0  0  0  0  0  2  0  0  0  0  0  0
  159.8960  212.4280  144.8630 C   0  0  0  0  0  2  0  0  0  0  0  0
  160.0360  213.6440  143.9580 C   0  0  0  0  0  2  0  0  0  0  0  0
  160.2850  213.2260  142.5180 C   0  0  2  0  0  3  0  0  0  0  0  0
  159.1880  212.4950  142.0640 O   0  0  0  0  0  1  0  0  0  0  0  0
  161.5380  212.3640  142.4330 C   0  0  0  0  0  2  0  0  0  0  0  0
  162.1940  212.4650  141.0610 C   0  0  0  0  0  2  0  0  0  0  0  0
  161.5800  213.5690  140.2090 C   0  0  0  0  0  2  0  0  0  0  0  0
  160.9610  213.0100  138.9280 C   0  0  2  0  0  3  0  0  0  0  0  0
  161.2420  213.8780  137.7080 C   0  0  0  0  0  2  0  0  0  0  0  0
  162.9850  213.7430  137.2150 S   0  0  0  0  0  1  0  0  0  0  0  0
  159.5920  212.6930  139.0750 O   0  0  0  0  0  0  0  0  0  0  0  0
  157.1480  212.8370  137.5360 O   0  0  0  0  0  0  0  0  0  0  0  0
  159.6240  210.4880  137.9300 C   0  0  2  0  0  0  0  0  0  0  0  0
  157.5700  210.5000  137.0170 C   0  0  2  0  0  3  0  0  0  0  0  0
  158.6720  209.6540  137.2980 O   0  0  0  0  0  0  0  0  0  0  0  0
  161.0860  210.1610  137.7490 C   0  0  1  0  0  3  0  0  0  0  0  0
  160.3940  209.8910  139.0830 C   0  0  2  0  0  3  0  0  0  0  0  0
  157.9230  211.8460  137.5300 C   0  0  0  0  0  0  0  0  0  0  0  0
  159.2270  211.8780  138.0430 N   0  0  0  0  0  0  0  0  0  0  0  0
  161.4050  208.9010  138.5340 C   0  0  0  0  0  2  0  0  0  0  0  0
  155.1910  210.2260  137.1990 O   0  0  0  0  0  0  0  0  0  0  0  0
  156.3290  209.9860  137.6840 C   0  0  0  0  0  0  0  0  0  0  0  0
  156.4390  209.1910  138.8180 O   0  0  0  0  0  1  0  0  0  0  0  0
  161.9970  208.4470  149.1990 C   0  0  0  0  0  2  0  0  0  0  0  0
  162.7020  209.0430  151.5120 C   0  0  0  0  0  3  0  0  0  0  0  0
  162.8540  209.1770  150.1890 C   0  0  0  0  0  3  0  0  0  0  0  0
  161.6580  208.1590  152.1380 C   0  0  2  0  0  3  0  0  0  0  0  0
  161.6440  206.7630  151.4950 C   0  0  1  0  0  3  0  0  0  0  0  0
  162.9420  206.2710  151.3380 O   0  0  0  0  0  1  0  0  0  0  0  0
  160.7260  205.7410  152.1800 C   0  0  0  0  0  2  0  0  0  0  0  0
  161.2750  204.3210  152.1650 C   0  0  0  0  0  2  0  0  0  0  0  0
  160.6650  203.5270  151.0260 C   0  0  0  0  0  2  0  0  0  0  0  0
  161.6060  203.3690  150.0110 O   0  0  0  0  0  0  0  0  0  0  0  0
  161.2720  202.1570  149.4080 C   0  0  0  0  0  2  0  0  0  0  0  0
  159.7660  202.0050  149.3860 C   0  0  0  0  0  1  0  0  0  0  0  0
  160.2840  208.8280  152.1110 C   0  0  0  0  0  2  0  0  0  0  0  0
  161.1160  211.4440  151.7410 O   0  0  0  0  0  1  0  0  0  0  0  0
  158.4870  211.4410  154.0920 O   0  0  0  0  0  1  0  0  0  0  0  0
  160.6140  211.2680  153.0310 C   0  0  1  0  0  3  0  0  0  0  0  0
  159.1220  210.9560  152.9470 C   0  0  1  0  0  3  0  0  0  0  0  0
  160.1220  209.8340  153.2510 C   0  0  1  0  0  0  0  0  0  0  0  0
  161.3990  209.7160  155.3060 C   0  0  0  0  0  2  0  0  0  0  0  0
  160.1300  207.8190  154.7130 C   0  0  0  0  0  2  0  0  0  0  0  0
  160.1820  209.2810  154.6260 N   0  0  0  0  0  0  0  0  0  0  0  0
  161.8050  208.6050  156.2420 C   0  0  0  0  0  2  0  0  0  0  0  0
  161.2780  207.3580  155.5850 C   0  0  0  0  0  2  0  0  0  0  0  0
  1  8  2  0  0  0  0
  2  6  2  0  0  0  0
  3  2  2  0  0  0  0
  3  9  1  0  0  0  0
  4  7  1  0  0  0  0
  4  1  1  0  0  0  0
  5  4  2  0  0  0  0
  6 34  1  0  0  0  0
  7 10  1  1  0  0  0
  7  3  1  0  0  0  0
  8  9  1  0  0  0  0
 11 10  1  0  0  0  0
 12 11  1  0  0  0  0
 13 14  1  1  0  0  0
 13 12  1  0  0  0  0
 15 13  1  0  0  0  0
 16 15  1  0  0  0  0
 17 16  1  0  0  0  0
 18 19  1  6  0  0  0
 18 21  1  0  0  0  0
 18 17  1  0  0  0  0
 20 19  1  0  0  0  0
 23 25  1  6  0  0  0
 23 29  1  0  0  0  0
 23 27  1  0  0  0  0
 24 25  1  0  0  0  0
 24 28  1  0  0  0  0
 24 32  1  1  0  0  0
 26 23  1  0  0  0  0
 26 30  1  6  0  0  0
 26 27  1  0  0  0  0
 27 30  1  6  0  0  0
 28 22  2  0  0  0  0
 28 29  1  0  0  0  0
 29 21  1  0  0  0  0
 31 32  2  0  0  0  0
 32 33  1  0  0  0  0
 34 36  1  0  0  0  0
 36 35  2  0  0  0  0
 37 35  1  6  0  0  0
 38 39  1  1  0  0  0
 38 37  1  0  0  0  0
 38 40  1  0  0  0  0
 41 40  1  0  0  0  0
 42 41  1  0  0  0  0
 43 42  1  0  0  0  0
 44 43  1  0  0  0  0
 45 44  1  0  0  0  0
 46 37  1  0  0  0  0
 49 47  1  6  0  0  0
 49 51  1  0  0  0  0
 50 49  1  0  0  0  0
 50 51  1  0  0  0  0
 50 48  1  1  0  0  0
 51 46  1  6  0  0  0
 51 54  1  0  0  0  0
 52 55  1  0  0  0  0
 53 56  1  0  0  0  0
 54 53  1  0  0  0  0
 54 52  1  0  0  0  0
 56 55  1  0  0  0  0
M  END
>  <MODEL>
1

>  <REMARK>
 VINA RESULT:      -2.8      0.000      0.000
  Name = 
  24 active torsions:
  status: ('A' for Active; 'I' for Inactive)
    1  A    between atoms: C_6  and  C_16
    2  A    between atoms: C_6  and  C_34
    3  A    between atoms: C_7  and  C_36
    4  A    between atoms: C_7  and  C_49
    5  A    between atoms: C_8  and  C_9
    6  A    between atoms: C_8  and  C_45
    7  A    between atoms: C_9  and  C_27
    8  A    between atoms: C_10  and  C_14
    9  A    between atoms: C_10  and  O_15
   10  A    between atoms: C_10  and  C_37
   11  A    between atoms: O_11  and  C_19
   12  A    between atoms: O_11  and  C_28
   13  A    between atoms: O_15  and  N_38
   14  A    between atoms: C_16  and  C_53
   15  A    between atoms: C_20  and  C_26
   16  A    between atoms: C_22  and  C_39
   17  A    between atoms: C_22  and  C_50
   18  A    between atoms: C_27  and  C_44
   19  A    between atoms: C_27  and  C_48
   20  A    between atoms: C_28  and  C_45
   21  A    between atoms: C_34  and  C_50
   22  A    between atoms: C_37  and  C_53
   23  A    between atoms: C_44  and  C_47
   24  A    between atoms: C_47  and  N_52
                            x       y       z     vdW  Elec       q    Type
                         _______ _______ _______ _____ _____    ______ ____

>  <TORSDO>
F 24

$$$$
=
 OpenBabel11072414193D

 56 61  0  0  1  0  0  0  0  0999 V2000
  159.9300  204.2030  145.8650 N   0  0  0  0  0  2  0  0  0  0  0  0
  161.8750  206.0510  142.7460 C   0  0  0  0  0  0  0  0  0  0  0  0
  161.3610  205.5040  143.8150 C   0  0  0  0  0  0  0  0  0  0  0  0
  161.0730  203.5500  145.3070 C   0  0  0  0  0  0  0  0  0  0  0  0
  161.2980  202.3440  145.5840 O   0  0  0  0  0  0  0  0  0  0  0  0
  162.3980  206.5870  141.6770 C   0  0  0  0  0  3  0  0  0  0  0  0
  162.0380  204.3130  144.4450 C   0  0  2  0  0  3  0  0  0  0  0  0
  159.5500  205.5210  145.4480 C   0  0  0  0  0  3  0  0  0  0  0  0
  160.2080  206.1440  144.4690 C   0  0  0  0  0  3  0  0  0  0  0  0
  163.2130  204.7630  145.3100 C   0  0  0  0  0  2  0  0  0  0  0  0
  162.8640  206.0050  146.1190 C   0  0  0  0  0  2  0  0  0  0  0  0
  162.4460  205.6450  147.5380 C   0  0  0  0  0  2  0  0  0  0  0  0
  161.8500  206.8460  148.2520 C   0  0  2  0  0  3  0  0  0  0  0  0
  162.6900  207.9440  148.0670 O   0  0  0  0  0  1  0  0  0  0  0  0
  161.7160  206.5570  149.7410 C   0  0  0  0  0  2  0  0  0  0  0  0
  162.2310  207.7170  150.5850 C   0  0  0  0  0  2  0  0  0  0  0  0
  161.1250  208.3620  151.4120 C   0  0  0  0  0  2  0  0  0  0  0  0
  161.5530  208.5560  152.8670 C   0  0  2  0  0  3  0  0  0  0  0  0
  160.8280  207.6200  153.8260 C   0  0  0  0  0  2  0  0  0  0  0  0
  161.2680  205.8910  153.4870 S   0  0  0  0  0  1  0  0  0  0  0  0
  161.5080  209.9080  153.2750 O   0  0  0  0  0  0  0  0  0  0  0  0
  158.7670  210.8260  153.1990 O   0  0  0  0  0  0  0  0  0  0  0  0
  161.0690  210.2860  155.6910 C   0  0  2  0  0  0  0  0  0  0  0  0
  159.0690  211.3040  155.5630 C   0  0  2  0  0  3  0  0  0  0  0  0
  160.1370  211.0290  156.4540 O   0  0  0  0  0  0  0  0  0  0  0  0
  161.9300  209.2760  156.4100 C   0  0  1  0  0  3  0  0  0  0  0  0
  162.5300  210.5910  155.9170 C   0  0  2  0  0  3  0  0  0  0  0  0
  159.4370  210.7050  154.2570 C   0  0  0  0  0  0  0  0  0  0  0  0
  160.6500  210.0070  154.3320 N   0  0  0  0  0  0  0  0  0  0  0  0
  162.9460  210.0180  157.2600 C   0  0  0  0  0  2  0  0  0  0  0  0
  157.7340  213.2530  155.1280 O   0  0  0  0  0  0  0  0  0  0  0  0
  158.8640  212.7840  155.4300 C   0  0  0  0  0  0  0  0  0  0  0  0
  159.9170  213.6490  155.6980 O   0  0  0  0  0  1  0  0  0  0  0  0
  161.6050  206.7210  140.4220 C   0  0  0  0  0  2  0  0  0  0  0  0
  162.0660  208.8230  139.1700 C   0  0  0  0  0  3  0  0  0  0  0  0
  162.3520  207.5380  139.4120 C   0  0  0  0  0  3  0  0  0  0  0  0
  160.9680  209.5710  139.8750 C   0  0  2  0  0  3  0  0  0  0  0  0
  160.0440  210.2860  138.8770 C   0  0  1  0  0  3  0  0  0  0  0  0
  160.2470  209.8130  137.5790 O   0  0  0  0  0  1  0  0  0  0  0  0
  158.5560  210.2910  139.2560 C   0  0  0  0  0  2  0  0  0  0  0  0
  157.6440  209.7690  138.1550 C   0  0  0  0  0  2  0  0  0  0  0  0
  156.2530  209.5060  138.6970 C   0  0  0  0  0  2  0  0  0  0  0  0
  155.3380  210.3400  138.0570 O   0  0  0  0  0  0  0  0  0  0  0  0
  154.4340  210.7000  139.0550 C   0  0  0  0  0  2  0  0  0  0  0  0
  153.0530  210.1990  138.6890 C   0  0  0  0  0  1  0  0  0  0  0  0
  161.5380  210.5220  140.9270 C   0  0  0  0  0  2  0  0  0  0  0  0
  159.6650  212.3940  141.7400 O   0  0  0  0  0  1  0  0  0  0  0  0
  162.6690  214.0860  140.9960 O   0  0  0  0  0  1  0  0  0  0  0  0
  160.5710  212.9650  140.8450 C   0  0  1  0  0  3  0  0  0  0  0  0
  161.9560  212.9900  141.4870 C   0  0  1  0  0  3  0  0  0  0  0  0
  161.6340  211.9550  140.4030 C   0  0  1  0  0  0  0  0  0  0  0  0
  163.6790  212.2810  139.1460 C   0  0  0  0  0  2  0  0  0  0  0  0
  161.7130  213.2510  138.2780 C   0  0  0  0  0  2  0  0  0  0  0  0
  162.2310  212.1210  139.0540 N   0  0  0  0  0  0  0  0  0  0  0  0
  164.0970  213.1860  138.0120 C   0  0  0  0  0  2  0  0  0  0  0  0
  162.8910  214.0520  137.7670 C   0  0  0  0  0  2  0  0  0  0  0  0
  2  3  2  0  0  0  0
  3  7  1  0  0  0  0
  3  9  1  0  0  0  0
  4  5  2  0  0  0  0
  4  1  1  0  0  0  0
  6  2  2  0  0  0  0
  7  4  1  0  0  0  0
  7 10  1  1  0  0  0
  8  1  1  0  0  0  0
  9  8  2  0  0  0  0
 10 11  1  0  0  0  0
 11 12  1  0  0  0  0
 12 13  1  0  0  0  0
 13 14  1  1  0  0  0
 13 15  1  0  0  0  0
 15 16  1  0  0  0  0
 16 17  1  0  0  0  0
 18 17  1  6  0  0  0
 18 21  1  0  0  0  0
 18 19  1  0  0  0  0
 20 19  1  0  0  0  0
 21 29  1  0  0  0  0
 22 28  2  0  0  0  0
 23 27  1  0  0  0  0
 23 26  1  0  0  0  0
 23 25  1  1  0  0  0
 24 32  1  6  0  0  0
 24 25  1  0  0  0  0
 26 30  1  1  0  0  0
 27 26  1  0  0  0  0
 27 30  1  1  0  0  0
 28 29  1  0  0  0  0
 28 24  1  0  0  0  0
 29 23  1  0  0  0  0
 31 32  2  0  0  0  0
 32 33  1  0  0  0  0
 34  6  1  0  0  0  0
 35 36  2  0  0  0  0
 36 34  1  0  0  0  0
 37 35  1  6  0  0  0
 37 46  1  0  0  0  0
 38 39  1  6  0  0  0
 38 40  1  0  0  0  0
 38 37  1  0  0  0  0
 41 42  1  0  0  0  0
 41 40  1  0  0  0  0
 43 42  1  0  0  0  0
 43 44  1  0  0  0  0
 45 44  1  0  0  0  0
 49 50  1  0  0  0  0
 49 47  1  1  0  0  0
 50 48  1  6  0  0  0
 51 49  1  0  0  0  0
 51 46  1  1  0  0  0
 51 50  1  0  0  0  0
 53 54  1  0  0  0  0
 54 52  1  0  0  0  0
 54 51  1  0  0  0  0
 55 52  1  0  0  0  0
 56 55  1  0  0  0  0
 56 53  1  0  0  0  0
M  END
>  <MODEL>
2

>  <REMARK>
 VINA RESULT:      -2.5      3.928     14.016
  Name = 
  24 active torsions:
  status: ('A' for Active; 'I' for Inactive)
    1  A    between atoms: C_6  and  C_16
    2  A    between atoms: C_6  and  C_34
    3  A    between atoms: C_7  and  C_36
    4  A    between atoms: C_7  and  C_49
    5  A    between atoms: C_8  and  C_9
    6  A    between atoms: C_8  and  C_45
    7  A    between atoms: C_9  and  C_27
    8  A    between atoms: C_10  and  C_14
    9  A    between atoms: C_10  and  O_15
   10  A    between atoms: C_10  and  C_37
   11  A    between atoms: O_11  and  C_19
   12  A    between atoms: O_11  and  C_28
   13  A    between atoms: O_15  and  N_38
   14  A    between atoms: C_16  and  C_53
   15  A    between atoms: C_20  and  C_26
   16  A    between atoms: C_22  and  C_39
   17  A    between atoms: C_22  and  C_50
   18  A    between atoms: C_27  and  C_44
   19  A    between atoms: C_27  and  C_48
   20  A    between atoms: C_28  and  C_45
   21  A    between atoms: C_34  and  C_50
   22  A    between atoms: C_37  and  C_53
   23  A    between atoms: C_44  and  C_47
   24  A    between atoms: C_47  and  N_52
                            x       y       z     vdW  Elec       q    Type
                         _______ _______ _______ _____ _____    ______ ____

>  <TORSDO>
F 24

$$$$
=
 OpenBabel11072414193D

 56 62  0  0  1  0  0  0  0  0999 V2000
  162.2120  210.6050  155.6580 N   0  0  0  0  0  0  0  0  0  0  0  0
  160.6800  207.1560  154.0190 C   0  0  0  0  0  0  0  0  0  0  0  0
  161.0380  208.2850  154.5710 C   0  0  0  0  0  0  0  0  0  0  0  0
  161.5470  210.7010  154.3960 C   0  0  0  0  0  0  0  0  0  0  0  0
  161.6720  211.7440  153.7040 O   0  0  0  0  0  0  0  0  0  0  0  0
  160.3180  206.0360  153.4550 C   0  0  0  0  0  3  0  0  0  0  0  0
  160.6540  209.5900  153.9220 C   0  0  2  0  0  3  0  0  0  0  0  0
  162.2270  209.3780  156.3980 C   0  0  0  0  0  3  0  0  0  0  0  0
  161.6890  208.2670  155.8910 C   0  0  0  0  0  2  0  0  0  0  0  0
  159.2090  209.9490  154.2600 C   0  0  0  0  0  2  0  0  0  0  0  0
  158.7030  211.0930  153.3920 C   0  0  0  0  0  2  0  0  0  0  0  0
  158.3760  212.3230  154.2280 C   0  0  0  0  0  2  0  0  0  0  0  0
  158.0570  213.5150  153.3420 C   0  0  2  0  0  3  0  0  0  0  0  0
  156.8050  213.3210  152.7570 O   0  0  0  0  0  1  0  0  0  0  0  0
  159.1100  213.6530  152.2500 C   0  0  0  0  0  2  0  0  0  0  0  0
  158.5660  214.4030  151.0400 C   0  0  0  0  0  2  0  0  0  0  0  0
  159.4420  214.2180  149.8070 C   0  0  0  0  0  2  0  0  0  0  0  0
  158.6010  214.0280  148.5450 C   0  0  2  0  0  3  0  0  0  0  0  0
  157.1260  213.7980  148.8470 C   0  0  0  0  0  2  0  0  0  0  0  0
  156.0890  214.4470  147.5040 S   0  0  0  0  0  1  0  0  0  0  0  0
  159.1430  213.0610  147.6680 O   0  0  0  0  0  0  0  0  0  0  0  0
  158.5210  214.2290  145.0970 O   0  0  0  0  0  0  0  0  0  0  0  0
  161.4210  213.3570  146.7210 C   0  0  2  0  0  0  0  0  0  0  0  0
  160.8870  213.9480  144.6180 C   0  0  2  0  0  3  0  0  0  0  0  0
  161.9730  213.5320  145.4300 O   0  0  0  0  0  0  0  0  0  0  0  0
  162.3140  213.5970  147.9130 C   0  0  1  0  0  3  0  0  0  0  0  0
  161.9150  212.1760  147.5190 C   0  0  2  0  0  3  0  0  0  0  0  0
  159.6900  213.9870  145.4930 C   0  0  0  0  0  0  0  0  0  0  0  0
  160.0130  213.6870  146.8240 N   0  0  0  0  0  0  0  0  0  0  0  0
  163.3260  212.4680  147.9990 C   0  0  0  0  0  2  0  0  0  0  0  0
  161.0580  213.2880  142.3150 O   0  0  0  0  0  0  0  0  0  0  0  0
  160.6830  212.9910  143.4810 C   0  0  0  0  0  0  0  0  0  0  0  0
  160.1260  211.7430  143.7270 O   0  0  0  0  0  1  0  0  0  0  0  0
  161.3280  205.0070  153.0790 C   0  0  0  0  0  2  0  0  0  0  0  0
  160.7900  203.3320  151.3160 C   0  0  0  0  0  0  0  0  0  0  0  0
  160.6540  203.7670  152.5740 C   0  0  0  0  0  3  0  0  0  0  0  0
  161.6210  204.0430  150.2830 C   0  0  2  0  0  3  0  0  0  0  0  0
  161.1300  205.4830  150.0600 C   0  0  1  0  0  3  0  0  0  0  0  0
  162.1510  206.4030  150.3060 O   0  0  0  0  0  1  0  0  0  0  0  0
  160.4490  205.7350  148.7070 C   0  0  0  0  0  2  0  0  0  0  0  0
  160.8180  207.0710  148.0780 C   0  0  0  0  0  2  0  0  0  0  0  0
  161.5150  206.8570  146.7480 C   0  0  0  0  0  2  0  0  0  0  0  0
  160.8540  205.8610  146.0310 O   0  0  0  0  0  0  0  0  0  0  0  0
  161.8740  205.1410  145.4110 C   0  0  0  0  0  2  0  0  0  0  0  0
  161.7540  205.2890  143.9100 C   0  0  0  0  0  1  0  0  0  0  0  0
  161.6880  203.2410  148.9840 C   0  0  0  0  0  2  0  0  0  0  0  0
  162.2660  201.4290  150.9980 O   0  0  0  0  0  1  0  0  0  0  0  0
  158.8630  201.0800  150.1390 O   0  0  0  0  0  1  0  0  0  0  0  0
  161.2420  200.9450  150.1830 C   0  0  1  0  0  3  0  0  0  0  0  0
  160.0160  201.8420  150.3360 C   0  0  2  0  0  0  0  0  0  0  0  0
  160.8850  201.9430  149.0770 C   0  0  1  0  0  0  0  0  0  0  0  0
  161.2730  200.4150  147.2390 C   0  0  0  0  0  2  0  0  0  0  0  0
  160.1070  202.4060  146.7580 C   0  0  0  0  0  2  0  0  0  0  0  0
  160.3590  201.4050  147.7990 N   0  0  0  0  0  0  0  0  0  0  0  0
  161.1640  200.5100  145.7370 C   0  0  0  0  0  2  0  0  0  0  0  0
  160.7800  201.9430  145.4850 C   0  0  0  0  0  2  0  0  0  0  0  0
  1  8  2  0  0  0  0
  2  3  2  0  0  0  0
  3  9  1  0  0  0  0
  4  1  1  0  0  0  0
  5  4  2  0  0  0  0
  6  2  2  0  0  0  0
  7 10  1  1  0  0  0
  7  4  1  0  0  0  0
  7  3  1  0  0  0  0
  9  8  1  0  0  0  0
 11 12  1  0  0  0  0
 11 10  1  0  0  0  0
 13 14  1  6  0  0  0
 13 12  1  0  0  0  0
 15 13  1  0  0  0  0
 16 15  1  0  0  0  0
 17 16  1  0  0  0  0
 18 19  1  1  0  0  0
 18 17  1  0  0  0  0
 20 19  1  0  0  0  0
 21 18  1  0  0  0  0
 22 28  2  0  0  0  0
 23 25  1  6  0  0  0
 23 29  1  0  0  0  0
 23 27  1  0  0  0  0
 23 26  1  0  0  0  0
 24 32  1  6  0  0  0
 24 25  1  0  0  0  0
 24 28  1  0  0  0  0
 26 30  1  6  0  0  0
 27 26  1  0  0  0  0
 27 30  1  6  0  0  0
 28 29  1  0  0  0  0
 29 21  1  0  0  0  0
 31 32  2  0  0  0  0
 32 33  1  0  0  0  0
 34  6  1  0  0  0  0
 35 36  2  0  0  0  0
 36 34  1  0  0  0  0
 37 38  1  6  0  0  0
 37 35  1  0  0  0  0
 38 39  1  6  0  0  0
 40 38  1  0  0  0  0
 41 40  1  0  0  0  0
 42 41  1  0  0  0  0
 43 42  1  0  0  0  0
 44 43  1  0  0  0  0
 45 44  1  0  0  0  0
 46 51  1  0  0  0  0
 46 37  1  0  0  0  0
 49 50  1  0  0  0  0
 49 47  1  1  0  0  0
 50 48  1  1  0  0  0
 50 35  1  0  0  0  0
 51 54  1  6  0  0  0
 51 49  1  0  0  0  0
 51 50  1  0  0  0  0
 52 54  1  0  0  0  0
 53 54  1  0  0  0  0
 55 52  1  0  0  0  0
 56 55  1  0  0  0  0
 56 53  1  0  0  0  0
M  END
>  <MODEL>
3

>  <REMARK>
 VINA RESULT:      -2.0      4.123      8.768
  Name = 
  24 active torsions:
  status: ('A' for Active; 'I' for Inactive)
    1  A    between atoms: C_6  and  C_16
    2  A    between atoms: C_6  and  C_34
    3  A    between atoms: C_7  and  C_36
    4  A    between atoms: C_7  and  C_49
    5  A    between atoms: C_8  and  C_9
    6  A    between atoms: C_8  and  C_45
    7  A    between atoms: C_9  and  C_27
    8  A    between atoms: C_10  and  C_14
    9  A    between atoms: C_10  and  O_15
   10  A    between atoms: C_10  and  C_37
   11  A    between atoms: O_11  and  C_19
   12  A    between atoms: O_11  and  C_28
   13  A    between atoms: O_15  and  N_38
   14  A    between atoms: C_16  and  C_53
   15  A    between atoms: C_20  and  C_26
   16  A    between atoms: C_22  and  C_39
   17  A    between atoms: C_22  and  C_50
   18  A    between atoms: C_27  and  C_44
   19  A    between atoms: C_27  and  C_48
   20  A    between atoms: C_28  and  C_45
   21  A    between atoms: C_34  and  C_50
   22  A    between atoms: C_37  and  C_53
   23  A    between atoms: C_44  and  C_47
   24  A    between atoms: C_47  and  N_52
                            x       y       z     vdW  Elec       q    Type
                         _______ _______ _______ _____ _____    ______ ____

>  <TORSDO>
F 24

$$$$
=
 OpenBabel11072414193D

 56 61  0  0  1  0  0  0  0  0999 V2000
  162.8750  203.7310  146.8270 N   0  0  0  0  0  0  0  0  0  0  0  0
  161.5900  207.0650  148.8670 C   0  0  0  0  0  0  0  0  0  0  0  0
  161.9360  206.0580  148.1090 C   0  0  0  0  0  0  0  0  0  0  0  0
  161.4960  203.7980  147.2000 C   0  0  0  0  0  0  0  0  0  0  0  0
  160.7850  202.7620  147.1430 O   0  0  0  0  0  0  0  0  0  0  0  0
  161.2310  208.0660  149.6240 C   0  0  0  0  0  3  0  0  0  0  0  0
  160.8810  205.1090  147.5990 C   0  0  2  0  0  3  0  0  0  0  0  0
  163.7550  204.8440  147.0320 C   0  0  0  0  0  3  0  0  0  0  0  0
  163.3300  205.9460  147.6510 C   0  0  0  0  0  2  0  0  0  0  0  0
  160.1700  205.7030  146.3860 C   0  0  0  0  0  2  0  0  0  0  0  0
  161.1080  206.5800  145.5670 C   0  0  0  0  0  2  0  0  0  0  0  0
  161.8520  205.7680  144.5160 C   0  0  0  0  0  2  0  0  0  0  0  0
  161.2280  205.9530  143.1430 C   0  0  2  0  0  3  0  0  0  0  0  0
  160.6160  204.7590  142.7600 O   0  0  0  0  0  1  0  0  0  0  0  0
  162.3000  206.3210  142.1260 C   0  0  0  0  0  2  0  0  0  0  0  0
  161.7040  206.5420  140.7400 C   0  0  0  0  0  2  0  0  0  0  0  0
  162.1530  207.8620  140.1240 C   0  0  0  0  0  2  0  0  0  0  0  0
  161.0950  208.4270  139.1770 C   0  0  2  0  0  3  0  0  0  0  0  0
  160.9490  207.6110  137.8990 C   0  0  0  0  0  2  0  0  0  0  0  0
  162.5800  207.1810  137.2250 S   0  0  0  0  0  1  0  0  0  0  0  0
  161.2610  209.8090  138.9330 O   0  0  0  0  0  0  0  0  0  0  0  0
  158.3790  209.9710  138.7750 O   0  0  0  0  0  0  0  0  0  0  0  0
  160.8100  211.7130  140.4650 C   0  0  2  0  0  0  0  0  0  0  0  0
  158.6200  212.0190  140.0610 C   0  0  2  0  0  3  0  0  0  0  0  0
  159.7470  212.6230  140.6740 O   0  0  0  0  0  0  0  0  0  0  0  0
  161.9090  211.6570  141.4970 C   0  0  1  0  0  3  0  0  0  0  0  0
  162.1590  212.3060  140.1380 C   0  0  2  0  0  3  0  0  0  0  0  0
  159.0870  210.7380  139.4770 C   0  0  0  0  0  0  0  0  0  0  0  0
  160.4350  210.4950  139.7750 N   0  0  0  0  0  0  0  0  0  0  0  0
  162.7380  212.9250  141.3970 C   0  0  0  0  0  2  0  0  0  0  0  0
  158.7370  213.2040  137.9740 O   0  0  0  0  0  0  0  0  0  0  0  0
  158.0580  212.9150  138.9960 C   0  0  0  0  0  0  0  0  0  0  0  0
  156.7570  213.3860  139.1120 O   0  0  0  0  0  1  0  0  0  0  0  0
  161.8200  208.2490  150.9800 C   0  0  0  0  0  2  0  0  0  0  0  0
  160.8400  207.4090  153.1100 C   0  0  0  0  0  3  0  0  0  0  0  0
  161.3640  207.1600  151.9040 C   0  0  0  0  0  3  0  0  0  0  0  0
  160.6630  208.7970  153.6620 C   0  0  2  0  0  3  0  0  0  0  0  0
  160.1560  209.7710  152.5860 C   0  0  1  0  0  3  0  0  0  0  0  0
  158.8100  210.0840  152.7890 O   0  0  0  0  0  1  0  0  0  0  0  0
  161.0120  211.0310  152.3930 C   0  0  0  0  0  2  0  0  0  0  0  0
  160.1990  212.3160  152.3260 C   0  0  0  0  0  2  0  0  0  0  0  0
  160.2330  212.8940  150.9240 C   0  0  0  0  0  2  0  0  0  0  0  0
  159.0000  213.4710  150.6280 O   0  0  0  0  0  0  0  0  0  0  0  0
  159.1300  213.9220  149.3150 C   0  0  0  0  0  2  0  0  0  0  0  0
  160.4580  213.4610  148.7540 C   0  0  0  0  0  1  0  0  0  0  0  0
  161.9440  209.2880  154.3350 C   0  0  0  0  0  2  0  0  0  0  0  0
  163.7900  211.0300  155.4470 O   0  0  0  0  0  1  0  0  0  0  0  0
  160.5940  211.8680  156.6810 O   0  0  0  0  0  1  0  0  0  0  0  0
  162.7120  210.8400  156.3130 C   0  0  1  0  0  3  0  0  0  0  0  0
  161.4520  211.4190  155.6750 C   0  0  1  0  0  3  0  0  0  0  0  0
  161.6640  209.9010  155.7080 C   0  0  1  0  0  0  0  0  0  0  0  0
  161.5700  207.8860  157.0470 C   0  0  0  0  0  2  0  0  0  0  0  0
  159.5480  208.6510  156.1060 C   0  0  0  0  0  2  0  0  0  0  0  0
  160.8450  209.0830  156.6360 N   0  0  0  0  0  0  0  0  0  0  0  0
  160.5450  206.7990  157.2610 C   0  0  0  0  0  2  0  0  0  0  0  0
  159.4240  207.1580  156.3230 C   0  0  0  0  0  2  0  0  0  0  0  0
  1  8  2  0  0  0  0
  1  4  1  0  0  0  0
  2  6  2  0  0  0  0
  3  2  2  0  0  0  0
  4  7  1  0  0  0  0
  5  4  2  0  0  0  0
  6 34  1  0  0  0  0
  7 10  1  6  0  0  0
  7  3  1  0  0  0  0
  8  9  1  0  0  0  0
  9  3  1  0  0  0  0
 11 10  1  0  0  0  0
 12 11  1  0  0  0  0
 13 14  1  6  0  0  0
 13 12  1  0  0  0  0
 15 13  1  0  0  0  0
 16 15  1  0  0  0  0
 17 16  1  0  0  0  0
 18 19  1  6  0  0  0
 18 17  1  0  0  0  0
 20 19  1  0  0  0  0
 21 18  1  0  0  0  0
 21 29  1  0  0  0  0
 22 28  2  0  0  0  0
 23 25  1  1  0  0  0
 23 26  1  0  0  0  0
 24 32  1  6  0  0  0
 24 25  1  0  0  0  0
 26 30  1  1  0  0  0
 27 23  1  0  0  0  0
 27 30  1  1  0  0  0
 27 26  1  0  0  0  0
 28 29  1  0  0  0  0
 28 24  1  0  0  0  0
 29 23  1  0  0  0  0
 31 32  2  0  0  0  0
 32 33  1  0  0  0  0
 34 36  1  0  0  0  0
 36 35  2  0  0  0  0
 37 35  1  6  0  0  0
 37 46  1  0  0  0  0
 38 39  1  1  0  0  0
 38 37  1  0  0  0  0
 40 38  1  0  0  0  0
 41 40  1  0  0  0  0
 42 41  1  0  0  0  0
 43 42  1  0  0  0  0
 44 43  1  0  0  0  0
 45 44  1  0  0  0  0
 49 47  1  6  0  0  0
 50 51  1  0  0  0  0
 50 49  1  0  0  0  0
 50 48  1  1  0  0  0
 51 46  1  6  0  0  0
 51 49  1  0  0  0  0
 51 54  1  0  0  0  0
 52 55  1  0  0  0  0
 53 56  1  0  0  0  0
 53 54  1  0  0  0  0
 54 52  1  0  0  0  0
 56 55  1  0  0  0  0
M  END
>  <MODEL>
4

>  <REMARK>
 VINA RESULT:      -1.2      3.096      5.964
  Name = 
  24 active torsions:
  status: ('A' for Active; 'I' for Inactive)
    1  A    between atoms: C_6  and  C_16
    2  A    between atoms: C_6  and  C_34
    3  A    between atoms: C_7  and  C_36
    4  A    between atoms: C_7  and  C_49
    5  A    between atoms: C_8  and  C_9
    6  A    between atoms: C_8  and  C_45
    7  A    between atoms: C_9  and  C_27
    8  A    between atoms: C_10  and  C_14
    9  A    between atoms: C_10  and  O_15
   10  A    between atoms: C_10  and  C_37
   11  A    between atoms: O_11  and  C_19
   12  A    between atoms: O_11  and  C_28
   13  A    between atoms: O_15  and  N_38
   14  A    between atoms: C_16  and  C_53
   15  A    between atoms: C_20  and  C_26
   16  A    between atoms: C_22  and  C_39
   17  A    between atoms: C_22  and  C_50
   18  A    between atoms: C_27  and  C_44
   19  A    between atoms: C_27  and  C_48
   20  A    between atoms: C_28  and  C_45
   21  A    between atoms: C_34  and  C_50
   22  A    between atoms: C_37  and  C_53
   23  A    between atoms: C_44  and  C_47
   24  A    between atoms: C_47  and  N_52
                            x       y       z     vdW  Elec       q    Type
                         _______ _______ _______ _____ _____    ______ ____

>  <TORSDO>
F 24

$$$$
=
 OpenBabel11072414193D

 56 61  0  0  1  0  0  0  0  0999 V2000
  162.5160  206.9370  150.8870 N   0  0  0  0  0  0  0  0  0  0  0  0
  160.6690  207.7050  154.4830 C   0  0  0  0  0  0  0  0  0  0  0  0
  161.1720  207.3540  153.3290 C   0  0  0  0  0  0  0  0  0  0  0  0
  162.8470  206.1050  152.0020 C   0  0  0  0  0  0  0  0  0  0  0  0
  163.8550  205.3560  151.9410 O   0  0  0  0  0  0  0  0  0  0  0  0
  160.1740  208.0450  155.6420 C   0  0  0  0  0  3  0  0  0  0  0  0
  161.9630  206.0760  153.2160 C   0  0  2  0  0  3  0  0  0  0  0  0
  161.4760  207.9200  150.9770 C   0  0  0  0  0  3  0  0  0  0  0  0
  160.8410  208.1390  152.1290 C   0  0  0  0  0  2  0  0  0  0  0  0
  161.0260  204.8760  153.1070 C   0  0  0  0  0  2  0  0  0  0  0  0
  161.3420  204.0320  151.8790 C   0  0  0  0  0  2  0  0  0  0  0  0
  160.1150  203.2700  151.3980 C   0  0  0  0  0  2  0  0  0  0  0  0
  160.4640  201.8290  151.0680 C   0  0  2  0  0  3  0  0  0  0  0  0
  161.8430  201.6580  151.1940 O   0  0  0  0  0  1  0  0  0  0  0  0
  160.0430  201.5020  149.6410 C   0  0  0  0  0  2  0  0  0  0  0  0
  161.0500  200.5840  148.9570 C   0  0  0  0  0  2  0  0  0  0  0  0
  161.9290  201.3350  147.9640 C   0  0  0  0  0  2  0  0  0  0  0  0
  161.1030  202.2640  147.0730 C   0  0  2  0  0  3  0  0  0  0  0  0
  159.8060  201.6240  146.5950 C   0  0  0  0  0  2  0  0  0  0  0  0
  159.9740  201.0400  144.8830 S   0  0  0  0  0  1  0  0  0  0  0  0
  161.8600  202.8300  146.0230 O   0  0  0  0  0  0  0  0  0  0  0  0
  161.8600  204.0120  148.6620 O   0  0  0  0  0  0  0  0  0  0  0  0
  161.8140  205.2490  145.4570 C   0  0  2  0  0  0  0  0  0  0  0  0
  161.4800  206.1150  147.5050 C   0  0  2  0  0  3  0  0  0  0  0  0
  161.4640  206.4450  146.1260 O   0  0  0  0  0  0  0  0  0  0  0  0
  162.5460  205.3590  144.1420 C   0  0  1  0  0  3  0  0  0  0  0  0
  161.0770  204.9430  144.1760 C   0  0  2  0  0  3  0  0  0  0  0  0
  161.8360  204.6780  147.5950 C   0  0  0  0  0  0  0  0  0  0  0  0
  162.1150  204.1340  146.3340 N   0  0  0  0  0  0  0  0  0  0  0  0
  161.5810  205.8750  143.0890 C   0  0  0  0  0  2  0  0  0  0  0  0
  159.0980  206.4020  147.4110 O   0  0  0  0  0  0  0  0  0  0  0  0
  160.1370  206.3700  148.1230 C   0  0  0  0  0  0  0  0  0  0  0  0
  160.0320  206.5170  149.5000 O   0  0  0  0  0  1  0  0  0  0  0  0
  160.5060  209.3590  156.2600 C   0  0  0  0  0  2  0  0  0  0  0  0
  158.8290  210.9670  157.1550 C   0  0  0  0  0  3  0  0  0  0  0  0
  159.4340  209.7760  157.2210 C   0  0  0  0  0  3  0  0  0  0  0  0
  159.1660  212.0080  156.1220 C   0  0  2  0  0  3  0  0  0  0  0  0
  158.8770  213.4260  156.6380 C   0  0  1  0  0  3  0  0  0  0  0  0
  159.9400  214.2880  156.3570 O   0  0  0  0  0  1  0  0  0  0  0  0
  157.5310  214.0180  156.1940 C   0  0  0  0  0  2  0  0  0  0  0  0
  156.4480  213.9370  157.2610 C   0  0  0  0  0  2  0  0  0  0  0  0
  155.2970  213.0710  156.7850 C   0  0  0  0  0  2  0  0  0  0  0  0
  155.4650  211.7720  157.2610 O   0  0  0  0  0  0  0  0  0  0  0  0
  154.5740  211.0060  156.5100 C   0  0  0  0  0  2  0  0  0  0  0  0
  155.3130  210.3620  155.3560 C   0  0  0  0  0  1  0  0  0  0  0  0
  158.4650  211.7140  154.7970 C   0  0  0  0  0  2  0  0  0  0  0  0
  161.2080  211.3260  154.8040 O   0  0  0  0  0  1  0  0  0  0  0  0
  160.1030  211.3530  151.4550 O   0  0  0  0  0  1  0  0  0  0  0  0
  160.8100  211.9870  153.6410 C   0  0  1  0  0  3  0  0  0  0  0  0
  159.9410  211.0480  152.8080 C   0  0  1  0  0  3  0  0  0  0  0  0
  159.2920  212.1880  153.6010 C   0  0  1  0  0  0  0  0  0  0  0  0
  157.4040  213.6720  153.2890 C   0  0  0  0  0  2  0  0  0  0  0  0
  158.7510  213.2300  151.4050 C   0  0  0  0  0  2  0  0  0  0  0  0
  158.7660  213.3640  152.8650 N   0  0  0  0  0  0  0  0  0  0  0  0
  156.6850  214.2390  152.0900 C   0  0  0  0  0  2  0  0  0  0  0  0
  157.3690  213.5990  150.9120 C   0  0  0  0  0  2  0  0  0  0  0  0
  1  8  2  0  0  0  0
  1  4  1  0  0  0  0
  2  6  2  0  0  0  0
  3  2  2  0  0  0  0
  4  7  1  0  0  0  0
  5  4  2  0  0  0  0
  6 34  1  0  0  0  0
  7 10  1  6  0  0  0
  7  3  1  0  0  0  0
  8  9  1  0  0  0  0
  9  3  1  0  0  0  0
 11 10  1  0  0  0  0
 12 11  1  0  0  0  0
 13 14  1  6  0  0  0
 13 12  1  0  0  0  0
 15 13  1  0  0  0  0
 16 15  1  0  0  0  0
 17 16  1  0  0  0  0
 18 19  1  6  0  0  0
 18 17  1  0  0  0  0
 20 19  1  0  0  0  0
 21 29  1  0  0  0  0
 21 18  1  0  0  0  0
 23 25  1  1  0  0  0
 23 29  1  0  0  0  0
 24 28  1  0  0  0  0
 24 32  1  6  0  0  0
 25 24  1  0  0  0  0
 26 30  1  6  0  0  0
 26 27  1  0  0  0  0
 26 23  1  0  0  0  0
 27 30  1  6  0  0  0
 27 23  1  0  0  0  0
 28 22  2  0  0  0  0
 29 28  1  0  0  0  0
 31 32  2  0  0  0  0
 32 33  1  0  0  0  0
 34 36  1  0  0  0  0
 35 36  2  0  0  0  0
 37 46  1  6  0  0  0
 37 38  1  0  0  0  0
 37 35  1  0  0  0  0
 38 39  1  6  0  0  0
 40 38  1  0  0  0  0
 40 41  1  0  0  0  0
 42 43  1  0  0  0  0
 42 41  1  0  0  0  0
 44 43  1  0  0  0  0
 45 44  1  0  0  0  0
 49 47  1  1  0  0  0
 50 48  1  6  0  0  0
 50 51  1  0  0  0  0
 50 49  1  0  0  0  0
 51 49  1  0  0  0  0
 51 46  1  1  0  0  0
 53 54  1  0  0  0  0
 54 52  1  0  0  0  0
 54 51  1  0  0  0  0
 55 52  1  0  0  0  0
 56 53  1  0  0  0  0
 56 55  1  0  0  0  0
M  END
>  <MODEL>
5

>  <REMARK>
 VINA RESULT:      -0.8      6.220     10.084
  Name = 
  24 active torsions:
  status: ('A' for Active; 'I' for Inactive)
    1  A    between atoms: C_6  and  C_16
    2  A    between atoms: C_6  and  C_34
    3  A    between atoms: C_7  and  C_36
    4  A    between atoms: C_7  and  C_49
    5  A    between atoms: C_8  and  C_9
    6  A    between atoms: C_8  and  C_45
    7  A    between atoms: C_9  and  C_27
    8  A    between atoms: C_10  and  C_14
    9  A    between atoms: C_10  and  O_15
   10  A    between atoms: C_10  and  C_37
   11  A    between atoms: O_11  and  C_19
   12  A    between atoms: O_11  and  C_28
   13  A    between atoms: O_15  and  N_38
   14  A    between atoms: C_16  and  C_53
   15  A    between atoms: C_20  and  C_26
   16  A    between atoms: C_22  and  C_39
   17  A    between atoms: C_22  and  C_50
   18  A    between atoms: C_27  and  C_44
   19  A    between atoms: C_27  and  C_48
   20  A    between atoms: C_28  and  C_45
   21  A    between atoms: C_34  and  C_50
   22  A    between atoms: C_37  and  C_53
   23  A    between atoms: C_44  and  C_47
   24  A    between atoms: C_47  and  N_52
                            x       y       z     vdW  Elec       q    Type
                         _______ _______ _______ _____ _____    ______ ____

>  <TORSDO>
F 24

$$$$
=
 OpenBabel11072414193D

 56 61  0  0  1  0  0  0  0  0999 V2000
  162.8810  203.4610  146.3110 N   0  0  0  0  0  0  0  0  0  0  0  0
  161.6150  206.6530  148.5800 C   0  0  0  0  0  0  0  0  0  0  0  0
  161.9520  205.6970  147.7540 C   0  0  0  0  0  0  0  0  0  0  0  0
  161.5100  203.4930  146.7180 C   0  0  0  0  0  0  0  0  0  0  0  0
  160.8060  202.4560  146.6130 O   0  0  0  0  0  0  0  0  0  0  0  0
  161.2650  207.6020  149.4040 C   0  0  0  0  0  3  0  0  0  0  0  0
  160.8940  204.7710  147.2110 C   0  0  2  0  0  3  0  0  0  0  0  0
  163.7560  204.5680  146.5650 C   0  0  0  0  0  3  0  0  0  0  0  0
  163.3360  205.6270  147.2590 C   0  0  0  0  0  2  0  0  0  0  0  0
  160.1510  205.4310  146.0520 C   0  0  0  0  0  2  0  0  0  0  0  0
  160.9800  206.5420  145.4210 C   0  0  0  0  0  2  0  0  0  0  0  0
  161.9020  205.9990  144.3370 C   0  0  0  0  0  2  0  0  0  0  0  0
  161.2110  205.9980  142.9840 C   0  0  2  0  0  3  0  0  0  0  0  0
  160.7160  204.7190  142.7310 O   0  0  0  0  0  1  0  0  0  0  0  0
  162.1990  206.3830  141.8910 C   0  0  0  0  0  2  0  0  0  0  0  0
  161.4890  206.9660  140.6750 C   0  0  0  0  0  2  0  0  0  0  0  0
  162.2480  208.1430  140.0750 C   0  0  0  0  0  2  0  0  0  0  0  0
  161.4460  208.8210  138.9640 C   0  0  2  0  0  3  0  0  0  0  0  0
  160.9420  207.8380  137.9150 C   0  0  0  0  0  2  0  0  0  0  0  0
  162.3050  206.8130  137.2910 S   0  0  0  0  0  1  0  0  0  0  0  0
  162.1170  209.9310  138.4040 O   0  0  0  0  0  0  0  0  0  0  0  0
  163.3480  211.7800  140.2540 O   0  0  0  0  0  0  0  0  0  0  0  0
  160.1410  211.2420  139.1450 C   0  0  2  0  0  0  0  0  0  0  0  0
  161.0740  212.4300  140.8110 C   0  0  2  0  0  3  0  0  0  0  0  0
  159.8230  212.0700  140.2480 O   0  0  0  0  0  0  0  0  0  0  0  0
  159.2040  211.2440  137.9640 C   0  0  1  0  0  3  0  0  0  0  0  0
  159.2500  210.0470  138.9110 C   0  0  2  0  0  3  0  0  0  0  0  0
  162.1170  211.7610  139.9970 C   0  0  0  0  0  0  0  0  0  0  0  0
  161.5610  211.0680  138.9120 N   0  0  0  0  0  0  0  0  0  0  0  0
  157.9220  210.5300  138.3570 C   0  0  0  0  0  2  0  0  0  0  0  0
  160.2470  211.2700  142.7450 O   0  0  0  0  0  0  0  0  0  0  0  0
  161.1520  211.9890  142.2430 C   0  0  0  0  0  0  0  0  0  0  0  0
  162.2610  212.3320  143.0060 O   0  0  0  0  0  1  0  0  0  0  0  0
  161.8840  207.7070  150.7560 C   0  0  0  0  0  2  0  0  0  0  0  0
  160.6450  207.2620  152.8690 C   0  0  0  0  0  3  0  0  0  0  0  0
  161.1790  206.8110  151.7290 C   0  0  0  0  0  3  0  0  0  0  0  0
  160.7030  208.7040  153.2940 C   0  0  2  0  0  3  0  0  0  0  0  0
  160.4800  209.6500  152.1040 C   0  0  1  0  0  3  0  0  0  0  0  0
  159.4460  210.5510  152.3670 O   0  0  0  0  0  1  0  0  0  0  0  0
  161.7410  210.3630  151.5950 C   0  0  0  0  0  2  0  0  0  0  0  0
  161.4690  211.3630  150.4800 C   0  0  0  0  0  2  0  0  0  0  0  0
  162.4750  211.1950  149.3580 C   0  0  0  0  0  2  0  0  0  0  0  0
  162.3700  212.2660  148.4730 O   0  0  0  0  0  0  0  0  0  0  0  0
  161.0680  212.1870  147.9800 C   0  0  0  0  0  2  0  0  0  0  0  0
  160.4720  213.5760  147.9050 C   0  0  0  0  0  1  0  0  0  0  0  0
  162.0000  209.0050  154.0440 C   0  0  0  0  0  2  0  0  0  0  0  0
  163.8320  210.9050  154.8850 O   0  0  0  0  0  1  0  0  0  0  0  0
  160.6490  211.8240  156.0970 O   0  0  0  0  0  1  0  0  0  0  0  0
  162.7810  210.8000  155.7970 C   0  0  1  0  0  3  0  0  0  0  0  0
  161.4920  211.2730  155.1290 C   0  0  1  0  0  3  0  0  0  0  0  0
  161.7400  209.7750  155.3390 C   0  0  1  0  0  0  0  0  0  0  0  0
  161.7110  207.9120  156.8870 C   0  0  0  0  0  2  0  0  0  0  0  0
  159.6480  208.5730  155.9560 C   0  0  0  0  0  2  0  0  0  0  0  0
  160.9640  209.0590  156.3820 N   0  0  0  0  0  0  0  0  0  0  0  0
  160.7000  206.8540  157.2570 C   0  0  0  0  0  2  0  0  0  0  0  0
  159.5400  207.1120  156.3350 C   0  0  0  0  0  2  0  0  0  0  0  0
  1  8  2  0  0  0  0
  1  4  1  0  0  0  0
  2  6  2  0  0  0  0
  3  2  2  0  0  0  0
  4  7  1  0  0  0  0
  5  4  2  0  0  0  0
  6 34  1  0  0  0  0
  7 10  1  6  0  0  0
  7  3  1  0  0  0  0
  8  9  1  0  0  0  0
  9  3  1  0  0  0  0
 11 10  1  0  0  0  0
 12 11  1  0  0  0  0
 13 14  1  6  0  0  0
 13 12  1  0  0  0  0
 15 13  1  0  0  0  0
 16 15  1  0  0  0  0
 17 16  1  0  0  0  0
 18 19  1  6  0  0  0
 18 17  1  0  0  0  0
 20 19  1  0  0  0  0
 21 29  1  0  0  0  0
 21 18  1  0  0  0  0
 23 25  1  1  0  0  0
 24 32  1  1  0  0  0
 25 24  1  0  0  0  0
 26 30  1  1  0  0  0
 26 27  1  0  0  0  0
 26 23  1  0  0  0  0
 27 30  1  1  0  0  0
 27 23  1  0  0  0  0
 28 22  2  0  0  0  0
 28 24  1  0  0  0  0
 29 23  1  0  0  0  0
 29 28  1  0  0  0  0
 32 31  2  0  0  0  0
 32 33  1  0  0  0  0
 34 36  1  0  0  0  0
 36 35  2  0  0  0  0
 37 35  1  6  0  0  0
 37 46  1  0  0  0  0
 38 39  1  1  0  0  0
 38 37  1  0  0  0  0
 40 38  1  0  0  0  0
 41 40  1  0  0  0  0
 42 41  1  0  0  0  0
 43 42  1  0  0  0  0
 44 43  1  0  0  0  0
 45 44  1  0  0  0  0
 49 47  1  6  0  0  0
 50 51  1  0  0  0  0
 50 49  1  0  0  0  0
 50 48  1  1  0  0  0
 51 46  1  6  0  0  0
 51 49  1  0  0  0  0
 51 54  1  0  0  0  0
 52 55  1  0  0  0  0
 53 56  1  0  0  0  0
 53 54  1  0  0  0  0
 54 52  1  0  0  0  0
 56 55  1  0  0  0  0
M  END
>  <MODEL>
6

>  <REMARK>
 VINA RESULT:      -0.6      3.187      6.044
  Name = 
  24 active torsions:
  status: ('A' for Active; 'I' for Inactive)
    1  A    between atoms: C_6  and  C_16
    2  A    between atoms: C_6  and  C_34
    3  A    between atoms: C_7  and  C_36
    4  A    between atoms: C_7  and  C_49
    5  A    between atoms: C_8  and  C_9
    6  A    between atoms: C_8  and  C_45
    7  A    between atoms: C_9  and  C_27
    8  A    between atoms: C_10  and  C_14
    9  A    between atoms: C_10  and  O_15
   10  A    between atoms: C_10  and  C_37
   11  A    between atoms: O_11  and  C_19
   12  A    between atoms: O_11  and  C_28
   13  A    between atoms: O_15  and  N_38
   14  A    between atoms: C_16  and  C_53
   15  A    between atoms: C_20  and  C_26
   16  A    between atoms: C_22  and  C_39
   17  A    between atoms: C_22  and  C_50
   18  A    between atoms: C_27  and  C_44
   19  A    between atoms: C_27  and  C_48
   20  A    between atoms: C_28  and  C_45
   21  A    between atoms: C_34  and  C_50
   22  A    between atoms: C_37  and  C_53
   23  A    between atoms: C_44  and  C_47
   24  A    between atoms: C_47  and  N_52
                            x       y       z     vdW  Elec       q    Type
                         _______ _______ _______ _____ _____    ______ ____

>  <TORSDO>
F 24

$$$$
=
 OpenBabel11072414193D

 56 61  0  0  1  0  0  0  0  0999 V2000
  160.5710  203.5700  152.0910 N   0  0  0  0  0  2  0  0  0  0  0  0
  161.4750  206.2460  149.0990 C   0  0  0  0  0  0  0  0  0  0  0  0
  161.1970  205.5020  150.1360 C   0  0  0  0  0  0  0  0  0  0  0  0
  161.9260  204.0120  151.9740 C   0  0  0  0  0  0  0  0  0  0  0  0
  162.8360  203.3970  152.5860 O   0  0  0  0  0  0  0  0  0  0  0  0
  161.7660  206.9910  148.0680 C   0  0  0  0  0  3  0  0  0  0  0  0
  162.2580  205.2400  151.1750 C   0  0  2  0  0  3  0  0  0  0  0  0
  159.5320  204.1400  151.2850 C   0  0  0  0  0  3  0  0  0  0  0  0
  159.8140  205.0440  150.3450 C   0  0  0  0  0  3  0  0  0  0  0  0
  162.3730  206.4250  152.1300 C   0  0  0  0  0  2  0  0  0  0  0  0
  161.0510  206.7030  152.8340 C   0  0  0  0  0  2  0  0  0  0  0  0
  161.2610  207.0080  154.3100 C   0  0  0  0  0  2  0  0  0  0  0  0
  160.9330  208.4600  154.6180 C   0  0  2  0  0  3  0  0  0  0  0  0
  162.1020  209.1150  155.0040 O   0  0  0  0  0  1  0  0  0  0  0  0
  159.9130  208.5380  155.7470 C   0  0  0  0  0  2  0  0  0  0  0  0
  159.6210  209.9820  156.1380 C   0  0  0  0  0  2  0  0  0  0  0  0
  158.1300  210.2950  156.1110 C   0  0  0  0  0  2  0  0  0  0  0  0
  157.8710  211.7620  155.7690 C   0  0  2  0  0  3  0  0  0  0  0  0
  157.2940  212.5480  156.9400 C   0  0  0  0  0  2  0  0  0  0  0  0
  158.1210  214.1570  157.0990 S   0  0  0  0  0  1  0  0  0  0  0  0
  157.1290  211.9230  154.5770 O   0  0  0  0  0  0  0  0  0  0  0  0
  156.0370  214.4350  153.6520 O   0  0  0  0  0  0  0  0  0  0  0  0
  158.7700  212.5300  152.8130 C   0  0  2  0  0  0  0  0  0  0  0  0
  157.7170  214.2950  151.9010 C   0  0  2  0  0  3  0  0  0  0  0  0
  158.7860  213.3890  151.6890 O   0  0  0  0  0  0  0  0  0  0  0  0
  160.0800  211.9410  153.2740 C   0  0  1  0  0  3  0  0  0  0  0  0
  159.0500  211.0700  152.5590 C   0  0  2  0  0  3  0  0  0  0  0  0
  157.0780  213.9080  153.1830 C   0  0  0  0  0  0  0  0  0  0  0  0
  157.7610  212.8520  153.8020 N   0  0  0  0  0  0  0  0  0  0  0  0
  160.5290  210.9000  152.2630 C   0  0  0  0  0  2  0  0  0  0  0  0
  155.4920  214.2300  150.9990 O   0  0  0  0  0  1  0  0  0  0  0  0
  156.7320  214.2200  150.7730 C   0  0  0  0  0  0  0  0  0  0  0  0
  157.1910  214.1940  149.4620 O   0  0  0  0  0  0  0  0  0  0  0  0
  161.5970  206.4750  146.6800 C   0  0  0  0  0  2  0  0  0  0  0  0
  162.8260  204.8140  145.2910 C   0  0  0  0  0  3  0  0  0  0  0  0
  162.8400  205.7730  146.2240 C   0  0  0  0  0  3  0  0  0  0  0  0
  161.5690  204.3380  144.6160 C   0  0  2  0  0  3  0  0  0  0  0  0
  161.1050  205.3230  143.5320 C   0  0  1  0  0  3  0  0  0  0  0  0
  160.7660  206.5580  144.0900 O   0  0  0  0  0  1  0  0  0  0  0  0
  162.0610  205.4790  142.3410 C   0  0  0  0  0  2  0  0  0  0  0  0
  161.7800  206.7090  141.4900 C   0  0  0  0  0  2  0  0  0  0  0  0
  162.9110  206.9450  140.5080 C   0  0  0  0  0  2  0  0  0  0  0  0
  162.4060  206.9590  139.2090 O   0  0  0  0  0  0  0  0  0  0  0  0
  161.2390  207.7160  139.2950 C   0  0  0  0  0  2  0  0  0  0  0  0
  161.1450  208.6330  138.0940 C   0  0  0  0  0  1  0  0  0  0  0  0
  160.4750  204.0380  145.6390 C   0  0  0  0  0  2  0  0  0  0  0  0
  158.0090  202.7890  145.4440 O   0  0  0  0  0  1  0  0  0  0  0  0
  160.5160  200.4020  144.7640 O   0  0  0  0  0  1  0  0  0  0  0  0
  158.9890  201.8790  145.8450 C   0  0  1  0  0  3  0  0  0  0  0  0
  159.9930  201.6960  144.7100 C   0  0  1  0  0  3  0  0  0  0  0  0
  160.3670  202.5410  145.9330 C   0  0  1  0  0  0  0  0  0  0  0  0
  161.2030  200.5450  147.0220 C   0  0  0  0  0  2  0  0  0  0  0  0
  161.2410  202.5490  148.2640 C   0  0  0  0  0  2  0  0  0  0  0  0
  161.3400  201.9940  146.9110 N   0  0  0  0  0  0  0  0  0  0  0  0
  161.5470  200.1760  148.4440 C   0  0  0  0  0  2  0  0  0  0  0  0
  161.1770  201.3960  149.2430 C   0  0  0  0  0  2  0  0  0  0  0  0
  2  3  2  0  0  0  0
  3  9  1  0  0  0  0
  3  7  1  0  0  0  0
  4  1  1  0  0  0  0
  4  5  2  0  0  0  0
  6  2  2  0  0  0  0
  7  4  1  0  0  0  0
  7 10  1  1  0  0  0
  8  1  1  0  0  0  0
  9  8  2  0  0  0  0
 10 11  1  0  0  0  0
 11 12  1  0  0  0  0
 12 13  1  0  0  0  0
 13 14  1  1  0  0  0
 13 15  1  0  0  0  0
 15 16  1  0  0  0  0
 17 16  1  0  0  0  0
 18 17  1  1  0  0  0
 18 19  1  0  0  0  0
 19 20  1  0  0  0  0
 21 18  1  0  0  0  0
 23 25  1  6  0  0  0
 23 26  1  0  0  0  0
 23 29  1  0  0  0  0
 24 32  1  6  0  0  0
 24 28  1  0  0  0  0
 25 24  1  0  0  0  0
 26 30  1  6  0  0  0
 27 30  1  6  0  0  0
 27 23  1  0  0  0  0
 27 26  1  0  0  0  0
 28 22  2  0  0  0  0
 28 29  1  0  0  0  0
 29 21  1  0  0  0  0
 32 31  1  0  0  0  0
 33 32  2  0  0  0  0
 34  6  1  0  0  0  0
 35 36  2  0  0  0  0
 36 34  1  0  0  0  0
 37 35  1  1  0  0  0
 37 46  1  0  0  0  0
 38 39  1  1  0  0  0
 38 37  1  0  0  0  0
 40 38  1  0  0  0  0
 41 40  1  0  0  0  0
 42 41  1  0  0  0  0
 43 44  1  0  0  0  0
 43 42  1  0  0  0  0
 45 44  1  0  0  0  0
 49 47  1  6  0  0  0
 49 51  1  0  0  0  0
 50 48  1  1  0  0  0
 50 49  1  0  0  0  0
 50 51  1  0  0  0  0
 51 46  1  6  0  0  0
 51 54  1  0  0  0  0
 52 55  1  0  0  0  0
 53 56  1  0  0  0  0
 54 52  1  0  0  0  0
 54 53  1  0  0  0  0
 55 56  1  0  0  0  0
M  END
>  <MODEL>
7

>  <REMARK>
 VINA RESULT:      -0.2      5.390     12.335
  Name = 
  24 active torsions:
  status: ('A' for Active; 'I' for Inactive)
    1  A    between atoms: C_6  and  C_16
    2  A    between atoms: C_6  and  C_34
    3  A    between atoms: C_7  and  C_36
    4  A    between atoms: C_7  and  C_49
    5  A    between atoms: C_8  and  C_9
    6  A    between atoms: C_8  and  C_45
    7  A    between atoms: C_9  and  C_27
    8  A    between atoms: C_10  and  C_14
    9  A    between atoms: C_10  and  O_15
   10  A    between atoms: C_10  and  C_37
   11  A    between atoms: O_11  and  C_19
   12  A    between atoms: O_11  and  C_28
   13  A    between atoms: O_15  and  N_38
   14  A    between atoms: C_16  and  C_53
   15  A    between atoms: C_20  and  C_26
   16  A    between atoms: C_22  and  C_39
   17  A    between atoms: C_22  and  C_50
   18  A    between atoms: C_27  and  C_44
   19  A    between atoms: C_27  and  C_48
   20  A    between atoms: C_28  and  C_45
   21  A    between atoms: C_34  and  C_50
   22  A    between atoms: C_37  and  C_53
   23  A    between atoms: C_44  and  C_47
   24  A    between atoms: C_47  and  N_52
                            x       y       z     vdW  Elec       q    Type
                         _______ _______ _______ _____ _____    ______ ____

>  <TORSDO>
F 24

$$$$
