=
 OpenBabel11072415113D

 39 43  0  0  1  0  0  0  0  0999 V2000
  161.3810  207.2530  152.0950 C   0  0  2  0  0  3  0  0  0  0  0  0
  160.7610  205.6430  150.1170 C   0  0  2  0  0  3  0  0  0  0  0  0
  161.3370  204.5690  151.0330 C   0  0  0  0  0  2  0  0  0  0  0  0
  161.8710  206.6040  149.7350 C   0  0  2  0  0  3  0  0  0  0  0  0
  161.4600  207.4080  154.9710 C   0  0  0  0  0  2  0  0  0  0  0  0
  160.7800  208.8790  152.7170 S   0  0  0  0  0  0  0  0  0  0  0  0
  160.7870  207.0720  150.6880 C   0  0  2  0  0  3  0  0  0  0  0  0
  161.1250  206.1710  154.2870 N   0  0  0  0  0  0  0  0  0  0  0  0
  160.9250  204.7890  152.4090 N   0  0  0  0  0  2  0  0  0  0  0  0
  160.5420  208.5160  154.4950 C   0  0  2  0  0  3  0  0  0  0  0  0
  161.0790  206.0760  152.9950 C   0  0  0  0  0  0  0  0  0  0  0  0
  159.8190  210.6510  155.7740 C   0  0  0  0  0  0  0  0  0  0  0  0
  160.7570  209.7640  155.2930 C   0  0  0  0  0  0  0  0  0  0  0  0
  160.4260  211.5520  156.5030 O   0  0  0  0  0  0  0  0  0  0  0  0
  161.9580  210.2070  155.8120 C   0  0  0  0  0  3  0  0  0  0  0  0
  161.7080  211.3170  156.5450 N   0  0  0  0  0  0  0  0  0  0  0  0
  158.4160  210.6040  155.5270 N   0  0  0  0  0  2  0  0  0  0  0  0
  157.5790  212.7140  156.8870 O   0  0  0  0  0  0  0  0  0  0  0  0
  155.9820  211.6400  155.3570 O   0  0  0  0  0  0  0  0  0  0  0  0
  157.4230  212.0230  155.5620 S   0  0  0  0  0  0  0  0  0  0  0  0
  158.6500  214.4050  154.6730 C   0  0  0  0  0  2  0  0  0  0  0  0
  157.9280  213.1370  154.2620 C   0  0  0  0  0  0  0  0  0  0  0  0
  157.1830  214.4530  154.2480 C   0  0  0  0  0  2  0  0  0  0  0  0
  158.1320  212.5770  152.9560 O   0  0  0  0  0  0  0  0  0  0  0  0
  157.4150  213.5960  150.9900 O   0  0  0  0  0  0  0  0  0  0  0  0
  158.3640  213.2800  151.7600 C   0  0  0  0  0  0  0  0  0  0  0  0
  159.6670  213.6280  151.4000 O   0  0  0  0  0  0  0  0  0  0  0  0
  160.1280  213.4880  150.0670 C   0  0  0  0  0  1  0  0  0  0  0  0
  161.6040  207.1480  148.3260 C   0  0  1  0  0  3  0  0  0  0  0  0
  162.5310  208.1210  147.8880 O   0  0  0  0  0  0  0  0  0  0  0  0
  162.1830  209.2710  148.4370 O   0  0  0  0  0  1  0  0  0  0  0  0
  161.3320  206.0640  147.2720 C   0  0  1  0  0  3  0  0  0  0  0  0
  160.4360  206.3620  145.0740 O   0  0  0  0  0  1  0  0  0  0  0  0
  160.0990  206.3590  146.4280 C   0  0  0  0  0  2  0  0  0  0  0  0
  162.4550  205.9330  146.4390 O   0  0  0  0  0  0  0  0  0  0  0  0
  162.4120  203.9330  147.5820 F   0  0  0  0  0  0  0  0  0  0  0  0
  162.3900  203.9300  145.3060 F   0  0  0  0  0  0  0  0  0  0  0  0
  162.8580  204.5840  146.4400 C   0  0  0  0  0  0  0  0  0  0  0  0
  164.2400  204.5430  146.4280 F   0  0  0  0  0  0  0  0  0  0  0  0
  1  6  1  1  0  0  0
  1 11  1  0  0  0  0
  2  7  1  0  0  0  0
  2  3  1  1  0  0  0
  3  9  1  0  0  0  0
  4 29  1  6  0  0  0
  4  2  1  0  0  0  0
  4  7  1  0  0  0  0
  6 10  1  0  0  0  0
  7  1  1  0  0  0  0
  8  5  1  0  0  0  0
  9 11  1  0  0  0  0
 10  5  1  0  0  0  0
 10 13  1  0  0  0  0
 11  8  2  0  0  0  0
 12 14  1  0  0  0  0
 13 12  2  0  0  0  0
 13 15  1  0  0  0  0
 14 16  1  0  0  0  0
 15 16  2  0  0  0  0
 17 20  1  0  0  0  0
 17 12  1  0  0  0  0
 19 20  2  0  0  0  0
 20 18  2  0  0  0  0
 22 21  1  0  0  0  0
 22 20  1  0  0  0  0
 23 22  1  0  0  0  0
 23 21  1  0  0  0  0
 24 22  1  0  0  0  0
 25 26  2  0  0  0  0
 26 24  1  0  0  0  0
 27 26  1  0  0  0  0
 28 27  1  0  0  0  0
 30 29  1  0  0  0  0
 30 31  1  0  0  0  0
 32 29  1  0  0  0  0
 33 34  1  0  0  0  0
 34 32  1  0  0  0  0
 35 38  1  0  0  0  0
 35 32  1  0  0  0  0
 37 38  1  0  0  0  0
 38 36  1  0  0  0  0
 39 38  1  0  0  0  0
M  END
>  <MODEL>
1

>  <REMARK>
 VINA RESULT:      -6.9      0.000      0.000
  Name = 
  13 active torsions:
  status: ('A' for Active; 'I' for Inactive)
    1  A    between atoms: O_1  and  C_7
    2  A    between atoms: C_7  and  O_17
    3  A    between atoms: C_10  and  N_16
    4  A    between atoms: C_12  and  C_19
    5  A    between atoms: C_12  and  C_22
    6  A    between atoms: C_12  and  O_34
    7  A    between atoms: O_13  and  C_19
    8  A    between atoms: C_15  and  O_17
    9  A    between atoms: C_15  and  S_33
   10  A    between atoms: N_16  and  S_33
   11  A    between atoms: C_18  and  C_19
   12  A    between atoms: C_23  and  C_35
   13  A    between atoms: C_32  and  O_34
                            x       y       z     vdW  Elec       q    Type
                         _______ _______ _______ _____ _____    ______ ____

>  <TORSDO>
F 13

$$$$
=
 OpenBabel11072415113D

 39 43  0  0  1  0  0  0  0  0999 V2000
  160.9570  207.0780  151.4690 C   0  0  2  0  0  3  0  0  0  0  0  0
  162.0420  206.1250  149.2770 C   0  0  2  0  0  3  0  0  0  0  0  0
  161.5370  207.4260  148.6620 C   0  0  0  0  0  2  0  0  0  0  0  0
  160.8490  205.3000  149.7190 C   0  0  2  0  0  3  0  0  0  0  0  0
  160.5230  209.5290  152.9210 C   0  0  0  0  0  2  0  0  0  0  0  0
  161.2230  206.8660  153.2780 S   0  0  0  0  0  0  0  0  0  0  0  0
  161.7290  205.9450  150.7730 C   0  0  2  0  0  3  0  0  0  0  0  0
  161.1220  209.5270  151.5970 N   0  0  0  0  0  0  0  0  0  0  0  0
  161.7490  208.5410  149.5690 N   0  0  0  0  0  2  0  0  0  0  0  0
  161.3080  208.6080  153.8340 C   0  0  2  0  0  3  0  0  0  0  0  0
  161.3320  208.4380  150.9250 C   0  0  0  0  0  0  0  0  0  0  0  0
  160.4050  209.8270  155.9350 C   0  0  0  0  0  0  0  0  0  0  0  0
  160.8110  208.7080  155.2430 C   0  0  0  0  0  0  0  0  0  0  0  0
  159.9550  209.4590  157.1060 O   0  0  0  0  0  0  0  0  0  0  0  0
  160.5480  207.6530  156.0950 C   0  0  0  0  0  3  0  0  0  0  0  0
  160.0290  208.1620  157.2360 N   0  0  0  0  0  0  0  0  0  0  0  0
  160.4580  211.1720  155.4620 N   0  0  0  0  0  2  0  0  0  0  0  0
  159.7700  213.7190  155.6620 O   0  0  0  0  0  0  0  0  0  0  0  0
  158.7460  212.1370  157.2410 O   0  0  0  0  0  0  0  0  0  0  0  0
  159.2230  212.3290  155.8260 S   0  0  0  0  0  0  0  0  0  0  0  0
  156.4990  212.6340  155.1480 C   0  0  0  0  0  2  0  0  0  0  0  0
  157.8510  212.1100  154.7060 C   0  0  0  0  0  0  0  0  0  0  0  0
  156.8010  211.1360  155.1940 C   0  0  0  0  0  2  0  0  0  0  0  0
  158.1540  211.9760  153.3090 O   0  0  0  0  0  0  0  0  0  0  0  0
  159.7060  212.8110  151.7890 O   0  0  0  0  0  0  0  0  0  0  0  0
  158.6430  212.9750  152.4490 C   0  0  0  0  0  0  0  0  0  0  0  0
  157.9540  214.1840  152.3260 O   0  0  0  0  0  0  0  0  0  0  0  0
  156.8280  214.3100  151.4740 C   0  0  0  0  0  1  0  0  0  0  0  0
  161.1880  203.8110  149.5880 C   0  0  1  0  0  3  0  0  0  0  0  0
  160.3610  202.9510  150.3460 O   0  0  0  0  0  0  0  0  0  0  0  0
  161.0260  202.6290  151.4410 O   0  0  0  0  0  1  0  0  0  0  0  0
  161.3810  203.3330  148.1400 C   0  0  1  0  0  3  0  0  0  0  0  0
  161.5330  200.9620  148.4220 O   0  0  0  0  0  1  0  0  0  0  0  0
  160.7430  201.9740  147.8780 C   0  0  0  0  0  2  0  0  0  0  0  0
  160.8410  204.2860  147.2610 O   0  0  0  0  0  0  0  0  0  0  0  0
  161.5350  205.6940  145.5740 F   0  0  0  0  0  0  0  0  0  0  0  0
  163.0550  204.3730  146.6340 F   0  0  0  0  0  0  0  0  0  0  0  0
  161.7400  204.4680  146.1930 C   0  0  0  0  0  0  0  0  0  0  0  0
  161.5190  203.4690  145.2630 F   0  0  0  0  0  0  0  0  0  0  0  0
  1 11  1  6  0  0  0
  1  6  1  0  0  0  0
  2  3  1  6  0  0  0
  2  4  1  0  0  0  0
  2  7  1  0  0  0  0
  3  9  1  0  0  0  0
  4 29  1  1  0  0  0
  4  7  1  0  0  0  0
  5 10  1  0  0  0  0
  6 10  1  0  0  0  0
  7  1  1  0  0  0  0
  8  5  1  0  0  0  0
  9 11  1  0  0  0  0
 10 13  1  0  0  0  0
 11  8  2  0  0  0  0
 12 14  1  0  0  0  0
 13 12  2  0  0  0  0
 13 15  1  0  0  0  0
 14 16  1  0  0  0  0
 15 16  2  0  0  0  0
 17 20  1  0  0  0  0
 17 12  1  0  0  0  0
 18 20  2  0  0  0  0
 20 19  2  0  0  0  0
 21 23  1  0  0  0  0
 22 21  1  0  0  0  0
 22 23  1  0  0  0  0
 22 20  1  0  0  0  0
 24 22  1  0  0  0  0
 25 26  2  0  0  0  0
 26 24  1  0  0  0  0
 27 26  1  0  0  0  0
 28 27  1  0  0  0  0
 29 30  1  0  0  0  0
 30 31  1  0  0  0  0
 32 29  1  0  0  0  0
 34 32  1  0  0  0  0
 34 33  1  0  0  0  0
 35 32  1  0  0  0  0
 36 38  1  0  0  0  0
 38 37  1  0  0  0  0
 38 35  1  0  0  0  0
 39 38  1  0  0  0  0
M  END
>  <MODEL>
2

>  <REMARK>
 VINA RESULT:      -6.7      2.481      3.180
  Name = 
  13 active torsions:
  status: ('A' for Active; 'I' for Inactive)
    1  A    between atoms: O_1  and  C_7
    2  A    between atoms: C_7  and  O_17
    3  A    between atoms: C_10  and  N_16
    4  A    between atoms: C_12  and  C_19
    5  A    between atoms: C_12  and  C_22
    6  A    between atoms: C_12  and  O_34
    7  A    between atoms: O_13  and  C_19
    8  A    between atoms: C_15  and  O_17
    9  A    between atoms: C_15  and  S_33
   10  A    between atoms: N_16  and  S_33
   11  A    between atoms: C_18  and  C_19
   12  A    between atoms: C_23  and  C_35
   13  A    between atoms: C_32  and  O_34
                            x       y       z     vdW  Elec       q    Type
                         _______ _______ _______ _____ _____    ______ ____

>  <TORSDO>
F 13

$$$$
=
 OpenBabel11072415113D

 39 43  0  0  1  0  0  0  0  0999 V2000
  161.4230  204.2670  149.7980 C   0  0  2  0  0  3  0  0  0  0  0  0
  160.4920  202.0300  148.7890 C   0  0  2  0  0  3  0  0  0  0  0  0
  161.0760  201.4120  150.0540 C   0  0  0  0  0  2  0  0  0  0  0  0
  161.6250  202.5960  147.9540 C   0  0  2  0  0  3  0  0  0  0  0  0
  161.8000  205.6610  152.2920 C   0  0  0  0  0  2  0  0  0  0  0  0
  161.0080  206.0560  149.6600 S   0  0  0  0  0  0  0  0  0  0  0  0
  160.6800  203.5520  148.6570 C   0  0  2  0  0  3  0  0  0  0  0  0
  161.3090  204.2950  152.2530 N   0  0  0  0  0  0  0  0  0  0  0  0
  160.8210  202.2590  151.2060 N   0  0  0  0  0  2  0  0  0  0  0  0
  160.9220  206.5410  151.4220 C   0  0  2  0  0  3  0  0  0  0  0  0
  161.1260  203.6470  151.1450 C   0  0  0  0  0  0  0  0  0  0  0  0
  161.2110  208.7930  152.6720 C   0  0  0  0  0  0  0  0  0  0  0  0
  161.3080  207.9810  151.5640 C   0  0  0  0  0  0  0  0  0  0  0  0
  161.7490  209.9520  152.3940 O   0  0  0  0  0  0  0  0  0  0  0  0
  161.9590  208.7510  150.6200 C   0  0  0  0  0  3  0  0  0  0  0  0
  162.2050  209.9610  151.1720 N   0  0  0  0  0  0  0  0  0  0  0  0
  160.6260  208.4380  153.9240 N   0  0  0  0  0  2  0  0  0  0  0  0
  162.0800  210.0720  155.4130 O   0  0  0  0  0  0  0  0  0  0  0  0
  160.3980  208.6880  156.5530 O   0  0  0  0  0  0  0  0  0  0  0  0
  160.7050  209.4760  155.3080 S   0  0  0  0  0  0  0  0  0  0  0  0
  158.9620  211.4070  156.4060 C   0  0  0  0  0  2  0  0  0  0  0  0
  159.5130  210.7930  155.1350 C   0  0  0  0  0  0  0  0  0  0  0  0
  158.1170  210.4310  155.5890 C   0  0  0  0  0  2  0  0  0  0  0  0
  159.5420  211.5530  153.9170 O   0  0  0  0  0  0  0  0  0  0  0  0
  159.2210  213.6990  154.7590 O   0  0  0  0  0  0  0  0  0  0  0  0
  159.2540  212.9210  153.7650 C   0  0  0  0  0  0  0  0  0  0  0  0
  158.9840  213.4380  152.4970 O   0  0  0  0  0  0  0  0  0  0  0  0
  159.7390  213.0460  151.3620 C   0  0  0  0  0  1  0  0  0  0  0  0
  161.2610  202.4910  146.4690 C   0  0  1  0  0  3  0  0  0  0  0  0
  159.9970  201.9120  146.2140 O   0  0  0  0  0  0  0  0  0  0  0  0
  160.1780  200.9410  145.3360 O   0  0  0  0  0  1  0  0  0  0  0  0
  161.5000  203.7800  145.6680 C   0  0  1  0  0  3  0  0  0  0  0  0
  159.9120  205.3380  144.7870 O   0  0  0  0  0  1  0  0  0  0  0  0
  160.4100  204.0440  144.6360 C   0  0  0  0  0  2  0  0  0  0  0  0
  161.5860  204.8670  146.5530 O   0  0  0  0  0  0  0  0  0  0  0  0
  163.8760  204.6300  146.4420 F   0  0  0  0  0  0  0  0  0  0  0  0
  162.8340  206.1410  145.0960 F   0  0  0  0  0  0  0  0  0  0  0  0
  162.8150  205.5200  146.3400 C   0  0  0  0  0  0  0  0  0  0  0  0
  162.9660  206.4900  147.3140 F   0  0  0  0  0  0  0  0  0  0  0  0
  1  6  1  1  0  0  0
  1 11  1  0  0  0  0
  2  3  1  1  0  0  0
  3  9  1  0  0  0  0
  4 29  1  6  0  0  0
  4  7  1  0  0  0  0
  4  2  1  0  0  0  0
  6 10  1  0  0  0  0
  7  2  1  0  0  0  0
  7  1  1  0  0  0  0
  8  5  1  0  0  0  0
 10 13  1  0  0  0  0
 10  5  1  0  0  0  0
 11  9  1  0  0  0  0
 11  8  2  0  0  0  0
 12 17  1  0  0  0  0
 13 12  2  0  0  0  0
 14 12  1  0  0  0  0
 15 16  2  0  0  0  0
 15 13  1  0  0  0  0
 16 14  1  0  0  0  0
 17 20  1  0  0  0  0
 20 18  2  0  0  0  0
 20 19  2  0  0  0  0
 22 20  1  0  0  0  0
 22 23  1  0  0  0  0
 22 21  1  0  0  0  0
 23 21  1  0  0  0  0
 24 22  1  0  0  0  0
 26 24  1  0  0  0  0
 26 25  2  0  0  0  0
 27 26  1  0  0  0  0
 28 27  1  0  0  0  0
 30 29  1  0  0  0  0
 31 30  1  0  0  0  0
 32 29  1  0  0  0  0
 32 35  1  0  0  0  0
 34 33  1  0  0  0  0
 34 32  1  0  0  0  0
 37 38  1  0  0  0  0
 38 36  1  0  0  0  0
 38 35  1  0  0  0  0
 38 39  1  0  0  0  0
M  END
>  <MODEL>
3

>  <REMARK>
 VINA RESULT:      -6.6      2.530      3.942
  Name = 
  13 active torsions:
  status: ('A' for Active; 'I' for Inactive)
    1  A    between atoms: O_1  and  C_7
    2  A    between atoms: C_7  and  O_17
    3  A    between atoms: C_10  and  N_16
    4  A    between atoms: C_12  and  C_19
    5  A    between atoms: C_12  and  C_22
    6  A    between atoms: C_12  and  O_34
    7  A    between atoms: O_13  and  C_19
    8  A    between atoms: C_15  and  O_17
    9  A    between atoms: C_15  and  S_33
   10  A    between atoms: N_16  and  S_33
   11  A    between atoms: C_18  and  C_19
   12  A    between atoms: C_23  and  C_35
   13  A    between atoms: C_32  and  O_34
                            x       y       z     vdW  Elec       q    Type
                         _______ _______ _______ _____ _____    ______ ____

>  <TORSDO>
F 13

$$$$
=
 OpenBabel11072415113D

 39 43  0  0  1  0  0  0  0  0999 V2000
  160.3480  208.8960  154.0260 C   0  0  2  0  0  3  0  0  0  0  0  0
  160.4990  210.2390  156.2760 C   0  0  2  0  0  3  0  0  0  0  0  0
  160.3940  208.8570  156.9120 C   0  0  0  0  0  2  0  0  0  0  0  0
  159.2110  210.5310  155.5310 C   0  0  2  0  0  3  0  0  0  0  0  0
  161.1830  206.4370  152.7760 C   0  0  0  0  0  2  0  0  0  0  0  0
  160.9010  209.1560  152.2890 S   0  0  0  0  0  0  0  0  0  0  0  0
  160.4730  210.2540  154.7370 C   0  0  2  0  0  3  0  0  0  0  0  0
  161.4360  206.6980  154.1830 N   0  0  0  0  0  0  0  0  0  0  0  0
  161.1960  207.8910  156.1820 N   0  0  0  0  0  2  0  0  0  0  0  0
  161.7460  207.5700  151.9410 C   0  0  2  0  0  3  0  0  0  0  0  0
  161.0750  207.7970  154.7680 C   0  0  0  0  0  0  0  0  0  0  0  0
  160.9540  206.2310  149.8680 C   0  0  0  0  0  0  0  0  0  0  0  0
  161.6400  207.2570  150.4810 C   0  0  0  0  0  0  0  0  0  0  0  0
  161.0440  206.3800  148.5720 O   0  0  0  0  0  0  0  0  0  0  0  0
  162.1240  208.0260  149.4410 C   0  0  0  0  0  3  0  0  0  0  0  0
  161.7400  207.4440  148.2820 N   0  0  0  0  0  0  0  0  0  0  0  0
  160.2550  205.1780  150.5270 N   0  0  0  0  0  2  0  0  0  0  0  0
  160.2140  202.9280  151.9190 O   0  0  0  0  0  0  0  0  0  0  0  0
  162.4100  203.8330  151.2850 O   0  0  0  0  0  0  0  0  0  0  0  0
  160.9850  203.6390  150.8430 S   0  0  0  0  0  0  0  0  0  0  0  0
  159.7640  201.7370  149.1500 C   0  0  0  0  0  2  0  0  0  0  0  0
  160.9570  202.6500  149.3580 C   0  0  0  0  0  0  0  0  0  0  0  0
  161.1080  201.1640  149.5990 C   0  0  0  0  0  2  0  0  0  0  0  0
  161.7070  203.1290  148.2320 O   0  0  0  0  0  0  0  0  0  0  0  0
  160.9540  202.0140  146.3330 O   0  0  0  0  0  0  0  0  0  0  0  0
  161.3230  203.0900  146.8800 C   0  0  0  0  0  0  0  0  0  0  0  0
  161.3600  204.2560  146.1130 O   0  0  0  0  0  0  0  0  0  0  0  0
  162.5880  204.8800  145.7740 C   0  0  0  0  0  1  0  0  0  0  0  0
  158.9340  212.0390  155.5720 C   0  0  1  0  0  3  0  0  0  0  0  0
  160.0750  212.8380  155.8110 O   0  0  0  0  0  0  0  0  0  0  0  0
  159.8000  213.6180  156.8420 O   0  0  0  0  0  1  0  0  0  0  0  0
  158.0760  212.5540  154.4060 C   0  0  1  0  0  3  0  0  0  0  0  0
  156.4770  212.9890  156.1320 O   0  0  0  0  0  1  0  0  0  0  0  0
  156.9010  213.4060  154.8700 C   0  0  0  0  0  2  0  0  0  0  0  0
  158.8830  213.2990  153.5300 O   0  0  0  0  0  0  0  0  0  0  0  0
  160.1580  212.6420  151.7260 F   0  0  0  0  0  0  0  0  0  0  0  0
  158.3850  211.3700  152.3750 F   0  0  0  0  0  0  0  0  0  0  0  0
  158.8810  212.6650  152.2730 C   0  0  0  0  0  0  0  0  0  0  0  0
  158.0570  213.3820  151.4250 F   0  0  0  0  0  0  0  0  0  0  0  0
  1  6  1  6  0  0  0
  1  7  1  0  0  0  0
  1 11  1  0  0  0  0
  2  3  1  6  0  0  0
  4 29  1  1  0  0  0
  4  2  1  0  0  0  0
  5  8  1  0  0  0  0
  7  4  1  0  0  0  0
  7  2  1  0  0  0  0
  8 11  2  0  0  0  0
  9  3  1  0  0  0  0
 10  6  1  0  0  0  0
 10  5  1  0  0  0  0
 11  9  1  0  0  0  0
 12 13  2  0  0  0  0
 12 17  1  0  0  0  0
 13 10  1  0  0  0  0
 14 12  1  0  0  0  0
 15 13  1  0  0  0  0
 16 14  1  0  0  0  0
 16 15  2  0  0  0  0
 17 20  1  0  0  0  0
 20 19  2  0  0  0  0
 20 18  2  0  0  0  0
 21 22  1  0  0  0  0
 21 23  1  0  0  0  0
 22 23  1  0  0  0  0
 22 20  1  0  0  0  0
 24 22  1  0  0  0  0
 25 26  2  0  0  0  0
 26 24  1  0  0  0  0
 27 26  1  0  0  0  0
 28 27  1  0  0  0  0
 29 30  1  0  0  0  0
 30 31  1  0  0  0  0
 32 34  1  0  0  0  0
 32 29  1  0  0  0  0
 34 33  1  0  0  0  0
 35 32  1  0  0  0  0
 36 38  1  0  0  0  0
 38 37  1  0  0  0  0
 38 35  1  0  0  0  0
 39 38  1  0  0  0  0
M  END
>  <MODEL>
4

>  <REMARK>
 VINA RESULT:      -6.5      3.788      9.388
  Name = 
  13 active torsions:
  status: ('A' for Active; 'I' for Inactive)
    1  A    between atoms: O_1  and  C_7
    2  A    between atoms: C_7  and  O_17
    3  A    between atoms: C_10  and  N_16
    4  A    between atoms: C_12  and  C_19
    5  A    between atoms: C_12  and  C_22
    6  A    between atoms: C_12  and  O_34
    7  A    between atoms: O_13  and  C_19
    8  A    between atoms: C_15  and  O_17
    9  A    between atoms: C_15  and  S_33
   10  A    between atoms: N_16  and  S_33
   11  A    between atoms: C_18  and  C_19
   12  A    between atoms: C_23  and  C_35
   13  A    between atoms: C_32  and  O_34
                            x       y       z     vdW  Elec       q    Type
                         _______ _______ _______ _____ _____    ______ ____

>  <TORSDO>
F 13

$$$$
=
 OpenBabel11072415113D

 39 43  0  0  1  0  0  0  0  0999 V2000
  160.9790  206.9180  151.4040 C   0  0  2  0  0  3  0  0  0  0  0  0
  162.0390  206.1500  149.1290 C   0  0  2  0  0  3  0  0  0  0  0  0
  161.5100  207.4880  148.6240 C   0  0  0  0  0  2  0  0  0  0  0  0
  160.8610  205.2790  149.5240 C   0  0  2  0  0  3  0  0  0  0  0  0
  160.5430  209.2440  153.0480 C   0  0  0  0  0  2  0  0  0  0  0  0
  161.2770  206.5700  153.1880 S   0  0  0  0  0  0  0  0  0  0  0  0
  161.7520  205.8510  150.6110 C   0  0  2  0  0  3  0  0  0  0  0  0
  161.1200  209.3510  151.7190 N   0  0  0  0  0  0  0  0  0  0  0  0
  161.7250  208.5320  149.6120 N   0  0  0  0  0  2  0  0  0  0  0  0
  161.3520  208.2650  153.8750 C   0  0  2  0  0  3  0  0  0  0  0  0
  161.3300  208.3200  150.9620 C   0  0  0  0  0  0  0  0  0  0  0  0
  160.6450  209.3160  156.1360 C   0  0  0  0  0  0  0  0  0  0  0  0
  160.8770  208.2500  155.2950 C   0  0  0  0  0  0  0  0  0  0  0  0
  160.1450  208.8660  157.2580 O   0  0  0  0  0  0  0  0  0  0  0  0
  160.4600  207.1430  156.0070 C   0  0  0  0  0  3  0  0  0  0  0  0
  160.0230  207.5680  157.2150 N   0  0  0  0  0  0  0  0  0  0  0  0
  160.8990  210.6880  155.8420 N   0  0  0  0  0  2  0  0  0  0  0  0
  160.3860  213.2060  156.4710 O   0  0  0  0  0  0  0  0  0  0  0  0
  158.7590  211.5030  157.1770 O   0  0  0  0  0  0  0  0  0  0  0  0
  159.7080  211.9210  156.0860 S   0  0  0  0  0  0  0  0  0  0  0  0
  159.5760  212.6250  153.3560 C   0  0  0  0  0  2  0  0  0  0  0  0
  158.7950  212.1770  154.5750 C   0  0  0  0  0  0  0  0  0  0  0  0
  158.7170  213.6210  154.1330 C   0  0  0  0  0  2  0  0  0  0  0  0
  157.5600  211.4610  154.4210 O   0  0  0  0  0  0  0  0  0  0  0  0
  155.6250  212.7490  154.3130 O   0  0  0  0  0  0  0  0  0  0  0  0
  156.2920  211.8470  154.8910 C   0  0  0  0  0  0  0  0  0  0  0  0
  155.7580  211.2390  156.0290 O   0  0  0  0  0  0  0  0  0  0  0  0
  155.2410  212.0060  157.1030 C   0  0  0  0  0  1  0  0  0  0  0  0
  161.2140  203.8090  149.2730 C   0  0  1  0  0  3  0  0  0  0  0  0
  160.2960  202.8830  149.8180 O   0  0  0  0  0  0  0  0  0  0  0  0
  160.8030  202.4510  150.9600 O   0  0  0  0  0  1  0  0  0  0  0  0
  161.5920  203.4900  147.8180 C   0  0  1  0  0  3  0  0  0  0  0  0
  160.2300  201.9130  146.6410 O   0  0  0  0  0  1  0  0  0  0  0  0
  161.3570  202.0290  147.4540 C   0  0  0  0  0  2  0  0  0  0  0  0
  160.8530  204.3160  146.9550 O   0  0  0  0  0  0  0  0  0  0  0  0
  161.6660  203.9760  144.8260 F   0  0  0  0  0  0  0  0  0  0  0  0
  161.3840  206.0990  145.5980 F   0  0  0  0  0  0  0  0  0  0  0  0
  161.7120  204.7930  145.9480 C   0  0  0  0  0  0  0  0  0  0  0  0
  163.0040  204.7860  146.4390 F   0  0  0  0  0  0  0  0  0  0  0  0
  1 11  1  6  0  0  0
  1  6  1  0  0  0  0
  2  3  1  1  0  0  0
  2  4  1  0  0  0  0
  2  7  1  0  0  0  0
  3  9  1  0  0  0  0
  4 29  1  6  0  0  0
  4  7  1  0  0  0  0
  5 10  1  0  0  0  0
  6 10  1  0  0  0  0
  7  1  1  0  0  0  0
  8  5  1  0  0  0  0
  9 11  1  0  0  0  0
 10 13  1  0  0  0  0
 11  8  2  0  0  0  0
 12 14  1  0  0  0  0
 13 15  1  0  0  0  0
 13 12  2  0  0  0  0
 15 16  2  0  0  0  0
 16 14  1  0  0  0  0
 17 20  1  0  0  0  0
 17 12  1  0  0  0  0
 20 18  2  0  0  0  0
 20 19  2  0  0  0  0
 21 23  1  0  0  0  0
 21 22  1  0  0  0  0
 22 20  1  0  0  0  0
 23 22  1  0  0  0  0
 24 22  1  0  0  0  0
 24 26  1  0  0  0  0
 25 26  2  0  0  0  0
 26 27  1  0  0  0  0
 27 28  1  0  0  0  0
 29 30  1  0  0  0  0
 30 31  1  0  0  0  0
 32 29  1  0  0  0  0
 33 34  1  0  0  0  0
 34 32  1  0  0  0  0
 35 32  1  0  0  0  0
 36 38  1  0  0  0  0
 37 38  1  0  0  0  0
 38 39  1  0  0  0  0
 38 35  1  0  0  0  0
M  END
>  <MODEL>
5

>  <REMARK>
 VINA RESULT:      -6.5      2.478      3.578
  Name = 
  13 active torsions:
  status: ('A' for Active; 'I' for Inactive)
    1  A    between atoms: O_1  and  C_7
    2  A    between atoms: C_7  and  O_17
    3  A    between atoms: C_10  and  N_16
    4  A    between atoms: C_12  and  C_19
    5  A    between atoms: C_12  and  C_22
    6  A    between atoms: C_12  and  O_34
    7  A    between atoms: O_13  and  C_19
    8  A    between atoms: C_15  and  O_17
    9  A    between atoms: C_15  and  S_33
   10  A    between atoms: N_16  and  S_33
   11  A    between atoms: C_18  and  C_19
   12  A    between atoms: C_23  and  C_35
   13  A    between atoms: C_32  and  O_34
                            x       y       z     vdW  Elec       q    Type
                         _______ _______ _______ _____ _____    ______ ____

>  <TORSDO>
F 13

$$$$
=
 OpenBabel11072415113D

 39 43  0  0  1  0  0  0  0  0999 V2000
  161.7040  208.0970  151.5240 C   0  0  2  0  0  3  0  0  0  0  0  0
  161.1750  210.6650  151.6480 C   0  0  2  0  0  3  0  0  0  0  0  0
  162.0980  210.7420  150.4360 C   0  0  0  0  0  2  0  0  0  0  0  0
  161.9810  210.1980  152.8450 C   0  0  2  0  0  3  0  0  0  0  0  0
  162.1590  205.9490  149.6590 C   0  0  0  0  0  2  0  0  0  0  0  0
  160.8570  206.5450  152.0380 S   0  0  0  0  0  0  0  0  0  0  0  0
  160.9690  209.2530  152.2240 C   0  0  2  0  0  3  0  0  0  0  0  0
  162.0090  207.3230  149.2120 N   0  0  0  0  0  0  0  0  0  0  0  0
  161.8490  209.6360  149.5280 N   0  0  0  0  0  2  0  0  0  0  0  0
  160.9610  205.5560  150.5020 C   0  0  2  0  0  3  0  0  0  0  0  0
  161.7990  208.3070  150.0300 C   0  0  0  0  0  0  0  0  0  0  0  0
  161.1240  203.0180  150.0020 C   0  0  0  0  0  0  0  0  0  0  0  0
  161.0100  204.1000  150.8470 C   0  0  0  0  0  0  0  0  0  0  0  0
  161.2280  201.9310  150.7210 O   0  0  0  0  0  0  0  0  0  0  0  0
  161.0710  203.5610  152.1180 C   0  0  0  0  0  3  0  0  0  0  0  0
  161.1970  202.2200  151.9930 N   0  0  0  0  0  0  0  0  0  0  0  0
  161.1330  203.0640  148.5770 N   0  0  0  0  0  2  0  0  0  0  0  0
  159.2500  201.3020  147.9850 O   0  0  0  0  0  0  0  0  0  0  0  0
  161.5890  200.5650  147.8190 O   0  0  0  0  0  0  0  0  0  0  0  0
  160.6440  201.7160  147.6060 S   0  0  0  0  0  0  0  0  0  0  0  0
  159.3250  202.3080  145.1810 C   0  0  0  0  0  2  0  0  0  0  0  0
  160.6620  202.1830  145.8840 C   0  0  0  0  0  0  0  0  0  0  0  0
  160.2150  201.0900  144.9390 C   0  0  0  0  0  2  0  0  0  0  0  0
  161.8000  202.9210  145.4130 O   0  0  0  0  0  0  0  0  0  0  0  0
  162.8680  204.7930  146.2900 O   0  0  0  0  0  0  0  0  0  0  0  0
  162.0070  204.3090  145.5050 C   0  0  0  0  0  0  0  0  0  0  0  0
  161.2400  205.1790  144.7270 O   0  0  0  0  0  0  0  0  0  0  0  0
  160.4540  206.2010  145.3180 C   0  0  0  0  0  1  0  0  0  0  0  0
  161.4030  210.8260  154.1190 C   0  0  1  0  0  3  0  0  0  0  0  0
  160.0940  211.3390  153.9780 O   0  0  0  0  0  0  0  0  0  0  0  0
  159.9640  212.3290  154.8440 O   0  0  0  0  0  1  0  0  0  0  0  0
  161.5770  209.9670  155.3800 C   0  0  1  0  0  3  0  0  0  0  0  0
  163.4320  210.7160  156.6930 O   0  0  0  0  0  1  0  0  0  0  0  0
  162.0420  210.7750  156.5850 C   0  0  0  0  0  2  0  0  0  0  0  0
  160.3610  209.3300  155.6790 O   0  0  0  0  0  0  0  0  0  0  0  0
  159.4630  207.2110  155.7870 F   0  0  0  0  0  0  0  0  0  0  0  0
  161.6050  207.4900  155.0700 F   0  0  0  0  0  0  0  0  0  0  0  0
  160.6180  207.9680  155.9260 C   0  0  0  0  0  0  0  0  0  0  0  0
  161.0700  207.8390  157.2260 F   0  0  0  0  0  0  0  0  0  0  0  0
  1 11  1  6  0  0  0
  1  6  1  0  0  0  0
  1  7  1  0  0  0  0
  2  3  1  6  0  0  0
  2  7  1  0  0  0  0
  2  4  1  0  0  0  0
  4 29  1  1  0  0  0
  5 10  1  0  0  0  0
  7  4  1  0  0  0  0
  8  5  1  0  0  0  0
  8 11  2  0  0  0  0
  9 11  1  0  0  0  0
  9  3  1  0  0  0  0
 10 13  1  0  0  0  0
 10  6  1  0  0  0  0
 12 14  1  0  0  0  0
 12 13  2  0  0  0  0
 13 15  1  0  0  0  0
 14 16  1  0  0  0  0
 16 15  2  0  0  0  0
 17 12  1  0  0  0  0
 20 19  2  0  0  0  0
 20 18  2  0  0  0  0
 20 17  1  0  0  0  0
 21 22  1  0  0  0  0
 22 20  1  0  0  0  0
 23 21  1  0  0  0  0
 23 22  1  0  0  0  0
 24 26  1  0  0  0  0
 24 22  1  0  0  0  0
 26 25  2  0  0  0  0
 27 28  1  0  0  0  0
 27 26  1  0  0  0  0
 29 32  1  0  0  0  0
 30 29  1  0  0  0  0
 30 31  1  0  0  0  0
 32 35  1  0  0  0  0
 32 34  1  0  0  0  0
 34 33  1  0  0  0  0
 35 38  1  0  0  0  0
 36 38  1  0  0  0  0
 37 38  1  0  0  0  0
 38 39  1  0  0  0  0
M  END
>  <MODEL>
6

>  <REMARK>
 VINA RESULT:      -6.4      4.225      9.845
  Name = 
  13 active torsions:
  status: ('A' for Active; 'I' for Inactive)
    1  A    between atoms: O_1  and  C_7
    2  A    between atoms: C_7  and  O_17
    3  A    between atoms: C_10  and  N_16
    4  A    between atoms: C_12  and  C_19
    5  A    between atoms: C_12  and  C_22
    6  A    between atoms: C_12  and  O_34
    7  A    between atoms: O_13  and  C_19
    8  A    between atoms: C_15  and  O_17
    9  A    between atoms: C_15  and  S_33
   10  A    between atoms: N_16  and  S_33
   11  A    between atoms: C_18  and  C_19
   12  A    between atoms: C_23  and  C_35
   13  A    between atoms: C_32  and  O_34
                            x       y       z     vdW  Elec       q    Type
                         _______ _______ _______ _____ _____    ______ ____

>  <TORSDO>
F 13

$$$$
=
 OpenBabel11072415113D

 39 43  0  0  1  0  0  0  0  0999 V2000
  161.5360  204.6410  150.4290 C   0  0  2  0  0  3  0  0  0  0  0  0
  160.5980  202.3560  149.5410 C   0  0  2  0  0  3  0  0  0  0  0  0
  161.0850  201.8260  150.8850 C   0  0  0  0  0  2  0  0  0  0  0  0
  161.7980  202.8220  148.7380 C   0  0  2  0  0  3  0  0  0  0  0  0
  161.8050  206.2210  152.8240 C   0  0  0  0  0  2  0  0  0  0  0  0
  161.1870  206.4230  150.1250 S   0  0  0  0  0  0  0  0  0  0  0  0
  160.8420  203.8570  149.3020 C   0  0  2  0  0  3  0  0  0  0  0  0
  161.2740  204.8690  152.8610 N   0  0  0  0  0  0  0  0  0  0  0  0
  160.7870  202.7690  151.9490 N   0  0  0  0  0  2  0  0  0  0  0  0
  161.0100  207.0500  151.8340 C   0  0  2  0  0  3  0  0  0  0  0  0
  161.1390  204.1390  151.7980 C   0  0  0  0  0  0  0  0  0  0  0  0
  161.5050  209.3220  152.9790 C   0  0  0  0  0  0  0  0  0  0  0  0
  161.4310  208.4860  151.8870 C   0  0  0  0  0  0  0  0  0  0  0  0
  162.0140  210.4660  152.6000 O   0  0  0  0  0  0  0  0  0  0  0  0
  161.9510  209.2260  150.8420 C   0  0  0  0  0  3  0  0  0  0  0  0
  162.2890  210.4430  151.3250 N   0  0  0  0  0  0  0  0  0  0  0  0
  161.1020  209.0030  154.3090 N   0  0  0  0  0  2  0  0  0  0  0  0
  158.8530  208.8480  155.6950 O   0  0  0  0  0  0  0  0  0  0  0  0
  159.0960  210.7270  154.1300 O   0  0  0  0  0  0  0  0  0  0  0  0
  159.8160  209.8420  155.1110 S   0  0  0  0  0  0  0  0  0  0  0  0
  161.9150  211.3290  156.2750 C   0  0  0  0  0  2  0  0  0  0  0  0
  160.4870  210.8430  156.4270 C   0  0  0  0  0  0  0  0  0  0  0  0
  161.5880  210.1720  157.2180 C   0  0  0  0  0  2  0  0  0  0  0  0
  159.5570  211.5720  157.2420 O   0  0  0  0  0  0  0  0  0  0  0  0
  158.5550  213.5460  156.5230 O   0  0  0  0  0  0  0  0  0  0  0  0
  158.4500  212.3190  156.8010 C   0  0  0  0  0  0  0  0  0  0  0  0
  157.2010  211.7060  156.6800 O   0  0  0  0  0  0  0  0  0  0  0  0
  156.2650  212.1220  155.7000 C   0  0  0  0  0  1  0  0  0  0  0  0
  161.5210  202.6080  147.2460 C   0  0  1  0  0  3  0  0  0  0  0  0
  160.3970  201.7980  146.9680 O   0  0  0  0  0  0  0  0  0  0  0  0
  160.8290  200.5550  146.8410 O   0  0  0  0  0  1  0  0  0  0  0  0
  161.5530  203.8950  146.4070 C   0  0  1  0  0  3  0  0  0  0  0  0
  163.8240  204.3460  145.8050 O   0  0  0  0  0  1  0  0  0  0  0  0
  162.7970  204.7360  146.6640 C   0  0  0  0  0  2  0  0  0  0  0  0
  161.4800  203.5630  145.0440 O   0  0  0  0  0  0  0  0  0  0  0  0
  161.2900  205.1420  143.3770 F   0  0  0  0  0  0  0  0  0  0  0  0
  159.4970  203.8440  143.9080 F   0  0  0  0  0  0  0  0  0  0  0  0
  160.6280  204.4830  144.4040 C   0  0  0  0  0  0  0  0  0  0  0  0
  160.2250  205.4220  145.3350 F   0  0  0  0  0  0  0  0  0  0  0  0
  1  6  1  1  0  0  0
  1 11  1  0  0  0  0
  2  3  1  1  0  0  0
  3  9  1  0  0  0  0
  4 29  1  6  0  0  0
  4  7  1  0  0  0  0
  4  2  1  0  0  0  0
  5  8  1  0  0  0  0
  6 10  1  0  0  0  0
  7  2  1  0  0  0  0
  7  1  1  0  0  0  0
 10 13  1  0  0  0  0
 10  5  1  0  0  0  0
 11  9  1  0  0  0  0
 11  8  2  0  0  0  0
 12 17  1  0  0  0  0
 13 12  2  0  0  0  0
 14 12  1  0  0  0  0
 15 16  2  0  0  0  0
 15 13  1  0  0  0  0
 16 14  1  0  0  0  0
 17 20  1  0  0  0  0
 19 20  2  0  0  0  0
 20 18  2  0  0  0  0
 20 22  1  0  0  0  0
 21 22  1  0  0  0  0
 21 23  1  0  0  0  0
 22 23  1  0  0  0  0
 22 24  1  0  0  0  0
 25 26  2  0  0  0  0
 26 24  1  0  0  0  0
 27 26  1  0  0  0  0
 28 27  1  0  0  0  0
 30 29  1  0  0  0  0
 31 30  1  0  0  0  0
 32 34  1  0  0  0  0
 32 29  1  0  0  0  0
 33 34  1  0  0  0  0
 35 32  1  0  0  0  0
 36 38  1  0  0  0  0
 37 38  1  0  0  0  0
 38 35  1  0  0  0  0
 38 39  1  0  0  0  0
M  END
>  <MODEL>
7

>  <REMARK>
 VINA RESULT:      -6.3      2.749      4.373
  Name = 
  13 active torsions:
  status: ('A' for Active; 'I' for Inactive)
    1  A    between atoms: O_1  and  C_7
    2  A    between atoms: C_7  and  O_17
    3  A    between atoms: C_10  and  N_16
    4  A    between atoms: C_12  and  C_19
    5  A    between atoms: C_12  and  C_22
    6  A    between atoms: C_12  and  O_34
    7  A    between atoms: O_13  and  C_19
    8  A    between atoms: C_15  and  O_17
    9  A    between atoms: C_15  and  S_33
   10  A    between atoms: N_16  and  S_33
   11  A    between atoms: C_18  and  C_19
   12  A    between atoms: C_23  and  C_35
   13  A    between atoms: C_32  and  O_34
                            x       y       z     vdW  Elec       q    Type
                         _______ _______ _______ _____ _____    ______ ____

>  <TORSDO>
F 13

$$$$
=
 OpenBabel11072415113D

 39 43  0  0  1  0  0  0  0  0999 V2000
  160.4620  208.9210  154.1700 C   0  0  2  0  0  3  0  0  0  0  0  0
  160.5240  210.0720  156.5280 C   0  0  2  0  0  3  0  0  0  0  0  0
  160.3550  208.6460  157.0420 C   0  0  0  0  0  2  0  0  0  0  0  0
  159.2820  210.4570  155.7460 C   0  0  2  0  0  3  0  0  0  0  0  0
  161.3080  206.5520  152.7650 C   0  0  0  0  0  2  0  0  0  0  0  0
  161.1110  209.3070  152.4910 S   0  0  0  0  0  0  0  0  0  0  0  0
  160.5790  210.2130  154.9970 C   0  0  2  0  0  3  0  0  0  0  0  0
  161.4920  206.6900  154.1990 N   0  0  0  0  0  0  0  0  0  0  0  0
  161.1740  207.7220  156.2750 N   0  0  0  0  0  2  0  0  0  0  0  0
  161.9380  207.7340  152.0560 C   0  0  2  0  0  3  0  0  0  0  0  0
  161.1240  207.7470  154.8540 C   0  0  0  0  0  0  0  0  0  0  0  0
  161.9500  206.3700  149.8520 C   0  0  0  0  0  0  0  0  0  0  0  0
  161.9020  207.5440  150.5710 C   0  0  0  0  0  0  0  0  0  0  0  0
  161.7930  206.6460  148.5830 O   0  0  0  0  0  0  0  0  0  0  0  0
  161.6890  208.5270  149.6240 C   0  0  0  0  0  3  0  0  0  0  0  0
  161.6370  207.9300  148.4120 N   0  0  0  0  0  0  0  0  0  0  0  0
  162.1350  205.0630  150.3910 N   0  0  0  0  0  2  0  0  0  0  0  0
  159.5280  204.6150  150.3580 O   0  0  0  0  0  0  0  0  0  0  0  0
  160.9120  203.1740  151.7910 O   0  0  0  0  0  0  0  0  0  0  0  0
  160.8480  203.9080  150.4780 S   0  0  0  0  0  0  0  0  0  0  0  0
  159.8820  201.7370  148.9540 C   0  0  0  0  0  2  0  0  0  0  0  0
  161.0040  202.7380  149.1400 C   0  0  0  0  0  0  0  0  0  0  0  0
  161.2050  201.3070  149.5860 C   0  0  0  0  0  2  0  0  0  0  0  0
  161.8300  203.1150  148.0270 O   0  0  0  0  0  0  0  0  0  0  0  0
  161.2060  202.5630  145.8540 O   0  0  0  0  0  0  0  0  0  0  0  0
  161.4030  203.4500  146.7300 C   0  0  0  0  0  0  0  0  0  0  0  0
  161.2030  204.7890  146.3890 O   0  0  0  0  0  0  0  0  0  0  0  0
  161.8380  205.3670  145.2600 C   0  0  0  0  0  1  0  0  0  0  0  0
  159.0370  211.9620  155.8970 C   0  0  1  0  0  3  0  0  0  0  0  0
  160.2120  212.7440  155.9720 O   0  0  0  0  0  0  0  0  0  0  0  0
  160.1740  213.4040  157.1160 O   0  0  0  0  0  1  0  0  0  0  0  0
  157.9990  212.5340  154.9190 C   0  0  1  0  0  3  0  0  0  0  0  0
  158.9610  212.5230  152.7270 O   0  0  0  0  0  1  0  0  0  0  0  0
  158.6320  213.3530  153.8000 C   0  0  0  0  0  2  0  0  0  0  0  0
  157.2510  211.4810  154.3680 O   0  0  0  0  0  0  0  0  0  0  0  0
  155.2960  212.6170  153.9240 F   0  0  0  0  0  0  0  0  0  0  0  0
  155.2060  210.4560  154.6350 F   0  0  0  0  0  0  0  0  0  0  0  0
  155.9000  211.6580  154.7250 C   0  0  0  0  0  0  0  0  0  0  0  0
  155.8510  212.0920  156.0370 F   0  0  0  0  0  0  0  0  0  0  0  0
  1  6  1  6  0  0  0
  1 11  1  0  0  0  0
  1  7  1  0  0  0  0
  2  3  1  6  0  0  0
  4 29  1  1  0  0  0
  4  2  1  0  0  0  0
  5  8  1  0  0  0  0
  7  4  1  0  0  0  0
  7  2  1  0  0  0  0
  8 11  2  0  0  0  0
  9  3  1  0  0  0  0
 10  6  1  0  0  0  0
 10  5  1  0  0  0  0
 11  9  1  0  0  0  0
 12 17  1  0  0  0  0
 12 13  2  0  0  0  0
 13 10  1  0  0  0  0
 14 12  1  0  0  0  0
 15 13  1  0  0  0  0
 16 14  1  0  0  0  0
 16 15  2  0  0  0  0
 17 20  1  0  0  0  0
 18 20  2  0  0  0  0
 20 19  2  0  0  0  0
 21 22  1  0  0  0  0
 21 23  1  0  0  0  0
 22 23  1  0  0  0  0
 22 20  1  0  0  0  0
 24 22  1  0  0  0  0
 25 26  2  0  0  0  0
 26 24  1  0  0  0  0
 27 26  1  0  0  0  0
 28 27  1  0  0  0  0
 29 30  1  0  0  0  0
 30 31  1  0  0  0  0
 32 29  1  0  0  0  0
 33 34  1  0  0  0  0
 34 32  1  0  0  0  0
 35 38  1  0  0  0  0
 35 32  1  0  0  0  0
 36 38  1  0  0  0  0
 37 38  1  0  0  0  0
 38 39  1  0  0  0  0
M  END
>  <MODEL>
8

>  <REMARK>
 VINA RESULT:      -6.2      4.321      9.550
  Name = 
  13 active torsions:
  status: ('A' for Active; 'I' for Inactive)
    1  A    between atoms: O_1  and  C_7
    2  A    between atoms: C_7  and  O_17
    3  A    between atoms: C_10  and  N_16
    4  A    between atoms: C_12  and  C_19
    5  A    between atoms: C_12  and  C_22
    6  A    between atoms: C_12  and  O_34
    7  A    between atoms: O_13  and  C_19
    8  A    between atoms: C_15  and  O_17
    9  A    between atoms: C_15  and  S_33
   10  A    between atoms: N_16  and  S_33
   11  A    between atoms: C_18  and  C_19
   12  A    between atoms: C_23  and  C_35
   13  A    between atoms: C_32  and  O_34
                            x       y       z     vdW  Elec       q    Type
                         _______ _______ _______ _____ _____    ______ ____

>  <TORSDO>
F 13

$$$$
=
 OpenBabel11072415113D

 39 43  0  0  1  0  0  0  0  0999 V2000
  160.4290  209.3100  153.6280 C   0  0  2  0  0  3  0  0  0  0  0  0
  160.5270  210.7670  155.8100 C   0  0  2  0  0  3  0  0  0  0  0  0
  160.2390  209.4410  156.5060 C   0  0  0  0  0  2  0  0  0  0  0  0
  159.3360  211.1300  154.9430 C   0  0  2  0  0  3  0  0  0  0  0  0
  161.1210  206.7150  152.5850 C   0  0  0  0  0  2  0  0  0  0  0  0
  161.1420  209.4140  151.9340 S   0  0  0  0  0  0  0  0  0  0  0  0
  160.6260  210.6910  154.2760 C   0  0  2  0  0  3  0  0  0  0  0  0
  161.2840  207.0360  153.9920 N   0  0  0  0  0  0  0  0  0  0  0  0
  161.0010  208.3640  155.8980 N   0  0  0  0  0  2  0  0  0  0  0  0
  161.8560  207.7400  151.7430 C   0  0  2  0  0  3  0  0  0  0  0  0
  160.9840  208.1960  154.4860 C   0  0  0  0  0  0  0  0  0  0  0  0
  161.1480  206.3240  149.6910 C   0  0  0  0  0  0  0  0  0  0  0  0
  161.8380  207.3510  150.2970 C   0  0  0  0  0  0  0  0  0  0  0  0
  161.3360  206.3960  148.3990 O   0  0  0  0  0  0  0  0  0  0  0  0
  162.4310  208.0390  149.2570 C   0  0  0  0  0  3  0  0  0  0  0  0
  162.1020  207.4110  148.1040 N   0  0  0  0  0  0  0  0  0  0  0  0
  160.3540  205.3410  150.3520 N   0  0  0  0  0  2  0  0  0  0  0  0
  160.1100  203.1620  151.8330 O   0  0  0  0  0  0  0  0  0  0  0  0
  162.3840  203.9130  151.2800 O   0  0  0  0  0  0  0  0  0  0  0  0
  160.9750  203.7800  150.7700 S   0  0  0  0  0  0  0  0  0  0  0  0
  159.7720  201.8090  149.1450 C   0  0  0  0  0  2  0  0  0  0  0  0
  160.9640  202.7280  149.3290 C   0  0  0  0  0  0  0  0  0  0  0  0
  161.1090  201.2530  149.6360 C   0  0  0  0  0  2  0  0  0  0  0  0
  161.7310  203.1570  148.1930 O   0  0  0  0  0  0  0  0  0  0  0  0
  160.9580  202.0350  146.3070 O   0  0  0  0  0  0  0  0  0  0  0  0
  161.3420  203.1110  146.8430 C   0  0  0  0  0  0  0  0  0  0  0  0
  161.3920  204.2700  146.0660 O   0  0  0  0  0  0  0  0  0  0  0  0
  160.8270  204.3140  144.7660 C   0  0  0  0  0  1  0  0  0  0  0  0
  159.2040  212.6560  154.8810 C   0  0  1  0  0  3  0  0  0  0  0  0
  158.7620  213.1570  153.6360 O   0  0  0  0  0  0  0  0  0  0  0  0
  158.2020  212.1540  152.9840 O   0  0  0  0  0  1  0  0  0  0  0  0
  158.4550  213.2730  156.0730 C   0  0  1  0  0  3  0  0  0  0  0  0
  160.4610  214.0500  157.1220 O   0  0  0  0  0  1  0  0  0  0  0  0
  159.1970  214.4530  156.6890 C   0  0  0  0  0  2  0  0  0  0  0  0
  157.1780  213.6830  155.6570 O   0  0  0  0  0  0  0  0  0  0  0  0
  156.7490  211.9990  157.1700 F   0  0  0  0  0  0  0  0  0  0  0  0
  155.0610  213.3770  156.5110 F   0  0  0  0  0  0  0  0  0  0  0  0
  156.2350  212.7440  156.1170 C   0  0  0  0  0  0  0  0  0  0  0  0
  155.9380  211.8820  155.0780 F   0  0  0  0  0  0  0  0  0  0  0  0
  1  6  1  6  0  0  0
  1  7  1  0  0  0  0
  1 11  1  0  0  0  0
  2  3  1  1  0  0  0
  4 29  1  6  0  0  0
  4  2  1  0  0  0  0
  5  8  1  0  0  0  0
  7  4  1  0  0  0  0
  7  2  1  0  0  0  0
  8 11  2  0  0  0  0
  9  3  1  0  0  0  0
 10  6  1  0  0  0  0
 10  5  1  0  0  0  0
 11  9  1  0  0  0  0
 12 13  2  0  0  0  0
 12 17  1  0  0  0  0
 13 10  1  0  0  0  0
 14 12  1  0  0  0  0
 15 13  1  0  0  0  0
 16 14  1  0  0  0  0
 16 15  2  0  0  0  0
 17 20  1  0  0  0  0
 20 19  2  0  0  0  0
 20 18  2  0  0  0  0
 21 22  1  0  0  0  0
 21 23  1  0  0  0  0
 22 23  1  0  0  0  0
 22 20  1  0  0  0  0
 24 22  1  0  0  0  0
 25 26  2  0  0  0  0
 26 24  1  0  0  0  0
 27 26  1  0  0  0  0
 28 27  1  0  0  0  0
 29 32  1  0  0  0  0
 30 29  1  0  0  0  0
 31 30  1  0  0  0  0
 32 34  1  0  0  0  0
 34 33  1  0  0  0  0
 35 32  1  0  0  0  0
 35 38  1  0  0  0  0
 38 37  1  0  0  0  0
 38 36  1  0  0  0  0
 39 38  1  0  0  0  0
M  END
>  <MODEL>
9

>  <REMARK>
 VINA RESULT:      -6.0      4.627     10.021
  Name = 
  13 active torsions:
  status: ('A' for Active; 'I' for Inactive)
    1  A    between atoms: O_1  and  C_7
    2  A    between atoms: C_7  and  O_17
    3  A    between atoms: C_10  and  N_16
    4  A    between atoms: C_12  and  C_19
    5  A    between atoms: C_12  and  C_22
    6  A    between atoms: C_12  and  O_34
    7  A    between atoms: O_13  and  C_19
    8  A    between atoms: C_15  and  O_17
    9  A    between atoms: C_15  and  S_33
   10  A    between atoms: N_16  and  S_33
   11  A    between atoms: C_18  and  C_19
   12  A    between atoms: C_23  and  C_35
   13  A    between atoms: C_32  and  O_34
                            x       y       z     vdW  Elec       q    Type
                         _______ _______ _______ _____ _____    ______ ____

>  <TORSDO>
F 13

$$$$
