=
 OpenBabel11072413423D

 44 50  0  0  1  0  0  0  0  0999 V2000
  163.1210  210.2050  151.8350 O   0  0  0  0  0  1  0  0  0  0  0  0
  160.7420  209.7950  151.9160 C   0  0  1  0  0  3  0  0  0  0  0  0
  159.7490  211.4130  153.2930 C   0  0  0  0  0  0  0  0  0  0  0  0
  159.5900  211.8270  150.9440 N   0  0  0  0  0  0  0  0  0  0  0  0
  158.8110  212.3920  153.5400 C   0  0  0  0  0  0  0  0  0  0  0  0
  158.4550  213.2280  152.4720 O   0  0  0  0  0  0  0  0  0  0  0  0
  162.1810  212.1110  148.2970 C   0  0  0  0  0  2  0  0  0  0  0  0
  159.1980  214.4530  149.2860 C   0  0  0  0  0  2  0  0  0  0  0  0
  160.7010  209.2880  153.3910 C   0  0  0  0  0  2  0  0  0  0  0  0
  161.2690  213.0220  149.1030 C   0  0  0  0  0  2  0  0  0  0  0  0
  159.9290  210.3410  154.1040 C   0  0  0  0  0  0  0  0  0  0  0  0
  160.4320  211.2950  152.0140 C   0  0  2  0  0  3  0  0  0  0  0  0
  159.2900  210.2870  155.3450 C   0  0  0  0  0  3  0  0  0  0  0  0
  160.1530  213.7290  148.3100 C   0  0  1  0  0  3  0  0  0  0  0  0
  158.7800  212.8340  151.1530 C   0  0  0  0  0  0  0  0  0  0  0  0
  162.8910  211.1140  149.2120 C   0  0  0  0  0  2  0  0  0  0  0  0
  162.0840  209.5310  151.1760 C   0  0  1  0  0  0  0  0  0  0  0  0
  158.4340  211.3540  155.7030 C   0  0  0  0  0  3  0  0  0  0  0  0
  161.9660  210.0450  149.7450 C   0  0  0  0  0  0  0  0  0  0  0  0
  161.1470  209.5360  148.9920 O   0  0  0  0  0  0  0  0  0  0  0  0
  158.1780  213.5430  149.9870 C   0  0  0  0  0  2  0  0  0  0  0  0
  158.1740  212.4040  154.7900 C   0  0  0  0  0  3  0  0  0  0  0  0
  159.4380  212.9110  147.1950 C   0  0  2  0  0  0  0  0  0  0  0  0
  160.1600  211.6080  146.8920 C   0  0  0  0  0  1  0  0  0  0  0  0
  159.3430  213.7420  145.9070 C   0  0  0  0  0  2  0  0  0  0  0  0
  157.8950  213.8390  145.6700 C   0  0  0  0  0  0  0  0  0  0  0  0
  157.3800  214.4530  144.6990 O   0  0  0  0  0  0  0  0  0  0  0  0
  157.9810  212.5860  147.5930 C   0  0  0  0  0  2  0  0  0  0  0  0
  157.1490  213.1890  146.6210 O   0  0  0  0  0  0  0  0  0  0  0  0
  161.8230  207.3410  152.2020 O   0  0  0  0  0  1  0  0  0  0  0  0
  162.4090  208.0160  151.1260 C   0  0  1  0  0  3  0  0  0  0  0  0
  161.9560  207.3510  149.8300 C   0  0  0  0  0  2  0  0  0  0  0  0
  160.6540  205.2930  149.0620 N   0  0  2  0  0  0  0  0  0  0  0  0
  160.8310  206.3490  150.1020 C   0  0  1  0  0  3  0  0  0  0  0  0
  161.3860  205.0160  150.3110 C   0  0  1  0  0  3  0  0  0  0  0  0
  161.1460  206.6100  146.7520 S   0  0  0  0  0  0  0  0  0  0  0  0
  161.6960  204.0270  147.2680 C   0  0  0  0  0  0  0  0  0  0  0  0
  161.6450  205.3420  147.9830 C   0  0  2  0  0  3  0  0  0  0  0  0
  162.0900  202.9730  147.8310 O   0  0  0  0  0  0  0  0  0  0  0  0
  161.2890  204.0260  145.9120 N   0  0  0  0  0  2  0  0  0  0  0  0
  160.5180  205.5860  144.3600 O   0  0  0  0  0  0  0  0  0  0  0  0
  160.9450  205.3370  145.5160 C   0  0  0  0  0  0  0  0  0  0  0  0
  161.0300  202.9000  151.4340 N   0  0  0  0  0  1  0  0  0  0  0  0
  160.4910  204.2350  151.2500 C   0  0  0  0  0  2  0  0  0  0  0  0
  2 12  1  0  0  0  0
  2  9  1  1  0  0  0
  3  5  2  0  0  0  0
  3 11  1  0  0  0  0
  4 15  2  0  0  0  0
  5 22  1  0  0  0  0
  6  5  1  0  0  0  0
  7 10  1  0  0  0  0
  7 16  1  0  0  0  0
  8 21  1  0  0  0  0
  9 11  1  0  0  0  0
 11 13  2  0  0  0  0
 12  4  1  6  0  0  0
 12  3  1  0  0  0  0
 13 18  1  0  0  0  0
 14 10  1  1  0  0  0
 14  8  1  0  0  0  0
 15  6  1  0  0  0  0
 16 19  1  0  0  0  0
 17  1  1  1  0  0  0
 17  2  1  0  0  0  0
 19 17  1  0  0  0  0
 20 19  2  0  0  0  0
 21 15  1  0  0  0  0
 22 18  2  0  0  0  0
 23 24  1  6  0  0  0
 23 28  1  0  0  0  0
 23 14  1  0  0  0  0
 25 23  1  0  0  0  0
 26 25  1  0  0  0  0
 26 29  1  0  0  0  0
 27 26  2  0  0  0  0
 29 28  1  0  0  0  0
 31 17  1  0  0  0  0
 31 30  1  1  0  0  0
 32 31  1  0  0  0  0
 33 38  1  6  0  0  0
 33 34  1  0  0  0  0
 33 35  1  0  0  0  0
 34 32  1  6  0  0  0
 34 35  1  0  0  0  0
 35 44  1  1  0  0  0
 37 39  2  0  0  0  0
 37 38  1  0  0  0  0
 38 36  1  6  0  0  0
 40 37  1  0  0  0  0
 41 42  2  0  0  0  0
 42 40  1  0  0  0  0
 42 36  1  0  0  0  0
 44 43  1  0  0  0  0
M  END
>  <MODEL>
1

>  <REMARK>
 VINA RESULT:      -6.5      0.000      0.000
  Name = 
  6 active torsions:
  status: ('A' for Active; 'I' for Inactive)
    1  A    between atoms: C_6  and  C_23
    2  A    between atoms: N_11  and  C_29
    3  A    between atoms: C_12  and  C_15
    4  A    between atoms: C_13  and  C_27
    5  A    between atoms: C_27  and  C_35
    6  A    between atoms: C_35  and  C_37
                            x       y       z     vdW  Elec       q    Type
                         _______ _______ _______ _____ _____    ______ ____

>  <TORSDO>
F 6

$$$$
=
 OpenBabel11072413423D

 44 50  0  0  1  0  0  0  0  0999 V2000
  163.5270  208.3460  150.1050 O   0  0  0  0  0  1  0  0  0  0  0  0
  161.2900  207.4830  150.3980 C   0  0  1  0  0  3  0  0  0  0  0  0
  161.4170  205.4530  151.5650 C   0  0  0  0  0  0  0  0  0  0  0  0
  160.8450  207.3610  152.8860 N   0  0  0  0  0  0  0  0  0  0  0  0
  161.0480  204.6150  152.5950 C   0  0  0  0  0  0  0  0  0  0  0  0
  160.7980  205.2010  153.8440 O   0  0  0  0  0  0  0  0  0  0  0  0
  162.5640  210.6110  153.4190 C   0  0  0  0  0  2  0  0  0  0  0  0
  161.1320  207.9750  155.9420 C   0  0  0  0  0  2  0  0  0  0  0  0
  161.4260  206.2970  149.3930 C   0  0  0  0  0  2  0  0  0  0  0  0
  162.3330  209.3070  154.1660 C   0  0  0  0  0  2  0  0  0  0  0  0
  161.3510  205.0910  150.2590 C   0  0  0  0  0  0  0  0  0  0  0  0
  161.6440  206.8760  151.7630 C   0  0  2  0  0  3  0  0  0  0  0  0
  161.0830  203.7640  149.9130 C   0  0  0  0  0  3  0  0  0  0  0  0
  161.4330  209.3950  155.4130 C   0  0  1  0  0  3  0  0  0  0  0  0
  160.5900  206.5980  153.9190 C   0  0  0  0  0  0  0  0  0  0  0  0
  163.0210  210.3370  151.9870 C   0  0  0  0  0  2  0  0  0  0  0  0
  162.1760  208.7180  150.0700 C   0  0  1  0  0  0  0  0  0  0  0  0
  160.8500  202.8350  150.9540 C   0  0  0  0  0  3  0  0  0  0  0  0
  161.9140  209.8020  151.1100 C   0  0  0  0  0  0  0  0  0  0  0  0
  160.7970  210.2950  151.1920 O   0  0  0  0  0  0  0  0  0  0  0  0
  160.0490  207.2120  155.1660 C   0  0  0  0  0  2  0  0  0  0  0  0
  160.8110  203.2640  152.3030 C   0  0  0  0  0  3  0  0  0  0  0  0
  160.1920  210.3320  155.3360 C   0  0  2  0  0  0  0  0  0  0  0  0
  159.4660  210.2090  154.0050 C   0  0  0  0  0  1  0  0  0  0  0  0
  160.6160  211.7920  155.5410 C   0  0  0  0  0  2  0  0  0  0  0  0
  159.8680  212.2010  156.7390 C   0  0  0  0  0  0  0  0  0  0  0  0
  159.9360  213.3470  157.2550 O   0  0  0  0  0  0  0  0  0  0  0  0
  159.1920  210.0220  156.4720 C   0  0  0  0  0  2  0  0  0  0  0  0
  159.0780  211.2000  157.2470 O   0  0  0  0  0  0  0  0  0  0  0  0
  160.9640  208.4500  147.9780 O   0  0  0  0  0  1  0  0  0  0  0  0
  161.8410  209.2930  148.6690 C   0  0  1  0  0  3  0  0  0  0  0  0
  161.2270  210.6880  148.7280 C   0  0  0  0  0  2  0  0  0  0  0  0
  161.3440  212.5580  146.9930 N   0  0  2  0  0  0  0  0  0  0  0  0
  162.0870  211.6900  147.9520 C   0  0  1  0  0  3  0  0  0  0  0  0
  161.7290  213.0540  148.3260 C   0  0  1  0  0  3  0  0  0  0  0  0
  159.2730  212.2400  145.2830 S   0  0  0  0  0  0  0  0  0  0  0  0
  159.2170  213.5430  147.6360 C   0  0  0  0  0  0  0  0  0  0  0  0
  159.8910  212.3620  147.0080 C   0  0  2  0  0  3  0  0  0  0  0  0
  159.3750  213.8380  148.8500 O   0  0  0  0  0  0  0  0  0  0  0  0
  158.3750  214.3130  146.7990 N   0  0  0  0  0  2  0  0  0  0  0  0
  157.6780  214.2690  144.5740 O   0  0  0  0  0  0  0  0  0  0  0  0
  158.3350  213.7410  145.5080 C   0  0  0  0  0  0  0  0  0  0  0  0
  163.0260  214.4530  146.8340 N   0  0  0  0  0  1  0  0  0  0  0  0
  162.9410  213.9510  148.1930 C   0  0  0  0  0  2  0  0  0  0  0  0
  2  9  1  6  0  0  0
  2 12  1  0  0  0  0
  3  5  1  0  0  0  0
  4 15  2  0  0  0  0
  5  6  1  0  0  0  0
  6 15  1  0  0  0  0
  7 10  1  0  0  0  0
  9 11  1  0  0  0  0
 11  3  2  0  0  0  0
 12  3  1  6  0  0  0
 12  4  1  0  0  0  0
 13 11  1  0  0  0  0
 13 18  2  0  0  0  0
 14 10  1  6  0  0  0
 14  8  1  0  0  0  0
 15 21  1  0  0  0  0
 16  7  1  0  0  0  0
 17  1  1  1  0  0  0
 17  2  1  0  0  0  0
 17 19  1  0  0  0  0
 18 22  1  0  0  0  0
 19 20  2  0  0  0  0
 19 16  1  0  0  0  0
 21  8  1  0  0  0  0
 22  5  2  0  0  0  0
 23 24  1  6  0  0  0
 23 14  1  0  0  0  0
 23 25  1  0  0  0  0
 23 28  1  0  0  0  0
 25 26  1  0  0  0  0
 26 29  1  0  0  0  0
 26 27  2  0  0  0  0
 28 29  1  0  0  0  0
 31 30  1  1  0  0  0
 31 32  1  0  0  0  0
 31 17  1  0  0  0  0
 33 38  1  1  0  0  0
 33 34  1  0  0  0  0
 33 35  1  0  0  0  0
 34 35  1  0  0  0  0
 34 32  1  1  0  0  0
 35 44  1  6  0  0  0
 36 42  1  0  0  0  0
 37 39  2  0  0  0  0
 38 36  1  6  0  0  0
 38 37  1  0  0  0  0
 40 37  1  0  0  0  0
 41 42  2  0  0  0  0
 42 40  1  0  0  0  0
 43 44  1  0  0  0  0
M  END
>  <MODEL>
2

>  <REMARK>
 VINA RESULT:      -5.5      2.789      7.888
  Name = 
  6 active torsions:
  status: ('A' for Active; 'I' for Inactive)
    1  A    between atoms: C_6  and  C_23
    2  A    between atoms: N_11  and  C_29
    3  A    between atoms: C_12  and  C_15
    4  A    between atoms: C_13  and  C_27
    5  A    between atoms: C_27  and  C_35
    6  A    between atoms: C_35  and  C_37
                            x       y       z     vdW  Elec       q    Type
                         _______ _______ _______ _____ _____    ______ ____

>  <TORSDO>
F 6

$$$$
=
 OpenBabel11072413423D

 44 50  0  0  1  0  0  0  0  0999 V2000
  163.2470  209.9610  151.4480 O   0  0  0  0  0  1  0  0  0  0  0  0
  160.8960  209.4780  151.7110 C   0  0  1  0  0  3  0  0  0  0  0  0
  160.0410  210.8240  153.4290 C   0  0  0  0  0  0  0  0  0  0  0  0
  159.6230  211.6070  151.2090 N   0  0  0  0  0  0  0  0  0  0  0  0
  159.1250  211.7250  153.9300 C   0  0  0  0  0  0  0  0  0  0  0  0
  158.6460  212.7110  153.0560 O   0  0  0  0  0  0  0  0  0  0  0  0
  161.9090  212.3840  148.3860 C   0  0  0  0  0  2  0  0  0  0  0  0
  159.0270  214.4530  150.0510 C   0  0  0  0  0  2  0  0  0  0  0  0
  161.0200  208.7390  153.0800 C   0  0  0  0  0  2  0  0  0  0  0  0
  161.0800  213.1290  149.4210 C   0  0  0  0  0  2  0  0  0  0  0  0
  160.3190  209.6420  154.0310 C   0  0  0  0  0  0  0  0  0  0  0  0
  160.5820  210.9330  152.0830 C   0  0  2  0  0  3  0  0  0  0  0  0
  159.8180  209.3700  155.3080 C   0  0  0  0  0  3  0  0  0  0  0  0
  159.8780  213.9230  148.8760 C   0  0  1  0  0  3  0  0  0  0  0  0
  158.8300  212.5430  151.6630 C   0  0  0  0  0  0  0  0  0  0  0  0
  162.7240  211.2730  149.0460 C   0  0  0  0  0  2  0  0  0  0  0  0
  162.1520  209.3740  150.8000 C   0  0  1  0  0  0  0  0  0  0  0  0
  158.9950  210.3420  155.9230 C   0  0  0  0  0  3  0  0  0  0  0  0
  161.8740  210.1080  149.4920 C   0  0  0  0  0  0  0  0  0  0  0  0
  160.9830  209.7030  148.7570 O   0  0  0  0  0  0  0  0  0  0  0  0
  158.0980  213.4140  150.6990 C   0  0  0  0  0  2  0  0  0  0  0  0
  158.6270  211.5170  155.2250 C   0  0  0  0  0  3  0  0  0  0  0  0
  159.0550  213.2750  147.7240 C   0  0  2  0  0  0  0  0  0  0  0  0
  157.8170  212.5570  148.2400 C   0  0  0  0  0  1  0  0  0  0  0  0
  159.9240  212.2770  146.9480 C   0  0  0  0  0  2  0  0  0  0  0  0
  159.9290  212.8200  145.5810 C   0  0  0  0  0  0  0  0  0  0  0  0
  160.5420  212.2920  144.6160 O   0  0  0  0  0  0  0  0  0  0  0  0
  158.6130  214.3380  146.6930 C   0  0  0  0  0  2  0  0  0  0  0  0
  159.1930  213.9710  145.4560 O   0  0  0  0  0  0  0  0  0  0  0  0
  162.7090  207.1590  151.6380 O   0  0  0  0  0  1  0  0  0  0  0  0
  162.4850  207.8960  150.4700 C   0  0  1  0  0  3  0  0  0  0  0  0
  161.3930  207.2040  149.6620 C   0  0  0  0  0  2  0  0  0  0  0  0
  161.7220  204.9980  148.4180 N   0  0  2  0  0  0  0  0  0  0  0  0
  161.9930  206.4650  148.4630 C   0  0  1  0  0  3  0  0  0  0  0  0
  160.9290  205.9430  147.6110 C   0  0  1  0  0  3  0  0  0  0  0  0
  161.7600  204.5880  151.0910 S   0  0  0  0  0  0  0  0  0  0  0  0
  160.4850  203.0830  149.2610 C   0  0  0  0  0  0  0  0  0  0  0  0
  160.8530  204.5150  149.4950 C   0  0  2  0  0  3  0  0  0  0  0  0
  159.7810  202.7240  148.2810 O   0  0  0  0  0  0  0  0  0  0  0  0
  160.9600  202.1430  150.2060 N   0  0  0  0  0  2  0  0  0  0  0  0
  162.2280  202.1810  152.1630 O   0  0  0  0  0  0  0  0  0  0  0  0
  161.6770  202.8100  151.2240 C   0  0  0  0  0  0  0  0  0  0  0  0
  160.3010  206.2030  145.2860 N   0  0  0  0  0  1  0  0  0  0  0  0
  161.4070  205.8940  146.1750 C   0  0  0  0  0  2  0  0  0  0  0  0
  2 12  1  0  0  0  0
  2  9  1  1  0  0  0
  3  5  2  0  0  0  0
  3 11  1  0  0  0  0
  4 15  2  0  0  0  0
  5 22  1  0  0  0  0
  6  5  1  0  0  0  0
  7 16  1  0  0  0  0
  7 10  1  0  0  0  0
  8 21  1  0  0  0  0
  9 11  1  0  0  0  0
 11 13  2  0  0  0  0
 12  4  1  6  0  0  0
 12  3  1  0  0  0  0
 13 18  1  0  0  0  0
 14 10  1  1  0  0  0
 14  8  1  0  0  0  0
 15  6  1  0  0  0  0
 16 19  1  0  0  0  0
 17  1  1  1  0  0  0
 17  2  1  0  0  0  0
 19 17  1  0  0  0  0
 20 19  2  0  0  0  0
 21 15  1  0  0  0  0
 22 18  2  0  0  0  0
 23 24  1  1  0  0  0
 23 14  1  0  0  0  0
 25 23  1  0  0  0  0
 26 25  1  0  0  0  0
 27 26  2  0  0  0  0
 28 23  1  0  0  0  0
 29 26  1  0  0  0  0
 29 28  1  0  0  0  0
 31 17  1  0  0  0  0
 31 30  1  1  0  0  0
 32 31  1  0  0  0  0
 33 34  1  0  0  0  0
 33 38  1  1  0  0  0
 34 32  1  1  0  0  0
 35 44  1  6  0  0  0
 35 33  1  0  0  0  0
 35 34  1  0  0  0  0
 36 42  1  0  0  0  0
 37 40  1  0  0  0  0
 38 37  1  6  0  0  0
 38 36  1  0  0  0  0
 39 37  2  0  0  0  0
 40 42  1  0  0  0  0
 42 41  2  0  0  0  0
 43 44  1  0  0  0  0
M  END
>  <MODEL>
3

>  <REMARK>
 VINA RESULT:      -5.2      1.543      2.709
  Name = 
  6 active torsions:
  status: ('A' for Active; 'I' for Inactive)
    1  A    between atoms: C_6  and  C_23
    2  A    between atoms: N_11  and  C_29
    3  A    between atoms: C_12  and  C_15
    4  A    between atoms: C_13  and  C_27
    5  A    between atoms: C_27  and  C_35
    6  A    between atoms: C_35  and  C_37
                            x       y       z     vdW  Elec       q    Type
                         _______ _______ _______ _____ _____    ______ ____

>  <TORSDO>
F 6

$$$$
=
 OpenBabel11072413423D

 44 50  0  0  1  0  0  0  0  0999 V2000
  163.0770  208.6830  151.3360 O   0  0  0  0  0  1  0  0  0  0  0  0
  160.7360  209.0590  151.7940 C   0  0  1  0  0  3  0  0  0  0  0  0
  160.5530  210.6430  153.5130 C   0  0  0  0  0  0  0  0  0  0  0  0
  160.2480  211.4930  151.2990 N   0  0  0  0  0  0  0  0  0  0  0  0
  160.0540  211.8140  154.0430 C   0  0  0  0  0  0  0  0  0  0  0  0
  159.8780  212.8940  153.1660 O   0  0  0  0  0  0  0  0  0  0  0  0
  162.4140  211.3810  148.2830 C   0  0  0  0  0  2  0  0  0  0  0  0
  160.5860  214.3520  150.0700 C   0  0  0  0  0  2  0  0  0  0  0  0
  160.7100  208.3420  153.1790 C   0  0  0  0  0  2  0  0  0  0  0  0
  161.9870  212.3820  149.3440 C   0  0  0  0  0  2  0  0  0  0  0  0
  160.4510  209.4460  154.1420 C   0  0  0  0  0  0  0  0  0  0  0  0
  160.9820  210.5370  152.1270 C   0  0  2  0  0  3  0  0  0  0  0  0
  159.9970  209.3850  155.4620 C   0  0  0  0  0  3  0  0  0  0  0  0
  161.0960  213.5410  148.8580 C   0  0  1  0  0  3  0  0  0  0  0  0
  159.8730  212.6540  151.7720 C   0  0  0  0  0  0  0  0  0  0  0  0
  162.8430  210.0630  148.9270 C   0  0  0  0  0  2  0  0  0  0  0  0
  161.7950  208.5090  150.7970 C   0  0  1  0  0  0  0  0  0  0  0  0
  159.6200  210.5920  156.0960 C   0  0  0  0  0  3  0  0  0  0  0  0
  161.6810  209.2760  149.4840 C   0  0  0  0  0  0  0  0  0  0  0  0
  160.6460  209.2010  148.8350 O   0  0  0  0  0  0  0  0  0  0  0  0
  159.4120  213.7140  150.8280 C   0  0  0  0  0  2  0  0  0  0  0  0
  159.6270  211.8120  155.3790 C   0  0  0  0  0  3  0  0  0  0  0  0
  160.0040  213.2080  147.7990 C   0  0  2  0  0  0  0  0  0  0  0  0
  158.7260  212.6900  148.4400 C   0  0  0  0  0  1  0  0  0  0  0  0
  160.5280  212.1590  146.8100 C   0  0  0  0  0  2  0  0  0  0  0  0
  160.4600  212.8480  145.5120 C   0  0  0  0  0  0  0  0  0  0  0  0
  160.8090  212.3290  144.4200 O   0  0  0  0  0  0  0  0  0  0  0  0
  159.6590  214.4510  146.9490 C   0  0  0  0  0  2  0  0  0  0  0  0
  159.9730  214.1270  145.6090 O   0  0  0  0  0  0  0  0  0  0  0  0
  161.0220  206.3540  151.6210 O   0  0  0  0  0  1  0  0  0  0  0  0
  161.5630  207.0040  150.5060 C   0  0  1  0  0  3  0  0  0  0  0  0
  160.6460  206.7620  149.3110 C   0  0  0  0  0  2  0  0  0  0  0  0
  160.8400  204.6800  147.8450 N   0  0  2  0  0  0  0  0  0  0  0  0
  160.3700  205.2660  149.1350 C   0  0  1  0  0  3  0  0  0  0  0  0
  161.6270  204.5270  149.0820 C   0  0  1  0  0  3  0  0  0  0  0  0
  160.4430  206.2250  145.6620 S   0  0  0  0  0  0  0  0  0  0  0  0
  162.7100  204.9330  146.3150 C   0  0  0  0  0  0  0  0  0  0  0  0
  161.5630  205.6220  146.9860 C   0  0  2  0  0  3  0  0  0  0  0  0
  163.6920  204.4820  146.9600 O   0  0  0  0  0  0  0  0  0  0  0  0
  162.6470  204.8210  144.9050 N   0  0  0  0  0  2  0  0  0  0  0  0
  161.1770  205.4500  143.2080 O   0  0  0  0  0  0  0  0  0  0  0  0
  161.4740  205.4480  144.4300 C   0  0  0  0  0  0  0  0  0  0  0  0
  160.7810  202.3030  148.6310 N   0  0  0  0  0  1  0  0  0  0  0  0
  161.4200  203.1330  149.6360 C   0  0  0  0  0  2  0  0  0  0  0  0
  2 12  1  0  0  0  0
  2  9  1  1  0  0  0
  3  5  2  0  0  0  0
  3 11  1  0  0  0  0
  4 15  2  0  0  0  0
  5 22  1  0  0  0  0
  6  5  1  0  0  0  0
  7 16  1  0  0  0  0
  7 10  1  0  0  0  0
  8 21  1  0  0  0  0
  9 11  1  0  0  0  0
 11 13  2  0  0  0  0
 12  4  1  6  0  0  0
 12  3  1  0  0  0  0
 13 18  1  0  0  0  0
 14 10  1  1  0  0  0
 14  8  1  0  0  0  0
 15  6  1  0  0  0  0
 16 19  1  0  0  0  0
 17  1  1  1  0  0  0
 17  2  1  0  0  0  0
 19 17  1  0  0  0  0
 20 19  2  0  0  0  0
 21 15  1  0  0  0  0
 22 18  2  0  0  0  0
 23 24  1  1  0  0  0
 23 14  1  0  0  0  0
 25 23  1  0  0  0  0
 26 29  1  0  0  0  0
 26 25  1  0  0  0  0
 27 26  2  0  0  0  0
 28 23  1  0  0  0  0
 29 28  1  0  0  0  0
 31 17  1  0  0  0  0
 31 30  1  1  0  0  0
 32 31  1  0  0  0  0
 33 38  1  6  0  0  0
 33 35  1  0  0  0  0
 33 34  1  0  0  0  0
 34 32  1  6  0  0  0
 35 34  1  0  0  0  0
 35 44  1  1  0  0  0
 37 39  2  0  0  0  0
 37 38  1  0  0  0  0
 38 36  1  6  0  0  0
 40 37  1  0  0  0  0
 41 42  2  0  0  0  0
 42 40  1  0  0  0  0
 42 36  1  0  0  0  0
 43 44  1  0  0  0  0
M  END
>  <MODEL>
4

>  <REMARK>
 VINA RESULT:      -5.1      1.466      1.698
  Name = 
  6 active torsions:
  status: ('A' for Active; 'I' for Inactive)
    1  A    between atoms: C_6  and  C_23
    2  A    between atoms: N_11  and  C_29
    3  A    between atoms: C_12  and  C_15
    4  A    between atoms: C_13  and  C_27
    5  A    between atoms: C_27  and  C_35
    6  A    between atoms: C_35  and  C_37
                            x       y       z     vdW  Elec       q    Type
                         _______ _______ _______ _____ _____    ______ ____

>  <TORSDO>
F 6

$$$$
=
 OpenBabel11072413423D

 44 50  0  0  1  0  0  0  0  0999 V2000
  160.1950  207.9080  151.4700 O   0  0  0  0  0  1  0  0  0  0  0  0
  161.7230  209.7740  151.6020 C   0  0  1  0  0  3  0  0  0  0  0  0
  160.8790  211.5290  150.2960 C   0  0  0  0  0  0  0  0  0  0  0  0
  160.4670  211.7090  152.6440 N   0  0  0  0  0  0  0  0  0  0  0  0
  160.5010  212.8430  150.1180 C   0  0  0  0  0  0  0  0  0  0  0  0
  159.8900  213.4900  151.2020 O   0  0  0  0  0  0  0  0  0  0  0  0
  158.8040  209.4190  155.0500 C   0  0  0  0  0  2  0  0  0  0  0  0
  158.2850  213.2300  154.2940 C   0  0  0  0  0  2  0  0  0  0  0  0
  162.2650  209.6620  150.1440 C   0  0  0  0  0  2  0  0  0  0  0  0
  158.5030  210.7150  154.3150 C   0  0  0  0  0  2  0  0  0  0  0  0
  161.7670  210.9000  149.4870 C   0  0  0  0  0  0  0  0  0  0  0  0
  160.5760  210.7900  151.5120 C   0  0  2  0  0  3  0  0  0  0  0  0
  162.1970  211.5140  148.3070 C   0  0  0  0  0  3  0  0  0  0  0  0
  158.3920  211.9770  155.1920 C   0  0  1  0  0  3  0  0  0  0  0  0
  160.0010  212.9220  152.4930 C   0  0  0  0  0  0  0  0  0  0  0  0
  159.3730  208.3750  154.0900 C   0  0  0  0  0  2  0  0  0  0  0  0
  161.2530  208.4290  152.2260 C   0  0  1  0  0  0  0  0  0  0  0  0
  161.7080  212.8080  148.0110 C   0  0  0  0  0  3  0  0  0  0  0  0
  160.7850  208.6860  153.6550 C   0  0  0  0  0  0  0  0  0  0  0  0
  161.5890  209.0930  154.4830 O   0  0  0  0  0  0  0  0  0  0  0  0
  159.6150  213.7130  153.6970 C   0  0  0  0  0  2  0  0  0  0  0  0
  160.8720  213.4870  148.9290 C   0  0  0  0  0  3  0  0  0  0  0  0
  159.3930  212.1150  156.3770 C   0  0  2  0  0  0  0  0  0  0  0  0
  159.0690  213.3110  157.2600 C   0  0  0  0  0  1  0  0  0  0  0  0
  160.8260  212.2600  155.8460 C   0  0  0  0  0  2  0  0  0  0  0  0
  161.5220  211.1000  156.4240 C   0  0  0  0  0  0  0  0  0  0  0  0
  162.7380  210.8400  156.2280 O   0  0  0  0  0  0  0  0  0  0  0  0
  159.3960  210.8430  157.2530 C   0  0  0  0  0  2  0  0  0  0  0  0
  160.7090  210.3190  157.2050 O   0  0  0  0  0  0  0  0  0  0  0  0
  162.3420  206.6150  153.4270 O   0  0  0  0  0  1  0  0  0  0  0  0
  162.4090  207.3960  152.2680 C   0  0  1  0  0  3  0  0  0  0  0  0
  162.4230  206.4680  151.0580 C   0  0  0  0  0  2  0  0  0  0  0  0
  160.8100  204.9730  149.7600 N   0  0  2  0  0  0  0  0  0  0  0  0
  161.2170  205.5250  151.0860 C   0  0  1  0  0  3  0  0  0  0  0  0
  161.6240  204.1790  150.6980 C   0  0  1  0  0  3  0  0  0  0  0  0
  161.0380  206.8950  147.8710 S   0  0  0  0  0  0  0  0  0  0  0  0
  161.6960  204.3000  147.5990 C   0  0  0  0  0  0  0  0  0  0  0  0
  161.6870  205.3640  148.6520 C   0  0  2  0  0  3  0  0  0  0  0  0
  162.1680  203.1520  147.8100 O   0  0  0  0  0  0  0  0  0  0  0  0
  161.1560  204.6490  146.3390 N   0  0  0  0  0  2  0  0  0  0  0  0
  160.1980  206.5350  145.3550 O   0  0  0  0  0  0  0  0  0  0  0  0
  160.7440  206.0010  146.3550 C   0  0  0  0  0  0  0  0  0  0  0  0
  160.7000  201.9420  150.6040 N   0  0  0  0  0  1  0  0  0  0  0  0
  160.7390  203.1630  151.3890 C   0  0  0  0  0  2  0  0  0  0  0  0
  2  9  1  6  0  0  0
  2 17  1  0  0  0  0
  5  3  1  0  0  0  0
  5  6  1  0  0  0  0
  6 15  1  0  0  0  0
 10  7  1  0  0  0  0
 10 14  1  0  0  0  0
 11  9  1  0  0  0  0
 11  3  2  0  0  0  0
 12  3  1  6  0  0  0
 12  2  1  0  0  0  0
 12  4  1  0  0  0  0
 13 11  1  0  0  0  0
 14  8  1  6  0  0  0
 14 23  1  0  0  0  0
 15  4  2  0  0  0  0
 15 21  1  0  0  0  0
 16  7  1  0  0  0  0
 17  1  1  6  0  0  0
 17 31  1  0  0  0  0
 17 19  1  0  0  0  0
 18 13  2  0  0  0  0
 18 22  1  0  0  0  0
 19 16  1  0  0  0  0
 19 20  2  0  0  0  0
 21  8  1  0  0  0  0
 22  5  2  0  0  0  0
 23 28  1  0  0  0  0
 23 24  1  1  0  0  0
 25 23  1  0  0  0  0
 25 26  1  0  0  0  0
 26 29  1  0  0  0  0
 27 26  2  0  0  0  0
 29 28  1  0  0  0  0
 31 30  1  1  0  0  0
 32 31  1  0  0  0  0
 33 38  1  6  0  0  0
 33 35  1  0  0  0  0
 33 34  1  0  0  0  0
 34 32  1  6  0  0  0
 35 34  1  0  0  0  0
 35 44  1  1  0  0  0
 36 38  1  0  0  0  0
 37 39  2  0  0  0  0
 38 37  1  6  0  0  0
 40 42  1  0  0  0  0
 40 37  1  0  0  0  0
 41 42  2  0  0  0  0
 42 36  1  0  0  0  0
 43 44  1  0  0  0  0
M  END
>  <MODEL>
5

>  <REMARK>
 VINA RESULT:      -4.5      2.154      5.683
  Name = 
  6 active torsions:
  status: ('A' for Active; 'I' for Inactive)
    1  A    between atoms: C_6  and  C_23
    2  A    between atoms: N_11  and  C_29
    3  A    between atoms: C_12  and  C_15
    4  A    between atoms: C_13  and  C_27
    5  A    between atoms: C_27  and  C_35
    6  A    between atoms: C_35  and  C_37
                            x       y       z     vdW  Elec       q    Type
                         _______ _______ _______ _____ _____    ______ ____

>  <TORSDO>
F 6

$$$$
=
 OpenBabel11072413423D

 44 50  0  0  1  0  0  0  0  0999 V2000
  163.1550  208.4980  151.0480 O   0  0  0  0  0  1  0  0  0  0  0  0
  160.8350  208.8730  151.6050 C   0  0  1  0  0  3  0  0  0  0  0  0
  160.7270  210.4060  153.3750 C   0  0  0  0  0  0  0  0  0  0  0  0
  160.3460  211.3230  151.2010 N   0  0  0  0  0  0  0  0  0  0  0  0
  160.2560  211.5640  153.9580 C   0  0  0  0  0  0  0  0  0  0  0  0
  160.0540  212.6710  153.1200 O   0  0  0  0  0  0  0  0  0  0  0  0
  162.3970  211.2880  148.1030 C   0  0  0  0  0  2  0  0  0  0  0  0
  160.6560  214.2150  150.0440 C   0  0  0  0  0  2  0  0  0  0  0  0
  160.8560  208.1160  152.9690 C   0  0  0  0  0  2  0  0  0  0  0  0
  162.0170  212.2610  149.2090 C   0  0  0  0  0  2  0  0  0  0  0  0
  160.6400  209.1920  153.9720 C   0  0  0  0  0  0  0  0  0  0  0  0
  161.1030  210.3390  151.9720 C   0  0  2  0  0  3  0  0  0  0  0  0
  160.2360  209.0940  155.3060 C   0  0  0  0  0  3  0  0  0  0  0  0
  161.1150  213.4380  148.7910 C   0  0  1  0  0  3  0  0  0  0  0  0
  159.9960  212.4720  151.7200 C   0  0  0  0  0  0  0  0  0  0  0  0
  162.8410  209.9500  148.6920 C   0  0  0  0  0  2  0  0  0  0  0  0
  161.8520  208.3470  150.5530 C   0  0  1  0  0  0  0  0  0  0  0  0
  159.8910  210.2840  155.9890 C   0  0  0  0  0  3  0  0  0  0  0  0
  161.6950  209.1530  149.2690 C   0  0  0  0  0  0  0  0  0  0  0  0
  160.6360  209.1030  148.6570 O   0  0  0  0  0  0  0  0  0  0  0  0
  159.5070  213.5610  150.8270 C   0  0  0  0  0  2  0  0  0  0  0  0
  159.8790  211.5250  155.3080 C   0  0  0  0  0  3  0  0  0  0  0  0
  159.9830  213.1420  147.7630 C   0  0  2  0  0  0  0  0  0  0  0  0
  158.7530  212.5430  148.4280 C   0  0  0  0  0  1  0  0  0  0  0  0
  160.4870  212.1780  146.6820 C   0  0  0  0  0  2  0  0  0  0  0  0
  160.3360  212.9500  145.4390 C   0  0  0  0  0  0  0  0  0  0  0  0
  160.6450  212.5160  144.2990 O   0  0  0  0  0  0  0  0  0  0  0  0
  159.5620  214.4280  147.0170 C   0  0  0  0  0  2  0  0  0  0  0  0
  159.8190  214.2040  145.6450 O   0  0  0  0  0  0  0  0  0  0  0  0
  160.6560  206.3000  151.1000 O   0  0  0  0  0  1  0  0  0  0  0  0
  161.6000  206.8520  150.2270 C   0  0  1  0  0  3  0  0  0  0  0  0
  161.1260  206.6270  148.7950 C   0  0  0  0  0  2  0  0  0  0  0  0
  162.1570  204.6000  147.6330 N   0  0  2  0  0  0  0  0  0  0  0  0
  162.2580  206.0580  147.9340 C   0  0  1  0  0  3  0  0  0  0  0  0
  161.7340  205.6120  146.6470 C   0  0  1  0  0  3  0  0  0  0  0  0
  161.2070  203.4570  149.8920 S   0  0  0  0  0  0  0  0  0  0  0  0
  160.6390  202.7210  147.3680 C   0  0  0  0  0  0  0  0  0  0  0  0
  160.9410  203.9630  148.1470 C   0  0  2  0  0  3  0  0  0  0  0  0
  160.3270  202.7530  146.1490 O   0  0  0  0  0  0  0  0  0  0  0  0
  160.7070  201.4960  148.0740 N   0  0  0  0  0  2  0  0  0  0  0  0
  161.1770  200.8050  150.2510 O   0  0  0  0  0  0  0  0  0  0  0  0
  161.0260  201.7440  149.4270 C   0  0  0  0  0  0  0  0  0  0  0  0
  163.6070  204.5440  145.5440 N   0  0  0  0  0  1  0  0  0  0  0  0
  162.8060  205.7530  145.5870 C   0  0  0  0  0  2  0  0  0  0  0  0
  2 12  1  0  0  0  0
  2  9  1  1  0  0  0
  3  5  2  0  0  0  0
  3 11  1  0  0  0  0
  4 15  2  0  0  0  0
  5 22  1  0  0  0  0
  6  5  1  0  0  0  0
  7 16  1  0  0  0  0
  7 10  1  0  0  0  0
  8 21  1  0  0  0  0
  9 11  1  0  0  0  0
 11 13  2  0  0  0  0
 12  4  1  6  0  0  0
 12  3  1  0  0  0  0
 13 18  1  0  0  0  0
 14 10  1  1  0  0  0
 14  8  1  0  0  0  0
 15  6  1  0  0  0  0
 16 19  1  0  0  0  0
 17  1  1  1  0  0  0
 17  2  1  0  0  0  0
 19 17  1  0  0  0  0
 20 19  2  0  0  0  0
 21 15  1  0  0  0  0
 22 18  2  0  0  0  0
 23 24  1  1  0  0  0
 23 14  1  0  0  0  0
 25 23  1  0  0  0  0
 26 29  1  0  0  0  0
 26 25  1  0  0  0  0
 27 26  2  0  0  0  0
 28 23  1  0  0  0  0
 29 28  1  0  0  0  0
 31 17  1  0  0  0  0
 31 30  1  1  0  0  0
 32 31  1  0  0  0  0
 33 34  1  0  0  0  0
 33 38  1  1  0  0  0
 34 32  1  1  0  0  0
 35 44  1  6  0  0  0
 35 33  1  0  0  0  0
 35 34  1  0  0  0  0
 37 40  1  0  0  0  0
 38 37  1  6  0  0  0
 38 36  1  0  0  0  0
 39 37  2  0  0  0  0
 40 42  1  0  0  0  0
 42 36  1  0  0  0  0
 42 41  2  0  0  0  0
 43 44  1  0  0  0  0
M  END
>  <MODEL>
6

>  <REMARK>
 VINA RESULT:      -4.2      1.795      2.768
  Name = 
  6 active torsions:
  status: ('A' for Active; 'I' for Inactive)
    1  A    between atoms: C_6  and  C_23
    2  A    between atoms: N_11  and  C_29
    3  A    between atoms: C_12  and  C_15
    4  A    between atoms: C_13  and  C_27
    5  A    between atoms: C_27  and  C_35
    6  A    between atoms: C_35  and  C_37
                            x       y       z     vdW  Elec       q    Type
                         _______ _______ _______ _____ _____    ______ ____

>  <TORSDO>
F 6

$$$$
=
 OpenBabel11072413423D

 44 50  0  0  1  0  0  0  0  0999 V2000
  160.9520  213.0020  151.5360 O   0  0  0  0  0  1  0  0  0  0  0  0
  159.6140  211.0090  151.8020 C   0  0  1  0  0  3  0  0  0  0  0  0
  160.7800  209.5000  153.1660 C   0  0  0  0  0  0  0  0  0  0  0  0
  159.0840  210.7760  154.2660 N   0  0  0  0  0  0  0  0  0  0  0  0
  160.8680  208.6580  154.2540 C   0  0  0  0  0  0  0  0  0  0  0  0
  160.2060  209.0490  155.4270 O   0  0  0  0  0  0  0  0  0  0  0  0
  158.5410  214.4390  154.5620 C   0  0  0  0  0  2  0  0  0  0  0  0
  158.6660  211.5960  157.2570 C   0  0  0  0  0  2  0  0  0  0  0  0
  160.5080  210.0780  150.9250 C   0  0  0  0  0  2  0  0  0  0  0  0
  159.0370  213.2860  155.4200 C   0  0  0  0  0  2  0  0  0  0  0  0
  161.0630  209.1020  151.9010 C   0  0  0  0  0  0  0  0  0  0  0  0
  160.1210  210.7940  153.2350 C   0  0  2  0  0  3  0  0  0  0  0  0
  161.6490  207.8540  151.6730 C   0  0  0  0  0  3  0  0  0  0  0  0
  158.1370  212.8940  156.6080 C   0  0  1  0  0  3  0  0  0  0  0  0
  159.2200  210.0620  155.3540 C   0  0  0  0  0  0  0  0  0  0  0  0
  159.2070  214.4120  153.1870 C   0  0  0  0  0  2  0  0  0  0  0  0
  159.6470  212.5100  151.3980 C   0  0  1  0  0  0  0  0  0  0  0  0
  161.8970  207.0190  152.7870 C   0  0  0  0  0  3  0  0  0  0  0  0
  158.7060  213.2870  152.3130 C   0  0  0  0  0  0  0  0  0  0  0  0
  157.5090  213.0360  152.2920 O   0  0  0  0  0  0  0  0  0  0  0  0
  158.3060  210.3040  156.5070 C   0  0  0  0  0  2  0  0  0  0  0  0
  161.4870  207.4110  154.0840 C   0  0  0  0  0  3  0  0  0  0  0  0
  156.5970  212.9210  156.3790 C   0  0  2  0  0  0  0  0  0  0  0  0
  155.9880  214.2620  156.7600 C   0  0  0  0  0  1  0  0  0  0  0  0
  155.9210  211.8140  157.1980 C   0  0  0  0  0  2  0  0  0  0  0  0
  155.2660  210.9850  156.1750 C   0  0  0  0  0  0  0  0  0  0  0  0
  154.5940  209.9510  156.4300 O   0  0  0  0  0  0  0  0  0  0  0  0
  156.2510  212.6250  154.9030 C   0  0  0  0  0  2  0  0  0  0  0  0
  155.4610  211.4510  154.8990 O   0  0  0  0  0  0  0  0  0  0  0  0
  157.9180  213.3130  149.8880 O   0  0  0  0  0  1  0  0  0  0  0  0
  159.1780  212.7080  149.9340 C   0  0  1  0  0  3  0  0  0  0  0  0
  160.1480  213.5420  149.1050 C   0  0  0  0  0  2  0  0  0  0  0  0
  159.8960  214.4510  146.7310 N   0  0  2  0  0  0  0  0  0  0  0  0
  159.3880  214.4510  148.1340 C   0  0  1  0  0  3  0  0  0  0  0  0
  158.7200  213.6490  147.1150 C   0  0  1  0  0  3  0  0  0  0  0  0
  162.5760  214.4460  146.3700 S   0  0  0  0  0  0  0  0  0  0  0  0
  160.8010  212.8060  145.1880 C   0  0  0  0  0  0  0  0  0  0  0  0
  160.9980  213.5140  146.4920 C   0  0  2  0  0  3  0  0  0  0  0  0
  159.8420  212.0140  144.9930 O   0  0  0  0  0  0  0  0  0  0  0  0
  161.7580  213.0590  144.1760 N   0  0  0  0  0  2  0  0  0  0  0  0
  163.6910  214.3410  143.9390 O   0  0  0  0  0  0  0  0  0  0  0  0
  162.7480  213.9390  144.6670 C   0  0  0  0  0  0  0  0  0  0  0  0
  157.3770  214.3010  145.2070 N   0  0  0  0  0  1  0  0  0  0  0  0
  157.4630  214.3560  146.6550 C   0  0  0  0  0  2  0  0  0  0  0  0
  2  9  1  6  0  0  0
  2 12  1  0  0  0  0
  3  5  1  0  0  0  0
  4 15  2  0  0  0  0
  5  6  1  0  0  0  0
  7 10  1  0  0  0  0
  9 11  1  0  0  0  0
 11  3  2  0  0  0  0
 12  3  1  6  0  0  0
 12  4  1  0  0  0  0
 13 11  1  0  0  0  0
 13 18  2  0  0  0  0
 14 10  1  6  0  0  0
 14  8  1  0  0  0  0
 15  6  1  0  0  0  0
 15 21  1  0  0  0  0
 16  7  1  0  0  0  0
 17  1  1  1  0  0  0
 17  2  1  0  0  0  0
 17 19  1  0  0  0  0
 18 22  1  0  0  0  0
 19 16  1  0  0  0  0
 20 19  2  0  0  0  0
 21  8  1  0  0  0  0
 22  5  2  0  0  0  0
 23 14  1  0  0  0  0
 23 24  1  1  0  0  0
 23 25  1  0  0  0  0
 26 27  2  0  0  0  0
 26 25  1  0  0  0  0
 28 23  1  0  0  0  0
 29 28  1  0  0  0  0
 29 26  1  0  0  0  0
 31 30  1  1  0  0  0
 31 17  1  0  0  0  0
 32 31  1  0  0  0  0
 33 38  1  1  0  0  0
 33 35  1  0  0  0  0
 33 34  1  0  0  0  0
 34 32  1  1  0  0  0
 35 44  1  6  0  0  0
 35 34  1  0  0  0  0
 36 38  1  0  0  0  0
 38 37  1  6  0  0  0
 39 37  2  0  0  0  0
 40 42  1  0  0  0  0
 40 37  1  0  0  0  0
 41 42  2  0  0  0  0
 42 36  1  0  0  0  0
 43 44  1  0  0  0  0
M  END
>  <MODEL>
7

>  <REMARK>
 VINA RESULT:      -3.9      3.934      7.809
  Name = 
  6 active torsions:
  status: ('A' for Active; 'I' for Inactive)
    1  A    between atoms: C_6  and  C_23
    2  A    between atoms: N_11  and  C_29
    3  A    between atoms: C_12  and  C_15
    4  A    between atoms: C_13  and  C_27
    5  A    between atoms: C_27  and  C_35
    6  A    between atoms: C_35  and  C_37
                            x       y       z     vdW  Elec       q    Type
                         _______ _______ _______ _____ _____    ______ ____

>  <TORSDO>
F 6

$$$$
