=
 OpenBabel11072411103D

 30 35  0  0  1  0  0  0  0  0999 V2000
  161.6220  210.6570  157.2330 N   0  0  0  0  0  1  0  0  0  0  0  0
  162.0740  210.7210  154.9630 C   0  0  0  0  0  2  0  0  0  0  0  0
  160.7910  208.3500  154.5820 C   0  0  0  0  0  2  0  0  0  0  0  0
  160.7850  210.7700  154.1230 C   0  0  1  0  0  3  0  0  0  0  0  0
  160.2830  209.4340  153.7350 N   0  0  0  0  0  0  0  0  0  0  0  0
  161.9790  209.8470  156.1470 N   0  0  0  0  0  0  0  0  0  0  0  0
  160.9470  208.8100  156.0280 C   0  0  0  0  0  2  0  0  0  0  0  0
  157.9510  213.3210  151.7890 C   0  0  2  0  0  3  0  0  0  0  0  0
  160.0540  212.8770  151.6810 C   0  0  0  0  0  2  0  0  0  0  0  0
  159.7060  211.5900  154.8320 C   0  0  2  0  0  3  0  0  0  0  0  0
  158.8530  212.1940  152.3150 C   0  0  1  0  0  3  0  0  0  0  0  0
  158.3020  211.1200  154.4780 C   0  0  0  0  0  2  0  0  0  0  0  0
  158.8590  212.3630  153.8230 C   0  0  1  0  0  0  0  0  0  0  0  0
  158.0590  213.5440  154.1780 C   0  0  0  0  0  0  0  0  0  0  0  0
  159.1590  213.9820  151.1470 C   0  0  1  0  0  3  0  0  0  0  0  0
  157.4530  214.1660  152.9770 C   0  0  0  0  0  2  0  0  0  0  0  0
  159.0620  213.8710  149.7030 N   0  0  0  0  0  1  0  0  0  0  0  0
  157.9240  213.9790  155.3110 O   0  0  0  0  0  0  0  0  0  0  0  0
  160.7390  209.1520  152.3780 C   0  0  0  0  0  2  0  0  0  0  0  0
  160.7640  207.7710  152.1530 O   0  0  0  0  0  0  0  0  0  0  0  0
  161.2240  205.3270  150.0300 C   0  0  0  0  0  0  0  0  0  0  0  0
  162.4340  206.0440  152.1510 C   0  0  0  0  0  2  0  0  0  0  0  0
  162.2120  207.6390  150.2430 C   0  0  0  0  0  2  0  0  0  0  0  0
  160.5110  203.0240  149.7610 C   0  0  0  0  0  3  0  0  0  0  0  0
  160.6040  204.3280  149.2700 C   0  0  0  0  0  3  0  0  0  0  0  0
  161.0290  202.7110  151.0200 C   0  0  0  0  0  3  0  0  0  0  0  0
  161.2290  206.7330  149.5000 C   0  0  0  0  0  2  0  0  0  0  0  0
  162.0720  207.4760  151.7550 C   0  0  1  0  0  3  0  0  0  0  0  0
  161.6370  203.7040  151.7910 C   0  0  0  0  0  3  0  0  0  0  0  0
  161.7260  205.0160  151.3130 C   0  0  0  0  0  0  0  0  0  0  0  0
  2  6  1  0  0  0  0
  3  7  1  0  0  0  0
  4 10  1  0  0  0  0
  4  2  1  1  0  0  0
  5  4  1  0  0  0  0
  5  3  1  0  0  0  0
  6  1  1  0  0  0  0
  7  6  1  0  0  0  0
  8 11  1  0  0  0  0
  8 16  1  1  0  0  0
 10 12  1  6  0  0  0
 11  9  1  6  0  0  0
 11 13  1  0  0  0  0
 13 14  1  0  0  0  0
 13 12  1  1  0  0  0
 13 10  1  0  0  0  0
 14 18  2  0  0  0  0
 15 17  1  6  0  0  0
 15  9  1  0  0  0  0
 15  8  1  0  0  0  0
 16 14  1  0  0  0  0
 19  5  1  0  0  0  0
 20 19  1  0  0  0  0
 21 30  1  0  0  0  0
 23 28  1  0  0  0  0
 24 26  2  0  0  0  0
 25 24  1  0  0  0  0
 25 21  2  0  0  0  0
 26 29  1  0  0  0  0
 27 21  1  0  0  0  0
 27 23  1  0  0  0  0
 28 22  1  0  0  0  0
 28 20  1  6  0  0  0
 30 29  2  0  0  0  0
 30 22  1  0  0  0  0
M  END
>  <MODEL>
1

>  <REMARK>
 VINA RESULT:      -8.4      0.000      0.000
  Name = 
  4 active torsions:
  status: ('A' for Active; 'I' for Inactive)
    1  A    between atoms: C_7  and  C_17
    2  A    between atoms: C_9  and  O_16
    3  A    between atoms: C_9  and  N_19
    4  A    between atoms: O_16  and  C_27
                            x       y       z     vdW  Elec       q    Type
                         _______ _______ _______ _____ _____    ______ ____

>  <TORSDO>
F 4

$$$$
=
 OpenBabel11072411103D

 30 35  0  0  1  0  0  0  0  0999 V2000
  159.2910  213.6940  151.7140 N   0  0  0  0  0  1  0  0  0  0  0  0
  158.8310  211.4950  152.2740 C   0  0  0  0  0  2  0  0  0  0  0  0
  161.2070  210.6710  151.2290 C   0  0  0  0  0  2  0  0  0  0  0  0
  159.8580  210.9310  153.2740 C   0  0  1  0  0  3  0  0  0  0  0  0
  161.0090  210.2670  152.6260 N   0  0  0  0  0  0  0  0  0  0  0  0
  159.4210  212.3780  151.2520 N   0  0  0  0  0  0  0  0  0  0  0  0
  160.8520  212.1410  151.0280 C   0  0  0  0  0  2  0  0  0  0  0  0
  157.4860  211.8340  156.9550 C   0  0  2  0  0  3  0  0  0  0  0  0
  157.0160  211.3820  154.9040 C   0  0  0  0  0  2  0  0  0  0  0  0
  160.3150  212.0160  154.2520 C   0  0  2  0  0  3  0  0  0  0  0  0
  158.2320  211.1650  155.7900 C   0  0  1  0  0  3  0  0  0  0  0  0
  160.6870  211.4420  155.6120 C   0  0  0  0  0  2  0  0  0  0  0  0
  159.3500  212.1250  155.4320 C   0  0  1  0  0  0  0  0  0  0  0  0
  159.2530  213.3180  156.2860 C   0  0  0  0  0  0  0  0  0  0  0  0
  156.2740  212.0290  156.0600 C   0  0  1  0  0  3  0  0  0  0  0  0
  158.1430  213.1940  157.2600 C   0  0  0  0  0  2  0  0  0  0  0  0
  155.2020  211.1530  156.4990 N   0  0  0  0  0  1  0  0  0  0  0  0
  159.9730  214.2990  156.1960 O   0  0  0  0  0  0  0  0  0  0  0  0
  160.7580  208.8300  152.6120 C   0  0  0  0  0  2  0  0  0  0  0  0
  160.8340  208.3370  151.3040 O   0  0  0  0  0  0  0  0  0  0  0  0
  161.3340  205.4240  149.9050 C   0  0  0  0  0  0  0  0  0  0  0  0
  162.3720  206.5950  151.9120 C   0  0  0  0  0  2  0  0  0  0  0  0
  162.4540  207.6730  149.6620 C   0  0  0  0  0  2  0  0  0  0  0  0
  160.4940  203.1590  150.1240 C   0  0  0  0  0  3  0  0  0  0  0  0
  160.7260  204.2950  149.3450 C   0  0  0  0  0  3  0  0  0  0  0  0
  160.8600  203.1480  151.4720 C   0  0  0  0  0  3  0  0  0  0  0  0
  161.4900  206.6520  149.0530 C   0  0  0  0  0  2  0  0  0  0  0  0
  162.1520  207.8980  151.1420 C   0  0  1  0  0  3  0  0  0  0  0  0
  161.4550  204.2760  152.0440 C   0  0  0  0  0  3  0  0  0  0  0  0
  161.6820  205.4220  151.2750 C   0  0  0  0  0  0  0  0  0  0  0  0
  3  5  1  0  0  0  0
  4  2  1  6  0  0  0
  4 10  1  0  0  0  0
  5  4  1  0  0  0  0
  6  1  1  0  0  0  0
  6  2  1  0  0  0  0
  7  3  1  0  0  0  0
  7  6  1  0  0  0  0
  8 16  1  6  0  0  0
  9 15  1  0  0  0  0
 10 13  1  0  0  0  0
 10 12  1  1  0  0  0
 11  9  1  6  0  0  0
 11  8  1  0  0  0  0
 13 12  1  1  0  0  0
 13 11  1  0  0  0  0
 13 14  1  0  0  0  0
 14 16  1  0  0  0  0
 15 17  1  1  0  0  0
 15  8  1  0  0  0  0
 18 14  2  0  0  0  0
 19  5  1  0  0  0  0
 20 19  1  0  0  0  0
 21 30  1  0  0  0  0
 23 28  1  0  0  0  0
 24 26  2  0  0  0  0
 25 21  2  0  0  0  0
 25 24  1  0  0  0  0
 26 29  1  0  0  0  0
 27 23  1  0  0  0  0
 27 21  1  0  0  0  0
 28 20  1  6  0  0  0
 28 22  1  0  0  0  0
 30 22  1  0  0  0  0
 30 29  2  0  0  0  0
M  END
>  <MODEL>
2

>  <REMARK>
 VINA RESULT:      -6.4      1.835      3.522
  Name = 
  4 active torsions:
  status: ('A' for Active; 'I' for Inactive)
    1  A    between atoms: C_7  and  C_17
    2  A    between atoms: C_9  and  O_16
    3  A    between atoms: C_9  and  N_19
    4  A    between atoms: O_16  and  C_27
                            x       y       z     vdW  Elec       q    Type
                         _______ _______ _______ _____ _____    ______ ____

>  <TORSDO>
F 4

$$$$
=
 OpenBabel11072411103D

 30 35  0  0  1  0  0  0  0  0999 V2000
  160.6140  209.2010  154.3460 N   0  0  0  0  0  1  0  0  0  0  0  0
  160.1690  209.6120  152.1110 C   0  0  0  0  0  2  0  0  0  0  0  0
  162.7530  210.3500  151.6730 C   0  0  0  0  0  2  0  0  0  0  0  0
  160.9930  208.6970  151.1850 C   0  0  1  0  0  3  0  0  0  0  0  0
  162.2890  209.2820  150.7800 N   0  0  0  0  0  0  0  0  0  0  0  0
  160.9110  210.0800  153.2960 N   0  0  0  0  0  0  0  0  0  0  0  0
  162.3680  210.0620  153.1200 C   0  0  0  0  0  2  0  0  0  0  0  0
  161.7200  205.1100  148.6190 C   0  0  2  0  0  3  0  0  0  0  0  0
  160.4560  206.8470  148.4980 C   0  0  0  0  0  2  0  0  0  0  0  0
  161.1730  207.3130  151.8110 C   0  0  2  0  0  3  0  0  0  0  0  0
  161.7220  206.5030  149.2670 C   0  0  1  0  0  3  0  0  0  0  0  0
  162.5710  206.7570  151.5800 C   0  0  0  0  0  2  0  0  0  0  0  0
  161.4220  206.2580  150.7340 C   0  0  1  0  0  0  0  0  0  0  0  0
  161.2010  204.8200  150.9470 C   0  0  0  0  0  0  0  0  0  0  0  0
  160.4650  205.4750  147.8460 C   0  0  1  0  0  3  0  0  0  0  0  0
  161.3920  204.0540  149.6930 C   0  0  0  0  0  2  0  0  0  0  0  0
  160.7870  205.6110  146.4360 N   0  0  0  0  0  1  0  0  0  0  0  0
  160.8780  204.3160  152.0100 O   0  0  0  0  0  0  0  0  0  0  0  0
  162.1260  209.8830  149.4610 C   0  0  0  0  0  2  0  0  0  0  0  0
  161.7290  211.2200  149.5830 O   0  0  0  0  0  0  0  0  0  0  0  0
  159.9290  213.6790  148.3980 C   0  0  0  0  0  0  0  0  0  0  0  0
  161.1040  211.6990  147.3140 C   0  0  0  0  0  2  0  0  0  0  0  0
  162.4140  213.3330  148.6740 C   0  0  0  0  0  2  0  0  0  0  0  0
  157.5950  214.1220  147.9060 C   0  0  0  0  0  3  0  0  0  0  0  0
  158.7770  214.4530  148.5740 C   0  0  0  0  0  3  0  0  0  0  0  0
  157.5570  213.0080  147.0640 C   0  0  0  0  0  3  0  0  0  0  0  0
  161.1530  214.0230  149.1990 C   0  0  0  0  0  2  0  0  0  0  0  0
  162.1590  211.8510  148.4110 C   0  0  1  0  0  3  0  0  0  0  0  0
  158.6990  212.2220  146.8920 C   0  0  0  0  0  3  0  0  0  0  0  0
  159.8830  212.5390  147.5650 C   0  0  0  0  0  0  0  0  0  0  0  0
  2  6  1  0  0  0  0
  3  7  1  0  0  0  0
  4 10  1  0  0  0  0
  4  2  1  1  0  0  0
  5  4  1  0  0  0  0
  5  3  1  0  0  0  0
  6  1  1  0  0  0  0
  7  6  1  0  0  0  0
  8 11  1  0  0  0  0
  8 16  1  1  0  0  0
 10 12  1  1  0  0  0
 11  9  1  6  0  0  0
 11 13  1  0  0  0  0
 13 14  1  0  0  0  0
 13 12  1  1  0  0  0
 13 10  1  0  0  0  0
 14 18  2  0  0  0  0
 15 17  1  6  0  0  0
 15  9  1  0  0  0  0
 15  8  1  0  0  0  0
 16 14  1  0  0  0  0
 19 20  1  0  0  0  0
 19  5  1  0  0  0  0
 21 25  1  0  0  0  0
 21 27  1  0  0  0  0
 22 30  1  0  0  0  0
 22 28  1  0  0  0  0
 23 27  1  0  0  0  0
 24 25  2  0  0  0  0
 26 24  1  0  0  0  0
 28 23  1  0  0  0  0
 28 20  1  1  0  0  0
 29 26  2  0  0  0  0
 29 30  1  0  0  0  0
 30 21  2  0  0  0  0
M  END
>  <MODEL>
3

>  <REMARK>
 VINA RESULT:      -6.0      3.105      7.625
  Name = 
  4 active torsions:
  status: ('A' for Active; 'I' for Inactive)
    1  A    between atoms: C_7  and  C_17
    2  A    between atoms: C_9  and  O_16
    3  A    between atoms: C_9  and  N_19
    4  A    between atoms: O_16  and  C_27
                            x       y       z     vdW  Elec       q    Type
                         _______ _______ _______ _____ _____    ______ ____

>  <TORSDO>
F 4

$$$$
=
 OpenBabel11072411103D

 30 35  0  0  1  0  0  0  0  0999 V2000
  162.5610  204.7810  144.5260 N   0  0  0  0  0  1  0  0  0  0  0  0
  162.8930  205.6010  146.6660 C   0  0  0  0  0  2  0  0  0  0  0  0
  160.3320  206.5210  146.7730 C   0  0  0  0  0  2  0  0  0  0  0  0
  161.9660  204.9210  147.6900 C   0  0  1  0  0  3  0  0  0  0  0  0
  160.6820  205.6290  147.8840 N   0  0  0  0  0  0  0  0  0  0  0  0
  162.2510  205.8600  145.3640 N   0  0  0  0  0  0  0  0  0  0  0  0
  160.7880  205.9390  145.4380 C   0  0  0  0  0  2  0  0  0  0  0  0
  160.2290  202.0780  150.6710 C   0  0  2  0  0  3  0  0  0  0  0  0
  161.6520  203.6900  150.7440 C   0  0  0  0  0  2  0  0  0  0  0  0
  161.7460  203.4500  147.3310 C   0  0  2  0  0  3  0  0  0  0  0  0
  160.5520  203.2840  149.7760 C   0  0  1  0  0  3  0  0  0  0  0  0
  160.2710  203.0750  147.3240 C   0  0  0  0  0  2  0  0  0  0  0  0
  161.1310  202.6900  148.5060 C   0  0  1  0  0  0  0  0  0  0  0  0
  161.2030  201.2280  148.6460 C   0  0  0  0  0  0  0  0  0  0  0  0
  161.3210  202.5060  151.6360 C   0  0  1  0  0  3  0  0  0  0  0  0
  160.6420  200.7830  149.9440 C   0  0  0  0  0  2  0  0  0  0  0  0
  160.7190  202.9830  152.8680 N   0  0  0  0  0  1  0  0  0  0  0  0
  161.6820  200.4720  147.8160 O   0  0  0  0  0  0  0  0  0  0  0  0
  160.7980  206.4680  149.0710 C   0  0  0  0  0  2  0  0  0  0  0  0
  161.0260  207.7990  148.7030 O   0  0  0  0  0  0  0  0  0  0  0  0
  161.1360  208.8900  151.7840 C   0  0  0  0  0  0  0  0  0  0  0  0
  162.2970  209.6110  149.6370 C   0  0  0  0  0  2  0  0  0  0  0  0
  162.5620  207.2730  150.4720 C   0  0  0  0  0  2  0  0  0  0  0  0
  159.9850  210.5310  153.1510 C   0  0  0  0  0  3  0  0  0  0  0  0
  160.3850  209.2120  152.9200 C   0  0  0  0  0  3  0  0  0  0  0  0
  160.3260  211.5350  152.2410 C   0  0  0  0  0  3  0  0  0  0  0  0
  161.4740  207.4470  151.5330 C   0  0  0  0  0  2  0  0  0  0  0  0
  162.2710  208.1330  149.2440 C   0  0  1  0  0  3  0  0  0  0  0  0
  161.0640  211.2200  151.0970 C   0  0  0  0  0  3  0  0  0  0  0  0
  161.4590  209.9010  150.8520 C   0  0  0  0  0  0  0  0  0  0  0  0
  1  6  1  0  0  0  0
  3  5  1  0  0  0  0
  4  2  1  6  0  0  0
  4  5  1  0  0  0  0
  5 19  1  0  0  0  0
  6  7  1  0  0  0  0
  6  2  1  0  0  0  0
  7  3  1  0  0  0  0
  8 16  1  6  0  0  0
  8 15  1  0  0  0  0
  9 15  1  0  0  0  0
 10 12  1  6  0  0  0
 10  4  1  0  0  0  0
 10 13  1  0  0  0  0
 11  8  1  0  0  0  0
 11  9  1  1  0  0  0
 13 12  1  6  0  0  0
 13 14  1  0  0  0  0
 13 11  1  0  0  0  0
 14 16  1  0  0  0  0
 15 17  1  1  0  0  0
 18 14  2  0  0  0  0
 20 19  1  0  0  0  0
 21 25  1  0  0  0  0
 22 30  1  0  0  0  0
 23 27  1  0  0  0  0
 25 24  2  0  0  0  0
 26 24  1  0  0  0  0
 27 21  1  0  0  0  0
 28 20  1  1  0  0  0
 28 22  1  0  0  0  0
 28 23  1  0  0  0  0
 29 26  2  0  0  0  0
 30 29  1  0  0  0  0
 30 21  2  0  0  0  0
M  END
>  <MODEL>
4

>  <REMARK>
 VINA RESULT:      -5.7      3.925      9.440
  Name = 
  4 active torsions:
  status: ('A' for Active; 'I' for Inactive)
    1  A    between atoms: C_7  and  C_17
    2  A    between atoms: C_9  and  O_16
    3  A    between atoms: C_9  and  N_19
    4  A    between atoms: O_16  and  C_27
                            x       y       z     vdW  Elec       q    Type
                         _______ _______ _______ _____ _____    ______ ____

>  <TORSDO>
F 4

$$$$
=
 OpenBabel11072411103D

 30 35  0  0  1  0  0  0  0  0999 V2000
  161.2780  211.4540  152.2730 N   0  0  0  0  0  1  0  0  0  0  0  0
  160.2160  209.4150  152.5430 C   0  0  0  0  0  2  0  0  0  0  0  0
  162.2530  208.1210  151.2810 C   0  0  0  0  0  2  0  0  0  0  0  0
  161.0470  208.4460  153.4050 C   0  0  1  0  0  3  0  0  0  0  0  0
  161.9580  207.5880  152.6160 N   0  0  0  0  0  0  0  0  0  0  0  0
  161.0260  210.2370  151.6260 N   0  0  0  0  0  0  0  0  0  0  0  0
  162.3290  209.6450  151.3030 C   0  0  0  0  0  2  0  0  0  0  0  0
  158.8250  210.5980  156.6330 C   0  0  2  0  0  3  0  0  0  0  0  0
  158.5720  210.3400  154.5110 C   0  0  0  0  0  2  0  0  0  0  0  0
  161.8000  209.2030  154.5010 C   0  0  2  0  0  3  0  0  0  0  0  0
  159.3320  209.5870  155.5920 C   0  0  1  0  0  3  0  0  0  0  0  0
  161.5810  208.5890  155.8760 C   0  0  0  0  0  2  0  0  0  0  0  0
  160.8240  209.8400  155.4890 C   0  0  1  0  0  0  0  0  0  0  0  0
  161.1850  210.9620  156.3690 C   0  0  0  0  0  0  0  0  0  0  0  0
  158.0590  211.3290  155.5440 C   0  0  1  0  0  3  0  0  0  0  0  0
  160.0070  211.4590  157.1180 C   0  0  0  0  0  2  0  0  0  0  0  0
  156.6330  211.1300  155.7370 N   0  0  0  0  0  1  0  0  0  0  0  0
  162.3020  211.4450  156.4580 O   0  0  0  0  0  0  0  0  0  0  0  0
  161.3080  206.2980  152.4140 C   0  0  0  0  0  2  0  0  0  0  0  0
  161.5880  205.8090  151.1330 O   0  0  0  0  0  0  0  0  0  0  0  0
  161.5530  204.3560  148.2040 C   0  0  0  0  0  0  0  0  0  0  0  0
  160.1280  206.1790  149.2630 C   0  0  0  0  0  2  0  0  0  0  0  0
  160.2980  203.9400  150.3540 C   0  0  0  0  0  2  0  0  0  0  0  0
  162.5370  204.7040  146.0140 C   0  0  0  0  0  3  0  0  0  0  0  0
  162.3310  203.8970  147.1360 C   0  0  0  0  0  3  0  0  0  0  0  0
  161.9730  205.9810  145.9580 C   0  0  0  0  0  3  0  0  0  0  0  0
  161.4250  203.4880  149.4240 C   0  0  0  0  0  2  0  0  0  0  0  0
  160.3520  205.4490  150.5870 C   0  0  1  0  0  3  0  0  0  0  0  0
  161.2050  206.4530  147.0260 C   0  0  0  0  0  3  0  0  0  0  0  0
  161.0020  205.6560  148.1580 C   0  0  0  0  0  0  0  0  0  0  0  0
  3  7  1  0  0  0  0
  3  5  1  0  0  0  0
  4  2  1  6  0  0  0
  4 10  1  0  0  0  0
  5  4  1  0  0  0  0
  6  1  1  0  0  0  0
  6  2  1  0  0  0  0
  7  6  1  0  0  0  0
  8 16  1  6  0  0  0
  9 15  1  0  0  0  0
 10 13  1  0  0  0  0
 10 12  1  1  0  0  0
 11  9  1  6  0  0  0
 11  8  1  0  0  0  0
 13 11  1  0  0  0  0
 13 12  1  1  0  0  0
 13 14  1  0  0  0  0
 14 18  2  0  0  0  0
 14 16  1  0  0  0  0
 15 17  1  1  0  0  0
 15  8  1  0  0  0  0
 19  5  1  0  0  0  0
 20 19  1  0  0  0  0
 21 27  1  0  0  0  0
 22 28  1  0  0  0  0
 23 28  1  0  0  0  0
 24 25  1  0  0  0  0
 25 21  2  0  0  0  0
 26 24  2  0  0  0  0
 26 29  1  0  0  0  0
 27 23  1  0  0  0  0
 28 20  1  6  0  0  0
 29 30  2  0  0  0  0
 30 21  1  0  0  0  0
 30 22  1  0  0  0  0
M  END
>  <MODEL>
5

>  <REMARK>
 VINA RESULT:      -5.6      2.680      4.281
  Name = 
  4 active torsions:
  status: ('A' for Active; 'I' for Inactive)
    1  A    between atoms: C_7  and  C_17
    2  A    between atoms: C_9  and  O_16
    3  A    between atoms: C_9  and  N_19
    4  A    between atoms: O_16  and  C_27
                            x       y       z     vdW  Elec       q    Type
                         _______ _______ _______ _____ _____    ______ ____

>  <TORSDO>
F 4

$$$$
