=
 OpenBabel11072412433D

 66 73  0  0  1  0  0  0  0  0999 V2000
  160.3240  211.3740  152.3840 C   0  0  0  0  0  0  0  0  0  0  0  0
  161.0300  211.4770  153.4270 O   0  0  0  0  0  0  0  0  0  0  0  0
  162.3970  209.9760  148.3860 C   0  0  0  0  0  2  0  0  0  0  0  0
  158.9770  211.8570  152.3730 N   0  0  0  0  0  2  0  0  0  0  0  0
  162.2590  211.2420  149.2280 C   0  0  0  0  0  2  0  0  0  0  0  0
  160.5240  208.6030  152.1380 O   0  0  0  0  0  0  0  0  0  0  0  0
  160.8720  210.7220  151.2240 N   0  0  0  0  0  0  0  0  0  0  0  0
  160.8880  211.3540  149.8860 C   0  0  1  0  0  3  0  0  0  0  0  0
  162.3540  208.7260  150.5960 C   0  0  2  0  0  3  0  0  0  0  0  0
  161.2110  209.3290  151.3680 C   0  0  0  0  0  0  0  0  0  0  0  0
  161.9970  208.6730  149.0960 C   0  0  2  0  0  3  0  0  0  0  0  0
  158.3380  212.4040  153.5640 C   0  0  0  0  0  2  0  0  0  0  0  0
  159.1140  213.6030  154.0870 C   0  0  0  0  0  2  0  0  0  0  0  0
  159.3470  213.4880  155.5820 C   0  0  0  0  0  2  0  0  0  0  0  0
  159.0230  211.4260  157.0850 C   0  0  1  0  0  3  0  0  0  0  0  0
  158.3730  212.4760  156.1710 C   0  0  2  0  0  3  0  0  0  0  0  0
  158.6910  211.0880  155.6450 C   0  0  0  0  0  2  0  0  0  0  0  0
  160.5380  211.5400  157.2320 C   0  0  0  0  0  2  0  0  0  0  0  0
  162.6070  210.4190  156.7900 O   0  0  0  0  0  1  0  0  0  0  0  0
  161.2250  210.3300  156.6170 C   0  0  1  0  0  3  0  0  0  0  0  0
  161.6270  208.0100  157.0900 O   0  0  0  0  0  1  0  0  0  0  0  0
  160.7020  209.0440  157.2400 C   0  0  0  0  0  2  0  0  0  0  0  0
  162.8030  207.3970  151.2100 C   0  0  0  0  0  2  0  0  0  0  0  0
  161.6930  206.2490  153.1660 N   0  0  0  0  0  1  0  0  0  0  0  0
  161.6390  206.6820  151.8120 C   0  0  0  0  0  0  0  0  0  0  0  0
  160.6170  206.4420  151.1180 O   0  0  0  0  0  0  0  0  0  0  0  0
  162.6000  207.4680  148.3650 C   0  0  0  0  0  2  0  0  0  0  0  0
  161.5630  206.7000  147.5610 C   0  0  2  0  0  3  0  0  0  0  0  0
  160.3340  206.7770  148.2140 O   0  0  0  0  0  1  0  0  0  0  0  0
  161.9960  205.2450  147.4600 C   0  0  0  0  0  2  0  0  0  0  0  0
  161.8260  204.7200  146.0470 C   0  0  2  0  0  3  0  0  0  0  0  0
  162.0290  205.8600  145.0610 C   0  0  0  0  0  2  0  0  0  0  0  0
  162.0180  205.3470  143.6300 C   0  0  0  0  0  2  0  0  0  0  0  0
  161.7540  206.4960  142.6780 C   0  0  0  0  0  2  0  0  0  0  0  0
  162.4640  206.2710  141.4210 N   0  0  0  0  0  2  0  0  0  0  0  0
  161.8670  207.3740  138.1480 C   0  0  0  0  0  2  0  0  0  0  0  0
  161.7080  206.8280  140.2970 C   0  0  2  0  0  3  0  0  0  0  0  0
  162.2080  206.3720  139.0680 O   0  0  0  0  0  0  0  0  0  0  0  0
  161.8730  208.7060  138.8650 C   0  0  0  0  0  2  0  0  0  0  0  0
  161.7130  208.3450  140.3110 C   0  0  0  0  0  2  0  0  0  0  0  0
  160.4180  204.1600  145.9180 C   0  0  0  0  0  2  0  0  0  0  0  0
  160.2980  202.7630  146.5240 C   0  0  1  0  0  3  0  0  0  0  0  0
  159.2780  202.1470  144.2100 C   0  0  0  0  0  2  0  0  0  0  0  0
  158.3060  201.2240  146.2610 O   0  0  0  0  0  1  0  0  0  0  0  0
  160.1360  200.9740  144.6720 C   0  0  0  0  0  2  0  0  0  0  0  0
  159.4180  201.8360  145.6810 C   0  0  0  0  0  0  0  0  0  0  0  0
  161.6780  202.1690  146.8260 C   0  0  0  0  0  2  0  0  0  0  0  0
  161.5350  199.7860  146.9920 O   0  0  0  0  0  0  0  0  0  0  0  0
  161.6480  200.8800  147.6040 C   0  0  0  0  0  0  0  0  0  0  0  0
  161.7930  200.8580  148.9910 O   0  0  0  0  0  0  0  0  0  0  0  0
  160.6790  203.4390  149.8330 O   0  0  0  0  0  0  0  0  0  0  0  0
  159.3240  200.8820  149.9780 O   0  0  0  0  0  1  0  0  0  0  0  0
  160.4450  203.0710  151.1610 C   0  0  1  0  0  3  0  0  0  0  0  0
  160.7740  201.7500  150.0530 P   0  0  0  0  0  0  0  0  0  0  0  0
  161.3740  202.1280  151.6060 O   0  0  0  0  0  0  0  0  0  0  0  0
  160.3770  212.8090  149.8360 C   0  0  0  0  0  2  0  0  0  0  0  0
  157.2430  213.7130  146.9610 C   0  0  0  0  0  3  0  0  0  0  0  0
  160.7730  213.1000  146.8170 N   0  0  0  0  0  0  0  0  0  0  0  0
  158.5730  213.5130  146.6000 C   0  0  0  0  0  0  0  0  0  0  0  0
  159.5340  213.2190  147.5010 C   0  0  0  0  0  0  0  0  0  0  0  0
  160.5710  213.3240  145.4320 N   0  0  0  0  0  0  0  0  0  0  0  0
  157.9290  213.2960  149.2740 C   0  0  0  0  0  3  0  0  0  0  0  0
  156.9240  213.6000  148.3280 C   0  0  0  0  0  3  0  0  0  0  0  0
  159.1880  213.5900  145.3300 N   0  0  0  0  0  0  0  0  0  0  0  0
  158.5100  213.8540  144.0740 C   0  0  0  0  0  1  0  0  0  0  0  0
  159.2630  213.0850  148.8630 C   0  0  0  0  0  0  0  0  0  0  0  0
  1  2  2  0  0  0  0
  3 11  1  0  0  0  0
  3  5  1  0  0  0  0
  4  1  1  0  0  0  0
  4 12  1  0  0  0  0
  5  8  1  0  0  0  0
  7 10  1  0  0  0  0
  7  1  1  0  0  0  0
  8 56  1  1  0  0  0
  8  7  1  0  0  0  0
  9 23  1  1  0  0  0
  9 10  1  0  0  0  0
 10  6  2  0  0  0  0
 11 27  1  6  0  0  0
 11  9  1  0  0  0  0
 12 13  1  0  0  0  0
 13 14  1  0  0  0  0
 15 18  1  6  0  0  0
 16 14  1  6  0  0  0
 16 15  1  0  0  0  0
 17 16  1  0  0  0  0
 17 15  1  0  0  0  0
 20 19  1  1  0  0  0
 20 18  1  0  0  0  0
 20 22  1  0  0  0  0
 21 22  1  0  0  0  0
 23 25  1  0  0  0  0
 25 24  1  0  0  0  0
 26 25  2  0  0  0  0
 28 29  1  1  0  0  0
 28 27  1  0  0  0  0
 30 28  1  0  0  0  0
 31 32  1  6  0  0  0
 31 30  1  0  0  0  0
 33 32  1  0  0  0  0
 34 33  1  0  0  0  0
 35 34  1  0  0  0  0
 36 39  1  0  0  0  0
 36 38  1  0  0  0  0
 37 40  1  0  0  0  0
 37 35  1  1  0  0  0
 38 37  1  0  0  0  0
 39 40  1  0  0  0  0
 41 31  1  0  0  0  0
 42 41  1  6  0  0  0
 42 47  1  0  0  0  0
 43 45  1  0  0  0  0
 43 46  1  0  0  0  0
 45 46  1  0  0  0  0
 46 44  1  0  0  0  0
 46 42  1  0  0  0  0
 47 49  1  0  0  0  0
 48 49  2  0  0  0  0
 49 50  1  0  0  0  0
 50 54  1  0  0  0  0
 51 54  1  0  0  0  0
 52 54  1  0  0  0  0
 53 51  1  6  0  0  0
 53 55  1  0  0  0  0
 54 53  1  0  0  0  0
 54 55  1  0  0  0  0
 57 63  1  0  0  0  0
 58 60  1  0  0  0  0
 59 57  2  0  0  0  0
 59 60  1  0  0  0  0
 60 66  2  0  0  0  0
 61 58  2  0  0  0  0
 63 62  2  0  0  0  0
 64 61  1  0  0  0  0
 64 59  1  0  0  0  0
 65 64  1  0  0  0  0
 66 62  1  0  0  0  0
 66 56  1  0  0  0  0
M  END
>  <MODEL>
1

>  <REMARK>
 VINA RESULT:      -2.8      0.000      0.000
  Name = 
  27 active torsions:
  status: ('A' for Active; 'I' for Inactive)
    1  A    between atoms: C_2  and  C_19
    2  A    between atoms: C_2  and  C_60
    3  A    between atoms: C_10  and  C_45
    4  A    between atoms: C_10  and  C_51
    5  A    between atoms: C_12  and  C_30
    6  A    between atoms: C_14  and  C_17
    7  A    between atoms: C_14  and  C_46
    8  A    between atoms: C_15  and  C_21
    9  A    between atoms: C_15  and  C_60
   10  A    between atoms: C_17  and  N_64
   11  A    between atoms: C_19  and  O_55
   12  A    between atoms: C_21  and  C_46
   13  A    between atoms: C_21  and  C_65
   14  A    between atoms: N_22  and  C_51
   15  A    between atoms: C_27  and  N_64
   16  A    between atoms: C_29  and  C_53
   17  A    between atoms: C_30  and  C_63
   18  A    between atoms: C_32  and  C_47
   19  A    between atoms: C_32  and  C_62
   20  A    between atoms: C_34  and  C_40
   21  A    between atoms: C_34  and  C_65
   22  A    between atoms: P_38  and  O_55
   23  A    between atoms: C_40  and  C_66
   24  A    between atoms: C_42  and  C_45
   25  A    between atoms: C_49  and  C_53
   26  A    between atoms: C_52  and  C_60
   27  A    between atoms: C_56  and  C_63
                            x       y       z     vdW  Elec       q    Type
                         _______ _______ _______ _____ _____    ______ ____

>  <TORSDO>
F 27

$$$$
=
 OpenBabel11072412433D

 66 73  0  0  1  0  0  0  0  0999 V2000
  160.8700  212.7190  146.7600 C   0  0  0  0  0  0  0  0  0  0  0  0
  160.2390  211.8890  146.0460 O   0  0  0  0  0  0  0  0  0  0  0  0
  161.3020  211.8560  151.3750 C   0  0  0  0  0  2  0  0  0  0  0  0
  161.2710  213.9800  146.2160 N   0  0  0  0  0  2  0  0  0  0  0  0
  160.2580  212.3920  150.3980 C   0  0  0  0  0  2  0  0  0  0  0  0
  163.0060  211.0390  147.3890 O   0  0  0  0  0  0  0  0  0  0  0  0
  161.2240  212.3630  148.1080 N   0  0  0  0  0  0  0  0  0  0  0  0
  160.8830  213.2100  149.2730 C   0  0  1  0  0  3  0  0  0  0  0  0
  162.0400  210.3490  149.4700 C   0  0  2  0  0  3  0  0  0  0  0  0
  162.1230  211.2480  148.2650 C   0  0  0  0  0  0  0  0  0  0  0  0
  162.4870  211.1230  150.7280 C   0  0  2  0  0  3  0  0  0  0  0  0
  161.0500  214.3300  144.8180 C   0  0  0  0  0  2  0  0  0  0  0  0
  162.3480  214.2420  144.0310 C   0  0  0  0  0  2  0  0  0  0  0  0
  162.3550  213.0200  143.1310 C   0  0  0  0  0  2  0  0  0  0  0  0
  160.6880  212.0060  141.4560 C   0  0  1  0  0  3  0  0  0  0  0  0
  160.9220  212.5800  142.8610 C   0  0  2  0  0  3  0  0  0  0  0  0
  160.3160  213.4420  141.7670 C   0  0  0  0  0  2  0  0  0  0  0  0
  161.9120  211.9950  140.5440 C   0  0  0  0  0  2  0  0  0  0  0  0
  162.7130  211.0920  138.4770 O   0  0  0  0  0  1  0  0  0  0  0  0
  161.7930  210.8890  139.5070 C   0  0  1  0  0  3  0  0  0  0  0  0
  161.3790  208.5240  139.4220 O   0  0  0  0  0  1  0  0  0  0  0  0
  162.0200  209.5280  140.1490 C   0  0  0  0  0  2  0  0  0  0  0  0
  162.7630  209.0210  149.2270 C   0  0  0  0  0  2  0  0  0  0  0  0
  160.6670  208.0510  148.2050 N   0  0  0  0  0  1  0  0  0  0  0  0
  162.0760  208.2430  148.1540 C   0  0  0  0  0  0  0  0  0  0  0  0
  162.7440  207.7380  147.2150 O   0  0  0  0  0  0  0  0  0  0  0  0
  163.1960  210.2460  151.7670 C   0  0  0  0  0  2  0  0  0  0  0  0
  162.3410  210.0010  152.9990 C   0  0  2  0  0  3  0  0  0  0  0  0
  163.1200  210.1980  154.1380 O   0  0  0  0  0  1  0  0  0  0  0  0
  161.8350  208.5660  152.9700 C   0  0  0  0  0  2  0  0  0  0  0  0
  160.3240  208.5200  152.8530 C   0  0  2  0  0  3  0  0  0  0  0  0
  159.7060  208.9950  154.1590 C   0  0  0  0  0  2  0  0  0  0  0  0
  160.0470  210.4530  154.4210 C   0  0  0  0  0  2  0  0  0  0  0  0
  160.3350  210.6530  155.8960 C   0  0  0  0  0  2  0  0  0  0  0  0
  159.0960  210.5480  156.6620 N   0  0  0  0  0  2  0  0  0  0  0  0
  156.5500  212.9540  156.8090 C   0  0  0  0  0  2  0  0  0  0  0  0
  158.4910  211.8700  156.8440 C   0  0  2  0  0  3  0  0  0  0  0  0
  157.1530  211.7690  157.2540 O   0  0  0  0  0  0  0  0  0  0  0  0
  157.2370  213.3910  155.5330 C   0  0  0  0  0  2  0  0  0  0  0  0
  158.5680  212.7040  155.5790 C   0  0  0  0  0  2  0  0  0  0  0  0
  159.9150  207.0820  152.5730 C   0  0  0  0  0  2  0  0  0  0  0  0
  160.9140  206.3690  151.6640 C   0  0  1  0  0  3  0  0  0  0  0  0
  161.2190  204.6310  153.5770 C   0  0  0  0  0  2  0  0  0  0  0  0
  163.1790  205.7240  152.5920 O   0  0  0  0  0  1  0  0  0  0  0  0
  161.5520  203.9410  152.2580 C   0  0  0  0  0  2  0  0  0  0  0  0
  161.8270  205.4140  152.4370 C   0  0  0  0  0  0  0  0  0  0  0  0
  160.2070  205.6970  150.4820 C   0  0  0  0  0  2  0  0  0  0  0  0
  162.3350  205.5520  149.3980 O   0  0  0  0  0  0  0  0  0  0  0  0
  161.1310  205.1900  149.4060 C   0  0  0  0  0  0  0  0  0  0  0  0
  160.6980  204.2820  148.4380 O   0  0  0  0  0  0  0  0  0  0  0  0
  163.0270  204.7340  146.7110 O   0  0  0  0  0  0  0  0  0  0  0  0
  161.1800  202.5090  146.5170 O   0  0  0  0  0  1  0  0  0  0  0  0
  162.3120  204.7800  145.5110 C   0  0  1  0  0  3  0  0  0  0  0  0
  161.4380  204.1380  146.8910 P   0  0  0  0  0  0  0  0  0  0  0  0
  161.0230  205.2860  145.6980 O   0  0  0  0  0  0  0  0  0  0  0  0
  160.0220  214.4500  148.9590 C   0  0  0  0  0  2  0  0  0  0  0  0
  155.7410  213.8170  149.3900 C   0  0  0  0  0  3  0  0  0  0  0  0
  158.4880  214.4530  151.6050 N   0  0  0  0  0  0  0  0  0  0  0  0
  156.5890  214.0560  150.4700 C   0  0  0  0  0  0  0  0  0  0  0  0
  157.9140  214.2650  150.3210 C   0  0  0  0  0  0  0  0  0  0  0  0
  157.4750  214.3640  152.5940 N   0  0  0  0  0  0  0  0  0  0  0  0
  157.7110  214.0100  147.9490 C   0  0  0  0  0  3  0  0  0  0  0  0
  156.3230  213.7970  148.1080 C   0  0  0  0  0  3  0  0  0  0  0  0
  156.3010  214.1040  151.8520 N   0  0  0  0  0  0  0  0  0  0  0  0
  154.9870  213.9600  152.4520 C   0  0  0  0  0  1  0  0  0  0  0  0
  158.5320  214.2660  149.0700 C   0  0  0  0  0  0  0  0  0  0  0  0
  1  7  1  0  0  0  0
  2  1  2  0  0  0  0
  4  1  1  0  0  0  0
  5  3  1  0  0  0  0
  6 10  2  0  0  0  0
  7 10  1  0  0  0  0
  7  8  1  0  0  0  0
  8 56  1  6  0  0  0
  8  5  1  0  0  0  0
  9 23  1  6  0  0  0
  9 11  1  0  0  0  0
 10  9  1  0  0  0  0
 11  3  1  0  0  0  0
 11 27  1  1  0  0  0
 12  4  1  0  0  0  0
 13 12  1  0  0  0  0
 14 13  1  0  0  0  0
 15 18  1  6  0  0  0
 15 17  1  0  0  0  0
 15 16  1  0  0  0  0
 16 14  1  6  0  0  0
 17 16  1  0  0  0  0
 20 19  1  6  0  0  0
 20 22  1  0  0  0  0
 20 18  1  0  0  0  0
 21 22  1  0  0  0  0
 25 24  1  0  0  0  0
 25 23  1  0  0  0  0
 26 25  2  0  0  0  0
 27 28  1  0  0  0  0
 28 29  1  1  0  0  0
 30 28  1  0  0  0  0
 31 41  1  1  0  0  0
 31 30  1  0  0  0  0
 31 32  1  0  0  0  0
 32 33  1  0  0  0  0
 33 34  1  0  0  0  0
 34 35  1  0  0  0  0
 36 38  1  0  0  0  0
 37 35  1  6  0  0  0
 37 38  1  0  0  0  0
 39 40  1  0  0  0  0
 39 36  1  0  0  0  0
 40 37  1  0  0  0  0
 42 47  1  6  0  0  0
 42 46  1  0  0  0  0
 42 41  1  0  0  0  0
 45 46  1  0  0  0  0
 45 43  1  0  0  0  0
 46 44  1  0  0  0  0
 46 43  1  0  0  0  0
 48 49  2  0  0  0  0
 49 47  1  0  0  0  0
 50 49  1  0  0  0  0
 51 54  1  0  0  0  0
 52 54  1  0  0  0  0
 53 55  1  1  0  0  0
 53 51  1  0  0  0  0
 53 54  1  0  0  0  0
 54 50  1  0  0  0  0
 55 54  1  0  0  0  0
 56 66  1  0  0  0  0
 57 59  1  0  0  0  0
 58 61  2  0  0  0  0
 59 64  1  0  0  0  0
 60 59  2  0  0  0  0
 60 58  1  0  0  0  0
 62 63  1  0  0  0  0
 62 66  2  0  0  0  0
 63 57  2  0  0  0  0
 64 65  1  0  0  0  0
 64 61  1  0  0  0  0
 66 60  1  0  0  0  0
M  END
>  <MODEL>
2

>  <REMARK>
 VINA RESULT:      -1.5      2.634      9.804
  Name = 
  27 active torsions:
  status: ('A' for Active; 'I' for Inactive)
    1  A    between atoms: C_2  and  C_19
    2  A    between atoms: C_2  and  C_60
    3  A    between atoms: C_10  and  C_45
    4  A    between atoms: C_10  and  C_51
    5  A    between atoms: C_12  and  C_30
    6  A    between atoms: C_14  and  C_17
    7  A    between atoms: C_14  and  C_46
    8  A    between atoms: C_15  and  C_21
    9  A    between atoms: C_15  and  C_60
   10  A    between atoms: C_17  and  N_64
   11  A    between atoms: C_19  and  O_55
   12  A    between atoms: C_21  and  C_46
   13  A    between atoms: C_21  and  C_65
   14  A    between atoms: N_22  and  C_51
   15  A    between atoms: C_27  and  N_64
   16  A    between atoms: C_29  and  C_53
   17  A    between atoms: C_30  and  C_63
   18  A    between atoms: C_32  and  C_47
   19  A    between atoms: C_32  and  C_62
   20  A    between atoms: C_34  and  C_40
   21  A    between atoms: C_34  and  C_65
   22  A    between atoms: P_38  and  O_55
   23  A    between atoms: C_40  and  C_66
   24  A    between atoms: C_42  and  C_45
   25  A    between atoms: C_49  and  C_53
   26  A    between atoms: C_52  and  C_60
   27  A    between atoms: C_56  and  C_63
                            x       y       z     vdW  Elec       q    Type
                         _______ _______ _______ _____ _____    ______ ____

>  <TORSDO>
F 27

$$$$
=
 OpenBabel11072412433D

 66 73  0  0  1  0  0  0  0  0999 V2000
  161.2560  210.9290  152.5580 C   0  0  0  0  0  0  0  0  0  0  0  0
  162.0180  210.7210  153.5450 O   0  0  0  0  0  0  0  0  0  0  0  0
  161.8310  208.3190  148.6740 C   0  0  0  0  0  2  0  0  0  0  0  0
  160.3740  212.0560  152.5530 N   0  0  0  0  0  2  0  0  0  0  0  0
  162.4740  209.5250  149.3540 C   0  0  0  0  0  2  0  0  0  0  0  0
  159.9360  208.4730  152.6560 O   0  0  0  0  0  0  0  0  0  0  0  0
  161.2480  209.9930  151.4660 N   0  0  0  0  0  0  0  0  0  0  0  0
  161.4490  210.4080  150.0590 C   0  0  1  0  0  3  0  0  0  0  0  0
  161.3760  207.4710  151.0230 C   0  0  2  0  0  3  0  0  0  0  0  0
  160.8150  208.6530  151.7680 C   0  0  0  0  0  0  0  0  0  0  0  0
  160.8840  207.4960  149.5620 C   0  0  2  0  0  3  0  0  0  0  0  0
  160.2540  212.9550  153.6940 C   0  0  0  0  0  2  0  0  0  0  0  0
  159.0810  213.9050  153.5090 C   0  0  0  0  0  2  0  0  0  0  0  0
  157.9470  213.5580  154.4560 C   0  0  0  0  0  2  0  0  0  0  0  0
  155.4150  213.1120  154.4960 C   0  0  1  0  0  3  0  0  0  0  0  0
  156.6910  213.2490  153.6520 C   0  0  2  0  0  3  0  0  0  0  0  0
  156.1610  211.8780  154.0310 C   0  0  0  0  0  2  0  0  0  0  0  0
  155.6090  213.2730  156.0010 C   0  0  0  0  0  2  0  0  0  0  0  0
  155.1860  210.9260  155.7900 O   0  0  0  0  0  1  0  0  0  0  0  0
  155.5870  211.9160  156.6880 C   0  0  1  0  0  3  0  0  0  0  0  0
  157.7910  212.7020  157.2300 O   0  0  0  0  0  1  0  0  0  0  0  0
  156.9580  211.5830  157.2570 C   0  0  0  0  0  2  0  0  0  0  0  0
  161.1200  206.1630  151.7780 C   0  0  0  0  0  2  0  0  0  0  0  0
  161.1840  206.1760  154.3030 N   0  0  0  0  0  1  0  0  0  0  0  0
  161.8810  206.1450  153.0620 C   0  0  0  0  0  0  0  0  0  0  0  0
  163.1390  206.1230  153.0510 O   0  0  0  0  0  0  0  0  0  0  0  0
  160.6770  206.1010  148.9600 C   0  0  0  0  0  2  0  0  0  0  0  0
  161.3670  205.9410  147.6160 C   0  0  2  0  0  3  0  0  0  0  0  0
  160.4070  205.9750  146.6060 O   0  0  0  0  0  1  0  0  0  0  0  0
  162.0880  204.6010  147.5880 C   0  0  0  0  0  2  0  0  0  0  0  0
  162.3840  204.1680  146.1650 C   0  0  2  0  0  3  0  0  0  0  0  0
  161.5060  204.9590  145.2080 C   0  0  0  0  0  2  0  0  0  0  0  0
  162.2450  205.2550  143.9130 C   0  0  0  0  0  2  0  0  0  0  0  0
  161.4870  206.3010  143.1200 C   0  0  0  0  0  2  0  0  0  0  0  0
  161.3560  205.8700  141.7300 N   0  0  0  0  0  2  0  0  0  0  0  0
  161.7440  208.0410  139.0060 C   0  0  0  0  0  2  0  0  0  0  0  0
  162.0330  206.8100  140.8350 C   0  0  2  0  0  3  0  0  0  0  0  0
  161.1170  207.6660  140.2030 O   0  0  0  0  0  0  0  0  0  0  0  0
  162.6170  206.8960  138.5410 C   0  0  0  0  0  2  0  0  0  0  0  0
  162.8580  206.0930  139.7840 C   0  0  0  0  0  2  0  0  0  0  0  0
  162.0790  202.6830  146.0500 C   0  0  0  0  0  2  0  0  0  0  0  0
  160.5990  202.3820  146.2710 C   0  0  1  0  0  3  0  0  0  0  0  0
  159.9110  200.7150  144.3950 C   0  0  0  0  0  2  0  0  0  0  0  0
  159.7510  203.1290  144.0050 O   0  0  0  0  0  1  0  0  0  0  0  0
  158.6360  201.2330  145.0530 C   0  0  0  0  0  2  0  0  0  0  0  0
  159.8570  202.1150  144.9590 C   0  0  0  0  0  0  0  0  0  0  0  0
  160.4060  201.2690  147.3060 C   0  0  0  0  0  2  0  0  0  0  0  0
  162.4380  200.0120  147.4170 O   0  0  0  0  0  0  0  0  0  0  0  0
  161.6710  200.8250  147.9920 C   0  0  0  0  0  0  0  0  0  0  0  0
  162.0440  201.3320  149.2370 O   0  0  0  0  0  0  0  0  0  0  0  0
  159.9300  203.2410  149.9430 O   0  0  0  0  0  0  0  0  0  0  0  0
  160.1140  200.5000  150.8640 O   0  0  0  0  0  1  0  0  0  0  0  0
  160.1430  203.1910  151.3240 C   0  0  1  0  0  3  0  0  0  0  0  0
  160.9080  201.9160  150.3900 P   0  0  0  0  0  0  0  0  0  0  0  0
  161.4820  202.9380  151.6310 O   0  0  0  0  0  0  0  0  0  0  0  0
  161.7800  211.8990  149.8510 C   0  0  0  0  0  2  0  0  0  0  0  0
  161.4260  213.2570  145.7350 C   0  0  0  0  0  3  0  0  0  0  0  0
  159.1680  212.6720  148.4590 N   0  0  0  0  0  0  0  0  0  0  0  0
  160.3350  213.1280  146.5910 C   0  0  0  0  0  0  0  0  0  0  0  0
  160.4600  212.7190  147.8710 C   0  0  0  0  0  0  0  0  0  0  0  0
  158.2000  213.0760  147.5050 N   0  0  0  0  0  0  0  0  0  0  0  0
  162.8280  212.5050  147.5950 C   0  0  0  0  0  3  0  0  0  0  0  0
  162.6940  212.9380  146.2570 C   0  0  0  0  0  3  0  0  0  0  0  0
  158.9600  213.3440  146.3450 N   0  0  0  0  0  0  0  0  0  0  0  0
  158.3850  213.8210  145.1000 C   0  0  0  0  0  1  0  0  0  0  0  0
  161.6970  212.4030  148.4350 C   0  0  0  0  0  0  0  0  0  0  0  0
  1  2  2  0  0  0  0
  3  5  1  0  0  0  0
  3 11  1  0  0  0  0
  4  1  1  0  0  0  0
  4 12  1  0  0  0  0
  5  8  1  0  0  0  0
  7 10  1  0  0  0  0
  7  1  1  0  0  0  0
  8 56  1  1  0  0  0
  8  7  1  0  0  0  0
  9 10  1  0  0  0  0
  9 23  1  1  0  0  0
 10  6  2  0  0  0  0
 11 27  1  6  0  0  0
 11  9  1  0  0  0  0
 13 12  1  0  0  0  0
 13 14  1  0  0  0  0
 15 18  1  1  0  0  0
 16 17  1  0  0  0  0
 16 14  1  1  0  0  0
 16 15  1  0  0  0  0
 17 15  1  0  0  0  0
 18 20  1  0  0  0  0
 20 19  1  6  0  0  0
 20 22  1  0  0  0  0
 21 22  1  0  0  0  0
 23 25  1  0  0  0  0
 25 24  1  0  0  0  0
 26 25  2  0  0  0  0
 28 29  1  6  0  0  0
 28 27  1  0  0  0  0
 30 28  1  0  0  0  0
 31 32  1  6  0  0  0
 31 30  1  0  0  0  0
 33 32  1  0  0  0  0
 34 33  1  0  0  0  0
 35 34  1  0  0  0  0
 36 38  1  0  0  0  0
 37 35  1  6  0  0  0
 38 37  1  0  0  0  0
 39 36  1  0  0  0  0
 39 40  1  0  0  0  0
 40 37  1  0  0  0  0
 41 31  1  0  0  0  0
 42 41  1  6  0  0  0
 42 47  1  0  0  0  0
 43 46  1  0  0  0  0
 43 45  1  0  0  0  0
 44 46  1  0  0  0  0
 46 45  1  0  0  0  0
 46 42  1  0  0  0  0
 47 49  1  0  0  0  0
 48 49  2  0  0  0  0
 49 50  1  0  0  0  0
 50 54  1  0  0  0  0
 51 54  1  0  0  0  0
 53 51  1  6  0  0  0
 53 55  1  0  0  0  0
 54 52  1  0  0  0  0
 54 53  1  0  0  0  0
 54 55  1  0  0  0  0
 57 63  2  0  0  0  0
 57 59  1  0  0  0  0
 59 60  2  0  0  0  0
 60 66  1  0  0  0  0
 60 58  1  0  0  0  0
 61 58  2  0  0  0  0
 62 66  2  0  0  0  0
 63 62  1  0  0  0  0
 64 59  1  0  0  0  0
 64 61  1  0  0  0  0
 65 64  1  0  0  0  0
 66 56  1  0  0  0  0
M  END
>  <MODEL>
3

>  <REMARK>
 VINA RESULT:      -1.4      1.825      2.582
  Name = 
  27 active torsions:
  status: ('A' for Active; 'I' for Inactive)
    1  A    between atoms: C_2  and  C_19
    2  A    between atoms: C_2  and  C_60
    3  A    between atoms: C_10  and  C_45
    4  A    between atoms: C_10  and  C_51
    5  A    between atoms: C_12  and  C_30
    6  A    between atoms: C_14  and  C_17
    7  A    between atoms: C_14  and  C_46
    8  A    between atoms: C_15  and  C_21
    9  A    between atoms: C_15  and  C_60
   10  A    between atoms: C_17  and  N_64
   11  A    between atoms: C_19  and  O_55
   12  A    between atoms: C_21  and  C_46
   13  A    between atoms: C_21  and  C_65
   14  A    between atoms: N_22  and  C_51
   15  A    between atoms: C_27  and  N_64
   16  A    between atoms: C_29  and  C_53
   17  A    between atoms: C_30  and  C_63
   18  A    between atoms: C_32  and  C_47
   19  A    between atoms: C_32  and  C_62
   20  A    between atoms: C_34  and  C_40
   21  A    between atoms: C_34  and  C_65
   22  A    between atoms: P_38  and  O_55
   23  A    between atoms: C_40  and  C_66
   24  A    between atoms: C_42  and  C_45
   25  A    between atoms: C_49  and  C_53
   26  A    between atoms: C_52  and  C_60
   27  A    between atoms: C_56  and  C_63
                            x       y       z     vdW  Elec       q    Type
                         _______ _______ _______ _____ _____    ______ ____

>  <TORSDO>
F 27

$$$$
=
 OpenBabel11072412433D

 66 73  0  0  1  0  0  0  0  0999 V2000
  162.1380  205.5210  145.9080 C   0  0  0  0  0  0  0  0  0  0  0  0
  163.3880  205.3710  145.7960 O   0  0  0  0  0  0  0  0  0  0  0  0
  160.2690  205.7240  150.2320 C   0  0  0  0  0  2  0  0  0  0  0  0
  161.2950  205.4340  144.7550 N   0  0  0  0  0  2  0  0  0  0  0  0
  160.7840  204.6740  149.2500 C   0  0  0  0  0  2  0  0  0  0  0  0
  162.2250  208.0670  147.0450 O   0  0  0  0  0  0  0  0  0  0  0  0
  161.5780  205.8290  147.1970 N   0  0  0  0  0  0  0  0  0  0  0  0
  160.4820  205.0390  147.8000 C   0  0  1  0  0  3  0  0  0  0  0  0
  162.0820  207.2290  149.2860 C   0  0  2  0  0  3  0  0  0  0  0  0
  161.9790  207.0790  147.7910 C   0  0  0  0  0  0  0  0  0  0  0  0
  160.6740  207.1720  149.9120 C   0  0  2  0  0  3  0  0  0  0  0  0
  161.8310  205.2550  143.4110 C   0  0  0  0  0  2  0  0  0  0  0  0
  161.3940  206.3940  142.5020 C   0  0  0  0  0  2  0  0  0  0  0  0
  162.5890  207.0280  141.8150 C   0  0  0  0  0  2  0  0  0  0  0  0
  162.4150  208.0640  139.4670 C   0  0  1  0  0  3  0  0  0  0  0  0
  162.4990  206.7850  140.3140 C   0  0  2  0  0  3  0  0  0  0  0  0
  161.1610  207.2770  139.7920 C   0  0  0  0  0  2  0  0  0  0  0  0
  162.4020  209.3690  140.2580 C   0  0  0  0  0  2  0  0  0  0  0  0
  161.9020  210.5610  138.2430 O   0  0  0  0  0  1  0  0  0  0  0  0
  162.7470  210.5420  139.3540 C   0  0  1  0  0  3  0  0  0  0  0  0
  161.7390  212.7180  139.4870 O   0  0  0  0  0  1  0  0  0  0  0  0
  162.6380  211.8550  140.1150 C   0  0  0  0  0  2  0  0  0  0  0  0
  162.9190  208.4530  149.6680 C   0  0  0  0  0  2  0  0  0  0  0  0
  163.2600  210.6720  148.5120 N   0  0  0  0  0  1  0  0  0  0  0  0
  162.3730  209.6810  149.0180 C   0  0  0  0  0  0  0  0  0  0  0  0
  161.1300  209.8520  148.9340 O   0  0  0  0  0  0  0  0  0  0  0  0
  160.5210  208.0490  151.1600 C   0  0  0  0  0  2  0  0  0  0  0  0
  161.5790  207.7530  152.2090 C   0  0  2  0  0  3  0  0  0  0  0  0
  161.7100  206.3720  152.3450 O   0  0  0  0  0  1  0  0  0  0  0  0
  161.1400  208.3560  153.5360 C   0  0  0  0  0  2  0  0  0  0  0  0
  160.4150  209.6710  153.3270 C   0  0  2  0  0  3  0  0  0  0  0  0
  161.1730  210.5030  152.3040 C   0  0  0  0  0  2  0  0  0  0  0  0
  160.2130  211.2930  151.4300 C   0  0  0  0  0  2  0  0  0  0  0  0
  160.2910  212.7650  151.7850 C   0  0  0  0  0  2  0  0  0  0  0  0
  159.0500  213.4330  151.4020 N   0  0  0  0  0  2  0  0  0  0  0  0
  158.9410  214.3520  148.0210 C   0  0  0  0  0  2  0  0  0  0  0  0
  159.2620  214.2710  150.2200 C   0  0  2  0  0  3  0  0  0  0  0  0
  158.3110  214.0010  149.2230 O   0  0  0  0  0  0  0  0  0  0  0  0
  160.4260  214.0990  148.1650 C   0  0  0  0  0  2  0  0  0  0  0  0
  160.6550  214.0970  149.6470 C   0  0  0  0  0  2  0  0  0  0  0  0
  160.3650  210.4000  154.6610 C   0  0  0  0  0  2  0  0  0  0  0  0
  160.5000  209.4420  155.8430 C   0  0  1  0  0  3  0  0  0  0  0  0
  162.9250  210.3880  155.8360 C   0  0  0  0  0  2  0  0  0  0  0  0
  162.4620  208.2160  156.8710 O   0  0  0  0  0  1  0  0  0  0  0  0
  162.3340  210.6240  157.2210 C   0  0  0  0  0  2  0  0  0  0  0  0
  161.9210  209.4190  156.4130 C   0  0  0  0  0  0  0  0  0  0  0  0
  159.4330  209.7180  156.9070 C   0  0  0  0  0  2  0  0  0  0  0  0
  159.5110  212.0870  157.2330 O   0  0  0  0  0  0  0  0  0  0  0  0
  158.8330  211.0990  156.8500 C   0  0  0  0  0  0  0  0  0  0  0  0
  157.5560  211.3210  156.3350 O   0  0  0  0  0  0  0  0  0  0  0  0
  158.3760  213.6280  154.7180 O   0  0  0  0  0  0  0  0  0  0  0  0
  155.8530  212.2200  154.5030 O   0  0  0  0  0  1  0  0  0  0  0  0
  157.3100  214.4530  155.0880 C   0  0  1  0  0  3  0  0  0  0  0  0
  157.1260  212.7520  155.4810 P   0  0  0  0  0  0  0  0  0  0  0  0
  156.8700  214.1760  156.3850 O   0  0  0  0  0  0  0  0  0  0  0  0
  160.0510  203.7910  147.0040 C   0  0  0  0  0  2  0  0  0  0  0  0
  161.7000  199.9490  148.1970 C   0  0  0  0  0  3  0  0  0  0  0  0
  160.3290  201.3420  145.1920 N   0  0  0  0  0  0  0  0  0  0  0  0
  161.2330  200.2110  146.9120 C   0  0  0  0  0  0  0  0  0  0  0  0
  160.7360  201.4120  146.5500 C   0  0  0  0  0  0  0  0  0  0  0  0
  160.5900  200.0430  144.6860 N   0  0  0  0  0  0  0  0  0  0  0  0
  161.1110  202.2580  148.7570 C   0  0  0  0  0  3  0  0  0  0  0  0
  161.6360  201.0000  149.1320 C   0  0  0  0  0  3  0  0  0  0  0  0
  161.1450  199.3570  145.7890 N   0  0  0  0  0  0  0  0  0  0  0  0
  161.5990  197.9790  145.7330 C   0  0  0  0  0  1  0  0  0  0  0  0
  160.6620  202.4860  147.4380 C   0  0  0  0  0  0  0  0  0  0  0  0
  1  7  1  0  0  0  0
  2  1  2  0  0  0  0
  4  1  1  0  0  0  0
  5  3  1  0  0  0  0
  6 10  2  0  0  0  0
  7 10  1  0  0  0  0
  7  8  1  0  0  0  0
  8 56  1  6  0  0  0
  8  5  1  0  0  0  0
  9 23  1  6  0  0  0
  9 11  1  0  0  0  0
 10  9  1  0  0  0  0
 11  3  1  0  0  0  0
 11 27  1  1  0  0  0
 12  4  1  0  0  0  0
 13 12  1  0  0  0  0
 14 13  1  0  0  0  0
 15 17  1  0  0  0  0
 15 18  1  1  0  0  0
 15 16  1  0  0  0  0
 16 14  1  1  0  0  0
 17 16  1  0  0  0  0
 20 19  1  6  0  0  0
 20 22  1  0  0  0  0
 20 18  1  0  0  0  0
 21 22  1  0  0  0  0
 24 25  1  0  0  0  0
 25 23  1  0  0  0  0
 26 25  2  0  0  0  0
 27 28  1  0  0  0  0
 28 29  1  1  0  0  0
 28 30  1  0  0  0  0
 31 32  1  6  0  0  0
 31 30  1  0  0  0  0
 31 41  1  0  0  0  0
 33 34  1  0  0  0  0
 33 32  1  0  0  0  0
 35 34  1  0  0  0  0
 36 39  1  0  0  0  0
 36 38  1  0  0  0  0
 37 35  1  1  0  0  0
 38 37  1  0  0  0  0
 39 40  1  0  0  0  0
 40 37  1  0  0  0  0
 42 41  1  6  0  0  0
 42 46  1  0  0  0  0
 42 47  1  0  0  0  0
 43 46  1  0  0  0  0
 43 45  1  0  0  0  0
 46 44  1  0  0  0  0
 46 45  1  0  0  0  0
 49 47  1  0  0  0  0
 49 48  2  0  0  0  0
 50 49  1  0  0  0  0
 51 54  1  0  0  0  0
 52 54  1  0  0  0  0
 53 51  1  1  0  0  0
 53 54  1  0  0  0  0
 53 55  1  0  0  0  0
 54 50  1  0  0  0  0
 54 55  1  0  0  0  0
 56 66  1  0  0  0  0
 57 63  1  0  0  0  0
 58 60  1  0  0  0  0
 59 57  2  0  0  0  0
 60 59  1  0  0  0  0
 60 66  2  0  0  0  0
 61 58  2  0  0  0  0
 61 64  1  0  0  0  0
 62 63  2  0  0  0  0
 64 59  1  0  0  0  0
 65 64  1  0  0  0  0
 66 62  1  0  0  0  0
M  END
>  <MODEL>
4

>  <REMARK>
 VINA RESULT:      -0.3      3.356     12.036
  Name = 
  27 active torsions:
  status: ('A' for Active; 'I' for Inactive)
    1  A    between atoms: C_2  and  C_19
    2  A    between atoms: C_2  and  C_60
    3  A    between atoms: C_10  and  C_45
    4  A    between atoms: C_10  and  C_51
    5  A    between atoms: C_12  and  C_30
    6  A    between atoms: C_14  and  C_17
    7  A    between atoms: C_14  and  C_46
    8  A    between atoms: C_15  and  C_21
    9  A    between atoms: C_15  and  C_60
   10  A    between atoms: C_17  and  N_64
   11  A    between atoms: C_19  and  O_55
   12  A    between atoms: C_21  and  C_46
   13  A    between atoms: C_21  and  C_65
   14  A    between atoms: N_22  and  C_51
   15  A    between atoms: C_27  and  N_64
   16  A    between atoms: C_29  and  C_53
   17  A    between atoms: C_30  and  C_63
   18  A    between atoms: C_32  and  C_47
   19  A    between atoms: C_32  and  C_62
   20  A    between atoms: C_34  and  C_40
   21  A    between atoms: C_34  and  C_65
   22  A    between atoms: P_38  and  O_55
   23  A    between atoms: C_40  and  C_66
   24  A    between atoms: C_42  and  C_45
   25  A    between atoms: C_49  and  C_53
   26  A    between atoms: C_52  and  C_60
   27  A    between atoms: C_56  and  C_63
                            x       y       z     vdW  Elec       q    Type
                         _______ _______ _______ _____ _____    ______ ____

>  <TORSDO>
F 27

$$$$
=
 OpenBabel11072412433D

 66 73  0  0  1  0  0  0  0  0999 V2000
  160.4420  210.4320  152.3340 C   0  0  0  0  0  0  0  0  0  0  0  0
  161.0330  210.2100  153.4290 O   0  0  0  0  0  0  0  0  0  0  0  0
  162.8470  209.8680  148.3180 C   0  0  0  0  0  2  0  0  0  0  0  0
  159.1410  211.0260  152.3240 N   0  0  0  0  0  2  0  0  0  0  0  0
  162.7020  210.8980  149.4370 C   0  0  0  0  0  2  0  0  0  0  0  0
  160.4820  207.7990  151.4140 O   0  0  0  0  0  0  0  0  0  0  0  0
  161.0710  210.0360  151.1020 N   0  0  0  0  0  0  0  0  0  0  0  0
  161.2780  210.9720  149.9750 C   0  0  1  0  0  3  0  0  0  0  0  0
  162.4760  208.1260  150.1260 C   0  0  2  0  0  3  0  0  0  0  0  0
  161.2970  208.6250  150.9190 C   0  0  0  0  0  0  0  0  0  0  0  0
  162.2850  208.4750  148.6360 C   0  0  2  0  0  3  0  0  0  0  0  0
  158.4120  211.3220  153.5520 C   0  0  0  0  0  2  0  0  0  0  0  0
  157.8790  212.7460  153.5300 C   0  0  0  0  0  2  0  0  0  0  0  0
  158.8790  213.7090  154.1400 C   0  0  0  0  0  2  0  0  0  0  0  0
  159.2530  213.2970  156.6510 C   0  0  1  0  0  3  0  0  0  0  0  0
  158.4600  214.0420  155.5660 C   0  0  2  0  0  3  0  0  0  0  0  0
  157.8810  212.8080  156.2330 C   0  0  0  0  0  2  0  0  0  0  0  0
  160.3080  212.3230  156.1340 C   0  0  0  0  0  2  0  0  0  0  0  0
  159.9780  210.2320  157.2530 O   0  0  0  0  0  1  0  0  0  0  0  0
  160.7590  211.3880  157.2470 C   0  0  1  0  0  3  0  0  0  0  0  0
  162.3630  209.8000  156.4260 O   0  0  0  0  0  1  0  0  0  0  0  0
  162.2270  211.0260  157.0780 C   0  0  0  0  0  2  0  0  0  0  0  0
  162.7630  206.6510  150.4210 C   0  0  0  0  0  2  0  0  0  0  0  0
  161.7050  205.2080  152.2040 N   0  0  0  0  0  1  0  0  0  0  0  0
  162.4890  206.3440  151.8560 C   0  0  0  0  0  0  0  0  0  0  0  0
  162.9310  207.0990  152.7600 O   0  0  0  0  0  0  0  0  0  0  0  0
  162.8820  207.4350  147.6810 C   0  0  0  0  0  2  0  0  0  0  0  0
  161.8450  206.8520  146.7360 C   0  0  2  0  0  3  0  0  0  0  0  0
  160.5860  206.9470  147.3290 O   0  0  0  0  0  1  0  0  0  0  0  0
  162.1770  205.3900  146.4780 C   0  0  0  0  0  2  0  0  0  0  0  0
  161.8270  204.9900  145.0580 C   0  0  2  0  0  3  0  0  0  0  0  0
  161.6060  206.2430  144.2250 C   0  0  0  0  0  2  0  0  0  0  0  0
  161.4050  205.8910  142.7600 C   0  0  0  0  0  2  0  0  0  0  0  0
  162.2100  206.8380  141.8920 C   0  0  0  0  0  2  0  0  0  0  0  0
  161.9610  206.5490  140.4820 N   0  0  0  0  0  2  0  0  0  0  0  0
  161.8450  209.9770  139.7560 C   0  0  0  0  0  2  0  0  0  0  0  0
  162.0850  207.7670  139.6790 C   0  0  2  0  0  3  0  0  0  0  0  0
  162.3460  208.8870  140.4830 O   0  0  0  0  0  0  0  0  0  0  0  0
  160.6550  209.5080  138.9470 C   0  0  0  0  0  2  0  0  0  0  0  0
  160.8420  208.0240  138.8480 C   0  0  0  0  0  2  0  0  0  0  0  0
  160.5550  204.1580  145.1010 C   0  0  0  0  0  2  0  0  0  0  0  0
  160.5210  203.2240  146.3090 C   0  0  1  0  0  3  0  0  0  0  0  0
  159.0870  201.0940  145.8850 C   0  0  0  0  0  2  0  0  0  0  0  0
  161.5080  200.8950  146.2060 O   0  0  0  0  0  1  0  0  0  0  0  0
  159.7850  201.4570  144.5780 C   0  0  0  0  0  2  0  0  0  0  0  0
  160.4470  201.7490  145.9020 C   0  0  0  0  0  0  0  0  0  0  0  0
  161.6730  203.5220  147.2740 C   0  0  0  0  0  2  0  0  0  0  0  0
  160.2820  204.7280  148.8010 O   0  0  0  0  0  0  0  0  0  0  0  0
  161.2410  203.9270  148.6590 C   0  0  0  0  0  0  0  0  0  0  0  0
  161.8470  203.3980  149.7990 O   0  0  0  0  0  0  0  0  0  0  0  0
  162.0550  201.4760  152.0060 O   0  0  0  0  0  0  0  0  0  0  0  0
  159.6610  202.9130  151.2320 O   0  0  0  0  0  1  0  0  0  0  0  0
  161.0780  200.5990  151.5280 C   0  0  1  0  0  3  0  0  0  0  0  0
  161.1140  202.1810  150.7700 P   0  0  0  0  0  0  0  0  0  0  0  0
  161.0200  200.6000  150.1320 O   0  0  0  0  0  0  0  0  0  0  0  0
  160.8750  212.4350  150.2480 C   0  0  0  0  0  2  0  0  0  0  0  0
  158.6720  214.3600  147.0320 C   0  0  0  0  0  3  0  0  0  0  0  0
  157.8570  212.9330  150.2190 N   0  0  0  0  0  0  0  0  0  0  0  0
  158.0670  213.8950  148.1970 C   0  0  0  0  0  0  0  0  0  0  0  0
  158.7650  213.3110  149.1940 C   0  0  0  0  0  0  0  0  0  0  0  0
  156.5400  213.3030  149.8440 N   0  0  0  0  0  0  0  0  0  0  0  0
  160.7990  213.5840  147.9620 C   0  0  0  0  0  3  0  0  0  0  0  0
  160.0660  214.1980  146.9220 C   0  0  0  0  0  3  0  0  0  0  0  0
  156.7040  213.8920  148.5710 N   0  0  0  0  0  0  0  0  0  0  0  0
  155.6110  214.4530  147.7980 C   0  0  0  0  0  1  0  0  0  0  0  0
  160.1480  213.1400  149.1350 C   0  0  0  0  0  0  0  0  0  0  0  0
  1  2  2  0  0  0  0
  3 11  1  0  0  0  0
  3  5  1  0  0  0  0
  4  1  1  0  0  0  0
  4 12  1  0  0  0  0
  5  8  1  0  0  0  0
  7  1  1  0  0  0  0
  8 56  1  1  0  0  0
  8  7  1  0  0  0  0
  9 23  1  6  0  0  0
  9 10  1  0  0  0  0
 10  7  1  0  0  0  0
 10  6  2  0  0  0  0
 11 27  1  6  0  0  0
 11  9  1  0  0  0  0
 13 12  1  0  0  0  0
 13 14  1  0  0  0  0
 15 18  1  6  0  0  0
 16 14  1  6  0  0  0
 16 17  1  0  0  0  0
 16 15  1  0  0  0  0
 17 15  1  0  0  0  0
 18 20  1  0  0  0  0
 20 19  1  6  0  0  0
 21 22  1  0  0  0  0
 22 20  1  0  0  0  0
 23 25  1  0  0  0  0
 25 24  1  0  0  0  0
 25 26  2  0  0  0  0
 28 29  1  1  0  0  0
 28 27  1  0  0  0  0
 30 28  1  0  0  0  0
 31 32  1  6  0  0  0
 31 41  1  0  0  0  0
 31 30  1  0  0  0  0
 33 32  1  0  0  0  0
 34 33  1  0  0  0  0
 35 34  1  0  0  0  0
 36 38  1  0  0  0  0
 37 35  1  1  0  0  0
 37 38  1  0  0  0  0
 39 36  1  0  0  0  0
 40 39  1  0  0  0  0
 40 37  1  0  0  0  0
 42 41  1  6  0  0  0
 42 47  1  0  0  0  0
 43 46  1  0  0  0  0
 45 43  1  0  0  0  0
 45 46  1  0  0  0  0
 46 44  1  0  0  0  0
 46 42  1  0  0  0  0
 47 49  1  0  0  0  0
 49 48  2  0  0  0  0
 49 50  1  0  0  0  0
 50 54  1  0  0  0  0
 53 55  1  6  0  0  0
 53 51  1  0  0  0  0
 54 52  1  0  0  0  0
 54 53  1  0  0  0  0
 54 51  1  0  0  0  0
 55 54  1  0  0  0  0
 57 59  1  0  0  0  0
 59 64  1  0  0  0  0
 59 60  2  0  0  0  0
 60 58  1  0  0  0  0
 61 58  2  0  0  0  0
 62 66  2  0  0  0  0
 63 57  2  0  0  0  0
 63 62  1  0  0  0  0
 64 61  1  0  0  0  0
 65 64  1  0  0  0  0
 66 60  1  0  0  0  0
 66 56  1  0  0  0  0
M  END
>  <MODEL>
5

>  <REMARK>
 VINA RESULT:      -0.1      1.615      2.177
  Name = 
  27 active torsions:
  status: ('A' for Active; 'I' for Inactive)
    1  A    between atoms: C_2  and  C_19
    2  A    between atoms: C_2  and  C_60
    3  A    between atoms: C_10  and  C_45
    4  A    between atoms: C_10  and  C_51
    5  A    between atoms: C_12  and  C_30
    6  A    between atoms: C_14  and  C_17
    7  A    between atoms: C_14  and  C_46
    8  A    between atoms: C_15  and  C_21
    9  A    between atoms: C_15  and  C_60
   10  A    between atoms: C_17  and  N_64
   11  A    between atoms: C_19  and  O_55
   12  A    between atoms: C_21  and  C_46
   13  A    between atoms: C_21  and  C_65
   14  A    between atoms: N_22  and  C_51
   15  A    between atoms: C_27  and  N_64
   16  A    between atoms: C_29  and  C_53
   17  A    between atoms: C_30  and  C_63
   18  A    between atoms: C_32  and  C_47
   19  A    between atoms: C_32  and  C_62
   20  A    between atoms: C_34  and  C_40
   21  A    between atoms: C_34  and  C_65
   22  A    between atoms: P_38  and  O_55
   23  A    between atoms: C_40  and  C_66
   24  A    between atoms: C_42  and  C_45
   25  A    between atoms: C_49  and  C_53
   26  A    between atoms: C_52  and  C_60
   27  A    between atoms: C_56  and  C_63
                            x       y       z     vdW  Elec       q    Type
                         _______ _______ _______ _____ _____    ______ ____

>  <TORSDO>
F 27

$$$$
