=
 OpenBabel11072413463D

 29 33  0  0  1  0  0  0  0  0999 V2000
  161.0900  204.0110  147.3430 C   0  0  1  0  0  3  0  0  0  0  0  0
  160.3140  202.5840  150.0590 C   0  0  0  0  0  2  0  0  0  0  0  0
  161.4360  204.4790  151.1050 N   0  0  2  0  0  0  0  0  0  0  0  0
  161.8790  204.3920  144.9460 N   0  0  0  0  0  0  0  0  0  0  0  0
  163.1660  206.1960  151.4390 C   0  0  0  0  0  2  0  0  0  0  0  0
  161.9870  203.1560  148.2360 C   0  0  0  0  0  2  0  0  0  0  0  0
  162.7400  204.7470  151.7060 C   0  0  0  0  0  2  0  0  0  0  0  0
  160.3350  205.2770  151.6870 C   0  0  2  0  0  3  0  0  0  0  0  0
  162.5830  207.9320  148.7540 O   0  0  0  0  0  0  0  0  0  0  0  0
  160.6210  206.7790  151.5540 C   0  0  2  0  0  3  0  0  0  0  0  0
  161.1250  203.0670  151.2590 C   0  0  0  0  0  2  0  0  0  0  0  0
  161.4650  205.4600  147.5370 C   0  0  0  0  0  0  0  0  0  0  0  0
  161.2130  203.5670  145.9100 C   0  0  0  0  0  0  0  0  0  0  0  0
  162.0540  206.1700  146.5660 C   0  0  0  0  0  3  0  0  0  0  0  0
  161.9530  207.0990  149.4600 C   0  0  0  0  0  0  0  0  0  0  0  0
  162.2810  205.5920  145.2330 C   0  0  0  0  0  3  0  0  0  0  0  0
  162.0240  207.1440  150.9780 C   0  0  2  0  0  0  0  0  0  0  0  0
  160.7440  202.4540  145.5580 O   0  0  0  0  0  0  0  0  0  0  0  0
  160.6800  206.1140  152.9230 C   0  0  0  0  0  2  0  0  0  0  0  0
  161.2600  206.0090  148.8400 N   0  0  0  0  0  2  0  0  0  0  0  0
  161.2040  202.0520  148.9370 C   0  0  0  0  0  2  0  0  0  0  0  0
  162.3170  208.5700  151.4740 C   0  0  0  0  0  2  0  0  0  0  0  0
  161.0820  209.4610  151.5820 C   0  0  0  0  0  2  0  0  0  0  0  0
  161.0220  209.5630  154.0660 C   0  0  0  0  0  2  0  0  0  0  0  0
  161.1990  210.3850  152.7820 C   0  0  0  0  0  3  0  0  0  0  0  0
  160.5510  210.4410  155.2220 C   0  0  0  0  0  2  0  0  0  0  0  0
  159.1820  211.0670  154.9260 C   0  0  0  0  0  2  0  0  0  0  0  0
  158.9110  211.2750  153.4300 C   0  0  0  0  0  2  0  0  0  0  0  0
  160.2040  211.5550  152.6670 C   0  0  0  0  0  2  0  0  0  0  0  0
  1 12  1  0  0  0  0
  1  6  1  1  0  0  0
  2 11  1  0  0  0  0
  3 11  1  1  0  0  0
  3  8  1  0  0  0  0
  3  7  1  0  0  0  0
  4 16  2  0  0  0  0
  4 13  1  0  0  0  0
  5  7  1  0  0  0  0
  6 21  1  0  0  0  0
  8 19  1  1  0  0  0
  9 15  2  0  0  0  0
 10  8  1  0  0  0  0
 10 19  1  1  0  0  0
 12 20  1  0  0  0  0
 13  1  1  0  0  0  0
 14 12  2  0  0  0  0
 15 17  1  0  0  0  0
 16 14  1  0  0  0  0
 17  5  1  0  0  0  0
 17 22  1  1  0  0  0
 17 10  1  0  0  0  0
 18 13  2  0  0  0  0
 20 15  1  0  0  0  0
 21  2  1  0  0  0  0
 22 23  1  0  0  0  0
 23 25  1  0  0  0  0
 24 26  1  0  0  0  0
 25 24  1  0  0  0  0
 27 26  1  0  0  0  0
 28 27  1  0  0  0  0
 29 25  1  0  0  0  0
 29 28  1  0  0  0  0
M  END
>  <MODEL>
1

>  <REMARK>
 VINA RESULT:      -7.2      0.000      0.000
  Name = 
  3 active torsions:
  status: ('A' for Active; 'I' for Inactive)
    1  A    between atoms: C_7  and  C_11
    2  A    between atoms: C_11  and  C_28
    3  A    between atoms: C_23  and  C_28
                            x       y       z     vdW  Elec       q    Type
                         _______ _______ _______ _____ _____    ______ ____

>  <TORSDO>
F 3

$$$$
=
 OpenBabel11072413463D

 29 33  0  0  1  0  0  0  0  0999 V2000
  160.3890  209.0190  154.7520 C   0  0  1  0  0  3  0  0  0  0  0  0
  160.8980  210.4660  151.9850 C   0  0  0  0  0  2  0  0  0  0  0  0
  161.7430  208.2940  151.2690 N   0  0  2  0  0  0  0  0  0  0  0  0
  160.2670  208.5600  157.2600 N   0  0  0  0  0  0  0  0  0  0  0  0
  162.9720  206.1680  151.4260 C   0  0  0  0  0  2  0  0  0  0  0  0
  161.7110  209.5630  154.2150 C   0  0  0  0  0  2  0  0  0  0  0  0
  163.0500  207.6640  151.0940 C   0  0  0  0  0  2  0  0  0  0  0  0
  160.7060  207.7870  150.3450 C   0  0  2  0  0  3  0  0  0  0  0  0
  161.1480  204.7790  153.7300 O   0  0  0  0  0  0  0  0  0  0  0  0
  160.5280  206.2720  150.5040 C   0  0  2  0  0  3  0  0  0  0  0  0
  161.8820  209.7290  151.0790 C   0  0  0  0  0  2  0  0  0  0  0  0
  160.4070  207.5150  154.6310 C   0  0  0  0  0  0  0  0  0  0  0  0
  160.1760  209.4830  156.1690 C   0  0  0  0  0  0  0  0  0  0  0  0
  160.4560  206.7230  155.7100 C   0  0  0  0  0  3  0  0  0  0  0  0
  161.0120  205.7140  152.8950 C   0  0  0  0  0  0  0  0  0  0  0  0
  160.4040  207.2840  157.0680 C   0  0  0  0  0  3  0  0  0  0  0  0
  161.5340  205.5780  151.4740 C   0  0  2  0  0  0  0  0  0  0  0  0
  159.9340  210.6970  156.3990 O   0  0  0  0  0  0  0  0  0  0  0  0
  161.1820  206.8300  149.2480 C   0  0  0  0  0  2  0  0  0  0  0  0
  160.4760  206.9760  153.3090 N   0  0  0  0  0  2  0  0  0  0  0  0
  161.5050  210.7990  153.3470 C   0  0  0  0  0  2  0  0  0  0  0  0
  161.5770  204.1030  151.0410 C   0  0  0  0  0  2  0  0  0  0  0  0
  160.7110  203.7830  149.8240 C   0  0  0  0  0  2  0  0  0  0  0  0
  161.3170  204.0490  147.4270 C   0  0  0  0  0  2  0  0  0  0  0  0
  161.5660  203.2260  148.6980 C   0  0  0  0  0  3  0  0  0  0  0  0
  161.6500  203.2430  146.1750 C   0  0  0  0  0  2  0  0  0  0  0  0
  160.7590  202.0000  146.0570 C   0  0  0  0  0  2  0  0  0  0  0  0
  160.2760  201.4590  147.4100 C   0  0  0  0  0  2  0  0  0  0  0  0
  161.3030  201.7200  148.5090 C   0  0  0  0  0  2  0  0  0  0  0  0
  1  6  1  1  0  0  0
  1 13  1  0  0  0  0
  2 21  1  0  0  0  0
  3 11  1  6  0  0  0
  5 17  1  0  0  0  0
  7  3  1  0  0  0  0
  7  5  1  0  0  0  0
  8 19  1  6  0  0  0
  8 10  1  0  0  0  0
  8  3  1  0  0  0  0
 10 19  1  6  0  0  0
 10 17  1  0  0  0  0
 11  2  1  0  0  0  0
 12  1  1  0  0  0  0
 12 14  2  0  0  0  0
 13 18  2  0  0  0  0
 13  4  1  0  0  0  0
 14 16  1  0  0  0  0
 15 20  1  0  0  0  0
 15  9  2  0  0  0  0
 16  4  2  0  0  0  0
 17 22  1  6  0  0  0
 17 15  1  0  0  0  0
 20 12  1  0  0  0  0
 21  6  1  0  0  0  0
 23 22  1  0  0  0  0
 24 25  1  0  0  0  0
 25 23  1  0  0  0  0
 26 24  1  0  0  0  0
 27 26  1  0  0  0  0
 27 28  1  0  0  0  0
 28 29  1  0  0  0  0
 29 25  1  0  0  0  0
M  END
>  <MODEL>
2

>  <REMARK>
 VINA RESULT:      -6.8      2.874      8.351
  Name = 
  3 active torsions:
  status: ('A' for Active; 'I' for Inactive)
    1  A    between atoms: C_7  and  C_11
    2  A    between atoms: C_11  and  C_28
    3  A    between atoms: C_23  and  C_28
                            x       y       z     vdW  Elec       q    Type
                         _______ _______ _______ _____ _____    ______ ____

>  <TORSDO>
F 3

$$$$
=
 OpenBabel11072413463D

 29 33  0  0  1  0  0  0  0  0999 V2000
  161.5220  203.7260  147.6660 C   0  0  1  0  0  3  0  0  0  0  0  0
  162.3320  206.7540  147.2260 C   0  0  0  0  0  2  0  0  0  0  0  0
  161.6360  207.0350  149.5460 N   0  0  2  0  0  0  0  0  0  0  0  0
  160.5680  201.3920  147.2750 N   0  0  0  0  0  0  0  0  0  0  0  0
  160.2420  206.7460  151.5520 C   0  0  0  0  0  2  0  0  0  0  0  0
  160.5960  204.9060  147.3830 C   0  0  0  0  0  2  0  0  0  0  0  0
  160.4570  207.5320  150.2520 C   0  0  0  0  0  2  0  0  0  0  0  0
  162.9020  207.2320  150.2830 C   0  0  2  0  0  3  0  0  0  0  0  0
  160.8200  203.5850  152.0350 O   0  0  0  0  0  0  0  0  0  0  0  0
  162.8460  206.5470  151.6550 C   0  0  2  0  0  3  0  0  0  0  0  0
  161.7320  207.7050  148.2580 C   0  0  0  0  0  2  0  0  0  0  0  0
  161.4040  203.3650  149.1270 C   0  0  0  0  0  0  0  0  0  0  0  0
  161.1870  202.5750  146.7560 C   0  0  0  0  0  0  0  0  0  0  0  0
  160.8410  202.2170  149.5240 C   0  0  0  0  0  3  0  0  0  0  0  0
  161.3780  204.5340  151.4200 C   0  0  0  0  0  0  0  0  0  0  0  0
  160.3920  201.2130  148.5470 C   0  0  0  0  0  3  0  0  0  0  0  0
  161.4680  205.9210  152.0340 C   0  0  2  0  0  0  0  0  0  0  0  0
  161.4360  202.6580  145.5250 O   0  0  0  0  0  0  0  0  0  0  0  0
  162.8200  208.0660  151.5650 C   0  0  0  0  0  2  0  0  0  0  0  0
  161.8240  204.3530  150.0710 N   0  0  0  0  0  2  0  0  0  0  0  0
  161.2600  205.9490  146.4920 C   0  0  0  0  0  2  0  0  0  0  0  0
  161.4560  205.8460  153.5710 C   0  0  0  0  0  2  0  0  0  0  0  0
  160.4560  206.7900  154.2350 C   0  0  0  0  0  2  0  0  0  0  0  0
  160.8660  207.7050  156.5110 C   0  0  0  0  0  2  0  0  0  0  0  0
  161.1860  207.8670  155.0190 C   0  0  0  0  0  3  0  0  0  0  0  0
  161.0560  209.0200  157.2610 C   0  0  0  0  0  2  0  0  0  0  0  0
  160.1050  210.1050  156.7380 C   0  0  0  0  0  2  0  0  0  0  0  0
  159.7160  209.9220  155.2640 C   0  0  0  0  0  2  0  0  0  0  0  0
  160.8430  209.2650  154.4710 C   0  0  0  0  0  2  0  0  0  0  0  0
  1  6  1  6  0  0  0
  1 12  1  0  0  0  0
  2 11  1  0  0  0  0
  3 11  1  6  0  0  0
  3  7  1  0  0  0  0
  3  8  1  0  0  0  0
  4 16  2  0  0  0  0
  5 17  1  0  0  0  0
  7  5  1  0  0  0  0
  8 19  1  1  0  0  0
  8 10  1  0  0  0  0
 10 19  1  1  0  0  0
 10 17  1  0  0  0  0
 12 14  2  0  0  0  0
 12 20  1  0  0  0  0
 13  4  1  0  0  0  0
 13  1  1  0  0  0  0
 15 17  1  0  0  0  0
 15  9  2  0  0  0  0
 16 14  1  0  0  0  0
 17 22  1  1  0  0  0
 18 13  2  0  0  0  0
 20 15  1  0  0  0  0
 21  2  1  0  0  0  0
 21  6  1  0  0  0  0
 22 23  1  0  0  0  0
 23 25  1  0  0  0  0
 24 26  1  0  0  0  0
 25 24  1  0  0  0  0
 27 26  1  0  0  0  0
 28 27  1  0  0  0  0
 29 25  1  0  0  0  0
 29 28  1  0  0  0  0
M  END
>  <MODEL>
3

>  <REMARK>
 VINA RESULT:      -6.1      1.845      3.515
  Name = 
  3 active torsions:
  status: ('A' for Active; 'I' for Inactive)
    1  A    between atoms: C_7  and  C_11
    2  A    between atoms: C_11  and  C_28
    3  A    between atoms: C_23  and  C_28
                            x       y       z     vdW  Elec       q    Type
                         _______ _______ _______ _____ _____    ______ ____

>  <TORSDO>
F 3

$$$$
=
 OpenBabel11072413463D

 29 33  0  0  1  0  0  0  0  0999 V2000
  160.9520  203.6890  147.0580 C   0  0  1  0  0  3  0  0  0  0  0  0
  160.1490  201.5340  149.2320 C   0  0  0  0  0  2  0  0  0  0  0  0
  161.1260  203.1080  150.8170 N   0  0  2  0  0  0  0  0  0  0  0  0
  161.8110  204.7530  144.9040 N   0  0  0  0  0  0  0  0  0  0  0  0
  162.7470  204.7340  151.7000 C   0  0  0  0  0  2  0  0  0  0  0  0
  161.8580  202.6570  147.7260 C   0  0  0  0  0  2  0  0  0  0  0  0
  162.3900  203.2520  151.5350 C   0  0  0  0  0  2  0  0  0  0  0  0
  159.9620  203.6670  151.5370 C   0  0  2  0  0  3  0  0  0  0  0  0
  162.1760  207.1220  149.5710 O   0  0  0  0  0  0  0  0  0  0  0  0
  160.1720  205.1570  151.8390 C   0  0  2  0  0  3  0  0  0  0  0  0
  160.8860  201.6970  150.5590 C   0  0  0  0  0  2  0  0  0  0  0  0
  161.2410  205.0410  147.6630 C   0  0  0  0  0  0  0  0  0  0  0  0
  161.1540  203.6670  145.5670 C   0  0  0  0  0  0  0  0  0  0  0  0
  161.8270  206.0170  146.9570 C   0  0  0  0  0  3  0  0  0  0  0  0
  161.5650  206.1000  149.9860 C   0  0  0  0  0  0  0  0  0  0  0  0
  162.1360  205.8420  145.5300 C   0  0  0  0  0  3  0  0  0  0  0  0
  161.5740  205.7250  151.4590 C   0  0  2  0  0  0  0  0  0  0  0  0
  160.7590  202.6760  144.8980 O   0  0  0  0  0  0  0  0  0  0  0  0
  160.2140  204.1410  152.9720 C   0  0  0  0  0  2  0  0  0  0  0  0
  160.9550  205.1990  149.0550 N   0  0  0  0  0  2  0  0  0  0  0  0
  161.1100  201.3710  148.0550 C   0  0  0  0  0  2  0  0  0  0  0  0
  161.7710  206.9680  152.3440 C   0  0  0  0  0  2  0  0  0  0  0  0
  161.6590  206.6940  153.8420 C   0  0  0  0  0  2  0  0  0  0  0  0
  160.8670  209.0440  154.0190 C   0  0  0  0  0  2  0  0  0  0  0  0
  160.6140  207.6000  154.4700 C   0  0  0  0  0  3  0  0  0  0  0  0
  160.2780  210.0420  155.0110 C   0  0  0  0  0  2  0  0  0  0  0  0
  160.9310  209.9080  156.3930 C   0  0  0  0  0  2  0  0  0  0  0  0
  161.4500  208.4950  156.6930 C   0  0  0  0  0  2  0  0  0  0  0  0
  160.5990  207.4330  156.0010 C   0  0  0  0  0  2  0  0  0  0  0  0
  1 12  1  0  0  0  0
  1  6  1  1  0  0  0
  2 11  1  0  0  0  0
  3 11  1  1  0  0  0
  3  7  1  0  0  0  0
  3  8  1  0  0  0  0
  4 16  2  0  0  0  0
  4 13  1  0  0  0  0
  6 21  1  0  0  0  0
  7  5  1  0  0  0  0
  8 10  1  0  0  0  0
  8 19  1  1  0  0  0
  9 15  2  0  0  0  0
 10 19  1  1  0  0  0
 12 20  1  0  0  0  0
 13  1  1  0  0  0  0
 14 12  2  0  0  0  0
 15 17  1  0  0  0  0
 16 14  1  0  0  0  0
 17  5  1  0  0  0  0
 17 10  1  0  0  0  0
 17 22  1  1  0  0  0
 18 13  2  0  0  0  0
 20 15  1  0  0  0  0
 21  2  1  0  0  0  0
 22 23  1  0  0  0  0
 23 25  1  0  0  0  0
 24 25  1  0  0  0  0
 24 26  1  0  0  0  0
 25 29  1  0  0  0  0
 26 27  1  0  0  0  0
 27 28  1  0  0  0  0
 29 28  1  0  0  0  0
M  END
>  <MODEL>
4

>  <REMARK>
 VINA RESULT:      -6.0      1.319      2.019
  Name = 
  3 active torsions:
  status: ('A' for Active; 'I' for Inactive)
    1  A    between atoms: C_7  and  C_11
    2  A    between atoms: C_11  and  C_28
    3  A    between atoms: C_23  and  C_28
                            x       y       z     vdW  Elec       q    Type
                         _______ _______ _______ _____ _____    ______ ____

>  <TORSDO>
F 3

$$$$
=
 OpenBabel11072413463D

 29 33  0  0  1  0  0  0  0  0999 V2000
  160.5270  203.2310  149.5220 C   0  0  1  0  0  3  0  0  0  0  0  0
  160.3350  204.3770  152.4650 C   0  0  0  0  0  2  0  0  0  0  0  0
  161.6760  206.2150  151.5880 N   0  0  2  0  0  0  0  0  0  0  0  0
  160.7880  201.6160  147.5630 N   0  0  0  0  0  0  0  0  0  0  0  0
  163.4560  207.3160  150.2960 C   0  0  0  0  0  2  0  0  0  0  0  0
  161.5850  203.1580  150.6210 C   0  0  0  0  0  2  0  0  0  0  0  0
  163.0810  206.6120  151.6060 C   0  0  0  0  0  2  0  0  0  0  0  0
  160.7330  207.3530  151.5240 C   0  0  2  0  0  3  0  0  0  0  0  0
  162.3300  206.6260  147.3260 O   0  0  0  0  0  0  0  0  0  0  0  0
  161.0010  208.2120  150.2810 C   0  0  2  0  0  3  0  0  0  0  0  0
  161.3890  205.4340  152.7820 C   0  0  0  0  0  2  0  0  0  0  0  0
  160.9510  204.2770  148.5200 C   0  0  0  0  0  0  0  0  0  0  0  0
  160.3360  201.8750  148.8970 C   0  0  0  0  0  0  0  0  0  0  0  0
  161.3250  203.9490  147.2770 C   0  0  0  0  0  3  0  0  0  0  0  0
  161.8570  206.6860  148.4930 C   0  0  0  0  0  0  0  0  0  0  0  0
  161.2550  202.5590  146.8040 C   0  0  0  0  0  3  0  0  0  0  0  0
  162.2520  207.8040  149.4430 C   0  0  2  0  0  0  0  0  0  0  0  0
  159.7900  200.9530  149.5580 O   0  0  0  0  0  0  0  0  0  0  0  0
  161.3440  208.7500  151.6630 C   0  0  0  0  0  2  0  0  0  0  0  0
  161.0350  205.6240  148.9910 N   0  0  0  0  0  2  0  0  0  0  0  0
  160.9580  203.0590  152.0070 C   0  0  0  0  0  2  0  0  0  0  0  0
  162.6600  209.0690  148.6670 C   0  0  0  0  0  2  0  0  0  0  0  0
  161.5700  210.1360  148.5920 C   0  0  0  0  0  2  0  0  0  0  0  0
  160.9760  212.4700  149.2120 C   0  0  0  0  0  2  0  0  0  0  0  0
  162.1350  211.4960  148.9610 C   0  0  0  0  0  3  0  0  0  0  0  0
  161.4170  213.9160  149.0090 C   0  0  0  0  0  2  0  0  0  0  0  0
  161.8750  214.1640  147.5660 C   0  0  0  0  0  2  0  0  0  0  0  0
  162.4410  212.9140  146.8780 C   0  0  0  0  0  2  0  0  0  0  0  0
  163.1200  211.9870  147.8840 C   0  0  0  0  0  2  0  0  0  0  0  0
  1  6  1  1  0  0  0
  2 11  1  0  0  0  0
  3  7  1  1  0  0  0
  3 11  1  0  0  0  0
  4 13  1  0  0  0  0
  5  7  1  0  0  0  0
  6 21  1  0  0  0  0
  8  3  1  0  0  0  0
  8 19  1  1  0  0  0
  9 15  2  0  0  0  0
 10  8  1  0  0  0  0
 10 19  1  1  0  0  0
 12 20  1  0  0  0  0
 12  1  1  0  0  0  0
 13  1  1  0  0  0  0
 13 18  2  0  0  0  0
 14 12  2  0  0  0  0
 15 20  1  0  0  0  0
 15 17  1  0  0  0  0
 16 14  1  0  0  0  0
 16  4  2  0  0  0  0
 17 22  1  6  0  0  0
 17 10  1  0  0  0  0
 17  5  1  0  0  0  0
 21  2  1  0  0  0  0
 23 22  1  0  0  0  0
 23 25  1  0  0  0  0
 25 24  1  0  0  0  0
 26 24  1  0  0  0  0
 27 26  1  0  0  0  0
 28 27  1  0  0  0  0
 28 29  1  0  0  0  0
 29 25  1  0  0  0  0
M  END
>  <MODEL>
5

>  <REMARK>
 VINA RESULT:      -5.9      2.723      3.812
  Name = 
  3 active torsions:
  status: ('A' for Active; 'I' for Inactive)
    1  A    between atoms: C_7  and  C_11
    2  A    between atoms: C_11  and  C_28
    3  A    between atoms: C_23  and  C_28
                            x       y       z     vdW  Elec       q    Type
                         _______ _______ _______ _____ _____    ______ ____

>  <TORSDO>
F 3

$$$$
=
 OpenBabel11072413463D

 29 33  0  0  1  0  0  0  0  0999 V2000
  161.0610  204.0090  147.6020 C   0  0  1  0  0  3  0  0  0  0  0  0
  160.3120  203.0790  150.5320 C   0  0  0  0  0  2  0  0  0  0  0  0
  161.5050  205.0890  151.2250 N   0  0  2  0  0  0  0  0  0  0  0  0
  161.8030  203.9630  145.1610 N   0  0  0  0  0  0  0  0  0  0  0  0
  163.2850  206.7870  151.2350 C   0  0  0  0  0  2  0  0  0  0  0  0
  161.9560  203.2900  148.6080 C   0  0  0  0  0  2  0  0  0  0  0  0
  162.8290  205.4150  151.7490 C   0  0  0  0  0  2  0  0  0  0  0  0
  160.4370  206.0030  151.6860 C   0  0  2  0  0  3  0  0  0  0  0  0
  162.6830  208.0670  148.3090 O   0  0  0  0  0  0  0  0  0  0  0  0
  160.7580  207.4530  151.2980 C   0  0  2  0  0  3  0  0  0  0  0  0
  161.1620  203.7310  151.6190 C   0  0  0  0  0  2  0  0  0  0  0  0
  161.4760  205.4590  147.5430 C   0  0  0  0  0  0  0  0  0  0  0  0
  161.1390  203.3300  146.2610 C   0  0  0  0  0  0  0  0  0  0  0  0
  162.0590  205.9800  146.4570 C   0  0  0  0  0  3  0  0  0  0  0  0
  162.0490  207.3810  149.1560 C   0  0  0  0  0  0  0  0  0  0  0  0
  162.2410  205.1820  145.2350 C   0  0  0  0  0  3  0  0  0  0  0  0
  162.1560  207.6770  150.6430 C   0  0  2  0  0  0  0  0  0  0  0  0
  160.6340  202.1870  146.1090 O   0  0  0  0  0  0  0  0  0  0  0  0
  160.8320  207.0240  152.7570 C   0  0  0  0  0  2  0  0  0  0  0  0
  161.3140  206.2240  148.7400 N   0  0  0  0  0  2  0  0  0  0  0  0
  161.1620  202.3420  149.4990 C   0  0  0  0  0  2  0  0  0  0  0  0
  162.4960  209.1570  150.8880 C   0  0  0  0  0  2  0  0  0  0  0  0
  161.2850  210.0870  150.8780 C   0  0  0  0  0  2  0  0  0  0  0  0
  160.4560  212.3900  150.4390 C   0  0  0  0  0  2  0  0  0  0  0  0
  161.6830  211.4700  150.3920 C   0  0  0  0  0  3  0  0  0  0  0  0
  160.6020  213.5540  149.4630 C   0  0  0  0  0  2  0  0  0  0  0  0
  160.7080  213.0600  148.0150 C   0  0  0  0  0  2  0  0  0  0  0  0
  161.3180  211.6570  147.8870 C   0  0  0  0  0  2  0  0  0  0  0  0
  162.3310  211.3900  148.9970 C   0  0  0  0  0  2  0  0  0  0  0  0
  1  6  1  1  0  0  0
  2 11  1  0  0  0  0
  3 11  1  1  0  0  0
  3  8  1  0  0  0  0
  3  7  1  0  0  0  0
  4 16  2  0  0  0  0
  4 13  1  0  0  0  0
  5  7  1  0  0  0  0
  6 21  1  0  0  0  0
  8 19  1  1  0  0  0
  9 15  2  0  0  0  0
 10  8  1  0  0  0  0
 10 19  1  1  0  0  0
 12  1  1  0  0  0  0
 12 20  1  0  0  0  0
 13  1  1  0  0  0  0
 14 12  2  0  0  0  0
 15 17  1  0  0  0  0
 16 14  1  0  0  0  0
 17 22  1  1  0  0  0
 17  5  1  0  0  0  0
 17 10  1  0  0  0  0
 18 13  2  0  0  0  0
 20 15  1  0  0  0  0
 21  2  1  0  0  0  0
 23 22  1  0  0  0  0
 25 24  1  0  0  0  0
 25 23  1  0  0  0  0
 26 24  1  0  0  0  0
 27 26  1  0  0  0  0
 28 27  1  0  0  0  0
 28 29  1  0  0  0  0
 29 25  1  0  0  0  0
M  END
>  <MODEL>
6

>  <REMARK>
 VINA RESULT:      -5.8      1.752      2.550
  Name = 
  3 active torsions:
  status: ('A' for Active; 'I' for Inactive)
    1  A    between atoms: C_7  and  C_11
    2  A    between atoms: C_11  and  C_28
    3  A    between atoms: C_23  and  C_28
                            x       y       z     vdW  Elec       q    Type
                         _______ _______ _______ _____ _____    ______ ____

>  <TORSDO>
F 3

$$$$
=
 OpenBabel11072413463D

 29 33  0  0  1  0  0  0  0  0999 V2000
  160.8700  207.0290  153.1750 C   0  0  1  0  0  3  0  0  0  0  0  0
  159.5490  207.3480  156.0320 C   0  0  0  0  0  2  0  0  0  0  0  0
  159.7700  209.7400  155.6110 N   0  0  2  0  0  0  0  0  0  0  0  0
  162.3320  206.1800  151.2630 N   0  0  0  0  0  0  0  0  0  0  0  0
  160.8330  211.8270  154.8590 C   0  0  0  0  0  2  0  0  0  0  0  0
  161.5720  207.3310  154.4970 C   0  0  0  0  0  2  0  0  0  0  0  0
  160.6860  210.8100  155.9980 C   0  0  0  0  0  2  0  0  0  0  0  0
  158.3830  210.1960  155.3720 C   0  0  2  0  0  3  0  0  0  0  0  0
  160.8360  211.1930  151.6710 O   0  0  0  0  0  0  0  0  0  0  0  0
  158.3450  211.2730  154.2810 C   0  0  2  0  0  3  0  0  0  0  0  0
  159.7590  208.7260  156.6540 C   0  0  0  0  0  2  0  0  0  0  0  0
  160.8110  208.3000  152.3640 C   0  0  0  0  0  0  0  0  0  0  0  0
  161.5820  205.9150  152.4540 C   0  0  0  0  0  0  0  0  0  0  0  0
  161.5190  208.4500  151.2380 C   0  0  0  0  0  3  0  0  0  0  0  0
  160.2090  210.7820  152.6860 C   0  0  0  0  0  0  0  0  0  0  0  0
  162.3220  207.3450  150.6920 C   0  0  0  0  0  3  0  0  0  0  0  0
  159.7370  211.7480  153.7600 C   0  0  2  0  0  0  0  0  0  0  0  0
  161.5330  204.7440  152.9110 O   0  0  0  0  0  0  0  0  0  0  0  0
  158.0760  211.6530  155.7300 C   0  0  0  0  0  2  0  0  0  0  0  0
  160.0450  209.3770  152.9100 N   0  0  0  0  0  2  0  0  0  0  0  0
  160.8700  206.6690  155.6770 C   0  0  0  0  0  2  0  0  0  0  0  0
  159.5030  213.1520  153.1750 C   0  0  0  0  0  2  0  0  0  0  0  0
  158.1360  213.3370  152.5200 C   0  0  0  0  0  2  0  0  0  0  0  0
  157.2460  213.9060  150.2690 C   0  0  0  0  0  2  0  0  0  0  0  0
  158.2290  214.3250  151.3700 C   0  0  0  0  0  3  0  0  0  0  0  0
  157.6750  214.4530  148.9110 C   0  0  0  0  0  2  0  0  0  0  0  0
  159.0430  213.9000  148.4910 C   0  0  0  0  0  2  0  0  0  0  0  0
  159.9490  213.5380  149.6760 C   0  0  0  0  0  2  0  0  0  0  0  0
  159.6830  214.4460  150.8740 C   0  0  0  0  0  2  0  0  0  0  0  0
  1  6  1  1  0  0  0
  2 11  1  0  0  0  0
  3  7  1  1  0  0  0
  3 11  1  0  0  0  0
  4 13  1  0  0  0  0
  5  7  1  0  0  0  0
  6 21  1  0  0  0  0
  8  3  1  0  0  0  0
  8 19  1  1  0  0  0
  9 15  2  0  0  0  0
 10  8  1  0  0  0  0
 10 19  1  1  0  0  0
 12 20  1  0  0  0  0
 12  1  1  0  0  0  0
 13 18  2  0  0  0  0
 13  1  1  0  0  0  0
 14 12  2  0  0  0  0
 15 20  1  0  0  0  0
 15 17  1  0  0  0  0
 16 14  1  0  0  0  0
 16  4  2  0  0  0  0
 17 22  1  6  0  0  0
 17 10  1  0  0  0  0
 17  5  1  0  0  0  0
 21  2  1  0  0  0  0
 23 22  1  0  0  0  0
 24 25  1  0  0  0  0
 25 23  1  0  0  0  0
 26 24  1  0  0  0  0
 27 26  1  0  0  0  0
 27 28  1  0  0  0  0
 28 29  1  0  0  0  0
 29 25  1  0  0  0  0
M  END
>  <MODEL>
7

>  <REMARK>
 VINA RESULT:      -5.7      3.561      6.433
  Name = 
  3 active torsions:
  status: ('A' for Active; 'I' for Inactive)
    1  A    between atoms: C_7  and  C_11
    2  A    between atoms: C_11  and  C_28
    3  A    between atoms: C_23  and  C_28
                            x       y       z     vdW  Elec       q    Type
                         _______ _______ _______ _____ _____    ______ ____

>  <TORSDO>
F 3

$$$$
=
 OpenBabel11072413463D

 29 33  0  0  1  0  0  0  0  0999 V2000
  160.7830  210.2380  153.8960 C   0  0  1  0  0  3  0  0  0  0  0  0
  161.2810  207.3200  155.0140 C   0  0  0  0  0  2  0  0  0  0  0  0
  161.2950  206.6720  152.6640 N   0  0  2  0  0  0  0  0  0  0  0  0
  159.8670  212.6040  153.6220 N   0  0  0  0  0  0  0  0  0  0  0  0
  160.5780  206.6370  150.3110 C   0  0  0  0  0  2  0  0  0  0  0  0
  159.7600  209.1170  154.0630 C   0  0  0  0  0  2  0  0  0  0  0  0
  160.3580  206.0690  151.7190 C   0  0  0  0  0  2  0  0  0  0  0  0
  162.7130  206.3620  152.3820 C   0  0  2  0  0  3  0  0  0  0  0  0
  161.4220  209.6820  149.5510 O   0  0  0  0  0  0  0  0  0  0  0  0
  163.1000  206.8200  150.9700 C   0  0  2  0  0  3  0  0  0  0  0  0
  160.9720  206.2160  154.0070 C   0  0  0  0  0  2  0  0  0  0  0  0
  161.1220  210.3620  152.4300 C   0  0  0  0  0  0  0  0  0  0  0  0
  160.2470  211.5190  154.4760 C   0  0  0  0  0  0  0  0  0  0  0  0
  160.7590  211.4320  151.7120 C   0  0  0  0  0  3  0  0  0  0  0  0
  161.7260  208.8430  150.4420 C   0  0  0  0  0  0  0  0  0  0  0  0
  160.0870  212.5780  152.3430 C   0  0  0  0  0  3  0  0  0  0  0  0
  161.9290  207.3760  150.1020 C   0  0  2  0  0  0  0  0  0  0  0  0
  160.1140  211.6330  155.7230 O   0  0  0  0  0  0  0  0  0  0  0  0
  162.9770  205.3340  151.2770 C   0  0  0  0  0  2  0  0  0  0  0  0
  161.7580  209.2370  151.8190 N   0  0  0  0  0  2  0  0  0  0  0  0
  160.0790  208.2300  155.2600 C   0  0  0  0  0  2  0  0  0  0  0  0
  162.3790  207.2050  148.6410 C   0  0  0  0  0  2  0  0  0  0  0  0
  161.2540  206.8290  147.6790 C   0  0  0  0  0  2  0  0  0  0  0  0
  160.6830  205.8880  145.4500 C   0  0  0  0  0  2  0  0  0  0  0  0
  161.8140  206.1160  146.4610 C   0  0  0  0  0  3  0  0  0  0  0  0
  161.0020  204.7200  144.5210 C   0  0  0  0  0  2  0  0  0  0  0  0
  161.1450  203.4070  145.3030 C   0  0  0  0  0  2  0  0  0  0  0  0
  161.6200  203.6020  146.7500 C   0  0  0  0  0  2  0  0  0  0  0  0
  162.5340  204.8180  146.8740 C   0  0  0  0  0  2  0  0  0  0  0  0
  1  6  1  6  0  0  0
  1 13  1  0  0  0  0
  2 21  1  0  0  0  0
  3  7  1  6  0  0  0
  3 11  1  0  0  0  0
  4 13  1  0  0  0  0
  5  7  1  0  0  0  0
  6 21  1  0  0  0  0
  8 19  1  6  0  0  0
  8  3  1  0  0  0  0
  9 15  2  0  0  0  0
 10 19  1  6  0  0  0
 10  8  1  0  0  0  0
 11  2  1  0  0  0  0
 12  1  1  0  0  0  0
 13 18  2  0  0  0  0
 14 16  1  0  0  0  0
 14 12  2  0  0  0  0
 15 20  1  0  0  0  0
 16  4  2  0  0  0  0
 17 22  1  6  0  0  0
 17  5  1  0  0  0  0
 17 15  1  0  0  0  0
 17 10  1  0  0  0  0
 20 12  1  0  0  0  0
 23 22  1  0  0  0  0
 24 25  1  0  0  0  0
 25 29  1  0  0  0  0
 25 23  1  0  0  0  0
 26 27  1  0  0  0  0
 26 24  1  0  0  0  0
 27 28  1  0  0  0  0
 28 29  1  0  0  0  0
M  END
>  <MODEL>
8

>  <REMARK>
 VINA RESULT:      -5.5      2.719      7.729
  Name = 
  3 active torsions:
  status: ('A' for Active; 'I' for Inactive)
    1  A    between atoms: C_7  and  C_11
    2  A    between atoms: C_11  and  C_28
    3  A    between atoms: C_23  and  C_28
                            x       y       z     vdW  Elec       q    Type
                         _______ _______ _______ _____ _____    ______ ____

>  <TORSDO>
F 3

$$$$
=
 OpenBabel11072413463D

 29 33  0  0  1  0  0  0  0  0999 V2000
  157.6530  213.0950  154.5840 C   0  0  1  0  0  3  0  0  0  0  0  0
  158.8080  211.7050  157.1810 C   0  0  0  0  0  2  0  0  0  0  0  0
  160.0530  210.3220  155.6060 N   0  0  2  0  0  0  0  0  0  0  0  0
  156.0400  214.1780  152.9290 N   0  0  0  0  0  0  0  0  0  0  0  0
  160.4510  208.9650  153.5930 C   0  0  0  0  0  2  0  0  0  0  0  0
  157.2180  211.7680  155.2020 C   0  0  0  0  0  2  0  0  0  0  0  0
  159.9300  208.9820  155.0360 C   0  0  0  0  0  2  0  0  0  0  0  0
  161.4490  210.7920  155.7350 C   0  0  2  0  0  3  0  0  0  0  0  0
  160.1860  211.3490  151.4000 O   0  0  0  0  0  0  0  0  0  0  0  0
  162.1530  210.7890  154.3720 C   0  0  2  0  0  3  0  0  0  0  0  0
  159.4290  210.3350  156.9200 C   0  0  0  0  0  2  0  0  0  0  0  0
  158.4790  212.8010  153.3540 C   0  0  0  0  0  0  0  0  0  0  0  0
  156.4480  213.9450  154.2820 C   0  0  0  0  0  0  0  0  0  0  0  0
  158.0340  213.0870  152.1240 C   0  0  0  0  0  3  0  0  0  0  0  0
  160.4140  211.2650  152.6370 C   0  0  0  0  0  0  0  0  0  0  0  0
  156.7540  213.7830  151.9210 C   0  0  0  0  0  3  0  0  0  0  0  0
  161.3280  210.1850  153.1940 C   0  0  2  0  0  0  0  0  0  0  0  0
  155.7810  214.4410  155.2280 O   0  0  0  0  0  0  0  0  0  0  0  0
  162.5430  209.7640  155.4290 C   0  0  0  0  0  2  0  0  0  0  0  0
  159.7120  212.1080  153.5570 N   0  0  0  0  0  2  0  0  0  0  0  0
  157.3530  211.7770  156.7200 C   0  0  0  0  0  2  0  0  0  0  0  0
  162.3640  209.7440  152.1460 C   0  0  0  0  0  2  0  0  0  0  0  0
  162.2650  208.2720  151.7500 C   0  0  0  0  0  2  0  0  0  0  0  0
  161.0120  206.6160  150.3820 C   0  0  0  0  0  2  0  0  0  0  0  0
  161.3370  208.1050  150.5590 C   0  0  0  0  0  3  0  0  0  0  0  0
  160.6030  206.3090  148.9450 C   0  0  0  0  0  2  0  0  0  0  0  0
  161.7400  206.6160  147.9620 C   0  0  0  0  0  2  0  0  0  0  0  0
  162.6860  207.7250  148.4420 C   0  0  0  0  0  2  0  0  0  0  0  0
  161.9460  208.7500  149.3000 C   0  0  0  0  0  2  0  0  0  0  0  0
  1  6  1  6  0  0  0
  3  7  1  1  0  0  0
  3  8  1  0  0  0  0
  3 11  1  0  0  0  0
  4 13  1  0  0  0  0
  5  7  1  0  0  0  0
  6 21  1  0  0  0  0
  8 19  1  1  0  0  0
  9 15  2  0  0  0  0
 10 19  1  1  0  0  0
 10  8  1  0  0  0  0
 11  2  1  0  0  0  0
 12 20  1  0  0  0  0
 12  1  1  0  0  0  0
 13  1  1  0  0  0  0
 13 18  2  0  0  0  0
 14 12  2  0  0  0  0
 15 17  1  0  0  0  0
 15 20  1  0  0  0  0
 16 14  1  0  0  0  0
 16  4  2  0  0  0  0
 17 22  1  6  0  0  0
 17  5  1  0  0  0  0
 17 10  1  0  0  0  0
 21  2  1  0  0  0  0
 23 22  1  0  0  0  0
 24 25  1  0  0  0  0
 25 23  1  0  0  0  0
 26 24  1  0  0  0  0
 27 28  1  0  0  0  0
 27 26  1  0  0  0  0
 28 29  1  0  0  0  0
 29 25  1  0  0  0  0
M  END
>  <MODEL>
9

>  <REMARK>
 VINA RESULT:      -5.4      4.269      8.827
  Name = 
  3 active torsions:
  status: ('A' for Active; 'I' for Inactive)
    1  A    between atoms: C_7  and  C_11
    2  A    between atoms: C_11  and  C_28
    3  A    between atoms: C_23  and  C_28
                            x       y       z     vdW  Elec       q    Type
                         _______ _______ _______ _____ _____    ______ ____

>  <TORSDO>
F 3

$$$$
