=
 OpenBabel11072412383D

 31 34  0  0  1  0  0  0  0  0999 V2000
  159.8100  212.9360  151.9260 C   0  0  0  0  0  3  0  0  0  0  0  0
  159.0340  213.9730  152.1960 C   0  0  0  0  0  3  0  0  0  0  0  0
  159.9580  213.0700  155.0800 C   0  0  0  0  0  0  0  0  0  0  0  0
  158.3970  214.2610  153.4850 C   0  0  0  0  0  3  0  0  0  0  0  0
  159.3500  210.5720  152.8560 C   0  0  0  0  0  0  0  0  0  0  0  0
  160.7150  209.7370  154.8450 C   0  0  2  0  0  3  0  0  0  0  0  0
  158.3750  214.2050  157.2400 C   0  0  0  0  0  2  0  0  0  0  0  0
  160.5610  212.1720  154.2680 C   0  0  0  0  0  0  0  0  0  0  0  0
  158.2690  210.4970  152.2950 O   0  0  0  0  0  0  0  0  0  0  0  0
  160.4780  213.1760  156.4960 C   0  0  0  0  0  2  0  0  0  0  0  0
  161.4520  211.0980  154.8280 C   0  0  0  0  0  2  0  0  0  0  0  0
  159.8830  214.3460  157.2590 C   0  0  0  0  0  2  0  0  0  0  0  0
  158.7220  213.8500  154.7170 C   0  0  0  0  0  0  0  0  0  0  0  0
  157.8340  214.4030  155.8260 C   0  0  1  0  0  3  0  0  0  0  0  0
  159.9550  209.3720  153.5430 C   0  0  2  0  0  3  0  0  0  0  0  0
  160.1300  211.8440  152.8860 C   0  0  2  0  0  3  0  0  0  0  0  0
  160.8470  208.6250  152.6050 C   0  0  0  0  0  0  0  0  0  0  0  0
  162.1850  208.2270  150.9860 N   0  0  0  0  0  0  0  0  0  0  0  0
  161.0280  207.2930  152.6640 N   0  0  0  0  0  0  0  0  0  0  0  0
  162.3990  205.7530  151.2530 C   0  0  0  0  0  1  0  0  0  0  0  0
  161.8740  207.0920  151.6350 C   0  0  0  0  0  0  0  0  0  0  0  0
  161.5330  209.1990  151.5980 N   0  0  0  0  0  2  0  0  0  0  0  0
  159.8520  209.5800  156.0560 C   0  0  0  0  0  0  0  0  0  0  0  0
  160.3250  208.8850  157.2040 N   0  0  0  0  0  1  0  0  0  0  0  0
  158.6940  210.0730  156.0580 O   0  0  0  0  0  0  0  0  0  0  0  0
  156.3700  213.9350  155.7690 C   0  0  2  0  0  3  0  0  0  0  0  0
  155.5530  214.4520  156.9420 C   0  0  0  0  0  1  0  0  0  0  0  0
  155.6170  210.3130  154.6100 C   0  0  0  0  0  1  0  0  0  0  0  0
  156.2770  212.4840  155.7030 N   0  0  0  0  0  2  0  0  0  0  0  0
  155.6460  211.7990  154.6200 C   0  0  0  0  0  0  0  0  0  0  0  0
  155.1180  212.4370  153.6720 O   0  0  0  0  0  0  0  0  0  0  0  0
  1  2  2  0  0  0  0
  2  4  1  0  0  0  0
  3 10  1  0  0  0  0
  4 13  2  0  0  0  0
  5 16  1  0  0  0  0
  5 15  1  0  0  0  0
  6 23  1  1  0  0  0
  7 12  1  0  0  0  0
  8 11  1  0  0  0  0
  8  3  2  0  0  0  0
  9  5  2  0  0  0  0
 10 12  1  0  0  0  0
 11  6  1  0  0  0  0
 13  3  1  0  0  0  0
 13 14  1  0  0  0  0
 14 26  1  1  0  0  0
 14  7  1  0  0  0  0
 15 17  1  6  0  0  0
 15  6  1  0  0  0  0
 16  1  1  1  0  0  0
 16  8  1  0  0  0  0
 17 19  2  0  0  0  0
 18 22  1  0  0  0  0
 18 21  2  0  0  0  0
 20 21  1  0  0  0  0
 21 19  1  0  0  0  0
 22 17  1  0  0  0  0
 23 25  2  0  0  0  0
 23 24  1  0  0  0  0
 26 27  1  1  0  0  0
 28 30  1  0  0  0  0
 29 26  1  0  0  0  0
 30 29  1  0  0  0  0
 31 30  2  0  0  0  0
M  END
>  <MODEL>
1

>  <REMARK>
 VINA RESULT:      -2.9      0.000      0.000
  Name = 
  4 active torsions:
  status: ('A' for Active; 'I' for Inactive)
    1  A    between atoms: C_3  and  C_28
    2  A    between atoms: C_4  and  C_10
    3  A    between atoms: N_7  and  C_12
    4  A    between atoms: C_12  and  C_23
                            x       y       z     vdW  Elec       q    Type
                         _______ _______ _______ _____ _____    ______ ____

>  <TORSDO>
F 4

$$$$
=
 OpenBabel11072412383D

 31 34  0  0  1  0  0  0  0  0999 V2000
  160.2510  212.1210  151.9470 C   0  0  0  0  0  3  0  0  0  0  0  0
  159.4980  213.1770  152.2130 C   0  0  0  0  0  3  0  0  0  0  0  0
  160.4380  212.2910  155.0970 C   0  0  0  0  0  0  0  0  0  0  0  0
  158.8820  213.4940  153.5050 C   0  0  0  0  0  3  0  0  0  0  0  0
  159.7550  209.7790  152.9120 C   0  0  0  0  0  0  0  0  0  0  0  0
  161.1260  208.9410  154.8960 C   0  0  2  0  0  3  0  0  0  0  0  0
  158.9030  213.4840  157.2610 C   0  0  0  0  0  2  0  0  0  0  0  0
  161.0140  211.3720  154.2900 C   0  0  0  0  0  0  0  0  0  0  0  0
  158.6660  209.7180  152.3640 O   0  0  0  0  0  0  0  0  0  0  0  0
  160.9770  212.4040  156.5060 C   0  0  0  0  0  2  0  0  0  0  0  0
  161.8900  210.2870  154.8530 C   0  0  0  0  0  2  0  0  0  0  0  0
  160.4130  213.5960  157.2610 C   0  0  0  0  0  2  0  0  0  0  0  0
  159.2130  213.0920  154.7390 C   0  0  0  0  0  0  0  0  0  0  0  0
  158.3490  213.6760  155.8510 C   0  0  1  0  0  3  0  0  0  0  0  0
  160.3440  208.5750  153.6070 C   0  0  2  0  0  3  0  0  0  0  0  0
  160.5600  211.0350  152.9170 C   0  0  2  0  0  3  0  0  0  0  0  0
  161.2110  207.8000  152.6690 C   0  0  0  0  0  0  0  0  0  0  0  0
  162.5990  206.3430  151.9480 N   0  0  0  0  0  0  0  0  0  0  0  0
  161.3370  208.1010  151.3630 N   0  0  0  0  0  0  0  0  0  0  0  0
  162.7010  207.0490  149.5550 C   0  0  0  0  0  1  0  0  0  0  0  0
  162.2100  207.1610  150.9540 C   0  0  0  0  0  0  0  0  0  0  0  0
  161.9680  206.7480  153.0350 N   0  0  0  0  0  2  0  0  0  0  0  0
  160.2740  208.8160  156.1190 C   0  0  0  0  0  0  0  0  0  0  0  0
  160.6780  207.9970  157.2080 N   0  0  0  0  0  1  0  0  0  0  0  0
  159.1880  209.4490  156.1820 O   0  0  0  0  0  0  0  0  0  0  0  0
  156.8760  213.2370  155.8160 C   0  0  2  0  0  3  0  0  0  0  0  0
  156.7040  211.7660  156.1580 C   0  0  0  0  0  1  0  0  0  0  0  0
  154.4450  214.4190  153.0370 C   0  0  0  0  0  1  0  0  0  0  0  0
  156.2670  213.5180  154.5240 N   0  0  0  0  0  2  0  0  0  0  0  0
  154.9860  214.1380  154.3920 C   0  0  0  0  0  0  0  0  0  0  0  0
  154.3130  214.4530  155.4080 O   0  0  0  0  0  0  0  0  0  0  0  0
  1  2  2  0  0  0  0
  2  4  1  0  0  0  0
  3 10  1  0  0  0  0
  4 13  2  0  0  0  0
  5 16  1  0  0  0  0
  5 15  1  0  0  0  0
  6 23  1  1  0  0  0
  7 12  1  0  0  0  0
  8 11  1  0  0  0  0
  8  3  2  0  0  0  0
  9  5  2  0  0  0  0
 10 12  1  0  0  0  0
 11  6  1  0  0  0  0
 13  3  1  0  0  0  0
 13 14  1  0  0  0  0
 14 26  1  1  0  0  0
 14  7  1  0  0  0  0
 15 17  1  6  0  0  0
 15  6  1  0  0  0  0
 16  1  1  1  0  0  0
 16  8  1  0  0  0  0
 17 22  1  0  0  0  0
 18 22  1  0  0  0  0
 19 17  2  0  0  0  0
 20 21  1  0  0  0  0
 21 19  1  0  0  0  0
 21 18  2  0  0  0  0
 23 25  2  0  0  0  0
 23 24  1  0  0  0  0
 26 27  1  6  0  0  0
 28 30  1  0  0  0  0
 29 26  1  0  0  0  0
 30 29  1  0  0  0  0
 30 31  2  0  0  0  0
M  END
>  <MODEL>
2

>  <REMARK>
 VINA RESULT:      -1.9      1.335      1.643
  Name = 
  4 active torsions:
  status: ('A' for Active; 'I' for Inactive)
    1  A    between atoms: C_3  and  C_28
    2  A    between atoms: C_4  and  C_10
    3  A    between atoms: N_7  and  C_12
    4  A    between atoms: C_12  and  C_23
                            x       y       z     vdW  Elec       q    Type
                         _______ _______ _______ _____ _____    ______ ____

>  <TORSDO>
F 4

$$$$
=
 OpenBabel11072412383D

 31 34  0  0  1  0  0  0  0  0999 V2000
  159.8540  209.6800  156.7920 C   0  0  0  0  0  3  0  0  0  0  0  0
  160.5470  208.5890  156.5090 C   0  0  0  0  0  2  0  0  0  0  0  0
  161.1130  210.4060  153.9860 C   0  0  0  0  0  0  0  0  0  0  0  0
  161.0000  208.1760  155.1770 C   0  0  0  0  0  3  0  0  0  0  0  0
  157.9690  210.5690  155.2690 C   0  0  0  0  0  0  0  0  0  0  0  0
  158.4500  212.5470  153.7290 C   0  0  2  0  0  3  0  0  0  0  0  0
  162.2370  208.9690  151.7200 C   0  0  0  0  0  2  0  0  0  0  0  0
  160.2880  211.1700  154.7370 C   0  0  0  0  0  0  0  0  0  0  0  0
  157.3040  209.5540  155.4000 O   0  0  0  0  0  0  0  0  0  0  0  0
  161.8880  211.1020  152.8890 C   0  0  0  0  0  2  0  0  0  0  0  0
  159.8920  212.5510  154.2920 C   0  0  0  0  0  2  0  0  0  0  0  0
  162.9330  210.2080  152.2450 C   0  0  0  0  0  2  0  0  0  0  0  0
  161.1930  208.9040  154.0690 C   0  0  0  0  0  0  0  0  0  0  0  0
  161.7160  208.1150  152.8740 C   0  0  1  0  0  3  0  0  0  0  0  0
  157.4020  211.7880  154.5830 C   0  0  2  0  0  3  0  0  0  0  0  0
  159.3670  210.6610  155.7840 C   0  0  0  0  0  0  0  0  0  0  0  0
  156.7720  212.7050  155.5810 C   0  0  0  0  0  0  0  0  0  0  0  0
  156.5540  214.0090  157.2610 N   0  0  0  0  0  0  0  0  0  0  0  0
  155.4600  213.0050  155.5810 N   0  0  0  0  0  0  0  0  0  0  0  0
  154.1020  214.4510  157.0980 C   0  0  0  0  0  1  0  0  0  0  0  0
  155.3730  213.8250  156.6460 C   0  0  0  0  0  0  0  0  0  0  0  0
  157.4410  213.2980  156.5880 N   0  0  0  0  0  2  0  0  0  0  0  0
  158.4080  212.1280  152.2940 C   0  0  0  0  0  0  0  0  0  0  0  0
  158.0790  213.0610  151.2720 N   0  0  0  0  0  1  0  0  0  0  0  0
  158.6700  210.9360  151.9900 O   0  0  0  0  0  0  0  0  0  0  0  0
  160.7430  207.0560  152.3280 C   0  0  2  0  0  3  0  0  0  0  0  0
  161.0640  205.6610  152.8380 C   0  0  0  0  0  1  0  0  0  0  0  0
  160.5270  205.9490  148.6200 C   0  0  0  0  0  1  0  0  0  0  0  0
  160.7190  207.0570  150.8730 N   0  0  0  0  0  2  0  0  0  0  0  0
  160.5720  205.8630  150.1020 C   0  0  0  0  0  0  0  0  0  0  0  0
  160.4780  204.7400  150.6620 O   0  0  0  0  0  0  0  0  0  0  0  0
  2  1  1  0  0  0  0
  3 13  1  0  0  0  0
  3  8  2  0  0  0  0
  4  2  1  0  0  0  0
  5  9  2  0  0  0  0
  5 16  1  0  0  0  0
  6 23  1  6  0  0  0
  6 11  1  0  0  0  0
  6 15  1  0  0  0  0
  7 12  1  0  0  0  0
  7 14  1  0  0  0  0
  8 16  1  0  0  0  0
 10  3  1  0  0  0  0
 11  8  1  0  0  0  0
 12 10  1  0  0  0  0
 13  4  2  0  0  0  0
 14 26  1  6  0  0  0
 14 13  1  0  0  0  0
 15  5  1  0  0  0  0
 15 17  1  1  0  0  0
 16  1  2  0  0  0  0
 17 19  2  0  0  0  0
 17 22  1  0  0  0  0
 19 21  1  0  0  0  0
 21 20  1  0  0  0  0
 21 18  2  0  0  0  0
 22 18  1  0  0  0  0
 24 23  1  0  0  0  0
 25 23  2  0  0  0  0
 26 27  1  6  0  0  0
 28 30  1  0  0  0  0
 29 26  1  0  0  0  0
 30 31  2  0  0  0  0
 30 29  1  0  0  0  0
M  END
>  <MODEL>
3

>  <REMARK>
 VINA RESULT:      -1.8      2.153      7.272
  Name = 
  4 active torsions:
  status: ('A' for Active; 'I' for Inactive)
    1  A    between atoms: C_3  and  C_28
    2  A    between atoms: C_4  and  C_10
    3  A    between atoms: N_7  and  C_12
    4  A    between atoms: C_12  and  C_23
                            x       y       z     vdW  Elec       q    Type
                         _______ _______ _______ _____ _____    ______ ____

>  <TORSDO>
F 4

$$$$
=
 OpenBabel11072412383D

 31 34  0  0  1  0  0  0  0  0999 V2000
  158.1140  211.7850  140.4620 C   0  0  0  0  0  3  0  0  0  0  0  0
  158.5220  211.7650  139.2030 C   0  0  0  0  0  3  0  0  0  0  0  0
  161.2130  211.2580  140.7790 C   0  0  0  0  0  0  0  0  0  0  0  0
  159.8960  211.9690  138.7390 C   0  0  0  0  0  3  0  0  0  0  0  0
  159.0400  213.4530  142.2000 C   0  0  0  0  0  0  0  0  0  0  0  0
  160.7850  212.6470  143.8820 C   0  0  2  0  0  3  0  0  0  0  0  0
  163.6110  211.6290  139.1750 C   0  0  0  0  0  2  0  0  0  0  0  0
  160.2990  211.3910  141.7670 C   0  0  0  0  0  0  0  0  0  0  0  0
  158.6440  214.4200  141.5720 O   0  0  0  0  0  0  0  0  0  0  0  0
  162.5400  210.6320  141.1490 C   0  0  0  0  0  2  0  0  0  0  0  0
  160.6930  211.2550  143.2110 C   0  0  0  0  0  2  0  0  0  0  0  0
  163.4110  210.3370  139.9400 C   0  0  0  0  0  2  0  0  0  0  0  0
  161.0570  211.8240  139.3920 C   0  0  0  0  0  0  0  0  0  0  0  0
  162.2980  212.0920  138.5490 C   0  0  1  0  0  3  0  0  0  0  0  0
  159.6000  213.6060  143.5940 C   0  0  2  0  0  3  0  0  0  0  0  0
  158.9880  212.0740  141.6320 C   0  0  2  0  0  3  0  0  0  0  0  0
  158.5220  213.4320  144.6140 C   0  0  0  0  0  0  0  0  0  0  0  0
  157.3530  212.5660  146.1800 N   0  0  0  0  0  0  0  0  0  0  0  0
  157.5120  214.3060  144.7760 N   0  0  0  0  0  0  0  0  0  0  0  0
  155.5620  214.2990  146.3360 C   0  0  0  0  0  1  0  0  0  0  0  0
  156.8100  213.7250  145.7670 C   0  0  0  0  0  0  0  0  0  0  0  0
  158.4360  212.3780  145.4480 N   0  0  0  0  0  2  0  0  0  0  0  0
  162.1060  213.3050  143.6360 C   0  0  0  0  0  0  0  0  0  0  0  0
  162.3940  213.9160  142.3850 N   0  0  0  0  0  1  0  0  0  0  0  0
  162.9680  213.3180  144.5520 O   0  0  0  0  0  0  0  0  0  0  0  0
  162.4460  213.5460  138.0680 C   0  0  2  0  0  3  0  0  0  0  0  0
  161.3940  213.9220  137.0380 C   0  0  0  0  0  1  0  0  0  0  0  0
  166.2020  214.4420  137.7240 C   0  0  0  0  0  1  0  0  0  0  0  0
  163.7750  213.7950  137.5300 N   0  0  0  0  0  2  0  0  0  0  0  0
  164.8660  214.2380  138.3410 C   0  0  0  0  0  0  0  0  0  0  0  0
  164.7110  214.4520  139.5720 O   0  0  0  0  0  0  0  0  0  0  0  0
  2  1  2  0  0  0  0
  3 10  1  0  0  0  0
  3  8  2  0  0  0  0
  4  2  1  0  0  0  0
  4 13  2  0  0  0  0
  5 15  1  0  0  0  0
  6 23  1  6  0  0  0
  7 12  1  0  0  0  0
  8 11  1  0  0  0  0
  9  5  2  0  0  0  0
 11  6  1  0  0  0  0
 12 10  1  0  0  0  0
 13  3  1  0  0  0  0
 14 26  1  1  0  0  0
 14  7  1  0  0  0  0
 14 13  1  0  0  0  0
 15  6  1  0  0  0  0
 15 17  1  1  0  0  0
 16  1  1  6  0  0  0
 16  8  1  0  0  0  0
 16  5  1  0  0  0  0
 17 19  2  0  0  0  0
 17 22  1  0  0  0  0
 19 21  1  0  0  0  0
 21 18  2  0  0  0  0
 21 20  1  0  0  0  0
 22 18  1  0  0  0  0
 23 25  2  0  0  0  0
 24 23  1  0  0  0  0
 26 27  1  6  0  0  0
 28 30  1  0  0  0  0
 29 26  1  0  0  0  0
 29 30  1  0  0  0  0
 30 31  2  0  0  0  0
M  END
>  <MODEL>
4

>  <REMARK>
 VINA RESULT:      -1.2     11.351     14.559
  Name = 
  4 active torsions:
  status: ('A' for Active; 'I' for Inactive)
    1  A    between atoms: C_3  and  C_28
    2  A    between atoms: C_4  and  C_10
    3  A    between atoms: N_7  and  C_12
    4  A    between atoms: C_12  and  C_23
                            x       y       z     vdW  Elec       q    Type
                         _______ _______ _______ _____ _____    ______ ____

>  <TORSDO>
F 4

$$$$
=
 OpenBabel11072412383D

 31 34  0  0  1  0  0  0  0  0999 V2000
  161.6750  210.3740  151.7540 C   0  0  0  0  0  3  0  0  0  0  0  0
  161.1770  211.5990  151.7900 C   0  0  0  0  0  3  0  0  0  0  0  0
  161.2830  210.8360  154.8550 C   0  0  0  0  0  0  0  0  0  0  0  0
  160.4210  212.1900  152.8990 C   0  0  0  0  0  3  0  0  0  0  0  0
  160.4270  208.3320  152.7210 C   0  0  0  0  0  0  0  0  0  0  0  0
  161.1290  207.4160  154.9980 C   0  0  2  0  0  3  0  0  0  0  0  0
  159.7060  212.5840  156.5650 C   0  0  0  0  0  2  0  0  0  0  0  0
  161.7540  209.7250  154.2450 C   0  0  0  0  0  0  0  0  0  0  0  0
  159.4870  208.4700  151.9560 O   0  0  0  0  0  0  0  0  0  0  0  0
  161.5470  210.9720  156.3380 C   0  0  0  0  0  2  0  0  0  0  0  0
  162.2010  208.5320  155.0440 C   0  0  0  0  0  2  0  0  0  0  0  0
  161.1670  212.3370  156.8840 C   0  0  0  0  0  2  0  0  0  0  0  0
  160.3930  211.8580  154.1960 C   0  0  0  0  0  0  0  0  0  0  0  0
  159.5050  212.7450  155.0600 C   0  0  1  0  0  3  0  0  0  0  0  0
  160.5470  207.1070  153.5950 C   0  0  2  0  0  3  0  0  0  0  0  0
  161.5060  209.3570  152.8280 C   0  0  2  0  0  3  0  0  0  0  0  0
  161.3550  206.0520  152.9110 C   0  0  0  0  0  0  0  0  0  0  0  0
  162.9560  205.1140  151.8500 N   0  0  0  0  0  0  0  0  0  0  0  0
  160.9240  204.7880  152.7400 N   0  0  0  0  0  0  0  0  0  0  0  0
  161.9910  202.8210  151.6320 C   0  0  0  0  0  1  0  0  0  0  0  0
  161.9600  204.2400  152.0760 C   0  0  0  0  0  0  0  0  0  0  0  0
  162.5720  206.2630  152.3760 N   0  0  0  0  0  2  0  0  0  0  0  0
  160.0520  207.6280  156.0140 C   0  0  0  0  0  0  0  0  0  0  0  0
  160.0800  206.9450  157.2610 N   0  0  0  0  0  1  0  0  0  0  0  0
  159.1120  208.4260  155.7600 O   0  0  0  0  0  0  0  0  0  0  0  0
  158.0040  212.6630  154.7340 C   0  0  2  0  0  3  0  0  0  0  0  0
  157.5120  213.8840  153.9740 C   0  0  0  0  0  1  0  0  0  0  0  0
  155.3260  211.4510  157.2610 C   0  0  0  0  0  1  0  0  0  0  0  0
  157.2080  212.4760  155.9380 N   0  0  0  0  0  2  0  0  0  0  0  0
  156.0700  211.6120  155.9860 C   0  0  0  0  0  0  0  0  0  0  0  0
  155.6940  210.9830  154.9620 O   0  0  0  0  0  0  0  0  0  0  0  0
  1  2  2  0  0  0  0
  2  4  1  0  0  0  0
  3 10  1  0  0  0  0
  4 13  2  0  0  0  0
  5 16  1  0  0  0  0
  5 15  1  0  0  0  0
  6 11  1  0  0  0  0
  6 23  1  1  0  0  0
  7 12  1  0  0  0  0
  8  3  2  0  0  0  0
  8 11  1  0  0  0  0
  9  5  2  0  0  0  0
 10 12  1  0  0  0  0
 13  3  1  0  0  0  0
 13 14  1  0  0  0  0
 14 26  1  1  0  0  0
 14  7  1  0  0  0  0
 15 17  1  6  0  0  0
 15  6  1  0  0  0  0
 16  1  1  6  0  0  0
 16  8  1  0  0  0  0
 18 21  2  0  0  0  0
 18 22  1  0  0  0  0
 19 17  2  0  0  0  0
 20 21  1  0  0  0  0
 21 19  1  0  0  0  0
 22 17  1  0  0  0  0
 23 24  1  0  0  0  0
 25 23  2  0  0  0  0
 26 27  1  1  0  0  0
 26 29  1  0  0  0  0
 29 30  1  0  0  0  0
 30 28  1  0  0  0  0
 31 30  2  0  0  0  0
M  END
>  <MODEL>
5

>  <REMARK>
 VINA RESULT:      -0.7      1.785      2.589
  Name = 
  4 active torsions:
  status: ('A' for Active; 'I' for Inactive)
    1  A    between atoms: C_3  and  C_28
    2  A    between atoms: C_4  and  C_10
    3  A    between atoms: N_7  and  C_12
    4  A    between atoms: C_12  and  C_23
                            x       y       z     vdW  Elec       q    Type
                         _______ _______ _______ _____ _____    ______ ____

>  <TORSDO>
F 4

$$$$
=
 OpenBabel11072412383D

 31 34  0  0  1  0  0  0  0  0999 V2000
  160.4870  206.3550  154.4510 C   0  0  0  0  0  3  0  0  0  0  0  0
  160.6320  206.8750  155.6590 C   0  0  0  0  0  2  0  0  0  0  0  0
  160.3710  209.4560  153.8560 C   0  0  0  0  0  0  0  0  0  0  0  0
  161.0650  208.2410  155.9640 C   0  0  0  0  0  3  0  0  0  0  0  0
  162.1110  206.8650  152.5110 C   0  0  0  0  0  0  0  0  0  0  0  0
  161.4140  208.5480  150.7220 C   0  0  2  0  0  3  0  0  0  0  0  0
  161.2090  211.9100  155.1750 C   0  0  0  0  0  2  0  0  0  0  0  0
  160.2900  208.4470  152.9610 C   0  0  0  0  0  0  0  0  0  0  0  0
  163.0650  206.3890  153.1050 O   0  0  0  0  0  0  0  0  0  0  0  0
  159.9060  210.8210  153.3990 C   0  0  0  0  0  2  0  0  0  0  0  0
  160.0860  208.7240  151.4970 C   0  0  0  0  0  2  0  0  0  0  0  0
  159.8410  211.8330  154.5300 C   0  0  0  0  0  2  0  0  0  0  0  0
  161.0270  209.3460  155.2080 C   0  0  0  0  0  0  0  0  0  0  0  0
  161.5370  210.6060  155.8980 C   0  0  1  0  0  3  0  0  0  0  0  0
  162.2210  207.2670  151.0600 C   0  0  2  0  0  3  0  0  0  0  0  0
  160.7930  207.0670  153.1800 C   0  0  0  0  0  0  0  0  0  0  0  0
  161.8100  206.1380  150.1700 C   0  0  0  0  0  0  0  0  0  0  0  0
  161.2590  205.0600  148.4090 N   0  0  0  0  0  0  0  0  0  0  0  0
  161.5480  204.8990  150.6260 N   0  0  0  0  0  0  0  0  0  0  0  0
  160.8190  202.8280  149.4380 C   0  0  0  0  0  1  0  0  0  0  0  0
  161.2120  204.2610  149.4890 C   0  0  0  0  0  0  0  0  0  0  0  0
  161.6360  206.2500  148.8400 N   0  0  0  0  0  2  0  0  0  0  0  0
  162.2680  209.7750  150.7830 C   0  0  0  0  0  0  0  0  0  0  0  0
  162.2230  210.7460  149.7450 N   0  0  0  0  0  1  0  0  0  0  0  0
  163.0310  209.9490  151.7680 O   0  0  0  0  0  0  0  0  0  0  0  0
  163.0330  210.5820  156.2550 C   0  0  2  0  0  3  0  0  0  0  0  0
  163.4030  211.6590  157.2600 C   0  0  0  0  0  1  0  0  0  0  0  0
  165.9250  211.4530  153.8250 C   0  0  0  0  0  1  0  0  0  0  0  0
  163.8650  210.7070  155.0670 N   0  0  0  0  0  2  0  0  0  0  0  0
  165.1190  211.3930  155.0710 C   0  0  0  0  0  0  0  0  0  0  0  0
  165.5500  211.9440  156.1180 O   0  0  0  0  0  0  0  0  0  0  0  0
  1  2  1  0  0  0  0
  2  4  1  0  0  0  0
  3 13  1  0  0  0  0
  5  9  2  0  0  0  0
  5 16  1  0  0  0  0
  6 23  1  1  0  0  0
  6 15  1  0  0  0  0
  6 11  1  0  0  0  0
  7 14  1  0  0  0  0
  8 16  1  0  0  0  0
  8  3  2  0  0  0  0
 10  3  1  0  0  0  0
 10 12  1  0  0  0  0
 11  8  1  0  0  0  0
 12  7  1  0  0  0  0
 13 14  1  0  0  0  0
 13  4  2  0  0  0  0
 14 26  1  6  0  0  0
 15 17  1  6  0  0  0
 15  5  1  0  0  0  0
 16  1  2  0  0  0  0
 17 19  2  0  0  0  0
 18 22  1  0  0  0  0
 18 21  2  0  0  0  0
 20 21  1  0  0  0  0
 21 19  1  0  0  0  0
 22 17  1  0  0  0  0
 23 25  2  0  0  0  0
 24 23  1  0  0  0  0
 26 27  1  1  0  0  0
 28 30  1  0  0  0  0
 29 30  1  0  0  0  0
 29 26  1  0  0  0  0
 30 31  2  0  0  0  0
M  END
>  <MODEL>
6

>  <REMARK>
 VINA RESULT:      -0.5      3.644      6.097
  Name = 
  4 active torsions:
  status: ('A' for Active; 'I' for Inactive)
    1  A    between atoms: C_3  and  C_28
    2  A    between atoms: C_4  and  C_10
    3  A    between atoms: N_7  and  C_12
    4  A    between atoms: C_12  and  C_23
                            x       y       z     vdW  Elec       q    Type
                         _______ _______ _______ _____ _____    ______ ____

>  <TORSDO>
F 4

$$$$
