=
 OpenBabel11072410523D

 40 45  0  0  1  0  0  0  0  0999 V2000
  161.6400  206.2100  153.8190 N   0  0  0  0  0  0  0  0  0  0  0  0
  161.2630  208.1840  152.9170 C   0  0  0  0  0  3  0  0  0  0  0  0
  161.5710  207.3140  151.8880 C   0  0  0  0  0  0  0  0  0  0  0  0
  161.8100  206.0900  152.4910 C   0  0  0  0  0  0  0  0  0  0  0  0
  161.3270  207.4770  154.0630 N   0  0  0  0  0  0  0  0  0  0  0  0
  162.2070  208.6760  148.5210 C   0  0  0  0  0  2  0  0  0  0  0  0
  161.0600  207.6870  148.2850 C   0  0  2  0  0  3  0  0  0  0  0  0
  162.4700  208.5520  149.9070 O   0  0  0  0  0  0  0  0  0  0  0  0
  160.7720  207.1330  149.6020 N   0  0  0  0  0  0  0  0  0  0  0  0
  161.5860  207.6470  150.4570 C   0  0  0  0  0  0  0  0  0  0  0  0
  161.4650  205.3610  145.5810 C   0  0  0  0  0  3  0  0  0  0  0  0
  162.7950  205.2960  146.2570 C   0  0  0  0  0  2  0  0  0  0  0  0
  162.7250  206.0920  147.4250 O   0  0  0  0  0  0  0  0  0  0  0  0
  161.4800  206.6300  147.3730 N   0  0  0  0  0  0  0  0  0  0  0  0
  160.7180  206.1730  146.2750 C   0  0  0  0  0  3  0  0  0  0  0  0
  159.7130  208.8070  155.3710 C   0  0  2  0  0  3  0  0  0  0  0  0
  159.7600  207.3980  155.9300 C   0  0  0  0  0  2  0  0  0  0  0  0
  161.0260  208.0340  155.3790 C   0  0  1  0  0  3  0  0  0  0  0  0
  159.7270  209.8030  156.5150 C   0  0  0  0  0  2  0  0  0  0  0  0
  159.3810  211.1230  156.0160 N   0  0  0  0  0  2  0  0  0  0  0  0
  158.1820  210.9740  155.2080 C   0  0  0  0  0  2  0  0  0  0  0  0
  157.5140  213.1970  154.2090 C   0  0  0  0  0  0  0  0  0  0  0  0
  158.2030  211.9440  154.1250 N   0  0  0  0  0  2  0  0  0  0  0  0
  156.9500  213.5330  155.2890 O   0  0  0  0  0  0  0  0  0  0  0  0
  157.4400  214.0820  153.0830 N   0  0  0  0  0  2  0  0  0  0  0  0
  159.6400  213.3750  147.9860 F   0  0  0  0  0  0  0  0  0  0  0  0
  158.0330  213.8960  151.7900 C   0  0  0  0  0  0  0  0  0  0  0  0
  159.1170  213.5440  149.2250 C   0  0  0  0  0  0  0  0  0  0  0  0
  157.7310  213.5720  149.3990 C   0  0  0  0  0  3  0  0  0  0  0  0
  159.4250  213.8700  151.6040 C   0  0  0  0  0  3  0  0  0  0  0  0
  157.1930  213.7480  150.6780 C   0  0  0  0  0  3  0  0  0  0  0  0
  159.9670  213.6930  150.3260 C   0  0  0  0  0  3  0  0  0  0  0  0
  162.1050  204.7950  151.8090 C   0  0  0  0  0  2  0  0  0  0  0  0
  160.9210  204.2780  151.2090 O   0  0  0  0  0  0  0  0  0  0  0  0
  160.9070  200.8650  149.7380 C   0  0  0  0  0  3  0  0  0  0  0  0
  160.8920  201.8870  150.6890 C   0  0  0  0  0  3  0  0  0  0  0  0
  160.9280  203.2310  150.2830 C   0  0  0  0  0  0  0  0  0  0  0  0
  160.9810  203.5360  148.9190 C   0  0  0  0  0  3  0  0  0  0  0  0
  160.9980  202.5110  147.9670 C   0  0  0  0  0  3  0  0  0  0  0  0
  160.9610  201.1760  148.3780 C   0  0  0  0  0  3  0  0  0  0  0  0
  1  5  1  0  0  0  0
  2  5  1  0  0  0  0
  3  4  1  0  0  0  0
  3  2  2  0  0  0  0
  4  1  2  0  0  0  0
  6  8  1  0  0  0  0
  7 14  1  6  0  0  0
  7  6  1  0  0  0  0
  7  9  1  0  0  0  0
  8 10  1  0  0  0  0
  9 10  2  0  0  0  0
 10  3  1  0  0  0  0
 11 12  1  0  0  0  0
 11 15  2  0  0  0  0
 12 13  1  0  0  0  0
 14 13  1  0  0  0  0
 15 14  1  0  0  0  0
 16 18  1  0  0  0  0
 16 17  1  0  0  0  0
 16 19  1  1  0  0  0
 18  5  1  6  0  0  0
 18 17  1  0  0  0  0
 20 19  1  0  0  0  0
 21 20  1  0  0  0  0
 22 24  2  0  0  0  0
 23 22  1  0  0  0  0
 23 21  1  0  0  0  0
 25 22  1  0  0  0  0
 26 28  1  0  0  0  0
 27 25  1  0  0  0  0
 28 29  2  0  0  0  0
 28 32  1  0  0  0  0
 29 31  1  0  0  0  0
 30 27  1  0  0  0  0
 31 27  2  0  0  0  0
 32 30  2  0  0  0  0
 33  4  1  0  0  0  0
 34 33  1  0  0  0  0
 35 36  1  0  0  0  0
 37 36  2  0  0  0  0
 37 34  1  0  0  0  0
 38 37  1  0  0  0  0
 39 40  1  0  0  0  0
 39 38  2  0  0  0  0
 40 35  2  0  0  0  0
M  END
>  <MODEL>
1

>  <REMARK>
 VINA RESULT:      -8.6      0.000      0.000
  Name = 
  11 active torsions:
  status: ('A' for Active; 'I' for Inactive)
    1  A    between atoms: C_7  and  N_19
    2  A    between atoms: C_8  and  N_38
    3  A    between atoms: N_15  and  C_23
    4  A    between atoms: O_16  and  C_28
    5  A    between atoms: O_16  and  C_39
    6  A    between atoms: C_17  and  C_29
    7  A    between atoms: C_18  and  C_30
    8  A    between atoms: C_23  and  N_32
    9  A    between atoms: C_24  and  C_39
   10  A    between atoms: C_29  and  N_32
   11  A    between atoms: N_31  and  C_35
                            x       y       z     vdW  Elec       q    Type
                         _______ _______ _______ _____ _____    ______ ____

>  <TORSDO>
F 11

$$$$
=
 OpenBabel11072410523D

 40 45  0  0  1  0  0  0  0  0999 V2000
  161.7450  209.0930  150.8700 N   0  0  0  0  0  0  0  0  0  0  0  0
  161.1030  207.9340  152.6280 C   0  0  0  0  0  3  0  0  0  0  0  0
  161.4030  207.0290  151.6270 C   0  0  0  0  0  0  0  0  0  0  0  0
  161.7920  207.7910  150.5390 C   0  0  0  0  0  0  0  0  0  0  0  0
  161.3130  209.1650  152.1220 N   0  0  0  0  0  0  0  0  0  0  0  0
  160.7190  203.5190  152.5260 C   0  0  0  0  0  2  0  0  0  0  0  0
  161.7860  203.3970  151.4330 C   0  0  2  0  0  3  0  0  0  0  0  0
  160.5070  204.9160  152.6250 O   0  0  0  0  0  0  0  0  0  0  0  0
  162.0920  204.7710  151.0590 N   0  0  0  0  0  0  0  0  0  0  0  0
  161.3510  205.5650  151.7490 C   0  0  0  0  0  0  0  0  0  0  0  0
  160.6260  202.3050  148.2160 C   0  0  0  0  0  3  0  0  0  0  0  0
  160.8750  201.0120  148.9190 C   0  0  0  0  0  2  0  0  0  0  0  0
  161.2290  201.3080  150.2570 O   0  0  0  0  0  0  0  0  0  0  0  0
  161.2590  202.6650  150.2880 N   0  0  0  0  0  0  0  0  0  0  0  0
  160.8760  203.2610  149.0660 C   0  0  0  0  0  3  0  0  0  0  0  0
  159.6790  210.7960  152.9910 C   0  0  2  0  0  3  0  0  0  0  0  0
  160.3630  210.1120  154.1590 C   0  0  0  0  0  2  0  0  0  0  0  0
  161.1460  210.3980  152.8880 C   0  0  1  0  0  3  0  0  0  0  0  0
  159.5960  212.2870  153.2590 C   0  0  0  0  0  2  0  0  0  0  0  0
  158.2840  212.7780  152.8750 N   0  0  0  0  0  2  0  0  0  0  0  0
  158.4780  214.0780  152.2540 C   0  0  0  0  0  2  0  0  0  0  0  0
  158.4770  214.0600  149.7270 C   0  0  0  0  0  0  0  0  0  0  0  0
  159.1570  213.9090  150.9790 N   0  0  0  0  0  2  0  0  0  0  0  0
  157.2760  214.4520  149.7070 O   0  0  0  0  0  0  0  0  0  0  0  0
  159.1310  213.7640  148.4860 N   0  0  0  0  0  2  0  0  0  0  0  0
  164.4600  212.2200  147.7490 F   0  0  0  0  0  0  0  0  0  0  0  0
  160.4880  213.3370  148.2970 C   0  0  0  0  0  0  0  0  0  0  0  0
  163.1670  212.5830  147.9270 C   0  0  0  0  0  0  0  0  0  0  0  0
  162.7890  213.9190  147.7700 C   0  0  0  0  0  3  0  0  0  0  0  0
  160.8780  211.9970  148.4580 C   0  0  0  0  0  3  0  0  0  0  0  0
  161.4540  214.2920  147.9550 C   0  0  0  0  0  3  0  0  0  0  0  0
  162.2130  211.6190  148.2720 C   0  0  0  0  0  3  0  0  0  0  0  0
  162.2970  207.2890  149.2260 C   0  0  0  0  0  2  0  0  0  0  0  0
  161.2080  206.8510  148.4180 O   0  0  0  0  0  0  0  0  0  0  0  0
  160.6040  205.6530  144.9530 C   0  0  0  0  0  3  0  0  0  0  0  0
  160.4060  206.3020  146.1730 C   0  0  0  0  0  3  0  0  0  0  0  0
  161.3780  206.2200  147.1830 C   0  0  0  0  0  0  0  0  0  0  0  0
  162.5440  205.4810  146.9560 C   0  0  0  0  0  3  0  0  0  0  0  0
  162.7410  204.8300  145.7350 C   0  0  0  0  0  3  0  0  0  0  0  0
  161.7700  204.9170  144.7330 C   0  0  0  0  0  3  0  0  0  0  0  0
  1  5  1  0  0  0  0
  3 10  1  0  0  0  0
  3  2  2  0  0  0  0
  4  1  2  0  0  0  0
  4  3  1  0  0  0  0
  5  2  1  0  0  0  0
  6  8  1  0  0  0  0
  7 14  1  6  0  0  0
  7  6  1  0  0  0  0
  9  7  1  0  0  0  0
  9 10  2  0  0  0  0
 10  8  1  0  0  0  0
 11 12  1  0  0  0  0
 11 15  2  0  0  0  0
 12 13  1  0  0  0  0
 13 14  1  0  0  0  0
 15 14  1  0  0  0  0
 16 19  1  1  0  0  0
 16 17  1  0  0  0  0
 18  5  1  6  0  0  0
 18 16  1  0  0  0  0
 18 17  1  0  0  0  0
 20 19  1  0  0  0  0
 21 20  1  0  0  0  0
 22 23  1  0  0  0  0
 23 21  1  0  0  0  0
 24 22  2  0  0  0  0
 25 22  1  0  0  0  0
 26 28  1  0  0  0  0
 27 30  1  0  0  0  0
 27 25  1  0  0  0  0
 28 32  1  0  0  0  0
 29 28  2  0  0  0  0
 29 31  1  0  0  0  0
 31 27  2  0  0  0  0
 32 30  2  0  0  0  0
 33  4  1  0  0  0  0
 34 33  1  0  0  0  0
 35 36  1  0  0  0  0
 36 37  2  0  0  0  0
 37 34  1  0  0  0  0
 38 37  1  0  0  0  0
 39 38  2  0  0  0  0
 40 35  2  0  0  0  0
 40 39  1  0  0  0  0
M  END
>  <MODEL>
2

>  <REMARK>
 VINA RESULT:      -8.5      2.468      4.379
  Name = 
  11 active torsions:
  status: ('A' for Active; 'I' for Inactive)
    1  A    between atoms: C_7  and  N_19
    2  A    between atoms: C_8  and  N_38
    3  A    between atoms: N_15  and  C_23
    4  A    between atoms: O_16  and  C_28
    5  A    between atoms: O_16  and  C_39
    6  A    between atoms: C_17  and  C_29
    7  A    between atoms: C_18  and  C_30
    8  A    between atoms: C_23  and  N_32
    9  A    between atoms: C_24  and  C_39
   10  A    between atoms: C_29  and  N_32
   11  A    between atoms: N_31  and  C_35
                            x       y       z     vdW  Elec       q    Type
                         _______ _______ _______ _____ _____    ______ ____

>  <TORSDO>
F 11

$$$$
=
 OpenBabel11072410523D

 40 45  0  0  1  0  0  0  0  0999 V2000
  162.2690  209.4090  148.2890 N   0  0  0  0  0  0  0  0  0  0  0  0
  161.9450  210.0870  150.3590 C   0  0  0  0  0  3  0  0  0  0  0  0
  161.8720  208.7060  150.3630 C   0  0  0  0  0  0  0  0  0  0  0  0
  162.0700  208.3170  149.0490 C   0  0  0  0  0  0  0  0  0  0  0  0
  162.1750  210.4650  149.0870 N   0  0  0  0  0  0  0  0  0  0  0  0
  162.0620  206.2220  153.0820 C   0  0  0  0  0  2  0  0  0  0  0  0
  160.7630  206.9750  153.3890 C   0  0  2  0  0  3  0  0  0  0  0  0
  162.5560  206.8740  151.9250 O   0  0  0  0  0  0  0  0  0  0  0  0
  160.6470  207.9630  152.3240 N   0  0  0  0  0  0  0  0  0  0  0  0
  161.6700  207.8610  151.5480 C   0  0  0  0  0  0  0  0  0  0  0  0
  160.7070  207.8790  156.8620 C   0  0  0  0  0  3  0  0  0  0  0  0
  161.6170  208.9100  156.2820 C   0  0  0  0  0  2  0  0  0  0  0  0
  161.6310  208.7320  154.8770 O   0  0  0  0  0  0  0  0  0  0  0  0
  160.8530  207.6370  154.6850 N   0  0  0  0  0  0  0  0  0  0  0  0
  160.2830  207.1380  155.8770 C   0  0  0  0  0  3  0  0  0  0  0  0
  161.2680  212.2960  147.7030 C   0  0  2  0  0  3  0  0  0  0  0  0
  161.1900  212.6960  149.1630 C   0  0  0  0  0  2  0  0  0  0  0  0
  162.3570  211.8540  148.6720 C   0  0  1  0  0  3  0  0  0  0  0  0
  161.7870  213.4650  146.8870 C   0  0  0  0  0  2  0  0  0  0  0  0
  160.8060  213.8270  145.8780 N   0  0  0  0  0  2  0  0  0  0  0  0
  160.3950  212.5990  145.2200 C   0  0  0  0  0  2  0  0  0  0  0  0
  159.6570  213.1070  142.8570 C   0  0  0  0  0  0  0  0  0  0  0  0
  160.6620  212.6990  143.7940 N   0  0  0  0  0  2  0  0  0  0  0  0
  158.5290  213.4950  143.2730 O   0  0  0  0  0  0  0  0  0  0  0  0
  159.9020  213.0760  141.4440 N   0  0  0  0  0  2  0  0  0  0  0  0
  164.5970  211.4820  138.8490 F   0  0  0  0  0  0  0  0  0  0  0  0
  161.1160  212.6980  140.7800 C   0  0  0  0  0  0  0  0  0  0  0  0
  163.4640  211.8780  139.4780 C   0  0  0  0  0  0  0  0  0  0  0  0
  162.5850  210.9250  139.9980 C   0  0  0  0  0  3  0  0  0  0  0  0
  162.0040  213.6490  140.2510 C   0  0  0  0  0  3  0  0  0  0  0  0
  161.4150  211.3360  140.6460 C   0  0  0  0  0  3  0  0  0  0  0  0
  163.1760  213.2420  139.6030 C   0  0  0  0  0  3  0  0  0  0  0  0
  162.1650  206.9200  148.5310 C   0  0  0  0  0  2  0  0  0  0  0  0
  160.9750  206.2010  148.8400 O   0  0  0  0  0  0  0  0  0  0  0  0
  160.6750  202.8860  150.4920 C   0  0  0  0  0  3  0  0  0  0  0  0
  160.6870  204.2710  150.3160 C   0  0  0  0  0  3  0  0  0  0  0  0
  160.9490  204.8200  149.0500 C   0  0  0  0  0  0  0  0  0  0  0  0
  161.2000  203.9670  147.9700 C   0  0  0  0  0  3  0  0  0  0  0  0
  161.1900  202.5800  148.1480 C   0  0  0  0  0  3  0  0  0  0  0  0
  160.9270  202.0400  149.4110 C   0  0  0  0  0  3  0  0  0  0  0  0
  1  4  2  0  0  0  0
  1  5  1  0  0  0  0
  2  3  2  0  0  0  0
  3 10  1  0  0  0  0
  4  3  1  0  0  0  0
  5  2  1  0  0  0  0
  7  6  1  6  0  0  0
  7 14  1  0  0  0  0
  8  6  1  0  0  0  0
  9  7  1  0  0  0  0
 10  8  1  0  0  0  0
 10  9  2  0  0  0  0
 12 11  1  0  0  0  0
 13 12  1  0  0  0  0
 14 13  1  0  0  0  0
 14 15  1  0  0  0  0
 15 11  2  0  0  0  0
 16 19  1  6  0  0  0
 16 18  1  0  0  0  0
 16 17  1  0  0  0  0
 18  5  1  1  0  0  0
 18 17  1  0  0  0  0
 20 19  1  0  0  0  0
 21 20  1  0  0  0  0
 22 24  2  0  0  0  0
 22 23  1  0  0  0  0
 23 21  1  0  0  0  0
 25 22  1  0  0  0  0
 26 28  1  0  0  0  0
 27 25  1  0  0  0  0
 28 32  2  0  0  0  0
 28 29  1  0  0  0  0
 29 31  2  0  0  0  0
 30 27  2  0  0  0  0
 31 27  1  0  0  0  0
 32 30  1  0  0  0  0
 33 34  1  0  0  0  0
 33  4  1  0  0  0  0
 34 37  1  0  0  0  0
 36 35  1  0  0  0  0
 37 36  2  0  0  0  0
 38 39  2  0  0  0  0
 38 37  1  0  0  0  0
 39 40  1  0  0  0  0
 40 35  2  0  0  0  0
M  END
>  <MODEL>
3

>  <REMARK>
 VINA RESULT:      -8.3      5.071      8.096
  Name = 
  11 active torsions:
  status: ('A' for Active; 'I' for Inactive)
    1  A    between atoms: C_7  and  N_19
    2  A    between atoms: C_8  and  N_38
    3  A    between atoms: N_15  and  C_23
    4  A    between atoms: O_16  and  C_28
    5  A    between atoms: O_16  and  C_39
    6  A    between atoms: C_17  and  C_29
    7  A    between atoms: C_18  and  C_30
    8  A    between atoms: C_23  and  N_32
    9  A    between atoms: C_24  and  C_39
   10  A    between atoms: C_29  and  N_32
   11  A    between atoms: N_31  and  C_35
                            x       y       z     vdW  Elec       q    Type
                         _______ _______ _______ _____ _____    ______ ____

>  <TORSDO>
F 11

$$$$
=
 OpenBabel11072410523D

 40 45  0  0  1  0  0  0  0  0999 V2000
  161.9470  209.1070  148.4630 N   0  0  0  0  0  0  0  0  0  0  0  0
  161.3230  208.0930  150.3150 C   0  0  0  0  0  3  0  0  0  0  0  0
  161.5950  209.4100  150.6390 C   0  0  0  0  0  0  0  0  0  0  0  0
  161.9920  210.0110  149.4570 C   0  0  0  0  0  0  0  0  0  0  0  0
  161.5590  207.9550  148.9960 N   0  0  0  0  0  0  0  0  0  0  0  0
  160.5390  211.2880  153.6310 C   0  0  0  0  0  2  0  0  0  0  0  0
  161.8190  210.5850  154.0960 C   0  0  2  0  0  3  0  0  0  0  0  0
  160.3840  210.8430  152.2960 O   0  0  0  0  0  0  0  0  0  0  0  0
  162.2750  209.8370  152.9310 N   0  0  0  0  0  0  0  0  0  0  0  0
  161.4390  210.0170  151.9680 C   0  0  0  0  0  0  0  0  0  0  0  0
  160.6900  207.9290  156.2310 C   0  0  0  0  0  3  0  0  0  0  0  0
  161.8240  208.5050  157.0140 C   0  0  0  0  0  2  0  0  0  0  0  0
  162.2870  209.6510  156.3240 O   0  0  0  0  0  0  0  0  0  0  0  0
  161.5290  209.6760  155.1980 N   0  0  0  0  0  0  0  0  0  0  0  0
  160.5570  208.6520  155.1550 C   0  0  0  0  0  3  0  0  0  0  0  0
  161.5410  206.9120  146.7610 C   0  0  2  0  0  3  0  0  0  0  0  0
  162.6450  206.2830  147.5900 C   0  0  0  0  0  2  0  0  0  0  0  0
  161.3480  206.7120  148.2590 C   0  0  1  0  0  3  0  0  0  0  0  0
  160.7850  205.8240  146.0220 C   0  0  0  0  0  2  0  0  0  0  0  0
  161.7060  205.0700  145.1890 N   0  0  0  0  0  2  0  0  0  0  0  0
  161.2610  203.6870  145.2020 C   0  0  0  0  0  2  0  0  0  0  0  0
  160.8830  201.8510  146.8970 C   0  0  0  0  0  0  0  0  0  0  0  0
  161.1910  203.2130  146.5750 N   0  0  0  0  0  2  0  0  0  0  0  0
  160.7660  200.9970  145.9740 O   0  0  0  0  0  0  0  0  0  0  0  0
  160.6920  201.4340  148.2560 N   0  0  0  0  0  2  0  0  0  0  0  0
  161.2000  204.4770  152.9260 F   0  0  0  0  0  0  0  0  0  0  0  0
  160.8080  202.2390  149.4380 C   0  0  0  0  0  0  0  0  0  0  0  0
  161.0720  203.7490  151.7900 C   0  0  0  0  0  0  0  0  0  0  0  0
  161.2960  202.3700  151.8170 C   0  0  0  0  0  3  0  0  0  0  0  0
  160.5890  203.6270  149.4200 C   0  0  0  0  0  3  0  0  0  0  0  0
  161.1640  201.6190  150.6440 C   0  0  0  0  0  3  0  0  0  0  0  0
  160.7190  204.3800  150.5930 C   0  0  0  0  0  3  0  0  0  0  0  0
  162.3190  211.4530  149.2490 C   0  0  0  0  0  2  0  0  0  0  0  0
  161.2370  212.1130  148.5980 O   0  0  0  0  0  0  0  0  0  0  0  0
  160.1950  212.6160  145.0670 C   0  0  0  0  0  3  0  0  0  0  0  0
  160.1390  212.2640  146.4180 C   0  0  0  0  0  3  0  0  0  0  0  0
  161.2570  212.4600  147.2450 C   0  0  0  0  0  0  0  0  0  0  0  0
  162.4240  213.0090  146.7050 C   0  0  0  0  0  3  0  0  0  0  0  0
  162.4790  213.3590  145.3520 C   0  0  0  0  0  3  0  0  0  0  0  0
  161.3630  213.1630  144.5340 C   0  0  0  0  0  3  0  0  0  0  0  0
  1  5  1  0  0  0  0
  1  4  2  0  0  0  0
  2  3  2  0  0  0  0
  3 10  1  0  0  0  0
  4  3  1  0  0  0  0
  5  2  1  0  0  0  0
  7  6  1  6  0  0  0
  7 14  1  0  0  0  0
  8  6  1  0  0  0  0
  9  7  1  0  0  0  0
 10  8  1  0  0  0  0
 10  9  2  0  0  0  0
 11 12  1  0  0  0  0
 13 12  1  0  0  0  0
 14 13  1  0  0  0  0
 15 14  1  0  0  0  0
 15 11  2  0  0  0  0
 16 19  1  6  0  0  0
 16 17  1  0  0  0  0
 16 18  1  0  0  0  0
 18 17  1  1  0  0  0
 18  5  1  0  0  0  0
 20 21  1  0  0  0  0
 20 19  1  0  0  0  0
 21 23  1  0  0  0  0
 22 25  1  0  0  0  0
 23 22  1  0  0  0  0
 24 22  2  0  0  0  0
 25 27  1  0  0  0  0
 27 31  1  0  0  0  0
 28 29  1  0  0  0  0
 28 26  1  0  0  0  0
 30 27  2  0  0  0  0
 30 32  1  0  0  0  0
 31 29  2  0  0  0  0
 32 28  2  0  0  0  0
 33  4  1  0  0  0  0
 34 33  1  0  0  0  0
 35 36  1  0  0  0  0
 36 37  2  0  0  0  0
 37 34  1  0  0  0  0
 38 37  1  0  0  0  0
 39 38  2  0  0  0  0
 40 35  2  0  0  0  0
 40 39  1  0  0  0  0
M  END
>  <MODEL>
4

>  <REMARK>
 VINA RESULT:      -8.2      3.398      9.896
  Name = 
  11 active torsions:
  status: ('A' for Active; 'I' for Inactive)
    1  A    between atoms: C_7  and  N_19
    2  A    between atoms: C_8  and  N_38
    3  A    between atoms: N_15  and  C_23
    4  A    between atoms: O_16  and  C_28
    5  A    between atoms: O_16  and  C_39
    6  A    between atoms: C_17  and  C_29
    7  A    between atoms: C_18  and  C_30
    8  A    between atoms: C_23  and  N_32
    9  A    between atoms: C_24  and  C_39
   10  A    between atoms: C_29  and  N_32
   11  A    between atoms: N_31  and  C_35
                            x       y       z     vdW  Elec       q    Type
                         _______ _______ _______ _____ _____    ______ ____

>  <TORSDO>
F 11

$$$$
=
 OpenBabel11072410523D

 40 45  0  0  1  0  0  0  0  0999 V2000
  162.2570  210.1880  148.2410 N   0  0  0  0  0  0  0  0  0  0  0  0
  161.7680  210.5540  150.3570 C   0  0  0  0  0  3  0  0  0  0  0  0
  161.8490  209.1840  150.1850 C   0  0  0  0  0  0  0  0  0  0  0  0
  162.1460  208.9920  148.8470 C   0  0  0  0  0  0  0  0  0  0  0  0
  162.0110  211.1160  149.1570 N   0  0  0  0  0  0  0  0  0  0  0  0
  160.9090  207.1980  153.1460 C   0  0  0  0  0  2  0  0  0  0  0  0
  161.9640  206.3230  152.4610 C   0  0  2  0  0  3  0  0  0  0  0  0
  160.8000  208.3180  152.2860 O   0  0  0  0  0  0  0  0  0  0  0  0
  162.3700  207.0830  151.2860 N   0  0  0  0  0  0  0  0  0  0  0  0
  161.6890  208.1750  151.2420 C   0  0  0  0  0  0  0  0  0  0  0  0
  160.7860  203.4090  150.7260 C   0  0  0  0  0  3  0  0  0  0  0  0
  160.8270  202.9390  152.1420 C   0  0  0  0  0  2  0  0  0  0  0  0
  161.1690  204.0470  152.9550 O   0  0  0  0  0  0  0  0  0  0  0  0
  161.3840  205.0460  152.0620 N   0  0  0  0  0  0  0  0  0  0  0  0
  161.1330  204.6660  150.7250 C   0  0  0  0  0  3  0  0  0  0  0  0
  161.0990  212.9810  147.8240 C   0  0  2  0  0  3  0  0  0  0  0  0
  160.7130  213.1780  149.2770 C   0  0  0  0  0  2  0  0  0  0  0  0
  162.0570  212.5590  148.9310 C   0  0  1  0  0  3  0  0  0  0  0  0
  161.5740  214.3010  147.2460 C   0  0  0  0  0  2  0  0  0  0  0  0
  161.4880  214.2560  145.7960 N   0  0  0  0  0  2  0  0  0  0  0  0
  160.9830  212.9420  145.4370 C   0  0  0  0  0  2  0  0  0  0  0  0
  159.8330  212.8160  143.1910 C   0  0  0  0  0  0  0  0  0  0  0  0
  161.0200  212.7850  143.9920 N   0  0  0  0  0  2  0  0  0  0  0  0
  158.7210  213.0890  143.7240 O   0  0  0  0  0  0  0  0  0  0  0  0
  159.8780  212.5320  141.7860 N   0  0  0  0  0  2  0  0  0  0  0  0
  164.4270  211.4800  138.6990 F   0  0  0  0  0  0  0  0  0  0  0  0
  161.0370  212.2310  140.9950 C   0  0  0  0  0  0  0  0  0  0  0  0
  163.3230  211.7240  139.4460 C   0  0  0  0  0  0  0  0  0  0  0  0
  162.8770  213.0360  139.6260 C   0  0  0  0  0  3  0  0  0  0  0  0
  161.4940  210.9150  140.8120 C   0  0  0  0  0  3  0  0  0  0  0  0
  161.7380  213.2870  140.3980 C   0  0  0  0  0  3  0  0  0  0  0  0
  162.6330  210.6610  140.0390 C   0  0  0  0  0  3  0  0  0  0  0  0
  162.4180  207.6920  148.1650 C   0  0  0  0  0  2  0  0  0  0  0  0
  161.2650  207.2650  147.4460 O   0  0  0  0  0  0  0  0  0  0  0  0
  161.6810  203.7070  146.4590 C   0  0  0  0  0  3  0  0  0  0  0  0
  161.7380  204.8750  147.2210 C   0  0  0  0  0  3  0  0  0  0  0  0
  161.2170  206.0760  146.7140 C   0  0  0  0  0  0  0  0  0  0  0  0
  160.6410  206.0910  145.4380 C   0  0  0  0  0  3  0  0  0  0  0  0
  160.5860  204.9210  144.6750 C   0  0  0  0  0  3  0  0  0  0  0  0
  161.1060  203.7280  145.1870 C   0  0  0  0  0  3  0  0  0  0  0  0
  1  4  2  0  0  0  0
  1  5  1  0  0  0  0
  3  2  2  0  0  0  0
  3 10  1  0  0  0  0
  4  3  1  0  0  0  0
  5  2  1  0  0  0  0
  7 14  1  6  0  0  0
  7  6  1  0  0  0  0
  8  6  1  0  0  0  0
  9  7  1  0  0  0  0
 10  9  2  0  0  0  0
 10  8  1  0  0  0  0
 11 12  1  0  0  0  0
 12 13  1  0  0  0  0
 14 13  1  0  0  0  0
 15 11  2  0  0  0  0
 15 14  1  0  0  0  0
 16 19  1  6  0  0  0
 16 18  1  0  0  0  0
 16 17  1  0  0  0  0
 18  5  1  1  0  0  0
 18 17  1  0  0  0  0
 20 19  1  0  0  0  0
 21 20  1  0  0  0  0
 22 24  2  0  0  0  0
 22 23  1  0  0  0  0
 23 21  1  0  0  0  0
 25 22  1  0  0  0  0
 26 28  1  0  0  0  0
 27 25  1  0  0  0  0
 28 29  2  0  0  0  0
 28 32  1  0  0  0  0
 29 31  1  0  0  0  0
 30 27  1  0  0  0  0
 31 27  2  0  0  0  0
 32 30  2  0  0  0  0
 33  4  1  0  0  0  0
 34 33  1  0  0  0  0
 35 36  1  0  0  0  0
 37 36  2  0  0  0  0
 37 34  1  0  0  0  0
 38 37  1  0  0  0  0
 39 40  1  0  0  0  0
 39 38  2  0  0  0  0
 40 35  2  0  0  0  0
M  END
>  <MODEL>
5

>  <REMARK>
 VINA RESULT:      -8.2      4.932      7.789
  Name = 
  11 active torsions:
  status: ('A' for Active; 'I' for Inactive)
    1  A    between atoms: C_7  and  N_19
    2  A    between atoms: C_8  and  N_38
    3  A    between atoms: N_15  and  C_23
    4  A    between atoms: O_16  and  C_28
    5  A    between atoms: O_16  and  C_39
    6  A    between atoms: C_17  and  C_29
    7  A    between atoms: C_18  and  C_30
    8  A    between atoms: C_23  and  N_32
    9  A    between atoms: C_24  and  C_39
   10  A    between atoms: C_29  and  N_32
   11  A    between atoms: N_31  and  C_35
                            x       y       z     vdW  Elec       q    Type
                         _______ _______ _______ _____ _____    ______ ____

>  <TORSDO>
F 11

$$$$
=
 OpenBabel11072410523D

 40 45  0  0  1  0  0  0  0  0999 V2000
  161.9290  208.3990  150.7970 N   0  0  0  0  0  0  0  0  0  0  0  0
  161.9290  208.7490  148.6220 C   0  0  0  0  0  3  0  0  0  0  0  0
  161.9570  209.9870  149.2380 C   0  0  0  0  0  0  0  0  0  0  0  0
  161.9460  209.7290  150.5980 C   0  0  0  0  0  0  0  0  0  0  0  0
  161.9020  207.8230  149.6010 N   0  0  0  0  0  0  0  0  0  0  0  0
  162.8810  213.2860  147.8760 C   0  0  0  0  0  2  0  0  0  0  0  0
  161.4680  213.0660  147.3260 C   0  0  2  0  0  3  0  0  0  0  0  0
  163.1390  212.1010  148.6070 O   0  0  0  0  0  0  0  0  0  0  0  0
  161.0620  211.7710  147.8550 N   0  0  0  0  0  0  0  0  0  0  0  0
  162.0290  211.2850  148.5520 C   0  0  0  0  0  0  0  0  0  0  0  0
  162.3350  213.0300  143.8430 C   0  0  0  0  0  3  0  0  0  0  0  0
  160.9420  212.4940  143.8280 C   0  0  0  0  0  2  0  0  0  0  0  0
  160.4360  212.5690  145.1480 O   0  0  0  0  0  0  0  0  0  0  0  0
  161.4880  213.0340  145.8680 N   0  0  0  0  0  0  0  0  0  0  0  0
  162.6210  213.3300  145.0790 C   0  0  0  0  0  3  0  0  0  0  0  0
  161.1030  205.6340  150.4110 C   0  0  2  0  0  3  0  0  0  0  0  0
  160.4990  205.9060  149.0470 C   0  0  0  0  0  2  0  0  0  0  0  0
  161.9090  206.3830  149.3570 C   0  0  1  0  0  3  0  0  0  0  0  0
  161.5900  204.1990  150.4690 C   0  0  0  0  0  2  0  0  0  0  0  0
  160.6310  203.3880  151.2010 N   0  0  0  0  0  2  0  0  0  0  0  0
  160.4600  202.1520  150.4570 C   0  0  0  0  0  2  0  0  0  0  0  0
  161.1940  201.3960  148.1600 C   0  0  0  0  0  0  0  0  0  0  0  0
  160.6820  202.4030  149.0420 N   0  0  0  0  0  2  0  0  0  0  0  0
  161.3660  200.2180  148.5820 O   0  0  0  0  0  0  0  0  0  0  0  0
  161.5270  201.7010  146.7980 N   0  0  0  0  0  2  0  0  0  0  0  0
  160.8360  206.5710  144.1300 F   0  0  0  0  0  0  0  0  0  0  0  0
  161.3780  202.9600  146.1270 C   0  0  0  0  0  0  0  0  0  0  0  0
  161.0130  205.3950  144.7800 C   0  0  0  0  0  0  0  0  0  0  0  0
  160.1950  204.3030  144.4810 C   0  0  0  0  0  3  0  0  0  0  0  0
  162.1930  204.0640  146.4230 C   0  0  0  0  0  3  0  0  0  0  0  0
  160.3780  203.0900  145.1530 C   0  0  0  0  0  3  0  0  0  0  0  0
  162.0130  205.2790  145.7510 C   0  0  0  0  0  3  0  0  0  0  0  0
  162.0470  210.7280  151.7020 C   0  0  0  0  0  2  0  0  0  0  0  0
  161.0160  210.5080  152.6590 O   0  0  0  0  0  0  0  0  0  0  0  0
  162.1240  210.0880  156.1810 C   0  0  0  0  0  3  0  0  0  0  0  0
  161.9010  210.6740  154.9330 C   0  0  0  0  0  3  0  0  0  0  0  0
  161.2480  209.9540  153.9200 C   0  0  0  0  0  0  0  0  0  0  0  0
  160.8250  208.6440  154.1720 C   0  0  0  0  0  3  0  0  0  0  0  0
  161.0510  208.0570  155.4210 C   0  0  0  0  0  3  0  0  0  0  0  0
  161.7010  208.7800  156.4260 C   0  0  0  0  0  3  0  0  0  0  0  0
  2  3  2  0  0  0  0
  2  5  1  0  0  0  0
  3  4  1  0  0  0  0
  4  1  2  0  0  0  0
  4 33  1  0  0  0  0
  5  1  1  0  0  0  0
  6  8  1  0  0  0  0
  7 14  1  6  0  0  0
  7  9  1  0  0  0  0
  7  6  1  0  0  0  0
  9 10  2  0  0  0  0
 10  8  1  0  0  0  0
 10  3  1  0  0  0  0
 11 15  2  0  0  0  0
 12 11  1  0  0  0  0
 12 13  1  0  0  0  0
 13 14  1  0  0  0  0
 15 14  1  0  0  0  0
 16 19  1  6  0  0  0
 17 16  1  0  0  0  0
 18 17  1  6  0  0  0
 18  5  1  0  0  0  0
 18 16  1  0  0  0  0
 19 20  1  0  0  0  0
 21 20  1  0  0  0  0
 22 24  2  0  0  0  0
 22 23  1  0  0  0  0
 23 21  1  0  0  0  0
 25 22  1  0  0  0  0
 26 28  1  0  0  0  0
 27 30  1  0  0  0  0
 27 25  1  0  0  0  0
 28 32  1  0  0  0  0
 29 28  2  0  0  0  0
 29 31  1  0  0  0  0
 31 27  2  0  0  0  0
 32 30  2  0  0  0  0
 33 34  1  0  0  0  0
 34 37  1  0  0  0  0
 35 40  1  0  0  0  0
 36 35  2  0  0  0  0
 37 38  2  0  0  0  0
 37 36  1  0  0  0  0
 38 39  1  0  0  0  0
 39 40  2  0  0  0  0
M  END
>  <MODEL>
6

>  <REMARK>
 VINA RESULT:      -8.1      3.605      8.739
  Name = 
  11 active torsions:
  status: ('A' for Active; 'I' for Inactive)
    1  A    between atoms: C_7  and  N_19
    2  A    between atoms: C_8  and  N_38
    3  A    between atoms: N_15  and  C_23
    4  A    between atoms: O_16  and  C_28
    5  A    between atoms: O_16  and  C_39
    6  A    between atoms: C_17  and  C_29
    7  A    between atoms: C_18  and  C_30
    8  A    between atoms: C_23  and  N_32
    9  A    between atoms: C_24  and  C_39
   10  A    between atoms: C_29  and  N_32
   11  A    between atoms: N_31  and  C_35
                            x       y       z     vdW  Elec       q    Type
                         _______ _______ _______ _____ _____    ______ ____

>  <TORSDO>
F 11

$$$$
=
 OpenBabel11072410523D

 40 45  0  0  1  0  0  0  0  0999 V2000
  162.3290  209.6210  148.2280 N   0  0  0  0  0  0  0  0  0  0  0  0
  161.9540  210.2180  150.3140 C   0  0  0  0  0  3  0  0  0  0  0  0
  161.9200  208.8360  150.2700 C   0  0  0  0  0  0  0  0  0  0  0  0
  162.1490  208.4990  148.9470 C   0  0  0  0  0  0  0  0  0  0  0  0
  162.1920  210.6460  149.0590 N   0  0  0  0  0  0  0  0  0  0  0  0
  162.1340  206.2610  152.9000 C   0  0  0  0  0  2  0  0  0  0  0  0
  160.8180  206.9770  153.2210 C   0  0  2  0  0  3  0  0  0  0  0  0
  162.6260  206.9640  151.7730 O   0  0  0  0  0  0  0  0  0  0  0  0
  160.6920  208.0000  152.1910 N   0  0  0  0  0  0  0  0  0  0  0  0
  161.7240  207.9460  151.4220 C   0  0  0  0  0  0  0  0  0  0  0  0
  161.0050  209.1950  156.0370 C   0  0  0  0  0  3  0  0  0  0  0  0
  160.4830  207.9410  156.6560 C   0  0  0  0  0  2  0  0  0  0  0  0
  160.4750  206.9380  155.6570 O   0  0  0  0  0  0  0  0  0  0  0  0
  160.8830  207.5930  154.5410 N   0  0  0  0  0  0  0  0  0  0  0  0
  161.2200  208.9440  154.7760 C   0  0  0  0  0  3  0  0  0  0  0  0
  161.4560  212.4220  147.5120 C   0  0  2  0  0  3  0  0  0  0  0  0
  161.0290  212.7860  148.9210 C   0  0  0  0  0  2  0  0  0  0  0  0
  162.3420  212.0530  148.6950 C   0  0  1  0  0  3  0  0  0  0  0  0
  162.0370  213.6450  146.8300 C   0  0  0  0  0  2  0  0  0  0  0  0
  162.3690  213.3230  145.4520 N   0  0  0  0  0  2  0  0  0  0  0  0
  161.1350  212.9260  144.7960 C   0  0  0  0  0  2  0  0  0  0  0  0
  162.4720  212.9700  142.6530 C   0  0  0  0  0  0  0  0  0  0  0  0
  161.4340  212.4140  143.4680 N   0  0  0  0  0  2  0  0  0  0  0  0
  163.2310  213.8640  143.1230 O   0  0  0  0  0  0  0  0  0  0  0  0
  162.6660  212.5380  141.2990 N   0  0  0  0  0  2  0  0  0  0  0  0
  159.7180  208.6640  138.5370 F   0  0  0  0  0  0  0  0  0  0  0  0
  161.9340  211.5230  140.5960 C   0  0  0  0  0  0  0  0  0  0  0  0
  160.4390  209.5950  139.2080 C   0  0  0  0  0  0  0  0  0  0  0  0
  159.8480  210.8070  139.5710 C   0  0  0  0  0  3  0  0  0  0  0  0
  162.5200  210.3030  140.2240 C   0  0  0  0  0  3  0  0  0  0  0  0
  160.5940  211.7670  140.2630 C   0  0  0  0  0  3  0  0  0  0  0  0
  161.7760  209.3400  139.5330 C   0  0  0  0  0  3  0  0  0  0  0  0
  162.2930  207.1240  148.3830 C   0  0  0  0  0  2  0  0  0  0  0  0
  161.0610  206.4170  148.4970 O   0  0  0  0  0  0  0  0  0  0  0  0
  161.1930  202.7250  148.0990 C   0  0  0  0  0  3  0  0  0  0  0  0
  161.2840  204.0850  147.7940 C   0  0  0  0  0  3  0  0  0  0  0  0
  160.9870  205.0490  148.7700 C   0  0  0  0  0  0  0  0  0  0  0  0
  160.5970  204.6350  150.0480 C   0  0  0  0  0  3  0  0  0  0  0  0
  160.5040  203.2730  150.3520 C   0  0  0  0  0  3  0  0  0  0  0  0
  160.8020  202.3180  149.3760 C   0  0  0  0  0  3  0  0  0  0  0  0
  1  4  2  0  0  0  0
  1  5  1  0  0  0  0
  3  2  2  0  0  0  0
  3 10  1  0  0  0  0
  4  3  1  0  0  0  0
  5  2  1  0  0  0  0
  7  6  1  6  0  0  0
  7 14  1  0  0  0  0
  8  6  1  0  0  0  0
  9  7  1  0  0  0  0
 10  8  1  0  0  0  0
 10  9  2  0  0  0  0
 11 12  1  0  0  0  0
 13 12  1  0  0  0  0
 14 15  1  0  0  0  0
 14 13  1  0  0  0  0
 15 11  2  0  0  0  0
 16 19  1  6  0  0  0
 16 18  1  0  0  0  0
 16 17  1  0  0  0  0
 18 17  1  1  0  0  0
 18  5  1  0  0  0  0
 20 19  1  0  0  0  0
 21 20  1  0  0  0  0
 22 24  2  0  0  0  0
 22 23  1  0  0  0  0
 23 21  1  0  0  0  0
 25 22  1  0  0  0  0
 26 28  1  0  0  0  0
 27 25  1  0  0  0  0
 28 32  2  0  0  0  0
 28 29  1  0  0  0  0
 29 31  2  0  0  0  0
 30 27  2  0  0  0  0
 31 27  1  0  0  0  0
 32 30  1  0  0  0  0
 33 34  1  0  0  0  0
 33  4  1  0  0  0  0
 34 37  1  0  0  0  0
 35 40  1  0  0  0  0
 36 35  2  0  0  0  0
 36 37  1  0  0  0  0
 37 38  2  0  0  0  0
 38 39  1  0  0  0  0
 40 39  2  0  0  0  0
M  END
>  <MODEL>
7

>  <REMARK>
 VINA RESULT:      -8.0      4.816      8.386
  Name = 
  11 active torsions:
  status: ('A' for Active; 'I' for Inactive)
    1  A    between atoms: C_7  and  N_19
    2  A    between atoms: C_8  and  N_38
    3  A    between atoms: N_15  and  C_23
    4  A    between atoms: O_16  and  C_28
    5  A    between atoms: O_16  and  C_39
    6  A    between atoms: C_17  and  C_29
    7  A    between atoms: C_18  and  C_30
    8  A    between atoms: C_23  and  N_32
    9  A    between atoms: C_24  and  C_39
   10  A    between atoms: C_29  and  N_32
   11  A    between atoms: N_31  and  C_35
                            x       y       z     vdW  Elec       q    Type
                         _______ _______ _______ _____ _____    ______ ____

>  <TORSDO>
F 11

$$$$
=
 OpenBabel11072410523D

 40 45  0  0  1  0  0  0  0  0999 V2000
  162.0590  210.8060  150.3540 N   0  0  0  0  0  0  0  0  0  0  0  0
  161.9380  210.1450  148.2570 C   0  0  0  0  0  3  0  0  0  0  0  0
  161.9070  209.0110  149.0480 C   0  0  0  0  0  0  0  0  0  0  0  0
  161.9940  209.4630  150.3540 C   0  0  0  0  0  0  0  0  0  0  0  0
  162.0410  211.2010  149.0880 N   0  0  0  0  0  0  0  0  0  0  0  0
  162.2610  205.7070  147.4500 C   0  0  0  0  0  2  0  0  0  0  0  0
  160.9260  205.5920  148.1930 C   0  0  2  0  0  3  0  0  0  0  0  0
  162.7060  207.0130  147.7710 O   0  0  0  0  0  0  0  0  0  0  0  0
  160.7450  206.8900  148.8320 N   0  0  0  0  0  0  0  0  0  0  0  0
  161.7630  207.6310  148.5640 C   0  0  0  0  0  0  0  0  0  0  0  0
  160.8410  203.5970  151.1770 C   0  0  0  0  0  3  0  0  0  0  0  0
  160.8210  202.5610  150.1020 C   0  0  0  0  0  2  0  0  0  0  0  0
  160.9720  203.2240  148.8600 O   0  0  0  0  0  0  0  0  0  0  0  0
  160.9930  204.5380  149.1990 N   0  0  0  0  0  0  0  0  0  0  0  0
  160.9350  204.7590  150.5920 C   0  0  0  0  0  3  0  0  0  0  0  0
  160.8480  212.9170  147.7770 C   0  0  2  0  0  3  0  0  0  0  0  0
  160.8850  213.3440  149.2320 C   0  0  0  0  0  2  0  0  0  0  0  0
  162.0630  212.5900  148.6360 C   0  0  1  0  0  3  0  0  0  0  0  0
  161.1810  214.1060  146.8950 C   0  0  0  0  0  2  0  0  0  0  0  0
  160.4770  213.9850  145.6300 N   0  0  0  0  0  2  0  0  0  0  0  0
  160.4550  212.5740  145.2860 C   0  0  0  0  0  2  0  0  0  0  0  0
  162.0790  212.6740  143.3530 C   0  0  0  0  0  0  0  0  0  0  0  0
  160.7710  212.4130  143.8760 N   0  0  0  0  0  2  0  0  0  0  0  0
  163.0270  212.9540  144.1400 O   0  0  0  0  0  0  0  0  0  0  0  0
  162.3370  212.6340  141.9420 N   0  0  0  0  0  2  0  0  0  0  0  0
  158.7280  211.4920  137.8200 F   0  0  0  0  0  0  0  0  0  0  0  0
  161.4090  212.3110  140.8970 C   0  0  0  0  0  0  0  0  0  0  0  0
  159.6010  211.7590  138.8220 C   0  0  0  0  0  0  0  0  0  0  0  0
  159.9770  213.0780  139.0880 C   0  0  0  0  0  3  0  0  0  0  0  0
  161.0280  210.9880  140.6200 C   0  0  0  0  0  3  0  0  0  0  0  0
  160.8780  213.3510  140.1210 C   0  0  0  0  0  3  0  0  0  0  0  0
  160.1250  210.7110  139.5870 C   0  0  0  0  0  3  0  0  0  0  0  0
  161.9200  208.6380  151.5960 C   0  0  0  0  0  2  0  0  0  0  0  0
  161.2260  209.3490  152.6160 O   0  0  0  0  0  0  0  0  0  0  0  0
  160.0790  208.9310  156.1260 C   0  0  0  0  0  3  0  0  0  0  0  0
  160.4570  209.5450  154.9300 C   0  0  0  0  0  3  0  0  0  0  0  0
  160.8360  208.7670  153.8250 C   0  0  0  0  0  0  0  0  0  0  0  0
  160.8320  207.3720  153.9330 C   0  0  0  0  0  3  0  0  0  0  0  0
  160.4560  206.7580  155.1310 C   0  0  0  0  0  3  0  0  0  0  0  0
  160.0790  207.5380  156.2280 C   0  0  0  0  0  3  0  0  0  0  0  0
  2  3  2  0  0  0  0
  2  5  1  0  0  0  0
  3  4  1  0  0  0  0
  4  1  2  0  0  0  0
  4 33  1  0  0  0  0
  5  1  1  0  0  0  0
  6  8  1  0  0  0  0
  7  6  1  1  0  0  0
  7  9  1  0  0  0  0
  7 14  1  0  0  0  0
  8 10  1  0  0  0  0
 10  9  2  0  0  0  0
 10  3  1  0  0  0  0
 12 11  1  0  0  0  0
 13 14  1  0  0  0  0
 13 12  1  0  0  0  0
 14 15  1  0  0  0  0
 15 11  2  0  0  0  0
 16 19  1  6  0  0  0
 16 18  1  0  0  0  0
 16 17  1  0  0  0  0
 18  5  1  1  0  0  0
 18 17  1  0  0  0  0
 20 19  1  0  0  0  0
 21 20  1  0  0  0  0
 22 23  1  0  0  0  0
 22 24  2  0  0  0  0
 23 21  1  0  0  0  0
 25 22  1  0  0  0  0
 26 28  1  0  0  0  0
 27 25  1  0  0  0  0
 28 29  2  0  0  0  0
 28 32  1  0  0  0  0
 29 31  1  0  0  0  0
 30 27  1  0  0  0  0
 31 27  2  0  0  0  0
 32 30  2  0  0  0  0
 33 34  1  0  0  0  0
 34 37  1  0  0  0  0
 35 40  1  0  0  0  0
 36 35  2  0  0  0  0
 37 38  2  0  0  0  0
 37 36  1  0  0  0  0
 38 39  1  0  0  0  0
 39 40  2  0  0  0  0
M  END
>  <MODEL>
8

>  <REMARK>
 VINA RESULT:      -7.8      4.911      8.222
  Name = 
  11 active torsions:
  status: ('A' for Active; 'I' for Inactive)
    1  A    between atoms: C_7  and  N_19
    2  A    between atoms: C_8  and  N_38
    3  A    between atoms: N_15  and  C_23
    4  A    between atoms: O_16  and  C_28
    5  A    between atoms: O_16  and  C_39
    6  A    between atoms: C_17  and  C_29
    7  A    between atoms: C_18  and  C_30
    8  A    between atoms: C_23  and  N_32
    9  A    between atoms: C_24  and  C_39
   10  A    between atoms: C_29  and  N_32
   11  A    between atoms: N_31  and  C_35
                            x       y       z     vdW  Elec       q    Type
                         _______ _______ _______ _____ _____    ______ ____

>  <TORSDO>
F 11

$$$$
=
 OpenBabel11072410523D

 40 45  0  0  1  0  0  0  0  0999 V2000
  162.0250  208.9280  148.6390 N   0  0  0  0  0  0  0  0  0  0  0  0
  161.2530  207.8410  150.3910 C   0  0  0  0  0  3  0  0  0  0  0  0
  161.5000  209.1410  150.7910 C   0  0  0  0  0  0  0  0  0  0  0  0
  161.9920  209.7900  149.6700 C   0  0  0  0  0  0  0  0  0  0  0  0
  161.5940  207.7570  149.0910 N   0  0  0  0  0  0  0  0  0  0  0  0
  161.6510  210.7020  154.1280 C   0  0  0  0  0  2  0  0  0  0  0  0
  160.1850  210.2710  154.0120 C   0  0  2  0  0  3  0  0  0  0  0  0
  162.2090  210.3130  152.8850 O   0  0  0  0  0  0  0  0  0  0  0  0
  160.0880  209.6360  152.7030 N   0  0  0  0  0  0  0  0  0  0  0  0
  161.2390  209.6930  152.1270 C   0  0  0  0  0  0  0  0  0  0  0  0
  158.3550  213.3050  153.4380 C   0  0  0  0  0  3  0  0  0  0  0  0
  157.5360  212.6360  154.4920 C   0  0  0  0  0  2  0  0  0  0  0  0
  158.2240  211.4660  154.8950 O   0  0  0  0  0  0  0  0  0  0  0  0
  159.3070  211.4330  154.0770 N   0  0  0  0  0  0  0  0  0  0  0  0
  159.3940  212.5490  153.2170 C   0  0  0  0  0  3  0  0  0  0  0  0
  161.2920  206.8740  146.8070 C   0  0  2  0  0  3  0  0  0  0  0  0
  162.6270  206.3980  147.3480 C   0  0  0  0  0  2  0  0  0  0  0  0
  161.4410  206.5460  148.2870 C   0  0  1  0  0  3  0  0  0  0  0  0
  160.5870  205.7200  146.1200 C   0  0  0  0  0  2  0  0  0  0  0  0
  161.4210  205.2090  145.0460 N   0  0  0  0  0  2  0  0  0  0  0  0
  161.1990  203.7740  144.9770 C   0  0  0  0  0  2  0  0  0  0  0  0
  160.8410  201.8500  146.5760 C   0  0  0  0  0  0  0  0  0  0  0  0
  161.1570  203.2240  146.3230 N   0  0  0  0  0  2  0  0  0  0  0  0
  160.6920  201.0510  145.6100 O   0  0  0  0  0  0  0  0  0  0  0  0
  160.6800  201.3590  147.9140 N   0  0  0  0  0  2  0  0  0  0  0  0
  161.3200  204.1240  152.7380 F   0  0  0  0  0  0  0  0  0  0  0  0
  160.8350  202.0960  149.1360 C   0  0  0  0  0  0  0  0  0  0  0  0
  161.1620  203.4640  151.5650 C   0  0  0  0  0  0  0  0  0  0  0  0
  161.1940  202.0670  151.5400 C   0  0  0  0  0  3  0  0  0  0  0  0
  160.8070  203.5000  149.1700 C   0  0  0  0  0  3  0  0  0  0  0  0
  161.0310  201.3870  150.3290 C   0  0  0  0  0  3  0  0  0  0  0  0
  160.9690  204.1830  150.3800 C   0  0  0  0  0  3  0  0  0  0  0  0
  162.3380  211.2370  149.5500 C   0  0  0  0  0  2  0  0  0  0  0  0
  161.2520  211.9540  148.9710 O   0  0  0  0  0  0  0  0  0  0  0  0
  160.1070  212.6190  145.4990 C   0  0  0  0  0  3  0  0  0  0  0  0
  160.0910  212.2040  146.8320 C   0  0  0  0  0  3  0  0  0  0  0  0
  161.2320  212.3640  147.6360 C   0  0  0  0  0  0  0  0  0  0  0  0
  162.3830  212.9390  147.0880 C   0  0  0  0  0  3  0  0  0  0  0  0
  162.3990  213.3520  145.7520 C   0  0  0  0  0  3  0  0  0  0  0  0
  161.2600  213.1910  144.9580 C   0  0  0  0  0  3  0  0  0  0  0  0
  1  5  1  0  0  0  0
  1  4  2  0  0  0  0
  2  3  2  0  0  0  0
  3 10  1  0  0  0  0
  4  3  1  0  0  0  0
  5  2  1  0  0  0  0
  7 14  1  6  0  0  0
  7  6  1  0  0  0  0
  8  6  1  0  0  0  0
  9  7  1  0  0  0  0
 10  9  2  0  0  0  0
 10  8  1  0  0  0  0
 11 12  1  0  0  0  0
 12 13  1  0  0  0  0
 14 13  1  0  0  0  0
 15 11  2  0  0  0  0
 15 14  1  0  0  0  0
 16 19  1  6  0  0  0
 16 17  1  0  0  0  0
 16 18  1  0  0  0  0
 18 17  1  6  0  0  0
 18  5  1  0  0  0  0
 20 19  1  0  0  0  0
 21 20  1  0  0  0  0
 21 23  1  0  0  0  0
 22 25  1  0  0  0  0
 23 22  1  0  0  0  0
 24 22  2  0  0  0  0
 25 27  1  0  0  0  0
 27 30  2  0  0  0  0
 27 31  1  0  0  0  0
 28 26  1  0  0  0  0
 29 28  1  0  0  0  0
 30 32  1  0  0  0  0
 31 29  2  0  0  0  0
 32 28  2  0  0  0  0
 33  4  1  0  0  0  0
 34 33  1  0  0  0  0
 35 36  1  0  0  0  0
 36 37  2  0  0  0  0
 37 34  1  0  0  0  0
 38 37  1  0  0  0  0
 39 38  2  0  0  0  0
 40 35  2  0  0  0  0
 40 39  1  0  0  0  0
M  END
>  <MODEL>
9

>  <REMARK>
 VINA RESULT:      -7.8      3.103      9.977
  Name = 
  11 active torsions:
  status: ('A' for Active; 'I' for Inactive)
    1  A    between atoms: C_7  and  N_19
    2  A    between atoms: C_8  and  N_38
    3  A    between atoms: N_15  and  C_23
    4  A    between atoms: O_16  and  C_28
    5  A    between atoms: O_16  and  C_39
    6  A    between atoms: C_17  and  C_29
    7  A    between atoms: C_18  and  C_30
    8  A    between atoms: C_23  and  N_32
    9  A    between atoms: C_24  and  C_39
   10  A    between atoms: C_29  and  N_32
   11  A    between atoms: N_31  and  C_35
                            x       y       z     vdW  Elec       q    Type
                         _______ _______ _______ _____ _____    ______ ____

>  <TORSDO>
F 11

$$$$
