=
 OpenBabel11072411003D

 42 46  0  0  1  0  0  0  0  0999 V2000
  161.4230  213.4500  146.8620 O   0  0  0  0  0  0  0  0  0  0  0  0
  161.8700  212.2580  147.4710 C   0  0  0  0  0  2  0  0  0  0  0  0
  160.6140  213.3110  149.4060 C   0  0  1  0  0  3  0  0  0  0  0  0
  161.7230  212.3170  149.0030 C   0  0  1  0  0  3  0  0  0  0  0  0
  159.4690  213.2730  148.4060 C   0  0  0  0  0  2  0  0  0  0  0  0
  160.0110  213.5520  146.9890 C   0  0  2  0  0  3  0  0  0  0  0  0
  160.0470  211.7590  145.4000 F   0  0  0  0  0  0  0  0  0  0  0  0
  159.2590  212.7810  145.9020 C   0  0  0  0  0  0  0  0  0  0  0  0
  158.1030  212.2410  146.4320 F   0  0  0  0  0  0  0  0  0  0  0  0
  158.9200  213.6400  144.8750 F   0  0  0  0  0  0  0  0  0  0  0  0
  161.5530  210.9110  149.5990 C   0  0  2  0  0  3  0  0  0  0  0  0
  162.2960  210.8010  150.7760 O   0  0  0  0  0  1  0  0  0  0  0  0
  161.9590  209.8140  148.6190 C   0  0  0  0  0  2  0  0  0  0  0  0
  161.7200  208.5030  149.1980 N   0  0  0  0  0  2  0  0  0  0  0  0
  162.1710  207.5050  148.2360 C   0  0  0  0  0  2  0  0  0  0  0  0
  161.5660  205.1180  148.6730 C   0  0  2  0  0  3  0  0  0  0  0  0
  161.1160  206.4240  148.0330 C   0  0  2  0  0  3  0  0  0  0  0  0
  161.0210  206.1010  146.5760 C   0  0  0  0  0  2  0  0  0  0  0  0
  161.2640  203.9790  145.3340 C   0  0  0  0  0  1  0  0  0  0  0  0
  161.7220  204.1380  147.6720 O   0  0  0  0  0  0  0  0  0  0  0  0
  161.8190  204.8300  146.4570 C   0  0  2  0  0  3  0  0  0  0  0  0
  160.5380  204.6520  149.7040 C   0  0  2  0  0  3  0  0  0  0  0  0
  160.4740  205.5540  150.7680 O   0  0  0  0  0  1  0  0  0  0  0  0
  160.8700  203.2890  150.2210 C   0  0  0  0  0  0  0  0  0  0  0  0
  161.4870  203.1480  151.3110 O   0  0  0  0  0  1  0  0  0  0  0  0
  160.5230  202.1710  149.4730 O   0  0  0  0  0  0  0  0  0  0  0  0
  160.1120  213.1650  150.8360 C   0  0  0  0  0  2  0  0  0  0  0  0
  157.9350  213.7700  151.9940 C   0  0  0  0  0  0  0  0  0  0  0  0
  156.6760  213.7230  151.9700 O   0  0  0  0  0  0  0  0  0  0  0  0
  158.6620  213.2810  150.8630 N   0  0  0  0  0  2  0  0  0  0  0  0
  156.1900  211.4750  154.8560 S   0  0  0  0  0  0  0  0  0  0  0  0
  158.5150  211.0700  156.7720 O   0  0  0  0  0  1  0  0  0  0  0  0
  158.6440  214.2170  153.2500 C   0  0  2  0  0  3  0  0  0  0  0  0
  155.3220  214.0660  154.8300 O   0  0  0  0  0  1  0  0  0  0  0  0
  156.7590  212.6590  156.1570 C   0  0  1  0  0  0  0  0  0  0  0  0
  158.9520  213.1180  154.2950 C   0  0  2  0  0  0  0  0  0  0  0  0
  155.7240  212.8280  157.2610 C   0  0  0  0  0  1  0  0  0  0  0  0
  158.2410  212.4300  156.6240 C   0  0  2  0  0  3  0  0  0  0  0  0
  158.7070  211.8360  153.7900 O   0  0  0  0  0  1  0  0  0  0  0  0
  157.7560  214.0800  154.4460 C   0  0  2  0  0  3  0  0  0  0  0  0
  159.3460  213.1150  155.7650 C   0  0  0  0  0  2  0  0  0  0  0  0
  156.4910  213.3050  154.8330 C   0  0  1  0  0  0  0  0  0  0  0  0
  1  6  1  0  0  0  0
  1  2  1  0  0  0  0
  2  4  1  0  0  0  0
  3 27  1  1  0  0  0
  4  3  1  0  0  0  0
  4 11  1  6  0  0  0
  5  3  1  0  0  0  0
  6  8  1  6  0  0  0
  6  5  1  0  0  0  0
  7  8  1  0  0  0  0
  8  9  1  0  0  0  0
 10  8  1  0  0  0  0
 11 12  1  1  0  0  0
 13 14  1  0  0  0  0
 13 11  1  0  0  0  0
 15 14  1  0  0  0  0
 16 22  1  1  0  0  0
 17 15  1  6  0  0  0
 17 16  1  0  0  0  0
 18 17  1  0  0  0  0
 20 16  1  0  0  0  0
 21 19  1  6  0  0  0
 21 18  1  0  0  0  0
 21 20  1  0  0  0  0
 22 24  1  0  0  0  0
 22 23  1  1  0  0  0
 24 25  1  0  0  0  0
 26 24  2  0  0  0  0
 27 30  1  0  0  0  0
 29 28  2  0  0  0  0
 30 28  1  0  0  0  0
 31 35  1  0  0  0  0
 33 28  1  6  0  0  0
 33 36  1  0  0  0  0
 33 40  1  0  0  0  0
 34 42  1  0  0  0  0
 35 38  1  0  0  0  0
 35 37  1  1  0  0  0
 36 39  1  6  0  0  0
 36 40  1  0  0  0  0
 36 41  1  0  0  0  0
 38 32  1  6  0  0  0
 40 42  1  0  0  0  0
 41 38  1  0  0  0  0
 42 31  1  0  0  0  0
 42 35  1  0  0  0  0
M  END
>  <MODEL>
1

>  <REMARK>
 VINA RESULT:      -6.9      0.000      0.000
  Name = 
  11 active torsions:
  status: ('A' for Active; 'I' for Inactive)
    1  A    between atoms: C_1  and  C_14
    2  A    between atoms: C_5  and  C_10
    3  A    between atoms: C_9  and  C_20
    4  A    between atoms: C_9  and  N_33
    5  A    between atoms: C_10  and  C_16
    6  A    between atoms: C_11  and  C_12
    7  A    between atoms: C_12  and  N_31
    8  A    between atoms: C_13  and  C_22
    9  A    between atoms: C_17  and  C_42
   10  A    between atoms: C_22  and  C_23
   11  A    between atoms: C_23  and  N_33
                            x       y       z     vdW  Elec       q    Type
                         _______ _______ _______ _____ _____    ______ ____

>  <TORSDO>
F 11

$$$$
=
 OpenBabel11072411003D

 42 46  0  0  1  0  0  0  0  0999 V2000
  163.3110  207.2540  150.7360 O   0  0  0  0  0  0  0  0  0  0  0  0
  162.7290  205.9870  150.9520 C   0  0  0  0  0  2  0  0  0  0  0  0
  161.5260  207.3460  152.7240 C   0  0  1  0  0  3  0  0  0  0  0  0
  161.9760  205.9340  152.2950 C   0  0  1  0  0  3  0  0  0  0  0  0
  161.1230  208.1720  151.5120 C   0  0  0  0  0  2  0  0  0  0  0  0
  162.2900  208.2160  150.5050 C   0  0  2  0  0  3  0  0  0  0  0  0
  161.6660  209.5500  148.6140 F   0  0  0  0  0  0  0  0  0  0  0  0
  161.8190  208.2450  149.0490 C   0  0  0  0  0  0  0  0  0  0  0  0
  162.7490  207.6080  148.2490 F   0  0  0  0  0  0  0  0  0  0  0  0
  160.6110  207.5840  148.9390 F   0  0  0  0  0  0  0  0  0  0  0  0
  160.8400  204.8990  152.2540 C   0  0  2  0  0  3  0  0  0  0  0  0
  161.3150  203.6580  152.6820 O   0  0  0  0  0  1  0  0  0  0  0  0
  160.2210  204.7730  150.8650 C   0  0  0  0  0  2  0  0  0  0  0  0
  161.0680  203.9660  150.0040 N   0  0  0  0  0  2  0  0  0  0  0  0
  160.7650  204.3240  148.6240 C   0  0  0  0  0  2  0  0  0  0  0  0
  161.0440  203.5220  146.2710 C   0  0  2  0  0  3  0  0  0  0  0  0
  161.6800  203.5870  147.6530 C   0  0  2  0  0  3  0  0  0  0  0  0
  161.7860  202.1550  148.0720 C   0  0  0  0  0  2  0  0  0  0  0  0
  161.3210  200.0440  146.8760 C   0  0  0  0  0  1  0  0  0  0  0  0
  160.8010  202.1760  145.9330 O   0  0  0  0  0  0  0  0  0  0  0  0
  160.8380  201.4560  147.1350 C   0  0  2  0  0  3  0  0  0  0  0  0
  161.9650  204.1640  145.2330 C   0  0  2  0  0  3  0  0  0  0  0  0
  163.1500  204.5940  145.8350 O   0  0  0  0  0  1  0  0  0  0  0  0
  161.2980  205.3170  144.5560 C   0  0  0  0  0  0  0  0  0  0  0  0
  161.6330  205.6580  143.3900 O   0  0  0  0  0  0  0  0  0  0  0  0
  160.3230  206.0370  145.2340 O   0  0  0  0  0  1  0  0  0  0  0  0
  160.4530  207.3770  153.8030 C   0  0  0  0  0  2  0  0  0  0  0  0
  160.9930  209.5040  155.0790 C   0  0  0  0  0  0  0  0  0  0  0  0
  161.5530  210.0210  156.0830 O   0  0  0  0  0  0  0  0  0  0  0  0
  160.9540  208.0770  154.9750 N   0  0  0  0  0  2  0  0  0  0  0  0
  158.2590  211.8440  156.9620 S   0  0  0  0  0  0  0  0  0  0  0  0
  158.5630  214.4460  155.4200 O   0  0  0  0  0  1  0  0  0  0  0  0
  160.4940  210.3870  153.9620 C   0  0  2  0  0  3  0  0  0  0  0  0
  157.1590  209.8660  155.4300 O   0  0  0  0  0  1  0  0  0  0  0  0
  157.4830  212.2520  155.3340 C   0  0  1  0  0  0  0  0  0  0  0  0
  160.1900  211.8600  154.3330 C   0  0  2  0  0  0  0  0  0  0  0  0
  155.9670  212.3530  155.4380 C   0  0  0  0  0  1  0  0  0  0  0  0
  158.2040  213.4110  154.5560 C   0  0  2  0  0  3  0  0  0  0  0  0
  160.6430  212.1770  155.6170 O   0  0  0  0  0  1  0  0  0  0  0  0
  159.0760  210.8010  154.1950 C   0  0  2  0  0  3  0  0  0  0  0  0
  159.4190  212.9940  153.6750 C   0  0  0  0  0  2  0  0  0  0  0  0
  158.1040  210.8910  155.3790 C   0  0  1  0  0  0  0  0  0  0  0  0
  1  2  1  0  0  0  0
  2  4  1  0  0  0  0
  3 27  1  1  0  0  0
  4 11  1  6  0  0  0
  4  3  1  0  0  0  0
  5  3  1  0  0  0  0
  6  8  1  6  0  0  0
  6  1  1  0  0  0  0
  6  5  1  0  0  0  0
  7  8  1  0  0  0  0
  9  8  1  0  0  0  0
 10  8  1  0  0  0  0
 11 12  1  6  0  0  0
 13 11  1  0  0  0  0
 14 13  1  0  0  0  0
 15 14  1  0  0  0  0
 16 22  1  6  0  0  0
 16 17  1  0  0  0  0
 17 18  1  0  0  0  0
 17 15  1  1  0  0  0
 20 16  1  0  0  0  0
 20 21  1  0  0  0  0
 21 19  1  6  0  0  0
 21 18  1  0  0  0  0
 22 23  1  1  0  0  0
 24 22  1  0  0  0  0
 24 26  1  0  0  0  0
 25 24  2  0  0  0  0
 27 30  1  0  0  0  0
 28 29  2  0  0  0  0
 30 28  1  0  0  0  0
 33 40  1  0  0  0  0
 33 36  1  0  0  0  0
 33 28  1  1  0  0  0
 35 42  1  0  0  0  0
 35 37  1  6  0  0  0
 35 31  1  0  0  0  0
 36 39  1  1  0  0  0
 38 35  1  0  0  0  0
 38 32  1  1  0  0  0
 40 36  1  0  0  0  0
 40 42  1  0  0  0  0
 41 36  1  0  0  0  0
 41 38  1  0  0  0  0
 42 34  1  0  0  0  0
 42 31  1  0  0  0  0
M  END
>  <MODEL>
2

>  <REMARK>
 VINA RESULT:      -6.8      3.494      5.289
  Name = 
  11 active torsions:
  status: ('A' for Active; 'I' for Inactive)
    1  A    between atoms: C_1  and  C_14
    2  A    between atoms: C_5  and  C_10
    3  A    between atoms: C_9  and  C_20
    4  A    between atoms: C_9  and  N_33
    5  A    between atoms: C_10  and  C_16
    6  A    between atoms: C_11  and  C_12
    7  A    between atoms: C_12  and  N_31
    8  A    between atoms: C_13  and  C_22
    9  A    between atoms: C_17  and  C_42
   10  A    between atoms: C_22  and  C_23
   11  A    between atoms: C_23  and  N_33
                            x       y       z     vdW  Elec       q    Type
                         _______ _______ _______ _____ _____    ______ ____

>  <TORSDO>
F 11

$$$$
=
 OpenBabel11072411003D

 42 46  0  0  1  0  0  0  0  0999 V2000
  160.0020  206.0690  148.4890 O   0  0  0  0  0  0  0  0  0  0  0  0
  160.6920  207.3000  148.4770 C   0  0  0  0  0  2  0  0  0  0  0  0
  161.0350  206.6110  150.8940 C   0  0  1  0  0  3  0  0  0  0  0  0
  160.9860  207.7960  149.9060 C   0  0  1  0  0  3  0  0  0  0  0  0
  161.6510  205.3870  150.2340 C   0  0  0  0  0  2  0  0  0  0  0  0
  160.8670  205.0410  148.9530 C   0  0  2  0  0  3  0  0  0  0  0  0
  162.9090  205.2220  147.7130 F   0  0  0  0  0  0  0  0  0  0  0  0
  161.7560  204.4680  147.8470 C   0  0  0  0  0  0  0  0  0  0  0  0
  162.1010  203.1660  148.1570 F   0  0  0  0  0  0  0  0  0  0  0  0
  161.0670  204.4730  146.6490 F   0  0  0  0  0  0  0  0  0  0  0  0
  162.2350  208.6910  149.9360 C   0  0  2  0  0  3  0  0  0  0  0  0
  162.2540  209.4390  151.1150 O   0  0  0  0  0  1  0  0  0  0  0  0
  162.3140  209.6170  148.7260 C   0  0  0  0  0  2  0  0  0  0  0  0
  161.8500  210.9490  149.0760 N   0  0  0  0  0  2  0  0  0  0  0  0
  162.6900  211.9090  148.3710 C   0  0  0  0  0  2  0  0  0  0  0  0
  160.3900  212.8720  148.1690 C   0  0  2  0  0  3  0  0  0  0  0  0
  161.8650  213.0820  147.8540 C   0  0  2  0  0  3  0  0  0  0  0  0
  161.9190  213.0980  146.3600 C   0  0  0  0  0  2  0  0  0  0  0  0
  160.1470  213.0470  144.6410 C   0  0  0  0  0  1  0  0  0  0  0  0
  159.6670  212.7700  146.9640 O   0  0  0  0  0  0  0  0  0  0  0  0
  160.6070  212.4770  145.9660 C   0  0  2  0  0  3  0  0  0  0  0  0
  159.8550  214.0380  149.0010 C   0  0  2  0  0  3  0  0  0  0  0  0
  160.7450  214.3480  150.0320 O   0  0  0  0  0  1  0  0  0  0  0  0
  158.5130  213.7200  149.5760 C   0  0  0  0  0  0  0  0  0  0  0  0
  158.4110  213.0330  150.6280 O   0  0  0  0  0  1  0  0  0  0  0  0
  157.3670  214.1590  148.9240 O   0  0  0  0  0  0  0  0  0  0  0  0
  161.6970  206.9190  152.2290 C   0  0  0  0  0  2  0  0  0  0  0  0
  160.7570  207.4190  154.5340 C   0  0  0  0  0  0  0  0  0  0  0  0
  159.9850  207.0590  155.4620 O   0  0  0  0  0  0  0  0  0  0  0  0
  160.7580  206.6740  153.3130 N   0  0  0  0  0  2  0  0  0  0  0  0
  158.3270  210.5990  155.2300 S   0  0  0  0  0  0  0  0  0  0  0  0
  159.9880  212.1700  157.2340 O   0  0  0  0  0  1  0  0  0  0  0  0
  161.7430  208.5380  154.7730 C   0  0  2  0  0  3  0  0  0  0  0  0
  159.4590  210.5920  152.7430 O   0  0  0  0  0  1  0  0  0  0  0  0
  159.7190  211.7520  154.8380 C   0  0  1  0  0  0  0  0  0  0  0  0
  161.3590  209.5720  155.8590 C   0  0  2  0  0  0  0  0  0  0  0  0
  159.2370  212.9880  154.0900 C   0  0  0  0  0  1  0  0  0  0  0  0
  160.6950  212.0070  156.0430 C   0  0  2  0  0  3  0  0  0  0  0  0
  160.2440  209.1620  156.5970 O   0  0  0  0  0  1  0  0  0  0  0  0
  161.1720  209.8560  154.3550 C   0  0  2  0  0  3  0  0  0  0  0  0
  161.8410  210.9670  156.2300 C   0  0  0  0  0  2  0  0  0  0  0  0
  159.7850  210.4560  154.0930 C   0  0  1  0  0  0  0  0  0  0  0  0
  1  6  1  0  0  0  0
  2  1  1  0  0  0  0
  2  4  1  0  0  0  0
  3 27  1  1  0  0  0
  4 11  1  6  0  0  0
  4  3  1  0  0  0  0
  5  3  1  0  0  0  0
  6  8  1  6  0  0  0
  6  5  1  0  0  0  0
  7  8  1  0  0  0  0
  8  9  1  0  0  0  0
 10  8  1  0  0  0  0
 11 12  1  1  0  0  0
 13 14  1  0  0  0  0
 13 11  1  0  0  0  0
 15 14  1  0  0  0  0
 16 22  1  1  0  0  0
 17 16  1  0  0  0  0
 17 15  1  6  0  0  0
 18 17  1  0  0  0  0
 20 16  1  0  0  0  0
 21 19  1  6  0  0  0
 21 18  1  0  0  0  0
 21 20  1  0  0  0  0
 22 24  1  0  0  0  0
 22 23  1  1  0  0  0
 24 25  1  0  0  0  0
 26 24  2  0  0  0  0
 27 30  1  0  0  0  0
 28 29  2  0  0  0  0
 30 28  1  0  0  0  0
 33 28  1  1  0  0  0
 33 36  1  0  0  0  0
 34 42  1  0  0  0  0
 35 37  1  6  0  0  0
 35 31  1  0  0  0  0
 35 38  1  0  0  0  0
 36 41  1  0  0  0  0
 36 39  1  1  0  0  0
 38 41  1  0  0  0  0
 38 32  1  1  0  0  0
 40 33  1  0  0  0  0
 40 36  1  0  0  0  0
 42 40  1  0  0  0  0
 42 35  1  0  0  0  0
 42 31  1  0  0  0  0
M  END
>  <MODEL>
3

>  <REMARK>
 VINA RESULT:      -6.8      3.314      6.957
  Name = 
  11 active torsions:
  status: ('A' for Active; 'I' for Inactive)
    1  A    between atoms: C_1  and  C_14
    2  A    between atoms: C_5  and  C_10
    3  A    between atoms: C_9  and  C_20
    4  A    between atoms: C_9  and  N_33
    5  A    between atoms: C_10  and  C_16
    6  A    between atoms: C_11  and  C_12
    7  A    between atoms: C_12  and  N_31
    8  A    between atoms: C_13  and  C_22
    9  A    between atoms: C_17  and  C_42
   10  A    between atoms: C_22  and  C_23
   11  A    between atoms: C_23  and  N_33
                            x       y       z     vdW  Elec       q    Type
                         _______ _______ _______ _____ _____    ______ ____

>  <TORSDO>
F 11

$$$$
=
 OpenBabel11072411003D

 42 46  0  0  1  0  0  0  0  0999 V2000
  161.3620  213.8650  146.7300 O   0  0  0  0  0  0  0  0  0  0  0  0
  161.8400  212.6590  147.2840 C   0  0  0  0  0  2  0  0  0  0  0  0
  160.5370  213.5790  149.2570 C   0  0  1  0  0  3  0  0  0  0  0  0
  161.6800  212.6390  148.8170 C   0  0  1  0  0  3  0  0  0  0  0  0
  159.4020  213.5540  148.2450 C   0  0  0  0  0  2  0  0  0  0  0  0
  159.9460  213.9170  146.8480 C   0  0  2  0  0  3  0  0  0  0  0  0
  160.0860  212.9670  144.6530 F   0  0  0  0  0  0  0  0  0  0  0  0
  159.2270  213.1770  145.7180 C   0  0  0  0  0  0  0  0  0  0  0  0
  158.7730  211.9560  146.1790 F   0  0  0  0  0  0  0  0  0  0  0  0
  158.1450  213.9220  145.2900 F   0  0  0  0  0  0  0  0  0  0  0  0
  161.5480  211.2010  149.3420 C   0  0  2  0  0  3  0  0  0  0  0  0
  162.3340  211.0400  150.4850 O   0  0  0  0  0  1  0  0  0  0  0  0
  161.9310  210.1630  148.2920 C   0  0  0  0  0  2  0  0  0  0  0  0
  162.3140  208.9140  148.9290 N   0  0  0  0  0  2  0  0  0  0  0  0
  161.2990  207.9210  148.5990 C   0  0  0  0  0  2  0  0  0  0  0  0
  160.9480  205.5450  147.9000 C   0  0  2  0  0  3  0  0  0  0  0  0
  161.8890  206.5150  148.6010 C   0  0  2  0  0  3  0  0  0  0  0  0
  161.9480  206.0120  150.0080 C   0  0  0  0  0  2  0  0  0  0  0  0
  161.0150  203.9920  151.0820 C   0  0  0  0  0  1  0  0  0  0  0  0
  160.5030  204.5780  148.8240 O   0  0  0  0  0  0  0  0  0  0  0  0
  160.7460  205.1110  150.0980 C   0  0  2  0  0  3  0  0  0  0  0  0
  161.6640  204.8630  146.7340 C   0  0  2  0  0  3  0  0  0  0  0  0
  163.0310  205.1490  146.7690 O   0  0  0  0  0  1  0  0  0  0  0  0
  161.0930  205.2940  145.4220 C   0  0  0  0  0  0  0  0  0  0  0  0
  161.5540  204.8380  144.3400 O   0  0  0  0  0  0  0  0  0  0  0  0
  160.0680  206.2310  145.3960 O   0  0  0  0  0  1  0  0  0  0  0  0
  160.0290  213.3490  150.6720 C   0  0  0  0  0  2  0  0  0  0  0  0
  157.8580  213.9660  151.8350 C   0  0  0  0  0  0  0  0  0  0  0  0
  156.5990  213.9290  151.8130 O   0  0  0  0  0  0  0  0  0  0  0  0
  158.5800  213.4750  150.7020 N   0  0  0  0  0  2  0  0  0  0  0  0
  156.1580  211.6180  154.6810 S   0  0  0  0  0  0  0  0  0  0  0  0
  158.5020  211.2130  156.5750 O   0  0  0  0  0  1  0  0  0  0  0  0
  158.5710  214.4060  153.0910 C   0  0  2  0  0  3  0  0  0  0  0  0
  155.2640  214.2010  154.6940 O   0  0  0  0  0  1  0  0  0  0  0  0
  156.7250  212.7920  155.9930 C   0  0  1  0  0  0  0  0  0  0  0  0
  158.8990  213.2960  154.1200 C   0  0  2  0  0  0  0  0  0  0  0  0
  155.6970  212.9370  157.1070 C   0  0  0  0  0  1  0  0  0  0  0  0
  158.2130  212.5720  156.4460 C   0  0  2  0  0  3  0  0  0  0  0  0
  158.6630  212.0190  153.6010 O   0  0  0  0  0  1  0  0  0  0  0  0
  157.6950  214.2440  154.2930 C   0  0  2  0  0  3  0  0  0  0  0  0
  159.3040  213.2790  155.5870 C   0  0  0  0  0  2  0  0  0  0  0  0
  156.4410  213.4510  154.6800 C   0  0  1  0  0  0  0  0  0  0  0  0
  1  6  1  0  0  0  0
  1  2  1  0  0  0  0
  2  4  1  0  0  0  0
  3 27  1  1  0  0  0
  4  3  1  0  0  0  0
  4 11  1  6  0  0  0
  5  3  1  0  0  0  0
  6  8  1  6  0  0  0
  6  5  1  0  0  0  0
  7  8  1  0  0  0  0
  8  9  1  0  0  0  0
 10  8  1  0  0  0  0
 11 12  1  1  0  0  0
 13 14  1  0  0  0  0
 13 11  1  0  0  0  0
 15 14  1  0  0  0  0
 16 22  1  6  0  0  0
 16 17  1  0  0  0  0
 16 20  1  0  0  0  0
 17 15  1  1  0  0  0
 17 18  1  0  0  0  0
 18 21  1  0  0  0  0
 20 21  1  0  0  0  0
 21 19  1  1  0  0  0
 22 23  1  6  0  0  0
 24 22  1  0  0  0  0
 25 24  2  0  0  0  0
 26 24  1  0  0  0  0
 27 30  1  0  0  0  0
 29 28  2  0  0  0  0
 30 28  1  0  0  0  0
 31 35  1  0  0  0  0
 33 28  1  6  0  0  0
 33 36  1  0  0  0  0
 33 40  1  0  0  0  0
 35 38  1  0  0  0  0
 35 37  1  1  0  0  0
 36 39  1  6  0  0  0
 36 40  1  0  0  0  0
 36 41  1  0  0  0  0
 38 32  1  6  0  0  0
 40 42  1  0  0  0  0
 41 38  1  0  0  0  0
 42 31  1  0  0  0  0
 42 34  1  0  0  0  0
 42 35  1  0  0  0  0
M  END
>  <MODEL>
4

>  <REMARK>
 VINA RESULT:      -6.7      1.046      2.277
  Name = 
  11 active torsions:
  status: ('A' for Active; 'I' for Inactive)
    1  A    between atoms: C_1  and  C_14
    2  A    between atoms: C_5  and  C_10
    3  A    between atoms: C_9  and  C_20
    4  A    between atoms: C_9  and  N_33
    5  A    between atoms: C_10  and  C_16
    6  A    between atoms: C_11  and  C_12
    7  A    between atoms: C_12  and  N_31
    8  A    between atoms: C_13  and  C_22
    9  A    between atoms: C_17  and  C_42
   10  A    between atoms: C_22  and  C_23
   11  A    between atoms: C_23  and  N_33
                            x       y       z     vdW  Elec       q    Type
                         _______ _______ _______ _____ _____    ______ ____

>  <TORSDO>
F 11

$$$$
=
 OpenBabel11072411003D

 42 46  0  0  1  0  0  0  0  0999 V2000
  163.3770  207.4750  150.8990 O   0  0  0  0  0  0  0  0  0  0  0  0
  162.8250  206.1820  151.0170 C   0  0  0  0  0  2  0  0  0  0  0  0
  161.4330  207.4270  152.7340 C   0  0  1  0  0  3  0  0  0  0  0  0
  161.9670  206.0490  152.2900 C   0  0  1  0  0  3  0  0  0  0  0  0
  161.1020  208.2890  151.5250 C   0  0  0  0  0  2  0  0  0  0  0  0
  162.3450  208.4120  150.6210 C   0  0  2  0  0  3  0  0  0  0  0  0
  161.8610  209.8040  148.7320 F   0  0  0  0  0  0  0  0  0  0  0  0
  161.9940  208.4860  149.1340 C   0  0  0  0  0  0  0  0  0  0  0  0
  162.9950  207.8870  148.3920 F   0  0  0  0  0  0  0  0  0  0  0  0
  160.8080  207.8170  148.9030 F   0  0  0  0  0  0  0  0  0  0  0  0
  160.8760  204.9800  152.1140 C   0  0  2  0  0  3  0  0  0  0  0  0
  161.3870  203.7230  152.4410 O   0  0  0  0  0  1  0  0  0  0  0  0
  160.3050  204.9620  150.7000 C   0  0  0  0  0  2  0  0  0  0  0  0
  160.9640  203.9440  149.9000 N   0  0  0  0  0  2  0  0  0  0  0  0
  161.5600  204.6050  148.7450 C   0  0  0  0  0  2  0  0  0  0  0  0
  161.8530  203.2000  146.6960 C   0  0  2  0  0  3  0  0  0  0  0  0
  160.9120  204.1310  147.4490 C   0  0  2  0  0  3  0  0  0  0  0  0
  160.7450  205.2990  146.5300 C   0  0  0  0  0  2  0  0  0  0  0  0
  161.5230  205.7130  144.2230 C   0  0  0  0  0  1  0  0  0  0  0  0
  162.1990  203.7860  145.4620 O   0  0  0  0  0  0  0  0  0  0  0  0
  161.9000  205.1510  145.5780 C   0  0  2  0  0  3  0  0  0  0  0  0
  161.1830  201.8460  146.4620 C   0  0  2  0  0  3  0  0  0  0  0  0
  160.0240  202.0030  145.6990 O   0  0  0  0  0  1  0  0  0  0  0  0
  160.8470  201.1790  147.7560 C   0  0  0  0  0  0  0  0  0  0  0  0
  159.7200  201.3530  148.2950 O   0  0  0  0  0  0  0  0  0  0  0  0
  161.7980  200.3870  148.3860 O   0  0  0  0  0  1  0  0  0  0  0  0
  160.2750  207.3780  153.7200 C   0  0  0  0  0  2  0  0  0  0  0  0
  160.7450  209.3730  155.2180 C   0  0  0  0  0  0  0  0  0  0  0  0
  161.2220  209.7880  156.3080 O   0  0  0  0  0  0  0  0  0  0  0  0
  160.6830  207.9620  154.9880 N   0  0  0  0  0  2  0  0  0  0  0  0
  158.0840  211.7790  157.1240 S   0  0  0  0  0  0  0  0  0  0  0  0
  158.6500  214.4480  155.7820 O   0  0  0  0  0  1  0  0  0  0  0  0
  160.3680  210.3620  154.1420 C   0  0  2  0  0  3  0  0  0  0  0  0
  156.9310  209.9920  155.4080 O   0  0  0  0  0  1  0  0  0  0  0  0
  157.4260  212.3490  155.4930 C   0  0  1  0  0  0  0  0  0  0  0  0
  160.1480  211.8250  154.5980 C   0  0  2  0  0  0  0  0  0  0  0  0
  155.9170  212.5540  155.5310 C   0  0  0  0  0  1  0  0  0  0  0  0
  158.2660  213.5000  154.8320 C   0  0  2  0  0  3  0  0  0  0  0  0
  160.5540  212.0240  155.9220 O   0  0  0  0  0  1  0  0  0  0  0  0
  158.9720  210.8630  154.3350 C   0  0  2  0  0  3  0  0  0  0  0  0
  159.4940  213.0540  153.9840 C   0  0  0  0  0  2  0  0  0  0  0  0
  157.9470  210.9460  155.4730 C   0  0  1  0  0  0  0  0  0  0  0  0
  1  2  1  0  0  0  0
  2  4  1  0  0  0  0
  3 27  1  6  0  0  0
  4 11  1  6  0  0  0
  4  3  1  0  0  0  0
  5  3  1  0  0  0  0
  6  8  1  6  0  0  0
  6  1  1  0  0  0  0
  6  5  1  0  0  0  0
  7  8  1  0  0  0  0
  9  8  1  0  0  0  0
 10  8  1  0  0  0  0
 11 12  1  6  0  0  0
 13 11  1  0  0  0  0
 14 13  1  0  0  0  0
 15 14  1  0  0  0  0
 16 22  1  6  0  0  0
 16 17  1  0  0  0  0
 17 15  1  1  0  0  0
 18 17  1  0  0  0  0
 20 21  1  0  0  0  0
 20 16  1  0  0  0  0
 21 19  1  6  0  0  0
 21 18  1  0  0  0  0
 22 23  1  6  0  0  0
 22 24  1  0  0  0  0
 24 25  2  0  0  0  0
 24 26  1  0  0  0  0
 27 30  1  0  0  0  0
 28 29  2  0  0  0  0
 30 28  1  0  0  0  0
 33 40  1  0  0  0  0
 33 36  1  0  0  0  0
 33 28  1  1  0  0  0
 34 42  1  0  0  0  0
 35 37  1  6  0  0  0
 35 31  1  0  0  0  0
 36 39  1  1  0  0  0
 38 35  1  0  0  0  0
 38 32  1  1  0  0  0
 40 36  1  0  0  0  0
 40 42  1  0  0  0  0
 41 36  1  0  0  0  0
 41 38  1  0  0  0  0
 42 35  1  0  0  0  0
 42 31  1  0  0  0  0
M  END
>  <MODEL>
5

>  <REMARK>
 VINA RESULT:      -5.7      3.444      4.872
  Name = 
  11 active torsions:
  status: ('A' for Active; 'I' for Inactive)
    1  A    between atoms: C_1  and  C_14
    2  A    between atoms: C_5  and  C_10
    3  A    between atoms: C_9  and  C_20
    4  A    between atoms: C_9  and  N_33
    5  A    between atoms: C_10  and  C_16
    6  A    between atoms: C_11  and  C_12
    7  A    between atoms: C_12  and  N_31
    8  A    between atoms: C_13  and  C_22
    9  A    between atoms: C_17  and  C_42
   10  A    between atoms: C_22  and  C_23
   11  A    between atoms: C_23  and  N_33
                            x       y       z     vdW  Elec       q    Type
                         _______ _______ _______ _____ _____    ______ ____

>  <TORSDO>
F 11

$$$$
=
 OpenBabel11072411003D

 42 46  0  0  1  0  0  0  0  0999 V2000
  159.7250  204.4810  151.2180 O   0  0  0  0  0  0  0  0  0  0  0  0
  160.2670  205.4060  150.3020 C   0  0  0  0  0  2  0  0  0  0  0  0
  161.0390  206.4310  152.4900 C   0  0  1  0  0  3  0  0  0  0  0  0
  160.7140  206.7020  151.0050 C   0  0  1  0  0  3  0  0  0  0  0  0
  161.6800  205.0620  152.6580 C   0  0  0  0  0  2  0  0  0  0  0  0
  160.7560  203.9820  152.0600 C   0  0  2  0  0  3  0  0  0  0  0  0
  160.6530  201.8800  150.9150 F   0  0  0  0  0  0  0  0  0  0  0  0
  161.5280  202.8210  151.4290 C   0  0  0  0  0  0  0  0  0  0  0  0
  162.3300  203.2980  150.4090 F   0  0  0  0  0  0  0  0  0  0  0  0
  162.3290  202.2240  152.3830 F   0  0  0  0  0  0  0  0  0  0  0  0
  161.8480  207.3910  150.2300 C   0  0  2  0  0  3  0  0  0  0  0  0
  162.2970  208.5070  150.9380 O   0  0  0  0  0  1  0  0  0  0  0  0
  161.4230  207.8000  148.8230 C   0  0  0  0  0  2  0  0  0  0  0  0
  162.3370  207.2500  147.8370 N   0  0  0  0  0  2  0  0  0  0  0  0
  162.3440  205.8010  147.9990 C   0  0  0  0  0  2  0  0  0  0  0  0
  161.7780  203.8160  146.5850 C   0  0  2  0  0  3  0  0  0  0  0  0
  161.2770  205.1480  147.1280 C   0  0  2  0  0  3  0  0  0  0  0  0
  161.0650  205.9820  145.9050 C   0  0  0  0  0  2  0  0  0  0  0  0
  161.2070  205.4530  143.4970 C   0  0  0  0  0  1  0  0  0  0  0  0
  161.8530  203.8860  145.1790 O   0  0  0  0  0  0  0  0  0  0  0  0
  161.8510  205.2490  144.8530 C   0  0  2  0  0  3  0  0  0  0  0  0
  160.8370  202.6860  147.0030 C   0  0  2  0  0  3  0  0  0  0  0  0
  161.4080  201.9350  148.0320 O   0  0  0  0  0  1  0  0  0  0  0  0
  160.5180  201.7940  145.8470 C   0  0  0  0  0  0  0  0  0  0  0  0
  159.8270  202.2180  144.8810 O   0  0  0  0  0  0  0  0  0  0  0  0
  160.9590  200.4780  145.8560 O   0  0  0  0  0  1  0  0  0  0  0  0
  161.8540  207.5180  153.1750 C   0  0  0  0  0  2  0  0  0  0  0  0
  160.4320  208.9630  154.7020 C   0  0  0  0  0  0  0  0  0  0  0  0
  160.0690  209.2170  155.8820 O   0  0  0  0  0  0  0  0  0  0  0  0
  161.2710  207.8280  154.4710 N   0  0  0  0  0  2  0  0  0  0  0  0
  158.5780  211.9820  156.6910 S   0  0  0  0  0  0  0  0  0  0  0  0
  159.4070  214.3770  155.0110 O   0  0  0  0  0  1  0  0  0  0  0  0
  160.0810  209.9210  153.5890 C   0  0  2  0  0  3  0  0  0  0  0  0
  156.8700  210.3270  155.3440 O   0  0  0  0  0  1  0  0  0  0  0  0
  157.7910  212.5420  155.1130 C   0  0  1  0  0  0  0  0  0  0  0  0
  160.2030  211.4290  153.9160 C   0  0  2  0  0  0  0  0  0  0  0  0
  156.3700  213.0390  155.3350 C   0  0  0  0  0  1  0  0  0  0  0  0
  158.7150  213.4520  154.2270 C   0  0  2  0  0  3  0  0  0  0  0  0
  160.8370  211.6460  155.1440 O   0  0  0  0  0  1  0  0  0  0  0  0
  158.8450  210.6980  153.9170 C   0  0  2  0  0  3  0  0  0  0  0  0
  159.6970  212.7110  153.2710 C   0  0  0  0  0  2  0  0  0  0  0  0
  158.0400  211.0670  155.1700 C   0  0  1  0  0  0  0  0  0  0  0  0
  1  6  1  0  0  0  0
  2  4  1  0  0  0  0
  2  1  1  0  0  0  0
  3  5  1  0  0  0  0
  3 27  1  6  0  0  0
  4 11  1  6  0  0  0
  4  3  1  0  0  0  0
  6  8  1  6  0  0  0
  6  5  1  0  0  0  0
  7  8  1  0  0  0  0
  8 10  1  0  0  0  0
  9  8  1  0  0  0  0
 11 12  1  1  0  0  0
 13 11  1  0  0  0  0
 14 15  1  0  0  0  0
 14 13  1  0  0  0  0
 16 22  1  6  0  0  0
 16 17  1  0  0  0  0
 17 15  1  1  0  0  0
 18 17  1  0  0  0  0
 20 16  1  0  0  0  0
 21 19  1  6  0  0  0
 21 20  1  0  0  0  0
 21 18  1  0  0  0  0
 22 23  1  1  0  0  0
 24 26  1  0  0  0  0
 24 22  1  0  0  0  0
 25 24  2  0  0  0  0
 27 30  1  0  0  0  0
 28 29  2  0  0  0  0
 30 28  1  0  0  0  0
 33 36  1  0  0  0  0
 33 40  1  0  0  0  0
 33 28  1  1  0  0  0
 35 42  1  0  0  0  0
 35 37  1  1  0  0  0
 35 31  1  0  0  0  0
 36 40  1  0  0  0  0
 36 39  1  1  0  0  0
 38 32  1  1  0  0  0
 38 35  1  0  0  0  0
 40 42  1  0  0  0  0
 41 36  1  0  0  0  0
 41 38  1  0  0  0  0
 42 34  1  0  0  0  0
 42 31  1  0  0  0  0
M  END
>  <MODEL>
6

>  <REMARK>
 VINA RESULT:      -5.4      4.212      5.960
  Name = 
  11 active torsions:
  status: ('A' for Active; 'I' for Inactive)
    1  A    between atoms: C_1  and  C_14
    2  A    between atoms: C_5  and  C_10
    3  A    between atoms: C_9  and  C_20
    4  A    between atoms: C_9  and  N_33
    5  A    between atoms: C_10  and  C_16
    6  A    between atoms: C_11  and  C_12
    7  A    between atoms: C_12  and  N_31
    8  A    between atoms: C_13  and  C_22
    9  A    between atoms: C_17  and  C_42
   10  A    between atoms: C_22  and  C_23
   11  A    between atoms: C_23  and  N_33
                            x       y       z     vdW  Elec       q    Type
                         _______ _______ _______ _____ _____    ______ ____

>  <TORSDO>
F 11

$$$$
=
 OpenBabel11072411003D

 42 46  0  0  1  0  0  0  0  0999 V2000
  163.4130  208.0400  150.5510 O   0  0  0  0  0  0  0  0  0  0  0  0
  162.7230  206.8990  151.0110 C   0  0  0  0  0  2  0  0  0  0  0  0
  161.8150  208.6500  152.6050 C   0  0  1  0  0  3  0  0  0  0  0  0
  162.0800  207.1450  152.3900 C   0  0  1  0  0  3  0  0  0  0  0  0
  161.4020  209.3150  151.3010 C   0  0  0  0  0  2  0  0  0  0  0  0
  162.4810  209.0640  150.2290 C   0  0  2  0  0  3  0  0  0  0  0  0
  160.7870  208.0910  148.8400 F   0  0  0  0  0  0  0  0  0  0  0  0
  161.8980  208.9160  148.8210 C   0  0  0  0  0  0  0  0  0  0  0  0
  161.5300  210.1590  148.3390 F   0  0  0  0  0  0  0  0  0  0  0  0
  162.8520  208.3770  147.9790 F   0  0  0  0  0  0  0  0  0  0  0  0
  160.8450  206.2540  152.5930 C   0  0  2  0  0  3  0  0  0  0  0  0
  160.1250  206.6880  153.7080 O   0  0  0  0  0  1  0  0  0  0  0  0
  161.2110  204.7810  152.7470 C   0  0  0  0  0  2  0  0  0  0  0  0
  160.5120  203.9780  151.7580 N   0  0  0  0  0  2  0  0  0  0  0  0
  160.3810  204.7810  150.5490 C   0  0  0  0  0  2  0  0  0  0  0  0
  160.6310  204.3130  148.1040 C   0  0  2  0  0  3  0  0  0  0  0  0
  161.3260  204.2870  149.4590 C   0  0  2  0  0  3  0  0  0  0  0  0
  161.6240  202.8400  149.6880 C   0  0  0  0  0  2  0  0  0  0  0  0
  161.3520  200.8490  148.2520 C   0  0  0  0  0  1  0  0  0  0  0  0
  160.5340  202.9980  147.6060 O   0  0  0  0  0  0  0  0  0  0  0  0
  160.7180  202.1470  148.7060 C   0  0  2  0  0  3  0  0  0  0  0  0
  161.4150  205.1850  147.1240 C   0  0  2  0  0  3  0  0  0  0  0  0
  160.5530  206.0500  146.4460 O   0  0  0  0  0  1  0  0  0  0  0  0
  162.1650  204.3500  146.1380 C   0  0  0  0  0  0  0  0  0  0  0  0
  163.4250  204.3890  146.0900 O   0  0  0  0  0  1  0  0  0  0  0  0
  161.4650  203.5490  145.2450 O   0  0  0  0  0  0  0  0  0  0  0  0
  160.8420  208.9740  153.7300 C   0  0  0  0  0  2  0  0  0  0  0  0
  160.4190  210.8970  155.3320 C   0  0  0  0  0  0  0  0  0  0  0  0
  160.8000  212.0190  155.7610 O   0  0  0  0  0  0  0  0  0  0  0  0
  161.2440  210.2070  154.3890 N   0  0  0  0  0  2  0  0  0  0  0  0
  158.0040  214.0840  154.6120 S   0  0  0  0  0  0  0  0  0  0  0  0
  155.4490  212.6890  153.7360 O   0  0  0  0  0  1  0  0  0  0  0  0
  159.0580  210.3710  155.7190 C   0  0  2  0  0  3  0  0  0  0  0  0
  158.5390  213.6730  157.2610 O   0  0  0  0  0  1  0  0  0  0  0  0
  156.7130  213.3590  155.7210 C   0  0  1  0  0  0  0  0  0  0  0  0
  157.8670  210.8320  154.8440 C   0  0  2  0  0  0  0  0  0  0  0  0
  155.9920  214.4310  156.5260 C   0  0  0  0  0  1  0  0  0  0  0  0
  155.8030  212.2850  155.0240 C   0  0  2  0  0  3  0  0  0  0  0  0
  158.2960  211.5000  153.6920 O   0  0  0  0  0  1  0  0  0  0  0  0
  158.1750  211.4720  156.2130 C   0  0  2  0  0  3  0  0  0  0  0  0
  156.3540  210.8280  155.0030 C   0  0  0  0  0  2  0  0  0  0  0  0
  158.1120  213.0020  156.1150 C   0  0  1  0  0  0  0  0  0  0  0  0
  1  2  1  0  0  0  0
  2  4  1  0  0  0  0
  3 27  1  1  0  0  0
  4 11  1  6  0  0  0
  4  3  1  0  0  0  0
  5  3  1  0  0  0  0
  6  8  1  6  0  0  0
  6  1  1  0  0  0  0
  6  5  1  0  0  0  0
  8  7  1  0  0  0  0
  9  8  1  0  0  0  0
 10  8  1  0  0  0  0
 11 13  1  0  0  0  0
 11 12  1  1  0  0  0
 14 13  1  0  0  0  0
 15 14  1  0  0  0  0
 16 22  1  6  0  0  0
 16 17  1  0  0  0  0
 17 18  1  0  0  0  0
 17 15  1  1  0  0  0
 20 16  1  0  0  0  0
 20 21  1  0  0  0  0
 21 19  1  6  0  0  0
 21 18  1  0  0  0  0
 22 23  1  6  0  0  0
 24 22  1  0  0  0  0
 25 24  1  0  0  0  0
 26 24  2  0  0  0  0
 27 30  1  0  0  0  0
 28 29  2  0  0  0  0
 30 28  1  0  0  0  0
 31 35  1  0  0  0  0
 31 42  1  0  0  0  0
 33 28  1  6  0  0  0
 33 40  1  0  0  0  0
 35 42  1  0  0  0  0
 35 37  1  1  0  0  0
 36 39  1  6  0  0  0
 36 41  1  0  0  0  0
 36 33  1  0  0  0  0
 36 40  1  0  0  0  0
 38 32  1  6  0  0  0
 38 35  1  0  0  0  0
 41 38  1  0  0  0  0
 42 40  1  0  0  0  0
 42 34  1  0  0  0  0
M  END
>  <MODEL>
7

>  <REMARK>
 VINA RESULT:      -5.1      3.225      4.624
  Name = 
  11 active torsions:
  status: ('A' for Active; 'I' for Inactive)
    1  A    between atoms: C_1  and  C_14
    2  A    between atoms: C_5  and  C_10
    3  A    between atoms: C_9  and  C_20
    4  A    between atoms: C_9  and  N_33
    5  A    between atoms: C_10  and  C_16
    6  A    between atoms: C_11  and  C_12
    7  A    between atoms: C_12  and  N_31
    8  A    between atoms: C_13  and  C_22
    9  A    between atoms: C_17  and  C_42
   10  A    between atoms: C_22  and  C_23
   11  A    between atoms: C_23  and  N_33
                            x       y       z     vdW  Elec       q    Type
                         _______ _______ _______ _____ _____    ______ ____

>  <TORSDO>
F 11

$$$$
=
 OpenBabel11072411003D

 42 46  0  0  1  0  0  0  0  0999 V2000
  159.7140  205.6310  149.0800 O   0  0  0  0  0  0  0  0  0  0  0  0
  160.5670  206.4450  148.3050 C   0  0  0  0  0  2  0  0  0  0  0  0
  160.8620  207.5190  150.5840 C   0  0  1  0  0  3  0  0  0  0  0  0
  160.9560  207.7320  149.0580 C   0  0  1  0  0  3  0  0  0  0  0  0
  161.2880  206.1080  150.9570 C   0  0  0  0  0  2  0  0  0  0  0  0
  160.4370  205.0870  150.1760 C   0  0  2  0  0  3  0  0  0  0  0  0
  160.3500  202.8210  149.4010 F   0  0  0  0  0  0  0  0  0  0  0  0
  161.2160  203.8230  149.8050 C   0  0  0  0  0  0  0  0  0  0  0  0
  162.0930  204.1040  148.7750 F   0  0  0  0  0  0  0  0  0  0  0  0
  161.9390  203.3860  150.8990 F   0  0  0  0  0  0  0  0  0  0  0  0
  162.3170  208.2630  148.5810 C   0  0  2  0  0  3  0  0  0  0  0  0
  163.3270  207.3670  148.9380 O   0  0  0  0  0  1  0  0  0  0  0  0
  162.6250  209.6490  149.1370 C   0  0  0  0  0  2  0  0  0  0  0  0
  161.7730  210.6470  148.5130 N   0  0  0  0  0  2  0  0  0  0  0  0
  161.7170  211.8000  149.4030 C   0  0  0  0  0  2  0  0  0  0  0  0
  160.2070  212.8100  147.6830 C   0  0  2  0  0  3  0  0  0  0  0  0
  161.3680  213.0690  148.6340 C   0  0  2  0  0  3  0  0  0  0  0  0
  162.5060  213.4210  147.7300 C   0  0  0  0  0  2  0  0  0  0  0  0
  162.6290  213.7810  145.2890 C   0  0  0  0  0  1  0  0  0  0  0  0
  160.6430  212.9910  146.3550 O   0  0  0  0  0  0  0  0  0  0  0  0
  162.0430  212.9200  146.3890 C   0  0  2  0  0  3  0  0  0  0  0  0
  159.0510  213.7640  147.9880 C   0  0  2  0  0  3  0  0  0  0  0  0
  159.2110  214.3320  149.2530 O   0  0  0  0  0  1  0  0  0  0  0  0
  157.7360  213.0580  147.9150 C   0  0  0  0  0  0  0  0  0  0  0  0
  156.8950  213.1710  148.8480 O   0  0  0  0  0  1  0  0  0  0  0  0
  157.4530  212.2460  146.8250 O   0  0  0  0  0  0  0  0  0  0  0  0
  161.5870  208.5620  151.4210 C   0  0  0  0  0  2  0  0  0  0  0  0
  160.3240  209.3310  153.4850 C   0  0  0  0  0  0  0  0  0  0  0  0
  160.1460  209.1990  154.7260 O   0  0  0  0  0  0  0  0  0  0  0  0
  161.2070  208.4240  152.8190 N   0  0  0  0  0  2  0  0  0  0  0  0
  159.0550  211.6860  156.5420 S   0  0  0  0  0  0  0  0  0  0  0  0
  159.4460  214.4520  155.3440 O   0  0  0  0  0  1  0  0  0  0  0  0
  159.7090  210.5040  152.7610 C   0  0  2  0  0  3  0  0  0  0  0  0
  157.0500  210.3050  155.3000 O   0  0  0  0  0  1  0  0  0  0  0  0
  157.8980  212.5590  155.3930 C   0  0  1  0  0  0  0  0  0  0  0  0
  159.9200  211.8970  153.4030 C   0  0  2  0  0  0  0  0  0  0  0  0
  156.5820  212.9100  156.0740 C   0  0  0  0  0  1  0  0  0  0  0  0
  158.5730  213.7030  154.5550 C   0  0  2  0  0  3  0  0  0  0  0  0
  160.8450  211.8510  154.4510 O   0  0  0  0  0  1  0  0  0  0  0  0
  158.6020  211.1110  153.5630 C   0  0  2  0  0  3  0  0  0  0  0  0
  159.2750  213.2650  153.2350 C   0  0  0  0  0  2  0  0  0  0  0  0
  158.1430  211.1280  155.0260 C   0  0  1  0  0  0  0  0  0  0  0  0
  1  6  1  0  0  0  0
  2  4  1  0  0  0  0
  2  1  1  0  0  0  0
  3  5  1  0  0  0  0
  3 27  1  1  0  0  0
  4 11  1  1  0  0  0
  4  3  1  0  0  0  0
  6  8  1  6  0  0  0
  6  5  1  0  0  0  0
  7  8  1  0  0  0  0
  8 10  1  0  0  0  0
  9  8  1  0  0  0  0
 11 12  1  1  0  0  0
 11 13  1  0  0  0  0
 14 13  1  0  0  0  0
 14 15  1  0  0  0  0
 16 22  1  1  0  0  0
 16 17  1  0  0  0  0
 17 15  1  6  0  0  0
 18 17  1  0  0  0  0
 20 21  1  0  0  0  0
 20 16  1  0  0  0  0
 21 19  1  6  0  0  0
 21 18  1  0  0  0  0
 22 23  1  1  0  0  0
 24 22  1  0  0  0  0
 24 25  1  0  0  0  0
 26 24  2  0  0  0  0
 27 30  1  0  0  0  0
 28 29  2  0  0  0  0
 30 28  1  0  0  0  0
 33 36  1  0  0  0  0
 33 28  1  1  0  0  0
 33 40  1  0  0  0  0
 35 37  1  1  0  0  0
 35 31  1  0  0  0  0
 36 40  1  0  0  0  0
 36 39  1  1  0  0  0
 38 32  1  1  0  0  0
 38 35  1  0  0  0  0
 40 42  1  0  0  0  0
 41 36  1  0  0  0  0
 41 38  1  0  0  0  0
 42 34  1  0  0  0  0
 42 35  1  0  0  0  0
 42 31  1  0  0  0  0
M  END
>  <MODEL>
8

>  <REMARK>
 VINA RESULT:      -5.0      3.367      6.811
  Name = 
  11 active torsions:
  status: ('A' for Active; 'I' for Inactive)
    1  A    between atoms: C_1  and  C_14
    2  A    between atoms: C_5  and  C_10
    3  A    between atoms: C_9  and  C_20
    4  A    between atoms: C_9  and  N_33
    5  A    between atoms: C_10  and  C_16
    6  A    between atoms: C_11  and  C_12
    7  A    between atoms: C_12  and  N_31
    8  A    between atoms: C_13  and  C_22
    9  A    between atoms: C_17  and  C_42
   10  A    between atoms: C_22  and  C_23
   11  A    between atoms: C_23  and  N_33
                            x       y       z     vdW  Elec       q    Type
                         _______ _______ _______ _____ _____    ______ ____

>  <TORSDO>
F 11

$$$$
=
 OpenBabel11072411003D

 42 46  0  0  1  0  0  0  0  0999 V2000
  161.0080  214.3560  146.2720 O   0  0  0  0  0  0  0  0  0  0  0  0
  161.8250  213.5310  147.0730 C   0  0  0  0  0  2  0  0  0  0  0  0
  159.6180  213.3130  148.3040 C   0  0  1  0  0  3  0  0  0  0  0  0
  161.1530  213.2090  148.4220 C   0  0  1  0  0  3  0  0  0  0  0  0
  159.1500  212.8280  146.9410 C   0  0  0  0  0  2  0  0  0  0  0  0
  159.8720  213.6220  145.8330 C   0  0  2  0  0  3  0  0  0  0  0  0
  159.3530  213.1940  143.5340 F   0  0  0  0  0  0  0  0  0  0  0  0
  160.1530  212.7830  144.5850 C   0  0  0  0  0  0  0  0  0  0  0  0
  161.4800  212.9200  144.2230 F   0  0  0  0  0  0  0  0  0  0  0  0
  159.9010  211.4510  144.8550 F   0  0  0  0  0  0  0  0  0  0  0  0
  161.6500  211.8680  148.9840 C   0  0  2  0  0  3  0  0  0  0  0  0
  163.0070  211.9600  149.2990 O   0  0  0  0  0  1  0  0  0  0  0  0
  161.4140  210.7120  148.0170 C   0  0  0  0  0  2  0  0  0  0  0  0
  162.2610  209.5820  148.3590 N   0  0  0  0  0  2  0  0  0  0  0  0
  161.3970  208.5070  148.8290 C   0  0  0  0  0  2  0  0  0  0  0  0
  160.7380  206.4550  147.5590 C   0  0  2  0  0  3  0  0  0  0  0  0
  161.8680  207.1560  148.3010 C   0  0  2  0  0  3  0  0  0  0  0  0
  162.1600  206.2540  149.4560 C   0  0  0  0  0  2  0  0  0  0  0  0
  161.3030  204.0190  150.0670 C   0  0  0  0  0  1  0  0  0  0  0  0
  160.4080  205.2620  148.2340 O   0  0  0  0  0  0  0  0  0  0  0  0
  160.9330  205.3860  149.5280 C   0  0  2  0  0  3  0  0  0  0  0  0
  161.1600  206.1430  146.1240 C   0  0  2  0  0  3  0  0  0  0  0  0
  160.0940  206.3550  145.2470 O   0  0  0  0  0  1  0  0  0  0  0  0
  161.6420  204.7340  145.9960 C   0  0  0  0  0  0  0  0  0  0  0  0
  162.5500  204.2950  146.7540 O   0  0  0  0  0  1  0  0  0  0  0  0
  161.1080  203.9130  145.0120 O   0  0  0  0  0  0  0  0  0  0  0  0
  158.8430  212.6460  149.4310 C   0  0  0  0  0  2  0  0  0  0  0  0
  159.0520  213.6310  151.7610 C   0  0  0  0  0  0  0  0  0  0  0  0
  158.6050  214.4530  152.6060 O   0  0  0  0  0  0  0  0  0  0  0  0
  158.4970  213.6330  150.4420 N   0  0  0  0  0  2  0  0  0  0  0  0
  157.4690  212.2450  155.2360 S   0  0  0  0  0  0  0  0  0  0  0  0
  158.3470  209.3350  155.1520 O   0  0  0  0  0  1  0  0  0  0  0  0
  160.0600  212.5930  152.1890 C   0  0  2  0  0  3  0  0  0  0  0  0
  159.5820  213.9440  155.5800 O   0  0  0  0  0  1  0  0  0  0  0  0
  159.1240  211.5830  155.7290 C   0  0  1  0  0  0  0  0  0  0  0  0
  159.4920  211.3140  152.8520 C   0  0  2  0  0  0  0  0  0  0  0  0
  159.3740  211.7390  157.2230 C   0  0  0  0  0  1  0  0  0  0  0  0
  159.4590  210.1770  155.1120 C   0  0  2  0  0  3  0  0  0  0  0  0
  158.0990  211.2470  152.7440 O   0  0  0  0  0  1  0  0  0  0  0  0
  160.1030  212.4650  153.6780 C   0  0  2  0  0  3  0  0  0  0  0  0
  160.0820  210.1850  153.6840 C   0  0  0  0  0  2  0  0  0  0  0  0
  159.1980  212.8060  154.8690 C   0  0  1  0  0  0  0  0  0  0  0  0
  1  2  1  0  0  0  0
  2  4  1  0  0  0  0
  3  4  1  0  0  0  0
  3 27  1  1  0  0  0
  4 11  1  6  0  0  0
  5  3  1  0  0  0  0
  6  8  1  6  0  0  0
  6  1  1  0  0  0  0
  6  5  1  0  0  0  0
  7  8  1  0  0  0  0
  8 10  1  0  0  0  0
  9  8  1  0  0  0  0
 11 12  1  6  0  0  0
 13 14  1  0  0  0  0
 13 11  1  0  0  0  0
 14 15  1  0  0  0  0
 16 22  1  6  0  0  0
 16 20  1  0  0  0  0
 16 17  1  0  0  0  0
 17 15  1  1  0  0  0
 17 18  1  0  0  0  0
 18 21  1  0  0  0  0
 20 21  1  0  0  0  0
 21 19  1  6  0  0  0
 22 23  1  6  0  0  0
 24 22  1  0  0  0  0
 24 25  1  0  0  0  0
 26 24  2  0  0  0  0
 27 30  1  0  0  0  0
 28 29  2  0  0  0  0
 30 28  1  0  0  0  0
 31 35  1  0  0  0  0
 33 28  1  1  0  0  0
 33 36  1  0  0  0  0
 33 40  1  0  0  0  0
 35 37  1  1  0  0  0
 36 39  1  1  0  0  0
 36 40  1  0  0  0  0
 36 41  1  0  0  0  0
 38 32  1  6  0  0  0
 38 35  1  0  0  0  0
 40 42  1  0  0  0  0
 41 38  1  0  0  0  0
 42 31  1  0  0  0  0
 42 34  1  0  0  0  0
 42 35  1  0  0  0  0
M  END
>  <MODEL>
9

>  <REMARK>
 VINA RESULT:      -4.5      1.809      2.791
  Name = 
  11 active torsions:
  status: ('A' for Active; 'I' for Inactive)
    1  A    between atoms: C_1  and  C_14
    2  A    between atoms: C_5  and  C_10
    3  A    between atoms: C_9  and  C_20
    4  A    between atoms: C_9  and  N_33
    5  A    between atoms: C_10  and  C_16
    6  A    between atoms: C_11  and  C_12
    7  A    between atoms: C_12  and  N_31
    8  A    between atoms: C_13  and  C_22
    9  A    between atoms: C_17  and  C_42
   10  A    between atoms: C_22  and  C_23
   11  A    between atoms: C_23  and  N_33
                            x       y       z     vdW  Elec       q    Type
                         _______ _______ _______ _____ _____    ______ ____

>  <TORSDO>
F 11

$$$$
