=
 OpenBabel11072414003D

 29 31  0  0  1  0  0  0  0  0999 V2000
  160.3260  202.3340  149.3050 C   0  0  2  0  0  3  0  0  0  0  0  0
  160.5900  203.5960  149.9690 N   0  0  0  0  0  0  0  0  0  0  0  0
  161.3430  202.1580  151.6910 C   0  0  0  0  0  2  0  0  0  0  0  0
  161.0850  203.5140  151.1550 C   0  0  0  0  0  0  0  0  0  0  0  0
  161.0160  200.9940  150.3320 S   0  0  0  0  0  0  0  0  0  0  0  0
  161.3820  204.6800  151.9250 N   0  0  0  0  0  2  0  0  0  0  0  0
  160.9350  202.3290  147.9390 C   0  0  0  0  0  0  0  0  0  0  0  0
  160.7510  201.3890  147.1800 O   0  0  0  0  0  0  0  0  0  0  0  0
  161.8000  203.4670  147.5160 C   0  0  0  0  0  2  0  0  0  0  0  0
  161.4380  203.8900  146.1720 N   0  0  0  0  0  2  0  0  0  0  0  0
  161.4950  205.6210  146.1360 S   0  0  0  0  0  0  0  0  0  0  0  0
  162.7130  206.0720  145.3780 O   0  0  0  0  0  0  0  0  0  0  0  0
  160.2640  206.1540  145.4580 O   0  0  0  0  0  0  0  0  0  0  0  0
  160.1800  206.5260  148.3430 C   0  0  0  0  0  1  0  0  0  0  0  0
  161.5740  206.2620  147.8010 C   0  0  2  0  0  3  0  0  0  0  0  0
  162.4450  207.5110  147.8850 C   0  0  0  0  0  2  0  0  0  0  0  0
  161.7220  208.5990  148.3800 O   0  0  0  0  0  1  0  0  0  0  0  0
  161.1490  206.0210  151.4140 C   0  0  0  0  0  2  0  0  0  0  0  0
  160.8450  208.2200  152.4000 N   0  0  0  0  0  0  0  0  0  0  0  0
  162.1120  208.2340  151.6570 C   0  0  0  0  0  2  0  0  0  0  0  0
  161.7160  207.0350  152.3850 C   0  0  2  0  0  3  0  0  0  0  0  0
  161.0920  208.8990  153.6600 C   0  0  0  0  0  2  0  0  0  0  0  0
  159.6110  210.2920  155.1210 C   0  0  0  0  0  3  0  0  0  0  0  0
  160.0990  209.9920  153.8470 C   0  0  0  0  0  0  0  0  0  0  0  0
  158.2060  211.9810  154.2210 C   0  0  0  0  0  0  0  0  0  0  0  0
  158.6640  211.7060  152.9310 C   0  0  0  0  0  3  0  0  0  0  0  0
  159.6160  210.7010  152.7460 C   0  0  0  0  0  3  0  0  0  0  0  0
  157.2380  213.0010  154.4270 N   0  0  0  0  0  1  0  0  0  0  0  0
  158.6830  211.2740  155.2810 N   0  0  0  0  0  0  0  0  0  0  0  0
  1  7  1  6  0  0  0
  1  2  1  0  0  0  0
  1  5  1  0  0  0  0
  2  4  2  0  0  0  0
  4  3  1  0  0  0  0
  4  6  1  0  0  0  0
  5  3  1  0  0  0  0
  8  7  2  0  0  0  0
  9  7  1  0  0  0  0
 10  9  1  0  0  0  0
 11 10  1  0  0  0  0
 11 15  1  0  0  0  0
 12 11  2  0  0  0  0
 13 11  2  0  0  0  0
 15 16  1  0  0  0  0
 15 14  1  6  0  0  0
 16 17  1  0  0  0  0
 18  6  1  0  0  0  0
 19 22  1  0  0  0  0
 20 21  1  0  0  0  0
 20 19  1  0  0  0  0
 21 18  1  6  0  0  0
 21 19  1  0  0  0  0
 22 24  1  0  0  0  0
 23 29  1  0  0  0  0
 24 23  2  0  0  0  0
 25 28  1  0  0  0  0
 25 29  2  0  0  0  0
 26 25  1  0  0  0  0
 27 26  2  0  0  0  0
 27 24  1  0  0  0  0
M  END
>  <MODEL>
1

>  <REMARK>
 VINA RESULT:      -6.6      0.000      0.000
  Name = 
  10 active torsions:
  status: ('A' for Active; 'I' for Inactive)
    1  A    between atoms: C_1  and  C_22
    2  A    between atoms: C_2  and  C_8
    3  A    between atoms: C_2  and  N_12
    4  A    between atoms: S_3  and  C_22
    5  A    between atoms: S_3  and  N_23
    6  A    between atoms: C_5  and  C_15
    7  A    between atoms: C_5  and  N_23
    8  A    between atoms: C_6  and  C_15
    9  A    between atoms: C_21  and  C_25
   10  A    between atoms: C_21  and  N_26
                            x       y       z     vdW  Elec       q    Type
                         _______ _______ _______ _____ _____    ______ ____

>  <TORSDO>
F 10

$$$$
=
 OpenBabel11072414003D

 29 31  0  0  1  0  0  0  0  0999 V2000
  161.2300  209.2780  155.4320 C   0  0  2  0  0  3  0  0  0  0  0  0
  161.4900  208.9840  154.0370 N   0  0  0  0  0  0  0  0  0  0  0  0
  160.5410  206.9010  154.6390 C   0  0  0  0  0  2  0  0  0  0  0  0
  161.1590  207.8030  153.6410 C   0  0  0  0  0  0  0  0  0  0  0  0
  160.2790  207.8920  156.1410 S   0  0  0  0  0  0  0  0  0  0  0  0
  161.3700  207.3790  152.2940 N   0  0  0  0  0  2  0  0  0  0  0  0
  160.4770  210.5650  155.5600 C   0  0  0  0  0  0  0  0  0  0  0  0
  161.0390  211.6340  155.3770 O   0  0  0  0  0  0  0  0  0  0  0  0
  159.0380  210.5380  155.9460 C   0  0  0  0  0  2  0  0  0  0  0  0
  158.5690  211.8920  156.1970 N   0  0  0  0  0  2  0  0  0  0  0  0
  157.4800  212.3140  154.9180 S   0  0  0  0  0  0  0  0  0  0  0  0
  156.6990  211.1000  154.4950 O   0  0  0  0  0  0  0  0  0  0  0  0
  156.5280  213.3750  155.3940 O   0  0  0  0  0  0  0  0  0  0  0  0
  157.6520  214.0710  152.8440 C   0  0  0  0  0  1  0  0  0  0  0  0
  158.3990  212.9330  153.5170 C   0  0  2  0  0  3  0  0  0  0  0  0
  158.7290  211.8250  152.5240 C   0  0  0  0  0  2  0  0  0  0  0  0
  160.0760  211.8640  152.1530 O   0  0  0  0  0  1  0  0  0  0  0  0
  161.9640  208.2520  151.2940 C   0  0  0  0  0  2  0  0  0  0  0  0
  162.0790  207.1300  149.1430 N   0  0  0  0  0  0  0  0  0  0  0  0
  162.1000  208.5780  148.8950 C   0  0  0  0  0  2  0  0  0  0  0  0
  161.2700  208.0420  149.9660 C   0  0  2  0  0  3  0  0  0  0  0  0
  161.1790  206.5510  148.1610 C   0  0  0  0  0  2  0  0  0  0  0  0
  161.4250  204.2590  147.1830 C   0  0  0  0  0  3  0  0  0  0  0  0
  161.1750  205.0680  148.2940 C   0  0  0  0  0  0  0  0  0  0  0  0
  161.1160  202.3050  148.4950 C   0  0  0  0  0  0  0  0  0  0  0  0
  160.8520  203.0800  149.6270 C   0  0  0  0  0  3  0  0  0  0  0  0
  160.8800  204.4710  149.5210 C   0  0  0  0  0  3  0  0  0  0  0  0
  161.0920  200.8860  148.5860 N   0  0  0  0  0  1  0  0  0  0  0  0
  161.3930  202.9050  147.3060 N   0  0  0  0  0  0  0  0  0  0  0  0
  1  7  1  6  0  0  0
  1  5  1  0  0  0  0
  2  1  1  0  0  0  0
  3  5  1  0  0  0  0
  4  2  2  0  0  0  0
  4  3  1  0  0  0  0
  6  4  1  0  0  0  0
  7  9  1  0  0  0  0
  8  7  2  0  0  0  0
  9 10  1  0  0  0  0
 11 13  2  0  0  0  0
 11 10  1  0  0  0  0
 12 11  2  0  0  0  0
 15 14  1  6  0  0  0
 15 11  1  0  0  0  0
 16 15  1  0  0  0  0
 17 16  1  0  0  0  0
 18  6  1  0  0  0  0
 19 21  1  0  0  0  0
 20 19  1  0  0  0  0
 20 21  1  0  0  0  0
 21 18  1  1  0  0  0
 22 24  1  0  0  0  0
 22 19  1  0  0  0  0
 23 29  2  0  0  0  0
 23 24  1  0  0  0  0
 24 27  2  0  0  0  0
 25 28  1  0  0  0  0
 25 26  2  0  0  0  0
 27 26  1  0  0  0  0
 29 25  1  0  0  0  0
M  END
>  <MODEL>
2

>  <REMARK>
 VINA RESULT:      -6.6      4.444      9.134
  Name = 
  10 active torsions:
  status: ('A' for Active; 'I' for Inactive)
    1  A    between atoms: C_1  and  C_22
    2  A    between atoms: C_2  and  C_8
    3  A    between atoms: C_2  and  N_12
    4  A    between atoms: S_3  and  C_22
    5  A    between atoms: S_3  and  N_23
    6  A    between atoms: C_5  and  C_15
    7  A    between atoms: C_5  and  N_23
    8  A    between atoms: C_6  and  C_15
    9  A    between atoms: C_21  and  C_25
   10  A    between atoms: C_21  and  N_26
                            x       y       z     vdW  Elec       q    Type
                         _______ _______ _______ _____ _____    ______ ____

>  <TORSDO>
F 10

$$$$
=
 OpenBabel11072414003D

 29 31  0  0  1  0  0  0  0  0999 V2000
  160.7040  209.2760  153.2260 C   0  0  2  0  0  3  0  0  0  0  0  0
  160.8840  207.8750  152.9020 N   0  0  0  0  0  0  0  0  0  0  0  0
  162.1400  208.7860  151.1160 C   0  0  0  0  0  2  0  0  0  0  0  0
  161.5880  207.6270  151.8520 C   0  0  0  0  0  0  0  0  0  0  0  0
  161.7620  210.2600  152.1120 S   0  0  0  0  0  0  0  0  0  0  0  0
  161.8330  206.2890  151.4150 N   0  0  0  0  0  2  0  0  0  0  0  0
  161.0560  209.5280  154.6580 C   0  0  0  0  0  0  0  0  0  0  0  0
  161.5880  208.6560  155.3290 O   0  0  0  0  0  0  0  0  0  0  0  0
  160.7230  210.8420  155.2760 C   0  0  0  0  0  2  0  0  0  0  0  0
  159.3090  210.8840  155.6170 N   0  0  0  0  0  2  0  0  0  0  0  0
  158.6220  212.2680  154.8350 S   0  0  0  0  0  0  0  0  0  0  0  0
  158.6330  213.4400  155.7760 O   0  0  0  0  0  0  0  0  0  0  0  0
  159.4260  212.6070  153.6100 O   0  0  0  0  0  0  0  0  0  0  0  0
  156.1490  213.2090  154.1880 C   0  0  0  0  0  1  0  0  0  0  0  0
  156.9370  211.9210  154.3550 C   0  0  2  0  0  3  0  0  0  0  0  0
  156.2520  210.9780  155.3390 C   0  0  0  0  0  2  0  0  0  0  0  0
  155.1940  210.2970  154.7320 O   0  0  0  0  0  1  0  0  0  0  0  0
  161.3100  205.1360  152.1280 C   0  0  0  0  0  2  0  0  0  0  0  0
  160.6390  203.5770  150.3910 N   0  0  0  0  0  0  0  0  0  0  0  0
  160.6930  202.8380  151.6590 C   0  0  0  0  0  2  0  0  0  0  0  0
  161.6830  203.8710  151.3840 C   0  0  2  0  0  3  0  0  0  0  0  0
  161.2530  202.7270  149.3860 C   0  0  0  0  0  2  0  0  0  0  0  0
  161.2860  204.8390  148.0400 C   0  0  0  0  0  3  0  0  0  0  0  0
  161.2970  203.4420  148.0800 C   0  0  0  0  0  0  0  0  0  0  0  0
  161.3190  204.8030  145.6660 C   0  0  0  0  0  0  0  0  0  0  0  0
  161.3240  203.4060  145.6650 C   0  0  0  0  0  3  0  0  0  0  0  0
  161.3100  202.7240  146.8840 C   0  0  0  0  0  3  0  0  0  0  0  0
  161.3340  205.5120  144.4340 N   0  0  0  0  0  1  0  0  0  0  0  0
  161.2990  205.4850  146.8430 N   0  0  0  0  0  0  0  0  0  0  0  0
  1  7  1  1  0  0  0
  2  1  1  0  0  0  0
  3  4  1  0  0  0  0
  3  5  1  0  0  0  0
  4  2  2  0  0  0  0
  5  1  1  0  0  0  0
  6  4  1  0  0  0  0
  6 18  1  0  0  0  0
  7  9  1  0  0  0  0
  7  8  2  0  0  0  0
  9 10  1  0  0  0  0
 11 10  1  0  0  0  0
 11 12  2  0  0  0  0
 13 11  2  0  0  0  0
 15 14  1  1  0  0  0
 15 11  1  0  0  0  0
 15 16  1  0  0  0  0
 17 16  1  0  0  0  0
 19 21  1  0  0  0  0
 19 20  1  0  0  0  0
 21 20  1  0  0  0  0
 21 18  1  1  0  0  0
 22 19  1  0  0  0  0
 23 24  1  0  0  0  0
 24 22  1  0  0  0  0
 25 29  1  0  0  0  0
 26 25  2  0  0  0  0
 26 27  1  0  0  0  0
 27 24  2  0  0  0  0
 28 25  1  0  0  0  0
 29 23  2  0  0  0  0
M  END
>  <MODEL>
3

>  <REMARK>
 VINA RESULT:      -6.5      4.473      9.200
  Name = 
  10 active torsions:
  status: ('A' for Active; 'I' for Inactive)
    1  A    between atoms: C_1  and  C_22
    2  A    between atoms: C_2  and  C_8
    3  A    between atoms: C_2  and  N_12
    4  A    between atoms: S_3  and  C_22
    5  A    between atoms: S_3  and  N_23
    6  A    between atoms: C_5  and  C_15
    7  A    between atoms: C_5  and  N_23
    8  A    between atoms: C_6  and  C_15
    9  A    between atoms: C_21  and  C_25
   10  A    between atoms: C_21  and  N_26
                            x       y       z     vdW  Elec       q    Type
                         _______ _______ _______ _____ _____    ______ ____

>  <TORSDO>
F 10

$$$$
=
 OpenBabel11072414003D

 29 31  0  0  1  0  0  0  0  0999 V2000
  160.9860  207.5150  151.3360 C   0  0  2  0  0  3  0  0  0  0  0  0
  161.3960  208.6270  150.5010 N   0  0  0  0  0  0  0  0  0  0  0  0
  161.4110  209.7570  152.5810 C   0  0  0  0  0  2  0  0  0  0  0  0
  161.6000  209.7430  151.1130 C   0  0  0  0  0  0  0  0  0  0  0  0
  161.1080  208.0340  153.0810 S   0  0  0  0  0  0  0  0  0  0  0  0
  161.9970  210.9200  150.4090 N   0  0  0  0  0  2  0  0  0  0  0  0
  161.8470  206.3210  151.0710 C   0  0  0  0  0  0  0  0  0  0  0  0
  162.9260  206.1980  151.6310 O   0  0  0  0  0  0  0  0  0  0  0  0
  161.3970  205.2940  150.0900 C   0  0  0  0  0  2  0  0  0  0  0  0
  160.4860  205.8950  149.1280 N   0  0  0  0  0  2  0  0  0  0  0  0
  161.3300  206.0310  147.6220 S   0  0  0  0  0  0  0  0  0  0  0  0
  160.3500  206.3030  146.5140 O   0  0  0  0  0  0  0  0  0  0  0  0
  162.3200  207.1590  147.6960 O   0  0  0  0  0  0  0  0  0  0  0  0
  163.2250  204.7160  146.1730 C   0  0  0  0  0  1  0  0  0  0  0  0
  162.1970  204.5090  147.2710 C   0  0  2  0  0  3  0  0  0  0  0  0
  161.2350  203.3780  146.9210 C   0  0  0  0  0  2  0  0  0  0  0  0
  161.3050  203.0580  145.5630 O   0  0  0  0  0  1  0  0  0  0  0  0
  162.2010  210.9270  148.9700 C   0  0  0  0  0  2  0  0  0  0  0  0
  162.1870  212.4500  147.0770 N   0  0  0  0  0  0  0  0  0  0  0  0
  162.5530  213.2230  148.2710 C   0  0  0  0  0  2  0  0  0  0  0  0
  161.5590  212.1630  148.3760 C   0  0  2  0  0  3  0  0  0  0  0  0
  161.2400  213.2580  146.3300 C   0  0  0  0  0  2  0  0  0  0  0  0
  160.1340  212.2280  144.3330 C   0  0  0  0  0  3  0  0  0  0  0  0
  161.2500  212.8510  144.8980 C   0  0  0  0  0  0  0  0  0  0  0  0
  161.2580  212.0290  142.2510 C   0  0  0  0  0  0  0  0  0  0  0  0
  162.3960  212.6420  142.7810 C   0  0  0  0  0  3  0  0  0  0  0  0
  162.3890  213.0530  144.1160 C   0  0  0  0  0  3  0  0  0  0  0  0
  161.2490  211.6060  140.8940 N   0  0  0  0  0  1  0  0  0  0  0  0
  160.1600  211.8340  143.0320 N   0  0  0  0  0  0  0  0  0  0  0  0
  1  7  1  1  0  0  0
  1  5  1  0  0  0  0
  2  4  2  0  0  0  0
  2  1  1  0  0  0  0
  3  5  1  0  0  0  0
  4  3  1  0  0  0  0
  6  4  1  0  0  0  0
  7  8  2  0  0  0  0
  9  7  1  0  0  0  0
 10  9  1  0  0  0  0
 11 13  2  0  0  0  0
 11 10  1  0  0  0  0
 12 11  2  0  0  0  0
 15 14  1  6  0  0  0
 15 11  1  0  0  0  0
 16 15  1  0  0  0  0
 17 16  1  0  0  0  0
 18  6  1  0  0  0  0
 19 20  1  0  0  0  0
 19 21  1  0  0  0  0
 20 21  1  0  0  0  0
 21 18  1  1  0  0  0
 22 19  1  0  0  0  0
 23 24  1  0  0  0  0
 24 22  1  0  0  0  0
 25 26  2  0  0  0  0
 25 29  1  0  0  0  0
 26 27  1  0  0  0  0
 27 24  2  0  0  0  0
 28 25  1  0  0  0  0
 29 23  2  0  0  0  0
M  END
>  <MODEL>
4

>  <REMARK>
 VINA RESULT:      -6.5      4.804      7.436
  Name = 
  10 active torsions:
  status: ('A' for Active; 'I' for Inactive)
    1  A    between atoms: C_1  and  C_22
    2  A    between atoms: C_2  and  C_8
    3  A    between atoms: C_2  and  N_12
    4  A    between atoms: S_3  and  C_22
    5  A    between atoms: S_3  and  N_23
    6  A    between atoms: C_5  and  C_15
    7  A    between atoms: C_5  and  N_23
    8  A    between atoms: C_6  and  C_15
    9  A    between atoms: C_21  and  C_25
   10  A    between atoms: C_21  and  N_26
                            x       y       z     vdW  Elec       q    Type
                         _______ _______ _______ _____ _____    ______ ____

>  <TORSDO>
F 10

$$$$
=
 OpenBabel11072414003D

 29 31  0  0  1  0  0  0  0  0999 V2000
  161.1540  209.4840  155.1100 C   0  0  2  0  0  3  0  0  0  0  0  0
  161.3730  208.4280  154.1410 N   0  0  0  0  0  0  0  0  0  0  0  0
  160.3360  207.1210  155.8200 C   0  0  0  0  0  2  0  0  0  0  0  0
  160.9770  207.2530  154.4920 C   0  0  0  0  0  0  0  0  0  0  0  0
  160.1510  208.8080  156.4760 S   0  0  0  0  0  0  0  0  0  0  0  0
  161.1410  206.1210  153.6360 N   0  0  0  0  0  2  0  0  0  0  0  0
  160.4670  210.6460  154.4650 C   0  0  0  0  0  0  0  0  0  0  0  0
  160.8760  211.1010  153.4070 O   0  0  0  0  0  0  0  0  0  0  0  0
  159.2940  211.2710  155.1390 C   0  0  0  0  0  2  0  0  0  0  0  0
  159.3370  212.7150  154.9670 N   0  0  0  0  0  2  0  0  0  0  0  0
  157.7360  213.2430  154.5690 S   0  0  0  0  0  0  0  0  0  0  0  0
  156.8540  212.0490  154.3270 O   0  0  0  0  0  0  0  0  0  0  0  0
  157.1740  214.0540  155.7020 O   0  0  0  0  0  0  0  0  0  0  0  0
  156.4400  214.2040  152.3750 C   0  0  0  0  0  1  0  0  0  0  0  0
  157.7780  214.2460  153.0910 C   0  0  2  0  0  3  0  0  0  0  0  0
  158.9150  213.8370  152.1620 C   0  0  0  0  0  2  0  0  0  0  0  0
  158.5420  212.7660  151.3470 O   0  0  0  0  0  1  0  0  0  0  0  0
  161.7560  206.2290  152.3240 C   0  0  0  0  0  2  0  0  0  0  0  0
  160.7430  204.6640  150.7670 N   0  0  0  0  0  0  0  0  0  0  0  0
  160.7140  204.0500  152.1020 C   0  0  0  0  0  2  0  0  0  0  0  0
  161.8620  204.8530  151.7020 C   0  0  2  0  0  3  0  0  0  0  0  0
  161.1510  203.6250  149.8380 C   0  0  0  0  0  2  0  0  0  0  0  0
  160.9000  205.5200  148.2210 C   0  0  0  0  0  3  0  0  0  0  0  0
  161.2000  204.1750  148.4560 C   0  0  0  0  0  0  0  0  0  0  0  0
  161.2250  205.2180  145.8880 C   0  0  0  0  0  0  0  0  0  0  0  0
  161.5230  203.8660  146.0820 C   0  0  0  0  0  3  0  0  0  0  0  0
  161.5070  203.3450  147.3770 C   0  0  0  0  0  3  0  0  0  0  0  0
  161.2380  205.7640  144.5760 N   0  0  0  0  0  1  0  0  0  0  0  0
  160.9210  206.0100  146.9520 N   0  0  0  0  0  0  0  0  0  0  0  0
  1  7  1  6  0  0  0
  1  5  1  0  0  0  0
  2  4  2  0  0  0  0
  2  1  1  0  0  0  0
  3  5  1  0  0  0  0
  4  3  1  0  0  0  0
  6  4  1  0  0  0  0
  7  9  1  0  0  0  0
  8  7  2  0  0  0  0
 10  9  1  0  0  0  0
 11 10  1  0  0  0  0
 11 13  2  0  0  0  0
 12 11  2  0  0  0  0
 15 14  1  6  0  0  0
 15 11  1  0  0  0  0
 16 15  1  0  0  0  0
 17 16  1  0  0  0  0
 18  6  1  0  0  0  0
 19 21  1  0  0  0  0
 19 20  1  0  0  0  0
 21 20  1  0  0  0  0
 21 18  1  1  0  0  0
 22 19  1  0  0  0  0
 23 24  1  0  0  0  0
 24 22  1  0  0  0  0
 25 26  2  0  0  0  0
 25 29  1  0  0  0  0
 26 27  1  0  0  0  0
 27 24  2  0  0  0  0
 28 25  1  0  0  0  0
 29 23  2  0  0  0  0
M  END
>  <MODEL>
5

>  <REMARK>
 VINA RESULT:      -6.4      4.622      9.129
  Name = 
  10 active torsions:
  status: ('A' for Active; 'I' for Inactive)
    1  A    between atoms: C_1  and  C_22
    2  A    between atoms: C_2  and  C_8
    3  A    between atoms: C_2  and  N_12
    4  A    between atoms: S_3  and  C_22
    5  A    between atoms: S_3  and  N_23
    6  A    between atoms: C_5  and  C_15
    7  A    between atoms: C_5  and  N_23
    8  A    between atoms: C_6  and  C_15
    9  A    between atoms: C_21  and  C_25
   10  A    between atoms: C_21  and  N_26
                            x       y       z     vdW  Elec       q    Type
                         _______ _______ _______ _____ _____    ______ ____

>  <TORSDO>
F 10

$$$$
=
 OpenBabel11072414003D

 29 31  0  0  1  0  0  0  0  0999 V2000
  161.6350  203.7920  145.4740 C   0  0  2  0  0  3  0  0  0  0  0  0
  161.9150  204.6940  146.5740 N   0  0  0  0  0  0  0  0  0  0  0  0
  160.6130  206.1720  145.2600 C   0  0  0  0  0  2  0  0  0  0  0  0
  161.4170  205.8780  146.4680 C   0  0  0  0  0  0  0  0  0  0  0  0
  160.4390  204.6010  144.3600 S   0  0  0  0  0  0  0  0  0  0  0  0
  161.6260  206.8690  147.4750 N   0  0  0  0  0  2  0  0  0  0  0  0
  161.0940  202.4960  145.9910 C   0  0  0  0  0  0  0  0  0  0  0  0
  160.4750  201.7440  145.2530 O   0  0  0  0  0  0  0  0  0  0  0  0
  161.2840  202.1410  147.4250 C   0  0  0  0  0  2  0  0  0  0  0  0
  160.0070  202.1860  148.1200 N   0  0  0  0  0  2  0  0  0  0  0  0
  160.2850  201.7050  149.7600 S   0  0  0  0  0  0  0  0  0  0  0  0
  159.1580  200.8280  150.2290 O   0  0  0  0  0  0  0  0  0  0  0  0
  161.5780  200.9430  149.8510 O   0  0  0  0  0  0  0  0  0  0  0  0
  160.4240  204.4170  149.9770 C   0  0  0  0  0  1  0  0  0  0  0  0
  160.3770  203.1470  150.8100 C   0  0  2  0  0  3  0  0  0  0  0  0
  161.5590  203.0730  151.7700 C   0  0  0  0  0  2  0  0  0  0  0  0
  162.3300  204.2360  151.7130 O   0  0  0  0  0  1  0  0  0  0  0  0
  162.4020  206.6000  148.6740 C   0  0  0  0  0  2  0  0  0  0  0  0
  161.4070  208.1100  150.2960 N   0  0  0  0  0  0  0  0  0  0  0  0
  161.5820  208.8530  149.0410 C   0  0  0  0  0  2  0  0  0  0  0  0
  162.5900  207.8850  149.4520 C   0  0  2  0  0  3  0  0  0  0  0  0
  161.8270  208.9960  151.3680 C   0  0  0  0  0  2  0  0  0  0  0  0
  161.1630  209.3010  153.7630 C   0  0  0  0  0  3  0  0  0  0  0  0
  161.3820  208.4470  152.6780 C   0  0  0  0  0  0  0  0  0  0  0  0
  160.6100  207.4530  155.1470 C   0  0  0  0  0  0  0  0  0  0  0  0
  160.8270  206.5670  154.0890 C   0  0  0  0  0  3  0  0  0  0  0  0
  161.2180  207.0720  152.8480 C   0  0  0  0  0  3  0  0  0  0  0  0
  160.2110  206.9550  156.4180 N   0  0  0  0  0  1  0  0  0  0  0  0
  160.7830  208.7900  154.9650 N   0  0  0  0  0  0  0  0  0  0  0  0
  1  7  1  1  0  0  0
  1  2  1  0  0  0  0
  3  4  1  0  0  0  0
  4  2  2  0  0  0  0
  4  6  1  0  0  0  0
  5  3  1  0  0  0  0
  5  1  1  0  0  0  0
  6 18  1  0  0  0  0
  7  9  1  0  0  0  0
  8  7  2  0  0  0  0
  9 10  1  0  0  0  0
 10 11  1  0  0  0  0
 11 13  2  0  0  0  0
 11 12  2  0  0  0  0
 11 15  1  0  0  0  0
 15 14  1  6  0  0  0
 15 16  1  0  0  0  0
 17 16  1  0  0  0  0
 19 22  1  0  0  0  0
 20 21  1  0  0  0  0
 20 19  1  0  0  0  0
 21 18  1  6  0  0  0
 21 19  1  0  0  0  0
 22 24  1  0  0  0  0
 23 29  1  0  0  0  0
 24 27  1  0  0  0  0
 24 23  2  0  0  0  0
 25 28  1  0  0  0  0
 26 25  1  0  0  0  0
 27 26  2  0  0  0  0
 29 25  2  0  0  0  0
M  END
>  <MODEL>
6

>  <REMARK>
 VINA RESULT:      -6.3      2.706      4.660
  Name = 
  10 active torsions:
  status: ('A' for Active; 'I' for Inactive)
    1  A    between atoms: C_1  and  C_22
    2  A    between atoms: C_2  and  C_8
    3  A    between atoms: C_2  and  N_12
    4  A    between atoms: S_3  and  C_22
    5  A    between atoms: S_3  and  N_23
    6  A    between atoms: C_5  and  C_15
    7  A    between atoms: C_5  and  N_23
    8  A    between atoms: C_6  and  C_15
    9  A    between atoms: C_21  and  C_25
   10  A    between atoms: C_21  and  N_26
                            x       y       z     vdW  Elec       q    Type
                         _______ _______ _______ _____ _____    ______ ____

>  <TORSDO>
F 10

$$$$
=
 OpenBabel11072414003D

 29 31  0  0  1  0  0  0  0  0999 V2000
  160.8430  209.5420  154.7370 C   0  0  2  0  0  3  0  0  0  0  0  0
  161.3010  209.1330  153.4240 N   0  0  0  0  0  0  0  0  0  0  0  0
  160.7440  206.9890  154.2580 C   0  0  0  0  0  2  0  0  0  0  0  0
  161.2620  207.8680  153.1850 C   0  0  0  0  0  0  0  0  0  0  0  0
  160.1290  208.0860  155.5730 S   0  0  0  0  0  0  0  0  0  0  0  0
  161.6950  207.3290  151.9350 N   0  0  0  0  0  2  0  0  0  0  0  0
  159.8320  210.6380  154.6160 C   0  0  0  0  0  0  0  0  0  0  0  0
  159.1360  210.9490  155.5710 O   0  0  0  0  0  0  0  0  0  0  0  0
  159.6520  211.3300  153.3090 C   0  0  0  0  0  2  0  0  0  0  0  0
  158.2440  211.6270  153.0960 N   0  0  0  0  0  2  0  0  0  0  0  0
  158.1000  213.3360  152.8530 S   0  0  0  0  0  0  0  0  0  0  0  0
  159.4230  213.8990  152.4130 O   0  0  0  0  0  0  0  0  0  0  0  0
  157.0680  213.6110  151.7950 O   0  0  0  0  0  0  0  0  0  0  0  0
  158.8180  214.4390  155.2370 C   0  0  0  0  0  1  0  0  0  0  0  0
  157.6070  214.1280  154.3760 C   0  0  2  0  0  3  0  0  0  0  0  0
  156.5840  213.2950  155.1400 C   0  0  0  0  0  2  0  0  0  0  0  0
  155.4120  213.1290  154.3980 O   0  0  0  0  0  1  0  0  0  0  0  0
  162.1960  208.1730  150.8630 C   0  0  0  0  0  2  0  0  0  0  0  0
  162.1270  206.8880  148.8030 N   0  0  0  0  0  0  0  0  0  0  0  0
  162.1990  208.3100  148.4410 C   0  0  0  0  0  2  0  0  0  0  0  0
  161.4130  207.8990  149.5970 C   0  0  2  0  0  3  0  0  0  0  0  0
  161.1430  206.2830  147.9230 C   0  0  0  0  0  2  0  0  0  0  0  0
  161.2840  203.9840  146.9410 C   0  0  0  0  0  3  0  0  0  0  0  0
  161.1800  204.8020  148.0690 C   0  0  0  0  0  0  0  0  0  0  0  0
  161.1920  202.0400  148.3020 C   0  0  0  0  0  0  0  0  0  0  0  0
  161.0790  202.8240  149.4530 C   0  0  0  0  0  3  0  0  0  0  0  0
  161.0710  204.2150  149.3310 C   0  0  0  0  0  3  0  0  0  0  0  0
  161.2030  200.6230  148.4090 N   0  0  0  0  0  1  0  0  0  0  0  0
  161.2900  202.6300  147.0800 N   0  0  0  0  0  0  0  0  0  0  0  0
  1  7  1  6  0  0  0
  1  5  1  0  0  0  0
  2  1  1  0  0  0  0
  3  5  1  0  0  0  0
  4  2  2  0  0  0  0
  4  3  1  0  0  0  0
  6  4  1  0  0  0  0
  7  8  2  0  0  0  0
  9  7  1  0  0  0  0
 10  9  1  0  0  0  0
 11 10  1  0  0  0  0
 11 15  1  0  0  0  0
 12 11  2  0  0  0  0
 13 11  2  0  0  0  0
 15 16  1  0  0  0  0
 15 14  1  1  0  0  0
 17 16  1  0  0  0  0
 18  6  1  0  0  0  0
 19 21  1  0  0  0  0
 20 19  1  0  0  0  0
 20 21  1  0  0  0  0
 21 18  1  1  0  0  0
 22 24  1  0  0  0  0
 22 19  1  0  0  0  0
 23 29  2  0  0  0  0
 23 24  1  0  0  0  0
 24 27  2  0  0  0  0
 25 28  1  0  0  0  0
 25 26  2  0  0  0  0
 27 26  1  0  0  0  0
 29 25  1  0  0  0  0
M  END
>  <MODEL>
7

>  <REMARK>
 VINA RESULT:      -6.3      4.834      9.203
  Name = 
  10 active torsions:
  status: ('A' for Active; 'I' for Inactive)
    1  A    between atoms: C_1  and  C_22
    2  A    between atoms: C_2  and  C_8
    3  A    between atoms: C_2  and  N_12
    4  A    between atoms: S_3  and  C_22
    5  A    between atoms: S_3  and  N_23
    6  A    between atoms: C_5  and  C_15
    7  A    between atoms: C_5  and  N_23
    8  A    between atoms: C_6  and  C_15
    9  A    between atoms: C_21  and  C_25
   10  A    between atoms: C_21  and  N_26
                            x       y       z     vdW  Elec       q    Type
                         _______ _______ _______ _____ _____    ______ ____

>  <TORSDO>
F 10

$$$$
=
 OpenBabel11072414003D

 29 31  0  0  1  0  0  0  0  0999 V2000
  161.7510  208.8750  156.2220 C   0  0  2  0  0  3  0  0  0  0  0  0
  161.6830  208.1540  154.9660 N   0  0  0  0  0  0  0  0  0  0  0  0
  159.9400  207.0150  156.0910 C   0  0  0  0  0  2  0  0  0  0  0  0
  160.7920  207.2260  154.9000 C   0  0  0  0  0  0  0  0  0  0  0  0
  160.3470  208.3480  157.2610 S   0  0  0  0  0  0  0  0  0  0  0  0
  160.6250  206.4320  153.7240 N   0  0  0  0  0  2  0  0  0  0  0  0
  161.7120  210.3500  155.9770 C   0  0  0  0  0  0  0  0  0  0  0  0
  162.7340  211.0170  156.0420 O   0  0  0  0  0  0  0  0  0  0  0  0
  160.4090  211.0120  155.6870 C   0  0  0  0  0  2  0  0  0  0  0  0
  160.5380  211.8650  154.5150 N   0  0  0  0  0  2  0  0  0  0  0  0
  158.9420  212.1860  153.9240 S   0  0  0  0  0  0  0  0  0  0  0  0
  158.8670  213.5980  153.4110 O   0  0  0  0  0  0  0  0  0  0  0  0
  158.6150  211.2350  152.8080 O   0  0  0  0  0  0  0  0  0  0  0  0
  156.4630  211.3780  154.7110 C   0  0  0  0  0  1  0  0  0  0  0  0
  157.7530  211.9800  155.2410 C   0  0  2  0  0  3  0  0  0  0  0  0
  157.4900  213.2900  155.9750 C   0  0  0  0  0  2  0  0  0  0  0  0
  156.1370  213.6340  155.9270 O   0  0  0  0  0  1  0  0  0  0  0  0
  161.4420  206.6290  152.5380 C   0  0  0  0  0  2  0  0  0  0  0  0
  160.7440  204.9520  150.9240 N   0  0  0  0  0  0  0  0  0  0  0  0
  160.7220  204.3300  152.2550 C   0  0  0  0  0  2  0  0  0  0  0  0
  161.7710  205.2850  151.9240 C   0  0  2  0  0  3  0  0  0  0  0  0
  161.3440  203.9860  150.0210 C   0  0  0  0  0  2  0  0  0  0  0  0
  161.5880  203.6390  147.5540 C   0  0  0  0  0  3  0  0  0  0  0  0
  161.2340  204.4710  148.6180 C   0  0  0  0  0  0  0  0  0  0  0  0
  161.0970  205.3640  145.9990 C   0  0  0  0  0  0  0  0  0  0  0  0
  160.7410  206.2290  147.0360 C   0  0  0  0  0  3  0  0  0  0  0  0
  160.8140  205.7760  148.3550 C   0  0  0  0  0  3  0  0  0  0  0  0
  161.0280  205.8100  144.6500 N   0  0  0  0  0  1  0  0  0  0  0  0
  161.5120  204.0980  146.2760 N   0  0  0  0  0  0  0  0  0  0  0  0
  1  7  1  6  0  0  0
  1  5  1  0  0  0  0
  2  1  1  0  0  0  0
  3  5  1  0  0  0  0
  4  2  2  0  0  0  0
  4  3  1  0  0  0  0
  6  4  1  0  0  0  0
  7  8  2  0  0  0  0
  9  7  1  0  0  0  0
 10  9  1  0  0  0  0
 11 10  1  0  0  0  0
 11 15  1  0  0  0  0
 12 11  2  0  0  0  0
 13 11  2  0  0  0  0
 15 14  1  6  0  0  0
 15 16  1  0  0  0  0
 17 16  1  0  0  0  0
 18  6  1  0  0  0  0
 19 21  1  0  0  0  0
 19 20  1  0  0  0  0
 21 20  1  0  0  0  0
 21 18  1  1  0  0  0
 22 19  1  0  0  0  0
 23 24  1  0  0  0  0
 24 22  1  0  0  0  0
 25 29  1  0  0  0  0
 25 26  2  0  0  0  0
 26 27  1  0  0  0  0
 27 24  2  0  0  0  0
 28 25  1  0  0  0  0
 29 23  2  0  0  0  0
M  END
>  <MODEL>
8

>  <REMARK>
 VINA RESULT:      -6.2      4.708      9.108
  Name = 
  10 active torsions:
  status: ('A' for Active; 'I' for Inactive)
    1  A    between atoms: C_1  and  C_22
    2  A    between atoms: C_2  and  C_8
    3  A    between atoms: C_2  and  N_12
    4  A    between atoms: S_3  and  C_22
    5  A    between atoms: S_3  and  N_23
    6  A    between atoms: C_5  and  C_15
    7  A    between atoms: C_5  and  N_23
    8  A    between atoms: C_6  and  C_15
    9  A    between atoms: C_21  and  C_25
   10  A    between atoms: C_21  and  N_26
                            x       y       z     vdW  Elec       q    Type
                         _______ _______ _______ _____ _____    ______ ____

>  <TORSDO>
F 10

$$$$
=
 OpenBabel11072414003D

 29 31  0  0  1  0  0  0  0  0999 V2000
  160.8450  207.3790  151.4790 C   0  0  2  0  0  3  0  0  0  0  0  0
  160.9680  207.9130  152.8210 N   0  0  0  0  0  0  0  0  0  0  0  0
  161.1980  205.6200  153.3610 C   0  0  0  0  0  2  0  0  0  0  0  0
  161.1340  207.0450  153.7580 C   0  0  0  0  0  0  0  0  0  0  0  0
  161.1990  205.5900  151.5420 S   0  0  0  0  0  0  0  0  0  0  0  0
  161.2580  207.4360  155.1260 N   0  0  0  0  0  2  0  0  0  0  0  0
  161.7890  208.0790  150.5530 C   0  0  0  0  0  0  0  0  0  0  0  0
  161.9270  209.2920  150.6080 O   0  0  0  0  0  0  0  0  0  0  0  0
  162.5380  207.2900  149.5340 C   0  0  0  0  0  2  0  0  0  0  0  0
  162.1330  207.6980  148.1980 N   0  0  0  0  0  2  0  0  0  0  0  0
  161.2750  206.3740  147.4840 S   0  0  0  0  0  0  0  0  0  0  0  0
  160.0730  206.0380  148.3220 O   0  0  0  0  0  0  0  0  0  0  0  0
  160.8250  206.7500  146.1000 O   0  0  0  0  0  0  0  0  0  0  0  0
  162.7690  204.6870  145.9550 C   0  0  0  0  0  1  0  0  0  0  0  0
  162.3380  204.9410  147.3880 C   0  0  2  0  0  3  0  0  0  0  0  0
  161.6790  203.7080  147.9950 C   0  0  0  0  0  2  0  0  0  0  0  0
  161.0860  202.9150  147.0080 O   0  0  0  0  0  1  0  0  0  0  0  0
  161.2110  208.8280  155.5390 C   0  0  0  0  0  2  0  0  0  0  0  0
  159.6240  210.6650  155.6380 N   0  0  0  0  0  0  0  0  0  0  0  0
  159.7510  210.1090  156.9920 C   0  0  0  0  0  2  0  0  0  0  0  0
  159.7790  209.2160  155.8410 C   0  0  2  0  0  3  0  0  0  0  0  0
  158.2090  210.9020  155.4150 C   0  0  0  0  0  2  0  0  0  0  0  0
  157.1980  212.9520  154.3920 C   0  0  0  0  0  3  0  0  0  0  0  0
  158.0280  211.8350  154.2690 C   0  0  0  0  0  0  0  0  0  0  0  0
  157.6250  213.5580  152.1370 C   0  0  0  0  0  0  0  0  0  0  0  0
  158.4560  212.4480  151.9720 C   0  0  0  0  0  3  0  0  0  0  0  0
  158.6550  211.5810  153.0480 C   0  0  0  0  0  3  0  0  0  0  0  0
  157.4130  214.4510  151.0510 N   0  0  0  0  0  1  0  0  0  0  0  0
  157.0170  213.7850  153.3320 N   0  0  0  0  0  0  0  0  0  0  0  0
  1  7  1  6  0  0  0
  1  5  1  0  0  0  0
  1  2  1  0  0  0  0
  2  4  2  0  0  0  0
  3  4  1  0  0  0  0
  4  6  1  0  0  0  0
  5  3  1  0  0  0  0
  6 18  1  0  0  0  0
  7  8  2  0  0  0  0
  9  7  1  0  0  0  0
 10  9  1  0  0  0  0
 11 10  1  0  0  0  0
 11 12  2  0  0  0  0
 13 11  2  0  0  0  0
 15 14  1  6  0  0  0
 15 11  1  0  0  0  0
 15 16  1  0  0  0  0
 17 16  1  0  0  0  0
 19 21  1  0  0  0  0
 19 20  1  0  0  0  0
 21 18  1  6  0  0  0
 21 20  1  0  0  0  0
 22 19  1  0  0  0  0
 24 23  1  0  0  0  0
 24 22  1  0  0  0  0
 25 29  1  0  0  0  0
 26 25  2  0  0  0  0
 26 27  1  0  0  0  0
 27 24  2  0  0  0  0
 28 25  1  0  0  0  0
 29 23  2  0  0  0  0
M  END
>  <MODEL>
9

>  <REMARK>
 VINA RESULT:      -6.2      2.326      4.347
  Name = 
  10 active torsions:
  status: ('A' for Active; 'I' for Inactive)
    1  A    between atoms: C_1  and  C_22
    2  A    between atoms: C_2  and  C_8
    3  A    between atoms: C_2  and  N_12
    4  A    between atoms: S_3  and  C_22
    5  A    between atoms: S_3  and  N_23
    6  A    between atoms: C_5  and  C_15
    7  A    between atoms: C_5  and  N_23
    8  A    between atoms: C_6  and  C_15
    9  A    between atoms: C_21  and  C_25
   10  A    between atoms: C_21  and  N_26
                            x       y       z     vdW  Elec       q    Type
                         _______ _______ _______ _____ _____    ______ ____

>  <TORSDO>
F 10

$$$$
