=
 OpenBabel11072411103D

 30 31  0  0  1  0  0  0  0  0999 V2000
  157.4140  213.8030  137.8850 N   0  0  0  0  0  0  0  0  0  0  0  0
  159.6730  211.9960  140.9220 N   0  0  0  0  0  0  0  0  0  0  0  0
  156.9480  213.8510  139.1620 C   0  0  0  0  0  0  0  0  0  0  0  0
  159.1670  213.6570  142.6520 O   0  0  0  0  0  0  0  0  0  0  0  0
  158.6070  213.2200  137.5820 C   0  0  0  0  0  3  0  0  0  0  0  0
  155.6920  214.4520  139.4360 N   0  0  0  0  0  1  0  0  0  0  0  0
  160.2590  211.7200  143.1660 O   0  0  0  0  0  1  0  0  0  0  0  0
  159.3810  212.6490  138.5940 C   0  0  0  0  0  0  0  0  0  0  0  0
  158.9190  212.6820  139.9140 C   0  0  0  0  0  0  0  0  0  0  0  0
  157.6850  213.2790  140.2010 C   0  0  0  0  0  3  0  0  0  0  0  0
  161.0190  210.8170  139.1680 C   0  0  1  0  0  3  0  0  0  0  0  0
  160.7310  212.0610  138.2930 C   0  0  2  0  0  3  0  0  0  0  0  0
  159.7100  212.4340  142.2870 C   0  0  0  0  0  0  0  0  0  0  0  0
  160.3310  210.7490  140.5460 C   0  0  0  0  0  2  0  0  0  0  0  0
  161.5450  208.3940  138.8390 C   0  0  0  0  0  0  0  0  0  0  0  0
  161.4470  207.3200  138.1880 O   0  0  0  0  0  0  0  0  0  0  0  0
  162.3470  208.4230  139.9790 O   0  0  0  0  0  1  0  0  0  0  0  0
  160.8300  209.5720  138.4220 N   0  0  0  0  0  0  0  0  0  0  0  0
  160.0140  209.5600  137.2050 C   0  0  0  0  0  2  0  0  0  0  0  0
  158.7140  208.8050  137.4320 C   0  0  0  0  0  2  0  0  0  0  0  0
  155.4980  210.9540  137.4540 C   0  0  0  0  0  1  0  0  0  0  0  0
  156.6420  210.1430  137.9440 C   0  0  0  0  0  0  0  0  0  0  0  0
  157.5880  209.6230  137.0110 N   0  0  0  0  0  2  0  0  0  0  0  0
  156.7730  209.9300  139.1810 O   0  0  0  0  0  0  0  0  0  0  0  0
  161.8460  213.1100  138.4480 C   0  0  1  0  0  3  0  0  0  0  0  0
  162.9690  212.6540  139.3350 C   0  0  0  0  0  0  0  0  0  0  0  0
  163.0940  213.1130  140.5040 O   0  0  0  0  0  1  0  0  0  0  0  0
  163.8710  211.7050  138.8660 O   0  0  0  0  0  0  0  0  0  0  0  0
  163.6440  214.4520  137.2690 C   0  0  0  0  0  1  0  0  0  0  0  0
  162.3830  213.6320  137.1090 C   0  0  0  0  0  2  0  0  0  0  0  0
  1  3  1  0  0  0  0
  2 13  1  0  0  0  0
  3  6  1  0  0  0  0
  3 10  2  0  0  0  0
  5  1  2  0  0  0  0
  5  8  1  0  0  0  0
  8  9  2  0  0  0  0
  9 10  1  0  0  0  0
  9  2  1  0  0  0  0
 11 18  1  6  0  0  0
 11 14  1  0  0  0  0
 12 25  1  1  0  0  0
 12  8  1  0  0  0  0
 12 11  1  0  0  0  0
 13  4  2  0  0  0  0
 13  7  1  0  0  0  0
 14  2  1  0  0  0  0
 15 17  1  0  0  0  0
 16 15  2  0  0  0  0
 18 15  1  0  0  0  0
 19 20  1  0  0  0  0
 19 18  1  0  0  0  0
 21 22  1  0  0  0  0
 22 24  2  0  0  0  0
 23 20  1  0  0  0  0
 23 22  1  0  0  0  0
 25 30  1  6  0  0  0
 25 26  1  0  0  0  0
 26 27  1  0  0  0  0
 28 26  2  0  0  0  0
 30 29  1  0  0  0  0
M  END
>  <MODEL>
1

>  <REMARK>
 VINA RESULT:      -3.6      0.000      0.000
  Name = 
  7 active torsions:
  status: ('A' for Active; 'I' for Inactive)
    1  A    between atoms: C_2  and  C_30
    2  A    between atoms: N_15  and  C_27
    3  A    between atoms: C_21  and  N_28
    4  A    between atoms: C_22  and  C_30
    5  A    between atoms: C_23  and  C_27
    6  A    between atoms: C_23  and  N_28
    7  A    between atoms: C_24  and  C_30
                            x       y       z     vdW  Elec       q    Type
                         _______ _______ _______ _____ _____    ______ ____

>  <TORSDO>
F 7

$$$$
=
 OpenBabel11072411103D

 30 31  0  0  1  0  0  0  0  0999 V2000
  156.3550  211.1350  154.4400 N   0  0  0  0  0  0  0  0  0  0  0  0
  160.4610  211.2970  155.2770 N   0  0  0  0  0  0  0  0  0  0  0  0
  156.7550  211.1590  155.7400 C   0  0  0  0  0  0  0  0  0  0  0  0
  160.2720  212.7370  157.2520 O   0  0  0  0  0  1  0  0  0  0  0  0
  157.2500  211.2010  153.4150 C   0  0  0  0  0  3  0  0  0  0  0  0
  155.7940  211.0700  156.7800 N   0  0  0  0  0  1  0  0  0  0  0  0
  162.2570  211.7530  156.7000 O   0  0  0  0  0  0  0  0  0  0  0  0
  158.6160  211.2930  153.6880 C   0  0  0  0  0  0  0  0  0  0  0  0
  159.0520  211.3130  155.0170 C   0  0  0  0  0  0  0  0  0  0  0  0
  158.1140  211.2350  156.0540 C   0  0  0  0  0  3  0  0  0  0  0  0
  160.9330  210.6880  152.8930 C   0  0  1  0  0  3  0  0  0  0  0  0
  159.6160  211.4360  152.5750 C   0  0  2  0  0  3  0  0  0  0  0  0
  161.0390  211.9210  156.4320 C   0  0  0  0  0  0  0  0  0  0  0  0
  161.3080  210.5180  154.3790 C   0  0  0  0  0  2  0  0  0  0  0  0
  161.5610  209.4000  150.8430 C   0  0  0  0  0  0  0  0  0  0  0  0
  161.6020  208.3290  150.1790 O   0  0  0  0  0  0  0  0  0  0  0  0
  162.0570  210.5700  150.2710 O   0  0  0  0  0  1  0  0  0  0  0  0
  161.0210  209.4140  152.1780 N   0  0  0  0  0  0  0  0  0  0  0  0
  160.4660  208.1950  152.7730 C   0  0  0  0  0  2  0  0  0  0  0  0
  161.5730  207.2880  153.2840 C   0  0  0  0  0  2  0  0  0  0  0  0
  160.8510  203.6230  152.2780 C   0  0  0  0  0  1  0  0  0  0  0  0
  161.3650  205.0150  152.2170 C   0  0  0  0  0  0  0  0  0  0  0  0
  161.1120  205.9090  153.3000 N   0  0  0  0  0  2  0  0  0  0  0  0
  162.0300  205.3920  151.2120 O   0  0  0  0  0  0  0  0  0  0  0  0
  159.8900  212.9150  152.2550 C   0  0  1  0  0  3  0  0  0  0  0  0
  159.6340  213.2670  150.8170 C   0  0  0  0  0  0  0  0  0  0  0  0
  158.6140  212.8260  150.2180 O   0  0  0  0  0  1  0  0  0  0  0  0
  160.5250  214.0970  150.1460 O   0  0  0  0  0  0  0  0  0  0  0  0
  157.8990  214.4480  152.5830 C   0  0  0  0  0  1  0  0  0  0  0  0
  159.1640  213.8870  153.1940 C   0  0  0  0  0  2  0  0  0  0  0  0
  1  3  1  0  0  0  0
  2 13  1  0  0  0  0
  3 10  2  0  0  0  0
  3  6  1  0  0  0  0
  5  8  1  0  0  0  0
  5  1  2  0  0  0  0
  8  9  2  0  0  0  0
  9  2  1  0  0  0  0
  9 10  1  0  0  0  0
 11 18  1  1  0  0  0
 11 14  1  0  0  0  0
 12 25  1  1  0  0  0
 12 11  1  0  0  0  0
 12  8  1  0  0  0  0
 13  7  2  0  0  0  0
 13  4  1  0  0  0  0
 14  2  1  0  0  0  0
 15 18  1  0  0  0  0
 16 15  2  0  0  0  0
 17 15  1  0  0  0  0
 18 19  1  0  0  0  0
 19 20  1  0  0  0  0
 20 23  1  0  0  0  0
 22 21  1  0  0  0  0
 22 23  1  0  0  0  0
 24 22  2  0  0  0  0
 25 30  1  1  0  0  0
 26 25  1  0  0  0  0
 27 26  1  0  0  0  0
 28 26  2  0  0  0  0
 29 30  1  0  0  0  0
M  END
>  <MODEL>
2

>  <REMARK>
 VINA RESULT:      -3.3     12.303     14.737
  Name = 
  7 active torsions:
  status: ('A' for Active; 'I' for Inactive)
    1  A    between atoms: C_2  and  C_30
    2  A    between atoms: N_15  and  C_27
    3  A    between atoms: C_21  and  N_28
    4  A    between atoms: C_22  and  C_30
    5  A    between atoms: C_23  and  C_27
    6  A    between atoms: C_23  and  N_28
    7  A    between atoms: C_24  and  C_30
                            x       y       z     vdW  Elec       q    Type
                         _______ _______ _______ _____ _____    ______ ____

>  <TORSDO>
F 7

$$$$
=
 OpenBabel11072411103D

 30 31  0  0  1  0  0  0  0  0999 V2000
  155.5780  210.6680  155.1030 N   0  0  0  0  0  0  0  0  0  0  0  0
  159.3070  212.4830  155.7280 N   0  0  0  0  0  0  0  0  0  0  0  0
  155.7880  211.3450  156.2640 C   0  0  0  0  0  0  0  0  0  0  0  0
  158.4490  214.4500  156.9120 O   0  0  0  0  0  1  0  0  0  0  0  0
  156.5310  210.6020  154.1320 C   0  0  0  0  0  3  0  0  0  0  0  0
  154.7770  211.3760  157.2600 N   0  0  0  0  0  1  0  0  0  0  0  0
  160.6890  214.0330  156.7960 O   0  0  0  0  0  0  0  0  0  0  0  0
  157.7610  211.2350  154.3190 C   0  0  0  0  0  0  0  0  0  0  0  0
  158.0020  211.9330  155.5080 C   0  0  0  0  0  0  0  0  0  0  0  0
  157.0100  211.9790  156.4960 C   0  0  0  0  0  3  0  0  0  0  0  0
  160.2330  211.1530  153.8180 C   0  0  1  0  0  3  0  0  0  0  0  0
  158.8010  211.2330  153.2350 C   0  0  2  0  0  3  0  0  0  0  0  0
  159.5210  213.6720  156.5010 C   0  0  0  0  0  0  0  0  0  0  0  0
  160.4540  211.7290  155.2300 C   0  0  0  0  0  2  0  0  0  0  0  0
  160.5030  208.8430  154.7420 C   0  0  0  0  0  0  0  0  0  0  0  0
  161.0090  207.6900  154.7040 O   0  0  0  0  0  0  0  0  0  0  0  0
  159.6500  209.1750  155.7930 O   0  0  0  0  0  1  0  0  0  0  0  0
  160.7900  209.8030  153.7070 N   0  0  0  0  0  0  0  0  0  0  0  0
  161.7130  209.4740  152.6170 C   0  0  0  0  0  2  0  0  0  0  0  0
  161.0380  208.5880  151.5830 C   0  0  0  0  0  2  0  0  0  0  0  0
  162.5200  207.3780  148.2210 C   0  0  0  0  0  1  0  0  0  0  0  0
  161.5640  207.5620  149.3430 C   0  0  0  0  0  0  0  0  0  0  0  0
  161.9250  208.3910  150.4480 N   0  0  0  0  0  2  0  0  0  0  0  0
  160.4380  206.9930  149.3050 O   0  0  0  0  0  0  0  0  0  0  0  0
  158.6540  212.4570  152.3140 C   0  0  1  0  0  3  0  0  0  0  0  0
  157.7760  213.5300  152.8910 C   0  0  0  0  0  0  0  0  0  0  0  0
  158.2670  214.4530  153.5990 O   0  0  0  0  0  1  0  0  0  0  0  0
  156.4110  213.5120  152.6320 O   0  0  0  0  0  0  0  0  0  0  0  0
  160.0210  213.3320  150.3680 C   0  0  0  0  0  1  0  0  0  0  0  0
  159.9970  213.0380  151.8520 C   0  0  0  0  0  2  0  0  0  0  0  0
  1  3  1  0  0  0  0
  2 13  1  0  0  0  0
  3 10  2  0  0  0  0
  3  6  1  0  0  0  0
  5  8  1  0  0  0  0
  5  1  2  0  0  0  0
  8  9  2  0  0  0  0
  9  2  1  0  0  0  0
  9 10  1  0  0  0  0
 11 18  1  1  0  0  0
 11 14  1  0  0  0  0
 12 25  1  1  0  0  0
 12 11  1  0  0  0  0
 12  8  1  0  0  0  0
 13  7  2  0  0  0  0
 13  4  1  0  0  0  0
 14  2  1  0  0  0  0
 15 17  1  0  0  0  0
 16 15  2  0  0  0  0
 18 15  1  0  0  0  0
 19 18  1  0  0  0  0
 20 19  1  0  0  0  0
 21 22  1  0  0  0  0
 22 23  1  0  0  0  0
 23 20  1  0  0  0  0
 24 22  2  0  0  0  0
 25 30  1  1  0  0  0
 25 26  1  0  0  0  0
 26 27  1  0  0  0  0
 28 26  2  0  0  0  0
 29 30  1  0  0  0  0
M  END
>  <MODEL>
3

>  <REMARK>
 VINA RESULT:      -3.0     12.179     15.126
  Name = 
  7 active torsions:
  status: ('A' for Active; 'I' for Inactive)
    1  A    between atoms: C_2  and  C_30
    2  A    between atoms: N_15  and  C_27
    3  A    between atoms: C_21  and  N_28
    4  A    between atoms: C_22  and  C_30
    5  A    between atoms: C_23  and  C_27
    6  A    between atoms: C_23  and  N_28
    7  A    between atoms: C_24  and  C_30
                            x       y       z     vdW  Elec       q    Type
                         _______ _______ _______ _____ _____    ______ ____

>  <TORSDO>
F 7

$$$$
=
 OpenBabel11072411103D

 30 31  0  0  1  0  0  0  0  0999 V2000
  156.8040  211.2410  154.9790 N   0  0  0  0  0  0  0  0  0  0  0  0
  160.9020  210.7670  155.7350 N   0  0  0  0  0  0  0  0  0  0  0  0
  157.2760  211.5310  156.2220 C   0  0  0  0  0  0  0  0  0  0  0  0
  161.1190  212.6920  157.2370 O   0  0  0  0  0  1  0  0  0  0  0  0
  157.6330  210.8420  153.9750 C   0  0  0  0  0  3  0  0  0  0  0  0
  156.3790  211.9270  157.2470 N   0  0  0  0  0  1  0  0  0  0  0  0
  162.8320  211.2070  156.9750 O   0  0  0  0  0  0  0  0  0  0  0  0
  159.0040  210.7180  154.2110 C   0  0  0  0  0  0  0  0  0  0  0  0
  159.5110  211.0050  155.4820 C   0  0  0  0  0  0  0  0  0  0  0  0
  158.6380  211.4050  156.5020 C   0  0  0  0  0  3  0  0  0  0  0  0
  161.1040  209.4550  153.6100 C   0  0  1  0  0  3  0  0  0  0  0  0
  159.9450  210.3460  153.1000 C   0  0  2  0  0  3  0  0  0  0  0  0
  161.6580  211.5460  156.6720 C   0  0  0  0  0  0  0  0  0  0  0  0
  161.5230  209.6170  155.0850 C   0  0  0  0  0  2  0  0  0  0  0  0
  160.9210  207.0660  154.3280 C   0  0  0  0  0  0  0  0  0  0  0  0
  160.7980  205.8390  154.0660 O   0  0  0  0  0  0  0  0  0  0  0  0
  161.0720  207.4630  155.6550 O   0  0  0  0  0  1  0  0  0  0  0  0
  160.8950  208.0460  153.2730 N   0  0  0  0  0  0  0  0  0  0  0  0
  160.7730  207.6340  151.8720 C   0  0  0  0  0  2  0  0  0  0  0  0
  162.1390  207.3630  151.2650 C   0  0  0  0  0  2  0  0  0  0  0  0
  161.7690  206.7230  147.4680 C   0  0  0  0  0  1  0  0  0  0  0  0
  161.9500  207.4440  148.7540 C   0  0  0  0  0  0  0  0  0  0  0  0
  161.9860  206.7080  149.9760 N   0  0  0  0  0  2  0  0  0  0  0  0
  162.0810  208.7000  148.7540 O   0  0  0  0  0  0  0  0  0  0  0  0
  160.4890  211.5940  152.3840 C   0  0  1  0  0  3  0  0  0  0  0  0
  161.4640  211.2710  151.2880 C   0  0  0  0  0  0  0  0  0  0  0  0
  162.4940  210.5810  151.5260 O   0  0  0  0  0  1  0  0  0  0  0  0
  161.2190  211.7260  149.9980 O   0  0  0  0  0  0  0  0  0  0  0  0
  159.3450  213.8400  152.6430 C   0  0  0  0  0  1  0  0  0  0  0  0
  159.3880  212.5360  151.8790 C   0  0  0  0  0  2  0  0  0  0  0  0
  1  3  1  0  0  0  0
  2 13  1  0  0  0  0
  3 10  2  0  0  0  0
  3  6  1  0  0  0  0
  5  8  1  0  0  0  0
  5  1  2  0  0  0  0
  8  9  2  0  0  0  0
  9  2  1  0  0  0  0
  9 10  1  0  0  0  0
 11 18  1  1  0  0  0
 11 14  1  0  0  0  0
 12 25  1  1  0  0  0
 12 11  1  0  0  0  0
 12  8  1  0  0  0  0
 13  7  2  0  0  0  0
 13  4  1  0  0  0  0
 14  2  1  0  0  0  0
 15 17  1  0  0  0  0
 16 15  2  0  0  0  0
 18 15  1  0  0  0  0
 19 18  1  0  0  0  0
 20 19  1  0  0  0  0
 21 22  1  0  0  0  0
 22 24  2  0  0  0  0
 22 23  1  0  0  0  0
 23 20  1  0  0  0  0
 25 30  1  6  0  0  0
 26 27  1  0  0  0  0
 26 25  1  0  0  0  0
 28 26  2  0  0  0  0
 30 29  1  0  0  0  0
M  END
>  <MODEL>
4

>  <REMARK>
 VINA RESULT:      -2.8     12.015     14.790
  Name = 
  7 active torsions:
  status: ('A' for Active; 'I' for Inactive)
    1  A    between atoms: C_2  and  C_30
    2  A    between atoms: N_15  and  C_27
    3  A    between atoms: C_21  and  N_28
    4  A    between atoms: C_22  and  C_30
    5  A    between atoms: C_23  and  C_27
    6  A    between atoms: C_23  and  N_28
    7  A    between atoms: C_24  and  C_30
                            x       y       z     vdW  Elec       q    Type
                         _______ _______ _______ _____ _____    ______ ____

>  <TORSDO>
F 7

$$$$
=
 OpenBabel11072411103D

 30 31  0  0  1  0  0  0  0  0999 V2000
  162.9100  210.9380  155.9980 N   0  0  0  0  0  0  0  0  0  0  0  0
  159.3840  210.6860  153.7410 N   0  0  0  0  0  0  0  0  0  0  0  0
  161.8970  211.8050  156.2700 C   0  0  0  0  0  0  0  0  0  0  0  0
  157.8550  211.2390  155.5760 O   0  0  0  0  0  1  0  0  0  0  0  0
  162.7870  209.9730  155.0440 C   0  0  0  0  0  3  0  0  0  0  0  0
  162.0690  212.8080  157.2600 N   0  0  0  0  0  1  0  0  0  0  0  0
  157.1080  211.1030  153.4230 O   0  0  0  0  0  0  0  0  0  0  0  0
  161.6020  209.8610  154.3150 C   0  0  0  0  0  0  0  0  0  0  0  0
  160.5500  210.7450  154.5730 C   0  0  0  0  0  0  0  0  0  0  0  0
  160.7020  211.7350  155.5520 C   0  0  0  0  0  3  0  0  0  0  0  0
  160.5890  209.2380  152.0890 C   0  0  1  0  0  3  0  0  0  0  0  0
  161.4200  208.7620  153.3060 C   0  0  2  0  0  3  0  0  0  0  0  0
  158.0760  211.0230  154.2230 C   0  0  0  0  0  0  0  0  0  0  0  0
  159.5740  210.3730  152.3280 C   0  0  0  0  0  2  0  0  0  0  0  0
  161.6180  208.5020  149.9320 C   0  0  0  0  0  0  0  0  0  0  0  0
  162.3830  208.6950  148.9490 O   0  0  0  0  0  0  0  0  0  0  0  0
  160.9410  207.2880  150.0330 O   0  0  0  0  0  1  0  0  0  0  0  0
  161.4360  209.5230  150.9300 N   0  0  0  0  0  0  0  0  0  0  0  0
  162.1730  210.7880  150.8500 C   0  0  0  0  0  2  0  0  0  0  0  0
  161.4360  211.7890  149.9750 C   0  0  0  0  0  2  0  0  0  0  0  0
  162.4980  212.9930  146.4550 C   0  0  0  0  0  1  0  0  0  0  0  0
  161.6610  212.7580  147.6600 C   0  0  0  0  0  0  0  0  0  0  0  0
  162.2150  212.0660  148.7790 N   0  0  0  0  0  2  0  0  0  0  0  0
  160.4720  213.1800  147.6880 O   0  0  0  0  0  0  0  0  0  0  0  0
  160.7890  207.5130  153.9450 C   0  0  1  0  0  3  0  0  0  0  0  0
  161.3630  206.2270  153.4230 C   0  0  0  0  0  0  0  0  0  0  0  0
  160.8280  205.1200  153.7100 O   0  0  0  0  0  1  0  0  0  0  0  0
  162.4870  206.2600  152.6060 O   0  0  0  0  0  0  0  0  0  0  0  0
  159.4980  207.0730  156.0810 C   0  0  0  0  0  1  0  0  0  0  0  0
  160.8060  207.5390  155.4790 C   0  0  0  0  0  2  0  0  0  0  0  0
  1  3  1  0  0  0  0
  2 13  1  0  0  0  0
  2  9  1  0  0  0  0
  3  6  1  0  0  0  0
  5  1  2  0  0  0  0
  7 13  2  0  0  0  0
  8  9  2  0  0  0  0
  8  5  1  0  0  0  0
  9 10  1  0  0  0  0
 10  3  2  0  0  0  0
 11 18  1  6  0  0  0
 11 14  1  0  0  0  0
 11 12  1  0  0  0  0
 12 25  1  1  0  0  0
 12  8  1  0  0  0  0
 13  4  1  0  0  0  0
 14  2  1  0  0  0  0
 15 17  1  0  0  0  0
 15 18  1  0  0  0  0
 16 15  2  0  0  0  0
 19 18  1  0  0  0  0
 20 19  1  0  0  0  0
 21 22  1  0  0  0  0
 22 24  2  0  0  0  0
 22 23  1  0  0  0  0
 23 20  1  0  0  0  0
 25 30  1  1  0  0  0
 26 27  1  0  0  0  0
 26 25  1  0  0  0  0
 28 26  2  0  0  0  0
 30 29  1  0  0  0  0
M  END
>  <MODEL>
5

>  <REMARK>
 VINA RESULT:      -2.6     11.453     14.643
  Name = 
  7 active torsions:
  status: ('A' for Active; 'I' for Inactive)
    1  A    between atoms: C_2  and  C_30
    2  A    between atoms: N_15  and  C_27
    3  A    between atoms: C_21  and  N_28
    4  A    between atoms: C_22  and  C_30
    5  A    between atoms: C_23  and  C_27
    6  A    between atoms: C_23  and  N_28
    7  A    between atoms: C_24  and  C_30
                            x       y       z     vdW  Elec       q    Type
                         _______ _______ _______ _____ _____    ______ ____

>  <TORSDO>
F 7

$$$$
=
 OpenBabel11072411103D

 30 31  0  0  1  0  0  0  0  0999 V2000
  163.0340  210.6970  155.9490 N   0  0  0  0  0  0  0  0  0  0  0  0
  159.5210  210.6080  153.6610 N   0  0  0  0  0  0  0  0  0  0  0  0
  162.0450  211.5840  156.2380 C   0  0  0  0  0  0  0  0  0  0  0  0
  157.9940  211.1510  155.5000 O   0  0  0  0  0  1  0  0  0  0  0  0
  162.8930  209.7630  154.9670 C   0  0  0  0  0  3  0  0  0  0  0  0
  162.2360  212.5530  157.2570 N   0  0  0  0  0  1  0  0  0  0  0  0
  157.2600  211.0970  153.3390 O   0  0  0  0  0  0  0  0  0  0  0  0
  161.7110  209.7050  154.2270 C   0  0  0  0  0  0  0  0  0  0  0  0
  160.6810  210.6110  154.5020 C   0  0  0  0  0  0  0  0  0  0  0  0
  160.8530  211.5680  155.5110 C   0  0  0  0  0  3  0  0  0  0  0  0
  160.6980  209.1740  151.9770 C   0  0  1  0  0  3  0  0  0  0  0  0
  161.5060  208.6410  153.1850 C   0  0  2  0  0  3  0  0  0  0  0  0
  158.2190  210.9670  154.1430 C   0  0  0  0  0  0  0  0  0  0  0  0
  159.7140  210.3300  152.2410 C   0  0  0  0  0  2  0  0  0  0  0  0
  161.6170  210.8160  150.3290 C   0  0  0  0  0  0  0  0  0  0  0  0
  162.3090  211.0930  149.3130 O   0  0  0  0  0  0  0  0  0  0  0  0
  160.9140  211.8360  150.9670 O   0  0  0  0  0  1  0  0  0  0  0  0
  161.5620  209.4680  150.8330 N   0  0  0  0  0  0  0  0  0  0  0  0
  162.2710  208.3840  150.1460 C   0  0  0  0  0  2  0  0  0  0  0  0
  161.3700  207.7090  149.1250 C   0  0  0  0  0  2  0  0  0  0  0  0
  161.1680  203.8660  148.7280 C   0  0  0  0  0  1  0  0  0  0  0  0
  161.2890  205.3040  148.3770 C   0  0  0  0  0  0  0  0  0  0  0  0
  161.2770  206.2870  149.4130 N   0  0  0  0  0  2  0  0  0  0  0  0
  161.4120  205.6450  147.1680 O   0  0  0  0  0  0  0  0  0  0  0  0
  160.8360  207.3920  153.7840 C   0  0  1  0  0  3  0  0  0  0  0  0
  161.4100  206.1060  153.2650 C   0  0  0  0  0  0  0  0  0  0  0  0
  160.8550  205.0020  153.5240 O   0  0  0  0  0  1  0  0  0  0  0  0
  162.5570  206.1340  152.4810 O   0  0  0  0  0  0  0  0  0  0  0  0
  159.3880  207.3830  155.8640 C   0  0  0  0  0  1  0  0  0  0  0  0
  160.7990  207.3970  155.3180 C   0  0  0  0  0  2  0  0  0  0  0  0
  1  3  1  0  0  0  0
  2 13  1  0  0  0  0
  2  9  1  0  0  0  0
  3  6  1  0  0  0  0
  5  1  2  0  0  0  0
  7 13  2  0  0  0  0
  8  9  2  0  0  0  0
  8  5  1  0  0  0  0
  9 10  1  0  0  0  0
 10  3  2  0  0  0  0
 11 18  1  6  0  0  0
 11 14  1  0  0  0  0
 11 12  1  0  0  0  0
 12 25  1  1  0  0  0
 12  8  1  0  0  0  0
 13  4  1  0  0  0  0
 14  2  1  0  0  0  0
 15 18  1  0  0  0  0
 15 17  1  0  0  0  0
 16 15  2  0  0  0  0
 19 18  1  0  0  0  0
 20 23  1  0  0  0  0
 20 19  1  0  0  0  0
 22 21  1  0  0  0  0
 22 23  1  0  0  0  0
 24 22  2  0  0  0  0
 25 30  1  1  0  0  0
 26 27  1  0  0  0  0
 26 25  1  0  0  0  0
 28 26  2  0  0  0  0
 30 29  1  0  0  0  0
M  END
>  <MODEL>
6

>  <REMARK>
 VINA RESULT:      -2.5     11.707     14.753
  Name = 
  7 active torsions:
  status: ('A' for Active; 'I' for Inactive)
    1  A    between atoms: C_2  and  C_30
    2  A    between atoms: N_15  and  C_27
    3  A    between atoms: C_21  and  N_28
    4  A    between atoms: C_22  and  C_30
    5  A    between atoms: C_23  and  C_27
    6  A    between atoms: C_23  and  N_28
    7  A    between atoms: C_24  and  C_30
                            x       y       z     vdW  Elec       q    Type
                         _______ _______ _______ _____ _____    ______ ____

>  <TORSDO>
F 7

$$$$
=
 OpenBabel11072411103D

 30 31  0  0  1  0  0  0  0  0999 V2000
  159.2710  207.9160  155.2640 N   0  0  0  0  0  0  0  0  0  0  0  0
  162.6980  210.2540  154.6550 N   0  0  0  0  0  0  0  0  0  0  0  0
  160.2830  207.8390  156.1700 C   0  0  0  0  0  0  0  0  0  0  0  0
  163.1140  210.7380  157.0210 O   0  0  0  0  0  1  0  0  0  0  0  0
  159.3310  208.7590  154.1960 C   0  0  0  0  0  3  0  0  0  0  0  0
  160.1920  206.9360  157.2610 N   0  0  0  0  0  1  0  0  0  0  0  0
  164.6400  211.3010  155.4210 O   0  0  0  0  0  0  0  0  0  0  0  0
  160.4540  209.5670  154.0080 C   0  0  0  0  0  0  0  0  0  0  0  0
  161.5100  209.5000  154.9230 C   0  0  0  0  0  0  0  0  0  0  0  0
  161.4290  208.6190  156.0090 C   0  0  0  0  0  3  0  0  0  0  0  0
  161.9450  210.6790  152.3030 C   0  0  1  0  0  3  0  0  0  0  0  0
  160.5120  210.5530  152.8750 C   0  0  2  0  0  3  0  0  0  0  0  0
  163.5300  210.7780  155.6990 C   0  0  0  0  0  0  0  0  0  0  0  0
  163.1160  210.3900  153.2630 C   0  0  0  0  0  2  0  0  0  0  0  0
  161.8860  210.6310  149.8030 C   0  0  0  0  0  0  0  0  0  0  0  0
  161.9560  210.0130  148.7070 O   0  0  0  0  0  0  0  0  0  0  0  0
  161.6140  211.9980  149.7930 O   0  0  0  0  0  1  0  0  0  0  0  0
  162.0960  209.9400  151.0490 N   0  0  0  0  0  0  0  0  0  0  0  0
  162.3480  208.4960  151.0690 C   0  0  0  0  0  2  0  0  0  0  0  0
  161.0450  207.7180  150.9870 C   0  0  0  0  0  2  0  0  0  0  0  0
  161.2270  204.3480  149.0960 C   0  0  0  0  0  1  0  0  0  0  0  0
  161.1110  205.3210  150.2120 C   0  0  0  0  0  0  0  0  0  0  0  0
  161.1320  206.7210  149.9320 N   0  0  0  0  0  2  0  0  0  0  0  0
  160.9850  204.9030  151.3960 O   0  0  0  0  0  0  0  0  0  0  0  0
  159.9690  211.9280  153.3000 C   0  0  1  0  0  3  0  0  0  0  0  0
  159.2980  212.6710  152.1820 C   0  0  0  0  0  0  0  0  0  0  0  0
  159.8350  213.6960  151.6750 O   0  0  0  0  0  0  0  0  0  0  0  0
  158.0800  212.2170  151.6910 O   0  0  0  0  0  1  0  0  0  0  0  0
  159.5830  212.7300  155.6730 C   0  0  0  0  0  1  0  0  0  0  0  0
  159.0670  211.8710  154.5400 C   0  0  0  0  0  2  0  0  0  0  0  0
  1  3  1  0  0  0  0
  2  9  1  0  0  0  0
  2 13  1  0  0  0  0
  3  6  1  0  0  0  0
  5  1  2  0  0  0  0
  7 13  2  0  0  0  0
  8  5  1  0  0  0  0
  8  9  2  0  0  0  0
  9 10  1  0  0  0  0
 10  3  2  0  0  0  0
 11 18  1  6  0  0  0
 11 12  1  0  0  0  0
 11 14  1  0  0  0  0
 12 25  1  1  0  0  0
 12  8  1  0  0  0  0
 13  4  1  0  0  0  0
 14  2  1  0  0  0  0
 15 18  1  0  0  0  0
 16 15  2  0  0  0  0
 17 15  1  0  0  0  0
 18 19  1  0  0  0  0
 20 19  1  0  0  0  0
 21 22  1  0  0  0  0
 22 24  2  0  0  0  0
 23 22  1  0  0  0  0
 23 20  1  0  0  0  0
 25 30  1  1  0  0  0
 26 25  1  0  0  0  0
 27 26  2  0  0  0  0
 28 26  1  0  0  0  0
 30 29  1  0  0  0  0
M  END
>  <MODEL>
7

>  <REMARK>
 VINA RESULT:      -2.4     11.770     14.836
  Name = 
  7 active torsions:
  status: ('A' for Active; 'I' for Inactive)
    1  A    between atoms: C_2  and  C_30
    2  A    between atoms: N_15  and  C_27
    3  A    between atoms: C_21  and  N_28
    4  A    between atoms: C_22  and  C_30
    5  A    between atoms: C_23  and  C_27
    6  A    between atoms: C_23  and  N_28
    7  A    between atoms: C_24  and  C_30
                            x       y       z     vdW  Elec       q    Type
                         _______ _______ _______ _____ _____    ______ ____

>  <TORSDO>
F 7

$$$$
=
 OpenBabel11072411103D

 30 31  0  0  1  0  0  0  0  0999 V2000
  160.2830  206.7840  155.2480 N   0  0  0  0  0  0  0  0  0  0  0  0
  160.5530  210.3650  153.0840 N   0  0  0  0  0  0  0  0  0  0  0  0
  160.7790  206.7450  153.9820 C   0  0  0  0  0  0  0  0  0  0  0  0
  162.6410  209.8170  151.9230 O   0  0  0  0  0  1  0  0  0  0  0  0
  159.9130  207.9560  155.8360 C   0  0  0  0  0  3  0  0  0  0  0  0
  161.1380  205.5020  153.3980 N   0  0  0  0  0  1  0  0  0  0  0  0
  161.4280  211.6630  151.3500 O   0  0  0  0  0  0  0  0  0  0  0  0
  160.0360  209.1560  155.1330 C   0  0  0  0  0  0  0  0  0  0  0  0
  160.5370  209.1400  153.8270 C   0  0  0  0  0  0  0  0  0  0  0  0
  160.9030  207.9220  153.2410 C   0  0  0  0  0  3  0  0  0  0  0  0
  159.0640  211.4580  154.7770 C   0  0  1  0  0  3  0  0  0  0  0  0
  159.6980  210.4670  155.7840 C   0  0  2  0  0  3  0  0  0  0  0  0
  161.5400  210.6460  152.0820 C   0  0  0  0  0  0  0  0  0  0  0  0
  159.4520  211.3000  153.2930 C   0  0  0  0  0  2  0  0  0  0  0  0
  157.0250  211.1490  156.1920 C   0  0  0  0  0  0  0  0  0  0  0  0
  155.7740  211.1570  156.3450 O   0  0  0  0  0  0  0  0  0  0  0  0
  157.8350  210.7690  157.2600 O   0  0  0  0  0  1  0  0  0  0  0  0
  157.6110  211.5390  154.9360 N   0  0  0  0  0  0  0  0  0  0  0  0
  156.7650  211.9070  153.7970 C   0  0  0  0  0  2  0  0  0  0  0  0
  156.8260  213.4020  153.5360 C   0  0  0  0  0  2  0  0  0  0  0  0
  155.8990  214.2630  149.8800 C   0  0  0  0  0  1  0  0  0  0  0  0
  156.7150  213.9120  151.0710 C   0  0  0  0  0  0  0  0  0  0  0  0
  156.0750  213.7240  152.3330 N   0  0  0  0  0  2  0  0  0  0  0  0
  157.9640  213.7730  150.9550 O   0  0  0  0  0  0  0  0  0  0  0  0
  160.9300  211.0900  156.4620 C   0  0  1  0  0  3  0  0  0  0  0  0
  162.2080  210.3680  156.1460 C   0  0  0  0  0  0  0  0  0  0  0  0
  162.5540  209.3500  156.8070 O   0  0  0  0  0  1  0  0  0  0  0  0
  163.0120  210.8200  155.1050 O   0  0  0  0  0  0  0  0  0  0  0  0
  160.3800  213.4330  157.2570 C   0  0  0  0  0  1  0  0  0  0  0  0
  161.0730  212.5960  156.2040 C   0  0  0  0  0  2  0  0  0  0  0  0
  1  5  1  0  0  0  0
  2 14  1  0  0  0  0
  2  9  1  0  0  0  0
  3  1  2  0  0  0  0
  4 13  1  0  0  0  0
  6  3  1  0  0  0  0
  7 13  2  0  0  0  0
  8 12  1  0  0  0  0
  8  5  2  0  0  0  0
  9  8  1  0  0  0  0
 10  9  2  0  0  0  0
 10  3  1  0  0  0  0
 11 18  1  6  0  0  0
 11 12  1  0  0  0  0
 12 25  1  6  0  0  0
 13  2  1  0  0  0  0
 14 11  1  0  0  0  0
 15 16  2  0  0  0  0
 15 17  1  0  0  0  0
 18 15  1  0  0  0  0
 19 18  1  0  0  0  0
 20 19  1  0  0  0  0
 21 22  1  0  0  0  0
 22 23  1  0  0  0  0
 23 20  1  0  0  0  0
 24 22  2  0  0  0  0
 25 30  1  6  0  0  0
 26 25  1  0  0  0  0
 26 27  1  0  0  0  0
 28 26  2  0  0  0  0
 30 29  1  0  0  0  0
M  END
>  <MODEL>
8

>  <REMARK>
 VINA RESULT:      -1.5     12.621     16.090
  Name = 
  7 active torsions:
  status: ('A' for Active; 'I' for Inactive)
    1  A    between atoms: C_2  and  C_30
    2  A    between atoms: N_15  and  C_27
    3  A    between atoms: C_21  and  N_28
    4  A    between atoms: C_22  and  C_30
    5  A    between atoms: C_23  and  C_27
    6  A    between atoms: C_23  and  N_28
    7  A    between atoms: C_24  and  C_30
                            x       y       z     vdW  Elec       q    Type
                         _______ _______ _______ _____ _____    ______ ____

>  <TORSDO>
F 7

$$$$
=
 OpenBabel11072411103D

 30 31  0  0  1  0  0  0  0  0999 V2000
  160.4780  205.6520  153.3700 N   0  0  0  0  0  0  0  0  0  0  0  0
  161.3480  209.5650  152.1390 N   0  0  0  0  0  0  0  0  0  0  0  0
  160.8270  205.8650  152.0720 C   0  0  0  0  0  0  0  0  0  0  0  0
  163.1340  208.9590  150.5730 O   0  0  0  0  0  0  0  0  0  0  0  0
  160.4440  206.6670  154.2770 C   0  0  0  0  0  3  0  0  0  0  0  0
  160.8340  204.7850  151.1520 N   0  0  0  0  0  1  0  0  0  0  0  0
  162.3240  211.0910  150.6650 O   0  0  0  0  0  1  0  0  0  0  0  0
  160.7690  207.9660  153.8810 C   0  0  0  0  0  0  0  0  0  0  0  0
  161.1250  208.2110  152.5510 C   0  0  0  0  0  0  0  0  0  0  0  0
  161.1440  207.1520  151.6340 C   0  0  0  0  0  3  0  0  0  0  0  0
  160.3190  210.4200  154.2570 C   0  0  1  0  0  3  0  0  0  0  0  0
  160.8040  209.0890  154.8800 C   0  0  2  0  0  3  0  0  0  0  0  0
  162.2720  209.9110  151.0980 C   0  0  0  0  0  0  0  0  0  0  0  0
  160.5150  210.6030  152.7390 C   0  0  0  0  0  2  0  0  0  0  0  0
  158.6190  210.7910  156.0540 C   0  0  0  0  0  0  0  0  0  0  0  0
  157.4360  211.0080  156.4290 O   0  0  0  0  0  0  0  0  0  0  0  0
  159.6120  210.6150  157.0160 O   0  0  0  0  0  1  0  0  0  0  0  0
  158.9460  210.7370  154.6530 N   0  0  0  0  0  0  0  0  0  0  0  0
  157.9010  210.8850  153.6350 C   0  0  0  0  0  2  0  0  0  0  0  0
  157.4870  212.3410  153.4920 C   0  0  0  0  0  2  0  0  0  0  0  0
  159.6110  214.4450  151.0360 C   0  0  0  0  0  1  0  0  0  0  0  0
  158.4610  213.6930  151.6020 C   0  0  0  0  0  0  0  0  0  0  0  0
  158.5720  213.1060  152.8980 N   0  0  0  0  0  2  0  0  0  0  0  0
  157.3930  213.5890  150.9370 O   0  0  0  0  0  0  0  0  0  0  0  0
  162.2060  209.2500  155.4930 C   0  0  1  0  0  3  0  0  0  0  0  0
  162.6960  210.6690  155.4850 C   0  0  0  0  0  0  0  0  0  0  0  0
  163.4690  211.0790  154.5750 O   0  0  0  0  0  0  0  0  0  0  0  0
  162.2830  211.5420  156.4840 O   0  0  0  0  0  1  0  0  0  0  0  0
  161.1410  207.7800  157.2610 C   0  0  0  0  0  1  0  0  0  0  0  0
  162.3350  208.6330  156.8910 C   0  0  0  0  0  2  0  0  0  0  0  0
  1  5  1  0  0  0  0
  2  9  1  0  0  0  0
  2 14  1  0  0  0  0
  3  1  2  0  0  0  0
  4 13  2  0  0  0  0
  6  3  1  0  0  0  0
  7 13  1  0  0  0  0
  8  5  2  0  0  0  0
  8 12  1  0  0  0  0
  9  8  1  0  0  0  0
 10  3  1  0  0  0  0
 10  9  2  0  0  0  0
 11 18  1  6  0  0  0
 11 12  1  0  0  0  0
 12 25  1  6  0  0  0
 13  2  1  0  0  0  0
 14 11  1  0  0  0  0
 15 16  2  0  0  0  0
 15 17  1  0  0  0  0
 18 15  1  0  0  0  0
 19 18  1  0  0  0  0
 20 19  1  0  0  0  0
 21 22  1  0  0  0  0
 22 23  1  0  0  0  0
 23 20  1  0  0  0  0
 24 22  2  0  0  0  0
 25 30  1  1  0  0  0
 26 25  1  0  0  0  0
 26 28  1  0  0  0  0
 27 26  2  0  0  0  0
 30 29  1  0  0  0  0
M  END
>  <MODEL>
9

>  <REMARK>
 VINA RESULT:      -1.3     12.534     15.696
  Name = 
  7 active torsions:
  status: ('A' for Active; 'I' for Inactive)
    1  A    between atoms: C_2  and  C_30
    2  A    between atoms: N_15  and  C_27
    3  A    between atoms: C_21  and  N_28
    4  A    between atoms: C_22  and  C_30
    5  A    between atoms: C_23  and  C_27
    6  A    between atoms: C_23  and  N_28
    7  A    between atoms: C_24  and  C_30
                            x       y       z     vdW  Elec       q    Type
                         _______ _______ _______ _____ _____    ______ ____

>  <TORSDO>
F 7

$$$$
