=
 OpenBabel11072414393D

 26 29  0  0  1  0  0  0  0  0999 V2000
  160.5690  207.7080  151.5370 N   0  0  0  0  0  2  0  0  0  0  0  0
  162.3540  209.4160  151.7640 C   0  0  0  0  0  2  0  0  0  0  0  0
  159.8300  210.5410  153.0960 N   0  0  0  0  0  2  0  0  0  0  0  0
  160.8110  211.2960  152.3280 C   0  0  0  0  0  2  0  0  0  0  0  0
  161.6250  208.2310  152.3990 C   0  0  1  0  0  3  0  0  0  0  0  0
  161.1000  208.5080  153.7750 C   0  0  0  0  0  0  0  0  0  0  0  0
  161.3970  210.4590  151.2100 C   0  0  0  0  0  2  0  0  0  0  0  0
  159.6100  209.6230  155.3490 C   0  0  0  0  0  0  0  0  0  0  0  0
  160.8810  207.6860  156.0500 C   0  0  0  0  0  3  0  0  0  0  0  0
  161.4330  207.5860  154.7740 C   0  0  0  0  0  3  0  0  0  0  0  0
  160.1880  209.5520  154.0690 C   0  0  0  0  0  0  0  0  0  0  0  0
  159.9670  208.7000  156.3350 C   0  0  0  0  0  3  0  0  0  0  0  0
  158.4590  210.8840  155.7590 Cl  0  0  0  0  0  0  0  0  0  0  0  0
  160.9480  203.5390  152.0210 C   0  0  0  0  0  3  0  0  0  0  0  0
  160.8830  205.3560  150.9180 C   0  0  0  0  0  0  0  0  0  0  0  0
  161.2190  204.6420  148.6370 C   0  0  0  0  0  0  0  0  0  0  0  0
  160.7990  204.8480  152.1180 O   0  0  0  0  0  0  0  0  0  0  0  0
  161.1400  203.1700  150.6870 C   0  0  0  0  0  3  0  0  0  0  0  0
  161.0920  204.3660  150.0030 C   0  0  0  0  0  0  0  0  0  0  0  0
  160.7860  206.6970  150.5470 C   0  0  0  0  0  0  0  0  0  0  0  0
  161.1340  205.9860  148.2300 C   0  0  0  0  0  3  0  0  0  0  0  0
  160.9170  207.0080  149.1780 C   0  0  0  0  0  3  0  0  0  0  0  0
  161.4690  203.5640  147.6370 C   0  0  0  0  0  2  0  0  0  0  0  0
  162.1590  204.1390  146.4120 C   0  0  0  0  0  2  0  0  0  0  0  0
  161.2600  204.0290  145.1950 C   0  0  0  0  0  2  0  0  0  0  0  0
  161.1690  205.3640  144.4800 C   0  0  0  0  0  1  0  0  0  0  0  0
  2  5  1  0  0  0  0
  3 11  1  0  0  0  0
  4  3  1  0  0  0  0
  5  1  1  6  0  0  0
  5  6  1  0  0  0  0
  6 11  2  0  0  0  0
  6 10  1  0  0  0  0
  7  2  1  0  0  0  0
  7  4  1  0  0  0  0
  8 13  1  0  0  0  0
  8 12  2  0  0  0  0
  9 12  1  0  0  0  0
 10  9  2  0  0  0  0
 11  8  1  0  0  0  0
 14 17  1  0  0  0  0
 15 17  1  0  0  0  0
 16 19  1  0  0  0  0
 18 14  2  0  0  0  0
 19 18  1  0  0  0  0
 19 15  2  0  0  0  0
 20 15  1  0  0  0  0
 20  1  1  0  0  0  0
 21 16  2  0  0  0  0
 21 22  1  0  0  0  0
 22 20  2  0  0  0  0
 23 16  1  0  0  0  0
 24 23  1  0  0  0  0
 25 24  1  0  0  0  0
 26 25  1  0  0  0  0
M  END
>  <MODEL>
1

>  <REMARK>
 VINA RESULT:      -8.3      0.000      0.000
  Name = 
  5 active torsions:
  status: ('A' for Active; 'I' for Inactive)
    1  A    between atoms: C_5  and  N_9
    2  A    between atoms: C_7  and  C_18
    3  A    between atoms: N_9  and  C_14
    4  A    between atoms: C_10  and  C_12
    5  A    between atoms: C_10  and  C_18
                            x       y       z     vdW  Elec       q    Type
                         _______ _______ _______ _____ _____    ______ ____

>  <TORSDO>
F 5

$$$$
=
 OpenBabel11072414393D

 26 29  0  0  1  0  0  0  0  0999 V2000
  160.7060  206.0900  150.8950 N   0  0  0  0  0  2  0  0  0  0  0  0
  162.9740  207.0580  151.1650 C   0  0  0  0  0  2  0  0  0  0  0  0
  160.9480  209.2800  151.7730 N   0  0  0  0  0  2  0  0  0  0  0  0
  162.2240  209.4390  151.0900 C   0  0  0  0  0  2  0  0  0  0  0  0
  161.7760  206.3900  151.8410 C   0  0  1  0  0  3  0  0  0  0  0  0
  161.2460  207.1450  153.0220 C   0  0  0  0  0  0  0  0  0  0  0  0
  162.5640  208.2140  150.2670 C   0  0  0  0  0  2  0  0  0  0  0  0
  160.1350  209.0470  154.0660 C   0  0  0  0  0  0  0  0  0  0  0  0
  160.4690  207.0040  155.3190 C   0  0  0  0  0  3  0  0  0  0  0  0
  161.0810  206.4230  154.2100 C   0  0  0  0  0  3  0  0  0  0  0  0
  160.7820  208.4820  152.9520 C   0  0  0  0  0  0  0  0  0  0  0  0
  159.9930  208.3120  155.2450 C   0  0  0  0  0  3  0  0  0  0  0  0
  159.5230  210.6920  154.0230 Cl  0  0  0  0  0  0  0  0  0  0  0  0
  160.8260  201.9210  150.2950 C   0  0  0  0  0  3  0  0  0  0  0  0
  160.9110  203.9600  149.6980 C   0  0  0  0  0  0  0  0  0  0  0  0
  161.2990  203.8330  147.3190 C   0  0  0  0  0  0  0  0  0  0  0  0
  160.7480  203.1680  150.7240 O   0  0  0  0  0  0  0  0  0  0  0  0
  161.0510  201.8930  148.9170 C   0  0  0  0  0  3  0  0  0  0  0  0
  161.1000  203.2260  148.5640 C   0  0  0  0  0  0  0  0  0  0  0  0
  160.9060  205.3550  149.6840 C   0  0  0  0  0  0  0  0  0  0  0  0
  161.3080  205.2400  147.2710 C   0  0  0  0  0  3  0  0  0  0  0  0
  161.1110  205.9960  148.4450 C   0  0  0  0  0  3  0  0  0  0  0  0
  161.5290  203.0340  146.0810 C   0  0  0  0  0  2  0  0  0  0  0  0
  160.7040  203.5970  144.9360 C   0  0  0  0  0  2  0  0  0  0  0  0
  159.5700  202.6510  144.5840 C   0  0  0  0  0  2  0  0  0  0  0  0
  159.9200  201.2310  144.9880 C   0  0  0  0  0  1  0  0  0  0  0  0
  2  5  1  0  0  0  0
  3 11  1  0  0  0  0
  4  3  1  0  0  0  0
  5  1  1  6  0  0  0
  5  6  1  0  0  0  0
  6 10  1  0  0  0  0
  7  4  1  0  0  0  0
  7  2  1  0  0  0  0
  8 12  2  0  0  0  0
 10  9  2  0  0  0  0
 11  6  2  0  0  0  0
 11  8  1  0  0  0  0
 12  9  1  0  0  0  0
 13  8  1  0  0  0  0
 14 17  1  0  0  0  0
 15 17  1  0  0  0  0
 16 19  1  0  0  0  0
 18 14  2  0  0  0  0
 19 18  1  0  0  0  0
 19 15  2  0  0  0  0
 20 15  1  0  0  0  0
 20  1  1  0  0  0  0
 21 16  2  0  0  0  0
 21 22  1  0  0  0  0
 22 20  2  0  0  0  0
 23 16  1  0  0  0  0
 24 23  1  0  0  0  0
 25 24  1  0  0  0  0
 25 26  1  0  0  0  0
M  END
>  <MODEL>
2

>  <REMARK>
 VINA RESULT:      -8.3      1.533      2.050
  Name = 
  5 active torsions:
  status: ('A' for Active; 'I' for Inactive)
    1  A    between atoms: C_5  and  N_9
    2  A    between atoms: C_7  and  C_18
    3  A    between atoms: N_9  and  C_14
    4  A    between atoms: C_10  and  C_12
    5  A    between atoms: C_10  and  C_18
                            x       y       z     vdW  Elec       q    Type
                         _______ _______ _______ _____ _____    ______ ____

>  <TORSDO>
F 5

$$$$
=
 OpenBabel11072414393D

 26 29  0  0  1  0  0  0  0  0999 V2000
  160.6450  207.1110  151.2600 N   0  0  0  0  0  2  0  0  0  0  0  0
  162.6020  208.6250  151.4480 C   0  0  0  0  0  2  0  0  0  0  0  0
  160.1570  210.1470  152.5040 N   0  0  0  0  0  2  0  0  0  0  0  0
  161.2590  210.7100  151.7360 C   0  0  0  0  0  2  0  0  0  0  0  0
  161.7060  207.5960  152.1390 C   0  0  1  0  0  3  0  0  0  0  0  0
  161.1410  208.0620  153.4460 C   0  0  0  0  0  0  0  0  0  0  0  0
  161.8040  209.7080  150.7400 C   0  0  0  0  0  2  0  0  0  0  0  0
  159.7080  209.4830  154.8120 C   0  0  0  0  0  0  0  0  0  0  0  0
  160.7040  207.4960  155.7670 C   0  0  0  0  0  3  0  0  0  0  0  0
  161.3100  207.2110  154.5450 C   0  0  0  0  0  3  0  0  0  0  0  0
  160.3420  209.2240  153.5840 C   0  0  0  0  0  0  0  0  0  0  0  0
  159.9000  208.6270  155.8990 C   0  0  0  0  0  3  0  0  0  0  0  0
  158.6910  210.8980  155.0290 Cl  0  0  0  0  0  0  0  0  0  0  0  0
  161.3550  206.8660  147.1140 C   0  0  0  0  0  3  0  0  0  0  0  0
  161.0120  206.0870  149.0620 C   0  0  0  0  0  0  0  0  0  0  0  0
  161.0410  203.6980  148.7260 C   0  0  0  0  0  0  0  0  0  0  0  0
  161.1430  207.1910  148.3760 O   0  0  0  0  0  0  0  0  0  0  0  0
  161.3630  205.4770  146.9640 C   0  0  0  0  0  3  0  0  0  0  0  0
  161.1390  205.0060  148.2400 C   0  0  0  0  0  0  0  0  0  0  0  0
  160.7750  205.9520  150.4300 C   0  0  0  0  0  0  0  0  0  0  0  0
  160.7930  203.5260  150.1010 C   0  0  0  0  0  3  0  0  0  0  0  0
  160.6630  204.6460  150.9480 C   0  0  0  0  0  3  0  0  0  0  0  0
  161.1570  202.5140  147.8270 C   0  0  0  0  0  2  0  0  0  0  0  0
  161.1820  201.2350  148.6470 C   0  0  0  0  0  2  0  0  0  0  0  0
  161.5230  200.0460  147.7670 C   0  0  0  0  0  2  0  0  0  0  0  0
  161.0980  200.3090  146.3350 C   0  0  0  0  0  1  0  0  0  0  0  0
  2  5  1  0  0  0  0
  3 11  1  0  0  0  0
  4  3  1  0  0  0  0
  5  1  1  6  0  0  0
  5  6  1  0  0  0  0
  6 11  2  0  0  0  0
  6 10  1  0  0  0  0
  7  2  1  0  0  0  0
  7  4  1  0  0  0  0
  8 13  1  0  0  0  0
  8 12  2  0  0  0  0
  9 12  1  0  0  0  0
 10  9  2  0  0  0  0
 11  8  1  0  0  0  0
 14 17  1  0  0  0  0
 15 20  1  0  0  0  0
 16 21  2  0  0  0  0
 17 15  1  0  0  0  0
 18 14  2  0  0  0  0
 18 19  1  0  0  0  0
 19 16  1  0  0  0  0
 19 15  2  0  0  0  0
 20 22  2  0  0  0  0
 20  1  1  0  0  0  0
 21 22  1  0  0  0  0
 23 24  1  0  0  0  0
 23 16  1  0  0  0  0
 25 24  1  0  0  0  0
 26 25  1  0  0  0  0
M  END
>  <MODEL>
3

>  <REMARK>
 VINA RESULT:      -8.0      1.589      2.595
  Name = 
  5 active torsions:
  status: ('A' for Active; 'I' for Inactive)
    1  A    between atoms: C_5  and  N_9
    2  A    between atoms: C_7  and  C_18
    3  A    between atoms: N_9  and  C_14
    4  A    between atoms: C_10  and  C_12
    5  A    between atoms: C_10  and  C_18
                            x       y       z     vdW  Elec       q    Type
                         _______ _______ _______ _____ _____    ______ ____

>  <TORSDO>
F 5

$$$$
=
 OpenBabel11072414393D

 26 29  0  0  1  0  0  0  0  0999 V2000
  160.7190  207.9800  152.1110 N   0  0  0  0  0  2  0  0  0  0  0  0
  162.2200  209.9530  152.2060 C   0  0  0  0  0  2  0  0  0  0  0  0
  159.5230  210.7920  153.4020 N   0  0  0  0  0  2  0  0  0  0  0  0
  160.3970  211.6180  152.5810 C   0  0  0  0  0  2  0  0  0  0  0  0
  161.6620  208.7310  152.9350 C   0  0  1  0  0  3  0  0  0  0  0  0
  161.0660  209.0420  154.2750 C   0  0  0  0  0  0  0  0  0  0  0  0
  161.1310  210.7860  151.5500 C   0  0  0  0  0  2  0  0  0  0  0  0
  159.3870  210.0490  155.7260 C   0  0  0  0  0  0  0  0  0  0  0  0
  160.9160  208.3970  156.6120 C   0  0  0  0  0  3  0  0  0  0  0  0
  161.5100  208.2720  155.3560 C   0  0  0  0  0  3  0  0  0  0  0  0
  160.0000  209.9570  154.4640 C   0  0  0  0  0  0  0  0  0  0  0  0
  159.8540  209.2800  156.7940 C   0  0  0  0  0  3  0  0  0  0  0  0
  158.0490  211.1510  156.0080 Cl  0  0  0  0  0  0  0  0  0  0  0  0
  160.8690  206.2660  148.2650 C   0  0  0  0  0  3  0  0  0  0  0  0
  160.9310  206.2470  150.3900 C   0  0  0  0  0  0  0  0  0  0  0  0
  161.2890  203.9200  150.9210 C   0  0  0  0  0  0  0  0  0  0  0  0
  160.7880  207.0190  149.3470 O   0  0  0  0  0  0  0  0  0  0  0  0
  161.0760  204.9300  148.6170 C   0  0  0  0  0  3  0  0  0  0  0  0
  161.1110  204.9530  149.9950 C   0  0  0  0  0  0  0  0  0  0  0  0
  160.9120  206.6130  151.7360 C   0  0  0  0  0  0  0  0  0  0  0  0
  161.2670  204.2540  152.2880 C   0  0  0  0  0  3  0  0  0  0  0  0
  161.0820  205.5920  152.6930 C   0  0  0  0  0  3  0  0  0  0  0  0
  161.4640  202.5020  150.4940 C   0  0  0  0  0  2  0  0  0  0  0  0
  160.1080  201.8390  150.3140 C   0  0  0  0  0  2  0  0  0  0  0  0
  159.9180  201.4030  148.8730 C   0  0  0  0  0  2  0  0  0  0  0  0
  161.2500  201.0240  148.2540 C   0  0  0  0  0  1  0  0  0  0  0  0
  2  5  1  0  0  0  0
  3 11  1  0  0  0  0
  4  3  1  0  0  0  0
  5  1  1  6  0  0  0
  5  6  1  0  0  0  0
  6 11  2  0  0  0  0
  6 10  1  0  0  0  0
  7  2  1  0  0  0  0
  7  4  1  0  0  0  0
  8 13  1  0  0  0  0
  8 12  2  0  0  0  0
  9 12  1  0  0  0  0
 10  9  2  0  0  0  0
 11  8  1  0  0  0  0
 14 18  2  0  0  0  0
 14 17  1  0  0  0  0
 15 20  1  0  0  0  0
 16 21  2  0  0  0  0
 17 15  1  0  0  0  0
 18 19  1  0  0  0  0
 19 15  2  0  0  0  0
 19 16  1  0  0  0  0
 20  1  1  0  0  0  0
 20 22  2  0  0  0  0
 21 22  1  0  0  0  0
 23 16  1  0  0  0  0
 24 23  1  0  0  0  0
 25 24  1  0  0  0  0
 26 25  1  0  0  0  0
M  END
>  <MODEL>
4

>  <REMARK>
 VINA RESULT:      -7.9      1.525      2.626
  Name = 
  5 active torsions:
  status: ('A' for Active; 'I' for Inactive)
    1  A    between atoms: C_5  and  N_9
    2  A    between atoms: C_7  and  C_18
    3  A    between atoms: N_9  and  C_14
    4  A    between atoms: C_10  and  C_12
    5  A    between atoms: C_10  and  C_18
                            x       y       z     vdW  Elec       q    Type
                         _______ _______ _______ _____ _____    ______ ____

>  <TORSDO>
F 5

$$$$
=
 OpenBabel11072414393D

 26 29  0  0  1  0  0  0  0  0999 V2000
  160.7560  209.1480  154.3000 N   0  0  0  0  0  2  0  0  0  0  0  0
  160.8700  208.7940  156.7530 C   0  0  0  0  0  2  0  0  0  0  0  0
  161.2480  211.7940  156.2390 N   0  0  0  0  0  2  0  0  0  0  0  0
  161.9180  211.0020  157.2610 C   0  0  0  0  0  2  0  0  0  0  0  0
  159.9980  209.1480  155.5480 C   0  0  1  0  0  3  0  0  0  0  0  0
  159.2340  210.4280  155.7070 C   0  0  0  0  0  0  0  0  0  0  0  0
  162.1670  209.5870  156.7850 C   0  0  0  0  0  2  0  0  0  0  0  0
  159.0720  212.8520  155.9020 C   0  0  0  0  0  0  0  0  0  0  0  0
  157.0910  211.5400  155.4460 C   0  0  0  0  0  3  0  0  0  0  0  0
  157.8580  210.3760  155.4570 C   0  0  0  0  0  3  0  0  0  0  0  0
  159.8500  211.6810  155.9490 C   0  0  0  0  0  0  0  0  0  0  0  0
  157.6980  212.7750  155.6640 C   0  0  0  0  0  3  0  0  0  0  0  0
  159.7890  214.4310  156.1750 Cl  0  0  0  0  0  0  0  0  0  0  0  0
  162.0750  208.7700  150.3160 C   0  0  0  0  0  3  0  0  0  0  0  0
  161.4700  208.0550  152.2250 C   0  0  0  0  0  0  0  0  0  0  0  0
  161.6120  205.6560  151.9970 C   0  0  0  0  0  0  0  0  0  0  0  0
  161.6710  209.1350  151.5190 O   0  0  0  0  0  0  0  0  0  0  0  0
  162.1430  207.3770  150.2280 C   0  0  0  0  0  3  0  0  0  0  0  0
  161.7460  206.9470  151.4770 C   0  0  0  0  0  0  0  0  0  0  0  0
  161.0380  207.9640  153.5480 C   0  0  0  0  0  0  0  0  0  0  0  0
  161.1700  205.5290  153.3270 C   0  0  0  0  0  3  0  0  0  0  0  0
  160.8870  206.6750  154.0990 C   0  0  0  0  0  3  0  0  0  0  0  0
  161.8920  204.4430  151.1760 C   0  0  0  0  0  2  0  0  0  0  0  0
  160.6670  203.5450  151.1370 C   0  0  0  0  0  2  0  0  0  0  0  0
  160.5540  202.8600  149.7870 C   0  0  0  0  0  2  0  0  0  0  0  0
  161.1320  203.7420  148.6960 C   0  0  0  0  0  1  0  0  0  0  0  0
  2  7  1  0  0  0  0
  3  4  1  0  0  0  0
  5  1  1  6  0  0  0
  5  6  1  0  0  0  0
  5  2  1  0  0  0  0
  6 11  1  0  0  0  0
  7  4  1  0  0  0  0
  8 11  2  0  0  0  0
  8 13  1  0  0  0  0
  9 10  1  0  0  0  0
  9 12  2  0  0  0  0
 10  6  2  0  0  0  0
 11  3  1  0  0  0  0
 12  8  1  0  0  0  0
 14 17  1  0  0  0  0
 15 20  1  0  0  0  0
 16 21  2  0  0  0  0
 17 15  1  0  0  0  0
 18 14  2  0  0  0  0
 18 19  1  0  0  0  0
 19 16  1  0  0  0  0
 19 15  2  0  0  0  0
 20 22  2  0  0  0  0
 20  1  1  0  0  0  0
 21 22  1  0  0  0  0
 23 16  1  0  0  0  0
 24 23  1  0  0  0  0
 25 24  1  0  0  0  0
 26 25  1  0  0  0  0
M  END
>  <MODEL>
5

>  <REMARK>
 VINA RESULT:      -7.4      2.269      4.313
  Name = 
  5 active torsions:
  status: ('A' for Active; 'I' for Inactive)
    1  A    between atoms: C_5  and  N_9
    2  A    between atoms: C_7  and  C_18
    3  A    between atoms: N_9  and  C_14
    4  A    between atoms: C_10  and  C_12
    5  A    between atoms: C_10  and  C_18
                            x       y       z     vdW  Elec       q    Type
                         _______ _______ _______ _____ _____    ______ ____

>  <TORSDO>
F 5

$$$$
=
 OpenBabel11072414393D

 26 29  0  0  1  0  0  0  0  0999 V2000
  161.2910  207.7790  153.5540 N   0  0  0  0  0  2  0  0  0  0  0  0
  159.7500  207.1490  155.3940 C   0  0  0  0  0  2  0  0  0  0  0  0
  161.8260  209.0850  156.5570 N   0  0  0  0  0  2  0  0  0  0  0  0
  161.2460  207.9330  157.2330 C   0  0  0  0  0  2  0  0  0  0  0  0
  160.0850  208.1510  154.2890 C   0  0  1  0  0  3  0  0  0  0  0  0
  160.1680  209.5710  154.7620 C   0  0  0  0  0  0  0  0  0  0  0  0
  160.9550  206.8120  156.2580 C   0  0  0  0  0  2  0  0  0  0  0  0
  161.1930  211.3850  156.0270 C   0  0  0  0  0  0  0  0  0  0  0  0
  159.5390  211.8770  154.3310 C   0  0  0  0  0  3  0  0  0  0  0  0
  159.4200  210.5170  154.0510 C   0  0  0  0  0  3  0  0  0  0  0  0
  161.0560  210.0080  155.7770 C   0  0  0  0  0  0  0  0  0  0  0  0
  160.4270  212.3100  155.3140 C   0  0  0  0  0  3  0  0  0  0  0  0
  162.2940  211.9790  157.2580 Cl  0  0  0  0  0  0  0  0  0  0  0  0
  160.8560  203.7560  152.3820 C   0  0  0  0  0  3  0  0  0  0  0  0
  161.1150  205.8420  152.0620 C   0  0  0  0  0  0  0  0  0  0  0  0
  161.2280  206.0330  149.6590 C   0  0  0  0  0  0  0  0  0  0  0  0
  160.9710  204.9260  152.9830 O   0  0  0  0  0  0  0  0  0  0  0  0
  160.9270  203.9110  150.9950 C   0  0  0  0  0  3  0  0  0  0  0  0
  161.0940  205.2700  150.8240 C   0  0  0  0  0  0  0  0  0  0  0  0
  161.2720  207.2160  152.2390 C   0  0  0  0  0  0  0  0  0  0  0  0
  161.3970  207.4220  149.8030 C   0  0  0  0  0  3  0  0  0  0  0  0
  161.4170  208.0110  151.0840 C   0  0  0  0  0  3  0  0  0  0  0  0
  161.2280  205.4080  148.3050 C   0  0  0  0  0  2  0  0  0  0  0  0
  161.4250  206.4730  147.2390 C   0  0  0  0  0  2  0  0  0  0  0  0
  161.7520  205.8310  145.9030 C   0  0  0  0  0  2  0  0  0  0  0  0
  162.9220  204.8760  146.0460 C   0  0  0  0  0  1  0  0  0  0  0  0
  2  7  1  0  0  0  0
  3  4  1  0  0  0  0
  5  1  1  1  0  0  0
  5  6  1  0  0  0  0
  5  2  1  0  0  0  0
  6 11  1  0  0  0  0
  7  4  1  0  0  0  0
  8 13  1  0  0  0  0
  9 12  2  0  0  0  0
 10  9  1  0  0  0  0
 10  6  2  0  0  0  0
 11  8  2  0  0  0  0
 11  3  1  0  0  0  0
 12  8  1  0  0  0  0
 14 17  1  0  0  0  0
 15 20  1  0  0  0  0
 15 17  1  0  0  0  0
 16 21  2  0  0  0  0
 16 19  1  0  0  0  0
 18 14  2  0  0  0  0
 19 18  1  0  0  0  0
 19 15  2  0  0  0  0
 20  1  1  0  0  0  0
 21 22  1  0  0  0  0
 22 20  2  0  0  0  0
 23 16  1  0  0  0  0
 24 23  1  0  0  0  0
 25 26  1  0  0  0  0
 25 24  1  0  0  0  0
M  END
>  <MODEL>
6

>  <REMARK>
 VINA RESULT:      -7.0      1.806      3.101
  Name = 
  5 active torsions:
  status: ('A' for Active; 'I' for Inactive)
    1  A    between atoms: C_5  and  N_9
    2  A    between atoms: C_7  and  C_18
    3  A    between atoms: N_9  and  C_14
    4  A    between atoms: C_10  and  C_12
    5  A    between atoms: C_10  and  C_18
                            x       y       z     vdW  Elec       q    Type
                         _______ _______ _______ _____ _____    ______ ____

>  <TORSDO>
F 5

$$$$
=
 OpenBabel11072414393D

 26 29  0  0  1  0  0  0  0  0999 V2000
  161.8180  210.9640  148.3490 N   0  0  0  0  0  2  0  0  0  0  0  0
  162.8990  213.1490  147.8840 C   0  0  0  0  0  2  0  0  0  0  0  0
  160.1690  213.1570  146.4850 N   0  0  0  0  0  2  0  0  0  0  0  0
  161.3980  213.7520  145.9810 C   0  0  0  0  0  2  0  0  0  0  0  0
  161.9440  212.3550  148.7760 C   0  0  1  0  0  3  0  0  0  0  0  0
  160.5930  212.9870  148.9330 C   0  0  0  0  0  0  0  0  0  0  0  0
  162.6110  212.9510  146.4040 C   0  0  0  0  0  2  0  0  0  0  0  0
  158.4190  213.7030  148.1000 C   0  0  0  0  0  0  0  0  0  0  0  0
  158.8280  213.6050  150.4820 C   0  0  0  0  0  3  0  0  0  0  0  0
  160.1250  213.1530  150.2410 C   0  0  0  0  0  3  0  0  0  0  0  0
  159.7350  213.2810  147.8450 C   0  0  0  0  0  0  0  0  0  0  0  0
  157.9750  213.8750  149.4130 C   0  0  0  0  0  3  0  0  0  0  0  0
  157.3090  214.0600  146.7870 Cl  0  0  0  0  0  0  0  0  0  0  0  0
  161.5960  206.8410  147.5090 C   0  0  0  0  0  3  0  0  0  0  0  0
  161.8500  208.5460  148.7530 C   0  0  0  0  0  0  0  0  0  0  0  0
  162.2260  207.5950  150.9400 C   0  0  0  0  0  0  0  0  0  0  0  0
  161.6230  208.1610  147.5260 O   0  0  0  0  0  0  0  0  0  0  0  0
  161.8170  206.3330  148.7910 C   0  0  0  0  0  3  0  0  0  0  0  0
  161.9770  207.4600  149.5700 C   0  0  0  0  0  0  0  0  0  0  0  0
  161.9590  209.8500  149.2360 C   0  0  0  0  0  0  0  0  0  0  0  0
  162.3330  208.8980  151.4600 C   0  0  0  0  0  3  0  0  0  0  0  0
  162.2030  210.0190  150.6140 C   0  0  0  0  0  3  0  0  0  0  0  0
  162.3430  206.4110  151.8390 C   0  0  0  0  0  2  0  0  0  0  0  0
  160.9700  205.8130  152.0970 C   0  0  0  0  0  2  0  0  0  0  0  0
  161.0740  204.3130  152.2990 C   0  0  0  0  0  2  0  0  0  0  0  0
  160.8340  203.5840  150.9900 C   0  0  0  0  0  1  0  0  0  0  0  0
  1 20  1  0  0  0  0
  2  5  1  0  0  0  0
  3 11  1  0  0  0  0
  4  7  1  0  0  0  0
  4  3  1  0  0  0  0
  5  1  1  6  0  0  0
  5  6  1  0  0  0  0
  6 10  1  0  0  0  0
  7  2  1  0  0  0  0
  8 12  2  0  0  0  0
 10  9  2  0  0  0  0
 11  8  1  0  0  0  0
 11  6  2  0  0  0  0
 12  9  1  0  0  0  0
 13  8  1  0  0  0  0
 14 17  1  0  0  0  0
 14 18  2  0  0  0  0
 15 20  2  0  0  0  0
 15 19  1  0  0  0  0
 16 21  1  0  0  0  0
 16 23  1  0  0  0  0
 17 15  1  0  0  0  0
 18 19  1  0  0  0  0
 19 16  2  0  0  0  0
 20 22  1  0  0  0  0
 22 21  2  0  0  0  0
 23 24  1  0  0  0  0
 24 25  1  0  0  0  0
 26 25  1  0  0  0  0
M  END
>  <MODEL>
7

>  <REMARK>
 VINA RESULT:      -6.9      4.055      6.191
  Name = 
  5 active torsions:
  status: ('A' for Active; 'I' for Inactive)
    1  A    between atoms: C_5  and  N_9
    2  A    between atoms: C_7  and  C_18
    3  A    between atoms: N_9  and  C_14
    4  A    between atoms: C_10  and  C_12
    5  A    between atoms: C_10  and  C_18
                            x       y       z     vdW  Elec       q    Type
                         _______ _______ _______ _____ _____    ______ ____

>  <TORSDO>
F 5

$$$$
=
 OpenBabel11072414393D

 26 29  0  0  1  0  0  0  0  0999 V2000
  160.8310  203.7160  149.2470 N   0  0  0  0  0  2  0  0  0  0  0  0
  162.2560  201.8100  148.5430 C   0  0  0  0  0  2  0  0  0  0  0  0
  160.0000  202.0820  146.4830 N   0  0  0  0  0  2  0  0  0  0  0  0
  160.5850  200.8380  146.9640 C   0  0  0  0  0  2  0  0  0  0  0  0
  161.9560  203.3040  148.4120 C   0  0  1  0  0  3  0  0  0  0  0  0
  161.7650  203.7630  146.9980 C   0  0  0  0  0  0  0  0  0  0  0  0
  161.0080  200.9530  148.4130 C   0  0  0  0  0  2  0  0  0  0  0  0
  160.5530  203.8460  144.8850 C   0  0  0  0  0  0  0  0  0  0  0  0
  162.3060  205.4510  145.3380 C   0  0  0  0  0  3  0  0  0  0  0  0
  162.5150  204.8700  146.5880 C   0  0  0  0  0  3  0  0  0  0  0  0
  160.7800  203.2310  146.1300 C   0  0  0  0  0  0  0  0  0  0  0  0
  161.3230  204.9420  144.4910 C   0  0  0  0  0  3  0  0  0  0  0  0
  159.3310  203.2390  143.7810 Cl  0  0  0  0  0  0  0  0  0  0  0  0
  161.4270  207.8770  149.5350 C   0  0  0  0  0  3  0  0  0  0  0  0
  161.1640  205.9080  150.2930 C   0  0  0  0  0  0  0  0  0  0  0  0
  161.2600  206.2100  152.6860 C   0  0  0  0  0  0  0  0  0  0  0  0
  161.2390  206.6140  149.1970 O   0  0  0  0  0  0  0  0  0  0  0  0
  161.4770  208.0060  150.9250 C   0  0  0  0  0  3  0  0  0  0  0  0
  161.3040  206.7170  151.3830 C   0  0  0  0  0  0  0  0  0  0  0  0
  160.9720  204.5320  150.4140 C   0  0  0  0  0  0  0  0  0  0  0  0
  161.0760  204.8230  152.8430 C   0  0  0  0  0  3  0  0  0  0  0  0
  160.9310  203.9890  151.7150 C   0  0  0  0  0  3  0  0  0  0  0  0
  161.4350  207.0870  153.8790 C   0  0  0  0  0  2  0  0  0  0  0  0
  160.4010  206.7420  154.9370 C   0  0  0  0  0  2  0  0  0  0  0  0
  160.0820  207.9600  155.7850 C   0  0  0  0  0  2  0  0  0  0  0  0
  160.4580  209.2310  155.0480 C   0  0  0  0  0  1  0  0  0  0  0  0
  1 20  1  0  0  0  0
  3  4  1  0  0  0  0
  4  7  1  0  0  0  0
  5  2  1  0  0  0  0
  5  1  1  1  0  0  0
  6  5  1  0  0  0  0
  7  2  1  0  0  0  0
  8 11  1  0  0  0  0
  9 10  2  0  0  0  0
 10  6  1  0  0  0  0
 11  3  1  0  0  0  0
 11  6  2  0  0  0  0
 12  8  2  0  0  0  0
 12  9  1  0  0  0  0
 13  8  1  0  0  0  0
 14 18  2  0  0  0  0
 15 20  2  0  0  0  0
 15 19  1  0  0  0  0
 16 21  1  0  0  0  0
 16 23  1  0  0  0  0
 17 14  1  0  0  0  0
 17 15  1  0  0  0  0
 18 19  1  0  0  0  0
 19 16  2  0  0  0  0
 20 22  1  0  0  0  0
 22 21  2  0  0  0  0
 23 24  1  0  0  0  0
 24 25  1  0  0  0  0
 26 25  1  0  0  0  0
M  END
>  <MODEL>
8

>  <REMARK>
 VINA RESULT:      -6.8      3.629      8.491
  Name = 
  5 active torsions:
  status: ('A' for Active; 'I' for Inactive)
    1  A    between atoms: C_5  and  N_9
    2  A    between atoms: C_7  and  C_18
    3  A    between atoms: N_9  and  C_14
    4  A    between atoms: C_10  and  C_12
    5  A    between atoms: C_10  and  C_18
                            x       y       z     vdW  Elec       q    Type
                         _______ _______ _______ _____ _____    ______ ____

>  <TORSDO>
F 5

$$$$
=
 OpenBabel11072414393D

 26 29  0  0  1  0  0  0  0  0999 V2000
  160.8250  206.5600  152.5030 N   0  0  0  0  0  2  0  0  0  0  0  0
  162.3610  204.6750  152.0110 C   0  0  0  0  0  2  0  0  0  0  0  0
  160.3540  204.8540  149.6980 N   0  0  0  0  0  2  0  0  0  0  0  0
  160.9050  203.6340  150.2710 C   0  0  0  0  0  2  0  0  0  0  0  0
  162.0480  206.1590  151.8130 C   0  0  1  0  0  3  0  0  0  0  0  0
  162.0120  206.5850  150.3760 C   0  0  0  0  0  0  0  0  0  0  0  0
  161.1540  203.7870  151.7560 C   0  0  0  0  0  2  0  0  0  0  0  0
  161.0520  206.5990  148.1370 C   0  0  0  0  0  0  0  0  0  0  0  0
  162.7060  208.2530  148.7530 C   0  0  0  0  0  3  0  0  0  0  0  0
  162.7820  207.7020  150.0320 C   0  0  0  0  0  3  0  0  0  0  0  0
  161.1450  206.0140  149.4120 C   0  0  0  0  0  0  0  0  0  0  0  0
  161.8390  207.7050  147.8100 C   0  0  0  0  0  3  0  0  0  0  0  0
  159.9780  205.9420  146.9120 Cl  0  0  0  0  0  0  0  0  0  0  0  0
  160.8310  210.7680  152.2730 C   0  0  0  0  0  3  0  0  0  0  0  0
  160.8040  208.8900  153.2690 C   0  0  0  0  0  0  0  0  0  0  0  0
  160.7420  209.4930  155.6050 C   0  0  0  0  0  0  0  0  0  0  0  0
  160.8340  209.4590  152.0940 O   0  0  0  0  0  0  0  0  0  0  0  0
  160.7960  211.0730  153.6360 C   0  0  0  0  0  3  0  0  0  0  0  0
  160.7790  209.8380  154.2500 C   0  0  0  0  0  0  0  0  0  0  0  0
  160.7960  207.5250  153.5590 C   0  0  0  0  0  0  0  0  0  0  0  0
  160.7420  208.1240  155.9330 C   0  0  0  0  0  3  0  0  0  0  0  0
  160.7670  207.1460  154.9170 C   0  0  0  0  0  3  0  0  0  0  0  0
  160.7370  210.5260  156.6800 C   0  0  0  0  0  2  0  0  0  0  0  0
  159.3310  210.7040  157.2280 C   0  0  0  0  0  2  0  0  0  0  0  0
  158.6390  211.8710  156.5490 C   0  0  0  0  0  2  0  0  0  0  0  0
  157.5140  211.3750  155.6610 C   0  0  0  0  0  1  0  0  0  0  0  0
  1 20  1  0  0  0  0
  3  4  1  0  0  0  0
  4  7  1  0  0  0  0
  5  2  1  0  0  0  0
  5  1  1  6  0  0  0
  6  5  1  0  0  0  0
  7  2  1  0  0  0  0
  8 11  1  0  0  0  0
  9 10  2  0  0  0  0
 10  6  1  0  0  0  0
 11  3  1  0  0  0  0
 11  6  2  0  0  0  0
 12  8  2  0  0  0  0
 12  9  1  0  0  0  0
 13  8  1  0  0  0  0
 14 18  2  0  0  0  0
 15 20  2  0  0  0  0
 15 19  1  0  0  0  0
 16 21  1  0  0  0  0
 16 23  1  0  0  0  0
 17 14  1  0  0  0  0
 17 15  1  0  0  0  0
 18 19  1  0  0  0  0
 19 16  2  0  0  0  0
 20 22  1  0  0  0  0
 22 21  2  0  0  0  0
 23 24  1  0  0  0  0
 25 24  1  0  0  0  0
 26 25  1  0  0  0  0
M  END
>  <MODEL>
9

>  <REMARK>
 VINA RESULT:      -6.2      2.878      7.894
  Name = 
  5 active torsions:
  status: ('A' for Active; 'I' for Inactive)
    1  A    between atoms: C_5  and  N_9
    2  A    between atoms: C_7  and  C_18
    3  A    between atoms: N_9  and  C_14
    4  A    between atoms: C_10  and  C_12
    5  A    between atoms: C_10  and  C_18
                            x       y       z     vdW  Elec       q    Type
                         _______ _______ _______ _____ _____    ______ ____

>  <TORSDO>
F 5

$$$$
