=
 OpenBabel11072415063D

 58 63  0  0  1  0  0  0  0  0999 V2000
  161.3720  208.4450  153.5090 C   0  0  0  0  0  0  0  0  0  0  0  0
  162.2450  210.3790  152.3640 N   0  0  0  0  0  0  0  0  0  0  0  0
  160.1000  209.5020  151.5990 C   0  0  0  0  0  2  0  0  0  0  0  0
  162.2470  209.4650  153.4630 C   0  0  0  0  0  3  0  0  0  0  0  0
  161.3020  210.4070  151.4710 C   0  0  0  0  0  0  0  0  0  0  0  0
  160.4740  208.1850  152.3240 C   0  0  1  0  0  3  0  0  0  0  0  0
  160.8000  207.4010  150.0570 O   0  0  0  0  0  0  0  0  0  0  0  0
  161.3640  204.9350  152.6460 C   0  0  0  0  0  2  0  0  0  0  0  0
  162.7460  206.1680  147.2360 O   0  0  0  0  0  0  0  0  0  0  0  0
  160.4560  205.6890  151.6920 C   0  0  0  0  0  2  0  0  0  0  0  0
  160.9940  203.4670  152.7430 C   0  0  0  0  0  2  0  0  0  0  0  0
  161.5970  206.3850  148.0120 C   0  0  1  0  0  3  0  0  0  0  0  0
  161.0380  207.0680  151.3990 C   0  0  2  0  0  3  0  0  0  0  0  0
  160.4100  202.9810  150.3710 C   0  0  0  0  0  2  0  0  0  0  0  0
  160.8140  205.0740  148.2890 C   0  0  2  0  0  3  0  0  0  0  0  0
  161.7640  204.4380  145.9240 C   0  0  1  0  0  3  0  0  0  0  0  0
  161.3400  201.2080  151.8270 C   0  0  0  0  0  1  0  0  0  0  0  0
  161.3920  202.6910  151.4990 C   0  0  2  0  0  3  0  0  0  0  0  0
  160.9830  202.6250  149.0050 C   0  0  0  0  0  2  0  0  0  0  0  0
  162.2560  205.8740  145.9570 C   0  0  0  0  0  2  0  0  0  0  0  0
  161.6650  203.8060  148.3180 C   0  0  1  0  0  3  0  0  0  0  0  0
  160.8160  204.1230  147.0890 C   0  0  1  0  0  3  0  0  0  0  0  0
  161.9690  207.0930  149.3270 C   0  0  1  0  0  3  0  0  0  0  0  0
  161.0520  204.1960  144.6070 C   0  0  0  0  0  2  0  0  0  0  0  0
  160.8450  205.3960  143.9220 O   0  0  0  0  0  1  0  0  0  0  0  0
  162.7860  208.2230  149.0710 O   0  0  0  0  0  0  0  0  0  0  0  0
  162.0340  209.2140  148.4230 C   0  0  0  0  0  2  0  0  0  0  0  0
  162.9200  210.4010  148.1190 C   0  0  0  0  0  1  0  0  0  0  0  0
  160.1560  207.0850  155.1660 C   0  0  0  0  0  1  0  0  0  0  0  0
  161.3670  207.5500  154.5760 O   0  0  0  0  0  0  0  0  0  0  0  0
  161.3360  211.4050  150.4330 N   0  0  0  0  0  0  0  0  0  0  0  0
  160.5610  212.4550  150.3590 C   0  0  0  0  0  0  0  0  0  0  0  0
  157.5710  214.0850  153.1480 C   0  0  2  0  0  3  0  0  0  0  0  0
  159.9100  214.1540  152.2050 C   0  0  0  0  0  2  0  0  0  0  0  0
  159.6420  212.8170  151.5110 C   0  0  1  0  0  3  0  0  0  0  0  0
  158.1580  212.5720  151.2270 C   0  0  2  0  0  3  0  0  0  0  0  0
  157.5740  213.4100  150.0940 C   0  0  0  0  0  1  0  0  0  0  0  0
  157.3350  212.7140  152.5020 C   0  0  0  0  0  2  0  0  0  0  0  0
  159.0580  214.2840  153.4700 C   0  0  0  0  0  2  0  0  0  0  0  0
  156.7640  214.1900  154.4220 C   0  0  0  0  0  1  0  0  0  0  0  0
  160.6020  213.1980  149.1680 O   0  0  0  0  0  0  0  0  0  0  0  0
  162.8240  213.6350  148.2780 C   0  0  2  0  0  3  0  0  0  0  0  0
  162.6950  212.2620  148.0250 O   0  0  0  0  0  1  0  0  0  0  0  0
  161.5580  214.2290  148.9060 C   0  0  1  0  0  3  0  0  0  0  0  0
  161.8550  214.4530  147.4210 C   0  0  2  0  0  3  0  0  0  0  0  0
  160.9430  213.6520  146.4720 C   0  0  0  0  0  2  0  0  0  0  0  0
  159.5030  214.1510  146.5780 C   0  0  0  0  0  2  0  0  0  0  0  0
  158.6290  213.6110  145.4470 C   0  0  2  0  0  3  0  0  0  0  0  0
  157.2390  213.3480  145.9580 C   0  0  0  0  0  0  0  0  0  0  0  0
  156.7660  212.0460  146.0440 O   0  0  0  0  0  0  0  0  0  0  0  0
  156.4750  214.3040  146.2770 O   0  0  0  0  0  1  0  0  0  0  0  0
  159.2100  212.3980  144.8790 N   0  0  0  0  0  2  0  0  0  0  0  0
  159.3730  212.6050  143.4490 C   0  0  0  0  0  2  0  0  0  0  0  0
  160.7910  212.2630  143.0290 C   0  0  0  0  0  2  0  0  0  0  0  0
  161.0650  212.7500  141.6210 C   0  0  0  0  0  2  0  0  0  0  0  0
  161.9960  211.7840  140.9160 C   0  0  1  0  0  3  0  0  0  0  0  0
  161.3810  210.5340  140.8020 O   0  0  0  0  0  1  0  0  0  0  0  0
  162.3150  212.2890  139.5900 N   0  0  0  0  0  1  0  0  0  0  0  0
  1 30  1  0  0  0  0
  2  4  1  0  0  0  0
  4  1  2  0  0  0  0
  5  3  1  0  0  0  0
  5  2  2  0  0  0  0
  6  3  1  6  0  0  0
  6  1  1  0  0  0  0
  7 13  1  0  0  0  0
  8 11  1  0  0  0  0
 10  8  1  0  0  0  0
 12  9  1  1  0  0  0
 12 15  1  0  0  0  0
 12 23  1  0  0  0  0
 13 10  1  1  0  0  0
 13  6  1  0  0  0  0
 14 18  1  0  0  0  0
 15 21  1  0  0  0  0
 16 20  1  0  0  0  0
 16 22  1  0  0  0  0
 18 17  1  0  0  0  0
 18 11  1  0  0  0  0
 19 14  1  0  0  0  0
 20  9  1  0  0  0  0
 21 19  1  0  0  0  0
 22 15  1  0  0  0  0
 22 21  1  0  0  0  0
 23  7  1  0  0  0  0
 24 16  1  0  0  0  0
 25 24  1  0  0  0  0
 26 23  1  0  0  0  0
 27 26  1  0  0  0  0
 28 27  1  0  0  0  0
 30 29  1  0  0  0  0
 31  5  1  0  0  0  0
 32 31  2  0  0  0  0
 32 35  1  0  0  0  0
 33 39  1  0  0  0  0
 33 40  1  0  0  0  0
 34 39  1  0  0  0  0
 35 34  1  0  0  0  0
 36 35  1  0  0  0  0
 36 38  1  0  0  0  0
 37 36  1  0  0  0  0
 38 33  1  0  0  0  0
 41 32  1  0  0  0  0
 42 44  1  0  0  0  0
 43 42  1  0  0  0  0
 44 41  1  0  0  0  0
 45 42  1  0  0  0  0
 45 44  1  0  0  0  0
 46 47  1  0  0  0  0
 46 45  1  0  0  0  0
 48 49  1  0  0  0  0
 48 47  1  0  0  0  0
 49 50  2  0  0  0  0
 49 51  1  0  0  0  0
 52 48  1  0  0  0  0
 53 52  1  0  0  0  0
 54 53  1  0  0  0  0
 55 54  1  0  0  0  0
 56 55  1  0  0  0  0
 57 56  1  0  0  0  0
 58 56  1  0  0  0  0
M  END
>  <MODEL>
1

>  <REMARK>
 VINA RESULT:      -2.5      0.000      0.000
  Name = 
  18 active torsions:
  status: ('A' for Active; 'I' for Inactive)
    1  A    between atoms: CA_1  and  C_3
    2  A    between atoms: CA_1  and  C_27
    3  A    between atoms: CA_1  and  N_35
    4  A    between atoms: C_2  and  C_38
    5  A    between atoms: C_5  and  O_57
    6  A    between atoms: C_8  and  C_37
    7  A    between atoms: C_12  and  C_55
    8  A    between atoms: O_14  and  C_21
    9  A    between atoms: O_14  and  C_56
   10  A    between atoms: O_15  and  C_20
   11  A    between atoms: O_15  and  C_55
   12  A    between atoms: N_22  and  C_44
   13  A    between atoms: C_23  and  C_37
   14  A    between atoms: C_23  and  C_39
   15  A    between atoms: C_27  and  C_40
   16  A    between atoms: C_30  and  C_58
   17  A    between atoms: N_35  and  C_39
   18  A    between atoms: C_40  and  C_51
                            x       y       z     vdW  Elec       q    Type
                         _______ _______ _______ _____ _____    ______ ____

>  <TORSDO>
F 18

$$$$
=
 OpenBabel11072415063D

 58 63  0  0  1  0  0  0  0  0999 V2000
  161.5160  207.8350  151.9250 C   0  0  0  0  0  0  0  0  0  0  0  0
  160.6450  206.8390  149.9100 N   0  0  0  0  0  0  0  0  0  0  0  0
  162.7910  207.9900  149.7480 C   0  0  0  0  0  2  0  0  0  0  0  0
  160.6410  207.0060  151.3280 C   0  0  0  0  0  3  0  0  0  0  0  0
  161.5890  207.3020  149.1470 C   0  0  0  0  0  0  0  0  0  0  0  0
  162.4160  208.6980  151.0740 C   0  0  1  0  0  3  0  0  0  0  0  0
  160.6010  210.2330  151.5350 O   0  0  0  0  0  0  0  0  0  0  0  0
  162.9670  211.3380  149.0280 C   0  0  0  0  0  2  0  0  0  0  0  0
  159.1210  213.3250  152.7650 O   0  0  0  0  0  0  0  0  0  0  0  0
  161.7250  210.5750  149.4510 C   0  0  0  0  0  2  0  0  0  0  0  0
  162.7770  212.0410  147.6970 C   0  0  0  0  0  2  0  0  0  0  0  0
  159.2050  212.1530  151.9980 C   0  0  1  0  0  3  0  0  0  0  0  0
  161.8530  210.1400  150.9080 C   0  0  2  0  0  3  0  0  0  0  0  0
  160.4200  212.8150  147.9170 C   0  0  0  0  0  2  0  0  0  0  0  0
  158.9650  212.4160  150.4870 C   0  0  2  0  0  3  0  0  0  0  0  0
  157.3960  214.2960  151.4380 C   0  0  1  0  0  3  0  0  0  0  0  0
  162.0440  214.0980  146.5580 C   0  0  0  0  0  1  0  0  0  0  0  0
  161.8740  213.2570  147.8130 C   0  0  2  0  0  3  0  0  0  0  0  0
  159.5260  213.9090  148.4890 C   0  0  0  0  0  2  0  0  0  0  0  0
  157.7580  213.6500  152.7640 C   0  0  0  0  0  2  0  0  0  0  0  0
  159.3560  213.8110  150.0040 C   0  0  1  0  0  3  0  0  0  0  0  0
  157.8860  213.4740  150.2390 C   0  0  1  0  0  3  0  0  0  0  0  0
  160.5610  211.4630  152.2280 C   0  0  1  0  0  3  0  0  0  0  0  0
  155.8890  214.4520  151.3680 C   0  0  0  0  0  2  0  0  0  0  0  0
  155.2640  213.7550  152.4050 O   0  0  0  0  0  1  0  0  0  0  0  0
  160.8270  211.3350  153.6140 O   0  0  0  0  0  0  0  0  0  0  0  0
  159.8100  210.5860  154.2240 C   0  0  0  0  0  2  0  0  0  0  0  0
  159.4330  211.2260  155.5420 C   0  0  0  0  0  1  0  0  0  0  0  0
  160.8140  207.1220  154.1770 C   0  0  0  0  0  1  0  0  0  0  0  0
  161.5190  208.0030  153.3070 O   0  0  0  0  0  0  0  0  0  0  0  0
  161.5560  207.0320  147.7320 N   0  0  0  0  0  0  0  0  0  0  0  0
  161.6640  205.8530  147.1780 C   0  0  0  0  0  0  0  0  0  0  0  0
  160.9400  201.9980  149.1760 C   0  0  2  0  0  3  0  0  0  0  0  0
  160.5320  204.4850  149.0680 C   0  0  0  0  0  2  0  0  0  0  0  0
  161.6520  204.5970  148.0300 C   0  0  1  0  0  3  0  0  0  0  0  0
  161.8750  203.3050  147.2400 C   0  0  2  0  0  3  0  0  0  0  0  0
  160.7940  202.9860  146.2120 C   0  0  0  0  0  1  0  0  0  0  0  0
  162.1030  202.1300  148.1850 C   0  0  0  0  0  2  0  0  0  0  0  0
  160.7720  203.2870  149.9900 C   0  0  0  0  0  2  0  0  0  0  0  0
  161.2030  200.8420  150.1150 C   0  0  0  0  0  1  0  0  0  0  0  0
  161.8180  205.8130  145.7830 O   0  0  0  0  0  0  0  0  0  0  0  0
  159.9570  204.9710  144.4620 C   0  0  2  0  0  3  0  0  0  0  0  0
  159.4760  206.2340  144.8370 O   0  0  0  0  0  1  0  0  0  0  0  0
  161.3840  204.7240  144.9650 C   0  0  1  0  0  3  0  0  0  0  0  0
  161.1410  205.0910  143.4990 C   0  0  2  0  0  3  0  0  0  0  0  0
  161.5780  206.5230  143.1320 C   0  0  0  0  0  2  0  0  0  0  0  0
  162.3680  206.5140  141.8240 C   0  0  0  0  0  2  0  0  0  0  0  0
  161.8110  207.5180  140.8160 C   0  0  2  0  0  3  0  0  0  0  0  0
  161.7900  206.9030  139.4440 C   0  0  0  0  0  0  0  0  0  0  0  0
  162.4240  205.6890  139.2180 O   0  0  0  0  0  1  0  0  0  0  0  0
  161.2340  207.4970  138.4770 O   0  0  0  0  0  0  0  0  0  0  0  0
  162.5990  208.7460  140.8220 N   0  0  0  0  0  2  0  0  0  0  0  0
  161.7560  209.8240  140.3310 C   0  0  0  0  0  2  0  0  0  0  0  0
  162.4610  211.1580  140.4980 C   0  0  0  0  0  2  0  0  0  0  0  0
  161.6960  212.0540  141.4510 C   0  0  0  0  0  2  0  0  0  0  0  0
  160.2280  212.0690  141.0750 C   0  0  1  0  0  3  0  0  0  0  0  0
  159.4550  212.3580  142.2020 O   0  0  0  0  0  1  0  0  0  0  0  0
  159.9940  213.0790  140.0550 N   0  0  0  0  0  1  0  0  0  0  0  0
  1 30  1  0  0  0  0
  2  4  1  0  0  0  0
  4  1  2  0  0  0  0
  5  3  1  0  0  0  0
  5  2  2  0  0  0  0
  6  3  1  6  0  0  0
  6  1  1  0  0  0  0
  7 23  1  0  0  0  0
  8 10  1  0  0  0  0
 11 18  1  0  0  0  0
 11  8  1  0  0  0  0
 12 23  1  0  0  0  0
 12  9  1  1  0  0  0
 13 10  1  6  0  0  0
 13  6  1  0  0  0  0
 13  7  1  0  0  0  0
 14 19  1  0  0  0  0
 15 12  1  0  0  0  0
 16 20  1  0  0  0  0
 17 18  1  0  0  0  0
 18 14  1  0  0  0  0
 19 21  1  0  0  0  0
 20  9  1  0  0  0  0
 21 22  1  0  0  0  0
 21 15  1  0  0  0  0
 22 15  1  0  0  0  0
 22 16  1  0  0  0  0
 23 26  1  0  0  0  0
 24 16  1  0  0  0  0
 24 25  1  0  0  0  0
 26 27  1  0  0  0  0
 27 28  1  0  0  0  0
 30 29  1  0  0  0  0
 31  5  1  0  0  0  0
 32 31  2  0  0  0  0
 32 35  1  0  0  0  0
 33 39  1  0  0  0  0
 33 40  1  0  0  0  0
 34 39  1  0  0  0  0
 35 34  1  0  0  0  0
 36 35  1  0  0  0  0
 36 38  1  0  0  0  0
 37 36  1  0  0  0  0
 38 33  1  0  0  0  0
 41 32  1  0  0  0  0
 42 43  1  0  0  0  0
 42 44  1  0  0  0  0
 44 41  1  0  0  0  0
 45 42  1  0  0  0  0
 45 44  1  0  0  0  0
 46 45  1  0  0  0  0
 47 46  1  0  0  0  0
 48 52  1  0  0  0  0
 48 47  1  0  0  0  0
 49 48  1  0  0  0  0
 50 49  1  0  0  0  0
 51 49  2  0  0  0  0
 53 54  1  0  0  0  0
 53 52  1  0  0  0  0
 54 55  1  0  0  0  0
 56 55  1  0  0  0  0
 56 57  1  0  0  0  0
 58 56  1  0  0  0  0
M  END
>  <MODEL>
2

>  <REMARK>
 VINA RESULT:      -2.0      2.489      8.666
  Name = 
  18 active torsions:
  status: ('A' for Active; 'I' for Inactive)
    1  A    between atoms: CA_1  and  C_3
    2  A    between atoms: CA_1  and  C_27
    3  A    between atoms: CA_1  and  N_35
    4  A    between atoms: C_2  and  C_38
    5  A    between atoms: C_5  and  O_57
    6  A    between atoms: C_8  and  C_37
    7  A    between atoms: C_12  and  C_55
    8  A    between atoms: O_14  and  C_21
    9  A    between atoms: O_14  and  C_56
   10  A    between atoms: O_15  and  C_20
   11  A    between atoms: O_15  and  C_55
   12  A    between atoms: N_22  and  C_44
   13  A    between atoms: C_23  and  C_37
   14  A    between atoms: C_23  and  C_39
   15  A    between atoms: C_27  and  C_40
   16  A    between atoms: C_30  and  C_58
   17  A    between atoms: N_35  and  C_39
   18  A    between atoms: C_40  and  C_51
                            x       y       z     vdW  Elec       q    Type
                         _______ _______ _______ _____ _____    ______ ____

>  <TORSDO>
F 18

$$$$
=
 OpenBabel11072415063D

 58 63  0  0  1  0  0  0  0  0999 V2000
  161.1970  207.8030  154.8420 C   0  0  0  0  0  0  0  0  0  0  0  0
  160.0500  206.8560  152.9450 N   0  0  0  0  0  0  0  0  0  0  0  0
  161.9610  208.3020  152.4860 C   0  0  0  0  0  2  0  0  0  0  0  0
  160.3230  206.9090  154.3460 C   0  0  0  0  0  3  0  0  0  0  0  0
  160.7510  207.5040  152.0640 C   0  0  0  0  0  0  0  0  0  0  0  0
  161.7900  208.8460  153.9260 C   0  0  1  0  0  3  0  0  0  0  0  0
  160.0430  210.1210  155.0150 O   0  0  0  0  0  0  0  0  0  0  0  0
  161.3490  211.5710  151.9670 C   0  0  0  0  0  2  0  0  0  0  0  0
  158.6690  212.9710  156.8200 O   0  0  0  0  0  0  0  0  0  0  0  0
  160.4050  210.6440  152.7090 C   0  0  0  0  0  2  0  0  0  0  0  0
  160.6680  212.2660  150.8030 C   0  0  0  0  0  2  0  0  0  0  0  0
  158.6460  211.8330  155.9980 C   0  0  1  0  0  3  0  0  0  0  0  0
  161.0350  210.2040  154.0260 C   0  0  2  0  0  3  0  0  0  0  0  0
  158.4250  212.7200  151.7870 C   0  0  0  0  0  2  0  0  0  0  0  0
  157.9120  212.0880  154.6540 C   0  0  2  0  0  3  0  0  0  0  0  0
  156.5110  213.7300  156.1520 C   0  0  1  0  0  3  0  0  0  0  0  0
  159.3740  214.2280  150.0680 C   0  0  0  0  0  1  0  0  0  0  0  0
  159.7100  213.3510  151.2640 C   0  0  2  0  0  3  0  0  0  0  0  0
  157.6340  213.6770  152.6700 C   0  0  0  0  0  2  0  0  0  0  0  0
  157.3460  213.1140  157.2600 C   0  0  0  0  0  2  0  0  0  0  0  0
  157.9630  213.5310  154.1550 C   0  0  1  0  0  3  0  0  0  0  0  0
  156.6920  213.0000  154.8150 C   0  0  1  0  0  3  0  0  0  0  0  0
  160.0770  211.3230  155.7560 C   0  0  1  0  0  3  0  0  0  0  0  0
  155.0510  213.6880  156.5610 C   0  0  0  0  0  2  0  0  0  0  0  0
  154.2180  213.9680  155.4750 O   0  0  0  0  0  1  0  0  0  0  0  0
  160.7790  211.2070  156.9820 O   0  0  0  0  0  0  0  0  0  0  0  0
  161.8200  212.1460  157.0220 C   0  0  0  0  0  2  0  0  0  0  0  0
  163.1460  211.4250  157.1170 C   0  0  0  0  0  1  0  0  0  0  0  0
  162.6690  208.4420  156.7130 C   0  0  0  0  0  1  0  0  0  0  0  0
  161.4690  207.8610  156.2070 O   0  0  0  0  0  0  0  0  0  0  0  0
  160.4560  207.3430  150.6630 N   0  0  0  0  0  0  0  0  0  0  0  0
  160.6930  206.2730  149.9510 C   0  0  0  0  0  0  0  0  0  0  0  0
  161.3290  202.2140  151.5320 C   0  0  2  0  0  3  0  0  0  0  0  0
  160.3490  204.5200  151.8300 C   0  0  0  0  0  2  0  0  0  0  0  0
  161.1570  204.9910  150.6190 C   0  0  1  0  0  3  0  0  0  0  0  0
  161.4910  203.8620  149.6390 C   0  0  2  0  0  3  0  0  0  0  0  0
  160.3130  203.3650  148.8080 C   0  0  0  0  0  1  0  0  0  0  0  0
  162.1840  202.7120  150.3610 C   0  0  0  0  0  2  0  0  0  0  0  0
  161.0530  203.3510  152.5240 C   0  0  0  0  0  2  0  0  0  0  0  0
  162.0500  201.0910  152.2440 C   0  0  0  0  0  1  0  0  0  0  0  0
  160.5290  206.3790  148.5610 O   0  0  0  0  0  0  0  0  0  0  0  0
  162.5630  207.6850  148.2870 C   0  0  2  0  0  3  0  0  0  0  0  0
  162.9240  206.8380  149.3450 O   0  0  0  0  0  1  0  0  0  0  0  0
  161.1550  207.3860  147.7610 C   0  0  1  0  0  3  0  0  0  0  0  0
  162.3820  206.9030  146.9840 C   0  0  2  0  0  3  0  0  0  0  0  0
  162.6160  205.3810  147.0650 C   0  0  0  0  0  2  0  0  0  0  0  0
  163.0420  204.8390  145.7020 C   0  0  0  0  0  2  0  0  0  0  0  0
  161.8490  204.3370  144.8900 C   0  0  2  0  0  3  0  0  0  0  0  0
  161.0430  205.5050  144.3940 C   0  0  0  0  0  0  0  0  0  0  0  0
  159.8520  205.8420  145.0210 O   0  0  0  0  0  1  0  0  0  0  0  0
  161.4160  206.1660  143.3830 O   0  0  0  0  0  0  0  0  0  0  0  0
  161.0220  203.4390  145.6900 N   0  0  0  0  0  2  0  0  0  0  0  0
  160.0220  202.8490  144.8150 C   0  0  0  0  0  2  0  0  0  0  0  0
  160.1690  201.3380  144.7950 C   0  0  0  0  0  2  0  0  0  0  0  0
  160.3720  200.8010  146.1970 C   0  0  0  0  0  2  0  0  0  0  0  0
  161.4840  199.7700  146.1960 C   0  0  1  0  0  3  0  0  0  0  0  0
  161.9130  199.5380  147.5050 O   0  0  0  0  0  1  0  0  0  0  0  0
  160.9990  198.5270  145.6170 N   0  0  0  0  0  1  0  0  0  0  0  0
  1 30  1  0  0  0  0
  2  4  1  0  0  0  0
  4  1  2  0  0  0  0
  5  3  1  0  0  0  0
  5  2  2  0  0  0  0
  6  3  1  6  0  0  0
  6 13  1  0  0  0  0
  6  1  1  0  0  0  0
  7 23  1  0  0  0  0
  8 10  1  0  0  0  0
  9 20  1  0  0  0  0
 11 18  1  0  0  0  0
 11  8  1  0  0  0  0
 12  9  1  6  0  0  0
 13 10  1  6  0  0  0
 13  7  1  0  0  0  0
 14 19  1  0  0  0  0
 15 22  1  0  0  0  0
 15 12  1  0  0  0  0
 16 24  1  0  0  0  0
 16 20  1  0  0  0  0
 17 18  1  0  0  0  0
 18 14  1  0  0  0  0
 19 21  1  0  0  0  0
 21 15  1  0  0  0  0
 21 22  1  0  0  0  0
 22 16  1  0  0  0  0
 23 12  1  0  0  0  0
 23 26  1  0  0  0  0
 25 24  1  0  0  0  0
 26 27  1  0  0  0  0
 27 28  1  0  0  0  0
 30 29  1  0  0  0  0
 31  5  1  0  0  0  0
 32 35  1  0  0  0  0
 32 31  2  0  0  0  0
 33 40  1  0  0  0  0
 33 39  1  0  0  0  0
 34 39  1  0  0  0  0
 35 34  1  0  0  0  0
 36 38  1  0  0  0  0
 36 35  1  0  0  0  0
 37 36  1  0  0  0  0
 38 33  1  0  0  0  0
 41 32  1  0  0  0  0
 42 43  1  0  0  0  0
 44 42  1  0  0  0  0
 44 41  1  0  0  0  0
 45 46  1  0  0  0  0
 45 44  1  0  0  0  0
 45 42  1  0  0  0  0
 47 46  1  0  0  0  0
 48 52  1  0  0  0  0
 48 47  1  0  0  0  0
 49 48  1  0  0  0  0
 49 50  1  0  0  0  0
 51 49  2  0  0  0  0
 53 52  1  0  0  0  0
 54 53  1  0  0  0  0
 54 55  1  0  0  0  0
 56 55  1  0  0  0  0
 56 57  1  0  0  0  0
 58 56  1  0  0  0  0
M  END
>  <MODEL>
3

>  <REMARK>
 VINA RESULT:      -1.1      3.764      9.720
  Name = 
  18 active torsions:
  status: ('A' for Active; 'I' for Inactive)
    1  A    between atoms: CA_1  and  C_3
    2  A    between atoms: CA_1  and  C_27
    3  A    between atoms: CA_1  and  N_35
    4  A    between atoms: C_2  and  C_38
    5  A    between atoms: C_5  and  O_57
    6  A    between atoms: C_8  and  C_37
    7  A    between atoms: C_12  and  C_55
    8  A    between atoms: O_14  and  C_21
    9  A    between atoms: O_14  and  C_56
   10  A    between atoms: O_15  and  C_20
   11  A    between atoms: O_15  and  C_55
   12  A    between atoms: N_22  and  C_44
   13  A    between atoms: C_23  and  C_37
   14  A    between atoms: C_23  and  C_39
   15  A    between atoms: C_27  and  C_40
   16  A    between atoms: C_30  and  C_58
   17  A    between atoms: N_35  and  C_39
   18  A    between atoms: C_40  and  C_51
                            x       y       z     vdW  Elec       q    Type
                         _______ _______ _______ _____ _____    ______ ____

>  <TORSDO>
F 18

$$$$
=
 OpenBabel11072415063D

 58 63  0  0  1  0  0  0  0  0999 V2000
  161.5520  205.1080  152.0850 C   0  0  0  0  0  0  0  0  0  0  0  0
  162.2680  207.4060  151.9510 N   0  0  0  0  0  0  0  0  0  0  0  0
  160.1150  206.8480  150.9460 C   0  0  0  0  0  2  0  0  0  0  0  0
  162.3790  206.0880  152.4900 C   0  0  0  0  0  3  0  0  0  0  0  0
  161.2690  207.7850  151.2120 C   0  0  0  0  0  0  0  0  0  0  0  0
  160.5890  205.3730  150.9520 C   0  0  1  0  0  3  0  0  0  0  0  0
  160.9460  205.8350  148.6030 O   0  0  0  0  0  0  0  0  0  0  0  0
  161.3560  202.3750  149.5800 C   0  0  0  0  0  2  0  0  0  0  0  0
  162.9180  206.1230  145.5550 O   0  0  0  0  0  0  0  0  0  0  0  0
  160.5000  203.5470  149.1380 C   0  0  0  0  0  2  0  0  0  0  0  0
  160.9320  201.0780  148.9160 C   0  0  0  0  0  2  0  0  0  0  0  0
  161.7580  205.9660  146.3290 C   0  0  1  0  0  3  0  0  0  0  0  0
  161.1370  204.8570  149.5900 C   0  0  2  0  0  3  0  0  0  0  0  0
  160.3920  201.8900  146.6240 C   0  0  0  0  0  2  0  0  0  0  0  0
  160.9220  204.7310  145.8970 C   0  0  2  0  0  3  0  0  0  0  0  0
  161.9100  205.3430  143.5410 C   0  0  1  0  0  3  0  0  0  0  0  0
  161.2220  199.5850  146.9800 C   0  0  0  0  0  1  0  0  0  0  0  0
  161.3340  201.0250  147.4520 C   0  0  2  0  0  3  0  0  0  0  0  0
  160.9860  202.2530  145.2690 C   0  0  0  0  0  2  0  0  0  0  0  0
  162.4510  206.5410  144.3010 C   0  0  0  0  0  2  0  0  0  0  0  0
  161.7270  203.5890  145.2800 C   0  0  1  0  0  3  0  0  0  0  0  0
  160.9210  204.5230  144.3800 C   0  0  1  0  0  3  0  0  0  0  0  0
  162.1210  205.8910  147.8220 C   0  0  1  0  0  3  0  0  0  0  0  0
  161.2230  205.8350  142.2820 C   0  0  0  0  0  2  0  0  0  0  0  0
  162.1070  206.5620  141.4800 O   0  0  0  0  0  1  0  0  0  0  0  0
  162.9830  206.9570  148.1800 O   0  0  0  0  0  0  0  0  0  0  0  0
  162.6080  208.1210  147.4920 C   0  0  0  0  0  2  0  0  0  0  0  0
  161.4120  208.7460  148.1740 C   0  0  0  0  0  1  0  0  0  0  0  0
  160.5020  203.0220  152.8720 C   0  0  0  0  0  1  0  0  0  0  0  0
  161.6520  203.8210  152.6060 O   0  0  0  0  0  0  0  0  0  0  0  0
  161.1950  209.1520  150.7640 N   0  0  0  0  0  0  0  0  0  0  0  0
  160.7940  210.1690  151.4800 C   0  0  0  0  0  0  0  0  0  0  0  0
  160.8190  209.3440  155.8040 C   0  0  2  0  0  3  0  0  0  0  0  0
  160.2580  208.5880  153.4640 C   0  0  0  0  0  2  0  0  0  0  0  0
  160.5330  210.0090  152.9670 C   0  0  1  0  0  3  0  0  0  0  0  0
  161.5070  210.7830  153.8590 C   0  0  2  0  0  3  0  0  0  0  0  0
  162.9620  210.3400  153.7560 C   0  0  0  0  0  1  0  0  0  0  0  0
  161.0280  210.7800  155.3070 C   0  0  0  0  0  2  0  0  0  0  0  0
  159.8010  208.6080  154.9240 C   0  0  0  0  0  2  0  0  0  0  0  0
  160.3220  209.3710  157.2320 C   0  0  0  0  0  1  0  0  0  0  0  0
  160.5940  211.3860  150.8090 O   0  0  0  0  0  0  0  0  0  0  0  0
  160.8580  213.7390  150.2520 C   0  0  2  0  0  3  0  0  0  0  0  0
  160.2840  213.2430  149.0720 O   0  0  0  0  0  1  0  0  0  0  0  0
  160.9950  212.6560  151.3280 C   0  0  1  0  0  3  0  0  0  0  0  0
  159.8670  213.6870  151.4180 C   0  0  2  0  0  3  0  0  0  0  0  0
  158.4710  213.1170  151.1000 C   0  0  0  0  0  2  0  0  0  0  0  0
  157.5420  214.2320  150.6220 C   0  0  0  0  0  2  0  0  0  0  0  0
  156.0710  213.8390  150.7440 C   0  0  2  0  0  3  0  0  0  0  0  0
  155.3320  214.2400  149.4970 C   0  0  0  0  0  0  0  0  0  0  0  0
  153.9610  214.4520  149.5420 O   0  0  0  0  0  1  0  0  0  0  0  0
  155.9370  214.3480  148.3930 O   0  0  0  0  0  0  0  0  0  0  0  0
  155.4690  214.4530  151.9240 N   0  0  0  0  0  2  0  0  0  0  0  0
  155.2550  213.4100  152.9140 C   0  0  0  0  0  2  0  0  0  0  0  0
  156.3240  213.4820  153.9900 C   0  0  0  0  0  2  0  0  0  0  0  0
  156.9460  212.1200  154.2210 C   0  0  0  0  0  2  0  0  0  0  0  0
  156.4650  211.5530  155.5410 C   0  0  1  0  0  3  0  0  0  0  0  0
  157.4740  210.7760  156.1160 O   0  0  0  0  0  1  0  0  0  0  0  0
  156.1170  212.6400  156.4440 N   0  0  0  0  0  1  0  0  0  0  0  0
  1  4  2  0  0  0  0
  1 30  1  0  0  0  0
  2  4  1  0  0  0  0
  3  5  1  0  0  0  0
  5  2  2  0  0  0  0
  6  3  1  6  0  0  0
  6  1  1  0  0  0  0
  7 13  1  0  0  0  0
 10  8  1  0  0  0  0
 11  8  1  0  0  0  0
 12  9  1  6  0  0  0
 12 23  1  0  0  0  0
 13 10  1  6  0  0  0
 13  6  1  0  0  0  0
 14 18  1  0  0  0  0
 15 12  1  0  0  0  0
 16 20  1  0  0  0  0
 16 22  1  0  0  0  0
 17 18  1  0  0  0  0
 18 11  1  0  0  0  0
 19 21  1  0  0  0  0
 19 14  1  0  0  0  0
 20  9  1  0  0  0  0
 21 15  1  0  0  0  0
 22 21  1  0  0  0  0
 22 15  1  0  0  0  0
 23 26  1  0  0  0  0
 23  7  1  0  0  0  0
 24 16  1  0  0  0  0
 25 24  1  0  0  0  0
 27 28  1  0  0  0  0
 27 26  1  0  0  0  0
 30 29  1  0  0  0  0
 31  5  1  0  0  0  0
 31 32  2  0  0  0  0
 32 35  1  0  0  0  0
 33 40  1  0  0  0  0
 34 39  1  0  0  0  0
 35 34  1  0  0  0  0
 35 36  1  0  0  0  0
 36 38  1  0  0  0  0
 37 36  1  0  0  0  0
 38 33  1  0  0  0  0
 39 33  1  0  0  0  0
 41 44  1  0  0  0  0
 41 32  1  0  0  0  0
 42 44  1  0  0  0  0
 42 45  1  0  0  0  0
 43 42  1  0  0  0  0
 44 45  1  0  0  0  0
 46 45  1  0  0  0  0
 47 48  1  0  0  0  0
 47 46  1  0  0  0  0
 48 52  1  0  0  0  0
 49 50  1  0  0  0  0
 49 48  1  0  0  0  0
 51 49  2  0  0  0  0
 52 53  1  0  0  0  0
 53 54  1  0  0  0  0
 54 55  1  0  0  0  0
 55 56  1  0  0  0  0
 56 57  1  0  0  0  0
 56 58  1  0  0  0  0
M  END
>  <MODEL>
4

>  <REMARK>
 VINA RESULT:      -0.7      3.169      5.968
  Name = 
  18 active torsions:
  status: ('A' for Active; 'I' for Inactive)
    1  A    between atoms: CA_1  and  C_3
    2  A    between atoms: CA_1  and  C_27
    3  A    between atoms: CA_1  and  N_35
    4  A    between atoms: C_2  and  C_38
    5  A    between atoms: C_5  and  O_57
    6  A    between atoms: C_8  and  C_37
    7  A    between atoms: C_12  and  C_55
    8  A    between atoms: O_14  and  C_21
    9  A    between atoms: O_14  and  C_56
   10  A    between atoms: O_15  and  C_20
   11  A    between atoms: O_15  and  C_55
   12  A    between atoms: N_22  and  C_44
   13  A    between atoms: C_23  and  C_37
   14  A    between atoms: C_23  and  C_39
   15  A    between atoms: C_27  and  C_40
   16  A    between atoms: C_30  and  C_58
   17  A    between atoms: N_35  and  C_39
   18  A    between atoms: C_40  and  C_51
                            x       y       z     vdW  Elec       q    Type
                         _______ _______ _______ _____ _____    ______ ____

>  <TORSDO>
F 18

$$$$
=
 OpenBabel11072415063D

 58 63  0  0  1  0  0  0  0  0999 V2000
  161.5410  208.0940  152.1680 C   0  0  0  0  0  0  0  0  0  0  0  0
  162.6850  209.7510  150.8420 N   0  0  0  0  0  0  0  0  0  0  0  0
  160.5020  209.0010  150.0510 C   0  0  0  0  0  2  0  0  0  0  0  0
  162.5250  209.0030  152.0490 C   0  0  0  0  0  3  0  0  0  0  0  0
  161.8020  209.7510  149.8890 C   0  0  0  0  0  0  0  0  0  0  0  0
  160.6860  207.7660  150.9680 C   0  0  1  0  0  3  0  0  0  0  0  0
  160.5830  206.4020  148.9710 O   0  0  0  0  0  0  0  0  0  0  0  0
  162.0860  204.8140  151.8540 C   0  0  0  0  0  2  0  0  0  0  0  0
  161.9710  204.5750  146.1420 O   0  0  0  0  0  0  0  0  0  0  0  0
  160.8810  205.1980  151.0150 C   0  0  0  0  0  2  0  0  0  0  0  0
  161.9650  203.4090  152.4140 C   0  0  0  0  0  2  0  0  0  0  0  0
  161.0160  204.9150  147.1140 C   0  0  1  0  0  3  0  0  0  0  0  0
  161.1740  206.4790  150.2410 C   0  0  2  0  0  3  0  0  0  0  0  0
  160.9170  202.2330  150.4840 C   0  0  0  0  0  2  0  0  0  0  0  0
  160.5170  203.6800  147.9100 C   0  0  2  0  0  3  0  0  0  0  0  0
  160.9690  202.4770  145.6190 C   0  0  1  0  0  3  0  0  0  0  0  0
  162.4080  201.0160  152.0410 C   0  0  0  0  0  1  0  0  0  0  0  0
  162.1680  202.3460  151.3470 C   0  0  2  0  0  3  0  0  0  0  0  0
  161.2000  201.5510  149.1510 C   0  0  0  0  0  2  0  0  0  0  0  0
  161.2430  203.8970  145.1560 C   0  0  0  0  0  2  0  0  0  0  0  0
  161.5250  202.5390  148.0320 C   0  0  1  0  0  3  0  0  0  0  0  0
  160.3750  202.4330  147.0330 C   0  0  1  0  0  3  0  0  0  0  0  0
  161.5800  205.9900  148.0590 C   0  0  1  0  0  3  0  0  0  0  0  0
  160.0110  201.8220  144.6430 C   0  0  0  0  0  2  0  0  0  0  0  0
  159.8680  200.4600  144.9180 O   0  0  0  0  0  1  0  0  0  0  0  0
  162.1420  207.0600  147.3200 O   0  0  0  0  0  0  0  0  0  0  0  0
  163.2130  207.6170  148.0340 C   0  0  0  0  0  2  0  0  0  0  0  0
  164.0500  206.5100  148.6340 C   0  0  0  0  0  1  0  0  0  0  0  0
  161.3740  207.9810  154.6250 C   0  0  0  0  0  1  0  0  0  0  0  0
  161.3770  207.3610  153.3410 O   0  0  0  0  0  0  0  0  0  0  0  0
  162.0050  210.5860  148.7330 N   0  0  0  0  0  0  0  0  0  0  0  0
  161.3190  211.6590  148.4380 C   0  0  0  0  0  0  0  0  0  0  0  0
  158.5990  214.0800  150.9130 C   0  0  2  0  0  3  0  0  0  0  0  0
  160.9030  213.1210  150.5390 C   0  0  0  0  0  2  0  0  0  0  0  0
  160.3270  212.2370  149.4300 C   0  0  1  0  0  3  0  0  0  0  0  0
  159.0670  212.8210  148.7850 C   0  0  2  0  0  3  0  0  0  0  0  0
  159.3100  214.0140  147.8670 C   0  0  0  0  0  1  0  0  0  0  0  0
  158.0200  213.1430  149.8460 C   0  0  0  0  0  2  0  0  0  0  0  0
  159.8290  213.4480  151.5780 C   0  0  0  0  0  2  0  0  0  0  0  0
  157.5490  214.3620  151.9630 C   0  0  0  0  0  1  0  0  0  0  0  0
  161.5240  212.2200  147.1670 O   0  0  0  0  0  0  0  0  0  0  0  0
  162.7730  214.0840  146.2270 C   0  0  2  0  0  3  0  0  0  0  0  0
  163.6340  213.0110  145.9500 O   0  0  0  0  0  1  0  0  0  0  0  0
  161.4750  213.6240  146.9000 C   0  0  1  0  0  3  0  0  0  0  0  0
  161.4810  213.9850  145.4130 C   0  0  2  0  0  3  0  0  0  0  0  0
  161.3590  212.7700  144.4730 C   0  0  0  0  0  2  0  0  0  0  0  0
  159.9910  212.7630  143.7930 C   0  0  0  0  0  2  0  0  0  0  0  0
  159.5270  214.1740  143.4350 C   0  0  2  0  0  3  0  0  0  0  0  0
  158.0710  214.3320  143.7770 C   0  0  0  0  0  0  0  0  0  0  0  0
  157.6630  214.3030  145.1030 O   0  0  0  0  0  1  0  0  0  0  0  0
  157.2020  214.4530  142.8670 O   0  0  0  0  0  0  0  0  0  0  0  0
  159.7600  214.4520  142.0210 N   0  0  0  0  0  2  0  0  0  0  0  0
  159.5090  213.2290  141.2750 C   0  0  0  0  0  2  0  0  0  0  0  0
  160.6530  212.9580  140.3140 C   0  0  0  0  0  2  0  0  0  0  0  0
  160.9160  211.4710  140.1990 C   0  0  0  0  0  2  0  0  0  0  0  0
  162.3960  211.2270  139.9810 C   0  0  1  0  0  3  0  0  0  0  0  0
  162.6050  210.7050  138.7020 O   0  0  0  0  0  1  0  0  0  0  0  0
  163.1240  212.4790  140.1180 N   0  0  0  0  0  1  0  0  0  0  0  0
  1 30  1  0  0  0  0
  2  4  1  0  0  0  0
  4  1  2  0  0  0  0
  5  3  1  0  0  0  0
  5  2  2  0  0  0  0
  6  3  1  6  0  0  0
  6  1  1  0  0  0  0
  7 13  1  0  0  0  0
  8 11  1  0  0  0  0
 10  8  1  0  0  0  0
 12  9  1  6  0  0  0
 12 15  1  0  0  0  0
 12 23  1  0  0  0  0
 13  6  1  0  0  0  0
 13 10  1  1  0  0  0
 14 18  1  0  0  0  0
 15 21  1  0  0  0  0
 16 22  1  0  0  0  0
 18 17  1  0  0  0  0
 18 11  1  0  0  0  0
 19 14  1  0  0  0  0
 20 16  1  0  0  0  0
 20  9  1  0  0  0  0
 21 19  1  0  0  0  0
 22 15  1  0  0  0  0
 22 21  1  0  0  0  0
 23  7  1  0  0  0  0
 24 25  1  0  0  0  0
 24 16  1  0  0  0  0
 26 27  1  0  0  0  0
 26 23  1  0  0  0  0
 27 28  1  0  0  0  0
 30 29  1  0  0  0  0
 31  5  1  0  0  0  0
 32 31  2  0  0  0  0
 32 35  1  0  0  0  0
 33 39  1  0  0  0  0
 33 40  1  0  0  0  0
 34 39  1  0  0  0  0
 35 34  1  0  0  0  0
 36 35  1  0  0  0  0
 36 38  1  0  0  0  0
 37 36  1  0  0  0  0
 38 33  1  0  0  0  0
 41 32  1  0  0  0  0
 42 44  1  0  0  0  0
 43 42  1  0  0  0  0
 44 41  1  0  0  0  0
 45 42  1  0  0  0  0
 45 44  1  0  0  0  0
 46 45  1  0  0  0  0
 47 46  1  0  0  0  0
 48 49  1  0  0  0  0
 48 47  1  0  0  0  0
 49 50  1  0  0  0  0
 51 49  2  0  0  0  0
 52 48  1  0  0  0  0
 53 52  1  0  0  0  0
 54 53  1  0  0  0  0
 55 54  1  0  0  0  0
 56 58  1  0  0  0  0
 56 55  1  0  0  0  0
 57 56  1  0  0  0  0
M  END
>  <MODEL>
5

>  <REMARK>
 VINA RESULT:      -0.4      1.704      2.212
  Name = 
  18 active torsions:
  status: ('A' for Active; 'I' for Inactive)
    1  A    between atoms: CA_1  and  C_3
    2  A    between atoms: CA_1  and  C_27
    3  A    between atoms: CA_1  and  N_35
    4  A    between atoms: C_2  and  C_38
    5  A    between atoms: C_5  and  O_57
    6  A    between atoms: C_8  and  C_37
    7  A    between atoms: C_12  and  C_55
    8  A    between atoms: O_14  and  C_21
    9  A    between atoms: O_14  and  C_56
   10  A    between atoms: O_15  and  C_20
   11  A    between atoms: O_15  and  C_55
   12  A    between atoms: N_22  and  C_44
   13  A    between atoms: C_23  and  C_37
   14  A    between atoms: C_23  and  C_39
   15  A    between atoms: C_27  and  C_40
   16  A    between atoms: C_30  and  C_58
   17  A    between atoms: N_35  and  C_39
   18  A    between atoms: C_40  and  C_51
                            x       y       z     vdW  Elec       q    Type
                         _______ _______ _______ _____ _____    ______ ____

>  <TORSDO>
F 18

$$$$
=
 OpenBabel11072415063D

 58 63  0  0  1  0  0  0  0  0999 V2000
  161.3750  208.8520  154.9790 C   0  0  0  0  0  0  0  0  0  0  0  0
  160.8140  207.7950  152.8860 N   0  0  0  0  0  0  0  0  0  0  0  0
  162.3420  209.6960  152.8020 C   0  0  0  0  0  2  0  0  0  0  0  0
  160.8450  207.8110  154.3140 C   0  0  0  0  0  3  0  0  0  0  0  0
  161.4550  208.6590  152.1570 C   0  0  0  0  0  0  0  0  0  0  0  0
  161.8170  210.0740  154.2100 C   0  0  1  0  0  3  0  0  0  0  0  0
  159.7730  210.9060  155.2030 O   0  0  0  0  0  0  0  0  0  0  0  0
  160.7440  212.4920  152.0990 C   0  0  0  0  0  2  0  0  0  0  0  0
  157.6630  213.3890  156.8320 O   0  0  0  0  0  0  0  0  0  0  0  0
  160.0500  211.3900  152.8780 C   0  0  0  0  0  2  0  0  0  0  0  0
  159.9380  212.9290  150.8900 C   0  0  0  0  0  2  0  0  0  0  0  0
  157.9560  212.2450  156.0730 C   0  0  1  0  0  3  0  0  0  0  0  0
  160.7360  211.1940  154.2250 C   0  0  2  0  0  3  0  0  0  0  0  0
  157.6280  212.8370  151.8180 C   0  0  0  0  0  2  0  0  0  0  0  0
  157.2180  212.2360  154.7080 C   0  0  2  0  0  3  0  0  0  0  0  0
  155.4010  213.5310  156.0950 C   0  0  1  0  0  3  0  0  0  0  0  0
  158.2040  214.4520  150.0320 C   0  0  0  0  0  1  0  0  0  0  0  0
  158.7210  213.7510  151.2770 C   0  0  2  0  0  3  0  0  0  0  0  0
  156.5940  213.5990  152.6360 C   0  0  0  0  0  2  0  0  0  0  0  0
  156.3370  213.2070  157.2460 C   0  0  0  0  0  2  0  0  0  0  0  0
  156.9090  213.6160  154.1300 C   0  0  1  0  0  3  0  0  0  0  0  0
  155.8010  212.8080  154.8010 C   0  0  1  0  0  3  0  0  0  0  0  0
  159.4770  212.1110  155.8790 C   0  0  1  0  0  3  0  0  0  0  0  0
  153.9910  213.1340  156.4860 C   0  0  0  0  0  2  0  0  0  0  0  0
  153.9920  211.9510  157.2300 O   0  0  0  0  0  1  0  0  0  0  0  0
  160.1510  212.2410  157.1180 O   0  0  0  0  0  0  0  0  0  0  0  0
  161.0890  213.2810  157.0400 C   0  0  0  0  0  2  0  0  0  0  0  0
  160.4940  214.4390  156.2700 C   0  0  0  0  0  1  0  0  0  0  0  0
  162.3560  209.6620  157.0900 C   0  0  0  0  0  1  0  0  0  0  0  0
  161.4100  208.8750  156.3710 O   0  0  0  0  0  0  0  0  0  0  0  0
  161.4310  208.5340  150.7220 N   0  0  0  0  0  0  0  0  0  0  0  0
  161.3010  207.4170  150.0550 C   0  0  0  0  0  0  0  0  0  0  0  0
  161.1320  203.4250  151.9030 C   0  0  2  0  0  3  0  0  0  0  0  0
  160.7090  204.8980  149.8990 C   0  0  0  0  0  2  0  0  0  0  0  0
  160.9700  206.1230  150.7770 C   0  0  1  0  0  3  0  0  0  0  0  0
  161.8760  205.8270  151.9750 C   0  0  2  0  0  3  0  0  0  0  0  0
  163.3470  205.6160  151.6300 C   0  0  0  0  0  1  0  0  0  0  0  0
  161.3260  204.6610  152.7890 C   0  0  0  0  0  2  0  0  0  0  0  0
  160.1790  203.7350  150.7410 C   0  0  0  0  0  2  0  0  0  0  0  0
  160.5640  202.2940  152.7290 C   0  0  0  0  0  1  0  0  0  0  0  0
  161.5090  207.4720  148.6680 O   0  0  0  0  0  0  0  0  0  0  0  0
  161.1080  207.0000  146.3150 C   0  0  2  0  0  3  0  0  0  0  0  0
  162.5110  207.0040  146.3580 O   0  0  0  0  0  1  0  0  0  0  0  0
  160.4880  207.2160  147.7000 C   0  0  1  0  0  3  0  0  0  0  0  0
  160.5320  205.8130  147.0910 C   0  0  2  0  0  3  0  0  0  0  0  0
  161.5560  204.8720  147.7570 C   0  0  0  0  0  2  0  0  0  0  0  0
  162.1570  203.9260  146.7190 C   0  0  0  0  0  2  0  0  0  0  0  0
  161.1250  203.4930  145.6790 C   0  0  2  0  0  3  0  0  0  0  0  0
  160.7140  202.0690  145.9320 C   0  0  0  0  0  0  0  0  0  0  0  0
  159.9910  201.3750  144.9720 O   0  0  0  0  0  0  0  0  0  0  0  0
  160.9860  201.5020  147.0290 O   0  0  0  0  0  1  0  0  0  0  0  0
  161.6570  203.6470  144.3280 N   0  0  0  0  0  2  0  0  0  0  0  0
  161.1800  204.9140  143.7980 C   0  0  0  0  0  2  0  0  0  0  0  0
  162.2210  205.5220  142.8750 C   0  0  0  0  0  2  0  0  0  0  0  0
  161.5890  205.9660  141.5730 C   0  0  0  0  0  2  0  0  0  0  0  0
  162.3650  207.1340  140.9970 C   0  0  1  0  0  3  0  0  0  0  0  0
  163.2450  206.6760  140.0120 O   0  0  0  0  0  1  0  0  0  0  0  0
  161.4430  208.0960  140.4140 N   0  0  0  0  0  1  0  0  0  0  0  0
  1 30  1  0  0  0  0
  2  4  1  0  0  0  0
  4  1  2  0  0  0  0
  5  3  1  0  0  0  0
  5  2  2  0  0  0  0
  6  3  1  6  0  0  0
  6 13  1  0  0  0  0
  6  1  1  0  0  0  0
  7 23  1  0  0  0  0
  8 10  1  0  0  0  0
  9 20  1  0  0  0  0
 11 18  1  0  0  0  0
 11  8  1  0  0  0  0
 12  9  1  6  0  0  0
 13 10  1  6  0  0  0
 13  7  1  0  0  0  0
 14 19  1  0  0  0  0
 15 22  1  0  0  0  0
 15 12  1  0  0  0  0
 16 24  1  0  0  0  0
 16 20  1  0  0  0  0
 17 18  1  0  0  0  0
 18 14  1  0  0  0  0
 19 21  1  0  0  0  0
 21 15  1  0  0  0  0
 21 22  1  0  0  0  0
 22 16  1  0  0  0  0
 23 12  1  0  0  0  0
 23 26  1  0  0  0  0
 24 25  1  0  0  0  0
 27 26  1  0  0  0  0
 28 27  1  0  0  0  0
 30 29  1  0  0  0  0
 31  5  1  0  0  0  0
 32 31  2  0  0  0  0
 32 35  1  0  0  0  0
 33 40  1  0  0  0  0
 33 38  1  0  0  0  0
 34 39  1  0  0  0  0
 34 35  1  0  0  0  0
 35 36  1  0  0  0  0
 36 38  1  0  0  0  0
 37 36  1  0  0  0  0
 39 33  1  0  0  0  0
 41 32  1  0  0  0  0
 42 43  1  0  0  0  0
 42 45  1  0  0  0  0
 42 44  1  0  0  0  0
 44 41  1  0  0  0  0
 45 44  1  0  0  0  0
 45 46  1  0  0  0  0
 47 46  1  0  0  0  0
 48 49  1  0  0  0  0
 48 47  1  0  0  0  0
 49 51  1  0  0  0  0
 50 49  2  0  0  0  0
 52 48  1  0  0  0  0
 53 52  1  0  0  0  0
 54 53  1  0  0  0  0
 55 54  1  0  0  0  0
 56 55  1  0  0  0  0
 57 56  1  0  0  0  0
 58 56  1  0  0  0  0
M  END
>  <MODEL>
6

>  <REMARK>
 VINA RESULT:       0.0      3.281      9.300
  Name = 
  18 active torsions:
  status: ('A' for Active; 'I' for Inactive)
    1  A    between atoms: CA_1  and  C_3
    2  A    between atoms: CA_1  and  C_27
    3  A    between atoms: CA_1  and  N_35
    4  A    between atoms: C_2  and  C_38
    5  A    between atoms: C_5  and  O_57
    6  A    between atoms: C_8  and  C_37
    7  A    between atoms: C_12  and  C_55
    8  A    between atoms: O_14  and  C_21
    9  A    between atoms: O_14  and  C_56
   10  A    between atoms: O_15  and  C_20
   11  A    between atoms: O_15  and  C_55
   12  A    between atoms: N_22  and  C_44
   13  A    between atoms: C_23  and  C_37
   14  A    between atoms: C_23  and  C_39
   15  A    between atoms: C_27  and  C_40
   16  A    between atoms: C_30  and  C_58
   17  A    between atoms: N_35  and  C_39
   18  A    between atoms: C_40  and  C_51
                            x       y       z     vdW  Elec       q    Type
                         _______ _______ _______ _____ _____    ______ ____

>  <TORSDO>
F 18

$$$$
=
 OpenBabel11072415063D

 58 63  0  0  1  0  0  0  0  0999 V2000
  156.4070  213.7770  149.8690 C   0  0  0  0  0  0  0  0  0  0  0  0
  157.2210  212.1350  151.4360 N   0  0  0  0  0  0  0  0  0  0  0  0
  158.6260  214.0900  151.0390 C   0  0  0  0  0  2  0  0  0  0  0  0
  156.1760  212.7020  150.6430 C   0  0  0  0  0  3  0  0  0  0  0  0
  158.3680  212.7190  151.6150 C   0  0  0  0  0  0  0  0  0  0  0  0
  157.8160  214.3040  149.7350 C   0  0  1  0  0  3  0  0  0  0  0  0
  159.8770  214.0980  148.4840 O   0  0  0  0  0  0  0  0  0  0  0  0
  156.8570  213.3850  146.6220 C   0  0  0  0  0  2  0  0  0  0  0  0
  162.4710  212.3020  146.6630 O   0  0  0  0  0  0  0  0  0  0  0  0
  157.9000  214.3460  147.1620 C   0  0  0  0  0  2  0  0  0  0  0  0
  156.4290  213.7430  145.2110 C   0  0  0  0  0  2  0  0  0  0  0  0
  161.6990  213.4090  147.0490 C   0  0  1  0  0  3  0  0  0  0  0  0
  158.5100  213.7860  148.4420 C   0  0  2  0  0  3  0  0  0  0  0  0
  158.6080  214.4530  144.2350 C   0  0  0  0  0  2  0  0  0  0  0  0
  161.1070  214.1710  145.8340 C   0  0  2  0  0  3  0  0  0  0  0  0
  163.3300  213.3470  144.7000 C   0  0  1  0  0  3  0  0  0  0  0  0
  156.8600  213.4390  142.8060 C   0  0  0  0  0  1  0  0  0  0  0  0
  157.4980  213.4100  144.1840 C   0  0  2  0  0  3  0  0  0  0  0  0
  159.8950  213.9540  143.5920 C   0  0  0  0  0  2  0  0  0  0  0  0
  163.6300  212.8590  146.1070 C   0  0  0  0  0  2  0  0  0  0  0  0
  160.8550  213.3140  144.5940 C   0  0  1  0  0  3  0  0  0  0  0  0
  162.0760  214.2300  144.6490 C   0  0  1  0  0  3  0  0  0  0  0  0
  160.5870  212.9690  148.0180 C   0  0  1  0  0  3  0  0  0  0  0  0
  164.5240  214.1290  144.1890 C   0  0  0  0  0  2  0  0  0  0  0  0
  164.4180  214.3650  142.8160 O   0  0  0  0  0  1  0  0  0  0  0  0
  161.1210  212.1720  149.0610 O   0  0  0  0  0  0  0  0  0  0  0  0
  161.6690  210.9960  148.5260 C   0  0  0  0  0  2  0  0  0  0  0  0
  162.0950  210.0800  149.6510 C   0  0  0  0  0  1  0  0  0  0  0  0
  154.0480  214.4160  149.5540 C   0  0  0  0  0  1  0  0  0  0  0  0
  155.3950  214.3370  149.0940 O   0  0  0  0  0  0  0  0  0  0  0  0
  159.3440  212.1160  152.4850 N   0  0  0  0  0  0  0  0  0  0  0  0
  159.2200  211.9570  153.7770 C   0  0  0  0  0  0  0  0  0  0  0  0
  155.8300  212.6480  156.4990 C   0  0  2  0  0  3  0  0  0  0  0  0
  157.1650  211.0520  155.0730 C   0  0  0  0  0  2  0  0  0  0  0  0
  157.8990  212.2490  154.4650 C   0  0  1  0  0  3  0  0  0  0  0  0
  157.9330  213.4690  155.3900 C   0  0  2  0  0  3  0  0  0  0  0  0
  158.8780  213.3450  156.5810 C   0  0  0  0  0  1  0  0  0  0  0  0
  156.5250  213.8450  155.8370 C   0  0  0  0  0  2  0  0  0  0  0  0
  155.7630  211.4580  155.5340 C   0  0  0  0  0  2  0  0  0  0  0  0
  154.4290  213.0410  156.9100 C   0  0  0  0  0  1  0  0  0  0  0  0
  160.3590  211.5400  154.4830 O   0  0  0  0  0  0  0  0  0  0  0  0
  162.6690  210.9270  154.9380 C   0  0  2  0  0  3  0  0  0  0  0  0
  162.0560  210.6060  156.1580 O   0  0  0  0  0  1  0  0  0  0  0  0
  161.6600  211.4300  153.8990 C   0  0  1  0  0  3  0  0  0  0  0  0
  162.1960  209.9990  153.8170 C   0  0  2  0  0  3  0  0  0  0  0  0
  161.1680  208.9210  154.2130 C   0  0  0  0  0  2  0  0  0  0  0  0
  161.6460  207.5430  153.7590 C   0  0  0  0  0  2  0  0  0  0  0  0
  160.8420  207.0260  152.5670 C   0  0  2  0  0  3  0  0  0  0  0  0
  160.9020  205.5240  152.5240 C   0  0  0  0  0  0  0  0  0  0  0  0
  161.2940  204.8140  153.6510 O   0  0  0  0  0  1  0  0  0  0  0  0
  160.6390  204.8960  151.4600 O   0  0  0  0  0  0  0  0  0  0  0  0
  161.3390  207.6010  151.3210 N   0  0  0  0  0  2  0  0  0  0  0  0
  162.2480  206.6400  150.7140 C   0  0  0  0  0  2  0  0  0  0  0  0
  162.5130  207.0120  149.2660 C   0  0  0  0  0  2  0  0  0  0  0  0
  161.2190  207.0560  148.4790 C   0  0  0  0  0  2  0  0  0  0  0  0
  161.1030  205.8180  147.6130 C   0  0  1  0  0  3  0  0  0  0  0  0
  160.0210  205.9530  146.7390 O   0  0  0  0  0  1  0  0  0  0  0  0
  162.3260  205.6410  146.8450 N   0  0  0  0  0  1  0  0  0  0  0  0
  1  4  2  0  0  0  0
  2  5  2  0  0  0  0
  3  5  1  0  0  0  0
  4  2  1  0  0  0  0
  5 31  1  0  0  0  0
  6  1  1  0  0  0  0
  6  3  1  1  0  0  0
  8 10  1  0  0  0  0
 11  8  1  0  0  0  0
 12  9  1  6  0  0  0
 12 23  1  0  0  0  0
 13 10  1  6  0  0  0
 13  7  1  0  0  0  0
 13  6  1  0  0  0  0
 15 12  1  0  0  0  0
 16 20  1  0  0  0  0
 17 18  1  0  0  0  0
 18 14  1  0  0  0  0
 18 11  1  0  0  0  0
 19 14  1  0  0  0  0
 19 21  1  0  0  0  0
 20  9  1  0  0  0  0
 21 22  1  0  0  0  0
 21 15  1  0  0  0  0
 22 16  1  0  0  0  0
 22 15  1  0  0  0  0
 23  7  1  0  0  0  0
 23 26  1  0  0  0  0
 24 16  1  0  0  0  0
 25 24  1  0  0  0  0
 27 26  1  0  0  0  0
 27 28  1  0  0  0  0
 30 29  1  0  0  0  0
 30  1  1  0  0  0  0
 31 32  2  0  0  0  0
 32 35  1  0  0  0  0
 32 41  1  0  0  0  0
 33 40  1  0  0  0  0
 34 39  1  0  0  0  0
 35 34  1  0  0  0  0
 35 36  1  0  0  0  0
 36 38  1  0  0  0  0
 36 37  1  0  0  0  0
 38 33  1  0  0  0  0
 39 33  1  0  0  0  0
 42 43  1  0  0  0  0
 44 41  1  0  0  0  0
 44 42  1  0  0  0  0
 45 44  1  0  0  0  0
 45 46  1  0  0  0  0
 45 42  1  0  0  0  0
 47 46  1  0  0  0  0
 48 47  1  0  0  0  0
 49 48  1  0  0  0  0
 49 50  1  0  0  0  0
 51 49  2  0  0  0  0
 52 48  1  0  0  0  0
 53 52  1  0  0  0  0
 54 53  1  0  0  0  0
 55 54  1  0  0  0  0
 56 55  1  0  0  0  0
 57 56  1  0  0  0  0
 58 56  1  0  0  0  0
M  END
>  <MODEL>
7

>  <REMARK>
 VINA RESULT:       0.4      2.793      8.511
  Name = 
  18 active torsions:
  status: ('A' for Active; 'I' for Inactive)
    1  A    between atoms: CA_1  and  C_3
    2  A    between atoms: CA_1  and  C_27
    3  A    between atoms: CA_1  and  N_35
    4  A    between atoms: C_2  and  C_38
    5  A    between atoms: C_5  and  O_57
    6  A    between atoms: C_8  and  C_37
    7  A    between atoms: C_12  and  C_55
    8  A    between atoms: O_14  and  C_21
    9  A    between atoms: O_14  and  C_56
   10  A    between atoms: O_15  and  C_20
   11  A    between atoms: O_15  and  C_55
   12  A    between atoms: N_22  and  C_44
   13  A    between atoms: C_23  and  C_37
   14  A    between atoms: C_23  and  C_39
   15  A    between atoms: C_27  and  C_40
   16  A    between atoms: C_30  and  C_58
   17  A    between atoms: N_35  and  C_39
   18  A    between atoms: C_40  and  C_51
                            x       y       z     vdW  Elec       q    Type
                         _______ _______ _______ _____ _____    ______ ____

>  <TORSDO>
F 18

$$$$
