=
 OpenBabel11072415063D

 64 70  0  0  1  0  0  0  0  0999 V2000
  161.0850  210.9510  152.1900 C   0  0  2  0  0  0  0  0  0  0  0  0
  161.6280  209.9430  154.5150 C   0  0  1  0  0  3  0  0  0  0  0  0
  161.6710  209.7410  150.4450 C   0  0  1  0  0  3  0  0  0  0  0  0
  160.1970  209.4130  154.3330 C   0  0  2  0  0  3  0  0  0  0  0  0
  162.1510  211.0220  150.1090 O   0  0  0  0  0  0  0  0  0  0  0  0
  159.8640  211.5540  152.9320 C   0  0  1  0  0  3  0  0  0  0  0  0
  160.7020  209.8270  151.4600 O   0  0  0  0  0  0  0  0  0  0  0  0
  159.2320  210.5500  153.9180 C   0  0  1  0  0  3  0  0  0  0  0  0
  162.1730  210.5470  153.2130 C   0  0  0  0  0  2  0  0  0  0  0  0
  161.7160  211.8600  151.1440 C   0  0  1  0  0  3  0  0  0  0  0  0
  160.5110  212.7770  149.0980 C   0  0  0  0  0  1  0  0  0  0  0  0
  160.7960  212.9560  150.5830 C   0  0  0  0  0  3  0  0  0  0  0  0
  161.3980  214.3240  150.8300 C   0  0  0  0  0  1  0  0  0  0  0  0
  159.7230  208.7200  155.5740 C   0  0  0  0  0  3  0  0  0  0  0  0
  160.5960  208.2520  156.4660 C   0  0  0  0  0  2  0  0  0  0  0  0
  160.2420  212.7020  153.6410 O   0  0  0  0  0  0  0  0  0  0  0  0
  160.0790  212.3930  154.9120 O   0  0  0  0  0  0  0  0  0  0  0  0
  159.7840  213.6060  155.5400 C   0  0  0  0  0  1  0  0  0  0  0  0
  161.6670  210.9320  155.5370 O   0  0  0  0  0  0  0  0  0  0  0  0
  163.0430  209.6510  157.1730 C   0  0  0  0  0  1  0  0  0  0  0  0
  163.2110  212.0060  156.8810 O   0  0  0  0  0  0  0  0  0  0  0  0
  162.6530  210.9320  156.5250 C   0  0  0  0  0  0  0  0  0  0  0  0
  161.0980  209.0520  149.2200 C   0  0  0  0  0  2  0  0  0  0  0  0
  161.1700  207.5450  149.4190 C   0  0  1  0  0  3  0  0  0  0  0  0
  160.8470  206.8470  148.1870 N   0  0  0  0  0  0  0  0  0  0  0  0
  161.6860  206.8040  147.2010 C   0  0  0  0  0  3  0  0  0  0  0  0
  160.5700  206.7520  145.0020 C   0  0  0  0  0  1  0  0  0  0  0  0
  161.3760  206.1480  146.0080 O   0  0  0  0  0  0  0  0  0  0  0  0
  162.5360  207.1150  149.9520 C   0  0  0  0  0  2  0  0  0  0  0  0
  162.6150  207.1200  151.4760 C   0  0  0  0  0  2  0  0  0  0  0  0
  162.0000  204.9630  152.1070 C   0  0  2  0  0  3  0  0  0  0  0  0
  162.0000  205.8060  153.3210 C   0  0  1  0  0  3  0  0  0  0  0  0
  161.5230  206.3530  152.0430 N   0  0  0  0  0  0  0  0  0  0  0  0
  160.8140  205.6170  154.2580 C   0  0  0  0  0  1  0  0  0  0  0  0
  160.8170  204.0070  151.9620 C   0  0  0  0  0  2  0  0  0  0  0  0
  161.2660  202.5410  151.8770 C   0  0  2  0  0  3  0  0  0  0  0  0
  162.4640  202.3310  152.5460 F   0  0  0  0  0  0  0  0  0  0  0  0
  160.4460  202.7100  149.4650 C   0  0  1  0  0  3  0  0  0  0  0  0
  160.4860  200.6770  150.3640 C   0  0  0  0  0  2  0  0  0  0  0  0
  159.2750  201.3510  149.1820 S   0  0  0  0  0  0  0  0  0  0  0  0
  161.3130  201.9460  150.4590 C   0  0  2  0  0  3  0  0  0  0  0  0
  162.0060  203.9630  148.1790 O   0  0  0  0  0  0  0  0  0  0  0  0
  160.7950  202.3830  146.9620 N   0  0  0  0  0  2  0  0  0  0  0  0
  161.1640  203.0280  148.1870 C   0  0  0  0  0  0  0  0  0  0  0  0
  161.2430  203.0500  145.3850 S   0  0  0  0  0  0  0  0  0  0  0  0
  160.0770  201.9730  144.4910 C   0  0  1  0  0  3  0  0  0  0  0  0
  160.8440  198.0000  145.3610 C   0  0  0  0  0  1  0  0  0  0  0  0
  160.3590  200.5690  144.8150 C   0  0  0  0  0  0  0  0  0  0  0  0
  160.5870  199.4090  145.0680 C   0  0  0  0  0  0  0  0  0  0  0  0
  158.6520  202.3080  144.9060 C   0  0  0  0  0  2  0  0  0  0  0  0
  158.1880  203.5630  144.2000 C   0  0  0  0  0  1  0  0  0  0  0  0
  158.0410  210.0390  153.3810 O   0  0  0  0  0  0  0  0  0  0  0  0
  154.5790  212.9540  153.0830 N   0  0  0  0  0  2  0  0  0  0  0  0
  157.3990  210.8790  155.5530 C   0  0  0  0  0  2  0  0  0  0  0  0
  155.5360  213.5700  154.8110 C   0  0  2  0  0  0  0  0  0  0  0  0
  154.6110  214.1370  153.8440 N   0  0  0  0  0  2  0  0  0  0  0  0
  155.4720  212.2720  153.9990 C   0  0  2  0  0  0  0  0  0  0  0  0
  156.7400  211.9190  153.5040 O   0  0  0  0  0  0  0  0  0  0  0  0
  156.2930  211.6220  156.3290 C   0  0  0  0  0  2  0  0  0  0  0  0
  157.0180  210.6780  154.0890 C   0  0  1  0  0  3  0  0  0  0  0  0
  155.1580  212.2570  155.4900 C   0  0  1  0  0  3  0  0  0  0  0  0
  157.4370  214.4500  155.9910 O   0  0  0  0  0  1  0  0  0  0  0  0
  157.6140  214.4530  153.7040 O   0  0  0  0  0  0  0  0  0  0  0  0
  156.9040  214.2010  154.8750 C   0  0  0  0  0  0  0  0  0  0  0  0
  1  6  1  0  0  0  0
  1  9  1  1  0  0  0
  2 19  1  1  0  0  0
  3 23  1  6  0  0  0
  3  7  1  0  0  0  0
  4  2  1  0  0  0  0
  4 14  1  1  0  0  0
  5  3  1  0  0  0  0
  5 10  1  0  0  0  0
  6 16  1  1  0  0  0
  6  8  1  0  0  0  0
  7  1  1  0  0  0  0
  8 52  1  6  0  0  0
  8  4  1  0  0  0  0
  9  2  1  0  0  0  0
 10 12  1  6  0  0  0
 10  1  1  0  0  0  0
 11 12  1  0  0  0  0
 12 13  1  0  0  0  0
 14 15  2  0  0  0  0
 16 17  1  0  0  0  0
 17 18  1  0  0  0  0
 19 22  1  0  0  0  0
 22 21  2  0  0  0  0
 22 20  1  0  0  0  0
 24 23  1  6  0  0  0
 24 29  1  0  0  0  0
 25 24  1  0  0  0  0
 26 25  2  0  0  0  0
 27 28  1  0  0  0  0
 28 26  1  0  0  0  0
 29 30  1  0  0  0  0
 30 33  1  0  0  0  0
 31 35  1  1  0  0  0
 31 32  1  0  0  0  0
 32 34  1  1  0  0  0
 33 31  1  0  0  0  0
 33 32  1  0  0  0  0
 36 35  1  0  0  0  0
 36 37  1  6  0  0  0
 38 44  1  6  0  0  0
 38 41  1  0  0  0  0
 39 41  1  0  0  0  0
 40 38  1  0  0  0  0
 40 39  1  0  0  0  0
 41 36  1  1  0  0  0
 42 44  2  0  0  0  0
 43 44  1  0  0  0  0
 45 43  1  0  0  0  0
 46 48  1  1  0  0  0
 46 50  1  0  0  0  0
 46 45  1  0  0  0  0
 48 49  3  0  0  0  0
 49 47  1  0  0  0  0
 51 50  1  0  0  0  0
 53 56  1  0  0  0  0
 54 59  1  0  0  0  0
 55 64  1  1  0  0  0
 55 61  1  0  0  0  0
 56 55  1  0  0  0  0
 57 53  1  6  0  0  0
 57 55  1  0  0  0  0
 57 61  1  0  0  0  0
 58 57  1  0  0  0  0
 58 60  1  0  0  0  0
 60 52  1  6  0  0  0
 60 54  1  0  0  0  0
 61 59  1  1  0  0  0
 63 64  2  0  0  0  0
 64 62  1  0  0  0  0
M  END
>  <MODEL>
1

>  <REMARK>
 VINA RESULT:       1.5      0.000      0.000
  Name = 
  24 active torsions:
  status: ('A' for Active; 'I' for Inactive)
    1  A    between atoms: C_1  and  C_42
    2  A    between atoms: N_2  and  C_43
    3  A    between atoms: C_5  and  C_18
    4  A    between atoms: C_5  and  C_43
    5  A    between atoms: S_7  and  N_25
    6  A    between atoms: S_7  and  C_51
    7  A    between atoms: C_8  and  C_19
    8  A    between atoms: C_8  and  C_60
    9  A    between atoms: O_9  and  O_26
   10  A    between atoms: O_9  and  C_31
   11  A    between atoms: C_14  and  C_19
   12  A    between atoms: C_15  and  C_20
   13  A    between atoms: C_17  and  O_41
   14  A    between atoms: C_21  and  C_51
   15  A    between atoms: C_24  and  C_45
   16  A    between atoms: N_32  and  C_37
   17  A    between atoms: C_36  and  C_51
   18  A    between atoms: C_37  and  C_38
   19  A    between atoms: C_38  and  C_43
   20  A    between atoms: C_39  and  O_54
   21  A    between atoms: C_40  and  O_61
   22  A    between atoms: O_41  and  C_56
   23  A    between atoms: C_46  and  C_64
   24  A    between atoms: C_59  and  O_61
                            x       y       z     vdW  Elec       q    Type
                         _______ _______ _______ _____ _____    ______ ____

>  <TORSDO>
F 24

$$$$
=
 OpenBabel11072415063D

 64 70  0  0  1  0  0  0  0  0999 V2000
  161.9110  207.8990  151.8560 C   0  0  2  0  0  0  0  0  0  0  0  0
  161.4970  207.3300  154.3500 C   0  0  1  0  0  3  0  0  0  0  0  0
  161.4310  206.3120  150.4040 C   0  0  1  0  0  3  0  0  0  0  0  0
  160.1460  207.9770  154.0060 C   0  0  2  0  0  3  0  0  0  0  0  0
  162.7070  206.7390  149.9870 O   0  0  0  0  0  0  0  0  0  0  0  0
  161.5270  209.3340  152.3010 C   0  0  1  0  0  3  0  0  0  0  0  0
  160.8300  207.2820  151.2270 O   0  0  0  0  0  0  0  0  0  0  0  0
  160.3460  209.3360  153.2940 C   0  0  1  0  0  3  0  0  0  0  0  0
  162.3270  207.0620  153.0880 C   0  0  0  0  0  2  0  0  0  0  0  0
  163.0210  207.8220  150.8180 C   0  0  1  0  0  3  0  0  0  0  0  0
  162.0440  210.0520  150.0700 C   0  0  0  0  0  1  0  0  0  0  0  0
  163.2230  209.0920  149.9740 C   0  0  0  0  0  3  0  0  0  0  0  0
  163.4710  208.7240  148.5250 C   0  0  0  0  0  1  0  0  0  0  0  0
  159.2970  208.1230  155.2330 C   0  0  0  0  0  3  0  0  0  0  0  0
  158.5890  207.0930  155.6960 C   0  0  0  0  0  2  0  0  0  0  0  0
  162.6220  209.9660  152.9060 O   0  0  0  0  0  0  0  0  0  0  0  0
  162.1470  210.4920  154.0180 O   0  0  0  0  0  0  0  0  0  0  0  0
  163.2330  211.1630  154.5880 C   0  0  0  0  0  1  0  0  0  0  0  0
  162.2420  208.1680  155.2270 O   0  0  0  0  0  0  0  0  0  0  0  0
  161.9580  209.5820  157.2590 C   0  0  0  0  0  1  0  0  0  0  0  0
  161.6880  207.2190  157.2600 O   0  0  0  0  0  0  0  0  0  0  0  0
  161.9500  208.2540  156.5890 C   0  0  0  0  0  0  0  0  0  0  0  0
  160.5520  206.0150  149.2040 C   0  0  0  0  0  2  0  0  0  0  0  0
  161.2790  205.0450  148.2840 C   0  0  1  0  0  3  0  0  0  0  0  0
  160.5370  203.8030  148.1570 N   0  0  0  0  0  0  0  0  0  0  0  0
  160.4740  202.9560  149.1350 C   0  0  0  0  0  3  0  0  0  0  0  0
  159.7610  200.7820  150.0550 C   0  0  0  0  0  1  0  0  0  0  0  0
  159.7760  201.7530  149.0140 O   0  0  0  0  0  0  0  0  0  0  0  0
  161.5470  205.6670  146.9140 C   0  0  0  0  0  2  0  0  0  0  0  0
  160.4290  206.5950  146.4480 C   0  0  0  0  0  2  0  0  0  0  0  0
  161.1850  206.1060  144.2990 C   0  0  2  0  0  3  0  0  0  0  0  0
  160.5410  204.8910  144.8370 C   0  0  1  0  0  3  0  0  0  0  0  0
  159.9740  206.2160  145.1250 N   0  0  0  0  0  0  0  0  0  0  0  0
  159.6190  204.1490  143.8780 C   0  0  0  0  0  1  0  0  0  0  0  0
  160.8500  206.4480  142.8470 C   0  0  0  0  0  2  0  0  0  0  0  0
  161.9390  205.9700  141.8750 C   0  0  2  0  0  3  0  0  0  0  0  0
  163.0030  205.3820  142.5450 F   0  0  0  0  0  0  0  0  0  0  0  0
  161.2980  207.8320  140.2500 C   0  0  1  0  0  3  0  0  0  0  0  0
  162.8310  206.3810  139.5500 C   0  0  0  0  0  2  0  0  0  0  0  0
  161.5370  207.2000  138.5630 S   0  0  0  0  0  0  0  0  0  0  0  0
  162.4320  207.0210  140.8660 C   0  0  2  0  0  3  0  0  0  0  0  0
  162.7160  209.7280  140.0300 O   0  0  0  0  0  0  0  0  0  0  0  0
  160.5400  210.2210  140.7110 N   0  0  0  0  0  2  0  0  0  0  0  0
  161.5540  209.3090  140.2740 C   0  0  0  0  0  0  0  0  0  0  0  0
  160.9250  211.8700  141.2210 S   0  0  0  0  0  0  0  0  0  0  0  0
  161.4920  212.3560  139.5580 C   0  0  1  0  0  3  0  0  0  0  0  0
  158.2370  212.7490  137.0320 C   0  0  0  0  0  1  0  0  0  0  0  0
  160.3320  212.5110  138.6720 C   0  0  0  0  0  0  0  0  0  0  0  0
  159.3790  212.6250  137.9370 C   0  0  0  0  0  0  0  0  0  0  0  0
  162.2430  213.6760  139.6400 C   0  0  0  0  0  2  0  0  0  0  0  0
  162.9360  213.7970  140.9790 C   0  0  0  0  0  1  0  0  0  0  0  0
  159.1740  209.7470  152.6400 O   0  0  0  0  0  0  0  0  0  0  0  0
  160.0100  212.8500  155.8410 N   0  0  0  0  0  2  0  0  0  0  0  0
  157.7090  211.6560  152.4290 C   0  0  0  0  0  2  0  0  0  0  0  0
  158.0170  213.1860  155.4000 C   0  0  2  0  0  0  0  0  0  0  0  0
  158.9290  213.4680  156.4960 N   0  0  0  0  0  2  0  0  0  0  0  0
  159.2040  212.5450  154.6750 C   0  0  2  0  0  0  0  0  0  0  0  0
  158.9630  211.1850  154.4090 O   0  0  0  0  0  0  0  0  0  0  0  0
  157.4850  213.1160  152.8730 C   0  0  0  0  0  2  0  0  0  0  0  0
  158.9970  211.0840  153.0140 C   0  0  1  0  0  3  0  0  0  0  0  0
  158.4030  213.6510  154.0000 C   0  0  1  0  0  3  0  0  0  0  0  0
  157.0200  211.0010  155.5070 O   0  0  0  0  0  0  0  0  0  0  0  0
  155.7020  212.7190  156.2640 O   0  0  0  0  0  1  0  0  0  0  0  0
  156.8830  212.2390  155.7040 C   0  0  0  0  0  0  0  0  0  0  0  0
  1  6  1  0  0  0  0
  1  9  1  1  0  0  0
  2 19  1  1  0  0  0
  3 23  1  6  0  0  0
  3  7  1  0  0  0  0
  4  2  1  0  0  0  0
  4 14  1  1  0  0  0
  5  3  1  0  0  0  0
  5 10  1  0  0  0  0
  6 16  1  1  0  0  0
  6  8  1  0  0  0  0
  7  1  1  0  0  0  0
  8 52  1  6  0  0  0
  8  4  1  0  0  0  0
  9  2  1  0  0  0  0
 10 12  1  6  0  0  0
 10  1  1  0  0  0  0
 12 11  1  0  0  0  0
 13 12  1  0  0  0  0
 14 15  2  0  0  0  0
 16 17  1  0  0  0  0
 17 18  1  0  0  0  0
 19 22  1  0  0  0  0
 22 20  1  0  0  0  0
 22 21  2  0  0  0  0
 24 29  1  6  0  0  0
 24 23  1  0  0  0  0
 25 24  1  0  0  0  0
 25 26  2  0  0  0  0
 28 26  1  0  0  0  0
 28 27  1  0  0  0  0
 30 29  1  0  0  0  0
 31 35  1  6  0  0  0
 31 32  1  0  0  0  0
 31 33  1  0  0  0  0
 32 34  1  6  0  0  0
 32 33  1  0  0  0  0
 33 30  1  0  0  0  0
 36 37  1  1  0  0  0
 36 35  1  0  0  0  0
 38 44  1  6  0  0  0
 38 41  1  0  0  0  0
 39 41  1  0  0  0  0
 40 39  1  0  0  0  0
 40 38  1  0  0  0  0
 41 36  1  1  0  0  0
 42 44  2  0  0  0  0
 43 45  1  0  0  0  0
 44 43  1  0  0  0  0
 46 48  1  6  0  0  0
 46 50  1  0  0  0  0
 46 45  1  0  0  0  0
 47 49  1  0  0  0  0
 49 48  3  0  0  0  0
 50 51  1  0  0  0  0
 53 56  1  0  0  0  0
 54 59  1  0  0  0  0
 54 60  1  0  0  0  0
 55 64  1  1  0  0  0
 55 56  1  0  0  0  0
 57 58  1  6  0  0  0
 57 55  1  0  0  0  0
 57 53  1  0  0  0  0
 60 52  1  1  0  0  0
 60 58  1  0  0  0  0
 61 59  1  6  0  0  0
 61 57  1  0  0  0  0
 61 55  1  0  0  0  0
 62 64  2  0  0  0  0
 64 63  1  0  0  0  0
M  END
>  <MODEL>
2

>  <REMARK>
 VINA RESULT:       2.9      4.360      7.181
  Name = 
  24 active torsions:
  status: ('A' for Active; 'I' for Inactive)
    1  A    between atoms: C_1  and  C_42
    2  A    between atoms: N_2  and  C_43
    3  A    between atoms: C_5  and  C_18
    4  A    between atoms: C_5  and  C_43
    5  A    between atoms: S_7  and  N_25
    6  A    between atoms: S_7  and  C_51
    7  A    between atoms: C_8  and  C_19
    8  A    between atoms: C_8  and  C_60
    9  A    between atoms: O_9  and  O_26
   10  A    between atoms: O_9  and  C_31
   11  A    between atoms: C_14  and  C_19
   12  A    between atoms: C_15  and  C_20
   13  A    between atoms: C_17  and  O_41
   14  A    between atoms: C_21  and  C_51
   15  A    between atoms: C_24  and  C_45
   16  A    between atoms: N_32  and  C_37
   17  A    between atoms: C_36  and  C_51
   18  A    between atoms: C_37  and  C_38
   19  A    between atoms: C_38  and  C_43
   20  A    between atoms: C_39  and  O_54
   21  A    between atoms: C_40  and  O_61
   22  A    between atoms: O_41  and  C_56
   23  A    between atoms: C_46  and  C_64
   24  A    between atoms: C_59  and  O_61
                            x       y       z     vdW  Elec       q    Type
                         _______ _______ _______ _____ _____    ______ ____

>  <TORSDO>
F 24

$$$$
=
 OpenBabel11072415063D

 64 70  0  0  1  0  0  0  0  0999 V2000
  161.2480  208.1240  151.9910 C   0  0  2  0  0  0  0  0  0  0  0  0
  160.3460  207.7530  154.3920 C   0  0  1  0  0  3  0  0  0  0  0  0
  160.8710  206.5020  150.5490 C   0  0  1  0  0  3  0  0  0  0  0  0
  159.1490  208.5000  153.7800 C   0  0  2  0  0  3  0  0  0  0  0  0
  162.2370  206.7810  150.3520 O   0  0  0  0  0  0  0  0  0  0  0  0
  160.9410  209.6140  152.2960 C   0  0  1  0  0  3  0  0  0  0  0  0
  160.2370  207.5730  151.2050 O   0  0  0  0  0  0  0  0  0  0  0  0
  159.6100  209.7880  153.0560 C   0  0  1  0  0  3  0  0  0  0  0  0
  161.3530  207.3300  153.3150 C   0  0  0  0  0  2  0  0  0  0  0  0
  162.5100  207.8800  151.1770 C   0  0  1  0  0  3  0  0  0  0  0  0
  163.2720  210.3100  151.1650 C   0  0  0  0  0  1  0  0  0  0  0  0
  162.9860  209.0700  150.3280 C   0  0  0  0  0  3  0  0  0  0  0  0
  161.9620  209.3960  149.2590 C   0  0  0  0  0  1  0  0  0  0  0  0
  158.1180  208.8010  154.8250 C   0  0  0  0  0  3  0  0  0  0  0  0
  158.2860  209.8140  155.6750 C   0  0  0  0  0  2  0  0  0  0  0  0
  161.9710  210.1770  153.0600 O   0  0  0  0  0  0  0  0  0  0  0  0
  161.3970  211.1290  153.7680 O   0  0  0  0  0  0  0  0  0  0  0  0
  161.8860  210.9550  155.0660 C   0  0  0  0  0  1  0  0  0  0  0  0
  161.0060  208.5710  155.3510 O   0  0  0  0  0  0  0  0  0  0  0  0
  161.2770  206.6270  156.8880 C   0  0  0  0  0  1  0  0  0  0  0  0
  162.3130  208.7380  157.2510 O   0  0  0  0  0  0  0  0  0  0  0  0
  161.5680  208.0370  156.5120 C   0  0  0  0  0  0  0  0  0  0  0  0
  160.1910  206.2140  149.2230 C   0  0  0  0  0  2  0  0  0  0  0  0
  161.1560  205.4540  148.3250 C   0  0  1  0  0  3  0  0  0  0  0  0
  160.6580  204.1180  148.0480 N   0  0  0  0  0  0  0  0  0  0  0  0
  160.6760  203.1940  148.9550 C   0  0  0  0  0  3  0  0  0  0  0  0
  160.9380  200.7450  149.0880 C   0  0  0  0  0  1  0  0  0  0  0  0
  160.2130  201.9040  148.6900 O   0  0  0  0  0  0  0  0  0  0  0  0
  161.4340  206.2170  147.0300 C   0  0  0  0  0  2  0  0  0  0  0  0
  160.1960  206.9040  146.4620 C   0  0  0  0  0  2  0  0  0  0  0  0
  160.9680  206.3830  144.3260 C   0  0  2  0  0  3  0  0  0  0  0  0
  160.6670  205.1140  145.0190 C   0  0  1  0  0  3  0  0  0  0  0  0
  159.7990  206.2840  145.2130 N   0  0  0  0  0  0  0  0  0  0  0  0
  159.9230  204.0690  144.1960 C   0  0  0  0  0  1  0  0  0  0  0  0
  160.5030  206.4730  142.8730 C   0  0  0  0  0  2  0  0  0  0  0  0
  161.5740  205.9700  141.8920 C   0  0  2  0  0  3  0  0  0  0  0  0
  162.5300  205.1920  142.5300 F   0  0  0  0  0  0  0  0  0  0  0  0
  161.2560  207.7220  140.0630 C   0  0  1  0  0  3  0  0  0  0  0  0
  163.0680  206.4410  139.9130 C   0  0  0  0  0  2  0  0  0  0  0  0
  162.0470  207.0940  138.5530 S   0  0  0  0  0  0  0  0  0  0  0  0
  162.2330  207.0540  141.0220 C   0  0  2  0  0  3  0  0  0  0  0  0
  161.2790  209.8500  139.0010 O   0  0  0  0  0  0  0  0  0  0  0  0
  161.6390  209.9140  141.3050 N   0  0  0  0  0  2  0  0  0  0  0  0
  161.3420  209.2190  140.0880 C   0  0  0  0  0  0  0  0  0  0  0  0
  162.2290  211.5820  141.3070 S   0  0  0  0  0  0  0  0  0  0  0  0
  160.9070  212.1490  142.4270 C   0  0  1  0  0  3  0  0  0  0  0  0
  162.5680  213.4960  145.9700 C   0  0  0  0  0  1  0  0  0  0  0  0
  161.5000  212.6080  143.6890 C   0  0  0  0  0  0  0  0  0  0  0  0
  161.9810  213.0000  144.7260 C   0  0  0  0  0  0  0  0  0  0  0  0
  160.1490  213.2990  141.7800 C   0  0  0  0  0  2  0  0  0  0  0  0
  158.7530  212.8520  141.4040 C   0  0  0  0  0  1  0  0  0  0  0  0
  158.6210  210.2650  152.1830 O   0  0  0  0  0  0  0  0  0  0  0  0
  157.2530  213.0650  155.4790 N   0  0  0  0  0  2  0  0  0  0  0  0
  158.1150  212.4650  151.3240 C   0  0  0  0  0  2  0  0  0  0  0  0
  156.3360  213.8620  153.8040 C   0  0  2  0  0  0  0  0  0  0  0  0
  156.1560  213.9150  155.2450 N   0  0  0  0  0  2  0  0  0  0  0  0
  157.5500  212.9650  154.0630 C   0  0  2  0  0  0  0  0  0  0  0  0
  157.3850  211.7010  153.4680 O   0  0  0  0  0  0  0  0  0  0  0  0
  157.8610  213.9340  151.7200 C   0  0  0  0  0  2  0  0  0  0  0  0
  158.4300  211.6030  152.5440 C   0  0  1  0  0  3  0  0  0  0  0  0
  157.7000  214.2320  153.2300 C   0  0  1  0  0  3  0  0  0  0  0  0
  154.5810  212.2440  153.5150 O   0  0  0  0  0  1  0  0  0  0  0  0
  154.8740  213.6980  151.7650 O   0  0  0  0  0  0  0  0  0  0  0  0
  155.2290  213.2050  153.0170 C   0  0  0  0  0  0  0  0  0  0  0  0
  1  6  1  0  0  0  0
  1  9  1  1  0  0  0
  2 19  1  1  0  0  0
  3 23  1  6  0  0  0
  3  7  1  0  0  0  0
  4  2  1  0  0  0  0
  4 14  1  1  0  0  0
  5  3  1  0  0  0  0
  5 10  1  0  0  0  0
  6  8  1  0  0  0  0
  6 16  1  1  0  0  0
  7  1  1  0  0  0  0
  8 52  1  6  0  0  0
  8  4  1  0  0  0  0
  9  2  1  0  0  0  0
 10 12  1  6  0  0  0
 10  1  1  0  0  0  0
 12 11  1  0  0  0  0
 13 12  1  0  0  0  0
 14 15  2  0  0  0  0
 16 17  1  0  0  0  0
 17 18  1  0  0  0  0
 19 22  1  0  0  0  0
 22 20  1  0  0  0  0
 22 21  2  0  0  0  0
 24 29  1  6  0  0  0
 24 23  1  0  0  0  0
 25 24  1  0  0  0  0
 25 26  2  0  0  0  0
 28 26  1  0  0  0  0
 28 27  1  0  0  0  0
 30 29  1  0  0  0  0
 31 35  1  6  0  0  0
 31 32  1  0  0  0  0
 31 33  1  0  0  0  0
 32 34  1  6  0  0  0
 32 33  1  0  0  0  0
 33 30  1  0  0  0  0
 36 37  1  1  0  0  0
 36 35  1  0  0  0  0
 38 44  1  6  0  0  0
 38 41  1  0  0  0  0
 39 41  1  0  0  0  0
 40 39  1  0  0  0  0
 40 38  1  0  0  0  0
 41 36  1  1  0  0  0
 42 44  2  0  0  0  0
 43 45  1  0  0  0  0
 44 43  1  0  0  0  0
 45 46  1  0  0  0  0
 46 50  1  6  0  0  0
 46 48  1  0  0  0  0
 48 49  3  0  0  0  0
 49 47  1  0  0  0  0
 51 50  1  0  0  0  0
 54 59  1  0  0  0  0
 54 60  1  0  0  0  0
 55 64  1  6  0  0  0
 55 57  1  0  0  0  0
 55 56  1  0  0  0  0
 56 53  1  0  0  0  0
 57 58  1  6  0  0  0
 57 53  1  0  0  0  0
 60 52  1  6  0  0  0
 60 58  1  0  0  0  0
 61 59  1  6  0  0  0
 61 55  1  0  0  0  0
 61 57  1  0  0  0  0
 63 64  2  0  0  0  0
 64 62  1  0  0  0  0
M  END
>  <MODEL>
3

>  <REMARK>
 VINA RESULT:       4.3      3.730      6.813
  Name = 
  24 active torsions:
  status: ('A' for Active; 'I' for Inactive)
    1  A    between atoms: C_1  and  C_42
    2  A    between atoms: N_2  and  C_43
    3  A    between atoms: C_5  and  C_18
    4  A    between atoms: C_5  and  C_43
    5  A    between atoms: S_7  and  N_25
    6  A    between atoms: S_7  and  C_51
    7  A    between atoms: C_8  and  C_19
    8  A    between atoms: C_8  and  C_60
    9  A    between atoms: O_9  and  O_26
   10  A    between atoms: O_9  and  C_31
   11  A    between atoms: C_14  and  C_19
   12  A    between atoms: C_15  and  C_20
   13  A    between atoms: C_17  and  O_41
   14  A    between atoms: C_21  and  C_51
   15  A    between atoms: C_24  and  C_45
   16  A    between atoms: N_32  and  C_37
   17  A    between atoms: C_36  and  C_51
   18  A    between atoms: C_37  and  C_38
   19  A    between atoms: C_38  and  C_43
   20  A    between atoms: C_39  and  O_54
   21  A    between atoms: C_40  and  O_61
   22  A    between atoms: O_41  and  C_56
   23  A    between atoms: C_46  and  C_64
   24  A    between atoms: C_59  and  O_61
                            x       y       z     vdW  Elec       q    Type
                         _______ _______ _______ _____ _____    ______ ____

>  <TORSDO>
F 24

$$$$
