=
 OpenBabel11072409503D

 49 54  0  0  1  0  0  0  0  0999 V2000
  161.8540  209.7690  151.5880 N   0  0  0  0  0  0  0  0  0  0  0  0
  161.5070  208.7310  150.6180 C   0  0  0  0  0  2  0  0  0  0  0  0
  162.3560  205.7770  152.9450 N   0  0  0  0  0  2  0  0  0  0  0  0
  161.4520  206.1550  150.2470 C   0  0  0  0  0  0  0  0  0  0  0  0
  162.1870  204.6470  152.0840 C   0  0  0  0  0  0  0  0  0  0  0  0
  161.3280  203.7550  149.9110 C   0  0  0  0  0  3  0  0  0  0  0  0
  161.7540  207.0660  152.6100 C   0  0  2  0  0  3  0  0  0  0  0  0
  161.6380  204.8460  150.7280 C   0  0  0  0  0  0  0  0  0  0  0  0
  162.5280  203.5040  152.4810 O   0  0  0  0  0  0  0  0  0  0  0  0
  160.6820  205.2520  148.1670 N   0  0  0  0  0  0  0  0  0  0  0  0
  160.9820  206.3290  148.9400 C   0  0  0  0  0  3  0  0  0  0  0  0
  160.2950  207.0500  153.0450 C   0  0  0  0  0  1  0  0  0  0  0  0
  160.8360  203.9780  148.6230 C   0  0  0  0  0  0  0  0  0  0  0  0
  161.9030  207.3250  151.0970 C   0  0  2  0  0  3  0  0  0  0  0  0
  160.5440  202.8060  147.7400 C   0  0  2  0  0  3  0  0  0  0  0  0
  160.2160  201.5860  148.5900 C   0  0  0  0  0  2  0  0  0  0  0  0
  161.3710  200.5990  148.5990 C   0  0  0  0  0  2  0  0  0  0  0  0
  161.3590  199.8360  147.4310 O   0  0  0  0  0  1  0  0  0  0  0  0
  161.7050  202.5090  146.7970 C   0  0  0  0  0  2  0  0  0  0  0  0
  161.6550  203.4100  145.6080 C   0  0  0  0  0  3  0  0  0  0  0  0
  162.5190  204.4130  145.5030 C   0  0  0  0  0  3  0  0  0  0  0  0
  162.4780  205.3090  144.3150 C   0  0  0  0  0  2  0  0  0  0  0  0
  161.1580  205.4480  143.8830 O   0  0  0  0  0  0  0  0  0  0  0  0
  160.6220  206.4300  144.7110 C   0  0  0  0  0  2  0  0  0  0  0  0
  159.4550  205.9480  145.3070 O   0  0  0  0  0  1  0  0  0  0  0  0
  160.6520  210.2030  152.3140 C   0  0  0  0  0  2  0  0  0  0  0  0
  160.3950  210.0190  155.6740 C   0  0  1  0  0  3  0  0  0  0  0  0
  159.8160  210.8790  154.5530 C   0  0  2  0  0  3  0  0  0  0  0  0
  160.9410  211.0600  153.5540 C   0  0  1  0  0  3  0  0  0  0  0  0
  162.1700  210.5400  154.2720 C   0  0  0  0  0  2  0  0  0  0  0  0
  159.5120  208.8090  155.9100 C   0  0  0  0  0  1  0  0  0  0  0  0
  161.7270  209.5800  155.2740 N   0  0  0  0  0  2  0  0  0  0  0  0
  159.9970  212.7300  156.2910 C   0  0  0  0  0  1  0  0  0  0  0  0
  157.7860  212.0580  155.4050 C   0  0  0  0  0  1  0  0  0  0  0  0
  159.2520  212.2220  155.0570 C   0  0  0  0  0  0  0  0  0  0  0  0
  159.3580  213.1810  154.0460 O   0  0  0  0  0  1  0  0  0  0  0  0
  162.4140  210.9040  150.8640 C   0  0  0  0  0  2  0  0  0  0  0  0
  161.5520  211.2500  149.6570 C   0  0  0  0  0  2  0  0  0  0  0  0
  160.3270  214.4450  150.5250 C   0  0  0  0  0  2  0  0  0  0  0  0
  160.0240  213.5300  146.9020 C   0  0  1  0  0  0  0  0  0  0  0  0
  163.4110  212.1880  147.7070 F   0  0  0  0  0  0  0  0  0  0  0  0
  161.6490  212.7270  149.2510 C   0  0  2  0  0  3  0  0  0  0  0  0
  159.5400  214.1960  145.7780 O   0  0  0  0  0  1  0  0  0  0  0  0
  159.5630  213.1850  150.6180 N   0  0  0  0  0  2  0  0  0  0  0  0
  160.3360  213.5100  149.4090 C   0  0  1  0  0  0  0  0  0  0  0  0
  159.4660  213.9390  148.2220 C   0  0  2  0  0  3  0  0  0  0  0  0
  158.9950  212.8020  147.5300 O   0  0  0  0  0  0  0  0  0  0  0  0
  161.2850  212.6800  146.7430 C   0  0  0  0  0  2  0  0  0  0  0  0
  162.2740  212.9570  147.8710 C   0  0  2  0  0  3  0  0  0  0  0  0
  1 26  1  0  0  0  0
  2  1  1  0  0  0  0
  4  8  1  0  0  0  0
  4 14  1  0  0  0  0
  5  9  2  0  0  0  0
  5  3  1  0  0  0  0
  6  8  2  0  0  0  0
  7  3  1  0  0  0  0
  7 12  1  6  0  0  0
  8  5  1  0  0  0  0
 10 13  2  0  0  0  0
 10 11  1  0  0  0  0
 11  4  2  0  0  0  0
 13  6  1  0  0  0  0
 14  2  1  6  0  0  0
 14  7  1  0  0  0  0
 15 19  1  1  0  0  0
 15 16  1  0  0  0  0
 15 13  1  0  0  0  0
 16 17  1  0  0  0  0
 18 17  1  0  0  0  0
 20 19  1  0  0  0  0
 21 20  2  0  0  0  0
 22 21  1  0  0  0  0
 23 22  1  0  0  0  0
 23 24  1  0  0  0  0
 24 25  1  0  0  0  0
 27 31  1  6  0  0  0
 28 35  1  1  0  0  0
 28 27  1  0  0  0  0
 29 26  1  6  0  0  0
 29 30  1  0  0  0  0
 29 28  1  0  0  0  0
 30 32  1  0  0  0  0
 32 27  1  0  0  0  0
 35 34  1  0  0  0  0
 35 33  1  0  0  0  0
 36 35  1  0  0  0  0
 37  1  1  0  0  0  0
 38 37  1  0  0  0  0
 39 44  1  0  0  0  0
 40 43  1  6  0  0  0
 40 47  1  0  0  0  0
 40 46  1  0  0  0  0
 42 45  1  0  0  0  0
 42 38  1  6  0  0  0
 45 39  1  1  0  0  0
 45 44  1  0  0  0  0
 46 47  1  1  0  0  0
 46 45  1  0  0  0  0
 48 40  1  0  0  0  0
 48 49  1  0  0  0  0
 49 41  1  6  0  0  0
 49 42  1  0  0  0  0
M  END
>  <MODEL>
1

>  <REMARK>
 VINA RESULT:      -5.1      0.000      0.000
  Name = 
  16 active torsions:
  status: ('A' for Active; 'I' for Inactive)
    1  A    between atoms: C_1  and  C_24
    2  A    between atoms: C_1  and  C_31
    3  A    between atoms: O_4  and  C_12
    4  A    between atoms: O_4  and  C_36
    5  A    between atoms: C_8  and  N_23
    6  A    between atoms: C_8  and  C_27
    7  A    between atoms: C_10  and  N_23
    8  A    between atoms: C_10  and  C_47
    9  A    between atoms: C_13  and  N_23
   10  A    between atoms: C_13  and  C_34
   11  A    between atoms: C_15  and  C_38
   12  A    between atoms: C_16  and  C_27
   13  A    between atoms: C_20  and  C_29
   14  A    between atoms: C_24  and  C_38
   15  A    between atoms: C_24  and  C_46
   16  A    between atoms: C_33  and  C_36
                            x       y       z     vdW  Elec       q    Type
                         _______ _______ _______ _____ _____    ______ ____

>  <TORSDO>
F 16

$$$$
=
 OpenBabel11072409503D

 49 54  0  0  1  0  0  0  0  0999 V2000
  161.6090  208.5130  151.5170 N   0  0  0  0  0  0  0  0  0  0  0  0
  162.5820  209.5920  151.6880 C   0  0  0  0  0  2  0  0  0  0  0  0
  162.4880  211.7010  148.4630 N   0  0  0  0  0  2  0  0  0  0  0  0
  161.1110  211.6190  150.9800 C   0  0  0  0  0  0  0  0  0  0  0  0
  161.5070  212.6970  148.7730 C   0  0  0  0  0  0  0  0  0  0  0  0
  159.6850  213.4630  150.3050 C   0  0  0  0  0  3  0  0  0  0  0  0
  162.5560  210.4590  149.2290 C   0  0  2  0  0  3  0  0  0  0  0  0
  160.7450  212.5930  150.0330 C   0  0  0  0  0  0  0  0  0  0  0  0
  161.3240  213.6580  147.9840 O   0  0  0  0  0  0  0  0  0  0  0  0
  159.3820  212.4210  152.4320 N   0  0  0  0  0  0  0  0  0  0  0  0
  160.4130  211.5680  152.1930 C   0  0  0  0  0  3  0  0  0  0  0  0
  161.5140  209.4910  148.6820 C   0  0  0  0  0  1  0  0  0  0  0  0
  159.0010  213.3560  151.5170 C   0  0  0  0  0  0  0  0  0  0  0  0
  162.3340  210.7630  150.7240 C   0  0  2  0  0  3  0  0  0  0  0  0
  157.8930  214.3160  151.8190 C   0  0  2  0  0  3  0  0  0  0  0  0
  157.5350  214.2430  153.2970 C   0  0  0  0  0  2  0  0  0  0  0  0
  156.0960  213.7930  153.4910 C   0  0  0  0  0  2  0  0  0  0  0  0
  156.0260  212.8310  154.5000 O   0  0  0  0  0  1  0  0  0  0  0  0
  156.6660  214.0490  150.9530 C   0  0  0  0  0  2  0  0  0  0  0  0
  156.9270  214.4520  149.5410 C   0  0  0  0  0  3  0  0  0  0  0  0
  156.5470  213.6590  148.5470 C   0  0  0  0  0  3  0  0  0  0  0  0
  156.7980  214.0610  147.1360 C   0  0  0  0  0  2  0  0  0  0  0  0
  158.1730  214.1090  146.9030 O   0  0  0  0  0  0  0  0  0  0  0  0
  158.3340  213.5310  145.6470 C   0  0  0  0  0  2  0  0  0  0  0  0
  157.6480  214.2890  144.6950 O   0  0  0  0  0  1  0  0  0  0  0  0
  160.6280  208.5400  152.6100 C   0  0  0  0  0  2  0  0  0  0  0  0
  159.7290  208.9300  155.8400 C   0  0  1  0  0  3  0  0  0  0  0  0
  160.7120  209.5750  154.8660 C   0  0  2  0  0  3  0  0  0  0  0  0
  161.2450  208.4430  154.0130 C   0  0  1  0  0  3  0  0  0  0  0  0
  160.7610  207.1860  154.7080 C   0  0  0  0  0  2  0  0  0  0  0  0
  158.3870  209.6340  155.7660 C   0  0  0  0  0  1  0  0  0  0  0  0
  159.5660  207.5300  155.4660 N   0  0  0  0  0  2  0  0  0  0  0  0
  162.4100  209.5830  156.7640 C   0  0  0  0  0  1  0  0  0  0  0  0
  161.2930  211.6810  156.0770 C   0  0  0  0  0  1  0  0  0  0  0  0
  161.8350  210.3570  155.5780 C   0  0  0  0  0  0  0  0  0  0  0  0
  162.8670  210.6190  154.6730 O   0  0  0  0  0  1  0  0  0  0  0  0
  162.3240  207.2420  151.5430 C   0  0  0  0  0  2  0  0  0  0  0  0
  162.2610  206.5640  150.1810 C   0  0  0  0  0  2  0  0  0  0  0  0
  160.3670  203.9220  151.5610 C   0  0  0  0  0  2  0  0  0  0  0  0
  161.0800  203.6520  147.8900 C   0  0  1  0  0  0  0  0  0  0  0  0
  160.3270  207.2910  148.2140 F   0  0  0  0  0  0  0  0  0  0  0  0
  160.9640  205.7700  149.9630 C   0  0  2  0  0  3  0  0  0  0  0  0
  160.7380  202.7230  146.9080 O   0  0  0  0  0  1  0  0  0  0  0  0
  161.8410  204.0020  151.5550 N   0  0  0  0  0  2  0  0  0  0  0  0
  161.0670  204.2830  150.3350 C   0  0  1  0  0  0  0  0  0  0  0  0
  161.1340  203.1590  149.2950 C   0  0  2  0  0  3  0  0  0  0  0  0
  162.2960  203.2980  148.5050 O   0  0  0  0  0  0  0  0  0  0  0  0
  161.0620  205.1320  147.5120 C   0  0  0  0  0  2  0  0  0  0  0  0
  160.3430  205.9560  148.5750 C   0  0  2  0  0  3  0  0  0  0  0  0
  1 37  1  0  0  0  0
  1  2  1  0  0  0  0
  1 26  1  0  0  0  0
  3  5  1  0  0  0  0
  3  7  1  0  0  0  0
  4 11  1  0  0  0  0
  5  8  1  0  0  0  0
  6 13  2  0  0  0  0
  7 12  1  6  0  0  0
  7 14  1  0  0  0  0
  8  6  1  0  0  0  0
  8  4  2  0  0  0  0
  9  5  2  0  0  0  0
 11 10  2  0  0  0  0
 13 15  1  0  0  0  0
 13 10  1  0  0  0  0
 14  4  1  0  0  0  0
 14  2  1  1  0  0  0
 15 19  1  6  0  0  0
 15 16  1  0  0  0  0
 16 17  1  0  0  0  0
 17 18  1  0  0  0  0
 20 19  1  0  0  0  0
 21 20  2  0  0  0  0
 22 21  1  0  0  0  0
 23 22  1  0  0  0  0
 24 23  1  0  0  0  0
 25 24  1  0  0  0  0
 27 31  1  6  0  0  0
 28 35  1  1  0  0  0
 28 27  1  0  0  0  0
 29 26  1  6  0  0  0
 29 30  1  0  0  0  0
 29 28  1  0  0  0  0
 30 32  1  0  0  0  0
 32 27  1  0  0  0  0
 35 34  1  0  0  0  0
 35 33  1  0  0  0  0
 36 35  1  0  0  0  0
 38 37  1  0  0  0  0
 40 43  1  6  0  0  0
 40 47  1  0  0  0  0
 40 46  1  0  0  0  0
 42 38  1  6  0  0  0
 42 45  1  0  0  0  0
 44 39  1  0  0  0  0
 45 44  1  0  0  0  0
 45 39  1  1  0  0  0
 46 47  1  6  0  0  0
 46 45  1  0  0  0  0
 48 40  1  0  0  0  0
 48 49  1  0  0  0  0
 49 41  1  6  0  0  0
 49 42  1  0  0  0  0
M  END
>  <MODEL>
2

>  <REMARK>
 VINA RESULT:      -4.8      2.289      8.353
  Name = 
  16 active torsions:
  status: ('A' for Active; 'I' for Inactive)
    1  A    between atoms: C_1  and  C_24
    2  A    between atoms: C_1  and  C_31
    3  A    between atoms: O_4  and  C_12
    4  A    between atoms: O_4  and  C_36
    5  A    between atoms: C_8  and  N_23
    6  A    between atoms: C_8  and  C_27
    7  A    between atoms: C_10  and  N_23
    8  A    between atoms: C_10  and  C_47
    9  A    between atoms: C_13  and  N_23
   10  A    between atoms: C_13  and  C_34
   11  A    between atoms: C_15  and  C_38
   12  A    between atoms: C_16  and  C_27
   13  A    between atoms: C_20  and  C_29
   14  A    between atoms: C_24  and  C_38
   15  A    between atoms: C_24  and  C_46
   16  A    between atoms: C_33  and  C_36
                            x       y       z     vdW  Elec       q    Type
                         _______ _______ _______ _____ _____    ______ ____

>  <TORSDO>
F 16

$$$$
=
 OpenBabel11072409503D

 49 54  0  0  1  0  0  0  0  0999 V2000
  160.3900  211.6480  150.7230 N   0  0  0  0  0  0  0  0  0  0  0  0
  161.7570  211.1580  150.5510 C   0  0  0  0  0  2  0  0  0  0  0  0
  161.8360  208.3780  153.2210 N   0  0  0  0  0  2  0  0  0  0  0  0
  161.8050  208.5620  150.3570 C   0  0  0  0  0  0  0  0  0  0  0  0
  161.9340  207.1910  152.4280 C   0  0  0  0  0  0  0  0  0  0  0  0
  161.7780  206.1440  150.1630 C   0  0  0  0  0  3  0  0  0  0  0  0
  161.3730  209.6320  152.6310 C   0  0  2  0  0  3  0  0  0  0  0  0
  161.8280  207.2910  150.9590 C   0  0  0  0  0  0  0  0  0  0  0  0
  162.1310  206.0820  152.9870 O   0  0  0  0  0  0  0  0  0  0  0  0
  161.7050  207.5120  148.2070 N   0  0  0  0  0  0  0  0  0  0  0  0
  161.7590  208.6420  148.9590 C   0  0  0  0  0  3  0  0  0  0  0  0
  159.8500  209.6230  152.5990 C   0  0  0  0  0  1  0  0  0  0  0  0
  161.7050  206.2730  148.7740 C   0  0  0  0  0  0  0  0  0  0  0  0
  161.9800  209.7930  151.2230 C   0  0  2  0  0  3  0  0  0  0  0  0
  161.6910  205.0410  147.9250 C   0  0  2  0  0  3  0  0  0  0  0  0
  161.1210  205.3660  146.5510 C   0  0  0  0  0  2  0  0  0  0  0  0
  162.1650  205.1720  145.4640 C   0  0  0  0  0  2  0  0  0  0  0  0
  163.3050  204.5690  145.9960 O   0  0  0  0  0  1  0  0  0  0  0  0
  160.9010  203.9140  148.5820 C   0  0  0  0  0  2  0  0  0  0  0  0
  161.3050  202.5950  148.0140 C   0  0  0  0  0  3  0  0  0  0  0  0
  161.0740  201.4820  148.7000 C   0  0  0  0  0  3  0  0  0  0  0  0
  161.4670  200.1620  148.1330 C   0  0  0  0  0  2  0  0  0  0  0  0
  161.4730  200.2380  146.7400 O   0  0  0  0  0  0  0  0  0  0  0  0
  161.2130  198.9370  146.3190 C   0  0  0  0  0  2  0  0  0  0  0  0
  161.6090  198.7900  144.9880 O   0  0  0  0  0  1  0  0  0  0  0  0
  159.8380  212.0680  149.4280 C   0  0  0  0  0  2  0  0  0  0  0  0
  160.0160  213.7030  146.4800 C   0  0  1  0  0  3  0  0  0  0  0  0
  160.9710  212.9440  147.3980 C   0  0  2  0  0  3  0  0  0  0  0  0
  160.5400  213.2860  148.8100 C   0  0  1  0  0  3  0  0  0  0  0  0
  159.5520  214.4230  148.6370 C   0  0  0  0  0  2  0  0  0  0  0  0
  159.3780  212.7470  145.4900 C   0  0  0  0  0  1  0  0  0  0  0  0
  158.9790  214.3160  147.3030 N   0  0  0  0  0  2  0  0  0  0  0  0
  162.9340  214.4530  147.9930 C   0  0  0  0  0  1  0  0  0  0  0  0
  162.6380  213.6420  145.6740 C   0  0  0  0  0  1  0  0  0  0  0  0
  162.4520  213.2840  147.1350 C   0  0  0  0  0  0  0  0  0  0  0  0
  163.2440  212.1670  147.4170 O   0  0  0  0  0  1  0  0  0  0  0  0
  160.4220  212.7920  151.6260 C   0  0  0  0  0  2  0  0  0  0  0  0
  159.5330  212.5430  152.8380 C   0  0  0  0  0  2  0  0  0  0  0  0
  159.4100  214.4420  155.8120 C   0  0  0  0  0  2  0  0  0  0  0  0
  156.0900  213.6750  154.2480 C   0  0  1  0  0  0  0  0  0  0  0  0
  158.1470  214.4520  151.2340 F   0  0  0  0  0  0  0  0  0  0  0  0
  158.9340  213.8320  153.4190 C   0  0  2  0  0  3  0  0  0  0  0  0
  154.7740  213.9980  154.5740 O   0  0  0  0  0  1  0  0  0  0  0  0
  159.4670  212.9690  155.7430 N   0  0  0  0  0  2  0  0  0  0  0  0
  158.5300  213.7270  154.8980 C   0  0  1  0  0  0  0  0  0  0  0  0
  157.0730  213.6380  155.3660 C   0  0  2  0  0  3  0  0  0  0  0  0
  156.4710  212.4660  154.8610 O   0  0  0  0  0  0  0  0  0  0  0  0
  156.4870  213.6960  152.7720 C   0  0  0  0  0  2  0  0  0  0  0  0
  157.8070  214.4350  152.5740 C   0  0  2  0  0  3  0  0  0  0  0  0
  1 37  1  0  0  0  0
  2  1  1  0  0  0  0
  4  8  1  0  0  0  0
  4 14  1  0  0  0  0
  5  9  2  0  0  0  0
  5  3  1  0  0  0  0
  6  8  2  0  0  0  0
  7 12  1  6  0  0  0
  7  3  1  0  0  0  0
  8  5  1  0  0  0  0
 10 13  2  0  0  0  0
 10 11  1  0  0  0  0
 11  4  2  0  0  0  0
 13  6  1  0  0  0  0
 14  2  1  6  0  0  0
 14  7  1  0  0  0  0
 15 16  1  6  0  0  0
 15 19  1  0  0  0  0
 15 13  1  0  0  0  0
 17 18  1  0  0  0  0
 17 16  1  0  0  0  0
 20 19  1  0  0  0  0
 20 21  2  0  0  0  0
 22 21  1  0  0  0  0
 23 22  1  0  0  0  0
 24 23  1  0  0  0  0
 25 24  1  0  0  0  0
 26  1  1  0  0  0  0
 27 31  1  6  0  0  0
 27 32  1  0  0  0  0
 27 28  1  0  0  0  0
 28 35  1  1  0  0  0
 28 29  1  0  0  0  0
 29 26  1  6  0  0  0
 30 29  1  0  0  0  0
 32 30  1  0  0  0  0
 34 35  1  0  0  0  0
 35 36  1  0  0  0  0
 35 33  1  0  0  0  0
 37 38  1  0  0  0  0
 40 43  1  1  0  0  0
 40 47  1  0  0  0  0
 40 46  1  0  0  0  0
 42 38  1  6  0  0  0
 42 45  1  0  0  0  0
 44 39  1  0  0  0  0
 45 46  1  0  0  0  0
 45 44  1  0  0  0  0
 45 39  1  1  0  0  0
 46 47  1  6  0  0  0
 48 40  1  0  0  0  0
 49 41  1  6  0  0  0
 49 48  1  0  0  0  0
 49 42  1  0  0  0  0
M  END
>  <MODEL>
3

>  <REMARK>
 VINA RESULT:      -4.5      2.278      6.022
  Name = 
  16 active torsions:
  status: ('A' for Active; 'I' for Inactive)
    1  A    between atoms: C_1  and  C_24
    2  A    between atoms: C_1  and  C_31
    3  A    between atoms: O_4  and  C_12
    4  A    between atoms: O_4  and  C_36
    5  A    between atoms: C_8  and  N_23
    6  A    between atoms: C_8  and  C_27
    7  A    between atoms: C_10  and  N_23
    8  A    between atoms: C_10  and  C_47
    9  A    between atoms: C_13  and  N_23
   10  A    between atoms: C_13  and  C_34
   11  A    between atoms: C_15  and  C_38
   12  A    between atoms: C_16  and  C_27
   13  A    between atoms: C_20  and  C_29
   14  A    between atoms: C_24  and  C_38
   15  A    between atoms: C_24  and  C_46
   16  A    between atoms: C_33  and  C_36
                            x       y       z     vdW  Elec       q    Type
                         _______ _______ _______ _____ _____    ______ ____

>  <TORSDO>
F 16

$$$$
=
 OpenBabel11072409503D

 49 54  0  0  1  0  0  0  0  0999 V2000
  160.1680  212.6340  152.1810 N   0  0  0  0  0  0  0  0  0  0  0  0
  160.3770  211.3830  151.4520 C   0  0  0  0  0  2  0  0  0  0  0  0
  160.9540  209.2330  154.5990 N   0  0  0  0  0  2  0  0  0  0  0  0
  160.9530  208.8630  151.7530 C   0  0  0  0  0  0  0  0  0  0  0  0
  161.3080  207.9620  154.0440 C   0  0  0  0  0  0  0  0  0  0  0  0
  161.4190  206.4970  152.0210 C   0  0  0  0  0  3  0  0  0  0  0  0
  160.2610  210.2320  153.7900 C   0  0  2  0  0  3  0  0  0  0  0  0
  161.2180  207.7600  152.5850 C   0  0  0  0  0  0  0  0  0  0  0  0
  161.7120  207.0420  154.8000 O   0  0  0  0  0  0  0  0  0  0  0  0
  161.1170  207.4270  149.8430 N   0  0  0  0  0  0  0  0  0  0  0  0
  160.9250  208.6660  150.3670 C   0  0  0  0  0  3  0  0  0  0  0  0
  158.7730  209.9080  153.7840 C   0  0  0  0  0  1  0  0  0  0  0  0
  161.3540  206.3440  150.6350 C   0  0  0  0  0  0  0  0  0  0  0  0
  160.8550  210.2440  152.3670 C   0  0  2  0  0  3  0  0  0  0  0  0
  161.6100  204.9970  150.0350 C   0  0  2  0  0  3  0  0  0  0  0  0
  161.1740  204.9900  148.5760 C   0  0  0  0  0  2  0  0  0  0  0  0
  162.3470  205.2680  147.6510 C   0  0  0  0  0  2  0  0  0  0  0  0
  162.1560  206.4790  146.9850 O   0  0  0  0  0  1  0  0  0  0  0  0
  160.9030  203.8920  150.8130 C   0  0  0  0  0  2  0  0  0  0  0  0
  160.6130  202.7310  149.9220 C   0  0  0  0  0  3  0  0  0  0  0  0
  161.4440  201.6950  149.8960 C   0  0  0  0  0  3  0  0  0  0  0  0
  161.1540  200.5310  149.0140 C   0  0  0  0  0  2  0  0  0  0  0  0
  160.3220  200.9340  147.9690 O   0  0  0  0  0  0  0  0  0  0  0  0
  161.0160  200.5800  146.8150 C   0  0  0  0  0  2  0  0  0  0  0  0
  160.6100  201.3990  145.7600 O   0  0  0  0  0  1  0  0  0  0  0  0
  159.4350  212.3750  153.4270 C   0  0  0  0  0  2  0  0  0  0  0  0
  157.5180  213.2520  156.0630 C   0  0  1  0  0  3  0  0  0  0  0  0
  157.3130  212.9630  154.5770 C   0  0  2  0  0  3  0  0  0  0  0  0
  158.5320  213.5310  153.8790 C   0  0  1  0  0  3  0  0  0  0  0  0
  159.2300  214.3510  154.9460 C   0  0  0  0  0  2  0  0  0  0  0  0
  157.3860  211.9720  156.8640 C   0  0  0  0  0  1  0  0  0  0  0  0
  158.8550  213.8040  156.2430 N   0  0  0  0  0  2  0  0  0  0  0  0
  154.9540  212.4540  153.7670 C   0  0  0  0  0  1  0  0  0  0  0  0
  156.2640  214.2810  152.7340 C   0  0  0  0  0  1  0  0  0  0  0  0
  155.9940  213.5430  154.0290 C   0  0  0  0  0  0  0  0  0  0  0  0
  155.4660  214.4530  154.9500 O   0  0  0  0  0  1  0  0  0  0  0  0
  159.3850  213.5300  151.3390 C   0  0  0  0  0  2  0  0  0  0  0  0
  160.1420  213.8640  150.0610 C   0  0  0  0  0  2  0  0  0  0  0  0
  161.6450  211.1830  148.3230 C   0  0  0  0  0  2  0  0  0  0  0  0
  160.2370  213.9120  146.1730 C   0  0  1  0  0  0  0  0  0  0  0  0
  157.5980  213.6220  148.7940 F   0  0  0  0  0  0  0  0  0  0  0  0
  159.8750  212.8650  148.9250 C   0  0  2  0  0  3  0  0  0  0  0  0
  160.1500  214.1060  144.7950 O   0  0  0  0  0  1  0  0  0  0  0  0
  162.3590  212.3570  148.8590 N   0  0  0  0  0  2  0  0  0  0  0  0
  161.1170  212.5190  148.0870 C   0  0  1  0  0  0  0  0  0  0  0  0
  161.3430  213.0440  146.6650 C   0  0  2  0  0  3  0  0  0  0  0  0
  161.4360  214.4520  146.6760 O   0  0  0  0  0  0  0  0  0  0  0  0
  159.0410  214.3270  147.0300 C   0  0  0  0  0  2  0  0  0  0  0  0
  158.6860  213.2340  148.0330 C   0  0  2  0  0  3  0  0  0  0  0  0
  1 26  1  0  0  0  0
  2  1  1  0  0  0  0
  4 14  1  0  0  0  0
  4  8  1  0  0  0  0
  5  3  1  0  0  0  0
  5  9  2  0  0  0  0
  6  8  2  0  0  0  0
  7 12  1  6  0  0  0
  7  3  1  0  0  0  0
  8  5  1  0  0  0  0
 10 11  1  0  0  0  0
 10 13  2  0  0  0  0
 11  4  2  0  0  0  0
 13  6  1  0  0  0  0
 14  2  1  6  0  0  0
 14  7  1  0  0  0  0
 15 16  1  6  0  0  0
 15 13  1  0  0  0  0
 15 19  1  0  0  0  0
 17 16  1  0  0  0  0
 18 17  1  0  0  0  0
 20 19  1  0  0  0  0
 21 20  2  0  0  0  0
 22 21  1  0  0  0  0
 23 22  1  0  0  0  0
 24 23  1  0  0  0  0
 25 24  1  0  0  0  0
 27 32  1  0  0  0  0
 27 31  1  1  0  0  0
 28 35  1  6  0  0  0
 28 27  1  0  0  0  0
 29 26  1  1  0  0  0
 29 28  1  0  0  0  0
 29 30  1  0  0  0  0
 30 32  1  0  0  0  0
 33 35  1  0  0  0  0
 34 35  1  0  0  0  0
 35 36  1  0  0  0  0
 37  1  1  0  0  0  0
 38 37  1  0  0  0  0
 39 44  1  0  0  0  0
 40 43  1  6  0  0  0
 40 46  1  0  0  0  0
 40 47  1  0  0  0  0
 40 48  1  0  0  0  0
 42 38  1  1  0  0  0
 45 39  1  6  0  0  0
 45 44  1  0  0  0  0
 45 42  1  0  0  0  0
 46 47  1  1  0  0  0
 46 45  1  0  0  0  0
 48 49  1  0  0  0  0
 49 41  1  1  0  0  0
 49 42  1  0  0  0  0
M  END
>  <MODEL>
4

>  <REMARK>
 VINA RESULT:      -3.5      2.232      4.040
  Name = 
  16 active torsions:
  status: ('A' for Active; 'I' for Inactive)
    1  A    between atoms: C_1  and  C_24
    2  A    between atoms: C_1  and  C_31
    3  A    between atoms: O_4  and  C_12
    4  A    between atoms: O_4  and  C_36
    5  A    between atoms: C_8  and  N_23
    6  A    between atoms: C_8  and  C_27
    7  A    between atoms: C_10  and  N_23
    8  A    between atoms: C_10  and  C_47
    9  A    between atoms: C_13  and  N_23
   10  A    between atoms: C_13  and  C_34
   11  A    between atoms: C_15  and  C_38
   12  A    between atoms: C_16  and  C_27
   13  A    between atoms: C_20  and  C_29
   14  A    between atoms: C_24  and  C_38
   15  A    between atoms: C_24  and  C_46
   16  A    between atoms: C_33  and  C_36
                            x       y       z     vdW  Elec       q    Type
                         _______ _______ _______ _____ _____    ______ ____

>  <TORSDO>
F 16

$$$$
=
 OpenBabel11072409503D

 49 54  0  0  1  0  0  0  0  0999 V2000
  161.9930  210.8310  152.3780 N   0  0  0  0  0  0  0  0  0  0  0  0
  161.7540  210.0160  151.1880 C   0  0  0  0  0  2  0  0  0  0  0  0
  161.6250  206.5790  152.9300 N   0  0  0  0  0  2  0  0  0  0  0  0
  161.9100  207.5890  150.2580 C   0  0  0  0  0  0  0  0  0  0  0  0
  161.8510  205.6740  151.8440 C   0  0  0  0  0  0  0  0  0  0  0  0
  161.9860  205.3320  149.3710 C   0  0  0  0  0  3  0  0  0  0  0  0
  161.1890  207.9500  152.6770 C   0  0  2  0  0  3  0  0  0  0  0  0
  161.9080  206.1980  150.4650 C   0  0  0  0  0  0  0  0  0  0  0  0
  162.0210  204.4500  152.0780 O   0  0  0  0  0  0  0  0  0  0  0  0
  162.0880  207.2100  147.9000 N   0  0  0  0  0  0  0  0  0  0  0  0
  162.0200  208.0720  148.9490 C   0  0  0  0  0  3  0  0  0  0  0  0
  159.6810  207.9520  152.4650 C   0  0  0  0  0  1  0  0  0  0  0  0
  162.0660  205.8600  148.0810 C   0  0  0  0  0  0  0  0  0  0  0  0
  161.9450  208.5140  151.4580 C   0  0  2  0  0  3  0  0  0  0  0  0
  162.1890  204.9290  146.9160 C   0  0  2  0  0  3  0  0  0  0  0  0
  162.5650  205.7120  145.6650 C   0  0  0  0  0  2  0  0  0  0  0  0
  161.5140  205.5490  144.5790 C   0  0  0  0  0  2  0  0  0  0  0  0
  161.8330  206.3450  143.4790 O   0  0  0  0  0  1  0  0  0  0  0  0
  160.9050  204.1380  146.6900 C   0  0  0  0  0  2  0  0  0  0  0  0
  161.0890  202.7170  147.1040 C   0  0  0  0  0  3  0  0  0  0  0  0
  161.0690  202.3970  148.3930 C   0  0  0  0  0  3  0  0  0  0  0  0
  161.2440  200.9790  148.8110 C   0  0  0  0  0  2  0  0  0  0  0  0
  160.8880  200.8420  150.1530 O   0  0  0  0  0  0  0  0  0  0  0  0
  160.5190  202.1250  150.5480 C   0  0  0  0  0  2  0  0  0  0  0  0
  161.1270  202.4290  151.7670 O   0  0  0  0  0  1  0  0  0  0  0  0
  162.0830  209.9740  153.5670 C   0  0  0  0  0  2  0  0  0  0  0  0
  160.7590  209.2550  156.5870 C   0  0  1  0  0  3  0  0  0  0  0  0
  160.4060  210.1370  155.3920 C   0  0  2  0  0  3  0  0  0  0  0  0
  161.7250  210.6810  154.8820 C   0  0  1  0  0  3  0  0  0  0  0  0
  162.7260  210.3150  155.9600 C   0  0  0  0  0  2  0  0  0  0  0  0
  160.1610  207.8730  156.4080 C   0  0  0  0  0  1  0  0  0  0  0  0
  162.2120  209.1510  156.6680 N   0  0  0  0  0  2  0  0  0  0  0  0
  159.9840  212.6450  155.4950 C   0  0  0  0  0  1  0  0  0  0  0  0
  159.0180  211.1440  157.2080 C   0  0  0  0  0  1  0  0  0  0  0  0
  159.4040  211.2540  155.7460 C   0  0  0  0  0  0  0  0  0  0  0  0
  158.2480  211.1060  154.9750 O   0  0  0  0  0  1  0  0  0  0  0  0
  160.8760  211.7550  152.5340 C   0  0  0  0  0  2  0  0  0  0  0  0
  160.1660  211.9680  151.2030 C   0  0  0  0  0  2  0  0  0  0  0  0
  157.9200  214.3790  152.4690 C   0  0  0  0  0  2  0  0  0  0  0  0
  157.8050  213.8570  148.7580 C   0  0  1  0  0  0  0  0  0  0  0  0
  161.4800  213.7380  149.3920 F   0  0  0  0  0  0  0  0  0  0  0  0
  159.7110  213.4190  150.9890 C   0  0  2  0  0  3  0  0  0  0  0  0
  157.0660  214.4330  147.7260 O   0  0  0  0  0  1  0  0  0  0  0  0
  157.6610  212.9280  152.3980 N   0  0  0  0  0  2  0  0  0  0  0  0
  158.2130  213.6510  151.2420 C   0  0  1  0  0  0  0  0  0  0  0  0
  157.1960  213.8770  150.1170 C   0  0  2  0  0  3  0  0  0  0  0  0
  157.1320  212.7380  149.2850 O   0  0  0  0  0  0  0  0  0  0  0  0
  159.2780  213.5430  148.4940 C   0  0  0  0  0  2  0  0  0  0  0  0
  160.1510  214.0210  149.6500 C   0  0  2  0  0  3  0  0  0  0  0  0
  1 37  1  0  0  0  0
  1 26  1  0  0  0  0
  2  1  1  0  0  0  0
  4  8  1  0  0  0  0
  4 14  1  0  0  0  0
  5  9  2  0  0  0  0
  5  3  1  0  0  0  0
  6  8  2  0  0  0  0
  7 12  1  6  0  0  0
  7  3  1  0  0  0  0
  8  5  1  0  0  0  0
 10 13  2  0  0  0  0
 10 11  1  0  0  0  0
 11  4  2  0  0  0  0
 13  6  1  0  0  0  0
 14  2  1  6  0  0  0
 14  7  1  0  0  0  0
 15 16  1  6  0  0  0
 15 13  1  0  0  0  0
 17 16  1  0  0  0  0
 18 17  1  0  0  0  0
 19 15  1  0  0  0  0
 19 20  1  0  0  0  0
 20 21  2  0  0  0  0
 21 22  1  0  0  0  0
 22 23  1  0  0  0  0
 23 24  1  0  0  0  0
 24 25  1  0  0  0  0
 27 31  1  6  0  0  0
 27 32  1  0  0  0  0
 28 35  1  1  0  0  0
 28 27  1  0  0  0  0
 29 26  1  6  0  0  0
 29 28  1  0  0  0  0
 29 30  1  0  0  0  0
 30 32  1  0  0  0  0
 33 35  1  0  0  0  0
 35 34  1  0  0  0  0
 36 35  1  0  0  0  0
 38 37  1  0  0  0  0
 40 43  1  6  0  0  0
 40 47  1  0  0  0  0
 40 46  1  0  0  0  0
 42 38  1  6  0  0  0
 42 45  1  0  0  0  0
 44 39  1  0  0  0  0
 45 44  1  0  0  0  0
 45 39  1  1  0  0  0
 46 47  1  6  0  0  0
 46 45  1  0  0  0  0
 48 40  1  0  0  0  0
 48 49  1  0  0  0  0
 49 41  1  6  0  0  0
 49 42  1  0  0  0  0
M  END
>  <MODEL>
5

>  <REMARK>
 VINA RESULT:      -3.4      1.684      3.308
  Name = 
  16 active torsions:
  status: ('A' for Active; 'I' for Inactive)
    1  A    between atoms: C_1  and  C_24
    2  A    between atoms: C_1  and  C_31
    3  A    between atoms: O_4  and  C_12
    4  A    between atoms: O_4  and  C_36
    5  A    between atoms: C_8  and  N_23
    6  A    between atoms: C_8  and  C_27
    7  A    between atoms: C_10  and  N_23
    8  A    between atoms: C_10  and  C_47
    9  A    between atoms: C_13  and  N_23
   10  A    between atoms: C_13  and  C_34
   11  A    between atoms: C_15  and  C_38
   12  A    between atoms: C_16  and  C_27
   13  A    between atoms: C_20  and  C_29
   14  A    between atoms: C_24  and  C_38
   15  A    between atoms: C_24  and  C_46
   16  A    between atoms: C_33  and  C_36
                            x       y       z     vdW  Elec       q    Type
                         _______ _______ _______ _____ _____    ______ ____

>  <TORSDO>
F 16

$$$$
=
 OpenBabel11072409503D

 49 54  0  0  1  0  0  0  0  0999 V2000
  161.3620  208.2600  149.5710 N   0  0  0  0  0  0  0  0  0  0  0  0
  162.3940  209.1060  150.1690 C   0  0  0  0  0  2  0  0  0  0  0  0
  162.3570  212.3450  148.0780 N   0  0  0  0  0  2  0  0  0  0  0  0
  161.1530  211.3710  150.4950 C   0  0  0  0  0  0  0  0  0  0  0  0
  161.5360  213.2130  148.8670 C   0  0  0  0  0  0  0  0  0  0  0  0
  159.9350  213.4520  150.7720 C   0  0  0  0  0  3  0  0  0  0  0  0
  162.3150  210.8980  148.2750 C   0  0  2  0  0  3  0  0  0  0  0  0
  160.8530  212.6750  150.0590 C   0  0  0  0  0  0  0  0  0  0  0  0
  161.4260  214.4240  148.5500 O   0  0  0  0  0  0  0  0  0  0  0  0
  159.6440  211.6670  152.3310 N   0  0  0  0  0  0  0  0  0  0  0  0
  160.5380  210.8940  151.6590 C   0  0  0  0  0  3  0  0  0  0  0  0
  161.1230  210.3350  147.5120 C   0  0  0  0  0  1  0  0  0  0  0  0
  159.3260  212.9230  151.9120 C   0  0  0  0  0  0  0  0  0  0  0  0
  162.2350  210.5860  149.7830 C   0  0  2  0  0  3  0  0  0  0  0  0
  158.3740  213.7740  152.6930 C   0  0  2  0  0  3  0  0  0  0  0  0
  158.0920  213.1270  154.0430 C   0  0  0  0  0  2  0  0  0  0  0  0
  159.1130  213.5590  155.0830 C   0  0  0  0  0  2  0  0  0  0  0  0
  158.7110  213.1410  156.3520 O   0  0  0  0  0  1  0  0  0  0  0  0
  157.0760  214.0130  151.9290 C   0  0  0  0  0  2  0  0  0  0  0  0
  157.3420  214.0940  150.4640 C   0  0  0  0  0  3  0  0  0  0  0  0
  156.4480  213.6220  149.6030 C   0  0  0  0  0  3  0  0  0  0  0  0
  156.7050  213.7070  148.1390 C   0  0  0  0  0  2  0  0  0  0  0  0
  158.0570  213.4710  147.8900 O   0  0  0  0  0  0  0  0  0  0  0  0
  158.0690  212.7150  146.7220 C   0  0  0  0  0  2  0  0  0  0  0  0
  157.6290  213.5000  145.6550 O   0  0  0  0  0  1  0  0  0  0  0  0
  160.8350  207.3230  150.5730 C   0  0  0  0  0  2  0  0  0  0  0  0
  161.4990  205.1420  153.0620 C   0  0  1  0  0  3  0  0  0  0  0  0
  160.8680  206.5260  152.9250 C   0  0  2  0  0  3  0  0  0  0  0  0
  161.6720  207.2390  151.8580 C   0  0  1  0  0  3  0  0  0  0  0  0
  162.8780  206.3480  151.6360 C   0  0  0  0  0  2  0  0  0  0  0  0
  160.4400  204.0690  152.9030 C   0  0  0  0  0  1  0  0  0  0  0  0
  162.5050  204.9920  152.0170 N   0  0  0  0  0  2  0  0  0  0  0  0
  159.6030  206.9520  155.0930 C   0  0  0  0  0  1  0  0  0  0  0  0
  160.8200  208.7920  153.9730 C   0  0  0  0  0  1  0  0  0  0  0  0
  160.8320  207.3030  154.2560 C   0  0  0  0  0  0  0  0  0  0  0  0
  161.9780  207.0080  155.0000 O   0  0  0  0  0  1  0  0  0  0  0  0
  161.9630  207.5070  148.4770 C   0  0  0  0  0  2  0  0  0  0  0  0
  161.1730  206.2340  148.2050 C   0  0  0  0  0  2  0  0  0  0  0  0
  163.7720  205.0570  146.1260 C   0  0  0  0  0  2  0  0  0  0  0  0
  160.8270  202.7640  146.4830 C   0  0  1  0  0  0  0  0  0  0  0  0
  161.2090  204.0020  149.9810 F   0  0  0  0  0  0  0  0  0  0  0  0
  162.0690  205.0080  147.9750 C   0  0  2  0  0  3  0  0  0  0  0  0
  160.5240  201.5000  145.9800 O   0  0  0  0  0  1  0  0  0  0  0  0
  162.6740  205.9440  145.6970 N   0  0  0  0  0  2  0  0  0  0  0  0
  162.4000  204.7400  146.4980 C   0  0  1  0  0  0  0  0  0  0  0  0
  161.7770  203.5950  145.6910 C   0  0  2  0  0  3  0  0  0  0  0  0
  160.3790  203.7680  145.6040 O   0  0  0  0  0  0  0  0  0  0  0  0
  160.4300  203.0750  147.9260 C   0  0  0  0  0  2  0  0  0  0  0  0
  161.5810  203.7360  148.6760 C   0  0  2  0  0  3  0  0  0  0  0  0
  1  2  1  0  0  0  0
  1 26  1  0  0  0  0
  3  7  1  0  0  0  0
  3  5  1  0  0  0  0
  4 11  1  0  0  0  0
  5  8  1  0  0  0  0
  6 13  2  0  0  0  0
  7 12  1  6  0  0  0
  7 14  1  0  0  0  0
  8  4  2  0  0  0  0
  8  6  1  0  0  0  0
  9  5  2  0  0  0  0
 11 10  2  0  0  0  0
 13 10  1  0  0  0  0
 13 15  1  0  0  0  0
 14  2  1  6  0  0  0
 14  4  1  0  0  0  0
 15 19  1  6  0  0  0
 15 16  1  0  0  0  0
 16 17  1  0  0  0  0
 17 18  1  0  0  0  0
 20 19  1  0  0  0  0
 21 20  2  0  0  0  0
 22 21  1  0  0  0  0
 23 22  1  0  0  0  0
 24 23  1  0  0  0  0
 25 24  1  0  0  0  0
 27 31  1  6  0  0  0
 28 27  1  0  0  0  0
 28 35  1  1  0  0  0
 29 26  1  6  0  0  0
 29 28  1  0  0  0  0
 30 29  1  0  0  0  0
 30 32  1  0  0  0  0
 32 27  1  0  0  0  0
 34 35  1  0  0  0  0
 35 36  1  0  0  0  0
 35 33  1  0  0  0  0
 37  1  1  0  0  0  0
 38 37  1  0  0  0  0
 40 43  1  6  0  0  0
 40 48  1  0  0  0  0
 42 38  1  6  0  0  0
 42 49  1  0  0  0  0
 44 39  1  0  0  0  0
 44 45  1  0  0  0  0
 45 39  1  1  0  0  0
 45 42  1  0  0  0  0
 46 47  1  6  0  0  0
 46 40  1  0  0  0  0
 46 45  1  0  0  0  0
 47 40  1  0  0  0  0
 48 49  1  0  0  0  0
 49 41  1  1  0  0  0
M  END
>  <MODEL>
6

>  <REMARK>
 VINA RESULT:      -3.4      2.382      8.792
  Name = 
  16 active torsions:
  status: ('A' for Active; 'I' for Inactive)
    1  A    between atoms: C_1  and  C_24
    2  A    between atoms: C_1  and  C_31
    3  A    between atoms: O_4  and  C_12
    4  A    between atoms: O_4  and  C_36
    5  A    between atoms: C_8  and  N_23
    6  A    between atoms: C_8  and  C_27
    7  A    between atoms: C_10  and  N_23
    8  A    between atoms: C_10  and  C_47
    9  A    between atoms: C_13  and  N_23
   10  A    between atoms: C_13  and  C_34
   11  A    between atoms: C_15  and  C_38
   12  A    between atoms: C_16  and  C_27
   13  A    between atoms: C_20  and  C_29
   14  A    between atoms: C_24  and  C_38
   15  A    between atoms: C_24  and  C_46
   16  A    between atoms: C_33  and  C_36
                            x       y       z     vdW  Elec       q    Type
                         _______ _______ _______ _____ _____    ______ ____

>  <TORSDO>
F 16

$$$$
=
 OpenBabel11072409503D

 49 54  0  0  1  0  0  0  0  0999 V2000
  159.3460  210.5020  153.1140 N   0  0  0  0  0  0  0  0  0  0  0  0
  160.7760  210.4140  152.8220 C   0  0  0  0  0  2  0  0  0  0  0  0
  162.2220  210.2730  149.2510 N   0  0  0  0  0  2  0  0  0  0  0  0
  161.0230  208.4580  151.1230 C   0  0  0  0  0  0  0  0  0  0  0  0
  161.9720  208.9160  148.8700 C   0  0  0  0  0  0  0  0  0  0  0  0
  161.3110  206.6100  149.5760 C   0  0  0  0  0  3  0  0  0  0  0  0
  162.2110  210.6650  150.6580 C   0  0  2  0  0  3  0  0  0  0  0  0
  161.4360  207.9710  149.8700 C   0  0  0  0  0  0  0  0  0  0  0  0
  162.1880  208.5510  147.6870 O   0  0  0  0  0  0  0  0  0  0  0  0
  160.3600  206.2390  151.7350 N   0  0  0  0  0  0  0  0  0  0  0  0
  160.4660  207.5590  152.0410 C   0  0  0  0  0  3  0  0  0  0  0  0
  163.5640  210.3260  151.2700 C   0  0  0  0  0  1  0  0  0  0  0  0
  160.7750  205.7470  150.5340 C   0  0  0  0  0  0  0  0  0  0  0  0
  161.0530  209.9500  151.3830 C   0  0  2  0  0  3  0  0  0  0  0  0
  160.6070  204.2980  150.2000 C   0  0  2  0  0  3  0  0  0  0  0  0
  160.5580  203.4750  151.4800 C   0  0  0  0  0  2  0  0  0  0  0  0
  161.7460  202.5310  151.5700 C   0  0  0  0  0  2  0  0  0  0  0  0
  161.3480  201.2290  151.2630 O   0  0  0  0  0  1  0  0  0  0  0  0
  161.7190  203.8000  149.2810 C   0  0  0  0  0  2  0  0  0  0  0  0
  161.1500  203.3160  147.9910 C   0  0  0  0  0  3  0  0  0  0  0  0
  161.5870  203.8230  146.8440 C   0  0  0  0  0  3  0  0  0  0  0  0
  161.0280  203.3370  145.5530 C   0  0  0  0  0  2  0  0  0  0  0  0
  161.1870  204.3210  144.5770 O   0  0  0  0  0  0  0  0  0  0  0  0
  161.2900  205.5100  145.2950 C   0  0  0  0  0  2  0  0  0  0  0  0
  162.6280  205.9030  145.3550 O   0  0  0  0  0  1  0  0  0  0  0  0
  158.6560  211.2330  152.0430 C   0  0  0  0  0  2  0  0  0  0  0  0
  157.6950  214.1830  150.7140 C   0  0  1  0  0  3  0  0  0  0  0  0
  158.7320  213.1040  150.4110 C   0  0  2  0  0  3  0  0  0  0  0  0
  159.2330  212.6270  151.7590 C   0  0  1  0  0  3  0  0  0  0  0  0
  158.6730  213.6330  152.7460 C   0  0  0  0  0  2  0  0  0  0  0  0
  156.3910  213.8630  150.0110 C   0  0  0  0  0  1  0  0  0  0  0  0
  157.4770  214.2170  152.1560 N   0  0  0  0  0  2  0  0  0  0  0  0
  160.8910  214.4460  150.2700 C   0  0  0  0  0  1  0  0  0  0  0  0
  159.2940  214.4460  148.3810 C   0  0  0  0  0  1  0  0  0  0  0  0
  159.8720  213.6060  149.5020 C   0  0  0  0  0  0  0  0  0  0  0  0
  160.5310  212.5120  148.9340 O   0  0  0  0  0  1  0  0  0  0  0  0
  159.1770  211.2200  154.3720 C   0  0  0  0  0  2  0  0  0  0  0  0
  160.5240  211.6900  154.9060 C   0  0  0  0  0  2  0  0  0  0  0  0
  163.2590  210.8640  156.9800 C   0  0  0  0  0  2  0  0  0  0  0  0
  160.6860  208.1700  156.5520 C   0  0  1  0  0  0  0  0  0  0  0  0
  158.5230  211.1920  156.8760 F   0  0  0  0  0  0  0  0  0  0  0  0
  160.8540  211.1210  156.2940 C   0  0  2  0  0  3  0  0  0  0  0  0
  160.5500  206.8800  157.0600 O   0  0  0  0  0  1  0  0  0  0  0  0
  163.2340  210.7320  155.5110 N   0  0  0  0  0  2  0  0  0  0  0  0
  162.1140  210.2420  156.3300 C   0  0  1  0  0  0  0  0  0  0  0  0
  162.0700  208.7150  156.4570 C   0  0  2  0  0  3  0  0  0  0  0  0
  161.4090  208.1540  155.3430 O   0  0  0  0  0  0  0  0  0  0  0  0
  159.4280  209.0300  156.4330 C   0  0  0  0  0  2  0  0  0  0  0  0
  159.6720  210.4310  156.9830 C   0  0  2  0  0  3  0  0  0  0  0  0
  1 37  1  0  0  0  0
  2  1  1  0  0  0  0
  3  7  1  0  0  0  0
  4 14  1  0  0  0  0
  4 11  1  0  0  0  0
  5  3  1  0  0  0  0
  5  8  1  0  0  0  0
  6  8  1  0  0  0  0
  6 13  2  0  0  0  0
  7 12  1  1  0  0  0
  7 14  1  0  0  0  0
  8  4  2  0  0  0  0
  9  5  2  0  0  0  0
 10 11  2  0  0  0  0
 13 10  1  0  0  0  0
 14  2  1  1  0  0  0
 15 19  1  6  0  0  0
 15 13  1  0  0  0  0
 15 16  1  0  0  0  0
 16 17  1  0  0  0  0
 18 17  1  0  0  0  0
 20 19  1  0  0  0  0
 21 20  2  0  0  0  0
 22 21  1  0  0  0  0
 23 24  1  0  0  0  0
 23 22  1  0  0  0  0
 24 25  1  0  0  0  0
 26  1  1  0  0  0  0
 27 31  1  6  0  0  0
 27 32  1  0  0  0  0
 28 35  1  6  0  0  0
 28 27  1  0  0  0  0
 28 29  1  0  0  0  0
 29 26  1  1  0  0  0
 29 30  1  0  0  0  0
 32 30  1  0  0  0  0
 34 35  1  0  0  0  0
 35 33  1  0  0  0  0
 36 35  1  0  0  0  0
 37 38  1  0  0  0  0
 40 43  1  1  0  0  0
 42 38  1  6  0  0  0
 42 45  1  0  0  0  0
 42 49  1  0  0  0  0
 44 45  1  0  0  0  0
 44 39  1  0  0  0  0
 45 46  1  0  0  0  0
 45 39  1  1  0  0  0
 46 47  1  6  0  0  0
 46 40  1  0  0  0  0
 47 40  1  0  0  0  0
 48 40  1  0  0  0  0
 48 49  1  0  0  0  0
 49 41  1  6  0  0  0
M  END
>  <MODEL>
7

>  <REMARK>
 VINA RESULT:      -3.4      2.636      6.050
  Name = 
  16 active torsions:
  status: ('A' for Active; 'I' for Inactive)
    1  A    between atoms: C_1  and  C_24
    2  A    between atoms: C_1  and  C_31
    3  A    between atoms: O_4  and  C_12
    4  A    between atoms: O_4  and  C_36
    5  A    between atoms: C_8  and  N_23
    6  A    between atoms: C_8  and  C_27
    7  A    between atoms: C_10  and  N_23
    8  A    between atoms: C_10  and  C_47
    9  A    between atoms: C_13  and  N_23
   10  A    between atoms: C_13  and  C_34
   11  A    between atoms: C_15  and  C_38
   12  A    between atoms: C_16  and  C_27
   13  A    between atoms: C_20  and  C_29
   14  A    between atoms: C_24  and  C_38
   15  A    between atoms: C_24  and  C_46
   16  A    between atoms: C_33  and  C_36
                            x       y       z     vdW  Elec       q    Type
                         _______ _______ _______ _____ _____    ______ ____

>  <TORSDO>
F 16

$$$$
=
 OpenBabel11072409503D

 49 54  0  0  1  0  0  0  0  0999 V2000
  161.8800  209.3960  151.0370 N   0  0  0  0  0  0  0  0  0  0  0  0
  160.9320  208.3010  150.8300 C   0  0  0  0  0  2  0  0  0  0  0  0
  162.5560  207.1940  147.5130 N   0  0  0  0  0  2  0  0  0  0  0  0
  161.1250  205.9730  149.6810 C   0  0  0  0  0  0  0  0  0  0  0  0
  162.2270  205.8020  147.4570 C   0  0  0  0  0  0  0  0  0  0  0  0
  161.3580  203.7860  148.6550 C   0  0  0  0  0  3  0  0  0  0  0  0
  162.4970  207.9230  148.7780 C   0  0  2  0  0  3  0  0  0  0  0  0
  161.5680  205.1680  148.6160 C   0  0  0  0  0  0  0  0  0  0  0  0
  162.4790  205.1430  146.4170 O   0  0  0  0  0  0  0  0  0  0  0  0
  160.2670  204.0180  150.7670 N   0  0  0  0  0  0  0  0  0  0  0  0
  160.4540  205.3640  150.7480 C   0  0  0  0  0  3  0  0  0  0  0  0
  163.7860  207.6670  149.5490 C   0  0  0  0  0  1  0  0  0  0  0  0
  160.7090  203.2200  149.7540 C   0  0  0  0  0  0  0  0  0  0  0  0
  161.2520  207.4780  149.5710 C   0  0  2  0  0  3  0  0  0  0  0  0
  160.4520  201.7460  149.7720 C   0  0  2  0  0  3  0  0  0  0  0  0
  161.1660  201.1110  150.9570 C   0  0  0  0  0  2  0  0  0  0  0  0
  161.6830  202.1700  151.9180 C   0  0  0  0  0  2  0  0  0  0  0  0
  163.0730  202.0920  152.0140 O   0  0  0  0  0  1  0  0  0  0  0  0
  160.8830  201.0840  148.4670 C   0  0  0  0  0  2  0  0  0  0  0  0
  160.3630  201.8510  147.2980 C   0  0  0  0  0  3  0  0  0  0  0  0
  160.6650  201.4610  146.0650 C   0  0  0  0  0  3  0  0  0  0  0  0
  160.1410  202.2180  144.8950 C   0  0  0  0  0  2  0  0  0  0  0  0
  160.7890  203.4510  144.8110 O   0  0  0  0  0  0  0  0  0  0  0  0
  159.8610  204.2920  144.2030 C   0  0  0  0  0  2  0  0  0  0  0  0
  160.0740  205.6040  144.6290 O   0  0  0  0  0  1  0  0  0  0  0  0
  162.2260  209.5000  152.4600 C   0  0  0  0  0  2  0  0  0  0  0  0
  161.2280  210.3730  155.5640 C   0  0  1  0  0  3  0  0  0  0  0  0
  161.5780  209.0860  154.8220 C   0  0  2  0  0  3  0  0  0  0  0  0
  161.0470  209.2660  153.4150 C   0  0  1  0  0  3  0  0  0  0  0  0
  160.1870  210.5120  153.4940 C   0  0  0  0  0  2  0  0  0  0  0  0
  162.4730  210.9620  156.1990 C   0  0  0  0  0  1  0  0  0  0  0  0
  160.6760  211.3210  154.6030 N   0  0  0  0  0  2  0  0  0  0  0  0
  160.7660  206.6930  154.5130 C   0  0  0  0  0  1  0  0  0  0  0  0
  159.7070  208.1640  156.1970 C   0  0  0  0  0  1  0  0  0  0  0  0
  161.0140  207.8250  155.5080 C   0  0  0  0  0  0  0  0  0  0  0  0
  161.9170  207.3780  156.4770 O   0  0  0  0  0  1  0  0  0  0  0  0
  161.2490  210.6360  150.6030 C   0  0  0  0  0  2  0  0  0  0  0  0
  161.7380  211.0300  149.2150 C   0  0  0  0  0  2  0  0  0  0  0  0
  160.1800  214.1000  149.9960 C   0  0  0  0  0  2  0  0  0  0  0  0
  161.1450  213.6480  146.4010 C   0  0  1  0  0  0  0  0  0  0  0  0
  164.1100  212.1910  148.1350 F   0  0  0  0  0  0  0  0  0  0  0  0
  161.9140  212.5460  149.0470 C   0  0  2  0  0  3  0  0  0  0  0  0
  161.0440  214.4530  145.2680 O   0  0  0  0  0  1  0  0  0  0  0  0
  159.4750  212.8450  149.6730 N   0  0  0  0  0  2  0  0  0  0  0  0
  160.5980  213.3130  148.8440 C   0  0  1  0  0  0  0  0  0  0  0  0
  160.1620  213.8930  147.4930 C   0  0  2  0  0  3  0  0  0  0  0  0
  159.9920  212.8550  146.5520 O   0  0  0  0  0  0  0  0  0  0  0  0
  162.4150  212.8150  146.5760 C   0  0  0  0  0  2  0  0  0  0  0  0
  162.9570  212.9420  147.9970 C   0  0  2  0  0  3  0  0  0  0  0  0
  1 26  1  0  0  0  0
  2  1  1  0  0  0  0
  3  7  1  0  0  0  0
  4 11  1  0  0  0  0
  5  3  1  0  0  0  0
  5  8  1  0  0  0  0
  6 13  2  0  0  0  0
  7 12  1  1  0  0  0
  7 14  1  0  0  0  0
  8  6  1  0  0  0  0
  8  4  2  0  0  0  0
  9  5  2  0  0  0  0
 11 10  2  0  0  0  0
 13 15  1  0  0  0  0
 13 10  1  0  0  0  0
 14  4  1  0  0  0  0
 14  2  1  1  0  0  0
 15 19  1  6  0  0  0
 15 16  1  0  0  0  0
 16 17  1  0  0  0  0
 17 18  1  0  0  0  0
 20 19  1  0  0  0  0
 21 20  2  0  0  0  0
 22 21  1  0  0  0  0
 23 22  1  0  0  0  0
 24 25  1  0  0  0  0
 24 23  1  0  0  0  0
 27 31  1  6  0  0  0
 28 35  1  1  0  0  0
 28 27  1  0  0  0  0
 29 26  1  6  0  0  0
 29 30  1  0  0  0  0
 29 28  1  0  0  0  0
 30 32  1  0  0  0  0
 32 27  1  0  0  0  0
 33 35  1  0  0  0  0
 35 34  1  0  0  0  0
 35 36  1  0  0  0  0
 37  1  1  0  0  0  0
 38 37  1  0  0  0  0
 40 43  1  6  0  0  0
 40 47  1  0  0  0  0
 40 48  1  0  0  0  0
 40 46  1  0  0  0  0
 42 38  1  6  0  0  0
 44 39  1  0  0  0  0
 45 42  1  0  0  0  0
 45 44  1  0  0  0  0
 45 39  1  1  0  0  0
 46 47  1  6  0  0  0
 46 45  1  0  0  0  0
 48 49  1  0  0  0  0
 49 41  1  6  0  0  0
 49 42  1  0  0  0  0
M  END
>  <MODEL>
8

>  <REMARK>
 VINA RESULT:      -3.3      1.965      3.010
  Name = 
  16 active torsions:
  status: ('A' for Active; 'I' for Inactive)
    1  A    between atoms: C_1  and  C_24
    2  A    between atoms: C_1  and  C_31
    3  A    between atoms: O_4  and  C_12
    4  A    between atoms: O_4  and  C_36
    5  A    between atoms: C_8  and  N_23
    6  A    between atoms: C_8  and  C_27
    7  A    between atoms: C_10  and  N_23
    8  A    between atoms: C_10  and  C_47
    9  A    between atoms: C_13  and  N_23
   10  A    between atoms: C_13  and  C_34
   11  A    between atoms: C_15  and  C_38
   12  A    between atoms: C_16  and  C_27
   13  A    between atoms: C_20  and  C_29
   14  A    between atoms: C_24  and  C_38
   15  A    between atoms: C_24  and  C_46
   16  A    between atoms: C_33  and  C_36
                            x       y       z     vdW  Elec       q    Type
                         _______ _______ _______ _____ _____    ______ ____

>  <TORSDO>
F 16

$$$$
=
 OpenBabel11072409503D

 49 54  0  0  1  0  0  0  0  0999 V2000
  161.0670  210.6510  152.3680 N   0  0  0  0  0  0  0  0  0  0  0  0
  160.3370  209.3930  152.2150 C   0  0  0  0  0  2  0  0  0  0  0  0
  162.3070  206.2600  153.2950 N   0  0  0  0  0  2  0  0  0  0  0  0
  161.3510  207.4230  150.8510 C   0  0  0  0  0  0  0  0  0  0  0  0
  162.6260  205.6490  152.0400 C   0  0  0  0  0  0  0  0  0  0  0  0
  162.2300  205.5560  149.5730 C   0  0  0  0  0  3  0  0  0  0  0  0
  161.2310  207.2430  153.3910 C   0  0  2  0  0  3  0  0  0  0  0  0
  162.0560  206.2060  150.7980 C   0  0  0  0  0  0  0  0  0  0  0  0
  163.4040  204.6620  152.0080 O   0  0  0  0  0  0  0  0  0  0  0  0
  161.0400  207.3130  148.4780 N   0  0  0  0  0  0  0  0  0  0  0  0
  160.8630  207.9670  149.6560 C   0  0  0  0  0  3  0  0  0  0  0  0
  159.9030  206.5050  153.5020 C   0  0  0  0  0  1  0  0  0  0  0  0
  161.7010  206.1230  148.4120 C   0  0  0  0  0  0  0  0  0  0  0  0
  161.2730  208.1750  152.1630 C   0  0  2  0  0  3  0  0  0  0  0  0
  161.9250  205.4430  147.0980 C   0  0  2  0  0  3  0  0  0  0  0  0
  160.8280  205.8370  146.1180 C   0  0  0  0  0  2  0  0  0  0  0  0
  160.8570  204.9570  144.8790 C   0  0  0  0  0  2  0  0  0  0  0  0
  161.2080  205.7150  143.7610 O   0  0  0  0  0  1  0  0  0  0  0  0
  161.9880  203.9270  147.2540 C   0  0  0  0  0  2  0  0  0  0  0  0
  160.9800  203.4630  148.2510 C   0  0  0  0  0  3  0  0  0  0  0  0
  160.7750  202.1630  148.4270 C   0  0  0  0  0  3  0  0  0  0  0  0
  159.7760  201.6960  149.4260 C   0  0  0  0  0  2  0  0  0  0  0  0
  160.4380  201.1240  150.5140 O   0  0  0  0  0  0  0  0  0  0  0  0
  161.2150  202.1570  151.0300 C   0  0  0  0  0  2  0  0  0  0  0  0
  160.4760  202.8650  151.9800 O   0  0  0  0  0  1  0  0  0  0  0  0
  161.5820  210.7720  153.7390 C   0  0  0  0  0  2  0  0  0  0  0  0
  159.9240  210.1190  156.6060 C   0  0  1  0  0  3  0  0  0  0  0  0
  159.5690  210.4710  155.1630 C   0  0  2  0  0  3  0  0  0  0  0  0
  160.6200  211.4660  154.7140 C   0  0  1  0  0  3  0  0  0  0  0  0
  161.3510  211.8420  155.9870 C   0  0  0  0  0  2  0  0  0  0  0  0
  160.0360  208.6150  156.7610 C   0  0  0  0  0  1  0  0  0  0  0  0
  161.2050  210.7390  156.9270 N   0  0  0  0  0  2  0  0  0  0  0  0
  157.8630  212.1790  155.9720 C   0  0  0  0  0  1  0  0  0  0  0  0
  157.1380  209.9130  155.2930 C   0  0  0  0  0  1  0  0  0  0  0  0
  158.1360  211.0190  155.0150 C   0  0  0  0  0  0  0  0  0  0  0  0
  157.9400  211.4660  153.7050 O   0  0  0  0  0  1  0  0  0  0  0  0
  160.1480  211.7510  152.1010 C   0  0  0  0  0  2  0  0  0  0  0  0
  160.7160  212.6770  151.0330 C   0  0  0  0  0  2  0  0  0  0  0  0
  161.9690  210.3160  148.7260 C   0  0  0  0  0  2  0  0  0  0  0  0
  161.6400  213.8200  147.4330 C   0  0  1  0  0  0  0  0  0  0  0  0
  158.5030  213.4870  149.4240 F   0  0  0  0  0  0  0  0  0  0  0  0
  160.4960  212.1550  149.6050 C   0  0  2  0  0  3  0  0  0  0  0  0
  161.8890  214.4190  146.1990 O   0  0  0  0  0  1  0  0  0  0  0  0
  162.7790  211.0560  149.7130 N   0  0  0  0  0  2  0  0  0  0  0  0
  161.7890  211.7540  148.8770 C   0  0  1  0  0  0  0  0  0  0  0  0
  162.4140  212.5880  147.7540 C   0  0  2  0  0  3  0  0  0  0  0  0
  162.7900  213.8580  148.2440 O   0  0  0  0  0  0  0  0  0  0  0  0
  160.4020  214.2680  148.2080 C   0  0  0  0  0  2  0  0  0  0  0  0
  159.6250  213.0650  148.7340 C   0  0  2  0  0  3  0  0  0  0  0  0
  1 26  1  0  0  0  0
  2  1  1  0  0  0  0
  3  7  1  0  0  0  0
  4 14  1  0  0  0  0
  5  3  1  0  0  0  0
  6  8  2  0  0  0  0
  7 12  1  6  0  0  0
  8  4  1  0  0  0  0
  8  5  1  0  0  0  0
  9  5  2  0  0  0  0
 10 11  1  0  0  0  0
 11  4  2  0  0  0  0
 13 10  2  0  0  0  0
 13  6  1  0  0  0  0
 14  2  1  6  0  0  0
 14  7  1  0  0  0  0
 15 16  1  6  0  0  0
 15 19  1  0  0  0  0
 15 13  1  0  0  0  0
 17 16  1  0  0  0  0
 18 17  1  0  0  0  0
 19 20  1  0  0  0  0
 20 21  2  0  0  0  0
 21 22  1  0  0  0  0
 22 23  1  0  0  0  0
 23 24  1  0  0  0  0
 24 25  1  0  0  0  0
 27 31  1  6  0  0  0
 27 32  1  0  0  0  0
 28 35  1  1  0  0  0
 28 27  1  0  0  0  0
 29 26  1  6  0  0  0
 29 28  1  0  0  0  0
 29 30  1  0  0  0  0
 30 32  1  0  0  0  0
 35 34  1  0  0  0  0
 35 33  1  0  0  0  0
 36 35  1  0  0  0  0
 37  1  1  0  0  0  0
 38 37  1  0  0  0  0
 39 44  1  0  0  0  0
 40 43  1  6  0  0  0
 40 46  1  0  0  0  0
 40 48  1  0  0  0  0
 40 47  1  0  0  0  0
 42 38  1  1  0  0  0
 45 39  1  6  0  0  0
 45 42  1  0  0  0  0
 45 44  1  0  0  0  0
 46 47  1  1  0  0  0
 46 45  1  0  0  0  0
 48 49  1  0  0  0  0
 49 41  1  1  0  0  0
 49 42  1  0  0  0  0
M  END
>  <MODEL>
9

>  <REMARK>
 VINA RESULT:      -3.0      1.768      3.412
  Name = 
  16 active torsions:
  status: ('A' for Active; 'I' for Inactive)
    1  A    between atoms: C_1  and  C_24
    2  A    between atoms: C_1  and  C_31
    3  A    between atoms: O_4  and  C_12
    4  A    between atoms: O_4  and  C_36
    5  A    between atoms: C_8  and  N_23
    6  A    between atoms: C_8  and  C_27
    7  A    between atoms: C_10  and  N_23
    8  A    between atoms: C_10  and  C_47
    9  A    between atoms: C_13  and  N_23
   10  A    between atoms: C_13  and  C_34
   11  A    between atoms: C_15  and  C_38
   12  A    between atoms: C_16  and  C_27
   13  A    between atoms: C_20  and  C_29
   14  A    between atoms: C_24  and  C_38
   15  A    between atoms: C_24  and  C_46
   16  A    between atoms: C_33  and  C_36
                            x       y       z     vdW  Elec       q    Type
                         _______ _______ _______ _____ _____    ______ ____

>  <TORSDO>
F 16

$$$$
