=
 OpenBabel11072412313D

 56 66  0  0  1  0  0  0  0  0999 V2000
  161.3530  207.7310  152.4440 C   0  0  2  0  0  3  0  0  0  0  0  0
  163.7270  211.6310  155.0600 C   0  0  0  0  0  2  0  0  0  0  0  0
  159.6960  209.1000  153.7810 C   0  0  1  0  0  3  0  0  0  0  0  0
  160.5070  209.9590  151.3340 C   0  0  0  0  0  2  0  0  0  0  0  0
  159.9920  207.4890  151.8130 C   0  0  0  0  0  2  0  0  0  0  0  0
  159.3660  211.3720  155.0980 C   0  0  2  0  0  0  0  0  0  0  0  0
  159.9340  211.3780  151.5830 C   0  0  1  0  0  0  0  0  0  0  0  0
  160.3140  208.8480  152.4020 C   0  0  1  0  0  0  0  0  0  0  0  0
  160.9750  213.1320  153.4880 O   0  0  0  0  0  1  0  0  0  0  0  0
  160.2950  210.3510  154.4240 C   0  0  2  0  0  0  0  0  0  0  0  0
  158.3430  212.0170  154.1850 C   0  0  2  0  0  3  0  0  0  0  0  0
  159.9530  211.7840  153.3710 P   0  0  0  0  0  0  0  0  0  0  0  0
  162.4090  211.8630  157.2580 C   0  0  0  0  0  2  0  0  0  0  0  0
  161.4270  212.1610  156.2110 N   0  0  0  0  0  0  0  0  0  0  0  0
  162.2740  211.3460  155.3500 C   0  0  2  0  0  0  0  0  0  0  0  0
  163.3320  211.0690  156.4030 C   0  0  1  0  0  0  0  0  0  0  0  0
  158.3010  209.1460  153.6960 O   0  0  0  0  0  1  0  0  0  0  0  0
  161.6660  210.1770  154.8280 O   0  0  0  0  0  0  0  0  0  0  0  0
  160.0250  212.2470  156.1240 C   0  0  0  0  0  0  0  0  0  0  0  0
  163.4000  209.6890  156.6160 O   0  0  0  0  0  1  0  0  0  0  0  0
  159.3600  212.8930  156.9760 O   0  0  0  0  0  0  0  0  0  0  0  0
  162.1230  211.8370  150.5230 O   0  0  0  0  0  0  0  0  0  0  0  0
  161.0220  214.4530  149.6400 C   0  0  0  0  0  2  0  0  0  0  0  0
  161.5650  213.3470  148.7470 C   0  0  0  0  0  2  0  0  0  0  0  0
  160.8420  212.3490  150.7960 C   0  0  1  0  0  0  0  0  0  0  0  0
  161.2560  212.0180  149.4200 C   0  0  2  0  0  3  0  0  0  0  0  0
  160.8440  213.8490  151.0200 C   0  0  0  0  0  2  0  0  0  0  0  0
  158.5830  211.5320  151.1140 O   0  0  0  0  0  0  0  0  0  0  0  0
  157.9680  212.6930  150.6280 C   0  0  0  0  0  0  0  0  0  0  0  0
  157.8630  213.7300  151.3340 O   0  0  0  0  0  0  0  0  0  0  0  0
  157.3360  212.6600  149.2790 C   0  0  0  0  0  2  0  0  0  0  0  0
  157.9280  213.7380  148.3910 C   0  0  0  0  0  1  0  0  0  0  0  0
  158.1580  213.4050  154.4450 O   0  0  0  0  0  0  0  0  0  0  0  0
  156.6820  214.3780  155.9320 O   0  0  0  0  0  1  0  0  0  0  0  0
  156.9080  213.9240  154.7780 C   0  0  0  0  0  0  0  0  0  0  0  0
  155.8920  213.9220  153.8350 O   0  0  0  0  0  0  0  0  0  0  0  0
  162.4170  207.8350  151.3620 C   0  0  0  0  0  2  0  0  0  0  0  0
  162.9830  206.4570  151.0780 C   0  0  0  0  0  2  0  0  0  0  0  0
  160.5920  202.9320  152.1800 O   0  0  0  0  0  1  0  0  0  0  0  0
  162.3570  203.7650  148.4740 O   0  0  0  0  0  0  0  0  0  0  0  0
  160.9510  204.9910  151.0590 C   0  0  0  0  0  2  0  0  0  0  0  0
  161.1370  203.4770  151.0120 C   0  0  2  0  0  3  0  0  0  0  0  0
  161.4290  202.7190  148.5600 C   0  0  0  0  0  2  0  0  0  0  0  0
  161.4490  206.5290  149.2390 O   0  0  0  0  0  0  0  0  0  0  0  0
  159.7780  201.5590  149.9930 C   0  0  0  0  0  1  0  0  0  0  0  0
  159.5090  205.4120  148.2360 C   0  0  0  0  0  1  0  0  0  0  0  0
  160.9810  205.7810  148.1260 C   0  0  2  0  0  3  0  0  0  0  0  0
  160.4670  202.8940  149.7450 C   0  0  1  0  0  3  0  0  0  0  0  0
  162.0110  205.6830  150.2140 C   0  0  1  0  0  3  0  0  0  0  0  0
  161.8840  204.6780  147.5180 C   0  0  1  0  0  3  0  0  0  0  0  0
  163.0710  205.3380  146.8400 C   0  0  0  0  0  2  0  0  0  0  0  0
  163.0040  205.1580  145.3310 C   0  0  0  0  0  2  0  0  0  0  0  0
  161.9780  204.1010  144.9360 C   0  0  0  0  0  2  0  0  0  0  0  0
  160.9120  204.6900  144.0250 C   0  0  0  0  0  3  0  0  0  0  0  0
  159.9170  205.4790  144.8540 C   0  0  0  0  0  2  0  0  0  0  0  0
  160.9980  206.1990  144.0740 C   0  0  0  0  0  2  0  0  0  0  0  0
  1 37  1  6  0  0  0
  2 16  1  0  0  0  0
  3 17  1  6  0  0  0
  3 10  1  0  0  0  0
  4  7  1  0  0  0  0
  5  8  1  0  0  0  0
  5  1  1  0  0  0  0
  6 19  1  1  0  0  0
  7 28  1  6  0  0  0
  7 12  1  0  0  0  0
  8  4  1  6  0  0  0
  8  1  1  0  0  0  0
  8  3  1  0  0  0  0
 10 18  1  1  0  0  0
 10  6  1  0  0  0  0
 11 33  1  1  0  0  0
 11  6  1  0  0  0  0
 12  9  1  0  0  0  0
 12 11  1  0  0  0  0
 12 10  1  0  0  0  0
 12  6  1  0  0  0  0
 14 13  1  0  0  0  0
 15  2  1  6  0  0  0
 15 14  1  0  0  0  0
 15 16  1  0  0  0  0
 16 20  1  1  0  0  0
 16 13  1  0  0  0  0
 18 15  1  0  0  0  0
 19 14  1  0  0  0  0
 19 21  2  0  0  0  0
 22 25  1  0  0  0  0
 23 27  1  0  0  0  0
 24 23  1  0  0  0  0
 25 27  1  1  0  0  0
 25  7  1  0  0  0  0
 26 24  1  6  0  0  0
 26 22  1  0  0  0  0
 26 25  1  0  0  0  0
 29 28  1  0  0  0  0
 29 30  2  0  0  0  0
 31 29  1  0  0  0  0
 32 31  1  0  0  0  0
 33 35  1  0  0  0  0
 35 34  1  0  0  0  0
 36 35  2  0  0  0  0
 38 37  1  0  0  0  0
 40 43  1  0  0  0  0
 42 41  1  0  0  0  0
 42 39  1  1  0  0  0
 43 48  1  0  0  0  0
 44 49  1  0  0  0  0
 47 46  1  1  0  0  0
 47 44  1  0  0  0  0
 48 45  1  1  0  0  0
 48 42  1  0  0  0  0
 49 41  1  0  0  0  0
 49 38  1  1  0  0  0
 50 51  1  1  0  0  0
 50 47  1  0  0  0  0
 50 40  1  0  0  0  0
 52 51  1  0  0  0  0
 53 52  1  0  0  0  0
 54 56  1  0  0  0  0
 54 55  1  0  0  0  0
 54 53  1  0  0  0  0
 56 55  1  0  0  0  0
M  END
>  <MODEL>
1

>  <REMARK>
 VINA RESULT:       7.8      0.000      0.000
  Name = 
  13 active torsions:
  status: ('A' for Active; 'I' for Inactive)
    1  A    between atoms: C_1  and  C_48
    2  A    between atoms: O_6  and  C_14
    3  A    between atoms: O_6  and  C_16
    4  A    between atoms: C_11  and  C_16
    5  A    between atoms: C_12  and  C_55
    6  A    between atoms: C_12  and  C_56
    7  A    between atoms: C_14  and  C_21
    8  A    between atoms: O_15  and  C_24
    9  A    between atoms: O_15  and  C_47
   10  A    between atoms: C_23  and  C_48
   11  A    between atoms: C_23  and  C_50
   12  A    between atoms: C_27  and  C_36
   13  A    between atoms: C_36  and  C_56
                            x       y       z     vdW  Elec       q    Type
                         _______ _______ _______ _____ _____    ______ ____

>  <TORSDO>
F 13

$$$$
