=
 OpenBabel11072411403D

 53 57  0  0  1  0  0  0  0  0999 V2000
  161.6950  209.8640  149.6790 C   0  0  1  0  0  3  0  0  0  0  0  0
  161.8690  210.7270  148.4280 C   0  0  0  0  0  2  0  0  0  0  0  0
  160.6100  210.7250  147.5520 C   0  0  0  0  0  2  0  0  0  0  0  0
  159.9620  213.0130  147.2630 O   0  0  0  0  0  0  0  0  0  0  0  0
  160.4990  211.9940  146.7530 C   0  0  0  0  0  0  0  0  0  0  0  0
  160.9070  212.0450  145.4120 O   0  0  0  0  0  0  0  0  0  0  0  0
  161.3880  213.0430  143.2290 C   0  0  2  0  0  3  0  0  0  0  0  0
  162.9110  212.9880  143.3890 C   0  0  0  0  0  2  0  0  0  0  0  0
  162.7560  214.3790  145.4630 C   0  0  0  0  0  2  0  0  0  0  0  0
  160.7030  213.1960  144.5950 C   0  0  2  0  0  3  0  0  0  0  0  0
  161.2330  214.4400  145.3150 C   0  0  0  0  0  2  0  0  0  0  0  0
  163.4140  214.2460  144.0920 C   0  0  0  0  0  2  0  0  0  0  0  0
  160.8890  211.8030  142.5000 C   0  0  0  0  0  2  0  0  0  0  0  0
  159.8820  212.0210  139.7190 C   0  0  1  0  0  3  0  0  0  0  0  0
  160.3410  209.8350  138.4730 C   0  0  0  0  0  2  0  0  0  0  0  0
  161.3710  211.8420  140.7450 P   0  0  1  0  0  0  0  0  0  0  0  0
  159.5880  213.3740  139.5310 O   0  0  0  0  0  1  0  0  0  0  0  0
  162.3330  212.9830  140.4930 O   0  0  0  0  0  0  0  0  0  0  0  0
  160.1360  211.3590  138.3700 C   0  0  0  0  0  2  0  0  0  0  0  0
  161.0230  209.3480  139.7600 C   0  0  0  0  0  2  0  0  0  0  0  0
  162.1290  210.2820  140.2200 C   0  0  0  0  0  2  0  0  0  0  0  0
  161.6590  208.3750  149.3260 C   0  0  0  0  0  2  0  0  0  0  0  0
  162.7400  208.0530  148.5020 O   0  0  0  0  0  0  0  0  0  0  0  0
  162.5380  206.7140  148.1590 C   0  0  0  0  0  2  0  0  0  0  0  0
  161.5990  206.6160  146.9620 C   0  0  0  0  0  2  0  0  0  0  0  0
  162.2100  205.7750  145.8440 C   0  0  0  0  0  2  0  0  0  0  0  0
  159.9460  206.0080  145.1710 O   0  0  0  0  0  1  0  0  0  0  0  0
  161.1760  205.4920  144.7720 C   0  0  0  0  0  2  0  0  0  0  0  0
  162.7240  210.1020  150.6020 O   0  0  0  0  0  0  0  0  0  0  0  0
  159.9750  211.6000  152.5920 C   0  0  0  0  0  3  0  0  0  0  0  0
  159.6240  211.8360  154.8960 O   0  0  0  0  0  1  0  0  0  0  0  0
  162.1070  209.7120  152.8760 C   0  0  0  0  0  2  0  0  0  0  0  0
  161.4800  210.3280  154.1400 C   0  0  2  0  0  0  0  0  0  0  0  0
  160.6500  211.0200  151.3880 C   0  0  0  0  0  2  0  0  0  0  0  0
  162.1040  210.6910  151.7090 C   0  0  2  0  0  3  0  0  0  0  0  0
  160.3220  211.2620  153.8380 C   0  0  0  0  0  0  0  0  0  0  0  0
  162.4640  211.0500  154.8200 O   0  0  0  0  0  1  0  0  0  0  0  0
  160.9590  209.2060  155.0390 C   0  0  0  0  0  2  0  0  0  0  0  0
  159.9170  206.8560  155.1420 C   0  0  2  0  0  3  0  0  0  0  0  0
  160.3600  208.0300  154.2620 C   0  0  2  0  0  3  0  0  0  0  0  0
  160.1840  207.0150  156.6350 C   0  0  0  0  0  1  0  0  0  0  0  0
  161.2400  206.8060  154.4020 C   0  0  2  0  0  3  0  0  0  0  0  0
  162.8110  206.9850  152.0380 O   0  0  0  0  0  0  0  0  0  0  0  0
  161.9830  206.0370  152.1210 C   0  0  0  0  0  0  0  0  0  0  0  0
  161.0840  205.9600  153.2300 N   0  0  0  0  0  2  0  0  0  0  0  0
  161.9600  205.0320  151.1020 N   0  0  0  0  0  2  0  0  0  0  0  0
  161.0760  203.8800  151.1520 C   0  0  0  0  0  2  0  0  0  0  0  0
  161.0560  200.6070  149.1150 C   0  0  0  0  0  2  0  0  0  0  0  0
  160.7270  201.5610  150.2560 C   0  0  0  0  0  2  0  0  0  0  0  0
  161.2150  202.5560  147.5440 C   0  0  0  0  0  2  0  0  0  0  0  0
  160.8910  203.5020  148.6990 C   0  0  0  0  0  2  0  0  0  0  0  0
  161.3880  202.9160  150.0160 C   0  0  0  0  0  3  0  0  0  0  0  0
  160.5740  201.1890  147.7870 C   0  0  0  0  0  2  0  0  0  0  0  0
  1  2  1  6  0  0  0
  1 29  1  0  0  0  0
  3  2  1  0  0  0  0
  5  4  2  0  0  0  0
  5  3  1  0  0  0  0
  6  5  1  0  0  0  0
  7 13  1  1  0  0  0
  7  8  1  0  0  0  0
  7 10  1  0  0  0  0
  8 12  1  0  0  0  0
 10 11  1  0  0  0  0
 10  6  1  1  0  0  0
 11  9  1  0  0  0  0
 12  9  1  0  0  0  0
 14 17  1  6  0  0  0
 14 16  1  0  0  0  0
 15 20  1  0  0  0  0
 16 18  2  6  0  0  0
 16 13  1  0  0  0  0
 19 15  1  0  0  0  0
 19 14  1  0  0  0  0
 20 21  1  0  0  0  0
 21 16  1  0  0  0  0
 22  1  1  0  0  0  0
 23 22  1  0  0  0  0
 24 23  1  0  0  0  0
 25 24  1  0  0  0  0
 26 25  1  0  0  0  0
 28 27  1  0  0  0  0
 28 26  1  0  0  0  0
 30 36  2  0  0  0  0
 32 33  1  0  0  0  0
 33 37  1  1  0  0  0
 33 38  1  0  0  0  0
 34 35  1  0  0  0  0
 34 30  1  0  0  0  0
 35 29  1  6  0  0  0
 35 32  1  0  0  0  0
 36 33  1  0  0  0  0
 36 31  1  0  0  0  0
 39 41  1  1  0  0  0
 40 42  1  0  0  0  0
 40 38  1  1  0  0  0
 40 39  1  0  0  0  0
 42 45  1  6  0  0  0
 42 39  1  0  0  0  0
 43 44  2  0  0  0  0
 44 45  1  0  0  0  0
 46 47  1  0  0  0  0
 46 44  1  0  0  0  0
 48 49  1  0  0  0  0
 50 53  1  0  0  0  0
 50 51  1  0  0  0  0
 51 52  1  0  0  0  0
 52 49  1  0  0  0  0
 52 47  1  0  0  0  0
 53 48  1  0  0  0  0
M  END
>  <MODEL>
1

>  <REMARK>
 VINA RESULT:      -5.7      0.000      0.000
  Name = 
  20 active torsions:
  status: ('A' for Active; 'I' for Inactive)
    1  A    between atoms: C_1  and  C_49
    2  A    between atoms: C_1  and  C_51
    3  A    between atoms: O_2  and  C_27
    4  A    between atoms: O_2  and  C_50
    5  A    between atoms: C_5  and  P_12
    6  A    between atoms: C_5  and  C_28
    7  A    between atoms: O_8  and  C_29
    8  A    between atoms: O_8  and  C_35
    9  A    between atoms: C_14  and  N_39
   10  A    between atoms: C_14  and  C_44
   11  A    between atoms: N_21  and  C_41
   12  A    between atoms: C_23  and  C_48
   13  A    between atoms: O_24  and  C_30
   14  A    between atoms: O_24  and  C_45
   15  A    between atoms: C_27  and  C_43
   16  A    between atoms: C_30  and  C_35
   17  A    between atoms: C_34  and  C_35
   18  A    between atoms: C_34  and  C_43
   19  A    between atoms: C_38  and  C_48
   20  A    between atoms: C_45  and  C_51
                            x       y       z     vdW  Elec       q    Type
                         _______ _______ _______ _____ _____    ______ ____

>  <TORSDO>
F 20

$$$$
=
 OpenBabel11072411403D

 53 57  0  0  1  0  0  0  0  0999 V2000
  161.8500  208.3820  148.8370 C   0  0  1  0  0  3  0  0  0  0  0  0
  161.1290  208.6380  150.1620 C   0  0  0  0  0  2  0  0  0  0  0  0
  162.1150  208.8650  151.3160 C   0  0  0  0  0  2  0  0  0  0  0  0
  160.9340  207.3130  152.7090 O   0  0  0  0  0  0  0  0  0  0  0  0
  161.5300  208.4210  152.6280 C   0  0  0  0  0  0  0  0  0  0  0  0
  161.5580  209.2560  153.7530 O   0  0  0  0  0  0  0  0  0  0  0  0
  160.3590  210.6720  155.3510 C   0  0  2  0  0  3  0  0  0  0  0  0
  161.5990  211.0190  156.1810 C   0  0  0  0  0  2  0  0  0  0  0  0
  161.9990  208.5880  156.6220 C   0  0  0  0  0  2  0  0  0  0  0  0
  160.5020  209.2830  154.7120 C   0  0  2  0  0  3  0  0  0  0  0  0
  160.7620  208.2290  155.7940 C   0  0  0  0  0  2  0  0  0  0  0  0
  161.8240  209.9630  157.2610 C   0  0  0  0  0  2  0  0  0  0  0  0
  160.1150  211.7400  154.2940 C   0  0  0  0  0  2  0  0  0  0  0  0
  157.2100  212.0860  154.7780 C   0  0  1  0  0  3  0  0  0  0  0  0
  156.2700  213.8000  153.1280 C   0  0  0  0  0  2  0  0  0  0  0  0
  158.8290  212.9090  154.8350 P   0  0  1  0  0  0  0  0  0  0  0  0
  156.9530  211.4470  155.9930 O   0  0  0  0  0  1  0  0  0  0  0  0
  159.1270  213.4030  156.2330 O   0  0  0  0  0  0  0  0  0  0  0  0
  156.1370  213.1360  154.5130 C   0  0  0  0  0  2  0  0  0  0  0  0
  157.7070  213.9550  152.6080 C   0  0  0  0  0  2  0  0  0  0  0  0
  158.6870  214.3210  153.7080 C   0  0  0  0  0  2  0  0  0  0  0  0
  161.8230  206.8970  148.4690 C   0  0  0  0  0  2  0  0  0  0  0  0
  162.1500  206.7330  147.1210 O   0  0  0  0  0  0  0  0  0  0  0  0
  161.2280  205.7990  146.6430 C   0  0  0  0  0  2  0  0  0  0  0  0
  160.9260  204.7640  147.7200 C   0  0  0  0  0  2  0  0  0  0  0  0
  161.8290  203.5410  147.5840 C   0  0  0  0  0  2  0  0  0  0  0  0
  160.5450  202.3680  149.1980 O   0  0  0  0  0  1  0  0  0  0  0  0
  161.0580  202.2760  147.9070 C   0  0  0  0  0  2  0  0  0  0  0  0
  161.2780  209.1330  147.8000 O   0  0  0  0  0  0  0  0  0  0  0  0
  163.3650  212.1620  148.2810 C   0  0  0  0  0  3  0  0  0  0  0  0
  162.8770  214.4530  148.2450 O   0  0  0  0  0  1  0  0  0  0  0  0
  160.8830  211.3790  147.0900 C   0  0  0  0  0  2  0  0  0  0  0  0
  161.1250  212.8660  147.4070 C   0  0  2  0  0  0  0  0  0  0  0  0
  163.0670  210.7200  148.0090 C   0  0  0  0  0  2  0  0  0  0  0  0
  161.5660  210.4680  148.1030 C   0  0  2  0  0  3  0  0  0  0  0  0
  162.5050  213.1400  147.9770 C   0  0  0  0  0  0  0  0  0  0  0  0
  160.1720  213.2860  148.3380 O   0  0  0  0  0  1  0  0  0  0  0  0
  160.9750  213.6820  146.1220 C   0  0  0  0  0  2  0  0  0  0  0  0
  162.5310  213.2710  144.1140 C   0  0  2  0  0  3  0  0  0  0  0  0
  161.2460  212.8740  144.8500 C   0  0  2  0  0  3  0  0  0  0  0  0
  163.3080  214.4320  144.7270 C   0  0  0  0  0  1  0  0  0  0  0  0
  161.1820  213.7730  143.6330 C   0  0  2  0  0  3  0  0  0  0  0  0
  161.8260  214.4090  140.9370 O   0  0  0  0  0  0  0  0  0  0  0  0
  161.2370  213.3150  141.1570 C   0  0  0  0  0  0  0  0  0  0  0  0
  160.7840  212.9930  142.4740 N   0  0  0  0  0  2  0  0  0  0  0  0
  161.0370  212.3950  140.0790 N   0  0  0  0  0  2  0  0  0  0  0  0
  160.4190  211.0940  140.2590 C   0  0  0  0  0  2  0  0  0  0  0  0
  159.2270  208.9570  137.2800 C   0  0  0  0  0  2  0  0  0  0  0  0
  160.0310  209.3250  138.5210 C   0  0  0  0  0  2  0  0  0  0  0  0
  157.3100  210.3360  138.1250 C   0  0  0  0  0  2  0  0  0  0  0  0
  158.1300  210.7040  139.3600 C   0  0  0  0  0  2  0  0  0  0  0  0
  159.6180  210.7060  139.0240 C   0  0  0  0  0  3  0  0  0  0  0  0
  157.7330  208.9640  137.6010 C   0  0  0  0  0  2  0  0  0  0  0  0
  1 22  1  6  0  0  0
  1  2  1  0  0  0  0
  2  3  1  0  0  0  0
  3  5  1  0  0  0  0
  5  4  2  0  0  0  0
  5  6  1  0  0  0  0
  7 13  1  6  0  0  0
  7  8  1  0  0  0  0
  8 12  1  0  0  0  0
  9 12  1  0  0  0  0
 10  6  1  6  0  0  0
 10  7  1  0  0  0  0
 10 11  1  0  0  0  0
 11  9  1  0  0  0  0
 13 16  1  0  0  0  0
 14 16  1  0  0  0  0
 14 17  1  1  0  0  0
 15 19  1  0  0  0  0
 16 18  2  1  0  0  0
 19 14  1  0  0  0  0
 20 15  1  0  0  0  0
 20 21  1  0  0  0  0
 21 16  1  0  0  0  0
 23 22  1  0  0  0  0
 24 23  1  0  0  0  0
 24 25  1  0  0  0  0
 26 25  1  0  0  0  0
 26 28  1  0  0  0  0
 28 27  1  0  0  0  0
 29  1  1  0  0  0  0
 32 33  1  0  0  0  0
 32 35  1  0  0  0  0
 33 36  1  0  0  0  0
 33 37  1  1  0  0  0
 34 35  1  0  0  0  0
 34 30  1  0  0  0  0
 35 29  1  6  0  0  0
 36 31  1  0  0  0  0
 36 30  2  0  0  0  0
 38 33  1  0  0  0  0
 39 41  1  1  0  0  0
 39 40  1  0  0  0  0
 40 38  1  1  0  0  0
 42 45  1  6  0  0  0
 42 39  1  0  0  0  0
 42 40  1  0  0  0  0
 43 44  2  0  0  0  0
 44 45  1  0  0  0  0
 46 47  1  0  0  0  0
 46 44  1  0  0  0  0
 48 53  1  0  0  0  0
 48 49  1  0  0  0  0
 49 52  1  0  0  0  0
 50 51  1  0  0  0  0
 52 51  1  0  0  0  0
 52 47  1  0  0  0  0
 53 50  1  0  0  0  0
M  END
>  <MODEL>
2

>  <REMARK>
 VINA RESULT:      -5.2      3.768     10.909
  Name = 
  20 active torsions:
  status: ('A' for Active; 'I' for Inactive)
    1  A    between atoms: C_1  and  C_49
    2  A    between atoms: C_1  and  C_51
    3  A    between atoms: O_2  and  C_27
    4  A    between atoms: O_2  and  C_50
    5  A    between atoms: C_5  and  P_12
    6  A    between atoms: C_5  and  C_28
    7  A    between atoms: O_8  and  C_29
    8  A    between atoms: O_8  and  C_35
    9  A    between atoms: C_14  and  N_39
   10  A    between atoms: C_14  and  C_44
   11  A    between atoms: N_21  and  C_41
   12  A    between atoms: C_23  and  C_48
   13  A    between atoms: O_24  and  C_30
   14  A    between atoms: O_24  and  C_45
   15  A    between atoms: C_27  and  C_43
   16  A    between atoms: C_30  and  C_35
   17  A    between atoms: C_34  and  C_35
   18  A    between atoms: C_34  and  C_43
   19  A    between atoms: C_38  and  C_48
   20  A    between atoms: C_45  and  C_51
                            x       y       z     vdW  Elec       q    Type
                         _______ _______ _______ _____ _____    ______ ____

>  <TORSDO>
F 20

$$$$
=
 OpenBabel11072411403D

 53 57  0  0  1  0  0  0  0  0999 V2000
  161.3850  205.3180  144.3860 C   0  0  1  0  0  3  0  0  0  0  0  0
  161.9820  205.4450  142.9830 C   0  0  0  0  0  2  0  0  0  0  0  0
  161.5590  206.7510  142.2970 C   0  0  0  0  0  2  0  0  0  0  0  0
  163.0040  206.1480  140.4820 O   0  0  0  0  0  0  0  0  0  0  0  0
  161.9660  206.7630  140.8490 C   0  0  0  0  0  0  0  0  0  0  0  0
  161.2600  207.5200  139.9040 O   0  0  0  0  0  0  0  0  0  0  0  0
  161.2010  209.8960  139.3170 C   0  0  2  0  0  3  0  0  0  0  0  0
  159.7640  209.8680  138.7840 C   0  0  0  0  0  2  0  0  0  0  0  0
  160.4060  208.1170  137.1140 C   0  0  0  0  0  2  0  0  0  0  0  0
  161.8830  208.5340  139.1180 C   0  0  2  0  0  3  0  0  0  0  0  0
  161.8450  208.1360  137.6390 C   0  0  0  0  0  2  0  0  0  0  0  0
  159.7570  209.4860  137.3060 C   0  0  0  0  0  2  0  0  0  0  0  0
  161.2120  210.3070  140.7830 C   0  0  0  0  0  2  0  0  0  0  0  0
  161.4160  212.5470  142.7150 C   0  0  1  0  0  3  0  0  0  0  0  0
  159.3690  214.0630  142.4800 C   0  0  0  0  0  2  0  0  0  0  0  0
  161.3940  212.1100  140.9510 P   0  0  1  0  0  0  0  0  0  0  0  0
  162.7230  212.5030  143.2040 O   0  0  0  0  0  1  0  0  0  0  0  0
  162.6640  212.5720  140.2710 O   0  0  0  0  0  0  0  0  0  0  0  0
  160.8550  213.9550  142.8760 C   0  0  0  0  0  2  0  0  0  0  0  0
  158.9220  213.1340  141.3410 C   0  0  0  0  0  2  0  0  0  0  0  0
  159.9750  212.9980  140.2560 C   0  0  0  0  0  2  0  0  0  0  0  0
  161.2140  203.8510  144.7860 C   0  0  0  0  0  2  0  0  0  0  0  0
  159.8900  203.4530  144.5890 O   0  0  0  0  0  0  0  0  0  0  0  0
  159.9180  202.0600  144.6930 C   0  0  0  0  0  2  0  0  0  0  0  0
  160.0560  201.6480  146.1540 C   0  0  0  0  0  2  0  0  0  0  0  0
  161.0190  200.4750  146.3120 C   0  0  0  0  0  2  0  0  0  0  0  0
  160.5850  200.9280  148.6000 O   0  0  0  0  0  1  0  0  0  0  0  0
  161.5430  200.4090  147.7330 C   0  0  0  0  0  2  0  0  0  0  0  0
  162.1830  205.9730  145.3340 O   0  0  0  0  0  0  0  0  0  0  0  0
  161.7180  204.0250  148.4570 C   0  0  0  0  0  3  0  0  0  0  0  0
  160.8480  204.5750  150.5610 O   0  0  0  0  0  1  0  0  0  0  0  0
  161.9420  206.7410  147.5830 C   0  0  0  0  0  2  0  0  0  0  0  0
  161.3190  206.4470  148.9600 C   0  0  2  0  0  0  0  0  0  0  0  0
  162.2660  204.3510  147.1020 C   0  0  0  0  0  2  0  0  0  0  0  0
  161.6370  205.6380  146.5780 C   0  0  2  0  0  3  0  0  0  0  0  0
  161.3230  204.9710  149.3150 C   0  0  0  0  0  0  0  0  0  0  0  0
  159.9960  206.8960  148.9570 O   0  0  0  0  0  1  0  0  0  0  0  0
  162.1080  207.1930  150.0360 C   0  0  0  0  0  2  0  0  0  0  0  0
  161.3570  209.5660  150.6900 C   0  0  2  0  0  3  0  0  0  0  0  0
  161.2320  208.0590  150.9450 C   0  0  2  0  0  3  0  0  0  0  0  0
  162.3620  209.9700  149.6170 C   0  0  0  0  0  1  0  0  0  0  0  0
  162.0960  208.9170  151.8460 C   0  0  2  0  0  3  0  0  0  0  0  0
  161.0540  206.9600  153.6270 O   0  0  0  0  0  0  0  0  0  0  0  0
  160.9790  208.1700  153.9760 C   0  0  0  0  0  0  0  0  0  0  0  0
  161.3780  209.2060  153.0760 N   0  0  0  0  0  2  0  0  0  0  0  0
  160.5030  208.4950  155.2860 N   0  0  0  0  0  2  0  0  0  0  0  0
  160.4390  209.8580  155.7840 C   0  0  0  0  0  2  0  0  0  0  0  0
  157.3020  211.8170  156.8710 C   0  0  0  0  0  2  0  0  0  0  0  0
  158.7400  211.3170  156.9190 C   0  0  0  0  0  2  0  0  0  0  0  0
  157.3240  211.6180  154.3710 C   0  0  0  0  0  2  0  0  0  0  0  0
  158.7630  211.1100  154.4340 C   0  0  0  0  0  2  0  0  0  0  0  0
  159.0080  210.3750  155.7480 C   0  0  0  0  0  3  0  0  0  0  0  0
  157.0410  212.5450  155.5530 C   0  0  0  0  0  2  0  0  0  0  0  0
  1  2  1  6  0  0  0
  1 22  1  0  0  0  0
  1 29  1  0  0  0  0
  3  2  1  0  0  0  0
  4  5  2  0  0  0  0
  5  3  1  0  0  0  0
  6  5  1  0  0  0  0
  7 13  1  1  0  0  0
  8  7  1  0  0  0  0
  9 12  1  0  0  0  0
  9 11  1  0  0  0  0
 10  7  1  0  0  0  0
 10  6  1  1  0  0  0
 11 10  1  0  0  0  0
 12  8  1  0  0  0  0
 13 16  1  0  0  0  0
 14 19  1  0  0  0  0
 14 17  1  6  0  0  0
 15 19  1  0  0  0  0
 16 18  2  6  0  0  0
 16 14  1  0  0  0  0
 20 15  1  0  0  0  0
 21 16  1  0  0  0  0
 21 20  1  0  0  0  0
 23 24  1  0  0  0  0
 23 22  1  0  0  0  0
 24 25  1  0  0  0  0
 25 26  1  0  0  0  0
 26 28  1  0  0  0  0
 28 27  1  0  0  0  0
 30 36  2  0  0  0  0
 32 33  1  0  0  0  0
 33 37  1  1  0  0  0
 33 36  1  0  0  0  0
 33 38  1  0  0  0  0
 34 30  1  0  0  0  0
 35 29  1  6  0  0  0
 35 34  1  0  0  0  0
 35 32  1  0  0  0  0
 36 31  1  0  0  0  0
 39 41  1  6  0  0  0
 39 40  1  0  0  0  0
 39 42  1  0  0  0  0
 40 38  1  6  0  0  0
 40 42  1  0  0  0  0
 42 45  1  1  0  0  0
 43 44  2  0  0  0  0
 44 46  1  0  0  0  0
 45 44  1  0  0  0  0
 46 47  1  0  0  0  0
 48 49  1  0  0  0  0
 50 51  1  0  0  0  0
 50 53  1  0  0  0  0
 51 52  1  0  0  0  0
 52 47  1  0  0  0  0
 52 49  1  0  0  0  0
 53 48  1  0  0  0  0
M  END
>  <MODEL>
3

>  <REMARK>
 VINA RESULT:      -5.1      2.475      7.303
  Name = 
  20 active torsions:
  status: ('A' for Active; 'I' for Inactive)
    1  A    between atoms: C_1  and  C_49
    2  A    between atoms: C_1  and  C_51
    3  A    between atoms: O_2  and  C_27
    4  A    between atoms: O_2  and  C_50
    5  A    between atoms: C_5  and  P_12
    6  A    between atoms: C_5  and  C_28
    7  A    between atoms: O_8  and  C_29
    8  A    between atoms: O_8  and  C_35
    9  A    between atoms: C_14  and  N_39
   10  A    between atoms: C_14  and  C_44
   11  A    between atoms: N_21  and  C_41
   12  A    between atoms: C_23  and  C_48
   13  A    between atoms: O_24  and  C_30
   14  A    between atoms: O_24  and  C_45
   15  A    between atoms: C_27  and  C_43
   16  A    between atoms: C_30  and  C_35
   17  A    between atoms: C_34  and  C_35
   18  A    between atoms: C_34  and  C_43
   19  A    between atoms: C_38  and  C_48
   20  A    between atoms: C_45  and  C_51
                            x       y       z     vdW  Elec       q    Type
                         _______ _______ _______ _____ _____    ______ ____

>  <TORSDO>
F 20

$$$$
=
 OpenBabel11072411403D

 53 57  0  0  1  0  0  0  0  0999 V2000
  161.6280  205.6920  144.6840 C   0  0  1  0  0  3  0  0  0  0  0  0
  162.3640  206.1600  143.4270 C   0  0  0  0  0  2  0  0  0  0  0  0
  161.5220  205.9530  142.1610 C   0  0  0  0  0  2  0  0  0  0  0  0
  163.1490  206.3710  140.4530 O   0  0  0  0  0  0  0  0  0  0  0  0
  162.0760  206.7370  141.0030 C   0  0  0  0  0  0  0  0  0  0  0  0
  161.4660  207.9230  140.5730 O   0  0  0  0  0  0  0  0  0  0  0  0
  161.5550  210.1760  139.6160 C   0  0  2  0  0  3  0  0  0  0  0  0
  160.0380  210.3080  139.4410 C   0  0  0  0  0  2  0  0  0  0  0  0
  160.0150  208.2650  137.9950 C   0  0  0  0  0  2  0  0  0  0  0  0
  161.9900  208.7070  139.5020 C   0  0  2  0  0  3  0  0  0  0  0  0
  161.5310  208.1230  138.1630 C   0  0  0  0  0  2  0  0  0  0  0  0
  159.6110  209.7340  138.0930 C   0  0  0  0  0  2  0  0  0  0  0  0
  161.9880  210.7750  140.9470 C   0  0  0  0  0  2  0  0  0  0  0  0
  162.4120  213.4040  142.2520 C   0  0  1  0  0  3  0  0  0  0  0  0
  160.5300  213.8350  143.9300 C   0  0  0  0  0  2  0  0  0  0  0  0
  161.3200  212.4560  141.1500 P   0  0  1  0  0  0  0  0  0  0  0  0
  163.4120  214.0340  141.5090 O   0  0  0  0  0  1  0  0  0  0  0  0
  161.1990  213.1360  139.8050 O   0  0  0  0  0  0  0  0  0  0  0  0
  161.5780  214.4500  142.9820 C   0  0  0  0  0  2  0  0  0  0  0  0
  159.9350  212.4950  143.4720 C   0  0  0  0  0  2  0  0  0  0  0  0
  159.7050  212.4440  141.9720 C   0  0  0  0  0  2  0  0  0  0  0  0
  161.1540  204.2440  144.5440 C   0  0  0  0  0  2  0  0  0  0  0  0
  159.7590  204.2020  144.4780 O   0  0  0  0  0  0  0  0  0  0  0  0
  159.4570  202.8650  144.2080 C   0  0  0  0  0  2  0  0  0  0  0  0
  159.9290  201.9800  145.3560 C   0  0  0  0  0  2  0  0  0  0  0  0
  160.2930  200.5810  144.8650 C   0  0  0  0  0  2  0  0  0  0  0  0
  161.2880  198.5230  145.5010 O   0  0  0  0  0  1  0  0  0  0  0  0
  161.0180  199.8120  145.9520 C   0  0  0  0  0  2  0  0  0  0  0  0
  162.4430  205.8110  145.8180 O   0  0  0  0  0  0  0  0  0  0  0  0
  161.3750  203.2900  148.3220 C   0  0  0  0  0  3  0  0  0  0  0  0
  160.2550  203.4590  150.3730 O   0  0  0  0  0  1  0  0  0  0  0  0
  161.9400  206.0900  148.1370 C   0  0  0  0  0  2  0  0  0  0  0  0
  161.1030  205.5720  149.3200 C   0  0  2  0  0  0  0  0  0  0  0  0
  162.1380  203.8420  147.1570 C   0  0  0  0  0  2  0  0  0  0  0  0
  161.6970  205.2740  146.8730 C   0  0  2  0  0  3  0  0  0  0  0  0
  160.9360  204.0630  149.3210 C   0  0  0  0  0  0  0  0  0  0  0  0
  159.8340  206.1550  149.2590 O   0  0  0  0  0  1  0  0  0  0  0  0
  161.7840  205.9720  150.6290 C   0  0  0  0  0  2  0  0  0  0  0  0
  162.3090  208.1540  151.8880 C   0  0  2  0  0  3  0  0  0  0  0  0
  162.4290  207.3600  150.5820 C   0  0  2  0  0  3  0  0  0  0  0  0
  161.5290  207.4680  153.0060 C   0  0  0  0  0  1  0  0  0  0  0  0
  161.3720  208.4350  150.7280 C   0  0  2  0  0  3  0  0  0  0  0  0
  161.4660  208.8000  147.9100 O   0  0  0  0  0  0  0  0  0  0  0  0
  161.7330  209.7940  148.6390 C   0  0  0  0  0  0  0  0  0  0  0  0
  161.8160  209.6460  150.0580 N   0  0  0  0  0  2  0  0  0  0  0  0
  161.9370  211.0750  148.0330 N   0  0  0  0  0  2  0  0  0  0  0  0
  162.1920  212.2790  148.8050 C   0  0  0  0  0  2  0  0  0  0  0  0
  158.9820  213.8570  147.3660 C   0  0  0  0  0  2  0  0  0  0  0  0
  160.1230  212.8570  147.5060 C   0  0  0  0  0  2  0  0  0  0  0  0
  159.0940  214.3150  149.8300 C   0  0  0  0  0  2  0  0  0  0  0  0
  160.2420  213.3150  149.9540 C   0  0  0  0  0  2  0  0  0  0  0  0
  161.0410  213.2630  148.6560 C   0  0  0  0  0  3  0  0  0  0  0  0
  158.1820  213.9270  148.6650 C   0  0  0  0  0  2  0  0  0  0  0  0
  1  2  1  6  0  0  0
  1 29  1  0  0  0  0
  3  2  1  0  0  0  0
  4  5  2  0  0  0  0
  5  3  1  0  0  0  0
  6  5  1  0  0  0  0
  7 13  1  1  0  0  0
  8  7  1  0  0  0  0
  9 12  1  0  0  0  0
  9 11  1  0  0  0  0
 10  7  1  0  0  0  0
 10  6  1  1  0  0  0
 11 10  1  0  0  0  0
 12  8  1  0  0  0  0
 13 16  1  0  0  0  0
 14 17  1  6  0  0  0
 14 19  1  0  0  0  0
 16 18  2  6  0  0  0
 16 21  1  0  0  0  0
 16 14  1  0  0  0  0
 19 15  1  0  0  0  0
 20 15  1  0  0  0  0
 21 20  1  0  0  0  0
 22  1  1  0  0  0  0
 23 22  1  0  0  0  0
 24 23  1  0  0  0  0
 24 25  1  0  0  0  0
 26 25  1  0  0  0  0
 26 28  1  0  0  0  0
 27 28  1  0  0  0  0
 30 36  2  0  0  0  0
 32 33  1  0  0  0  0
 33 37  1  6  0  0  0
 33 36  1  0  0  0  0
 33 38  1  0  0  0  0
 34 30  1  0  0  0  0
 35 29  1  6  0  0  0
 35 34  1  0  0  0  0
 35 32  1  0  0  0  0
 36 31  1  0  0  0  0
 39 41  1  1  0  0  0
 40 38  1  1  0  0  0
 40 42  1  0  0  0  0
 40 39  1  0  0  0  0
 42 45  1  6  0  0  0
 42 39  1  0  0  0  0
 43 44  2  0  0  0  0
 44 45  1  0  0  0  0
 46 44  1  0  0  0  0
 46 47  1  0  0  0  0
 48 49  1  0  0  0  0
 48 53  1  0  0  0  0
 49 52  1  0  0  0  0
 50 51  1  0  0  0  0
 52 47  1  0  0  0  0
 52 51  1  0  0  0  0
 53 50  1  0  0  0  0
M  END
>  <MODEL>
4

>  <REMARK>
 VINA RESULT:      -4.8      2.747      7.314
  Name = 
  20 active torsions:
  status: ('A' for Active; 'I' for Inactive)
    1  A    between atoms: C_1  and  C_49
    2  A    between atoms: C_1  and  C_51
    3  A    between atoms: O_2  and  C_27
    4  A    between atoms: O_2  and  C_50
    5  A    between atoms: C_5  and  P_12
    6  A    between atoms: C_5  and  C_28
    7  A    between atoms: O_8  and  C_29
    8  A    between atoms: O_8  and  C_35
    9  A    between atoms: C_14  and  N_39
   10  A    between atoms: C_14  and  C_44
   11  A    between atoms: N_21  and  C_41
   12  A    between atoms: C_23  and  C_48
   13  A    between atoms: O_24  and  C_30
   14  A    between atoms: O_24  and  C_45
   15  A    between atoms: C_27  and  C_43
   16  A    between atoms: C_30  and  C_35
   17  A    between atoms: C_34  and  C_35
   18  A    between atoms: C_34  and  C_43
   19  A    between atoms: C_38  and  C_48
   20  A    between atoms: C_45  and  C_51
                            x       y       z     vdW  Elec       q    Type
                         _______ _______ _______ _____ _____    ______ ____

>  <TORSDO>
F 20

$$$$
=
 OpenBabel11072411403D

 53 57  0  0  1  0  0  0  0  0999 V2000
  161.6820  211.3540  149.7100 C   0  0  1  0  0  3  0  0  0  0  0  0
  161.4570  211.0520  148.2270 C   0  0  0  0  0  2  0  0  0  0  0  0
  161.2770  212.3330  147.4030 C   0  0  0  0  0  2  0  0  0  0  0  0
  159.0080  211.9850  146.7170 O   0  0  0  0  0  0  0  0  0  0  0  0
  160.2030  212.1670  146.3630 C   0  0  0  0  0  0  0  0  0  0  0  0
  160.5180  212.1250  144.9980 O   0  0  0  0  0  0  0  0  0  0  0  0
  161.0510  212.9880  142.7690 C   0  0  2  0  0  3  0  0  0  0  0  0
  162.5290  212.5860  142.8190 C   0  0  0  0  0  2  0  0  0  0  0  0
  162.8500  213.9740  144.8770 C   0  0  0  0  0  2  0  0  0  0  0  0
  160.5220  213.2930  144.1780 C   0  0  2  0  0  3  0  0  0  0  0  0
  161.3740  214.3830  144.8380 C   0  0  0  0  0  2  0  0  0  0  0  0
  163.3560  213.6960  143.4640 C   0  0  0  0  0  2  0  0  0  0  0  0
  160.2290  211.8970  142.0980 C   0  0  0  0  0  2  0  0  0  0  0  0
  162.3900  211.0360  140.2590 C   0  0  1  0  0  3  0  0  0  0  0  0
  163.2420  213.0560  138.9410 C   0  0  0  0  0  2  0  0  0  0  0  0
  160.7030  211.7060  140.3510 P   0  0  1  0  0  0  0  0  0  0  0  0
  162.3520  209.6400  140.2630 O   0  0  0  0  0  1  0  0  0  0  0  0
  159.7270  210.7950  139.6420 O   0  0  0  0  0  0  0  0  0  0  0  0
  163.0410  211.5280  138.9720 C   0  0  0  0  0  2  0  0  0  0  0  0
  162.1710  213.8750  139.6760 C   0  0  0  0  0  2  0  0  0  0  0  0
  160.7760  213.3020  139.4960 C   0  0  0  0  0  2  0  0  0  0  0  0
  161.3940  212.8230  150.0270 C   0  0  0  0  0  2  0  0  0  0  0  0
  160.6140  213.3860  149.0140 O   0  0  0  0  0  0  0  0  0  0  0  0
  159.9220  214.4280  149.6360 C   0  0  0  0  0  2  0  0  0  0  0  0
  158.4750  214.4530  149.1570 C   0  0  0  0  0  2  0  0  0  0  0  0
  157.6250  213.4290  149.9030 C   0  0  0  0  0  2  0  0  0  0  0  0
  156.8020  214.3790  151.9160 O   0  0  0  0  0  1  0  0  0  0  0  0
  156.4600  214.1110  150.5930 C   0  0  0  0  0  2  0  0  0  0  0  0
  160.8810  210.5340  150.5170 O   0  0  0  0  0  0  0  0  0  0  0  0
  159.8590  212.2860  153.6230 C   0  0  0  0  0  3  0  0  0  0  0  0
  160.6170  212.1730  155.8370 O   0  0  0  0  0  1  0  0  0  0  0  0
  161.2060  209.9000  152.7980 C   0  0  0  0  0  2  0  0  0  0  0  0
  161.4040  210.4100  154.2360 C   0  0  2  0  0  0  0  0  0  0  0  0
  159.7390  211.7860  152.2170 C   0  0  0  0  0  2  0  0  0  0  0  0
  161.0090  211.0460  151.8130 C   0  0  2  0  0  3  0  0  0  0  0  0
  160.5810  211.6470  154.5500 C   0  0  0  0  0  0  0  0  0  0  0  0
  162.7540  210.7210  154.4190 O   0  0  0  0  0  1  0  0  0  0  0  0
  160.9970  209.3110  155.2180 C   0  0  0  0  0  2  0  0  0  0  0  0
  160.0930  206.9180  155.4920 C   0  0  2  0  0  3  0  0  0  0  0  0
  160.3820  208.0840  154.5400 C   0  0  2  0  0  3  0  0  0  0  0  0
  160.5050  207.1370  156.9440 C   0  0  0  0  0  1  0  0  0  0  0  0
  161.3330  206.9090  154.6190 C   0  0  2  0  0  3  0  0  0  0  0  0
  162.4440  207.2380  152.0220 O   0  0  0  0  0  0  0  0  0  0  0  0
  161.7810  206.1890  152.2470 C   0  0  0  0  0  0  0  0  0  0  0  0
  161.1020  206.0190  153.4930 N   0  0  0  0  0  2  0  0  0  0  0  0
  161.7260  205.1640  151.2490 N   0  0  0  0  0  2  0  0  0  0  0  0
  161.0320  203.9050  151.4520 C   0  0  0  0  0  2  0  0  0  0  0  0
  161.1510  203.1760  147.6680 C   0  0  0  0  0  2  0  0  0  0  0  0
  161.5510  203.8030  148.9980 C   0  0  0  0  0  2  0  0  0  0  0  0
  160.3780  201.1210  148.8790 C   0  0  0  0  0  2  0  0  0  0  0  0
  160.7760  201.7640  150.2060 C   0  0  0  0  0  2  0  0  0  0  0  0
  160.6520  203.2810  150.1160 C   0  0  0  0  0  3  0  0  0  0  0  0
  161.2590  201.6540  147.7500 C   0  0  0  0  0  2  0  0  0  0  0  0
  1  2  1  6  0  0  0
  1 22  1  0  0  0  0
  1 29  1  0  0  0  0
  3  2  1  0  0  0  0
  5  4  2  0  0  0  0
  5  3  1  0  0  0  0
  6  5  1  0  0  0  0
  7 13  1  1  0  0  0
  7  8  1  0  0  0  0
  7 10  1  0  0  0  0
  8 12  1  0  0  0  0
 10 11  1  0  0  0  0
 10  6  1  1  0  0  0
 11  9  1  0  0  0  0
 12  9  1  0  0  0  0
 14 17  1  6  0  0  0
 14 16  1  0  0  0  0
 15 19  1  0  0  0  0
 15 20  1  0  0  0  0
 16 18  2  6  0  0  0
 16 13  1  0  0  0  0
 19 14  1  0  0  0  0
 21 20  1  0  0  0  0
 21 16  1  0  0  0  0
 23 24  1  0  0  0  0
 23 22  1  0  0  0  0
 25 24  1  0  0  0  0
 25 26  1  0  0  0  0
 26 28  1  0  0  0  0
 28 27  1  0  0  0  0
 30 36  2  0  0  0  0
 32 33  1  0  0  0  0
 33 37  1  1  0  0  0
 33 36  1  0  0  0  0
 33 38  1  0  0  0  0
 34 30  1  0  0  0  0
 35 29  1  6  0  0  0
 35 34  1  0  0  0  0
 35 32  1  0  0  0  0
 36 31  1  0  0  0  0
 39 41  1  1  0  0  0
 40 42  1  0  0  0  0
 40 38  1  1  0  0  0
 40 39  1  0  0  0  0
 42 45  1  6  0  0  0
 42 39  1  0  0  0  0
 43 44  2  0  0  0  0
 44 45  1  0  0  0  0
 46 47  1  0  0  0  0
 46 44  1  0  0  0  0
 48 53  1  0  0  0  0
 48 49  1  0  0  0  0
 49 52  1  0  0  0  0
 50 51  1  0  0  0  0
 52 51  1  0  0  0  0
 52 47  1  0  0  0  0
 53 50  1  0  0  0  0
M  END
>  <MODEL>
5

>  <REMARK>
 VINA RESULT:      -4.8      1.796      3.650
  Name = 
  20 active torsions:
  status: ('A' for Active; 'I' for Inactive)
    1  A    between atoms: C_1  and  C_49
    2  A    between atoms: C_1  and  C_51
    3  A    between atoms: O_2  and  C_27
    4  A    between atoms: O_2  and  C_50
    5  A    between atoms: C_5  and  P_12
    6  A    between atoms: C_5  and  C_28
    7  A    between atoms: O_8  and  C_29
    8  A    between atoms: O_8  and  C_35
    9  A    between atoms: C_14  and  N_39
   10  A    between atoms: C_14  and  C_44
   11  A    between atoms: N_21  and  C_41
   12  A    between atoms: C_23  and  C_48
   13  A    between atoms: O_24  and  C_30
   14  A    between atoms: O_24  and  C_45
   15  A    between atoms: C_27  and  C_43
   16  A    between atoms: C_30  and  C_35
   17  A    between atoms: C_34  and  C_35
   18  A    between atoms: C_34  and  C_43
   19  A    between atoms: C_38  and  C_48
   20  A    between atoms: C_45  and  C_51
                            x       y       z     vdW  Elec       q    Type
                         _______ _______ _______ _____ _____    ______ ____

>  <TORSDO>
F 20

$$$$
=
 OpenBabel11072411403D

 53 57  0  0  1  0  0  0  0  0999 V2000
  161.8420  207.0750  150.4950 C   0  0  1  0  0  3  0  0  0  0  0  0
  161.2680  207.5820  151.8200 C   0  0  0  0  0  2  0  0  0  0  0  0
  161.3430  206.5170  152.9210 C   0  0  0  0  0  2  0  0  0  0  0  0
  160.2910  206.2150  155.0530 O   0  0  0  0  0  0  0  0  0  0  0  0
  160.7660  207.0260  154.2130 C   0  0  0  0  0  0  0  0  0  0  0  0
  160.6680  208.4000  154.4700 O   0  0  0  0  0  0  0  0  0  0  0  0
  159.9740  210.4440  155.6280 C   0  0  2  0  0  3  0  0  0  0  0  0
  161.3580  211.1000  155.5840 C   0  0  0  0  0  2  0  0  0  0  0  0
  162.3340  209.1560  156.8210 C   0  0  0  0  0  2  0  0  0  0  0  0
  160.0980  208.9140  155.6740 C   0  0  2  0  0  3  0  0  0  0  0  0
  160.9550  208.4890  156.8710 C   0  0  0  0  0  2  0  0  0  0  0  0
  162.1830  210.6740  156.7950 C   0  0  0  0  0  2  0  0  0  0  0  0
  159.1390  210.8910  154.4370 C   0  0  0  0  0  2  0  0  0  0  0  0
  156.4370  212.1120  154.5020 C   0  0  1  0  0  3  0  0  0  0  0  0
  156.3240  214.0230  152.8060 C   0  0  0  0  0  2  0  0  0  0  0  0
  158.2010  212.4010  154.8310 P   0  0  1  0  0  0  0  0  0  0  0  0
  155.8160  211.5890  155.6390 O   0  0  0  0  0  1  0  0  0  0  0  0
  158.4180  212.7880  156.2770 O   0  0  0  0  0  0  0  0  0  0  0  0
  155.7870  213.4380  154.1270 C   0  0  0  0  0  2  0  0  0  0  0  0
  157.8020  213.7280  152.5090 C   0  0  0  0  0  2  0  0  0  0  0  0
  158.6670  213.7830  153.7560 C   0  0  0  0  0  2  0  0  0  0  0  0
  160.7270  206.7070  149.5120 C   0  0  0  0  0  2  0  0  0  0  0  0
  160.9800  205.4530  148.9510 O   0  0  0  0  0  0  0  0  0  0  0  0
  160.6150  204.5400  149.9430 C   0  0  0  0  0  2  0  0  0  0  0  0
  160.8290  203.1150  149.4470 C   0  0  0  0  0  2  0  0  0  0  0  0
  161.1900  203.0910  147.9650 C   0  0  0  0  0  2  0  0  0  0  0  0
  160.8300  201.8090  146.0010 O   0  0  0  0  0  1  0  0  0  0  0  0
  160.9500  201.7110  147.3850 C   0  0  0  0  0  2  0  0  0  0  0  0
  162.6840  208.0310  149.9120 O   0  0  0  0  0  0  0  0  0  0  0  0
  161.1950  211.1950  151.1500 C   0  0  0  0  0  3  0  0  0  0  0  0
  160.4110  213.1180  150.0640 O   0  0  0  0  0  1  0  0  0  0  0  0
  162.5480  210.1660  148.8480 C   0  0  0  0  0  2  0  0  0  0  0  0
  161.7300  211.4630  148.7170 C   0  0  2  0  0  0  0  0  0  0  0  0
  161.9540  209.9070  151.2210 C   0  0  0  0  0  2  0  0  0  0  0  0
  161.9340  209.2110  149.8640 C   0  0  2  0  0  3  0  0  0  0  0  0
  161.1210  211.9220  150.0300 C   0  0  0  0  0  0  0  0  0  0  0  0
  160.6960  211.2490  147.8020 O   0  0  0  0  0  1  0  0  0  0  0  0
  162.6410  212.5790  148.2040 C   0  0  0  0  0  2  0  0  0  0  0  0
  161.2900  213.9810  146.5210 C   0  0  2  0  0  3  0  0  0  0  0  0
  162.3960  212.9410  146.7370 C   0  0  2  0  0  3  0  0  0  0  0  0
  160.5760  214.4530  147.7830 C   0  0  0  0  0  1  0  0  0  0  0  0
  161.0090  212.5050  146.3130 C   0  0  2  0  0  3  0  0  0  0  0  0
  159.0980  213.5150  144.4650 O   0  0  0  0  0  0  0  0  0  0  0  0
  160.0720  212.8620  144.0020 C   0  0  0  0  0  0  0  0  0  0  0  0
  161.0020  212.2310  144.8850 N   0  0  0  0  0  2  0  0  0  0  0  0
  160.2460  212.7700  142.5840 N   0  0  0  0  0  2  0  0  0  0  0  0
  161.3720  212.0850  141.9720 C   0  0  0  0  0  2  0  0  0  0  0  0
  159.2470  210.3580  139.2580 C   0  0  0  0  0  2  0  0  0  0  0  0
  159.7270  211.4750  140.1770 C   0  0  0  0  0  2  0  0  0  0  0  0
  161.5690  209.4080  139.2170 C   0  0  0  0  0  2  0  0  0  0  0  0
  162.0330  210.5290  140.1450 C   0  0  0  0  0  2  0  0  0  0  0  0
  160.8860  210.9840  141.0410 C   0  0  0  0  0  3  0  0  0  0  0  0
  160.3930  209.8850  138.3640 C   0  0  0  0  0  2  0  0  0  0  0  0
  1 22  1  6  0  0  0
  1  2  1  0  0  0  0
  2  3  1  0  0  0  0
  3  5  1  0  0  0  0
  5  6  1  0  0  0  0
  5  4  2  0  0  0  0
  7 13  1  6  0  0  0
  7 10  1  0  0  0  0
  8  7  1  0  0  0  0
  8 12  1  0  0  0  0
  9 11  1  0  0  0  0
 10  6  1  6  0  0  0
 10 11  1  0  0  0  0
 12  9  1  0  0  0  0
 13 16  1  0  0  0  0
 14 16  1  0  0  0  0
 14 17  1  1  0  0  0
 15 19  1  0  0  0  0
 16 18  2  1  0  0  0
 19 14  1  0  0  0  0
 20 15  1  0  0  0  0
 20 21  1  0  0  0  0
 21 16  1  0  0  0  0
 23 22  1  0  0  0  0
 23 24  1  0  0  0  0
 25 24  1  0  0  0  0
 26 25  1  0  0  0  0
 27 28  1  0  0  0  0
 28 26  1  0  0  0  0
 29  1  1  0  0  0  0
 30 34  1  0  0  0  0
 32 35  1  0  0  0  0
 33 37  1  6  0  0  0
 33 32  1  0  0  0  0
 33 36  1  0  0  0  0
 35 29  1  1  0  0  0
 35 34  1  0  0  0  0
 36 31  1  0  0  0  0
 36 30  2  0  0  0  0
 38 33  1  0  0  0  0
 39 40  1  0  0  0  0
 39 41  1  1  0  0  0
 40 38  1  1  0  0  0
 42 45  1  6  0  0  0
 42 39  1  0  0  0  0
 42 40  1  0  0  0  0
 44 43  2  0  0  0  0
 44 45  1  0  0  0  0
 46 44  1  0  0  0  0
 47 46  1  0  0  0  0
 48 49  1  0  0  0  0
 49 52  1  0  0  0  0
 50 51  1  0  0  0  0
 51 52  1  0  0  0  0
 52 47  1  0  0  0  0
 53 50  1  0  0  0  0
 53 48  1  0  0  0  0
M  END
>  <MODEL>
6

>  <REMARK>
 VINA RESULT:      -4.3      3.570     10.361
  Name = 
  20 active torsions:
  status: ('A' for Active; 'I' for Inactive)
    1  A    between atoms: C_1  and  C_49
    2  A    between atoms: C_1  and  C_51
    3  A    between atoms: O_2  and  C_27
    4  A    between atoms: O_2  and  C_50
    5  A    between atoms: C_5  and  P_12
    6  A    between atoms: C_5  and  C_28
    7  A    between atoms: O_8  and  C_29
    8  A    between atoms: O_8  and  C_35
    9  A    between atoms: C_14  and  N_39
   10  A    between atoms: C_14  and  C_44
   11  A    between atoms: N_21  and  C_41
   12  A    between atoms: C_23  and  C_48
   13  A    between atoms: O_24  and  C_30
   14  A    between atoms: O_24  and  C_45
   15  A    between atoms: C_27  and  C_43
   16  A    between atoms: C_30  and  C_35
   17  A    between atoms: C_34  and  C_35
   18  A    between atoms: C_34  and  C_43
   19  A    between atoms: C_38  and  C_48
   20  A    between atoms: C_45  and  C_51
                            x       y       z     vdW  Elec       q    Type
                         _______ _______ _______ _____ _____    ______ ____

>  <TORSDO>
F 20

$$$$
=
 OpenBabel11072411403D

 53 57  0  0  1  0  0  0  0  0999 V2000
  161.6960  208.7870  149.3030 C   0  0  1  0  0  3  0  0  0  0  0  0
  162.1450  208.2600  150.6670 C   0  0  0  0  0  2  0  0  0  0  0  0
  161.2290  208.7450  151.7980 C   0  0  0  0  0  2  0  0  0  0  0  0
  162.9210  210.3050  152.4650 O   0  0  0  0  0  0  0  0  0  0  0  0
  161.9990  209.5260  152.8280 C   0  0  0  0  0  0  0  0  0  0  0  0
  161.7690  209.3410  154.1980 O   0  0  0  0  0  0  0  0  0  0  0  0
  160.3870  209.9480  156.1270 C   0  0  2  0  0  3  0  0  0  0  0  0
  161.2410  209.1880  157.1480 C   0  0  0  0  0  2  0  0  0  0  0  0
  160.8750  207.0570  155.8880 C   0  0  0  0  0  2  0  0  0  0  0  0
  160.4550  209.2710  154.7490 C   0  0  2  0  0  3  0  0  0  0  0  0
  160.0200  207.8050  154.8600 C   0  0  0  0  0  2  0  0  0  0  0  0
  160.7750  207.7380  157.2500 C   0  0  0  0  0  2  0  0  0  0  0  0
  160.8300  211.4020  156.0450 C   0  0  0  0  0  2  0  0  0  0  0  0
  157.8730  211.6090  155.9430 C   0  0  1  0  0  3  0  0  0  0  0  0
  157.1170  211.8010  153.5070 C   0  0  0  0  0  2  0  0  0  0  0  0
  159.4310  212.4840  155.6120 P   0  0  1  0  0  0  0  0  0  0  0  0
  157.4670  211.8350  157.2600 O   0  0  0  0  0  1  0  0  0  0  0  0
  159.5010  213.7700  156.4050 O   0  0  0  0  0  0  0  0  0  0  0  0
  156.8090  212.1270  154.9820 C   0  0  0  0  0  2  0  0  0  0  0  0
  158.6070  211.7770  153.1350 C   0  0  0  0  0  2  0  0  0  0  0  0
  159.3990  212.8640  153.8400 C   0  0  0  0  0  2  0  0  0  0  0  0
  161.5820  210.3130  149.3080 C   0  0  0  0  0  2  0  0  0  0  0  0
  162.3320  210.8520  148.2600 O   0  0  0  0  0  0  0  0  0  0  0  0
  162.0750  212.2240  148.3080 C   0  0  0  0  0  2  0  0  0  0  0  0
  161.0760  212.5320  149.4170 C   0  0  0  0  0  2  0  0  0  0  0  0
  160.4330  213.9020  149.2220 C   0  0  0  0  0  2  0  0  0  0  0  0
  158.1840  213.3190  148.7390 O   0  0  0  0  0  1  0  0  0  0  0  0
  159.3460  213.8290  148.1670 C   0  0  0  0  0  2  0  0  0  0  0  0
  162.5810  208.3870  148.2920 O   0  0  0  0  0  0  0  0  0  0  0  0
  160.8330  205.1150  148.3270 C   0  0  0  0  0  3  0  0  0  0  0  0
  161.3330  203.0330  147.3770 O   0  0  0  0  0  1  0  0  0  0  0  0
  162.7730  206.5440  146.7840 C   0  0  0  0  0  2  0  0  0  0  0  0
  162.6810  205.0150  146.6380 C   0  0  2  0  0  0  0  0  0  0  0  0
  160.9940  206.5960  148.4810 C   0  0  0  0  0  2  0  0  0  0  0  0
  162.4370  206.9980  148.1990 C   0  0  2  0  0  3  0  0  0  0  0  0
  161.5680  204.4010  147.4680 C   0  0  0  0  0  0  0  0  0  0  0  0
  163.8940  204.4530  147.0420 O   0  0  0  0  0  1  0  0  0  0  0  0
  162.4220  204.6660  145.1720 C   0  0  0  0  0  2  0  0  0  0  0  0
  160.3670  205.4650  143.8450 C   0  0  2  0  0  3  0  0  0  0  0  0
  161.7630  205.8000  144.3820 C   0  0  2  0  0  3  0  0  0  0  0  0
  159.8740  204.0510  144.1340 C   0  0  0  0  0  1  0  0  0  0  0  0
  161.5780  205.3940  142.9350 C   0  0  2  0  0  3  0  0  0  0  0  0
  162.9490  205.6130  140.4530 O   0  0  0  0  0  0  0  0  0  0  0  0
  162.2160  206.5780  140.8050 C   0  0  0  0  0  0  0  0  0  0  0  0
  161.5940  206.5780  142.0920 N   0  0  0  0  0  2  0  0  0  0  0  0
  162.0030  207.6660  139.9000 N   0  0  0  0  0  2  0  0  0  0  0  0
  161.1300  208.7850  140.2060 C   0  0  0  0  0  2  0  0  0  0  0  0
  161.8450  212.0260  138.2450 C   0  0  0  0  0  2  0  0  0  0  0  0
  161.1570  210.7140  138.6000 C   0  0  0  0  0  2  0  0  0  0  0  0
  162.3710  212.3960  140.6700 C   0  0  0  0  0  2  0  0  0  0  0  0
  161.6840  211.0750  141.0110 C   0  0  0  0  0  2  0  0  0  0  0  0
  161.8000  210.1020  139.8420 C   0  0  0  0  0  3  0  0  0  0  0  0
  161.7460  213.0050  139.4140 C   0  0  0  0  0  2  0  0  0  0  0  0
  1 22  1  1  0  0  0
  1  2  1  0  0  0  0
  2  3  1  0  0  0  0
  3  5  1  0  0  0  0
  4  5  2  0  0  0  0
  5  6  1  0  0  0  0
  7 13  1  6  0  0  0
  7  8  1  0  0  0  0
  8 12  1  0  0  0  0
  9 12  1  0  0  0  0
 10  6  1  1  0  0  0
 10 11  1  0  0  0  0
 10  7  1  0  0  0  0
 11  9  1  0  0  0  0
 14 17  1  1  0  0  0
 15 19  1  0  0  0  0
 16 14  1  0  0  0  0
 16 13  1  0  0  0  0
 16 18  2  1  0  0  0
 19 14  1  0  0  0  0
 20 15  1  0  0  0  0
 20 21  1  0  0  0  0
 21 16  1  0  0  0  0
 23 24  1  0  0  0  0
 23 22  1  0  0  0  0
 24 25  1  0  0  0  0
 26 25  1  0  0  0  0
 28 27  1  0  0  0  0
 28 26  1  0  0  0  0
 29  1  1  0  0  0  0
 30 34  1  0  0  0  0
 31 36  1  0  0  0  0
 32 35  1  0  0  0  0
 33 32  1  0  0  0  0
 33 37  1  1  0  0  0
 33 36  1  0  0  0  0
 35 29  1  6  0  0  0
 35 34  1  0  0  0  0
 36 30  2  0  0  0  0
 38 33  1  0  0  0  0
 39 41  1  1  0  0  0
 39 40  1  0  0  0  0
 40 38  1  1  0  0  0
 42 45  1  6  0  0  0
 42 39  1  0  0  0  0
 42 40  1  0  0  0  0
 43 44  2  0  0  0  0
 44 45  1  0  0  0  0
 46 47  1  0  0  0  0
 46 44  1  0  0  0  0
 48 49  1  0  0  0  0
 48 53  1  0  0  0  0
 49 52  1  0  0  0  0
 50 51  1  0  0  0  0
 52 47  1  0  0  0  0
 52 51  1  0  0  0  0
 53 50  1  0  0  0  0
M  END
>  <MODEL>
7

>  <REMARK>
 VINA RESULT:      -4.1      3.920     11.274
  Name = 
  20 active torsions:
  status: ('A' for Active; 'I' for Inactive)
    1  A    between atoms: C_1  and  C_49
    2  A    between atoms: C_1  and  C_51
    3  A    between atoms: O_2  and  C_27
    4  A    between atoms: O_2  and  C_50
    5  A    between atoms: C_5  and  P_12
    6  A    between atoms: C_5  and  C_28
    7  A    between atoms: O_8  and  C_29
    8  A    between atoms: O_8  and  C_35
    9  A    between atoms: C_14  and  N_39
   10  A    between atoms: C_14  and  C_44
   11  A    between atoms: N_21  and  C_41
   12  A    between atoms: C_23  and  C_48
   13  A    between atoms: O_24  and  C_30
   14  A    between atoms: O_24  and  C_45
   15  A    between atoms: C_27  and  C_43
   16  A    between atoms: C_30  and  C_35
   17  A    between atoms: C_34  and  C_35
   18  A    between atoms: C_34  and  C_43
   19  A    between atoms: C_38  and  C_48
   20  A    between atoms: C_45  and  C_51
                            x       y       z     vdW  Elec       q    Type
                         _______ _______ _______ _____ _____    ______ ____

>  <TORSDO>
F 20

$$$$
=
 OpenBabel11072411403D

 53 57  0  0  1  0  0  0  0  0999 V2000
  161.4970  210.0490  149.6320 C   0  0  1  0  0  3  0  0  0  0  0  0
  162.2100  211.3910  149.8070 C   0  0  0  0  0  2  0  0  0  0  0  0
  161.4820  212.5260  149.0760 C   0  0  0  0  0  2  0  0  0  0  0  0
  163.5040  213.0090  147.8850 O   0  0  0  0  0  0  0  0  0  0  0  0
  162.2450  212.9680  147.8580 C   0  0  0  0  0  0  0  0  0  0  0  0
  161.5780  213.4220  146.7110 O   0  0  0  0  0  0  0  0  0  0  0  0
  160.1440  213.3240  144.7290 C   0  0  2  0  0  3  0  0  0  0  0  0
  159.1630  214.3940  145.2190 C   0  0  0  0  0  2  0  0  0  0  0  0
  158.6770  213.0310  147.2610 C   0  0  0  0  0  2  0  0  0  0  0  0
  160.7610  212.5660  145.9140 C   0  0  2  0  0  3  0  0  0  0  0  0
  159.6560  211.9550  146.7820 C   0  0  0  0  0  2  0  0  0  0  0  0
  158.0650  213.7560  146.0650 C   0  0  0  0  0  2  0  0  0  0  0  0
  161.2230  213.9540  143.8590 C   0  0  0  0  0  2  0  0  0  0  0  0
  161.1730  211.8340  141.7860 C   0  0  1  0  0  3  0  0  0  0  0  0
  163.0140  212.2810  140.0670 C   0  0  0  0  0  2  0  0  0  0  0  0
  160.9230  213.6070  142.0980 P   0  0  1  0  0  0  0  0  0  0  0  0
  159.9800  211.1380  141.9890 O   0  0  0  0  0  1  0  0  0  0  0  0
  159.5200  214.0230  141.7150 O   0  0  0  0  0  0  0  0  0  0  0  0
  161.6350  211.6520  140.3450 C   0  0  0  0  0  2  0  0  0  0  0  0
  163.3310  213.5530  140.8680 C   0  0  0  0  0  2  0  0  0  0  0  0
  162.1200  214.4530  141.0320 C   0  0  0  0  0  2  0  0  0  0  0  0
  162.4120  208.8820  150.0110 C   0  0  0  0  0  2  0  0  0  0  0  0
  162.5700  208.0250  148.9190 O   0  0  0  0  0  0  0  0  0  0  0  0
  161.2700  207.7640  148.4800 C   0  0  0  0  0  2  0  0  0  0  0  0
  161.3010  207.1770  147.0740 C   0  0  0  0  0  2  0  0  0  0  0  0
  161.3020  205.6520  147.1080 C   0  0  0  0  0  2  0  0  0  0  0  0
  161.7710  204.0640  145.4080 O   0  0  0  0  0  1  0  0  0  0  0  0
  160.9000  205.0930  145.7570 C   0  0  0  0  0  2  0  0  0  0  0  0
  160.3270  209.9960  150.4020 O   0  0  0  0  0  0  0  0  0  0  0  0
  159.8700  212.2470  153.3150 C   0  0  0  0  0  3  0  0  0  0  0  0
  160.7840  212.2640  155.4720 O   0  0  0  0  0  1  0  0  0  0  0  0
  160.7360  209.5860  152.7190 C   0  0  0  0  0  2  0  0  0  0  0  0
  161.1350  210.2180  154.0640 C   0  0  2  0  0  0  0  0  0  0  0  0
  159.5510  211.6160  151.9950 C   0  0  0  0  0  2  0  0  0  0  0  0
  160.6450  210.6260  151.6100 C   0  0  2  0  0  3  0  0  0  0  0  0
  160.5540  211.6060  154.2680 C   0  0  0  0  0  0  0  0  0  0  0  0
  162.5280  210.3110  154.1190 O   0  0  0  0  0  1  0  0  0  0  0  0
  160.6390  209.3270  155.2040 C   0  0  0  0  0  2  0  0  0  0  0  0
  160.0750  206.8930  155.8190 C   0  0  2  0  0  3  0  0  0  0  0  0
  160.1040  207.9730  154.7310 C   0  0  2  0  0  3  0  0  0  0  0  0
  160.6260  207.3140  157.1780 C   0  0  0  0  0  1  0  0  0  0  0  0
  161.1960  206.9250  154.7970 C   0  0  2  0  0  3  0  0  0  0  0  0
  162.7390  206.5190  152.4430 O   0  0  0  0  0  0  0  0  0  0  0  0
  161.8280  205.6850  152.6970 C   0  0  0  0  0  0  0  0  0  0  0  0
  160.9440  205.8980  153.8000 N   0  0  0  0  0  2  0  0  0  0  0  0
  161.6950  204.5180  151.8800 N   0  0  0  0  0  2  0  0  0  0  0  0
  160.7090  203.4830  152.1390 C   0  0  0  0  0  2  0  0  0  0  0  0
  160.2740  202.5160  148.4330 C   0  0  0  0  0  2  0  0  0  0  0  0
  160.4560  203.4240  149.6420 C   0  0  0  0  0  2  0  0  0  0  0  0
  161.5420  200.7030  149.6150 C   0  0  0  0  0  2  0  0  0  0  0  0
  161.7100  201.6220  150.8240 C   0  0  0  0  0  2  0  0  0  0  0  0
  160.5360  202.5900  150.9190 C   0  0  0  0  0  3  0  0  0  0  0  0
  161.4390  201.5320  148.3350 C   0  0  0  0  0  2  0  0  0  0  0  0
  1  2  1  1  0  0  0
  1 22  1  0  0  0  0
  1 29  1  0  0  0  0
  3  2  1  0  0  0  0
  5  4  2  0  0  0  0
  5  3  1  0  0  0  0
  6  5  1  0  0  0  0
  7 13  1  1  0  0  0
  7  8  1  0  0  0  0
  7 10  1  0  0  0  0
  8 12  1  0  0  0  0
 10  6  1  1  0  0  0
 10 11  1  0  0  0  0
 11  9  1  0  0  0  0
 12  9  1  0  0  0  0
 14 17  1  6  0  0  0
 14 16  1  0  0  0  0
 15 19  1  0  0  0  0
 15 20  1  0  0  0  0
 16 18  2  6  0  0  0
 16 13  1  0  0  0  0
 19 14  1  0  0  0  0
 20 21  1  0  0  0  0
 21 16  1  0  0  0  0
 23 22  1  0  0  0  0
 24 23  1  0  0  0  0
 25 26  1  0  0  0  0
 25 24  1  0  0  0  0
 27 28  1  0  0  0  0
 28 26  1  0  0  0  0
 30 36  2  0  0  0  0
 32 33  1  0  0  0  0
 33 37  1  1  0  0  0
 33 36  1  0  0  0  0
 33 38  1  0  0  0  0
 34 30  1  0  0  0  0
 35 29  1  6  0  0  0
 35 34  1  0  0  0  0
 35 32  1  0  0  0  0
 36 31  1  0  0  0  0
 39 41  1  1  0  0  0
 40 42  1  0  0  0  0
 40 38  1  1  0  0  0
 40 39  1  0  0  0  0
 42 45  1  6  0  0  0
 42 39  1  0  0  0  0
 43 44  2  0  0  0  0
 44 45  1  0  0  0  0
 46 47  1  0  0  0  0
 46 44  1  0  0  0  0
 48 49  1  0  0  0  0
 49 52  1  0  0  0  0
 50 51  1  0  0  0  0
 51 52  1  0  0  0  0
 52 47  1  0  0  0  0
 53 48  1  0  0  0  0
 53 50  1  0  0  0  0
M  END
>  <MODEL>
8

>  <REMARK>
 VINA RESULT:      -4.1      1.566      2.339
  Name = 
  20 active torsions:
  status: ('A' for Active; 'I' for Inactive)
    1  A    between atoms: C_1  and  C_49
    2  A    between atoms: C_1  and  C_51
    3  A    between atoms: O_2  and  C_27
    4  A    between atoms: O_2  and  C_50
    5  A    between atoms: C_5  and  P_12
    6  A    between atoms: C_5  and  C_28
    7  A    between atoms: O_8  and  C_29
    8  A    between atoms: O_8  and  C_35
    9  A    between atoms: C_14  and  N_39
   10  A    between atoms: C_14  and  C_44
   11  A    between atoms: N_21  and  C_41
   12  A    between atoms: C_23  and  C_48
   13  A    between atoms: O_24  and  C_30
   14  A    between atoms: O_24  and  C_45
   15  A    between atoms: C_27  and  C_43
   16  A    between atoms: C_30  and  C_35
   17  A    between atoms: C_34  and  C_35
   18  A    between atoms: C_34  and  C_43
   19  A    between atoms: C_38  and  C_48
   20  A    between atoms: C_45  and  C_51
                            x       y       z     vdW  Elec       q    Type
                         _______ _______ _______ _____ _____    ______ ____

>  <TORSDO>
F 20

$$$$
=
 OpenBabel11072411403D

 53 57  0  0  1  0  0  0  0  0999 V2000
  161.9540  207.2340  149.6390 C   0  0  1  0  0  3  0  0  0  0  0  0
  161.4490  207.5990  151.0370 C   0  0  0  0  0  2  0  0  0  0  0  0
  161.1550  206.3530  151.8820 C   0  0  0  0  0  2  0  0  0  0  0  0
  161.2230  205.7330  154.1960 O   0  0  0  0  0  0  0  0  0  0  0  0
  161.1960  206.6690  153.3520 C   0  0  0  0  0  0  0  0  0  0  0  0
  161.1200  207.9910  153.8110 O   0  0  0  0  0  0  0  0  0  0  0  0
  160.2960  209.9020  155.1040 C   0  0  2  0  0  3  0  0  0  0  0  0
  161.6730  210.3050  155.6410 C   0  0  0  0  0  2  0  0  0  0  0  0
  161.9480  208.0410  156.6720 C   0  0  0  0  0  2  0  0  0  0  0  0
  160.2310  208.3870  154.8550 C   0  0  2  0  0  3  0  0  0  0  0  0
  160.5730  207.6260  156.1400 C   0  0  0  0  0  2  0  0  0  0  0  0
  161.9810  209.5450  156.9290 C   0  0  0  0  0  2  0  0  0  0  0  0
  159.9750  210.6800  153.8360 C   0  0  0  0  0  2  0  0  0  0  0  0
  159.0450  212.5350  155.9550 C   0  0  1  0  0  3  0  0  0  0  0  0
  156.5550  212.1490  156.3930 C   0  0  0  0  0  2  0  0  0  0  0  0
  158.8870  212.0940  154.1990 P   0  0  1  0  0  0  0  0  0  0  0  0
  160.0800  213.4570  156.1270 O   0  0  0  0  0  1  0  0  0  0  0  0
  159.2480  213.2700  153.3190 O   0  0  0  0  0  0  0  0  0  0  0  0
  157.7300  213.1450  156.4250 C   0  0  0  0  0  2  0  0  0  0  0  0
  156.6100  211.1020  155.2700 C   0  0  0  0  0  2  0  0  0  0  0  0
  157.1390  211.6750  153.9670 C   0  0  0  0  0  2  0  0  0  0  0  0
  160.7930  206.9090  148.6970 C   0  0  0  0  0  2  0  0  0  0  0  0
  161.2370  206.9070  147.3730 O   0  0  0  0  0  0  0  0  0  0  0  0
  160.3700  206.0380  146.7080 C   0  0  0  0  0  2  0  0  0  0  0  0
  160.7300  205.9690  145.2280 C   0  0  0  0  0  2  0  0  0  0  0  0
  162.2300  205.7660  145.0310 C   0  0  0  0  0  2  0  0  0  0  0  0
  163.5620  204.7000  146.6800 O   0  0  0  0  0  1  0  0  0  0  0  0
  162.6690  204.4490  145.6410 C   0  0  0  0  0  2  0  0  0  0  0  0
  162.7230  208.2720  149.0940 O   0  0  0  0  0  0  0  0  0  0  0  0
  161.4250  211.3100  150.7830 C   0  0  0  0  0  3  0  0  0  0  0  0
  160.4280  213.2730  149.9830 O   0  0  0  0  0  1  0  0  0  0  0  0
  162.3610  210.4640  148.2150 C   0  0  0  0  0  2  0  0  0  0  0  0
  161.5120  211.7430  148.3170 C   0  0  2  0  0  0  0  0  0  0  0  0
  162.2070  210.0420  150.6330 C   0  0  0  0  0  2  0  0  0  0  0  0
  161.9550  209.4310  149.2580 C   0  0  2  0  0  3  0  0  0  0  0  0
  161.1400  212.1020  149.7440 C   0  0  0  0  0  0  0  0  0  0  0  0
  160.3340  211.5570  147.5880 O   0  0  0  0  0  1  0  0  0  0  0  0
  162.2970  212.9140  147.7250 C   0  0  0  0  0  2  0  0  0  0  0  0
  160.9380  213.9070  145.7780 C   0  0  2  0  0  3  0  0  0  0  0  0
  162.1360  213.0530  146.2090 C   0  0  2  0  0  3  0  0  0  0  0  0
  160.0690  214.4400  146.9130 C   0  0  0  0  0  1  0  0  0  0  0  0
  160.8510  212.3920  145.7540 C   0  0  2  0  0  3  0  0  0  0  0  0
  158.9980  212.9110  143.6600 O   0  0  0  0  0  0  0  0  0  0  0  0
  160.0780  212.3330  143.3580 C   0  0  0  0  0  0  0  0  0  0  0  0
  160.9970  211.9410  144.3800 N   0  0  0  0  0  2  0  0  0  0  0  0
  160.3810  212.0850  141.9810 N   0  0  0  0  0  2  0  0  0  0  0  0
  161.6260  211.4760  141.5470 C   0  0  0  0  0  2  0  0  0  0  0  0
  159.8080  210.0220  138.4740 C   0  0  0  0  0  2  0  0  0  0  0  0
  159.9700  210.7130  139.8220 C   0  0  0  0  0  2  0  0  0  0  0  0
  162.0520  210.8950  137.7680 C   0  0  0  0  0  2  0  0  0  0  0  0
  162.2040  211.5760  139.1270 C   0  0  0  0  0  2  0  0  0  0  0  0
  161.4470  210.7960  140.1970 C   0  0  0  0  0  3  0  0  0  0  0  0
  160.5730  210.7880  137.3950 C   0  0  0  0  0  2  0  0  0  0  0  0
  1 22  1  6  0  0  0
  1  2  1  0  0  0  0
  2  3  1  0  0  0  0
  3  5  1  0  0  0  0
  5  6  1  0  0  0  0
  5  4  2  0  0  0  0
  7 13  1  6  0  0  0
  7  8  1  0  0  0  0
  8 12  1  0  0  0  0
  9 12  1  0  0  0  0
 10  6  1  6  0  0  0
 10  7  1  0  0  0  0
 10 11  1  0  0  0  0
 11  9  1  0  0  0  0
 13 16  1  0  0  0  0
 14 17  1  6  0  0  0
 14 19  1  0  0  0  0
 15 19  1  0  0  0  0
 16 18  2  6  0  0  0
 16 14  1  0  0  0  0
 20 15  1  0  0  0  0
 21 16  1  0  0  0  0
 21 20  1  0  0  0  0
 23 22  1  0  0  0  0
 24 23  1  0  0  0  0
 25 24  1  0  0  0  0
 26 25  1  0  0  0  0
 26 28  1  0  0  0  0
 28 27  1  0  0  0  0
 29  1  1  0  0  0  0
 32 33  1  0  0  0  0
 32 35  1  0  0  0  0
 33 37  1  6  0  0  0
 33 36  1  0  0  0  0
 34 30  1  0  0  0  0
 35 29  1  6  0  0  0
 35 34  1  0  0  0  0
 36 31  1  0  0  0  0
 36 30  2  0  0  0  0
 38 33  1  0  0  0  0
 39 40  1  0  0  0  0
 39 41  1  1  0  0  0
 40 38  1  1  0  0  0
 42 45  1  6  0  0  0
 42 39  1  0  0  0  0
 42 40  1  0  0  0  0
 44 43  2  0  0  0  0
 44 45  1  0  0  0  0
 46 44  1  0  0  0  0
 47 46  1  0  0  0  0
 48 49  1  0  0  0  0
 49 52  1  0  0  0  0
 50 51  1  0  0  0  0
 51 52  1  0  0  0  0
 52 47  1  0  0  0  0
 53 50  1  0  0  0  0
 53 48  1  0  0  0  0
M  END
>  <MODEL>
9

>  <REMARK>
 VINA RESULT:      -3.9      3.520     10.613
  Name = 
  20 active torsions:
  status: ('A' for Active; 'I' for Inactive)
    1  A    between atoms: C_1  and  C_49
    2  A    between atoms: C_1  and  C_51
    3  A    between atoms: O_2  and  C_27
    4  A    between atoms: O_2  and  C_50
    5  A    between atoms: C_5  and  P_12
    6  A    between atoms: C_5  and  C_28
    7  A    between atoms: O_8  and  C_29
    8  A    between atoms: O_8  and  C_35
    9  A    between atoms: C_14  and  N_39
   10  A    between atoms: C_14  and  C_44
   11  A    between atoms: N_21  and  C_41
   12  A    between atoms: C_23  and  C_48
   13  A    between atoms: O_24  and  C_30
   14  A    between atoms: O_24  and  C_45
   15  A    between atoms: C_27  and  C_43
   16  A    between atoms: C_30  and  C_35
   17  A    between atoms: C_34  and  C_35
   18  A    between atoms: C_34  and  C_43
   19  A    between atoms: C_38  and  C_48
   20  A    between atoms: C_45  and  C_51
                            x       y       z     vdW  Elec       q    Type
                         _______ _______ _______ _____ _____    ______ ____

>  <TORSDO>
F 20

$$$$
