=
 OpenBabel11072413543D

 46 48  0  0  1  0  0  0  0  0999 V2000
  160.3240  206.2710  145.2150 O   0  0  0  0  0  1  0  0  0  0  0  0
  161.3710  206.2420  146.1380 C   0  0  2  0  0  0  0  0  0  0  0  0
  160.1660  205.7990  148.1560 C   0  0  2  0  0  3  0  0  0  0  0  0
  161.1700  205.2610  147.2180 N   0  0  2  0  0  0  0  0  0  0  0  0
  161.0930  206.7330  147.4850 C   0  0  1  0  0  0  0  0  0  0  0  0
  160.0850  206.1720  150.5320 O   0  0  0  0  0  0  0  0  0  0  0  0
  161.3350  204.3240  149.8370 N   0  0  0  0  0  2  0  0  0  0  0  0
  160.5090  205.4630  149.5820 C   0  0  0  0  0  0  0  0  0  0  0  0
  161.6690  203.8550  151.1770 C   0  0  1  0  0  3  0  0  0  0  0  0
  161.0300  204.7820  152.2110 C   0  0  1  0  0  3  0  0  0  0  0  0
  160.2100  204.0570  153.0810 O   0  0  0  0  0  1  0  0  0  0  0  0
  162.9770  206.2830  152.0870 N   0  0  0  0  0  1  0  0  0  0  0  0
  162.0870  205.5770  152.9930 C   0  0  1  0  0  3  0  0  0  0  0  0
  161.5080  206.5090  154.0670 C   0  0  0  0  0  2  0  0  0  0  0  0
  160.6870  208.7590  154.5190 N   0  0  0  0  0  1  0  0  0  0  0  0
  160.7880  207.7290  153.5040 C   0  0  0  0  0  2  0  0  0  0  0  0
  161.1520  202.4350  151.3600 C   0  0  0  0  0  2  0  0  0  0  0  0
  161.8000  201.5460  150.3960 N   0  0  0  0  0  2  0  0  0  0  0  0
  161.3910  200.6070  148.1450 C   0  0  0  0  0  1  0  0  0  0  0  0
  160.8060  200.9260  149.5110 C   0  0  2  0  0  3  0  0  0  0  0  0
  158.4150  200.9240  149.3970 O   0  0  0  0  0  1  0  0  0  0  0  0
  159.5350  201.7580  149.3830 C   0  0  0  0  0  2  0  0  0  0  0  0
  163.1240  205.0390  145.7000 O   0  0  0  0  0  1  0  0  0  0  0  0
  162.6840  206.2820  145.6420 O   0  0  0  0  0  0  0  0  0  0  0  0
  162.3490  207.1420  148.2630 C   0  0  0  0  0  2  0  0  0  0  0  0
  161.9290  210.3710  150.2540 C   0  0  0  0  0  3  0  0  0  0  0  0
  162.0190  210.7430  148.8530 N   0  0  0  0  0  0  0  0  0  0  0  0
  162.0940  208.8510  150.2520 C   0  0  0  0  0  3  0  0  0  0  0  0
  162.1700  209.5940  148.0420 C   0  0  0  0  0  3  0  0  0  0  0  0
  162.2090  208.5210  148.8000 C   0  0  0  0  0  0  0  0  0  0  0  0
  163.1520  212.9350  147.8990 O   0  0  0  0  0  0  0  0  0  0  0  0
  161.1810  213.1990  149.3200 O   0  0  0  0  0  0  0  0  0  0  0  0
  161.8110  212.3520  148.2460 S   0  0  0  0  0  0  0  0  0  0  0  0
  159.2940  212.5150  147.2110 C   0  0  0  0  0  1  0  0  0  0  0  0
  160.7410  212.3070  146.8040 C   0  0  1  0  0  3  0  0  0  0  0  0
  161.1210  213.3720  145.7820 C   0  0  0  0  0  2  0  0  0  0  0  0
  160.8970  212.9100  144.3370 C   0  0  1  0  0  3  0  0  0  0  0  0
  159.8540  213.7490  143.5880 C   0  0  0  0  0  3  0  0  0  0  0  0
  159.0750  212.9400  142.7580 O   0  0  0  0  0  1  0  0  0  0  0  0
  159.0300  214.4490  144.4740 O   0  0  0  0  0  1  0  0  0  0  0  0
  162.1910  212.8680  143.5560 C   0  0  0  0  0  0  0  0  0  0  0  0
  163.4270  213.8790  143.9430 S   0  0  0  0  0  0  0  0  0  0  0  0
  162.3340  212.0670  142.4130 O   0  0  0  0  0  0  0  0  0  0  0  0
  162.0290  213.7380  140.8710 O   0  0  0  0  0  0  0  0  0  0  0  0
  162.3080  211.6120  139.9940 N   0  0  0  0  0  1  0  0  0  0  0  0
  162.1870  212.5100  141.0930 C   0  0  0  0  0  0  0  0  0  0  0  0
  2  1  1  6  0  0  0
  2  4  1  0  0  0  0
  2  5  1  0  0  0  0
  3  8  1  1  0  0  0
  4  5  1  0  0  0  0
  4  3  1  0  0  0  0
  5  3  1  0  0  0  0
  5 25  1  0  0  0  0
  7  9  1  0  0  0  0
  8  7  1  0  0  0  0
  8  6  2  0  0  0  0
  9 17  1  0  0  0  0
  9 10  1  0  0  0  0
 10 13  1  0  0  0  0
 10 11  1  0  0  0  0
 12 13  1  0  0  0  0
 13 14  1  0  0  0  0
 16 14  1  0  0  0  0
 16 15  1  0  0  0  0
 18 17  1  0  0  0  0
 19 20  1  0  0  0  0
 20 18  1  0  0  0  0
 22 21  1  0  0  0  0
 22 20  1  0  0  0  0
 24 23  1  0  0  0  0
 24  2  1  0  0  0  0
 25 30  1  0  0  0  0
 27 26  1  0  0  0  0
 28 26  2  0  0  0  0
 29 30  2  0  0  0  0
 29 27  1  0  0  0  0
 30 28  1  0  0  0  0
 31 33  2  0  0  0  0
 33 27  1  0  0  0  0
 33 32  2  0  0  0  0
 35 34  1  0  0  0  0
 35 33  1  0  0  0  0
 36 35  1  0  0  0  0
 37 36  1  0  0  0  0
 38 37  1  0  0  0  0
 38 40  1  0  0  0  0
 39 38  1  0  0  0  0
 41 42  2  0  0  0  0
 41 37  1  0  0  0  0
 43 41  1  0  0  0  0
 44 46  2  0  0  0  0
 45 46  1  0  0  0  0
 46 43  1  0  0  0  0
M  END
>  <MODEL>
1

>  <REMARK>
 VINA RESULT:      -5.4      0.000      0.000
  Name = 
  21 active torsions:
  status: ('A' for Active; 'I' for Inactive)
    1  A    between atoms: C_1  and  C_29
    2  A    between atoms: C_1  and  O_36
    3  A    between atoms: C_2  and  C_39
    4  A    between atoms: C_2  and  C_46
    5  A    between atoms: C_10  and  C_21
    6  A    between atoms: C_10  and  C_45
    7  A    between atoms: C_14  and  O_27
    8  A    between atoms: C_16  and  N_19
    9  A    between atoms: C_16  and  C_44
   10  A    between atoms: C_17  and  C_18
   11  A    between atoms: C_17  and  S_31
   12  A    between atoms: C_18  and  C_29
   13  A    between atoms: N_19  and  CA_38
   14  A    between atoms: C_21  and  C_44
   15  A    between atoms: C_22  and  C_40
   16  A    between atoms: N_23  and  S_31
   17  A    between atoms: C_24  and  C_29
   18  A    between atoms: C_25  and  O_36
   19  A    between atoms: N_26  and  C_44
   20  A    between atoms: C_33  and  CA_38
   21  A    between atoms: C_41  and  C_45
                            x       y       z     vdW  Elec       q    Type
                         _______ _______ _______ _____ _____    ______ ____

>  <TORSDO>
F 21

$$$$
=
 OpenBabel11072413543D

 46 48  0  0  1  0  0  0  0  0999 V2000
  163.2810  212.2860  148.4200 O   0  0  0  0  0  1  0  0  0  0  0  0
  162.1250  211.5190  148.5760 C   0  0  2  0  0  0  0  0  0  0  0  0
  162.2780  210.9560  150.8950 C   0  0  2  0  0  3  0  0  0  0  0  0
  161.4840  211.6890  149.8910 N   0  0  2  0  0  0  0  0  0  0  0  0
  162.1750  210.4110  149.5250 C   0  0  1  0  0  0  0  0  0  0  0  0
  161.2400  209.0460  151.9260 O   0  0  0  0  0  0  0  0  0  0  0  0
  160.7330  211.1170  152.8830 N   0  0  0  0  0  2  0  0  0  0  0  0
  161.3970  210.2950  151.9190 C   0  0  0  0  0  0  0  0  0  0  0  0
  159.9190  210.5860  153.9700 C   0  0  1  0  0  3  0  0  0  0  0  0
  160.6270  210.8330  155.3020 C   0  0  1  0  0  3  0  0  0  0  0  0
  159.7420  210.6550  156.3700 O   0  0  0  0  0  1  0  0  0  0  0  0
  163.0150  210.7180  155.8850 N   0  0  0  0  0  1  0  0  0  0  0  0
  161.8640  209.9370  155.4640 C   0  0  1  0  0  3  0  0  0  0  0  0
  161.6440  208.7140  156.3640 C   0  0  0  0  0  2  0  0  0  0  0  0
  159.7640  207.1640  156.2940 N   0  0  0  0  0  1  0  0  0  0  0  0
  161.0110  207.5250  155.6490 C   0  0  0  0  0  2  0  0  0  0  0  0
  158.5600  211.2730  153.9670 C   0  0  0  0  0  2  0  0  0  0  0  0
  158.5880  212.4160  153.0550 N   0  0  0  0  0  2  0  0  0  0  0  0
  157.8870  213.4230  155.2030 C   0  0  0  0  0  1  0  0  0  0  0  0
  158.0310  213.6120  153.7020 C   0  0  2  0  0  3  0  0  0  0  0  0
  155.6640  213.2800  153.5670 O   0  0  0  0  0  1  0  0  0  0  0  0
  156.7160  214.0580  153.0760 C   0  0  0  0  0  2  0  0  0  0  0  0
  160.4600  212.5440  147.6320 O   0  0  0  0  0  1  0  0  0  0  0  0
  161.2190  211.4730  147.5030 O   0  0  0  0  0  0  0  0  0  0  0  0
  161.1040  209.3420  149.2830 C   0  0  0  0  0  2  0  0  0  0  0  0
  163.1810  206.3830  148.0630 C   0  0  0  0  0  3  0  0  0  0  0  0
  161.9350  206.3630  147.3180 N   0  0  0  0  0  0  0  0  0  0  0  0
  163.0330  207.5680  149.0180 C   0  0  0  0  0  3  0  0  0  0  0  0
  161.1050  207.4410  147.7090 C   0  0  0  0  0  3  0  0  0  0  0  0
  161.6990  208.1340  148.6550 C   0  0  0  0  0  0  0  0  0  0  0  0
  162.8300  205.0020  145.2340 O   0  0  0  0  0  0  0  0  0  0  0  0
  160.5650  205.9130  145.1100 O   0  0  0  0  0  0  0  0  0  0  0  0
  161.5790  205.2720  146.0220 S   0  0  0  0  0  0  0  0  0  0  0  0
  161.0250  202.6240  145.6860 C   0  0  0  0  0  1  0  0  0  0  0  0
  160.9080  203.7490  146.6970 C   0  0  1  0  0  3  0  0  0  0  0  0
  161.6200  203.3340  147.9790 C   0  0  0  0  0  2  0  0  0  0  0  0
  160.6470  203.0250  149.1230 C   0  0  1  0  0  3  0  0  0  0  0  0
  160.3640  201.5270  149.2900 C   0  0  0  0  0  3  0  0  0  0  0  0
  159.0050  201.2590  149.1170 O   0  0  0  0  0  1  0  0  0  0  0  0
  161.1130  200.7620  148.3900 O   0  0  0  0  0  1  0  0  0  0  0  0
  161.1160  203.6160  150.4320 C   0  0  0  0  0  0  0  0  0  0  0  0
  161.3920  202.6470  151.7290 S   0  0  0  0  0  0  0  0  0  0  0  0
  161.2080  205.0040  150.6210 O   0  0  0  0  0  0  0  0  0  0  0  0
  160.7180  205.7380  152.7390 O   0  0  0  0  0  0  0  0  0  0  0  0
  162.9040  206.0740  152.0490 N   0  0  0  0  0  1  0  0  0  0  0  0
  161.5690  205.6340  151.8170 C   0  0  0  0  0  0  0  0  0  0  0  0
  2  1  1  6  0  0  0
  2  5  1  0  0  0  0
  2  4  1  0  0  0  0
  3  8  1  1  0  0  0
  4  3  1  0  0  0  0
  5  4  1  0  0  0  0
  5  3  1  0  0  0  0
  7  9  1  0  0  0  0
  8  6  2  0  0  0  0
  8  7  1  0  0  0  0
  9 10  1  0  0  0  0
 10 13  1  0  0  0  0
 10 11  1  0  0  0  0
 13 12  1  0  0  0  0
 13 14  1  0  0  0  0
 16 15  1  0  0  0  0
 16 14  1  0  0  0  0
 17  9  1  0  0  0  0
 18 20  1  0  0  0  0
 18 17  1  0  0  0  0
 20 19  1  0  0  0  0
 22 21  1  0  0  0  0
 22 20  1  0  0  0  0
 24 23  1  0  0  0  0
 24  2  1  0  0  0  0
 25  5  1  0  0  0  0
 26 28  2  0  0  0  0
 27 29  1  0  0  0  0
 27 26  1  0  0  0  0
 29 30  2  0  0  0  0
 30 28  1  0  0  0  0
 30 25  1  0  0  0  0
 31 33  2  0  0  0  0
 32 33  2  0  0  0  0
 33 35  1  0  0  0  0
 33 27  1  0  0  0  0
 34 35  1  0  0  0  0
 35 36  1  0  0  0  0
 36 37  1  0  0  0  0
 37 38  1  0  0  0  0
 37 41  1  0  0  0  0
 39 38  1  0  0  0  0
 40 38  1  0  0  0  0
 41 43  1  0  0  0  0
 41 42  2  0  0  0  0
 43 46  1  0  0  0  0
 46 45  1  0  0  0  0
 46 44  2  0  0  0  0
M  END
>  <MODEL>
2

>  <REMARK>
 VINA RESULT:      -5.4      3.623      9.132
  Name = 
  21 active torsions:
  status: ('A' for Active; 'I' for Inactive)
    1  A    between atoms: C_1  and  C_29
    2  A    between atoms: C_1  and  O_36
    3  A    between atoms: C_2  and  C_39
    4  A    between atoms: C_2  and  C_46
    5  A    between atoms: C_10  and  C_21
    6  A    between atoms: C_10  and  C_45
    7  A    between atoms: C_14  and  O_27
    8  A    between atoms: C_16  and  N_19
    9  A    between atoms: C_16  and  C_44
   10  A    between atoms: C_17  and  C_18
   11  A    between atoms: C_17  and  S_31
   12  A    between atoms: C_18  and  C_29
   13  A    between atoms: N_19  and  CA_38
   14  A    between atoms: C_21  and  C_44
   15  A    between atoms: C_22  and  C_40
   16  A    between atoms: N_23  and  S_31
   17  A    between atoms: C_24  and  C_29
   18  A    between atoms: C_25  and  O_36
   19  A    between atoms: N_26  and  C_44
   20  A    between atoms: C_33  and  CA_38
   21  A    between atoms: C_41  and  C_45
                            x       y       z     vdW  Elec       q    Type
                         _______ _______ _______ _____ _____    ______ ____

>  <TORSDO>
F 21

$$$$
=
 OpenBabel11072413543D

 46 48  0  0  1  0  0  0  0  0999 V2000
  160.5520  206.3380  144.9090 O   0  0  0  0  0  1  0  0  0  0  0  0
  161.5040  206.2200  145.9220 C   0  0  2  0  0  0  0  0  0  0  0  0
  160.0910  205.8210  147.8110 C   0  0  2  0  0  3  0  0  0  0  0  0
  161.1400  205.2340  146.9540 N   0  0  2  0  0  0  0  0  0  0  0  0
  161.1350  206.7030  147.2510 C   0  0  1  0  0  0  0  0  0  0  0  0
  159.9370  206.2180  150.1790 O   0  0  0  0  0  0  0  0  0  0  0  0
  160.8560  204.1630  149.5510 N   0  0  0  0  0  2  0  0  0  0  0  0
  160.2770  205.4360  149.2520 C   0  0  0  0  0  0  0  0  0  0  0  0
  161.0130  203.6480  150.9070 C   0  0  1  0  0  3  0  0  0  0  0  0
  161.7160  202.2920  150.8550 C   0  0  1  0  0  3  0  0  0  0  0  0
  162.0220  201.8470  152.1450 O   0  0  0  0  0  1  0  0  0  0  0  0
  159.4910  201.6590  150.0150 N   0  0  0  0  0  1  0  0  0  0  0  0
  160.8810  201.2460  150.1010 C   0  0  1  0  0  3  0  0  0  0  0  0
  161.4470  200.8570  148.7280 C   0  0  0  0  0  2  0  0  0  0  0  0
  160.9270  200.8640  146.3470 N   0  0  0  0  0  1  0  0  0  0  0  0
  160.8490  201.6430  147.5670 C   0  0  0  0  0  2  0  0  0  0  0  0
  161.8360  204.6310  151.7290 C   0  0  0  0  0  2  0  0  0  0  0  0
  161.1580  204.9030  152.9950 N   0  0  0  0  0  2  0  0  0  0  0  0
  162.2020  207.1160  152.6360 C   0  0  0  0  0  1  0  0  0  0  0  0
  161.0250  206.3490  153.2140 C   0  0  2  0  0  3  0  0  0  0  0  0
  160.5230  208.0630  154.8090 O   0  0  0  0  0  1  0  0  0  0  0  0
  160.8060  206.7010  154.6810 C   0  0  0  0  0  2  0  0  0  0  0  0
  163.2400  204.9310  145.7320 O   0  0  0  0  0  1  0  0  0  0  0  0
  162.8580  206.1800  145.5500 O   0  0  0  0  0  0  0  0  0  0  0  0
  162.3380  207.0110  148.1510 C   0  0  0  0  0  2  0  0  0  0  0  0
  162.0160  210.1970  150.2270 C   0  0  0  0  0  3  0  0  0  0  0  0
  162.0640  210.6010  148.8330 N   0  0  0  0  0  0  0  0  0  0  0  0
  162.1650  208.6750  150.1860 C   0  0  0  0  0  3  0  0  0  0  0  0
  162.1770  209.4690  147.9920 C   0  0  0  0  0  3  0  0  0  0  0  0
  162.2290  208.3790  148.7230 C   0  0  0  0  0  0  0  0  0  0  0  0
  163.1880  212.8030  147.8940 O   0  0  0  0  0  0  0  0  0  0  0  0
  161.2670  213.0530  149.3840 O   0  0  0  0  0  0  0  0  0  0  0  0
  161.8530  212.2240  148.2710 S   0  0  0  0  0  0  0  0  0  0  0  0
  159.2960  212.3170  147.3290 C   0  0  0  0  0  1  0  0  0  0  0  0
  160.7370  212.2240  146.8630 C   0  0  1  0  0  3  0  0  0  0  0  0
  161.0220  213.3810  145.9130 C   0  0  0  0  0  2  0  0  0  0  0  0
  160.6040  213.0760  144.4690 C   0  0  1  0  0  3  0  0  0  0  0  0
  159.5050  214.0090  143.9460 C   0  0  0  0  0  3  0  0  0  0  0  0
  158.7410  213.3720  142.9680 O   0  0  0  0  0  1  0  0  0  0  0  0
  158.6740  214.4500  144.9810 O   0  0  0  0  0  1  0  0  0  0  0  0
  161.7880  213.0870  143.5300 C   0  0  0  0  0  0  0  0  0  0  0  0
  163.3010  213.3650  144.1060 S   0  0  0  0  0  0  0  0  0  0  0  0
  161.6250  212.9880  142.1390 O   0  0  0  0  0  0  0  0  0  0  0  0
  162.7220  211.3610  140.9500 O   0  0  0  0  0  0  0  0  0  0  0  0
  160.4520  211.0120  141.2550 N   0  0  0  0  0  1  0  0  0  0  0  0
  161.6330  211.7940  141.4090 C   0  0  0  0  0  0  0  0  0  0  0  0
  2  1  1  6  0  0  0
  2  4  1  0  0  0  0
  2  5  1  0  0  0  0
  3  8  1  1  0  0  0
  4  5  1  0  0  0  0
  4  3  1  0  0  0  0
  5  3  1  0  0  0  0
  5 25  1  0  0  0  0
  7  9  1  0  0  0  0
  8  7  1  0  0  0  0
  8  6  2  0  0  0  0
  9 17  1  0  0  0  0
 10  9  1  0  0  0  0
 10 11  1  0  0  0  0
 12 13  1  0  0  0  0
 13 10  1  0  0  0  0
 14 13  1  0  0  0  0
 15 16  1  0  0  0  0
 16 14  1  0  0  0  0
 17 18  1  0  0  0  0
 18 20  1  0  0  0  0
 19 20  1  0  0  0  0
 20 22  1  0  0  0  0
 22 21  1  0  0  0  0
 24 23  1  0  0  0  0
 24  2  1  0  0  0  0
 25 30  1  0  0  0  0
 27 26  1  0  0  0  0
 28 26  2  0  0  0  0
 29 30  2  0  0  0  0
 29 27  1  0  0  0  0
 30 28  1  0  0  0  0
 31 33  2  0  0  0  0
 33 27  1  0  0  0  0
 33 32  2  0  0  0  0
 35 34  1  0  0  0  0
 35 33  1  0  0  0  0
 36 35  1  0  0  0  0
 37 36  1  0  0  0  0
 38 37  1  0  0  0  0
 38 40  1  0  0  0  0
 39 38  1  0  0  0  0
 41 42  2  0  0  0  0
 41 37  1  0  0  0  0
 43 41  1  0  0  0  0
 44 46  2  0  0  0  0
 45 46  1  0  0  0  0
 46 43  1  0  0  0  0
M  END
>  <MODEL>
3

>  <REMARK>
 VINA RESULT:      -5.2      1.343      3.708
  Name = 
  21 active torsions:
  status: ('A' for Active; 'I' for Inactive)
    1  A    between atoms: C_1  and  C_29
    2  A    between atoms: C_1  and  O_36
    3  A    between atoms: C_2  and  C_39
    4  A    between atoms: C_2  and  C_46
    5  A    between atoms: C_10  and  C_21
    6  A    between atoms: C_10  and  C_45
    7  A    between atoms: C_14  and  O_27
    8  A    between atoms: C_16  and  N_19
    9  A    between atoms: C_16  and  C_44
   10  A    between atoms: C_17  and  C_18
   11  A    between atoms: C_17  and  S_31
   12  A    between atoms: C_18  and  C_29
   13  A    between atoms: N_19  and  CA_38
   14  A    between atoms: C_21  and  C_44
   15  A    between atoms: C_22  and  C_40
   16  A    between atoms: N_23  and  S_31
   17  A    between atoms: C_24  and  C_29
   18  A    between atoms: C_25  and  O_36
   19  A    between atoms: N_26  and  C_44
   20  A    between atoms: C_33  and  CA_38
   21  A    between atoms: C_41  and  C_45
                            x       y       z     vdW  Elec       q    Type
                         _______ _______ _______ _____ _____    ______ ____

>  <TORSDO>
F 21

$$$$
=
 OpenBabel11072413543D

 46 48  0  0  1  0  0  0  0  0999 V2000
  159.5590  207.6920  156.6640 O   0  0  0  0  0  1  0  0  0  0  0  0
  160.5210  208.4360  155.9790 C   0  0  2  0  0  0  0  0  0  0  0  0
  159.2050  210.2970  155.2550 C   0  0  2  0  0  3  0  0  0  0  0  0
  160.3370  209.8920  156.1100 N   0  0  2  0  0  0  0  0  0  0  0  0
  160.0790  209.1930  154.8110 C   0  0  1  0  0  0  0  0  0  0  0  0
  160.5050  212.2810  154.8510 O   0  0  0  0  0  0  0  0  0  0  0  0
  158.4860  212.1350  153.6820 N   0  0  0  0  0  2  0  0  0  0  0  0
  159.4600  211.6260  154.5970 C   0  0  0  0  0  0  0  0  0  0  0  0
  158.6600  213.3700  152.9270 C   0  0  1  0  0  3  0  0  0  0  0  0
  158.2910  213.1260  151.4630 C   0  0  1  0  0  3  0  0  0  0  0  0
  156.9320  213.3730  151.2500 O   0  0  0  0  0  1  0  0  0  0  0  0
  160.5250  214.0450  150.9890 N   0  0  0  0  0  1  0  0  0  0  0  0
  159.1550  213.9660  150.5110 C   0  0  1  0  0  3  0  0  0  0  0  0
  159.0870  213.5240  149.0420 C   0  0  0  0  0  2  0  0  0  0  0  0
  160.2920  212.7750  147.0600 N   0  0  0  0  0  1  0  0  0  0  0  0
  160.4190  213.0420  148.4790 C   0  0  0  0  0  2  0  0  0  0  0  0
  157.7650  214.4530  153.5150 C   0  0  0  0  0  2  0  0  0  0  0  0
  157.6670  214.2790  154.9630 N   0  0  0  0  0  2  0  0  0  0  0  0
  155.3120  213.9780  154.2680 C   0  0  0  0  0  1  0  0  0  0  0  0
  156.3640  213.7100  155.3320 C   0  0  2  0  0  3  0  0  0  0  0  0
  154.5630  213.7870  156.9070 O   0  0  0  0  0  1  0  0  0  0  0  0
  155.8890  214.1750  156.7030 C   0  0  0  0  0  2  0  0  0  0  0  0
  162.4180  208.8200  156.9620 O   0  0  0  0  0  1  0  0  0  0  0  0
  161.8600  208.0230  156.0710 O   0  0  0  0  0  0  0  0  0  0  0  0
  161.2140  209.5530  153.8440 C   0  0  0  0  0  2  0  0  0  0  0  0
  161.6600  206.3820  151.7670 C   0  0  0  0  0  3  0  0  0  0  0  0
  161.7250  207.5050  150.8480 N   0  0  0  0  0  0  0  0  0  0  0  0
  161.3950  207.0230  153.1300 C   0  0  0  0  0  3  0  0  0  0  0  0
  161.5740  208.7270  151.5460 C   0  0  0  0  0  3  0  0  0  0  0  0
  161.3940  208.4860  152.8250 C   0  0  0  0  0  0  0  0  0  0  0  0
  163.5650  207.1220  148.9870 O   0  0  0  0  0  0  0  0  0  0  0  0
  161.7490  208.6800  148.4880 O   0  0  0  0  0  0  0  0  0  0  0  0
  162.0940  207.3780  149.1620 S   0  0  0  0  0  0  0  0  0  0  0  0
  159.9810  206.6100  147.6200 C   0  0  0  0  0  1  0  0  0  0  0  0
  161.1250  206.0480  148.4420 C   0  0  1  0  0  3  0  0  0  0  0  0
  161.9720  205.1450  147.5520 C   0  0  0  0  0  2  0  0  0  0  0  0
  161.1240  204.2610  146.6290 C   0  0  1  0  0  3  0  0  0  0  0  0
  161.4850  204.4120  145.1460 C   0  0  0  0  0  3  0  0  0  0  0  0
  160.9740  205.6050  144.6330 O   0  0  0  0  0  1  0  0  0  0  0  0
  162.8690  204.3690  144.9500 O   0  0  0  0  0  1  0  0  0  0  0  0
  161.1860  202.8070  147.0360 C   0  0  0  0  0  0  0  0  0  0  0  0
  160.8260  201.6260  145.9520 S   0  0  0  0  0  0  0  0  0  0  0  0
  161.4250  202.4250  148.3650 O   0  0  0  0  0  0  0  0  0  0  0  0
  159.6590  201.4860  149.4900 O   0  0  0  0  0  0  0  0  0  0  0  0
  160.4740  203.4630  150.3850 N   0  0  0  0  0  1  0  0  0  0  0  0
  160.4750  202.4400  149.3930 C   0  0  0  0  0  0  0  0  0  0  0  0
  2 24  1  0  0  0  0
  2  4  1  0  0  0  0
  2  1  1  1  0  0  0
  3  8  1  6  0  0  0
  3  4  1  0  0  0  0
  5  3  1  0  0  0  0
  5  2  1  0  0  0  0
  5  4  1  0  0  0  0
  7  8  1  0  0  0  0
  8  6  2  0  0  0  0
  9 17  1  0  0  0  0
  9  7  1  0  0  0  0
 10  9  1  0  0  0  0
 11 10  1  0  0  0  0
 13 12  1  0  0  0  0
 13 10  1  0  0  0  0
 14 13  1  0  0  0  0
 15 16  1  0  0  0  0
 16 14  1  0  0  0  0
 17 18  1  0  0  0  0
 18 20  1  0  0  0  0
 19 20  1  0  0  0  0
 20 22  1  0  0  0  0
 22 21  1  0  0  0  0
 24 23  1  0  0  0  0
 25  5  1  0  0  0  0
 26 28  2  0  0  0  0
 27 29  1  0  0  0  0
 27 26  1  0  0  0  0
 29 30  2  0  0  0  0
 30 28  1  0  0  0  0
 30 25  1  0  0  0  0
 31 33  2  0  0  0  0
 32 33  2  0  0  0  0
 33 27  1  0  0  0  0
 34 35  1  0  0  0  0
 35 33  1  0  0  0  0
 36 35  1  0  0  0  0
 37 41  1  0  0  0  0
 37 36  1  0  0  0  0
 38 37  1  0  0  0  0
 39 38  1  0  0  0  0
 40 38  1  0  0  0  0
 41 43  1  0  0  0  0
 42 41  2  0  0  0  0
 43 46  1  0  0  0  0
 46 44  2  0  0  0  0
 46 45  1  0  0  0  0
M  END
>  <MODEL>
4

>  <REMARK>
 VINA RESULT:      -5.1      4.480      9.931
  Name = 
  21 active torsions:
  status: ('A' for Active; 'I' for Inactive)
    1  A    between atoms: C_1  and  C_29
    2  A    between atoms: C_1  and  O_36
    3  A    between atoms: C_2  and  C_39
    4  A    between atoms: C_2  and  C_46
    5  A    between atoms: C_10  and  C_21
    6  A    between atoms: C_10  and  C_45
    7  A    between atoms: C_14  and  O_27
    8  A    between atoms: C_16  and  N_19
    9  A    between atoms: C_16  and  C_44
   10  A    between atoms: C_17  and  C_18
   11  A    between atoms: C_17  and  S_31
   12  A    between atoms: C_18  and  C_29
   13  A    between atoms: N_19  and  CA_38
   14  A    between atoms: C_21  and  C_44
   15  A    between atoms: C_22  and  C_40
   16  A    between atoms: N_23  and  S_31
   17  A    between atoms: C_24  and  C_29
   18  A    between atoms: C_25  and  O_36
   19  A    between atoms: N_26  and  C_44
   20  A    between atoms: C_33  and  CA_38
   21  A    between atoms: C_41  and  C_45
                            x       y       z     vdW  Elec       q    Type
                         _______ _______ _______ _____ _____    ______ ____

>  <TORSDO>
F 21

$$$$
=
 OpenBabel11072413543D

 46 48  0  0  1  0  0  0  0  0999 V2000
  159.3920  207.6850  156.1440 O   0  0  0  0  0  1  0  0  0  0  0  0
  160.3380  208.5240  155.5520 C   0  0  2  0  0  0  0  0  0  0  0  0
  158.9420  210.3340  154.8470 C   0  0  2  0  0  3  0  0  0  0  0  0
  160.0510  209.9560  155.7450 N   0  0  2  0  0  0  0  0  0  0  0  0
  159.9100  209.3120  154.4000 C   0  0  1  0  0  0  0  0  0  0  0  0
  160.0330  212.4760  154.7300 O   0  0  0  0  0  0  0  0  0  0  0  0
  158.3010  212.1330  153.1980 N   0  0  0  0  0  2  0  0  0  0  0  0
  159.1450  211.7090  154.2720 C   0  0  0  0  0  0  0  0  0  0  0  0
  158.4540  213.4090  152.5090 C   0  0  1  0  0  3  0  0  0  0  0  0
  158.0820  213.2390  151.0370 C   0  0  1  0  0  3  0  0  0  0  0  0
  156.8500  213.8420  150.7670 O   0  0  0  0  0  1  0  0  0  0  0  0
  160.3540  212.9400  150.1370 N   0  0  0  0  0  1  0  0  0  0  0  0
  159.1740  213.7890  150.1060 C   0  0  1  0  0  3  0  0  0  0  0  0
  158.7020  214.0590  148.6710 C   0  0  0  0  0  2  0  0  0  0  0  0
  159.3880  212.8560  146.6650 N   0  0  0  0  0  1  0  0  0  0  0  0
  159.7880  213.8740  147.6170 C   0  0  0  0  0  2  0  0  0  0  0  0
  157.5480  214.4460  153.1590 C   0  0  0  0  0  2  0  0  0  0  0  0
  157.0710  213.9460  154.4470 N   0  0  0  0  0  2  0  0  0  0  0  0
  154.7130  213.9560  153.7000 C   0  0  0  0  0  1  0  0  0  0  0  0
  155.8570  213.1370  154.2750 C   0  0  2  0  0  3  0  0  0  0  0  0
  156.0750  213.0160  156.6560 O   0  0  0  0  0  1  0  0  0  0  0  0
  155.4370  212.4320  155.5590 C   0  0  0  0  0  2  0  0  0  0  0  0
  162.0620  208.7030  156.8590 O   0  0  0  0  0  1  0  0  0  0  0  0
  161.6940  208.1910  155.7000 O   0  0  0  0  0  0  0  0  0  0  0  0
  161.0690  209.7930  153.5180 C   0  0  0  0  0  2  0  0  0  0  0  0
  162.3970  207.6090  150.6850 C   0  0  0  0  0  3  0  0  0  0  0  0
  161.5630  206.7630  151.5190 N   0  0  0  0  0  0  0  0  0  0  0  0
  162.3730  208.9700  151.3820 C   0  0  0  0  0  3  0  0  0  0  0  0
  161.0230  207.5040  152.5960 C   0  0  0  0  0  3  0  0  0  0  0  0
  161.4560  208.7440  152.5390 C   0  0  0  0  0  0  0  0  0  0  0  0
  160.0620  204.6580  152.0790 O   0  0  0  0  0  0  0  0  0  0  0  0
  162.3720  204.2560  151.3890 O   0  0  0  0  0  0  0  0  0  0  0  0
  161.1580  205.1180  151.1590 S   0  0  0  0  0  0  0  0  0  0  0  0
  160.0980  206.3250  148.9570 C   0  0  0  0  0  1  0  0  0  0  0  0
  160.6450  204.9960  149.4430 C   0  0  1  0  0  3  0  0  0  0  0  0
  161.7950  204.5770  148.5340 C   0  0  0  0  0  2  0  0  0  0  0  0
  161.3140  204.0380  147.1820 C   0  0  1  0  0  3  0  0  0  0  0  0
  162.2320  204.4240  146.0150 C   0  0  0  0  0  3  0  0  0  0  0  0
  161.5220  204.4380  144.8130 O   0  0  0  0  0  1  0  0  0  0  0  0
  162.8280  205.6700  146.2250 O   0  0  0  0  0  1  0  0  0  0  0  0
  161.1140  202.5400  147.2160 C   0  0  0  0  0  0  0  0  0  0  0  0
  160.7840  201.7800  148.6340 S   0  0  0  0  0  0  0  0  0  0  0  0
  161.3260  201.7440  146.0800 O   0  0  0  0  0  0  0  0  0  0  0  0
  159.2940  201.5000  145.0420 O   0  0  0  0  0  0  0  0  0  0  0  0
  160.5790  199.5760  145.1840 N   0  0  0  0  0  1  0  0  0  0  0  0
  160.3530  200.9570  145.4520 C   0  0  0  0  0  0  0  0  0  0  0  0
  2 24  1  0  0  0  0
  2  4  1  0  0  0  0
  2  1  1  1  0  0  0
  3  8  1  6  0  0  0
  3  4  1  0  0  0  0
  5  3  1  0  0  0  0
  5  2  1  0  0  0  0
  5  4  1  0  0  0  0
  7  8  1  0  0  0  0
  8  6  2  0  0  0  0
  9 17  1  0  0  0  0
  9  7  1  0  0  0  0
 10  9  1  0  0  0  0
 11 10  1  0  0  0  0
 13 12  1  0  0  0  0
 13 10  1  0  0  0  0
 14 13  1  0  0  0  0
 15 16  1  0  0  0  0
 16 14  1  0  0  0  0
 17 18  1  0  0  0  0
 19 20  1  0  0  0  0
 20 18  1  0  0  0  0
 20 22  1  0  0  0  0
 22 21  1  0  0  0  0
 24 23  1  0  0  0  0
 25  5  1  0  0  0  0
 26 28  2  0  0  0  0
 26 27  1  0  0  0  0
 27 29  1  0  0  0  0
 28 30  1  0  0  0  0
 30 29  2  0  0  0  0
 30 25  1  0  0  0  0
 33 32  2  0  0  0  0
 33 27  1  0  0  0  0
 33 31  2  0  0  0  0
 34 35  1  0  0  0  0
 35 33  1  0  0  0  0
 36 35  1  0  0  0  0
 37 41  1  0  0  0  0
 37 36  1  0  0  0  0
 38 40  1  0  0  0  0
 38 37  1  0  0  0  0
 39 38  1  0  0  0  0
 41 42  2  0  0  0  0
 43 41  1  0  0  0  0
 44 46  2  0  0  0  0
 45 46  1  0  0  0  0
 46 43  1  0  0  0  0
M  END
>  <MODEL>
5

>  <REMARK>
 VINA RESULT:      -5.0      4.473      9.966
  Name = 
  21 active torsions:
  status: ('A' for Active; 'I' for Inactive)
    1  A    between atoms: C_1  and  C_29
    2  A    between atoms: C_1  and  O_36
    3  A    between atoms: C_2  and  C_39
    4  A    between atoms: C_2  and  C_46
    5  A    between atoms: C_10  and  C_21
    6  A    between atoms: C_10  and  C_45
    7  A    between atoms: C_14  and  O_27
    8  A    between atoms: C_16  and  N_19
    9  A    between atoms: C_16  and  C_44
   10  A    between atoms: C_17  and  C_18
   11  A    between atoms: C_17  and  S_31
   12  A    between atoms: C_18  and  C_29
   13  A    between atoms: N_19  and  CA_38
   14  A    between atoms: C_21  and  C_44
   15  A    between atoms: C_22  and  C_40
   16  A    between atoms: N_23  and  S_31
   17  A    between atoms: C_24  and  C_29
   18  A    between atoms: C_25  and  O_36
   19  A    between atoms: N_26  and  C_44
   20  A    between atoms: C_33  and  CA_38
   21  A    between atoms: C_41  and  C_45
                            x       y       z     vdW  Elec       q    Type
                         _______ _______ _______ _____ _____    ______ ____

>  <TORSDO>
F 21

$$$$
=
 OpenBabel11072413543D

 46 48  0  0  1  0  0  0  0  0999 V2000
  163.0890  208.2270  148.2830 O   0  0  0  0  0  1  0  0  0  0  0  0
  161.8910  208.1390  148.9940 C   0  0  2  0  0  0  0  0  0  0  0  0
  162.3680  209.5840  150.8400 C   0  0  2  0  0  3  0  0  0  0  0  0
  161.5090  209.3990  149.6540 N   0  0  2  0  0  0  0  0  0  0  0  0
  161.9670  208.2160  150.4510 C   0  0  1  0  0  0  0  0  0  0  0  0
  161.7960  209.7850  153.1680 O   0  0  0  0  0  0  0  0  0  0  0  0
  160.6360  211.1980  151.7120 N   0  0  0  0  0  2  0  0  0  0  0  0
  161.6000  210.1790  151.9880 C   0  0  0  0  0  0  0  0  0  0  0  0
  159.8900  211.9020  152.7490 C   0  0  1  0  0  3  0  0  0  0  0  0
  159.5900  213.3260  152.2790 C   0  0  1  0  0  3  0  0  0  0  0  0
  160.3740  213.6520  151.1680 O   0  0  0  0  0  1  0  0  0  0  0  0
  157.4520  214.2980  153.0150 N   0  0  0  0  0  1  0  0  0  0  0  0
  158.0980  213.5210  151.9700 C   0  0  1  0  0  3  0  0  0  0  0  0
  157.8120  214.0930  150.5750 C   0  0  0  0  0  2  0  0  0  0  0  0
  156.0890  213.9300  148.8590 N   0  0  0  0  0  1  0  0  0  0  0  0
  157.0050  213.1610  149.6780 C   0  0  0  0  0  2  0  0  0  0  0  0
  158.5890  211.1610  153.0280 C   0  0  0  0  0  2  0  0  0  0  0  0
  158.2850  211.2200  154.4570 N   0  0  0  0  0  2  0  0  0  0  0  0
  159.8970  210.2420  156.0570 C   0  0  0  0  0  1  0  0  0  0  0  0
  159.5040  211.4610  155.2390 C   0  0  2  0  0  3  0  0  0  0  0  0
  158.0820  213.1670  156.1350 O   0  0  0  0  0  1  0  0  0  0  0  0
  159.3990  212.7020  156.1180 C   0  0  0  0  0  2  0  0  0  0  0  0
  161.0020  207.5910  147.0910 O   0  0  0  0  0  1  0  0  0  0  0  0
  160.8170  207.4650  148.3910 O   0  0  0  0  0  0  0  0  0  0  0  0
  160.7480  207.6220  151.1650 C   0  0  0  0  0  2  0  0  0  0  0  0
  161.4900  204.0610  152.3190 C   0  0  0  0  0  3  0  0  0  0  0  0
  160.9090  203.9650  150.9910 N   0  0  0  0  0  0  0  0  0  0  0  0
  161.4790  205.5580  152.6300 C   0  0  0  0  0  3  0  0  0  0  0  0
  160.6100  205.2530  150.4860 C   0  0  0  0  0  3  0  0  0  0  0  0
  160.9250  206.1620  151.3810 C   0  0  0  0  0  0  0  0  0  0  0  0
  159.2990  202.1240  149.9840 O   0  0  0  0  0  0  0  0  0  0  0  0
  161.4780  201.3970  150.8180 O   0  0  0  0  0  0  0  0  0  0  0  0
  160.7520  202.4970  150.0880 S   0  0  0  0  0  0  0  0  0  0  0  0
  161.5920  201.3900  147.7430 C   0  0  0  0  0  1  0  0  0  0  0  0
  161.4730  202.7220  148.4590 C   0  0  1  0  0  3  0  0  0  0  0  0
  160.6450  203.6700  147.5980 C   0  0  0  0  0  2  0  0  0  0  0  0
  161.5120  204.5550  146.6940 C   0  0  1  0  0  3  0  0  0  0  0  0
  163.0110  204.4560  147.0060 C   0  0  0  0  0  3  0  0  0  0  0  0
  163.7480  204.2790  145.8340 O   0  0  0  0  0  1  0  0  0  0  0  0
  163.4660  205.5910  147.6840 O   0  0  0  0  0  1  0  0  0  0  0  0
  161.2640  204.2700  145.2300 C   0  0  0  0  0  0  0  0  0  0  0  0
  161.0890  205.5060  144.1630 S   0  0  0  0  0  0  0  0  0  0  0  0
  161.0510  202.9650  144.7610 O   0  0  0  0  0  0  0  0  0  0  0  0
  158.8330  203.0390  144.1760 O   0  0  0  0  0  0  0  0  0  0  0  0
  159.6220  200.9620  144.8360 N   0  0  0  0  0  1  0  0  0  0  0  0
  159.8000  202.3570  144.6060 C   0  0  0  0  0  0  0  0  0  0  0  0
  2  1  1  6  0  0  0
  2  4  1  0  0  0  0
  2  5  1  0  0  0  0
  3  8  1  1  0  0  0
  4  5  1  0  0  0  0
  4  3  1  0  0  0  0
  5  3  1  0  0  0  0
  5 25  1  0  0  0  0
  7  8  1  0  0  0  0
  7  9  1  0  0  0  0
  8  6  2  0  0  0  0
  9 17  1  0  0  0  0
 10  9  1  0  0  0  0
 11 10  1  0  0  0  0
 13 10  1  0  0  0  0
 13 12  1  0  0  0  0
 14 13  1  0  0  0  0
 15 16  1  0  0  0  0
 16 14  1  0  0  0  0
 17 18  1  0  0  0  0
 18 20  1  0  0  0  0
 20 19  1  0  0  0  0
 20 22  1  0  0  0  0
 22 21  1  0  0  0  0
 23 24  1  0  0  0  0
 24  2  1  0  0  0  0
 25 30  1  0  0  0  0
 26 28  2  0  0  0  0
 27 26  1  0  0  0  0
 29 27  1  0  0  0  0
 29 30  2  0  0  0  0
 30 28  1  0  0  0  0
 31 33  2  0  0  0  0
 33 32  2  0  0  0  0
 33 27  1  0  0  0  0
 34 35  1  0  0  0  0
 35 33  1  0  0  0  0
 36 35  1  0  0  0  0
 37 38  1  0  0  0  0
 37 36  1  0  0  0  0
 38 40  1  0  0  0  0
 39 38  1  0  0  0  0
 41 37  1  0  0  0  0
 42 41  2  0  0  0  0
 43 41  1  0  0  0  0
 44 46  2  0  0  0  0
 46 43  1  0  0  0  0
 46 45  1  0  0  0  0
M  END
>  <MODEL>
6

>  <REMARK>
 VINA RESULT:      -4.2      4.428      8.899
  Name = 
  21 active torsions:
  status: ('A' for Active; 'I' for Inactive)
    1  A    between atoms: C_1  and  C_29
    2  A    between atoms: C_1  and  O_36
    3  A    between atoms: C_2  and  C_39
    4  A    between atoms: C_2  and  C_46
    5  A    between atoms: C_10  and  C_21
    6  A    between atoms: C_10  and  C_45
    7  A    between atoms: C_14  and  O_27
    8  A    between atoms: C_16  and  N_19
    9  A    between atoms: C_16  and  C_44
   10  A    between atoms: C_17  and  C_18
   11  A    between atoms: C_17  and  S_31
   12  A    between atoms: C_18  and  C_29
   13  A    between atoms: N_19  and  CA_38
   14  A    between atoms: C_21  and  C_44
   15  A    between atoms: C_22  and  C_40
   16  A    between atoms: N_23  and  S_31
   17  A    between atoms: C_24  and  C_29
   18  A    between atoms: C_25  and  O_36
   19  A    between atoms: N_26  and  C_44
   20  A    between atoms: C_33  and  CA_38
   21  A    between atoms: C_41  and  C_45
                            x       y       z     vdW  Elec       q    Type
                         _______ _______ _______ _____ _____    ______ ____

>  <TORSDO>
F 21

$$$$
=
 OpenBabel11072413543D

 46 48  0  0  1  0  0  0  0  0999 V2000
  160.8840  205.6320  153.5880 O   0  0  0  0  0  1  0  0  0  0  0  0
  161.6190  206.4370  152.7170 C   0  0  2  0  0  0  0  0  0  0  0  0
  160.6890  208.5850  153.2100 C   0  0  2  0  0  3  0  0  0  0  0  0
  161.9190  207.7710  153.2660 N   0  0  2  0  0  0  0  0  0  0  0  0
  160.9440  207.5970  152.1410 C   0  0  1  0  0  0  0  0  0  0  0  0
  162.1790  210.4270  152.7890 O   0  0  0  0  0  0  0  0  0  0  0  0
  159.8990  210.9000  152.5900 N   0  0  0  0  0  2  0  0  0  0  0  0
  160.9910  210.0150  152.8520 C   0  0  0  0  0  0  0  0  0  0  0  0
  160.0690  212.2830  152.1590 C   0  0  1  0  0  3  0  0  0  0  0  0
  159.9110  212.3630  150.6410 C   0  0  1  0  0  3  0  0  0  0  0  0
  158.9460  213.3140  150.2960 O   0  0  0  0  0  1  0  0  0  0  0  0
  161.7830  211.4660  149.3190 N   0  0  0  0  0  1  0  0  0  0  0  0
  161.2460  212.6630  149.9430 C   0  0  1  0  0  3  0  0  0  0  0  0
  161.1950  213.8440  148.9640 C   0  0  0  0  0  2  0  0  0  0  0  0
  160.8530  214.4030  146.6160 N   0  0  0  0  0  1  0  0  0  0  0  0
  160.3820  213.5690  147.7040 C   0  0  0  0  0  2  0  0  0  0  0  0
  159.0250  213.1570  152.8390 C   0  0  0  0  0  2  0  0  0  0  0  0
  158.0880  212.3180  153.5840 N   0  0  0  0  0  2  0  0  0  0  0  0
  158.8140  212.3800  155.9480 C   0  0  0  0  0  1  0  0  0  0  0  0
  157.8230  212.8860  154.9120 C   0  0  2  0  0  3  0  0  0  0  0  0
  155.8250  211.5890  154.6710 O   0  0  0  0  0  1  0  0  0  0  0  0
  156.3870  212.6600  155.3700 C   0  0  0  0  0  2  0  0  0  0  0  0
  162.3150  204.6160  151.7620 O   0  0  0  0  0  1  0  0  0  0  0  0
  162.6960  205.8500  152.0310 O   0  0  0  0  0  0  0  0  0  0  0  0
  161.6010  208.1190  150.8570 C   0  0  0  0  0  2  0  0  0  0  0  0
  160.3180  205.6000  148.2930 C   0  0  0  0  0  3  0  0  0  0  0  0
  161.5680  206.1310  147.7800 N   0  0  0  0  0  0  0  0  0  0  0  0
  160.0990  206.3530  149.6070 C   0  0  0  0  0  3  0  0  0  0  0  0
  162.1160  207.0730  148.6820 C   0  0  0  0  0  3  0  0  0  0  0  0
  161.3160  207.2110  149.7150 C   0  0  0  0  0  0  0  0  0  0  0  0
  163.5730  204.7700  146.7180 O   0  0  0  0  0  0  0  0  0  0  0  0
  162.8010  206.7660  145.5370 O   0  0  0  0  0  0  0  0  0  0  0  0
  162.3590  205.5730  146.3440 S   0  0  0  0  0  0  0  0  0  0  0  0
  161.1970  205.0420  143.9360 C   0  0  0  0  0  1  0  0  0  0  0  0
  161.2100  204.5830  145.3810 C   0  0  1  0  0  3  0  0  0  0  0  0
  161.5640  203.1010  145.4230 C   0  0  0  0  0  2  0  0  0  0  0  0
  160.5310  202.2680  146.1900 C   0  0  1  0  0  3  0  0  0  0  0  0
  159.6770  201.3740  145.2810 C   0  0  0  0  0  3  0  0  0  0  0  0
  158.9530  202.1460  144.3720 O   0  0  0  0  0  1  0  0  0  0  0  0
  160.4650  200.4480  144.5920 O   0  0  0  0  0  1  0  0  0  0  0  0
  161.1760  201.4410  147.2780 C   0  0  0  0  0  0  0  0  0  0  0  0
  161.5460  199.8630  147.0120 S   0  0  0  0  0  0  0  0  0  0  0  0
  161.3610  201.9470  148.5740 O   0  0  0  0  0  0  0  0  0  0  0  0
  159.3240  201.4000  149.4780 O   0  0  0  0  0  0  0  0  0  0  0  0
  161.0620  201.6150  150.9950 N   0  0  0  0  0  1  0  0  0  0  0  0
  160.5360  201.6760  149.6720 C   0  0  0  0  0  0  0  0  0  0  0  0
  2  4  1  0  0  0  0
  2  1  1  1  0  0  0
  3  8  1  6  0  0  0
  3  4  1  0  0  0  0
  5  2  1  0  0  0  0
  5  3  1  0  0  0  0
  5  4  1  0  0  0  0
  6  8  2  0  0  0  0
  7  8  1  0  0  0  0
  9  7  1  0  0  0  0
  9 17  1  0  0  0  0
 10  9  1  0  0  0  0
 11 10  1  0  0  0  0
 12 13  1  0  0  0  0
 13 10  1  0  0  0  0
 14 13  1  0  0  0  0
 15 16  1  0  0  0  0
 16 14  1  0  0  0  0
 17 18  1  0  0  0  0
 18 20  1  0  0  0  0
 20 22  1  0  0  0  0
 20 19  1  0  0  0  0
 21 22  1  0  0  0  0
 23 24  1  0  0  0  0
 24  2  1  0  0  0  0
 25  5  1  0  0  0  0
 26 28  2  0  0  0  0
 27 26  1  0  0  0  0
 27 29  1  0  0  0  0
 28 30  1  0  0  0  0
 29 30  2  0  0  0  0
 30 25  1  0  0  0  0
 32 33  2  0  0  0  0
 33 31  2  0  0  0  0
 33 27  1  0  0  0  0
 34 35  1  0  0  0  0
 35 36  1  0  0  0  0
 35 33  1  0  0  0  0
 36 37  1  0  0  0  0
 37 41  1  0  0  0  0
 38 37  1  0  0  0  0
 39 38  1  0  0  0  0
 40 38  1  0  0  0  0
 41 43  1  0  0  0  0
 42 41  2  0  0  0  0
 43 46  1  0  0  0  0
 44 46  2  0  0  0  0
 46 45  1  0  0  0  0
M  END
>  <MODEL>
7

>  <REMARK>
 VINA RESULT:      -4.1      3.784      9.517
  Name = 
  21 active torsions:
  status: ('A' for Active; 'I' for Inactive)
    1  A    between atoms: C_1  and  C_29
    2  A    between atoms: C_1  and  O_36
    3  A    between atoms: C_2  and  C_39
    4  A    between atoms: C_2  and  C_46
    5  A    between atoms: C_10  and  C_21
    6  A    between atoms: C_10  and  C_45
    7  A    between atoms: C_14  and  O_27
    8  A    between atoms: C_16  and  N_19
    9  A    between atoms: C_16  and  C_44
   10  A    between atoms: C_17  and  C_18
   11  A    between atoms: C_17  and  S_31
   12  A    between atoms: C_18  and  C_29
   13  A    between atoms: N_19  and  CA_38
   14  A    between atoms: C_21  and  C_44
   15  A    between atoms: C_22  and  C_40
   16  A    between atoms: N_23  and  S_31
   17  A    between atoms: C_24  and  C_29
   18  A    between atoms: C_25  and  O_36
   19  A    between atoms: N_26  and  C_44
   20  A    between atoms: C_33  and  CA_38
   21  A    between atoms: C_41  and  C_45
                            x       y       z     vdW  Elec       q    Type
                         _______ _______ _______ _____ _____    ______ ____

>  <TORSDO>
F 21

$$$$
=
 OpenBabel11072413543D

 46 48  0  0  1  0  0  0  0  0999 V2000
  163.2240  208.0490  148.3730 O   0  0  0  0  0  1  0  0  0  0  0  0
  161.9660  207.9190  148.9620 C   0  0  2  0  0  0  0  0  0  0  0  0
  162.3190  209.0890  151.0180 C   0  0  2  0  0  3  0  0  0  0  0  0
  161.5650  209.0980  149.7500 N   0  0  2  0  0  0  0  0  0  0  0  0
  161.9130  207.8020  150.4170 C   0  0  1  0  0  0  0  0  0  0  0  0
  161.2460  208.8110  153.1540 O   0  0  0  0  0  0  0  0  0  0  0  0
  160.9160  210.8780  152.1130 N   0  0  0  0  0  2  0  0  0  0  0  0
  161.4700  209.5610  152.1670 C   0  0  0  0  0  0  0  0  0  0  0  0
  160.1440  211.4720  153.1980 C   0  0  1  0  0  3  0  0  0  0  0  0
  158.6650  211.4920  152.8160 C   0  0  1  0  0  3  0  0  0  0  0  0
  157.8690  211.1360  153.9090 O   0  0  0  0  0  1  0  0  0  0  0  0
  157.3680  213.5510  153.1880 N   0  0  0  0  0  1  0  0  0  0  0  0
  158.2400  212.8580  152.2550 C   0  0  1  0  0  3  0  0  0  0  0  0
  159.4090  213.7430  151.7990 C   0  0  0  0  0  2  0  0  0  0  0  0
  160.4680  213.1960  149.6730 N   0  0  0  0  0  1  0  0  0  0  0  0
  159.4390  214.0040  150.2970 C   0  0  0  0  0  2  0  0  0  0  0  0
  160.3440  210.6540  154.4670 C   0  0  0  0  0  2  0  0  0  0  0  0
  160.9530  211.4880  155.5010 N   0  0  0  0  0  2  0  0  0  0  0  0
  163.2480  210.7410  156.0410 C   0  0  0  0  0  1  0  0  0  0  0  0
  161.7750  210.6770  156.4080 C   0  0  2  0  0  3  0  0  0  0  0  0
  160.1220  209.1670  157.2570 O   0  0  0  0  0  1  0  0  0  0  0  0
  161.2940  209.2330  156.5000 C   0  0  0  0  0  2  0  0  0  0  0  0
  161.4070  207.3000  146.9570 O   0  0  0  0  0  1  0  0  0  0  0  0
  160.9290  207.3760  148.1850 O   0  0  0  0  0  0  0  0  0  0  0  0
  160.6160  207.1720  150.9390 C   0  0  0  0  0  2  0  0  0  0  0  0
  161.4410  203.7520  152.4170 C   0  0  0  0  0  3  0  0  0  0  0  0
  160.8750  203.5210  151.1000 N   0  0  0  0  0  0  0  0  0  0  0  0
  161.3890  205.2710  152.5900 C   0  0  0  0  0  3  0  0  0  0  0  0
  160.5470  204.7480  150.4780 C   0  0  0  0  0  3  0  0  0  0  0  0
  160.8300  205.7430  151.2880 C   0  0  0  0  0  0  0  0  0  0  0  0
  159.3400  201.4930  150.3730 O   0  0  0  0  0  0  0  0  0  0  0  0
  161.6230  200.9920  151.0890 O   0  0  0  0  0  0  0  0  0  0  0  0
  160.7640  201.9720  150.3330 S   0  0  0  0  0  0  0  0  0  0  0  0
  161.5980  200.7290  148.0550 C   0  0  0  0  0  1  0  0  0  0  0  0
  161.3460  202.1060  148.6390 C   0  0  1  0  0  3  0  0  0  0  0  0
  160.3480  202.8420  147.7520 C   0  0  0  0  0  2  0  0  0  0  0  0
  161.0310  203.6970  146.6780 C   0  0  1  0  0  3  0  0  0  0  0  0
  162.5520  203.7870  146.8520 C   0  0  0  0  0  3  0  0  0  0  0  0
  163.1810  203.9520  145.6170 O   0  0  0  0  0  1  0  0  0  0  0  0
  162.9070  204.8360  147.7060 O   0  0  0  0  0  1  0  0  0  0  0  0
  160.6920  203.2200  145.2850 C   0  0  0  0  0  0  0  0  0  0  0  0
  160.1290  201.6960  145.0430 S   0  0  0  0  0  0  0  0  0  0  0  0
  160.9620  204.0050  144.1530 O   0  0  0  0  0  0  0  0  0  0  0  0
  161.4450  206.0280  143.1840 O   0  0  0  0  0  0  0  0  0  0  0  0
  159.9620  206.1040  144.9640 N   0  0  0  0  0  1  0  0  0  0  0  0
  160.8370  205.3980  144.0880 C   0  0  0  0  0  0  0  0  0  0  0  0
  2  1  1  6  0  0  0
  2  4  1  0  0  0  0
  2  5  1  0  0  0  0
  3  8  1  1  0  0  0
  4  5  1  0  0  0  0
  4  3  1  0  0  0  0
  5 25  1  0  0  0  0
  5  3  1  0  0  0  0
  7  8  1  0  0  0  0
  7  9  1  0  0  0  0
  8  6  2  0  0  0  0
  9 17  1  0  0  0  0
 10  9  1  0  0  0  0
 10 11  1  0  0  0  0
 13 10  1  0  0  0  0
 13 12  1  0  0  0  0
 14 13  1  0  0  0  0
 15 16  1  0  0  0  0
 16 14  1  0  0  0  0
 17 18  1  0  0  0  0
 18 20  1  0  0  0  0
 19 20  1  0  0  0  0
 20 22  1  0  0  0  0
 22 21  1  0  0  0  0
 23 24  1  0  0  0  0
 24  2  1  0  0  0  0
 25 30  1  0  0  0  0
 26 28  2  0  0  0  0
 27 26  1  0  0  0  0
 29 27  1  0  0  0  0
 29 30  2  0  0  0  0
 30 28  1  0  0  0  0
 33 31  2  0  0  0  0
 33 32  2  0  0  0  0
 33 27  1  0  0  0  0
 34 35  1  0  0  0  0
 35 33  1  0  0  0  0
 36 35  1  0  0  0  0
 37 38  1  0  0  0  0
 37 36  1  0  0  0  0
 38 40  1  0  0  0  0
 39 38  1  0  0  0  0
 41 37  1  0  0  0  0
 42 41  2  0  0  0  0
 43 41  1  0  0  0  0
 44 46  2  0  0  0  0
 46 43  1  0  0  0  0
 46 45  1  0  0  0  0
M  END
>  <MODEL>
8

>  <REMARK>
 VINA RESULT:      -3.9      4.625      8.537
  Name = 
  21 active torsions:
  status: ('A' for Active; 'I' for Inactive)
    1  A    between atoms: C_1  and  C_29
    2  A    between atoms: C_1  and  O_36
    3  A    between atoms: C_2  and  C_39
    4  A    between atoms: C_2  and  C_46
    5  A    between atoms: C_10  and  C_21
    6  A    between atoms: C_10  and  C_45
    7  A    between atoms: C_14  and  O_27
    8  A    between atoms: C_16  and  N_19
    9  A    between atoms: C_16  and  C_44
   10  A    between atoms: C_17  and  C_18
   11  A    between atoms: C_17  and  S_31
   12  A    between atoms: C_18  and  C_29
   13  A    between atoms: N_19  and  CA_38
   14  A    between atoms: C_21  and  C_44
   15  A    between atoms: C_22  and  C_40
   16  A    between atoms: N_23  and  S_31
   17  A    between atoms: C_24  and  C_29
   18  A    between atoms: C_25  and  O_36
   19  A    between atoms: N_26  and  C_44
   20  A    between atoms: C_33  and  CA_38
   21  A    between atoms: C_41  and  C_45
                            x       y       z     vdW  Elec       q    Type
                         _______ _______ _______ _____ _____    ______ ____

>  <TORSDO>
F 21

$$$$
=
 OpenBabel11072413543D

 46 48  0  0  1  0  0  0  0  0999 V2000
  162.2970  208.4610  156.2030 O   0  0  0  0  0  1  0  0  0  0  0  0
  161.1750  208.3800  155.3760 C   0  0  2  0  0  0  0  0  0  0  0  0
  161.9090  206.7410  153.7960 C   0  0  2  0  0  3  0  0  0  0  0  0
  160.9260  207.0230  154.8600 N   0  0  2  0  0  0  0  0  0  0  0  0
  161.4030  208.1200  153.9570 C   0  0  1  0  0  0  0  0  0  0  0  0
  160.5350  204.9770  152.9070 O   0  0  0  0  0  0  0  0  0  0  0  0
  161.5920  206.3360  151.3260 N   0  0  0  0  0  2  0  0  0  0  0  0
  161.2930  205.9550  152.6710 C   0  0  0  0  0  0  0  0  0  0  0  0
  160.9930  205.7010  150.1570 C   0  0  1  0  0  3  0  0  0  0  0  0
  161.3650  206.4930  148.9040 C   0  0  1  0  0  3  0  0  0  0  0  0
  162.7540  206.5920  148.7790 O   0  0  0  0  0  1  0  0  0  0  0  0
  160.8980  206.7760  146.5040 N   0  0  0  0  0  1  0  0  0  0  0  0
  160.7460  205.8810  147.6390 C   0  0  1  0  0  3  0  0  0  0  0  0
  161.2380  204.4630  147.3170 C   0  0  0  0  0  2  0  0  0  0  0  0
  163.2720  205.0910  146.1290 N   0  0  0  0  0  1  0  0  0  0  0  0
  162.0240  204.3610  146.0150 C   0  0  0  0  0  2  0  0  0  0  0  0
  161.5040  204.2710  150.0420 C   0  0  0  0  0  2  0  0  0  0  0  0
  160.3790  203.3400  150.0930 N   0  0  0  0  0  2  0  0  0  0  0  0
  161.9350  202.2030  151.6430 C   0  0  0  0  0  1  0  0  0  0  0  0
  160.7990  202.0460  150.6460 C   0  0  2  0  0  3  0  0  0  0  0  0
  160.5930  201.4210  148.3440 O   0  0  0  0  0  1  0  0  0  0  0  0
  161.1540  201.0340  149.5630 C   0  0  0  0  0  2  0  0  0  0  0  0
  160.4140  210.2510  156.1720 O   0  0  0  0  0  1  0  0  0  0  0  0
  160.0120  209.0580  155.7780 O   0  0  0  0  0  0  0  0  0  0  0  0
  160.2340  208.5380  153.0570 C   0  0  0  0  0  2  0  0  0  0  0  0
  160.8240  211.9940  151.5500 C   0  0  0  0  0  3  0  0  0  0  0  0
  161.3440  211.0220  150.6040 N   0  0  0  0  0  0  0  0  0  0  0  0
  160.3280  211.1500  152.7250 C   0  0  0  0  0  3  0  0  0  0  0  0
  161.1560  209.7070  151.0890 C   0  0  0  0  0  3  0  0  0  0  0  0
  160.5840  209.7500  152.2710 C   0  0  0  0  0  0  0  0  0  0  0  0
  161.9070  210.1910  148.1570 O   0  0  0  0  0  0  0  0  0  0  0  0
  163.3990  211.8410  149.1690 O   0  0  0  0  0  0  0  0  0  0  0  0
  161.9620  211.4100  149.0340 S   0  0  0  0  0  0  0  0  0  0  0  0
  160.9320  213.9220  149.2890 C   0  0  0  0  0  1  0  0  0  0  0  0
  160.9930  212.7480  148.3290 C   0  0  1  0  0  3  0  0  0  0  0  0
  161.5680  213.2290  147.0020 C   0  0  0  0  0  2  0  0  0  0  0  0
  160.7240  212.7910  145.7990 C   0  0  1  0  0  3  0  0  0  0  0  0
  159.3920  213.5430  145.6880 C   0  0  0  0  0  3  0  0  0  0  0  0
  159.3910  214.3820  144.5730 O   0  0  0  0  0  1  0  0  0  0  0  0
  158.3110  212.6590  145.6150 O   0  0  0  0  0  1  0  0  0  0  0  0
  161.4960  212.9020  144.5040 C   0  0  0  0  0  0  0  0  0  0  0  0
  163.0820  213.3280  144.5180 S   0  0  0  0  0  0  0  0  0  0  0  0
  160.8630  212.7730  143.2580 O   0  0  0  0  0  0  0  0  0  0  0  0
  162.4690  212.8300  141.6190 O   0  0  0  0  0  0  0  0  0  0  0  0
  161.0000  211.0410  141.5140 N   0  0  0  0  0  1  0  0  0  0  0  0
  161.4580  212.2550  142.1010 C   0  0  0  0  0  0  0  0  0  0  0  0
  2 24  1  0  0  0  0
  2  1  1  1  0  0  0
  3  8  1  6  0  0  0
  3  5  1  0  0  0  0
  3  4  1  0  0  0  0
  4  2  1  0  0  0  0
  5  4  1  0  0  0  0
  5  2  1  0  0  0  0
  7  8  1  0  0  0  0
  8  6  2  0  0  0  0
  9  7  1  0  0  0  0
 10  9  1  0  0  0  0
 11 10  1  0  0  0  0
 12 13  1  0  0  0  0
 13 10  1  0  0  0  0
 14 13  1  0  0  0  0
 16 15  1  0  0  0  0
 16 14  1  0  0  0  0
 17 18  1  0  0  0  0
 17  9  1  0  0  0  0
 18 20  1  0  0  0  0
 20 19  1  0  0  0  0
 21 22  1  0  0  0  0
 22 20  1  0  0  0  0
 24 23  1  0  0  0  0
 25  5  1  0  0  0  0
 26 28  2  0  0  0  0
 27 29  1  0  0  0  0
 27 26  1  0  0  0  0
 29 30  2  0  0  0  0
 30 28  1  0  0  0  0
 30 25  1  0  0  0  0
 31 33  2  0  0  0  0
 33 32  2  0  0  0  0
 33 27  1  0  0  0  0
 35 33  1  0  0  0  0
 35 34  1  0  0  0  0
 36 35  1  0  0  0  0
 37 36  1  0  0  0  0
 38 37  1  0  0  0  0
 39 38  1  0  0  0  0
 40 38  1  0  0  0  0
 41 42  2  0  0  0  0
 41 37  1  0  0  0  0
 43 41  1  0  0  0  0
 44 46  2  0  0  0  0
 45 46  1  0  0  0  0
 46 43  1  0  0  0  0
M  END
>  <MODEL>
9

>  <REMARK>
 VINA RESULT:      -3.8      2.287      5.001
  Name = 
  21 active torsions:
  status: ('A' for Active; 'I' for Inactive)
    1  A    between atoms: C_1  and  C_29
    2  A    between atoms: C_1  and  O_36
    3  A    between atoms: C_2  and  C_39
    4  A    between atoms: C_2  and  C_46
    5  A    between atoms: C_10  and  C_21
    6  A    between atoms: C_10  and  C_45
    7  A    between atoms: C_14  and  O_27
    8  A    between atoms: C_16  and  N_19
    9  A    between atoms: C_16  and  C_44
   10  A    between atoms: C_17  and  C_18
   11  A    between atoms: C_17  and  S_31
   12  A    between atoms: C_18  and  C_29
   13  A    between atoms: N_19  and  CA_38
   14  A    between atoms: C_21  and  C_44
   15  A    between atoms: C_22  and  C_40
   16  A    between atoms: N_23  and  S_31
   17  A    between atoms: C_24  and  C_29
   18  A    between atoms: C_25  and  O_36
   19  A    between atoms: N_26  and  C_44
   20  A    between atoms: C_33  and  CA_38
   21  A    between atoms: C_41  and  C_45
                            x       y       z     vdW  Elec       q    Type
                         _______ _______ _______ _____ _____    ______ ____

>  <TORSDO>
F 21

$$$$
