=
 OpenBabel11072412213D

 27 30  0  0  1  0  0  0  0  0999 V2000
  158.9590  213.3470  152.4930 C   0  0  0  0  0  0  0  0  0  0  0  0
  160.1080  210.0880  153.8430 C   0  0  0  0  0  0  0  0  0  0  0  0
  159.5100  210.9240  152.7560 C   0  0  0  0  0  2  0  0  0  0  0  0
  157.5910  213.1630  155.0650 C   0  0  0  0  0  2  0  0  0  0  0  0
  160.4240  209.1390  155.8230 C   0  0  0  0  0  0  0  0  0  0  0  0
  158.3470  212.1560  154.6370 C   0  0  0  0  0  0  0  0  0  0  0  0
  160.2530  208.8510  157.2060 N   0  0  0  0  0  1  0  0  0  0  0  0
  159.2200  214.4520  153.0420 O   0  0  0  0  0  0  0  0  0  0  0  0
  157.3620  210.2040  155.5650 O   0  0  0  0  0  1  0  0  0  0  0  0
  161.2870  208.5290  155.0800 N   0  0  0  0  0  0  0  0  0  0  0  0
  161.1920  209.0560  153.7150 C   0  0  1  0  0  3  0  0  0  0  0  0
  158.9110  212.1520  153.2980 N   0  0  0  0  0  0  0  0  0  0  0  0
  158.5290  210.9700  155.5500 C   0  0  1  0  0  3  0  0  0  0  0  0
  159.6720  210.1240  155.0830 C   0  0  0  0  0  0  0  0  0  0  0  0
  159.8090  213.3780  150.1440 C   0  0  0  0  0  3  0  0  0  0  0  0
  157.2110  213.2240  149.1280 C   0  0  0  0  0  3  0  0  0  0  0  0
  158.3000  213.2820  148.2540 C   0  0  0  0  0  3  0  0  0  0  0  0
  157.4230  213.2420  150.5090 C   0  0  0  0  0  3  0  0  0  0  0  0
  158.7230  213.3110  151.0300 C   0  0  0  0  0  0  0  0  0  0  0  0
  159.5990  213.3610  148.7620 C   0  0  0  0  0  3  0  0  0  0  0  0
  161.4900  206.6290  153.0430 C   0  0  0  0  0  2  0  0  0  0  0  0
  161.1570  206.8540  150.6330 C   0  0  0  0  0  2  0  0  0  0  0  0
  160.7870  207.9370  152.7440 C   0  0  2  0  0  3  0  0  0  0  0  0
  161.0930  208.2270  151.2780 C   0  0  1  0  0  3  0  0  0  0  0  0
  161.4970  205.8610  151.7350 C   0  0  0  0  0  2  0  0  0  0  0  0
  162.2060  209.9850  150.1990 C   0  0  0  0  0  1  0  0  0  0  0  0
  162.3870  208.8840  151.1290 N   0  0  0  0  0  2  0  0  0  0  0  0
  1  8  2  0  0  0  0
  1 12  1  0  0  0  0
  2 14  2  0  0  0  0
  3 12  1  0  0  0  0
  3  2  1  0  0  0  0
  5  7  1  0  0  0  0
  6  4  2  0  0  0  0
  6 13  1  0  0  0  0
 10  5  2  0  0  0  0
 11  2  1  1  0  0  0
 11 10  1  0  0  0  0
 12  6  1  0  0  0  0
 13  9  1  6  0  0  0
 14 13  1  0  0  0  0
 14  5  1  0  0  0  0
 15 19  1  0  0  0  0
 16 18  1  0  0  0  0
 17 20  1  0  0  0  0
 17 16  2  0  0  0  0
 18 19  2  0  0  0  0
 19  1  1  0  0  0  0
 20 15  2  0  0  0  0
 22 24  1  0  0  0  0
 22 25  1  0  0  0  0
 23 21  1  1  0  0  0
 23 11  1  0  0  0  0
 24 27  1  1  0  0  0
 24 23  1  0  0  0  0
 25 21  1  0  0  0  0
 26 27  1  0  0  0  0
M  END
>  <MODEL>
1

>  <REMARK>
 VINA RESULT:      -6.2      0.000      0.000
  Name = 
  3 active torsions:
  status: ('A' for Active; 'I' for Inactive)
    1  A    between atoms: C_1  and  C_20
    2  A    between atoms: N_4  and  C_18
    3  A    between atoms: C_12  and  C_22
                            x       y       z     vdW  Elec       q    Type
                         _______ _______ _______ _____ _____    ______ ____

>  <TORSDO>
F 3

$$$$
=
 OpenBabel11072412213D

 27 30  0  0  1  0  0  0  0  0999 V2000
  161.9890  205.6880  151.8560 C   0  0  0  0  0  0  0  0  0  0  0  0
  161.4530  203.8100  148.7010 C   0  0  0  0  0  0  0  0  0  0  0  0
  161.2840  205.0290  149.5510 C   0  0  0  0  0  2  0  0  0  0  0  0
  160.8660  203.1500  152.7640 C   0  0  0  0  0  2  0  0  0  0  0  0
  161.3770  201.6970  148.0290 C   0  0  0  0  0  0  0  0  0  0  0  0
  160.9980  203.3950  151.4630 C   0  0  0  0  0  0  0  0  0  0  0  0
  161.1680  200.2900  148.0750 N   0  0  0  0  0  1  0  0  0  0  0  0
  162.7960  205.3150  152.7520 O   0  0  0  0  0  0  0  0  0  0  0  0
  159.2330  202.1910  150.4250 O   0  0  0  0  0  1  0  0  0  0  0  0
  161.7780  202.3130  146.9680 N   0  0  0  0  0  0  0  0  0  0  0  0
  161.8750  203.7470  147.2610 C   0  0  1  0  0  3  0  0  0  0  0  0
  161.4040  204.7030  150.9790 N   0  0  0  0  0  0  0  0  0  0  0  0
  160.6230  202.3010  150.4960 C   0  0  1  0  0  3  0  0  0  0  0  0
  161.1670  202.6020  149.1340 C   0  0  0  0  0  0  0  0  0  0  0  0
  162.3920  207.9180  150.8080 C   0  0  0  0  0  3  0  0  0  0  0  0
  160.4280  209.1010  152.4050 C   0  0  0  0  0  3  0  0  0  0  0  0
  161.1370  209.8760  151.4820 C   0  0  0  0  0  3  0  0  0  0  0  0
  160.7010  207.7360  152.5260 C   0  0  0  0  0  3  0  0  0  0  0  0
  161.6790  207.1310  151.7240 C   0  0  0  0  0  0  0  0  0  0  0  0
  162.1210  209.2850  150.6850 C   0  0  0  0  0  3  0  0  0  0  0  0
  161.1570  204.2820  144.8890 C   0  0  0  0  0  2  0  0  0  0  0  0
  160.4340  206.5920  145.2190 C   0  0  0  0  0  2  0  0  0  0  0  0
  160.9120  204.5360  146.3620 C   0  0  2  0  0  3  0  0  0  0  0  0
  160.9900  206.0500  146.5230 C   0  0  1  0  0  3  0  0  0  0  0  0
  160.6240  205.5070  144.1700 C   0  0  0  0  0  2  0  0  0  0  0  0
  162.3740  207.5710  147.6480 C   0  0  0  0  0  1  0  0  0  0  0  0
  162.3720  206.4950  146.6720 N   0  0  0  0  0  2  0  0  0  0  0  0
  1  8  2  0  0  0  0
  2 14  2  0  0  0  0
  2  3  1  0  0  0  0
  3 12  1  0  0  0  0
  5  7  1  0  0  0  0
  5 14  1  0  0  0  0
  6  4  2  0  0  0  0
 10  5  2  0  0  0  0
 11 10  1  6  0  0  0
 11  2  1  0  0  0  0
 12  6  1  0  0  0  0
 12  1  1  0  0  0  0
 13  9  1  6  0  0  0
 13  6  1  0  0  0  0
 14 13  1  0  0  0  0
 15 19  1  0  0  0  0
 16 18  1  0  0  0  0
 17 16  2  0  0  0  0
 19  1  1  0  0  0  0
 19 18  2  0  0  0  0
 20 15  2  0  0  0  0
 20 17  1  0  0  0  0
 22 24  1  0  0  0  0
 23 21  1  6  0  0  0
 23 24  1  0  0  0  0
 23 11  1  0  0  0  0
 24 27  1  6  0  0  0
 25 21  1  0  0  0  0
 25 22  1  0  0  0  0
 27 26  1  0  0  0  0
M  END
>  <MODEL>
2

>  <REMARK>
 VINA RESULT:      -5.3      4.859      8.171
  Name = 
  3 active torsions:
  status: ('A' for Active; 'I' for Inactive)
    1  A    between atoms: C_1  and  C_20
    2  A    between atoms: N_4  and  C_18
    3  A    between atoms: C_12  and  C_22
                            x       y       z     vdW  Elec       q    Type
                         _______ _______ _______ _____ _____    ______ ____

>  <TORSDO>
F 3

$$$$
=
 OpenBabel11072412213D

 27 30  0  0  1  0  0  0  0  0999 V2000
  161.6570  210.2770  150.5030 C   0  0  0  0  0  0  0  0  0  0  0  0
  160.6780  210.6650  154.0610 C   0  0  0  0  0  0  0  0  0  0  0  0
  160.7440  209.8730  152.7940 C   0  0  0  0  0  2  0  0  0  0  0  0
  160.1970  212.8050  150.5290 C   0  0  0  0  0  2  0  0  0  0  0  0
  160.2380  212.3100  155.4830 C   0  0  0  0  0  0  0  0  0  0  0  0
  160.3000  212.0820  151.6410 C   0  0  0  0  0  0  0  0  0  0  0  0
  159.8140  213.5810  155.9610 N   0  0  0  0  0  1  0  0  0  0  0  0
  162.4380  211.0720  149.9120 O   0  0  0  0  0  0  0  0  0  0  0  0
  158.3200  212.5450  152.8680 O   0  0  0  0  0  1  0  0  0  0  0  0
  160.6780  211.3770  156.2610 N   0  0  0  0  0  0  0  0  0  0  0  0
  161.0130  210.2020  155.4510 C   0  0  1  0  0  3  0  0  0  0  0  0
  160.8820  210.7510  151.6240 N   0  0  0  0  0  0  0  0  0  0  0  0
  159.7110  212.6460  152.9090 C   0  0  1  0  0  3  0  0  0  0  0  0
  160.2280  211.9000  154.0990 C   0  0  0  0  0  0  0  0  0  0  0  0
  161.9190  208.5550  148.7130 C   0  0  0  0  0  3  0  0  0  0  0  0
  161.0240  206.5380  150.4270 C   0  0  0  0  0  3  0  0  0  0  0  0
  161.3810  206.2280  149.1120 C   0  0  0  0  0  3  0  0  0  0  0  0
  161.1150  207.8550  150.8840 C   0  0  0  0  0  3  0  0  0  0  0  0
  161.5710  208.8740  150.0350 C   0  0  0  0  0  0  0  0  0  0  0  0
  161.8270  207.2370  148.2540 C   0  0  0  0  0  3  0  0  0  0  0  0
  160.4950  208.4880  157.2450 C   0  0  0  0  0  2  0  0  0  0  0  0
  159.8040  206.6320  155.8150 C   0  0  0  0  0  2  0  0  0  0  0  0
  160.1430  209.0080  155.8670 C   0  0  2  0  0  3  0  0  0  0  0  0
  160.2450  207.7970  154.9470 C   0  0  1  0  0  3  0  0  0  0  0  0
  160.0500  207.0380  157.2610 C   0  0  0  0  0  2  0  0  0  0  0  0
  161.6840  206.2400  153.9470 C   0  0  0  0  0  1  0  0  0  0  0  0
  161.6210  207.5750  154.5150 N   0  0  0  0  0  2  0  0  0  0  0  0
  1 12  1  0  0  0  0
  2 14  2  0  0  0  0
  3  2  1  0  0  0  0
  4  6  2  0  0  0  0
  5  7  1  0  0  0  0
  5 10  2  0  0  0  0
  6 13  1  0  0  0  0
  8  1  2  0  0  0  0
 11  2  1  6  0  0  0
 11 23  1  0  0  0  0
 11 10  1  0  0  0  0
 12  6  1  0  0  0  0
 12  3  1  0  0  0  0
 13  9  1  6  0  0  0
 13 14  1  0  0  0  0
 14  5  1  0  0  0  0
 15 19  1  0  0  0  0
 16 18  1  0  0  0  0
 17 16  2  0  0  0  0
 19  1  1  0  0  0  0
 19 18  2  0  0  0  0
 20 15  2  0  0  0  0
 20 17  1  0  0  0  0
 21 25  1  0  0  0  0
 22 25  1  0  0  0  0
 23 21  1  1  0  0  0
 24 27  1  1  0  0  0
 24 22  1  0  0  0  0
 24 23  1  0  0  0  0
 26 27  1  0  0  0  0
M  END
>  <MODEL>
3

>  <REMARK>
 VINA RESULT:      -4.3      2.043      4.714
  Name = 
  3 active torsions:
  status: ('A' for Active; 'I' for Inactive)
    1  A    between atoms: C_1  and  C_20
    2  A    between atoms: N_4  and  C_18
    3  A    between atoms: C_12  and  C_22
                            x       y       z     vdW  Elec       q    Type
                         _______ _______ _______ _____ _____    ______ ____

>  <TORSDO>
F 3

$$$$
=
 OpenBabel11072412213D

 27 30  0  0  1  0  0  0  0  0999 V2000
  160.7520  208.9670  152.1510 C   0  0  0  0  0  0  0  0  0  0  0  0
  161.0190  206.3380  149.5470 C   0  0  0  0  0  0  0  0  0  0  0  0
  161.2360  206.8350  150.9410 C   0  0  0  0  0  2  0  0  0  0  0  0
  162.0430  210.3490  149.9280 C   0  0  0  0  0  2  0  0  0  0  0  0
  161.0940  206.2070  147.3340 C   0  0  0  0  0  0  0  0  0  0  0  0
  161.7710  209.0500  149.8390 C   0  0  0  0  0  0  0  0  0  0  0  0
  161.3510  206.5780  145.9840 N   0  0  0  0  0  1  0  0  0  0  0  0
  160.0550  210.0090  152.0110 O   0  0  0  0  0  0  0  0  0  0  0  0
  163.4560  208.1590  148.4230 O   0  0  0  0  0  1  0  0  0  0  0  0
  160.5660  205.0750  147.6630 N   0  0  0  0  0  0  0  0  0  0  0  0
  160.4530  205.0120  149.1240 C   0  0  1  0  0  3  0  0  0  0  0  0
  161.2750  208.3040  150.9820 N   0  0  0  0  0  0  0  0  0  0  0  0
  162.0790  208.3500  148.5400 C   0  0  1  0  0  3  0  0  0  0  0  0
  161.3870  207.0240  148.4870 C   0  0  0  0  0  0  0  0  0  0  0  0
  160.8370  207.0810  153.7870 C   0  0  0  0  0  3  0  0  0  0  0  0
  161.5830  208.8120  155.8500 C   0  0  0  0  0  3  0  0  0  0  0  0
  161.4270  207.4480  156.1060 C   0  0  0  0  0  3  0  0  0  0  0  0
  161.3670  209.3100  154.5620 C   0  0  0  0  0  3  0  0  0  0  0  0
  161.0000  208.4480  153.5170 C   0  0  0  0  0  0  0  0  0  0  0  0
  161.0520  206.5820  155.0760 C   0  0  0  0  0  3  0  0  0  0  0  0
  160.7570  202.4980  149.2370 C   0  0  0  0  0  2  0  0  0  0  0  0
  161.7160  202.3270  151.4780 C   0  0  0  0  0  2  0  0  0  0  0  0
  161.2920  203.8470  149.6680 C   0  0  2  0  0  3  0  0  0  0  0  0
  161.3700  203.7770  151.1890 C   0  0  1  0  0  3  0  0  0  0  0  0
  161.2440  201.5120  150.2820 C   0  0  0  0  0  2  0  0  0  0  0  0
  160.0890  203.5200  153.1360 C   0  0  0  0  0  1  0  0  0  0  0  0
  160.0820  204.0890  151.7990 N   0  0  0  0  0  2  0  0  0  0  0  0
  1 19  1  0  0  0  0
  2  3  1  0  0  0  0
  3 12  1  0  0  0  0
  5 10  2  0  0  0  0
  5 14  1  0  0  0  0
  6  4  2  0  0  0  0
  6 12  1  0  0  0  0
  7  5  1  0  0  0  0
  8  1  2  0  0  0  0
 11 10  1  6  0  0  0
 11  2  1  0  0  0  0
 11 23  1  0  0  0  0
 12  1  1  0  0  0  0
 13  9  1  1  0  0  0
 13  6  1  0  0  0  0
 14 13  1  0  0  0  0
 14  2  2  0  0  0  0
 15 20  1  0  0  0  0
 16 17  1  0  0  0  0
 18 16  2  0  0  0  0
 19 15  2  0  0  0  0
 19 18  1  0  0  0  0
 20 17  2  0  0  0  0
 21 25  1  0  0  0  0
 23 21  1  1  0  0  0
 23 24  1  0  0  0  0
 24 22  1  0  0  0  0
 24 27  1  1  0  0  0
 25 22  1  0  0  0  0
 27 26  1  0  0  0  0
M  END
>  <MODEL>
4

>  <REMARK>
 VINA RESULT:      -4.2      3.680      7.146
  Name = 
  3 active torsions:
  status: ('A' for Active; 'I' for Inactive)
    1  A    between atoms: C_1  and  C_20
    2  A    between atoms: N_4  and  C_18
    3  A    between atoms: C_12  and  C_22
                            x       y       z     vdW  Elec       q    Type
                         _______ _______ _______ _____ _____    ______ ____

>  <TORSDO>
F 3

$$$$
=
 OpenBabel11072412213D

 27 30  0  0  1  0  0  0  0  0999 V2000
  162.3770  206.6250  151.1110 C   0  0  0  0  0  0  0  0  0  0  0  0
  161.3450  203.6760  149.1100 C   0  0  0  0  0  0  0  0  0  0  0  0
  161.3880  205.1510  149.3520 C   0  0  0  0  0  2  0  0  0  0  0  0
  161.0840  204.8960  153.0760 C   0  0  0  0  0  2  0  0  0  0  0  0
  160.9810  201.5110  149.4260 C   0  0  0  0  0  0  0  0  0  0  0  0
  161.1150  204.5430  151.7940 C   0  0  0  0  0  0  0  0  0  0  0  0
  160.6300  200.3000  150.0880 N   0  0  0  0  0  1  0  0  0  0  0  0
  163.2220  206.5630  152.0460 O   0  0  0  0  0  0  0  0  0  0  0  0
  159.1420  203.2660  151.4550 O   0  0  0  0  0  1  0  0  0  0  0  0
  161.3410  201.5560  148.1870 N   0  0  0  0  0  0  0  0  0  0  0  0
  161.6170  202.9490  147.8240 C   0  0  1  0  0  3  0  0  0  0  0  0
  161.6090  205.4510  150.7740 N   0  0  0  0  0  0  0  0  0  0  0  0
  160.5350  203.2040  151.4140 C   0  0  1  0  0  3  0  0  0  0  0  0
  160.9750  202.8190  150.0360 C   0  0  0  0  0  0  0  0  0  0  0  0
  162.1750  207.9050  148.9760 C   0  0  0  0  0  3  0  0  0  0  0  0
  161.9770  210.3220  150.3630 C   0  0  0  0  0  3  0  0  0  0  0  0
  161.9340  210.3140  148.9660 C   0  0  0  0  0  3  0  0  0  0  0  0
  162.1180  209.1220  151.0640 C   0  0  0  0  0  3  0  0  0  0  0  0
  162.2100  207.9020  150.3780 C   0  0  0  0  0  0  0  0  0  0  0  0
  162.0350  209.1050  148.2720 C   0  0  0  0  0  3  0  0  0  0  0  0
  160.2160  202.2580  145.8270 C   0  0  0  0  0  2  0  0  0  0  0  0
  160.4090  204.2990  144.4980 C   0  0  0  0  0  2  0  0  0  0  0  0
  160.6620  203.4040  146.7120 C   0  0  2  0  0  3  0  0  0  0  0  0
  161.2460  204.4390  145.7570 C   0  0  1  0  0  3  0  0  0  0  0  0
  159.8350  202.8890  144.5020 C   0  0  0  0  0  2  0  0  0  0  0  0
  163.4610  205.0880  146.1680 C   0  0  0  0  0  1  0  0  0  0  0  0
  162.6380  204.1380  145.4390 N   0  0  0  0  0  2  0  0  0  0  0  0
  1  8  2  0  0  0  0
  2  3  1  0  0  0  0
  2 14  2  0  0  0  0
  3 12  1  0  0  0  0
  5 14  1  0  0  0  0
  5  7  1  0  0  0  0
  6  4  2  0  0  0  0
 10  5  2  0  0  0  0
 11 10  1  1  0  0  0
 11  2  1  0  0  0  0
 12  1  1  0  0  0  0
 12  6  1  0  0  0  0
 13  9  1  6  0  0  0
 13  6  1  0  0  0  0
 14 13  1  0  0  0  0
 15 19  1  0  0  0  0
 16 18  1  0  0  0  0
 17 16  2  0  0  0  0
 19 18  2  0  0  0  0
 19  1  1  0  0  0  0
 20 17  1  0  0  0  0
 20 15  2  0  0  0  0
 22 25  1  0  0  0  0
 22 24  1  0  0  0  0
 23 21  1  6  0  0  0
 23 11  1  0  0  0  0
 24 27  1  6  0  0  0
 24 23  1  0  0  0  0
 25 21  1  0  0  0  0
 27 26  1  0  0  0  0
M  END
>  <MODEL>
5

>  <REMARK>
 VINA RESULT:      -4.1      4.994      7.859
  Name = 
  3 active torsions:
  status: ('A' for Active; 'I' for Inactive)
    1  A    between atoms: C_1  and  C_20
    2  A    between atoms: N_4  and  C_18
    3  A    between atoms: C_12  and  C_22
                            x       y       z     vdW  Elec       q    Type
                         _______ _______ _______ _____ _____    ______ ____

>  <TORSDO>
F 3

$$$$
=
 OpenBabel11072412213D

 27 30  0  0  1  0  0  0  0  0999 V2000
  156.7240  211.9450  138.8160 C   0  0  0  0  0  0  0  0  0  0  0  0
  160.2440  211.1550  139.6820 C   0  0  0  0  0  0  0  0  0  0  0  0
  158.8110  210.7620  139.5150 C   0  0  0  0  0  2  0  0  0  0  0  0
  157.4180  214.0070  140.7620 C   0  0  0  0  0  2  0  0  0  0  0  0
  162.0540  212.2300  140.3830 C   0  0  0  0  0  0  0  0  0  0  0  0
  158.2940  213.0520  140.4590 C   0  0  0  0  0  0  0  0  0  0  0  0
  162.8530  213.2090  141.0360 N   0  0  0  0  0  1  0  0  0  0  0  0
  156.3770  213.0150  138.2440 O   0  0  0  0  0  0  0  0  0  0  0  0
  159.5800  212.7430  142.4320 O   0  0  0  0  0  1  0  0  0  0  0  0
  162.5550  211.2390  139.7240 N   0  0  0  0  0  0  0  0  0  0  0  0
  161.4600  210.4200  139.1930 C   0  0  1  0  0  3  0  0  0  0  0  0
  157.9230  211.9280  139.6170 N   0  0  0  0  0  0  0  0  0  0  0  0
  159.6610  213.1200  141.0900 C   0  0  1  0  0  3  0  0  0  0  0  0
  160.6100  212.2110  140.3750 C   0  0  0  0  0  0  0  0  0  0  0  0
  154.7950  210.5020  139.4770 C   0  0  0  0  0  3  0  0  0  0  0  0
  155.4200  208.6380  137.4910 C   0  0  0  0  0  3  0  0  0  0  0  0
  154.3230  208.4220  138.3310 C   0  0  0  0  0  3  0  0  0  0  0  0
  156.2010  209.7860  137.6450 C   0  0  0  0  0  3  0  0  0  0  0  0
  155.8920  210.7320  138.6330 C   0  0  0  0  0  0  0  0  0  0  0  0
  154.0120  209.3530  139.3250 C   0  0  0  0  0  3  0  0  0  0  0  0
  162.8820  208.6920  140.3840 C   0  0  0  0  0  2  0  0  0  0  0  0
  161.9390  206.6690  139.3910 C   0  0  0  0  0  2  0  0  0  0  0  0
  161.5290  209.0030  139.7790 C   0  0  2  0  0  3  0  0  0  0  0  0
  161.2790  207.8870  138.7700 C   0  0  1  0  0  3  0  0  0  0  0  0
  163.0120  207.1810  140.3410 C   0  0  0  0  0  2  0  0  0  0  0  0
  162.5020  206.9340  137.0110 C   0  0  0  0  0  1  0  0  0  0  0  0
  161.9220  208.1760  137.4920 N   0  0  0  0  0  2  0  0  0  0  0  0
  1 12  1  0  0  0  0
  2 14  2  0  0  0  0
  3 12  1  0  0  0  0
  3  2  1  0  0  0  0
  5  7  1  0  0  0  0
  6  4  2  0  0  0  0
  6 13  1  0  0  0  0
  8  1  2  0  0  0  0
 10  5  2  0  0  0  0
 11  2  1  1  0  0  0
 11 10  1  0  0  0  0
 11 23  1  0  0  0  0
 12  6  1  0  0  0  0
 13  9  1  1  0  0  0
 14  5  1  0  0  0  0
 14 13  1  0  0  0  0
 16 18  2  0  0  0  0
 16 17  1  0  0  0  0
 17 20  2  0  0  0  0
 18 19  1  0  0  0  0
 19  1  1  0  0  0  0
 19 15  2  0  0  0  0
 20 15  1  0  0  0  0
 22 25  1  0  0  0  0
 23 21  1  6  0  0  0
 24 27  1  6  0  0  0
 24 22  1  0  0  0  0
 24 23  1  0  0  0  0
 25 21  1  0  0  0  0
 26 27  1  0  0  0  0
M  END
>  <MODEL>
6

>  <REMARK>
 VINA RESULT:      -4.0     12.173     13.695
  Name = 
  3 active torsions:
  status: ('A' for Active; 'I' for Inactive)
    1  A    between atoms: C_1  and  C_20
    2  A    between atoms: N_4  and  C_18
    3  A    between atoms: C_12  and  C_22
                            x       y       z     vdW  Elec       q    Type
                         _______ _______ _______ _____ _____    ______ ____

>  <TORSDO>
F 3

$$$$
=
 OpenBabel11072412213D

 27 30  0  0  1  0  0  0  0  0999 V2000
  160.5440  209.0500  152.8740 C   0  0  0  0  0  0  0  0  0  0  0  0
  160.7780  206.1330  150.5930 C   0  0  0  0  0  0  0  0  0  0  0  0
  160.8130  206.7410  151.9590 C   0  0  0  0  0  2  0  0  0  0  0  0
  162.5000  209.9060  150.8830 C   0  0  0  0  0  2  0  0  0  0  0  0
  161.2570  205.7350  148.4640 C   0  0  0  0  0  0  0  0  0  0  0  0
  161.9920  208.6770  150.8350 C   0  0  0  0  0  0  0  0  0  0  0  0
  161.8450  205.8940  147.1770 N   0  0  0  0  0  1  0  0  0  0  0  0
  160.1150  210.1790  152.5090 O   0  0  0  0  0  0  0  0  0  0  0  0
  163.7060  207.3350  149.8860 O   0  0  0  0  0  1  0  0  0  0  0  0
  160.4560  204.7650  148.7560 N   0  0  0  0  0  0  0  0  0  0  0  0
  160.0490  204.8940  150.1590 C   0  0  1  0  0  3  0  0  0  0  0  0
  161.1400  208.1720  151.8980 N   0  0  0  0  0  0  0  0  0  0  0  0
  162.4010  207.7870  149.6890 C   0  0  1  0  0  3  0  0  0  0  0  0
  161.4780  206.6130  149.5890 C   0  0  0  0  0  0  0  0  0  0  0  0
  160.2270  209.6400  155.2800 C   0  0  0  0  0  3  0  0  0  0  0  0
  160.3760  206.9530  156.0310 C   0  0  0  0  0  3  0  0  0  0  0  0
  160.1860  207.9390  157.0020 C   0  0  0  0  0  3  0  0  0  0  0  0
  160.4900  207.3110  154.6850 C   0  0  0  0  0  3  0  0  0  0  0  0
  160.4090  208.6570  154.2960 C   0  0  0  0  0  0  0  0  0  0  0  0
  160.1140  209.2840  156.6280 C   0  0  0  0  0  3  0  0  0  0  0  0
  161.9560  203.7690  151.3940 C   0  0  0  0  0  2  0  0  0  0  0  0
  161.4070  201.4390  150.9090 C   0  0  0  0  0  2  0  0  0  0  0  0
  160.5100  203.6650  150.9560 C   0  0  2  0  0  3  0  0  0  0  0  0
  160.4180  202.3450  150.1990 C   0  0  1  0  0  3  0  0  0  0  0  0
  162.4280  202.3410  151.5860 C   0  0  0  0  0  2  0  0  0  0  0  0
  161.1870  201.1860  148.3120 C   0  0  0  0  0  1  0  0  0  0  0  0
  160.8310  202.5040  148.8080 N   0  0  0  0  0  2  0  0  0  0  0  0
  1 19  1  0  0  0  0
  2  3  1  0  0  0  0
  5 10  2  0  0  0  0
  5 14  1  0  0  0  0
  6  4  2  0  0  0  0
  6 12  1  0  0  0  0
  7  5  1  0  0  0  0
  8  1  2  0  0  0  0
 11 10  1  6  0  0  0
 11  2  1  0  0  0  0
 11 23  1  0  0  0  0
 12  3  1  0  0  0  0
 12  1  1  0  0  0  0
 13  9  1  1  0  0  0
 13  6  1  0  0  0  0
 14 13  1  0  0  0  0
 14  2  2  0  0  0  0
 15 20  1  0  0  0  0
 16 17  1  0  0  0  0
 18 16  2  0  0  0  0
 19 18  1  0  0  0  0
 19 15  2  0  0  0  0
 20 17  2  0  0  0  0
 21 25  1  0  0  0  0
 22 25  1  0  0  0  0
 23 21  1  6  0  0  0
 24 27  1  6  0  0  0
 24 22  1  0  0  0  0
 24 23  1  0  0  0  0
 26 27  1  0  0  0  0
M  END
>  <MODEL>
7

>  <REMARK>
 VINA RESULT:      -3.8      3.617      6.982
  Name = 
  3 active torsions:
  status: ('A' for Active; 'I' for Inactive)
    1  A    between atoms: C_1  and  C_20
    2  A    between atoms: N_4  and  C_18
    3  A    between atoms: C_12  and  C_22
                            x       y       z     vdW  Elec       q    Type
                         _______ _______ _______ _____ _____    ______ ____

>  <TORSDO>
F 3

$$$$
=
 OpenBabel11072412213D

 27 30  0  0  1  0  0  0  0  0999 V2000
  161.1240  209.6320  154.2470 C   0  0  0  0  0  0  0  0  0  0  0  0
  161.6660  209.8030  150.5800 C   0  0  0  0  0  0  0  0  0  0  0  0
  160.9570  210.2300  151.8260 C   0  0  0  0  0  2  0  0  0  0  0  0
  160.9830  206.8380  153.4130 C   0  0  0  0  0  2  0  0  0  0  0  0
  162.4750  208.5120  148.9680 C   0  0  0  0  0  0  0  0  0  0  0  0
  161.1370  207.7990  152.5060 C   0  0  0  0  0  0  0  0  0  0  0  0
  162.8220  207.3310  148.2530 N   0  0  0  0  0  1  0  0  0  0  0  0
  161.9200  209.0520  155.0350 O   0  0  0  0  0  0  0  0  0  0  0  0
  160.0830  206.9710  150.5440 O   0  0  0  0  0  1  0  0  0  0  0  0
  162.7100  209.7000  148.5190 N   0  0  0  0  0  0  0  0  0  0  0  0
  162.2180  210.6800  149.4920 C   0  0  1  0  0  3  0  0  0  0  0  0
  161.0530  209.2020  152.8720 N   0  0  0  0  0  0  0  0  0  0  0  0
  161.3090  207.3900  151.0650 C   0  0  1  0  0  3  0  0  0  0  0  0
  161.8260  208.5380  150.2570 C   0  0  0  0  0  0  0  0  0  0  0  0
  158.9530  210.8610  154.3690 C   0  0  0  0  0  3  0  0  0  0  0  0
  160.0590  212.7870  156.0640 C   0  0  0  0  0  3  0  0  0  0  0  0
  158.7190  212.8820  155.6800 C   0  0  0  0  0  3  0  0  0  0  0  0
  160.8440  211.7280  155.6020 C   0  0  0  0  0  3  0  0  0  0  0  0
  160.2970  210.7510  154.7570 C   0  0  0  0  0  0  0  0  0  0  0  0
  158.1660  211.9210  154.8310 C   0  0  0  0  0  3  0  0  0  0  0  0
  160.7490  211.0830  147.4660 C   0  0  0  0  0  2  0  0  0  0  0  0
  160.5620  213.5150  147.6050 C   0  0  0  0  0  2  0  0  0  0  0  0
  161.1190  211.5450  148.8600 C   0  0  2  0  0  3  0  0  0  0  0  0
  161.4800  213.0190  148.7080 C   0  0  1  0  0  3  0  0  0  0  0  0
  160.1760  212.3030  146.7700 C   0  0  0  0  0  2  0  0  0  0  0  0
  162.9560  214.4530  147.5850 C   0  0  0  0  0  1  0  0  0  0  0  0
  162.8660  213.1810  148.2810 N   0  0  0  0  0  2  0  0  0  0  0  0
  1 19  1  0  0  0  0
  1  8  2  0  0  0  0
  2  3  1  0  0  0  0
  3 12  1  0  0  0  0
  5 14  1  0  0  0  0
  6 12  1  0  0  0  0
  6  4  2  0  0  0  0
  7  5  1  0  0  0  0
 10  5  2  0  0  0  0
 11 10  1  6  0  0  0
 11  2  1  0  0  0  0
 12  1  1  0  0  0  0
 13  9  1  6  0  0  0
 13  6  1  0  0  0  0
 14  2  2  0  0  0  0
 14 13  1  0  0  0  0
 15 19  2  0  0  0  0
 15 20  1  0  0  0  0
 17 16  1  0  0  0  0
 18 16  2  0  0  0  0
 19 18  1  0  0  0  0
 20 17  2  0  0  0  0
 22 24  1  0  0  0  0
 23 21  1  6  0  0  0
 23 11  1  0  0  0  0
 24 27  1  6  0  0  0
 24 23  1  0  0  0  0
 25 21  1  0  0  0  0
 25 22  1  0  0  0  0
 26 27  1  0  0  0  0
M  END
>  <MODEL>
8

>  <REMARK>
 VINA RESULT:      -3.3      2.651      6.166
  Name = 
  3 active torsions:
  status: ('A' for Active; 'I' for Inactive)
    1  A    between atoms: C_1  and  C_20
    2  A    between atoms: N_4  and  C_18
    3  A    between atoms: C_12  and  C_22
                            x       y       z     vdW  Elec       q    Type
                         _______ _______ _______ _____ _____    ______ ____

>  <TORSDO>
F 3

$$$$
=
 OpenBabel11072412213D

 27 30  0  0  1  0  0  0  0  0999 V2000
  160.3010  211.3350  154.0040 C   0  0  0  0  0  0  0  0  0  0  0  0
  161.3730  208.3680  152.0510 C   0  0  0  0  0  0  0  0  0  0  0  0
  160.4660  209.5350  152.2790 C   0  0  0  0  0  2  0  0  0  0  0  0
  160.4310  209.2190  156.0100 C   0  0  0  0  0  2  0  0  0  0  0  0
  162.4800  206.4770  152.3940 C   0  0  0  0  0  0  0  0  0  0  0  0
  160.6680  208.9420  154.7310 C   0  0  0  0  0  0  0  0  0  0  0  0
  162.9890  205.3350  153.0740 N   0  0  0  0  0  1  0  0  0  0  0  0
  161.0000  211.8460  154.9230 O   0  0  0  0  0  0  0  0  0  0  0  0
  159.9630  206.6920  154.4430 O   0  0  0  0  0  1  0  0  0  0  0  0
  162.7160  206.7170  151.1480 N   0  0  0  0  0  0  0  0  0  0  0  0
  162.0350  207.9580  150.7660 C   0  0  1  0  0  3  0  0  0  0  0  0
  160.4580  209.9360  153.6930 N   0  0  0  0  0  0  0  0  0  0  0  0
  161.0730  207.5340  154.3750 C   0  0  1  0  0  3  0  0  0  0  0  0
  161.6450  207.4910  152.9920 C   0  0  0  0  0  0  0  0  0  0  0  0
  158.0670  212.4300  153.7800 C   0  0  0  0  0  3  0  0  0  0  0  0
  158.7900  213.5620  151.3300 C   0  0  0  0  0  3  0  0  0  0  0  0
  157.5170  213.7960  151.8590 C   0  0  0  0  0  3  0  0  0  0  0  0
  159.7000  212.7640  152.0280 C   0  0  0  0  0  3  0  0  0  0  0  0
  159.3500  212.1970  153.2630 C   0  0  0  0  0  0  0  0  0  0  0  0
  157.1550  213.2280  153.0830 C   0  0  0  0  0  3  0  0  0  0  0  0
  160.4660  206.2590  149.7280 C   0  0  0  0  0  2  0  0  0  0  0  0
  160.5800  207.0010  147.4030 C   0  0  0  0  0  2  0  0  0  0  0  0
  160.9990  207.6750  149.6690 C   0  0  2  0  0  3  0  0  0  0  0  0
  161.5190  207.8460  148.2460 C   0  0  1  0  0  3  0  0  0  0  0  0
  159.9870  205.9440  148.3230 C   0  0  0  0  0  2  0  0  0  0  0  0
  162.8390  206.2800  147.1050 C   0  0  0  0  0  1  0  0  0  0  0  0
  162.8760  207.3250  148.1140 N   0  0  0  0  0  2  0  0  0  0  0  0
  1  8  2  0  0  0  0
  2  3  1  0  0  0  0
  2 14  2  0  0  0  0
  3 12  1  0  0  0  0
  5 14  1  0  0  0  0
  5  7  1  0  0  0  0
  6  4  2  0  0  0  0
 10  5  2  0  0  0  0
 11 10  1  1  0  0  0
 11  2  1  0  0  0  0
 12  1  1  0  0  0  0
 12  6  1  0  0  0  0
 13  9  1  6  0  0  0
 13  6  1  0  0  0  0
 14 13  1  0  0  0  0
 16 17  2  0  0  0  0
 16 18  1  0  0  0  0
 17 20  1  0  0  0  0
 18 19  2  0  0  0  0
 19 15  1  0  0  0  0
 19  1  1  0  0  0  0
 20 15  2  0  0  0  0
 22 24  1  0  0  0  0
 22 25  1  0  0  0  0
 23 21  1  6  0  0  0
 23 11  1  0  0  0  0
 24 27  1  1  0  0  0
 24 23  1  0  0  0  0
 25 21  1  0  0  0  0
 26 27  1  0  0  0  0
M  END
>  <MODEL>
9

>  <REMARK>
 VINA RESULT:      -3.3      2.263      3.828
  Name = 
  3 active torsions:
  status: ('A' for Active; 'I' for Inactive)
    1  A    between atoms: C_1  and  C_20
    2  A    between atoms: N_4  and  C_18
    3  A    between atoms: C_12  and  C_22
                            x       y       z     vdW  Elec       q    Type
                         _______ _______ _______ _____ _____    ______ ____

>  <TORSDO>
F 3

$$$$
