=
 OpenBabel11072410183D

 33 35  0  0  1  0  0  0  0  0999 V2000
  161.1570  206.8390  149.8610 C   0  0  0  0  0  0  0  0  0  0  0  0
  161.6080  207.1680  148.5810 C   0  0  0  0  0  3  0  0  0  0  0  0
  161.2530  207.7930  150.9000 C   0  0  0  0  0  0  0  0  0  0  0  0
  162.2440  209.3330  149.3580 N   0  0  0  0  0  0  0  0  0  0  0  0
  162.1560  208.4300  148.3480 C   0  0  0  0  0  3  0  0  0  0  0  0
  161.8070  209.0440  150.6130 C   0  0  0  0  0  3  0  0  0  0  0  0
  160.7730  207.5430  152.3020 C   0  0  1  0  0  3  0  0  0  0  0  0
  161.3010  205.4290  153.5170 C   0  0  0  0  0  1  0  0  0  0  0  0
  161.8240  206.7920  153.1050 C   0  0  0  0  0  2  0  0  0  0  0  0
  160.4270  208.7420  152.9350 O   0  0  0  0  0  0  0  0  0  0  0  0
  160.1250  208.4530  155.2340 N   0  0  2  0  0  0  0  0  0  0  0  0
  160.5100  209.3180  156.3680 C   0  0  1  0  0  3  0  0  0  0  0  0
  160.8780  207.9030  156.3730 C   0  0  1  0  0  3  0  0  0  0  0  0
  161.6840  210.1750  155.9320 C   0  0  1  0  0  3  0  0  0  0  0  0
  160.0060  207.1990  157.2020 O   0  0  0  0  0  1  0  0  0  0  0  0
  161.0860  208.7100  154.1660 C   0  0  2  0  0  3  0  0  0  0  0  0
  161.7360  210.0460  154.4310 C   0  0  0  0  0  2  0  0  0  0  0  0
  161.4520  211.5290  156.3010 O   0  0  0  0  0  0  0  0  0  0  0  0
  159.8390  212.6280  155.0630 O   0  0  0  0  0  0  0  0  0  0  0  0
  159.3540  212.2070  157.2600 O   0  0  0  0  0  1  0  0  0  0  0  0
  160.2030  212.1370  156.1640 C   0  0  0  0  0  0  0  0  0  0  0  0
  160.5650  205.4850  150.0760 C   0  0  0  0  0  2  0  0  0  0  0  0
  161.4650  204.5000  149.6610 O   0  0  0  0  0  0  0  0  0  0  0  0
  160.7910  203.2940  149.8520 C   0  0  2  0  0  3  0  0  0  0  0  0
  161.1120  202.7480  151.2390 C   0  0  0  0  0  1  0  0  0  0  0  0
  161.0020  202.9650  146.2010 C   0  0  0  0  0  0  0  0  0  0  0  0
  161.0640  202.6550  147.4650 C   0  0  0  0  0  0  0  0  0  0  0  0
  160.4140  201.9990  145.2350 C   0  0  0  0  0  1  0  0  0  0  0  0
  161.1240  202.3430  148.7340 C   0  0  0  0  0  3  0  0  0  0  0  0
  161.4100  204.6330  144.1620 O   0  0  0  0  0  0  0  0  0  0  0  0
  160.6100  205.6000  146.2710 O   0  0  0  0  0  0  0  0  0  0  0  0
  163.1390  204.8460  146.1340 N   0  0  0  0  0  1  0  0  0  0  0  0
  161.5030  204.5570  145.6600 S   0  0  0  0  0  0  0  0  0  0  0  0
  1 22  1  0  0  0  0
  1  3  1  0  0  0  0
  2  1  2  0  0  0  0
  3  7  1  0  0  0  0
  4  6  1  0  0  0  0
  5  2  1  0  0  0  0
  5  4  2  0  0  0  0
  6  3  2  0  0  0  0
  7 10  1  0  0  0  0
  7  9  1  1  0  0  0
  9  8  1  0  0  0  0
 10 16  1  0  0  0  0
 11 12  1  0  0  0  0
 11 13  1  0  0  0  0
 12 13  1  0  0  0  0
 13 15  1  0  0  0  0
 14 18  1  0  0  0  0
 14 12  1  0  0  0  0
 16 17  1  0  0  0  0
 16 11  1  0  0  0  0
 17 14  1  0  0  0  0
 19 21  2  0  0  0  0
 21 18  1  0  0  0  0
 21 20  1  0  0  0  0
 23 24  1  0  0  0  0
 23 22  1  0  0  0  0
 24 25  1  0  0  0  0
 26 27  2  0  0  0  0
 27 29  2  0  0  0  0
 28 26  1  0  0  0  0
 29 24  1  0  0  0  0
 30 33  2  0  0  0  0
 33 32  1  0  0  0  0
 33 26  1  0  0  0  0
 33 31  2  0  0  0  0
M  END
>  <MODEL>
1

>  <REMARK>
 VINA RESULT:      -7.7      0.000      0.000
  Name = 
  11 active torsions:
  status: ('A' for Active; 'I' for Inactive)
    1  A    between atoms: C_1  and  O_13
    2  A    between atoms: C_1  and  C_15
    3  A    between atoms: C_1  and  C_20
    4  A    between atoms: C_6  and  S_31
    5  A    between atoms: C_12  and  C_19
    6  A    between atoms: O_13  and  C_24
    7  A    between atoms: C_16  and  O_23
    8  A    between atoms: O_18  and  C_19
    9  A    between atoms: O_18  and  C_21
   10  A    between atoms: C_21  and  C_25
   11  A    between atoms: O_23  and  C_27
                            x       y       z     vdW  Elec       q    Type
                         _______ _______ _______ _____ _____    ______ ____

>  <TORSDO>
F 11

$$$$
=
 OpenBabel11072410183D

 33 35  0  0  1  0  0  0  0  0999 V2000
  160.8360  208.1770  152.6260 C   0  0  0  0  0  0  0  0  0  0  0  0
  160.9240  207.8710  153.9860 C   0  0  0  0  0  3  0  0  0  0  0  0
  161.0260  207.1560  151.6680 C   0  0  0  0  0  0  0  0  0  0  0  0
  161.3930  205.5940  153.4460 N   0  0  0  0  0  0  0  0  0  0  0  0
  161.2080  206.5630  154.3800 C   0  0  0  0  0  3  0  0  0  0  0  0
  161.3060  205.8610  152.1160 C   0  0  0  0  0  3  0  0  0  0  0  0
  160.9260  207.3790  150.1860 C   0  0  1  0  0  3  0  0  0  0  0  0
  162.3290  208.7720  148.6630 C   0  0  0  0  0  1  0  0  0  0  0  0
  162.3080  207.5600  149.5750 C   0  0  0  0  0  2  0  0  0  0  0  0
  160.2420  206.3280  149.5640 O   0  0  0  0  0  0  0  0  0  0  0  0
  161.0250  205.7070  147.4520 N   0  0  2  0  0  0  0  0  0  0  0  0
  161.2910  204.3710  146.8830 C   0  0  1  0  0  3  0  0  0  0  0  0
  162.3160  205.4110  146.8110 C   0  0  1  0  0  3  0  0  0  0  0  0
  161.5770  203.4170  148.0290 C   0  0  1  0  0  3  0  0  0  0  0  0
  162.3290  205.9610  145.5310 O   0  0  0  0  0  1  0  0  0  0  0  0
  161.2240  205.5970  148.8930 C   0  0  2  0  0  3  0  0  0  0  0  0
  161.1210  204.1390  149.2710 C   0  0  0  0  0  2  0  0  0  0  0  0
  160.8290  202.2200  147.8550 O   0  0  0  0  0  0  0  0  0  0  0  0
  161.5820  200.0410  147.6950 O   0  0  0  0  0  0  0  0  0  0  0  0
  161.2060  200.8580  149.8000 O   0  0  0  0  0  1  0  0  0  0  0  0
  161.2200  201.0060  148.4200 C   0  0  0  0  0  0  0  0  0  0  0  0
  160.5180  209.5840  152.2370 C   0  0  0  0  0  2  0  0  0  0  0  0
  161.3930  210.4640  152.8780 O   0  0  0  0  0  0  0  0  0  0  0  0
  160.5710  211.4340  153.4520 C   0  0  2  0  0  3  0  0  0  0  0  0
  160.8460  211.5100  154.9490 C   0  0  0  0  0  1  0  0  0  0  0  0
  157.1000  212.0280  154.4940 C   0  0  0  0  0  0  0  0  0  0  0  0
  158.1150  211.5880  153.8050 C   0  0  0  0  0  0  0  0  0  0  0  0
  155.9600  211.1190  154.7870 C   0  0  0  0  0  1  0  0  0  0  0  0
  159.1320  211.1450  153.1140 C   0  0  0  0  0  3  0  0  0  0  0  0
  155.9500  214.4260  154.6680 O   0  0  0  0  0  0  0  0  0  0  0  0
  157.0780  213.5670  156.6700 O   0  0  0  0  0  0  0  0  0  0  0  0
  158.5810  214.4530  154.6850 N   0  0  0  0  0  1  0  0  0  0  0  0
  157.1320  213.6460  155.1700 S   0  0  0  0  0  0  0  0  0  0  0  0
  1  2  1  0  0  0  0
  2  5  2  0  0  0  0
  3  6  1  0  0  0  0
  3  1  2  0  0  0  0
  4  5  1  0  0  0  0
  6  4  2  0  0  0  0
  7  9  1  6  0  0  0
  7  3  1  0  0  0  0
  8  9  1  0  0  0  0
 10  7  1  0  0  0  0
 11 16  1  0  0  0  0
 12 11  1  0  0  0  0
 12 14  1  0  0  0  0
 13 12  1  0  0  0  0
 13 11  1  0  0  0  0
 14 17  1  0  0  0  0
 15 13  1  0  0  0  0
 16 17  1  0  0  0  0
 16 10  1  0  0  0  0
 18 14  1  0  0  0  0
 18 21  1  0  0  0  0
 19 21  2  0  0  0  0
 21 20  1  0  0  0  0
 22  1  1  0  0  0  0
 22 23  1  0  0  0  0
 23 24  1  0  0  0  0
 24 25  1  0  0  0  0
 26 28  1  0  0  0  0
 26 33  1  0  0  0  0
 27 26  2  0  0  0  0
 29 24  1  0  0  0  0
 29 27  2  0  0  0  0
 30 33  2  0  0  0  0
 32 33  1  0  0  0  0
 33 31  2  0  0  0  0
M  END
>  <MODEL>
2

>  <REMARK>
 VINA RESULT:      -7.6      3.579      9.852
  Name = 
  11 active torsions:
  status: ('A' for Active; 'I' for Inactive)
    1  A    between atoms: C_1  and  O_13
    2  A    between atoms: C_1  and  C_15
    3  A    between atoms: C_1  and  C_20
    4  A    between atoms: C_6  and  S_31
    5  A    between atoms: C_12  and  C_19
    6  A    between atoms: O_13  and  C_24
    7  A    between atoms: C_16  and  O_23
    8  A    between atoms: O_18  and  C_19
    9  A    between atoms: O_18  and  C_21
   10  A    between atoms: C_21  and  C_25
   11  A    between atoms: O_23  and  C_27
                            x       y       z     vdW  Elec       q    Type
                         _______ _______ _______ _____ _____    ______ ____

>  <TORSDO>
F 11

$$$$
=
 OpenBabel11072410183D

 33 35  0  0  1  0  0  0  0  0999 V2000
  161.2460  207.3890  150.2680 C   0  0  0  0  0  0  0  0  0  0  0  0
  161.5880  207.6840  148.9460 C   0  0  0  0  0  3  0  0  0  0  0  0
  161.3980  208.3800  151.2640 C   0  0  0  0  0  0  0  0  0  0  0  0
  162.2280  209.8880  149.6000 N   0  0  0  0  0  0  0  0  0  0  0  0
  162.0840  208.9490  148.6290 C   0  0  0  0  0  3  0  0  0  0  0  0
  161.8970  209.6320  150.8940 C   0  0  0  0  0  3  0  0  0  0  0  0
  161.0350  208.1680  152.7070 C   0  0  1  0  0  3  0  0  0  0  0  0
  160.8470  206.2430  154.2830 C   0  0  0  0  0  1  0  0  0  0  0  0
  161.7300  206.9340  153.2610 C   0  0  0  0  0  2  0  0  0  0  0  0
  161.3430  209.2980  153.4730 O   0  0  0  0  0  0  0  0  0  0  0  0
  160.0660  211.2560  153.4870 N   0  0  2  0  0  0  0  0  0  0  0  0
  159.3890  211.9500  154.6000 C   0  0  1  0  0  3  0  0  0  0  0  0
  158.6490  211.6340  153.3790 C   0  0  1  0  0  3  0  0  0  0  0  0
  159.0930  210.9300  155.6840 C   0  0  1  0  0  3  0  0  0  0  0  0
  158.5380  212.7790  152.5940 O   0  0  0  0  0  1  0  0  0  0  0  0
  160.1090  209.8400  153.8400 C   0  0  2  0  0  3  0  0  0  0  0  0
  159.9250  209.7230  155.3330 C   0  0  0  0  0  2  0  0  0  0  0  0
  159.4870  211.4470  156.9490 O   0  0  0  0  0  0  0  0  0  0  0  0
  161.7650  211.7620  157.1830 O   0  0  0  0  0  0  0  0  0  0  0  0
  160.4510  213.6370  157.1860 O   0  0  0  0  0  1  0  0  0  0  0  0
  160.6100  212.2600  157.1070 C   0  0  0  0  0  0  0  0  0  0  0  0
  160.7060  206.0300  150.5730 C   0  0  0  0  0  2  0  0  0  0  0  0
  161.1710  205.1110  149.6290 O   0  0  0  0  0  0  0  0  0  0  0  0
  160.7040  203.8730  150.0730 C   0  0  2  0  0  3  0  0  0  0  0  0
  161.1400  203.6560  151.5180 C   0  0  0  0  0  1  0  0  0  0  0  0
  161.1530  203.0140  146.5310 C   0  0  0  0  0  0  0  0  0  0  0  0
  161.1580  202.9030  147.8300 C   0  0  0  0  0  0  0  0  0  0  0  0
  160.6840  201.8750  145.6980 C   0  0  0  0  0  1  0  0  0  0  0  0
  161.1620  202.7900  149.1320 C   0  0  0  0  0  3  0  0  0  0  0  0
  161.1770  204.5190  144.3310 O   0  0  0  0  0  0  0  0  0  0  0  0
  160.8840  205.6650  146.4810 O   0  0  0  0  0  0  0  0  0  0  0  0
  163.2950  204.7710  145.8710 N   0  0  0  0  0  1  0  0  0  0  0  0
  161.5860  204.5370  145.7770 S   0  0  0  0  0  0  0  0  0  0  0  0
  1 22  1  0  0  0  0
  1  3  1  0  0  0  0
  2  1  2  0  0  0  0
  3  7  1  0  0  0  0
  4  6  1  0  0  0  0
  5  2  1  0  0  0  0
  5  4  2  0  0  0  0
  6  3  2  0  0  0  0
  7  9  1  1  0  0  0
  7 10  1  0  0  0  0
  9  8  1  0  0  0  0
 10 16  1  0  0  0  0
 11 16  1  0  0  0  0
 11 12  1  0  0  0  0
 12 14  1  0  0  0  0
 13 11  1  0  0  0  0
 13 12  1  0  0  0  0
 14 18  1  0  0  0  0
 15 13  1  0  0  0  0
 16 17  1  0  0  0  0
 17 14  1  0  0  0  0
 18 21  1  0  0  0  0
 21 19  2  0  0  0  0
 21 20  1  0  0  0  0
 23 24  1  0  0  0  0
 23 22  1  0  0  0  0
 24 25  1  0  0  0  0
 26 27  2  0  0  0  0
 27 29  2  0  0  0  0
 28 26  1  0  0  0  0
 29 24  1  0  0  0  0
 30 33  2  0  0  0  0
 33 32  1  0  0  0  0
 33 31  2  0  0  0  0
 33 26  1  0  0  0  0
M  END
>  <MODEL>
3

>  <REMARK>
 VINA RESULT:      -7.5      1.379      2.102
  Name = 
  11 active torsions:
  status: ('A' for Active; 'I' for Inactive)
    1  A    between atoms: C_1  and  O_13
    2  A    between atoms: C_1  and  C_15
    3  A    between atoms: C_1  and  C_20
    4  A    between atoms: C_6  and  S_31
    5  A    between atoms: C_12  and  C_19
    6  A    between atoms: O_13  and  C_24
    7  A    between atoms: C_16  and  O_23
    8  A    between atoms: O_18  and  C_19
    9  A    between atoms: O_18  and  C_21
   10  A    between atoms: C_21  and  C_25
   11  A    between atoms: O_23  and  C_27
                            x       y       z     vdW  Elec       q    Type
                         _______ _______ _______ _____ _____    ______ ____

>  <TORSDO>
F 11

$$$$
=
 OpenBabel11072410183D

 33 35  0  0  1  0  0  0  0  0999 V2000
  160.8760  207.3970  153.7400 C   0  0  0  0  0  0  0  0  0  0  0  0
  161.0050  206.6310  154.9000 C   0  0  0  0  0  3  0  0  0  0  0  0
  160.7880  208.8040  153.8400 C   0  0  0  0  0  0  0  0  0  0  0  0
  160.9440  208.6170  156.2220 N   0  0  0  0  0  0  0  0  0  0  0  0
  161.0350  207.2640  156.1430 C   0  0  0  0  0  3  0  0  0  0  0  0
  160.8260  209.3890  155.1090 C   0  0  0  0  0  3  0  0  0  0  0  0
  160.6730  209.7150  152.6510 C   0  0  1  0  0  3  0  0  0  0  0  0
  158.8070  211.3710  152.6790 C   0  0  0  0  0  1  0  0  0  0  0  0
  160.2460  211.1110  153.0810 C   0  0  0  0  0  2  0  0  0  0  0  0
  161.8760  209.7620  151.9360 O   0  0  0  0  0  0  0  0  0  0  0  0
  162.3620  208.8980  149.8210 N   0  0  2  0  0  0  0  0  0  0  0  0
  162.6570  209.5870  148.5490 C   0  0  1  0  0  3  0  0  0  0  0  0
  161.6320  208.5450  148.5920 C   0  0  1  0  0  3  0  0  0  0  0  0
  162.0240  210.9650  148.5980 C   0  0  1  0  0  3  0  0  0  0  0  0
  162.1510  207.3610  148.0740 O   0  0  0  0  0  1  0  0  0  0  0  0
  161.5020  209.7910  150.5910 C   0  0  2  0  0  3  0  0  0  0  0  0
  161.6690  211.1890  150.0460 C   0  0  0  0  0  2  0  0  0  0  0  0
  162.9630  211.9410  148.1670 O   0  0  0  0  0  0  0  0  0  0  0  0
  162.7220  213.2320  146.2650 O   0  0  0  0  0  0  0  0  0  0  0  0
  162.0330  214.1570  148.2430 O   0  0  0  0  0  1  0  0  0  0  0  0
  162.5780  213.1110  147.5100 C   0  0  0  0  0  0  0  0  0  0  0  0
  160.8590  206.6910  152.4240 C   0  0  0  0  0  2  0  0  0  0  0  0
  161.5360  205.4720  152.5300 O   0  0  0  0  0  0  0  0  0  0  0  0
  160.7750  204.5740  151.7810 C   0  0  2  0  0  3  0  0  0  0  0  0
  161.3440  203.1690  151.9430 C   0  0  0  0  0  1  0  0  0  0  0  0
  161.2600  203.5270  148.2940 C   0  0  0  0  0  0  0  0  0  0  0  0
  160.9810  204.2810  149.3210 C   0  0  0  0  0  0  0  0  0  0  0  0
  162.0650  204.0810  147.1730 C   0  0  0  0  0  1  0  0  0  0  0  0
  160.7030  205.0380  150.3500 C   0  0  0  0  0  3  0  0  0  0  0  0
  161.8230  201.0240  149.0130 O   0  0  0  0  0  0  0  0  0  0  0  0
  159.4600  201.6840  148.9750 O   0  0  0  0  0  0  0  0  0  0  0  0
  160.6670  201.2700  146.6620 N   0  0  0  0  0  1  0  0  0  0  0  0
  160.7880  201.8380  148.2890 S   0  0  0  0  0  0  0  0  0  0  0  0
  1  3  2  0  0  0  0
  1  2  1  0  0  0  0
  2  5  2  0  0  0  0
  3  6  1  0  0  0  0
  5  4  1  0  0  0  0
  6  4  2  0  0  0  0
  7  9  1  1  0  0  0
  7  3  1  0  0  0  0
  8  9  1  0  0  0  0
 10  7  1  0  0  0  0
 11 16  1  0  0  0  0
 12 13  1  0  0  0  0
 12 14  1  0  0  0  0
 12 11  1  0  0  0  0
 13 11  1  0  0  0  0
 14 17  1  0  0  0  0
 15 13  1  0  0  0  0
 16 10  1  0  0  0  0
 17 16  1  0  0  0  0
 18 14  1  0  0  0  0
 19 21  2  0  0  0  0
 21 18  1  0  0  0  0
 21 20  1  0  0  0  0
 22 23  1  0  0  0  0
 22  1  1  0  0  0  0
 24 25  1  0  0  0  0
 24 23  1  0  0  0  0
 26 27  2  0  0  0  0
 27 29  2  0  0  0  0
 28 26  1  0  0  0  0
 29 24  1  0  0  0  0
 32 33  1  0  0  0  0
 33 26  1  0  0  0  0
 33 31  2  0  0  0  0
 33 30  2  0  0  0  0
M  END
>  <MODEL>
4

>  <REMARK>
 VINA RESULT:      -7.3      3.097      5.743
  Name = 
  11 active torsions:
  status: ('A' for Active; 'I' for Inactive)
    1  A    between atoms: C_1  and  O_13
    2  A    between atoms: C_1  and  C_15
    3  A    between atoms: C_1  and  C_20
    4  A    between atoms: C_6  and  S_31
    5  A    between atoms: C_12  and  C_19
    6  A    between atoms: O_13  and  C_24
    7  A    between atoms: C_16  and  O_23
    8  A    between atoms: O_18  and  C_19
    9  A    between atoms: O_18  and  C_21
   10  A    between atoms: C_21  and  C_25
   11  A    between atoms: O_23  and  C_27
                            x       y       z     vdW  Elec       q    Type
                         _______ _______ _______ _____ _____    ______ ____

>  <TORSDO>
F 11

$$$$
=
 OpenBabel11072410183D

 33 35  0  0  1  0  0  0  0  0999 V2000
  161.4890  208.4000  151.7090 C   0  0  0  0  0  0  0  0  0  0  0  0
  161.7160  209.7670  151.5380 C   0  0  0  0  0  3  0  0  0  0  0  0
  161.5570  207.5370  150.5920 C   0  0  0  0  0  0  0  0  0  0  0  0
  162.0550  209.4220  149.2010 N   0  0  0  0  0  0  0  0  0  0  0  0
  161.9980  210.2640  150.2650 C   0  0  0  0  0  3  0  0  0  0  0  0
  161.8460  208.0850  149.3380 C   0  0  0  0  0  3  0  0  0  0  0  0
  161.3540  206.0510  150.6770 C   0  0  1  0  0  3  0  0  0  0  0  0
  161.0680  204.2310  152.3600 C   0  0  0  0  0  1  0  0  0  0  0  0
  160.7330  205.6690  152.0130 C   0  0  0  0  0  2  0  0  0  0  0  0
  160.5690  205.5890  149.6150 O   0  0  0  0  0  0  0  0  0  0  0  0
  161.2820  205.1810  147.4270 N   0  0  2  0  0  0  0  0  0  0  0  0
  161.3330  203.9240  146.6540 C   0  0  1  0  0  3  0  0  0  0  0  0
  162.5180  204.7760  146.7400 C   0  0  1  0  0  3  0  0  0  0  0  0
  161.4320  202.7700  147.6340 C   0  0  1  0  0  3  0  0  0  0  0  0
  162.6500  205.5090  145.5620 O   0  0  0  0  0  1  0  0  0  0  0  0
  161.4300  204.8160  148.8320 C   0  0  2  0  0  3  0  0  0  0  0  0
  161.0770  203.3560  148.9770 C   0  0  0  0  0  2  0  0  0  0  0  0
  160.4980  201.7580  147.2790 O   0  0  0  0  0  0  0  0  0  0  0  0
  161.3670  199.8670  146.2710 O   0  0  0  0  0  1  0  0  0  0  0  0
  160.1170  201.2640  144.9560 O   0  0  0  0  0  0  0  0  0  0  0  0
  160.6850  200.9230  146.1760 C   0  0  0  0  0  0  0  0  0  0  0  0
  161.2020  207.8970  153.0860 C   0  0  0  0  0  2  0  0  0  0  0  0
  160.9580  208.9730  153.9440 O   0  0  0  0  0  0  0  0  0  0  0  0
  161.0560  208.4370  155.2280 C   0  0  2  0  0  3  0  0  0  0  0  0
  160.1840  207.1900  155.3250 C   0  0  0  0  0  1  0  0  0  0  0  0
  159.5630  211.7630  155.6700 C   0  0  0  0  0  0  0  0  0  0  0  0
  160.1390  210.6300  155.9580 C   0  0  0  0  0  0  0  0  0  0  0  0
  160.0520  213.0180  156.3020 C   0  0  0  0  0  1  0  0  0  0  0  0
  160.7180  209.4940  156.2460 C   0  0  0  0  0  3  0  0  0  0  0  0
  157.9820  213.2550  154.1280 O   0  0  0  0  0  0  0  0  0  0  0  0
  158.7530  211.1120  153.2160 O   0  0  0  0  0  0  0  0  0  0  0  0
  156.8690  211.0650  155.0670 N   0  0  0  0  0  1  0  0  0  0  0  0
  158.2960  211.8240  154.4580 S   0  0  0  0  0  0  0  0  0  0  0  0
  1 22  1  0  0  0  0
  2  1  1  0  0  0  0
  3  7  1  0  0  0  0
  3  1  2  0  0  0  0
  4  6  2  0  0  0  0
  4  5  1  0  0  0  0
  5  2  2  0  0  0  0
  6  3  1  0  0  0  0
  7  9  1  1  0  0  0
  9  8  1  0  0  0  0
 10  7  1  0  0  0  0
 11 16  1  0  0  0  0
 12 13  1  0  0  0  0
 12 11  1  0  0  0  0
 12 14  1  0  0  0  0
 13 11  1  0  0  0  0
 14 17  1  0  0  0  0
 15 13  1  0  0  0  0
 16 17  1  0  0  0  0
 16 10  1  0  0  0  0
 18 14  1  0  0  0  0
 20 21  2  0  0  0  0
 21 19  1  0  0  0  0
 21 18  1  0  0  0  0
 22 23  1  0  0  0  0
 23 24  1  0  0  0  0
 24 25  1  0  0  0  0
 24 29  1  0  0  0  0
 26 27  2  0  0  0  0
 26 28  1  0  0  0  0
 27 29  2  0  0  0  0
 30 33  2  0  0  0  0
 31 33  2  0  0  0  0
 33 32  1  0  0  0  0
 33 26  1  0  0  0  0
M  END
>  <MODEL>
5

>  <REMARK>
 VINA RESULT:      -7.1      2.864      9.601
  Name = 
  11 active torsions:
  status: ('A' for Active; 'I' for Inactive)
    1  A    between atoms: C_1  and  O_13
    2  A    between atoms: C_1  and  C_15
    3  A    between atoms: C_1  and  C_20
    4  A    between atoms: C_6  and  S_31
    5  A    between atoms: C_12  and  C_19
    6  A    between atoms: O_13  and  C_24
    7  A    between atoms: C_16  and  O_23
    8  A    between atoms: O_18  and  C_19
    9  A    between atoms: O_18  and  C_21
   10  A    between atoms: C_21  and  C_25
   11  A    between atoms: O_23  and  C_27
                            x       y       z     vdW  Elec       q    Type
                         _______ _______ _______ _____ _____    ______ ____

>  <TORSDO>
F 11

$$$$
=
 OpenBabel11072410183D

 33 35  0  0  1  0  0  0  0  0999 V2000
  161.0550  207.4420  152.0660 C   0  0  0  0  0  0  0  0  0  0  0  0
  161.2130  206.8960  153.3420 C   0  0  0  0  0  3  0  0  0  0  0  0
  161.1130  206.5960  150.9350 C   0  0  0  0  0  0  0  0  0  0  0  0
  161.4920  204.7280  152.3850 N   0  0  0  0  0  0  0  0  0  0  0  0
  161.4350  205.5260  153.4820 C   0  0  0  0  0  3  0  0  0  0  0  0
  161.3350  205.2300  151.1300 C   0  0  0  0  0  3  0  0  0  0  0  0
  160.9300  207.0830  149.5250 C   0  0  1  0  0  3  0  0  0  0  0  0
  162.3460  208.8710  148.5150 C   0  0  0  0  0  1  0  0  0  0  0  0
  162.2740  207.4030  148.8880 C   0  0  0  0  0  2  0  0  0  0  0  0
  160.2270  206.1470  148.7580 O   0  0  0  0  0  0  0  0  0  0  0  0
  160.9240  205.5390  146.6120 N   0  0  2  0  0  0  0  0  0  0  0  0
  161.2180  204.2110  146.0400 C   0  0  1  0  0  3  0  0  0  0  0  0
  162.1910  205.2930  145.9050 C   0  0  1  0  0  3  0  0  0  0  0  0
  161.6040  203.2810  147.1750 C   0  0  1  0  0  3  0  0  0  0  0  0
  162.1130  205.8310  144.6230 O   0  0  0  0  0  1  0  0  0  0  0  0
  161.2040  205.4520  148.0410 C   0  0  2  0  0  3  0  0  0  0  0  0
  161.1840  203.9950  148.4350 C   0  0  0  0  0  2  0  0  0  0  0  0
  160.9010  202.0520  147.0500 O   0  0  0  0  0  0  0  0  0  0  0  0
  159.9130  201.0370  148.8770 O   0  0  0  0  0  1  0  0  0  0  0  0
  161.9350  200.2070  148.1950 O   0  0  0  0  0  0  0  0  0  0  0  0
  160.8770  201.0970  148.0690 C   0  0  0  0  0  0  0  0  0  0  0  0
  160.8060  208.9100  151.9500 C   0  0  0  0  0  2  0  0  0  0  0  0
  162.0030  209.6100  152.1200 O   0  0  0  0  0  0  0  0  0  0  0  0
  161.6670  210.7100  152.9100 C   0  0  2  0  0  3  0  0  0  0  0  0
  161.8330  210.3460  154.3820 C   0  0  0  0  0  1  0  0  0  0  0  0
  159.7860  213.0840  150.8330 C   0  0  0  0  0  0  0  0  0  0  0  0
  160.0350  212.1360  151.6930 C   0  0  0  0  0  0  0  0  0  0  0  0
  158.7560  214.1090  151.1460 C   0  0  0  0  0  1  0  0  0  0  0  0
  160.2830  211.1850  152.5560 C   0  0  0  0  0  3  0  0  0  0  0  0
  161.5980  214.4510  149.4350 O   0  0  0  0  0  0  0  0  0  0  0  0
  161.6240  212.0060  149.2320 O   0  0  0  0  0  0  0  0  0  0  0  0
  159.7000  213.3310  147.9970 N   0  0  0  0  0  1  0  0  0  0  0  0
  160.7440  213.2160  149.3690 S   0  0  0  0  0  0  0  0  0  0  0  0
  1  2  1  0  0  0  0
  2  5  2  0  0  0  0
  3  6  1  0  0  0  0
  3  1  2  0  0  0  0
  4  5  1  0  0  0  0
  6  4  2  0  0  0  0
  7  9  1  6  0  0  0
  7  3  1  0  0  0  0
  8  9  1  0  0  0  0
 10  7  1  0  0  0  0
 11 16  1  0  0  0  0
 12 11  1  0  0  0  0
 12 14  1  0  0  0  0
 13 12  1  0  0  0  0
 13 11  1  0  0  0  0
 14 17  1  0  0  0  0
 15 13  1  0  0  0  0
 16 17  1  0  0  0  0
 16 10  1  0  0  0  0
 18 14  1  0  0  0  0
 18 21  1  0  0  0  0
 21 20  2  0  0  0  0
 21 19  1  0  0  0  0
 22  1  1  0  0  0  0
 22 23  1  0  0  0  0
 23 24  1  0  0  0  0
 24 25  1  0  0  0  0
 26 28  1  0  0  0  0
 26 27  2  0  0  0  0
 27 29  2  0  0  0  0
 29 24  1  0  0  0  0
 31 33  2  0  0  0  0
 32 33  1  0  0  0  0
 33 30  2  0  0  0  0
 33 26  1  0  0  0  0
M  END
>  <MODEL>
6

>  <REMARK>
 VINA RESULT:      -6.9      3.332      9.141
  Name = 
  11 active torsions:
  status: ('A' for Active; 'I' for Inactive)
    1  A    between atoms: C_1  and  O_13
    2  A    between atoms: C_1  and  C_15
    3  A    between atoms: C_1  and  C_20
    4  A    between atoms: C_6  and  S_31
    5  A    between atoms: C_12  and  C_19
    6  A    between atoms: O_13  and  C_24
    7  A    between atoms: C_16  and  O_23
    8  A    between atoms: O_18  and  C_19
    9  A    between atoms: O_18  and  C_21
   10  A    between atoms: C_21  and  C_25
   11  A    between atoms: O_23  and  C_27
                            x       y       z     vdW  Elec       q    Type
                         _______ _______ _______ _____ _____    ______ ____

>  <TORSDO>
F 11

$$$$
=
 OpenBabel11072410183D

 33 35  0  0  1  0  0  0  0  0999 V2000
  160.3020  209.5830  153.5670 C   0  0  0  0  0  0  0  0  0  0  0  0
  159.8900  209.5190  154.9000 C   0  0  0  0  0  3  0  0  0  0  0  0
  160.9810  208.4830  152.9950 C   0  0  0  0  0  0  0  0  0  0  0  0
  160.8180  207.3290  155.0860 N   0  0  0  0  0  0  0  0  0  0  0  0
  160.1610  208.3750  155.6510 C   0  0  0  0  0  3  0  0  0  0  0  0
  161.2250  207.3590  153.7890 C   0  0  0  0  0  3  0  0  0  0  0  0
  161.4410  208.4460  151.5650 C   0  0  1  0  0  3  0  0  0  0  0  0
  161.9510  210.2490  149.9180 C   0  0  0  0  0  1  0  0  0  0  0  0
  162.3300  209.6410  151.2540 C   0  0  0  0  0  2  0  0  0  0  0  0
  162.1040  207.2460  151.2820 O   0  0  0  0  0  0  0  0  0  0  0  0
  161.5720  205.0820  150.5800 N   0  0  2  0  0  0  0  0  0  0  0  0
  161.3480  204.5420  149.2250 C   0  0  1  0  0  3  0  0  0  0  0  0
  160.3630  204.3000  150.2770 C   0  0  1  0  0  3  0  0  0  0  0  0
  160.9040  205.6830  148.3280 C   0  0  1  0  0  3  0  0  0  0  0  0
  160.5180  203.0060  150.7700 O   0  0  0  0  0  1  0  0  0  0  0  0
  161.1950  206.4910  150.5380 C   0  0  2  0  0  3  0  0  0  0  0  0
  161.2200  206.9400  149.0970 C   0  0  0  0  0  2  0  0  0  0  0  0
  161.6420  205.6530  147.1120 O   0  0  0  0  0  0  0  0  0  0  0  0
  161.3730  204.3100  145.2500 O   0  0  0  0  0  0  0  0  0  0  0  0
  160.0940  206.2070  145.3570 O   0  0  0  0  0  1  0  0  0  0  0  0
  161.0490  205.3490  145.8860 C   0  0  0  0  0  0  0  0  0  0  0  0
  159.9860  210.8170  152.7870 C   0  0  0  0  0  2  0  0  0  0  0  0
  158.7430  211.3220  153.1790 O   0  0  0  0  0  0  0  0  0  0  0  0
  158.5450  212.4480  152.3790 C   0  0  2  0  0  3  0  0  0  0  0  0
  159.8350  212.7740  151.6340 C   0  0  0  0  0  1  0  0  0  0  0  0
  156.1970  213.3220  155.0640 C   0  0  0  0  0  0  0  0  0  0  0  0
  157.1110  213.4530  154.1440 C   0  0  0  0  0  0  0  0  0  0  0  0
  155.1140  214.3360  155.1720 C   0  0  0  0  0  1  0  0  0  0  0  0
  158.0280  213.5840  153.2210 C   0  0  0  0  0  3  0  0  0  0  0  0
  155.1440  212.0690  157.1670 O   0  0  0  0  0  0  0  0  0  0  0  0
  155.8440  210.6890  155.2640 O   0  0  0  0  0  0  0  0  0  0  0  0
  157.7250  211.6900  156.8270 N   0  0  0  0  0  1  0  0  0  0  0  0
  156.1770  211.8990  156.0890 S   0  0  0  0  0  0  0  0  0  0  0  0
  1  2  1  0  0  0  0
  2  5  2  0  0  0  0
  3  1  2  0  0  0  0
  3  6  1  0  0  0  0
  4  5  1  0  0  0  0
  6  4  2  0  0  0  0
  7  9  1  1  0  0  0
  7  3  1  0  0  0  0
  8  9  1  0  0  0  0
 10  7  1  0  0  0  0
 12 13  1  0  0  0  0
 12 11  1  0  0  0  0
 13 11  1  0  0  0  0
 13 15  1  0  0  0  0
 14 17  1  0  0  0  0
 14 12  1  0  0  0  0
 16 11  1  0  0  0  0
 16 10  1  0  0  0  0
 17 16  1  0  0  0  0
 18 14  1  0  0  0  0
 19 21  2  0  0  0  0
 20 21  1  0  0  0  0
 21 18  1  0  0  0  0
 22 23  1  0  0  0  0
 22  1  1  0  0  0  0
 24 23  1  0  0  0  0
 24 29  1  0  0  0  0
 25 24  1  0  0  0  0
 26 28  1  0  0  0  0
 26 33  1  0  0  0  0
 27 26  2  0  0  0  0
 29 27  2  0  0  0  0
 31 33  2  0  0  0  0
 33 32  1  0  0  0  0
 33 30  2  0  0  0  0
M  END
>  <MODEL>
7

>  <REMARK>
 VINA RESULT:      -6.7      3.651      9.708
  Name = 
  11 active torsions:
  status: ('A' for Active; 'I' for Inactive)
    1  A    between atoms: C_1  and  O_13
    2  A    between atoms: C_1  and  C_15
    3  A    between atoms: C_1  and  C_20
    4  A    between atoms: C_6  and  S_31
    5  A    between atoms: C_12  and  C_19
    6  A    between atoms: O_13  and  C_24
    7  A    between atoms: C_16  and  O_23
    8  A    between atoms: O_18  and  C_19
    9  A    between atoms: O_18  and  C_21
   10  A    between atoms: C_21  and  C_25
   11  A    between atoms: O_23  and  C_27
                            x       y       z     vdW  Elec       q    Type
                         _______ _______ _______ _____ _____    ______ ____

>  <TORSDO>
F 11

$$$$
=
 OpenBabel11072410183D

 33 35  0  0  1  0  0  0  0  0999 V2000
  160.8140  207.5900  153.7190 C   0  0  0  0  0  0  0  0  0  0  0  0
  160.8130  206.9070  154.9370 C   0  0  0  0  0  3  0  0  0  0  0  0
  160.8190  209.0030  153.7130 C   0  0  0  0  0  0  0  0  0  0  0  0
  160.8070  208.9870  156.1070 N   0  0  0  0  0  0  0  0  0  0  0  0
  160.8070  207.6290  156.1310 C   0  0  0  0  0  3  0  0  0  0  0  0
  160.8160  209.6790  154.9370 C   0  0  0  0  0  3  0  0  0  0  0  0
  160.8470  209.8270  152.4570 C   0  0  1  0  0  3  0  0  0  0  0  0
  159.9840  212.1350  152.8490 C   0  0  0  0  0  1  0  0  0  0  0  0
  159.6290  210.7370  152.3830 C   0  0  0  0  0  2  0  0  0  0  0  0
  162.0290  210.5720  152.3700 O   0  0  0  0  0  0  0  0  0  0  0  0
  161.7980  211.1110  150.1080 N   0  0  2  0  0  0  0  0  0  0  0  0
  161.5920  210.2420  148.9330 C   0  0  1  0  0  3  0  0  0  0  0  0
  162.6610  211.2390  148.9240 C   0  0  1  0  0  3  0  0  0  0  0  0
  162.1450  208.8660  149.2580 C   0  0  1  0  0  3  0  0  0  0  0  0
  162.2580  212.3460  148.1800 O   0  0  0  0  0  1  0  0  0  0  0  0
  162.5300  210.3190  151.0920 C   0  0  2  0  0  3  0  0  0  0  0  0
  162.3440  208.8600  150.7520 C   0  0  0  0  0  2  0  0  0  0  0  0
  161.2010  207.8700  148.8850 O   0  0  0  0  0  0  0  0  0  0  0  0
  160.4450  206.6290  147.0870 O   0  0  0  0  0  0  0  0  0  0  0  0
  162.6940  206.5740  147.5150 O   0  0  0  0  0  1  0  0  0  0  0  0
  161.4080  207.0130  147.8020 C   0  0  0  0  0  0  0  0  0  0  0  0
  160.8340  206.7890  152.4590 C   0  0  0  0  0  2  0  0  0  0  0  0
  160.7330  205.4280  152.7590 O   0  0  0  0  0  0  0  0  0  0  0  0
  161.5930  204.7970  151.8580 C   0  0  2  0  0  3  0  0  0  0  0  0
  163.0000  205.3590  152.0230 C   0  0  0  0  0  1  0  0  0  0  0  0
  161.0970  203.0080  148.6900 C   0  0  0  0  0  0  0  0  0  0  0  0
  161.0720  203.9650  149.5740 C   0  0  0  0  0  0  0  0  0  0  0  0
  161.4680  203.3160  147.2830 C   0  0  0  0  0  1  0  0  0  0  0  0
  161.0480  204.9260  150.4610 C   0  0  0  0  0  3  0  0  0  0  0  0
  161.4690  201.0940  150.5060 O   0  0  0  0  0  0  0  0  0  0  0  0
  159.3300  201.1090  149.3040 O   0  0  0  0  0  0  0  0  0  0  0  0
  161.4740  200.2690  148.0080 N   0  0  0  0  0  1  0  0  0  0  0  0
  160.8090  201.3490  149.1810 S   0  0  0  0  0  0  0  0  0  0  0  0
  1  2  1  0  0  0  0
  2  5  2  0  0  0  0
  3  1  2  0  0  0  0
  3  6  1  0  0  0  0
  4  5  1  0  0  0  0
  6  4  2  0  0  0  0
  7  9  1  1  0  0  0
  7  3  1  0  0  0  0
  9  8  1  0  0  0  0
 10  7  1  0  0  0  0
 11 16  1  0  0  0  0
 12 14  1  0  0  0  0
 12 11  1  0  0  0  0
 13 12  1  0  0  0  0
 13 11  1  0  0  0  0
 14 17  1  0  0  0  0
 15 13  1  0  0  0  0
 16 10  1  0  0  0  0
 17 16  1  0  0  0  0
 18 14  1  0  0  0  0
 19 21  2  0  0  0  0
 20 21  1  0  0  0  0
 21 18  1  0  0  0  0
 22 23  1  0  0  0  0
 22  1  1  0  0  0  0
 24 25  1  0  0  0  0
 24 23  1  0  0  0  0
 26 33  1  0  0  0  0
 26 27  2  0  0  0  0
 27 29  2  0  0  0  0
 28 26  1  0  0  0  0
 29 24  1  0  0  0  0
 32 33  1  0  0  0  0
 33 31  2  0  0  0  0
 33 30  2  0  0  0  0
M  END
>  <MODEL>
8

>  <REMARK>
 VINA RESULT:      -6.6      2.585      6.111
  Name = 
  11 active torsions:
  status: ('A' for Active; 'I' for Inactive)
    1  A    between atoms: C_1  and  O_13
    2  A    between atoms: C_1  and  C_15
    3  A    between atoms: C_1  and  C_20
    4  A    between atoms: C_6  and  S_31
    5  A    between atoms: C_12  and  C_19
    6  A    between atoms: O_13  and  C_24
    7  A    between atoms: C_16  and  O_23
    8  A    between atoms: O_18  and  C_19
    9  A    between atoms: O_18  and  C_21
   10  A    between atoms: C_21  and  C_25
   11  A    between atoms: O_23  and  C_27
                            x       y       z     vdW  Elec       q    Type
                         _______ _______ _______ _____ _____    ______ ____

>  <TORSDO>
F 11

$$$$
=
 OpenBabel11072410183D

 33 35  0  0  1  0  0  0  0  0999 V2000
  161.3880  207.5150  152.0490 C   0  0  0  0  0  0  0  0  0  0  0  0
  161.6270  206.1400  151.9930 C   0  0  0  0  0  3  0  0  0  0  0  0
  160.8990  208.0890  153.2440 C   0  0  0  0  0  0  0  0  0  0  0  0
  160.8960  205.9180  154.2540 N   0  0  0  0  0  0  0  0  0  0  0  0
  161.3700  205.3510  153.1150 C   0  0  0  0  0  3  0  0  0  0  0  0
  160.6610  207.2550  154.3400 C   0  0  0  0  0  3  0  0  0  0  0  0
  160.6350  209.5590  153.4100 C   0  0  1  0  0  3  0  0  0  0  0  0
  161.7220  210.5810  155.4110 C   0  0  0  0  0  1  0  0  0  0  0  0
  161.8740  210.2720  153.9340 C   0  0  0  0  0  2  0  0  0  0  0  0
  160.2040  210.1320  152.2080 O   0  0  0  0  0  0  0  0  0  0  0  0
  158.6470  211.7790  152.7760 N   0  0  2  0  0  0  0  0  0  0  0  0
  158.3340  213.0670  152.1260 C   0  0  1  0  0  3  0  0  0  0  0  0
  158.6120  213.0240  153.5610 C   0  0  1  0  0  3  0  0  0  0  0  0
  159.5610  213.5190  151.3560 C   0  0  1  0  0  3  0  0  0  0  0  0
  157.4140  213.0870  154.2680 O   0  0  0  0  0  1  0  0  0  0  0  0
  160.0480  211.4920  152.4850 C   0  0  2  0  0  3  0  0  0  0  0  0
  160.4540  212.3060  151.2810 C   0  0  0  0  0  2  0  0  0  0  0  0
  159.1830  213.9310  150.0490 O   0  0  0  0  0  0  0  0  0  0  0  0
  161.1600  214.4410  148.9660 O   0  0  0  0  0  1  0  0  0  0  0  0
  159.6800  213.0990  147.8480 O   0  0  0  0  0  0  0  0  0  0  0  0
  160.0500  213.8450  148.9580 C   0  0  0  0  0  0  0  0  0  0  0  0
  161.6850  208.3340  150.8350 C   0  0  0  0  0  2  0  0  0  0  0  0
  162.4890  207.6060  149.9550 O   0  0  0  0  0  0  0  0  0  0  0  0
  162.2970  208.2080  148.7110 C   0  0  2  0  0  3  0  0  0  0  0  0
  162.3330  209.7240  148.8710 C   0  0  0  0  0  1  0  0  0  0  0  0
  160.9260  205.7050  146.4000 C   0  0  0  0  0  0  0  0  0  0  0  0
  160.9760  206.6980  147.2440 C   0  0  0  0  0  0  0  0  0  0  0  0
  160.0560  205.8050  145.1990 C   0  0  0  0  0  1  0  0  0  0  0  0
  161.0260  207.6940  148.0890 C   0  0  0  0  0  3  0  0  0  0  0  0
  161.5810  203.2340  145.6460 O   0  0  0  0  0  0  0  0  0  0  0  0
  163.3970  204.7070  146.3870 O   0  0  0  0  0  0  0  0  0  0  0  0
  161.7920  203.6990  148.2270 N   0  0  0  0  0  1  0  0  0  0  0  0
  161.9670  204.3100  146.6210 S   0  0  0  0  0  0  0  0  0  0  0  0
  1  3  1  0  0  0  0
  2  1  2  0  0  0  0
  2  5  1  0  0  0  0
  3  7  1  0  0  0  0
  3  6  2  0  0  0  0
  4  6  1  0  0  0  0
  5  4  2  0  0  0  0
  7  9  1  6  0  0  0
  9  8  1  0  0  0  0
 10 16  1  0  0  0  0
 10  7  1  0  0  0  0
 11 13  1  0  0  0  0
 12 11  1  0  0  0  0
 12 13  1  0  0  0  0
 13 15  1  0  0  0  0
 14 12  1  0  0  0  0
 16 11  1  0  0  0  0
 17 14  1  0  0  0  0
 17 16  1  0  0  0  0
 18 14  1  0  0  0  0
 20 21  2  0  0  0  0
 21 19  1  0  0  0  0
 21 18  1  0  0  0  0
 22  1  1  0  0  0  0
 23 22  1  0  0  0  0
 24 25  1  0  0  0  0
 24 23  1  0  0  0  0
 26 33  1  0  0  0  0
 26 27  2  0  0  0  0
 27 29  2  0  0  0  0
 28 26  1  0  0  0  0
 29 24  1  0  0  0  0
 30 33  2  0  0  0  0
 31 33  2  0  0  0  0
 33 32  1  0  0  0  0
M  END
>  <MODEL>
9

>  <REMARK>
 VINA RESULT:      -6.5      3.122      4.934
  Name = 
  11 active torsions:
  status: ('A' for Active; 'I' for Inactive)
    1  A    between atoms: C_1  and  O_13
    2  A    between atoms: C_1  and  C_15
    3  A    between atoms: C_1  and  C_20
    4  A    between atoms: C_6  and  S_31
    5  A    between atoms: C_12  and  C_19
    6  A    between atoms: O_13  and  C_24
    7  A    between atoms: C_16  and  O_23
    8  A    between atoms: O_18  and  C_19
    9  A    between atoms: O_18  and  C_21
   10  A    between atoms: C_21  and  C_25
   11  A    between atoms: O_23  and  C_27
                            x       y       z     vdW  Elec       q    Type
                         _______ _______ _______ _____ _____    ______ ____

>  <TORSDO>
F 11

$$$$
