=
 OpenBabel11072411233D

 42 43  0  0  1  0  0  0  0  0999 V2000
  161.2480  208.2050  151.9580 C   0  0  0  0  0  3  0  0  0  0  0  0
  162.0630  209.7200  148.6560 N   0  0  0  0  0  1  0  0  0  0  0  0
  160.9810  210.5960  152.0530 C   0  0  0  0  0  0  0  0  0  0  0  0
  161.3480  210.6760  150.7460 N   0  0  0  0  0  0  0  0  0  0  0  0
  161.6710  209.5720  150.0190 C   0  0  0  0  0  0  0  0  0  0  0  0
  160.9220  209.3490  152.6940 C   0  0  0  0  0  0  0  0  0  0  0  0
  161.6250  208.3050  150.6170 C   0  0  0  0  0  0  0  0  0  0  0  0
  160.6770  211.7900  152.7690 N   0  0  0  0  0  1  0  0  0  0  0  0
  161.4110  209.7390  155.1920 C   0  0  0  0  0  0  0  0  0  0  0  0
  162.6290  210.1270  155.0120 N   0  0  0  0  0  2  0  0  0  0  0  0
  160.6070  209.2820  154.0920 N   0  0  0  0  0  2  0  0  0  0  0  0
  160.7830  209.9290  156.5330 C   0  0  2  0  0  3  0  0  0  0  0  0
  159.6690  209.0530  156.6880 O   0  0  0  0  0  0  0  0  0  0  0  0
  159.7880  207.6640  156.5990 C   0  0  0  0  0  0  0  0  0  0  0  0
  160.8250  207.0230  157.2610 O   0  0  0  0  0  1  0  0  0  0  0  0
  158.9670  206.9870  155.9240 O   0  0  0  0  0  0  0  0  0  0  0  0
  160.3670  211.3860  156.7310 C   0  0  0  0  0  2  0  0  0  0  0  0
  159.5150  214.0580  156.2190 O   0  0  0  0  0  0  0  0  0  0  0  0
  158.9950  213.1360  155.5360 C   0  0  0  0  0  0  0  0  0  0  0  0
  159.3740  211.7760  155.7400 N   0  0  0  0  0  2  0  0  0  0  0  0
  157.9520  213.4650  154.5230 C   0  0  0  0  0  2  0  0  0  0  0  0
  155.5350  213.3300  154.0080 C   0  0  0  0  0  1  0  0  0  0  0  0
  156.6550  212.7340  154.8330 C   0  0  2  0  0  3  0  0  0  0  0  0
  156.3360  212.8640  156.2440 N   0  0  0  0  0  1  0  0  0  0  0  0
  162.0330  207.0760  149.8680 C   0  0  0  0  0  2  0  0  0  0  0  0
  160.8040  206.2680  149.4790 C   0  0  2  0  0  3  0  0  0  0  0  0
  160.8780  204.8770  150.0250 C   0  0  0  0  0  0  0  0  0  0  0  0
  160.7040  202.4670  149.7440 C   0  0  0  0  0  0  0  0  0  0  0  0
  160.6340  203.7590  149.2110 C   0  0  0  0  0  3  0  0  0  0  0  0
  161.0250  202.2970  151.1000 C   0  0  0  0  0  3  0  0  0  0  0  0
  161.1930  204.6960  151.3750 C   0  0  0  0  0  3  0  0  0  0  0  0
  161.2670  203.4080  151.9110 C   0  0  0  0  0  3  0  0  0  0  0  0
  160.4520  201.3740  148.9070 O   0  0  0  0  0  0  0  0  0  0  0  0
  161.4820  200.6320  148.2580 C   0  0  0  0  0  2  0  0  0  0  0  0
  161.1370  200.3980  146.7960 C   0  0  0  0  0  2  0  0  0  0  0  0
  159.9960  201.4440  144.9910 O   0  0  0  0  0  1  0  0  0  0  0  0
  160.7530  201.7060  146.1330 C   0  0  0  0  0  2  0  0  0  0  0  0
  160.6220  206.2730  147.9640 C   0  0  0  0  0  2  0  0  0  0  0  0
  161.9010  206.6820  147.2480 C   0  0  0  0  0  2  0  0  0  0  0  0
  163.0240  204.7090  146.5040 O   0  0  0  0  0  1  0  0  0  0  0  0
  161.8160  205.8260  144.9070 O   0  0  0  0  0  0  0  0  0  0  0  0
  162.2780  205.6790  146.2090 C   0  0  0  0  0  0  0  0  0  0  0  0
  1  6  1  0  0  0  0
  2  5  1  0  0  0  0
  3  6  2  0  0  0  0
  3  8  1  0  0  0  0
  4  3  1  0  0  0  0
  5  7  1  0  0  0  0
  5  4  2  0  0  0  0
  6 11  1  0  0  0  0
  7  1  2  0  0  0  0
  9 12  1  0  0  0  0
 10  9  2  0  0  0  0
 11  9  1  0  0  0  0
 12 13  1  0  0  0  0
 12 17  1  6  0  0  0
 14 13  1  0  0  0  0
 14 15  1  0  0  0  0
 16 14  2  0  0  0  0
 19 20  1  0  0  0  0
 19 18  2  0  0  0  0
 20 17  1  0  0  0  0
 21 23  1  0  0  0  0
 21 19  1  0  0  0  0
 23 22  1  6  0  0  0
 23 24  1  0  0  0  0
 25  7  1  0  0  0  0
 26 38  1  6  0  0  0
 26 25  1  0  0  0  0
 26 27  1  0  0  0  0
 27 31  1  0  0  0  0
 28 30  2  0  0  0  0
 29 28  1  0  0  0  0
 29 27  2  0  0  0  0
 30 32  1  0  0  0  0
 31 32  2  0  0  0  0
 33 28  1  0  0  0  0
 34 33  1  0  0  0  0
 35 34  1  0  0  0  0
 36 37  1  0  0  0  0
 37 35  1  0  0  0  0
 39 38  1  0  0  0  0
 41 42  2  0  0  0  0
 42 40  1  0  0  0  0
 42 39  1  0  0  0  0
M  END
>  <MODEL>
1

>  <REMARK>
 VINA RESULT:      -7.3      0.000      0.000
  Name = 
  18 active torsions:
  status: ('A' for Active; 'I' for Inactive)
    1  A    between atoms: C_1  and  C_2
    2  A    between atoms: C_2  and  C_16
    3  A    between atoms: C_2  and  C_37
    4  A    between atoms: C_4  and  C_5
    5  A    between atoms: C_4  and  O_10
    6  A    between atoms: C_4  and  C_13
    7  A    between atoms: C_5  and  N_25
    8  A    between atoms: C_9  and  C_12
    9  A    between atoms: O_10  and  C_30
   10  A    between atoms: C_12  and  C_21
   11  A    between atoms: C_16  and  C_36
   12  A    between atoms: C_17  and  O_22
   13  A    between atoms: C_19  and  C_20
   14  A    between atoms: C_19  and  C_29
   15  A    between atoms: C_20  and  O_22
   16  A    between atoms: N_28  and  C_31
   17  A    between atoms: C_32  and  C_37
   18  A    between atoms: C_36  and  C_40
                            x       y       z     vdW  Elec       q    Type
                         _______ _______ _______ _____ _____    ______ ____

>  <TORSDO>
F 18

$$$$
=
 OpenBabel11072411233D

 42 43  0  0  1  0  0  0  0  0999 V2000
  160.6480  208.8760  151.9100 C   0  0  0  0  0  3  0  0  0  0  0  0
  162.1240  205.9330  153.6480 N   0  0  0  0  0  1  0  0  0  0  0  0
  160.3150  209.0620  154.2880 C   0  0  0  0  0  0  0  0  0  0  0  0
  160.9660  207.8800  154.4580 N   0  0  0  0  0  0  0  0  0  0  0  0
  161.4640  207.1730  153.4080 C   0  0  0  0  0  0  0  0  0  0  0  0
  160.1400  209.5910  153.0000 C   0  0  0  0  0  0  0  0  0  0  0  0
  161.3140  207.6640  152.1030 C   0  0  0  0  0  0  0  0  0  0  0  0
  159.7950  209.7460  155.4240 N   0  0  0  0  0  1  0  0  0  0  0  0
  159.7170  211.9210  151.9890 C   0  0  0  0  0  0  0  0  0  0  0  0
  160.8710  212.0100  151.4160 N   0  0  0  0  0  2  0  0  0  0  0  0
  159.3860  210.7990  152.8230 N   0  0  0  0  0  2  0  0  0  0  0  0
  158.6610  212.9170  151.6420 C   0  0  2  0  0  3  0  0  0  0  0  0
  158.8990  213.4630  150.3470 O   0  0  0  0  0  0  0  0  0  0  0  0
  157.8760  213.6660  149.4180 C   0  0  0  0  0  0  0  0  0  0  0  0
  156.5810  213.8850  149.8640 O   0  0  0  0  0  1  0  0  0  0  0  0
  158.1150  213.6490  148.1800 O   0  0  0  0  0  0  0  0  0  0  0  0
  158.5920  214.0190  152.6980 C   0  0  0  0  0  2  0  0  0  0  0  0
  158.5810  212.9560  155.3430 O   0  0  0  0  0  0  0  0  0  0  0  0
  157.4790  213.3170  154.8520 C   0  0  0  0  0  0  0  0  0  0  0  0
  157.4110  213.8570  153.5340 N   0  0  0  0  0  2  0  0  0  0  0  0
  156.2270  213.1530  155.6450 C   0  0  0  0  0  2  0  0  0  0  0  0
  155.8110  210.7740  155.1060 C   0  0  0  0  0  1  0  0  0  0  0  0
  156.1360  211.7480  156.2180 C   0  0  2  0  0  3  0  0  0  0  0  0
  155.0940  211.6910  157.2290 N   0  0  0  0  0  1  0  0  0  0  0  0
  161.7910  206.8830  150.9200 C   0  0  0  0  0  2  0  0  0  0  0  0
  160.6210  206.1770  150.2520 C   0  0  2  0  0  3  0  0  0  0  0  0
  160.7660  204.6900  150.3380 C   0  0  0  0  0  0  0  0  0  0  0  0
  160.6750  202.4790  149.3290 C   0  0  0  0  0  0  0  0  0  0  0  0
  160.5380  203.8680  149.2240 C   0  0  0  0  0  3  0  0  0  0  0  0
  161.0460  201.9150  150.5590 C   0  0  0  0  0  3  0  0  0  0  0  0
  161.1310  204.1170  151.5600 C   0  0  0  0  0  3  0  0  0  0  0  0
  161.2720  202.7310  151.6700 C   0  0  0  0  0  3  0  0  0  0  0  0
  160.4380  201.6870  148.2000 O   0  0  0  0  0  0  0  0  0  0  0  0
  161.3490  200.6930  147.7370 C   0  0  0  0  0  2  0  0  0  0  0  0
  161.0830  200.3570  146.2790 C   0  0  0  0  0  2  0  0  0  0  0  0
  161.2330  202.6330  145.6070 O   0  0  0  0  0  1  0  0  0  0  0  0
  160.3940  201.5180  145.5910 C   0  0  0  0  0  2  0  0  0  0  0  0
  160.4700  206.6480  148.8080 C   0  0  0  0  0  2  0  0  0  0  0  0
  161.8220  206.9200  148.1640 C   0  0  0  0  0  2  0  0  0  0  0  0
  162.9070  205.2800  146.8070 O   0  0  0  0  0  1  0  0  0  0  0  0
  161.1250  206.3510  145.8380 O   0  0  0  0  0  0  0  0  0  0  0  0
  161.9850  206.1320  146.9070 C   0  0  0  0  0  0  0  0  0  0  0  0
  1  7  2  0  0  0  0
  1  6  1  0  0  0  0
  3  4  1  0  0  0  0
  3  8  1  0  0  0  0
  5  2  1  0  0  0  0
  5  4  2  0  0  0  0
  6  3  2  0  0  0  0
  7  5  1  0  0  0  0
  9 11  1  0  0  0  0
 10  9  2  0  0  0  0
 11  6  1  0  0  0  0
 12  9  1  0  0  0  0
 12 17  1  1  0  0  0
 13 12  1  0  0  0  0
 14 15  1  0  0  0  0
 14 13  1  0  0  0  0
 16 14  2  0  0  0  0
 17 20  1  0  0  0  0
 19 18  2  0  0  0  0
 19 21  1  0  0  0  0
 20 19  1  0  0  0  0
 21 23  1  0  0  0  0
 23 22  1  6  0  0  0
 23 24  1  0  0  0  0
 25  7  1  0  0  0  0
 26 38  1  6  0  0  0
 26 27  1  0  0  0  0
 26 25  1  0  0  0  0
 27 31  1  0  0  0  0
 28 30  2  0  0  0  0
 29 28  1  0  0  0  0
 29 27  2  0  0  0  0
 30 32  1  0  0  0  0
 31 32  2  0  0  0  0
 33 28  1  0  0  0  0
 34 33  1  0  0  0  0
 35 34  1  0  0  0  0
 37 36  1  0  0  0  0
 37 35  1  0  0  0  0
 39 38  1  0  0  0  0
 40 42  1  0  0  0  0
 41 42  2  0  0  0  0
 42 39  1  0  0  0  0
M  END
>  <MODEL>
2

>  <REMARK>
 VINA RESULT:      -6.9      2.499      3.892
  Name = 
  18 active torsions:
  status: ('A' for Active; 'I' for Inactive)
    1  A    between atoms: C_1  and  C_2
    2  A    between atoms: C_2  and  C_16
    3  A    between atoms: C_2  and  C_37
    4  A    between atoms: C_4  and  C_5
    5  A    between atoms: C_4  and  O_10
    6  A    between atoms: C_4  and  C_13
    7  A    between atoms: C_5  and  N_25
    8  A    between atoms: C_9  and  C_12
    9  A    between atoms: O_10  and  C_30
   10  A    between atoms: C_12  and  C_21
   11  A    between atoms: C_16  and  C_36
   12  A    between atoms: C_17  and  O_22
   13  A    between atoms: C_19  and  C_20
   14  A    between atoms: C_19  and  C_29
   15  A    between atoms: C_20  and  O_22
   16  A    between atoms: N_28  and  C_31
   17  A    between atoms: C_32  and  C_37
   18  A    between atoms: C_36  and  C_40
                            x       y       z     vdW  Elec       q    Type
                         _______ _______ _______ _____ _____    ______ ____

>  <TORSDO>
F 18

$$$$
=
 OpenBabel11072411233D

 42 43  0  0  1  0  0  0  0  0999 V2000
  161.1530  210.4830  152.0530 C   0  0  0  0  0  3  0  0  0  0  0  0
  162.1760  210.5990  148.4750 N   0  0  0  0  0  1  0  0  0  0  0  0
  160.5230  212.5920  151.0770 C   0  0  0  0  0  0  0  0  0  0  0  0
  161.0490  212.1850  149.8900 N   0  0  0  0  0  0  0  0  0  0  0  0
  161.6280  210.9630  149.7400 C   0  0  0  0  0  0  0  0  0  0  0  0
  160.5630  211.7430  152.1930 C   0  0  0  0  0  0  0  0  0  0  0  0
  161.6900  210.0810  150.8280 C   0  0  0  0  0  0  0  0  0  0  0  0
  159.9510  213.8920  151.1800 N   0  0  0  0  0  1  0  0  0  0  0  0
  158.7940  211.9400  154.0540 C   0  0  0  0  0  0  0  0  0  0  0  0
  157.8580  211.3520  153.3860 N   0  0  0  0  0  2  0  0  0  0  0  0
  160.0740  212.2100  153.4590 N   0  0  0  0  0  2  0  0  0  0  0  0
  158.5930  212.1910  155.5120 C   0  0  2  0  0  3  0  0  0  0  0  0
  157.8130  213.3670  155.7110 O   0  0  0  0  0  0  0  0  0  0  0  0
  156.4680  213.3210  156.0850 C   0  0  0  0  0  0  0  0  0  0  0  0
  156.0640  213.9420  157.2590 O   0  0  0  0  0  1  0  0  0  0  0  0
  155.6190  212.7210  155.3730 O   0  0  0  0  0  0  0  0  0  0  0  0
  159.9380  212.2970  156.2300 C   0  0  0  0  0  2  0  0  0  0  0  0
  162.3140  210.8690  155.5650 O   0  0  0  0  0  0  0  0  0  0  0  0
  161.5340  210.3490  156.4060 C   0  0  0  0  0  0  0  0  0  0  0  0
  160.3270  211.0090  156.7850 N   0  0  0  0  0  2  0  0  0  0  0  0
  161.8600  209.0180  156.9930 C   0  0  0  0  0  2  0  0  0  0  0  0
  160.2980  208.5170  155.1390 C   0  0  0  0  0  1  0  0  0  0  0  0
  161.1510  207.9090  156.2330 C   0  0  2  0  0  3  0  0  0  0  0  0
  160.3050  207.1490  157.1370 N   0  0  0  0  0  1  0  0  0  0  0  0
  162.3740  208.7560  150.7160 C   0  0  0  0  0  2  0  0  0  0  0  0
  161.4480  207.7430  150.0610 C   0  0  2  0  0  3  0  0  0  0  0  0
  161.2820  206.5290  150.9200 C   0  0  0  0  0  0  0  0  0  0  0  0
  160.7330  204.1750  151.1970 C   0  0  0  0  0  0  0  0  0  0  0  0
  160.8870  205.2960  150.3750 C   0  0  0  0  0  3  0  0  0  0  0  0
  160.9810  204.2920  152.5740 C   0  0  0  0  0  3  0  0  0  0  0  0
  161.5220  206.6340  152.2930 C   0  0  0  0  0  3  0  0  0  0  0  0
  161.3730  205.5170  153.1190 C   0  0  0  0  0  3  0  0  0  0  0  0
  160.3350  202.9630  150.6240 O   0  0  0  0  0  0  0  0  0  0  0  0
  161.1900  201.8260  150.5260 C   0  0  0  0  0  2  0  0  0  0  0  0
  160.8910  201.0350  149.2630 C   0  0  0  0  0  2  0  0  0  0  0  0
  161.6150  202.7890  147.8300 O   0  0  0  0  0  1  0  0  0  0  0  0
  160.5230  201.9740  148.1320 C   0  0  0  0  0  2  0  0  0  0  0  0
  161.9530  207.3840  148.6660 C   0  0  0  0  0  2  0  0  0  0  0  0
  160.8040  207.0760  147.7170 C   0  0  0  0  0  2  0  0  0  0  0  0
  160.5510  206.1930  145.5120 O   0  0  0  0  0  0  0  0  0  0  0  0
  162.5220  205.6820  146.5670 O   0  0  0  0  0  1  0  0  0  0  0  0
  161.2780  206.3000  146.5340 C   0  0  0  0  0  0  0  0  0  0  0  0
  1  6  1  0  0  0  0
  2  5  1  0  0  0  0
  3  8  1  0  0  0  0
  3  6  2  0  0  0  0
  4  3  1  0  0  0  0
  5  4  2  0  0  0  0
  5  7  1  0  0  0  0
  6 11  1  0  0  0  0
  7  1  2  0  0  0  0
  9 12  1  0  0  0  0
 10  9  2  0  0  0  0
 11  9  1  0  0  0  0
 12 13  1  0  0  0  0
 12 17  1  1  0  0  0
 13 14  1  0  0  0  0
 14 15  1  0  0  0  0
 16 14  2  0  0  0  0
 17 20  1  0  0  0  0
 18 19  2  0  0  0  0
 19 20  1  0  0  0  0
 19 21  1  0  0  0  0
 23 22  1  6  0  0  0
 23 21  1  0  0  0  0
 23 24  1  0  0  0  0
 25  7  1  0  0  0  0
 26 38  1  6  0  0  0
 26 25  1  0  0  0  0
 26 27  1  0  0  0  0
 27 31  1  0  0  0  0
 28 30  2  0  0  0  0
 29 27  2  0  0  0  0
 29 28  1  0  0  0  0
 30 32  1  0  0  0  0
 31 32  2  0  0  0  0
 33 28  1  0  0  0  0
 34 33  1  0  0  0  0
 35 34  1  0  0  0  0
 36 37  1  0  0  0  0
 37 35  1  0  0  0  0
 39 38  1  0  0  0  0
 40 42  2  0  0  0  0
 42 41  1  0  0  0  0
 42 39  1  0  0  0  0
M  END
>  <MODEL>
3

>  <REMARK>
 VINA RESULT:      -6.6      1.997      3.732
  Name = 
  18 active torsions:
  status: ('A' for Active; 'I' for Inactive)
    1  A    between atoms: C_1  and  C_2
    2  A    between atoms: C_2  and  C_16
    3  A    between atoms: C_2  and  C_37
    4  A    between atoms: C_4  and  C_5
    5  A    between atoms: C_4  and  O_10
    6  A    between atoms: C_4  and  C_13
    7  A    between atoms: C_5  and  N_25
    8  A    between atoms: C_9  and  C_12
    9  A    between atoms: O_10  and  C_30
   10  A    between atoms: C_12  and  C_21
   11  A    between atoms: C_16  and  C_36
   12  A    between atoms: C_17  and  O_22
   13  A    between atoms: C_19  and  C_20
   14  A    between atoms: C_19  and  C_29
   15  A    between atoms: C_20  and  O_22
   16  A    between atoms: N_28  and  C_31
   17  A    between atoms: C_32  and  C_37
   18  A    between atoms: C_36  and  C_40
                            x       y       z     vdW  Elec       q    Type
                         _______ _______ _______ _____ _____    ______ ____

>  <TORSDO>
F 18

$$$$
=
 OpenBabel11072411233D

 42 43  0  0  1  0  0  0  0  0999 V2000
  160.9930  207.8650  151.1860 C   0  0  0  0  0  3  0  0  0  0  0  0
  161.2710  206.8380  147.6180 N   0  0  0  0  0  1  0  0  0  0  0  0
  161.9000  209.6670  149.8710 C   0  0  0  0  0  0  0  0  0  0  0  0
  161.8090  208.8860  148.7610 N   0  0  0  0  0  0  0  0  0  0  0  0
  161.3290  207.6140  148.8130 C   0  0  0  0  0  0  0  0  0  0  0  0
  161.4910  209.1700  151.1180 C   0  0  0  0  0  0  0  0  0  0  0  0
  160.9070  207.0760  150.0370 C   0  0  0  0  0  0  0  0  0  0  0  0
  162.4330  210.9830  149.7590 N   0  0  0  0  0  1  0  0  0  0  0  0
  160.6340  210.5960  153.0840 C   0  0  0  0  0  0  0  0  0  0  0  0
  159.4060  210.6170  152.6840 N   0  0  0  0  0  2  0  0  0  0  0  0
  161.6610  209.9740  152.2940 N   0  0  0  0  0  2  0  0  0  0  0  0
  160.9540  211.0770  154.4600 C   0  0  2  0  0  3  0  0  0  0  0  0
  162.2770  210.6930  154.8260 O   0  0  0  0  0  0  0  0  0  0  0  0
  162.6000  210.2370  156.1050 C   0  0  0  0  0  0  0  0  0  0  0  0
  162.2140  208.9620  156.4940 O   0  0  0  0  0  0  0  0  0  0  0  0
  163.2340  210.9690  156.9120 O   0  0  0  0  0  1  0  0  0  0  0  0
  159.9320  210.5480  155.4660 C   0  0  0  0  0  2  0  0  0  0  0  0
  157.0860  210.5210  155.6190 O   0  0  0  0  0  0  0  0  0  0  0  0
  157.6850  211.5510  156.0280 C   0  0  0  0  0  0  0  0  0  0  0  0
  159.1080  211.6320  155.9800 N   0  0  0  0  0  2  0  0  0  0  0  0
  156.8990  212.7090  156.5410 C   0  0  0  0  0  2  0  0  0  0  0  0
  156.0730  212.8520  154.2130 C   0  0  0  0  0  1  0  0  0  0  0  0
  156.5380  213.6560  155.4080 C   0  0  2  0  0  3  0  0  0  0  0  0
  157.6960  214.4490  155.0350 N   0  0  0  0  0  1  0  0  0  0  0  0
  160.4340  205.6610  150.1420 C   0  0  0  0  0  2  0  0  0  0  0  0
  161.6230  204.7180  150.2450 C   0  0  2  0  0  3  0  0  0  0  0  0
  161.3440  203.4200  149.5550 C   0  0  0  0  0  0  0  0  0  0  0  0
  160.9200  202.1280  147.5380 C   0  0  0  0  0  0  0  0  0  0  0  0
  161.1850  203.3520  148.1610 C   0  0  0  0  0  3  0  0  0  0  0  0
  160.8180  200.9660  148.3180 C   0  0  0  0  0  3  0  0  0  0  0  0
  161.2360  202.2560  150.3220 C   0  0  0  0  0  3  0  0  0  0  0  0
  160.9750  201.0310  149.7050 C   0  0  0  0  0  3  0  0  0  0  0  0
  160.7640  202.0950  146.1480 O   0  0  0  0  0  0  0  0  0  0  0  0
  160.9760  203.2300  145.3100 C   0  0  0  0  0  2  0  0  0  0  0  0
  162.3470  203.8340  145.5600 C   0  0  0  0  0  2  0  0  0  0  0  0
  161.4800  205.5150  144.1200 O   0  0  0  0  0  1  0  0  0  0  0  0
  162.3460  205.3050  145.1930 C   0  0  0  0  0  2  0  0  0  0  0  0
  162.0120  204.5100  151.7060 C   0  0  0  0  0  2  0  0  0  0  0  0
  160.8640  204.8530  152.6450 C   0  0  0  0  0  2  0  0  0  0  0  0
  162.4780  206.2360  153.7350 O   0  0  0  0  0  0  0  0  0  0  0  0
  160.3100  206.5000  154.4330 O   0  0  0  0  0  1  0  0  0  0  0  0
  161.2690  205.9010  153.6260 C   0  0  0  0  0  0  0  0  0  0  0  0
  2  5  1  0  0  0  0
  3  6  2  0  0  0  0
  4  5  2  0  0  0  0
  4  3  1  0  0  0  0
  5  7  1  0  0  0  0
  6  1  1  0  0  0  0
  6 11  1  0  0  0  0
  7 25  1  0  0  0  0
  7  1  2  0  0  0  0
  8  3  1  0  0  0  0
  9 12  1  0  0  0  0
 10  9  2  0  0  0  0
 11  9  1  0  0  0  0
 12 13  1  0  0  0  0
 12 17  1  1  0  0  0
 13 14  1  0  0  0  0
 14 15  2  0  0  0  0
 14 16  1  0  0  0  0
 17 20  1  0  0  0  0
 18 19  2  0  0  0  0
 19 21  1  0  0  0  0
 20 19  1  0  0  0  0
 23 22  1  6  0  0  0
 23 21  1  0  0  0  0
 24 23  1  0  0  0  0
 26 25  1  1  0  0  0
 26 38  1  0  0  0  0
 27 26  1  0  0  0  0
 27 31  1  0  0  0  0
 28 29  1  0  0  0  0
 28 30  2  0  0  0  0
 29 27  2  0  0  0  0
 30 32  1  0  0  0  0
 32 31  2  0  0  0  0
 33 28  1  0  0  0  0
 34 35  1  0  0  0  0
 34 33  1  0  0  0  0
 36 37  1  0  0  0  0
 37 35  1  0  0  0  0
 38 39  1  0  0  0  0
 39 42  1  0  0  0  0
 42 40  2  0  0  0  0
 42 41  1  0  0  0  0
M  END
>  <MODEL>
4

>  <REMARK>
 VINA RESULT:      -6.5      1.839      3.668
  Name = 
  18 active torsions:
  status: ('A' for Active; 'I' for Inactive)
    1  A    between atoms: C_1  and  C_2
    2  A    between atoms: C_2  and  C_16
    3  A    between atoms: C_2  and  C_37
    4  A    between atoms: C_4  and  C_5
    5  A    between atoms: C_4  and  O_10
    6  A    between atoms: C_4  and  C_13
    7  A    between atoms: C_5  and  N_25
    8  A    between atoms: C_9  and  C_12
    9  A    between atoms: O_10  and  C_30
   10  A    between atoms: C_12  and  C_21
   11  A    between atoms: C_16  and  C_36
   12  A    between atoms: C_17  and  O_22
   13  A    between atoms: C_19  and  C_20
   14  A    between atoms: C_19  and  C_29
   15  A    between atoms: C_20  and  O_22
   16  A    between atoms: N_28  and  C_31
   17  A    between atoms: C_32  and  C_37
   18  A    between atoms: C_36  and  C_40
                            x       y       z     vdW  Elec       q    Type
                         _______ _______ _______ _____ _____    ______ ____

>  <TORSDO>
F 18

$$$$
=
 OpenBabel11072411233D

 42 43  0  0  1  0  0  0  0  0999 V2000
  159.9340  210.8570  152.5990 C   0  0  0  0  0  3  0  0  0  0  0  0
  159.9590  212.9510  155.6780 N   0  0  0  0  0  1  0  0  0  0  0  0
  160.7700  209.5830  154.4630 C   0  0  0  0  0  0  0  0  0  0  0  0
  160.5950  210.6680  155.2650 N   0  0  0  0  0  0  0  0  0  0  0  0
  160.1050  211.8450  154.7900 C   0  0  0  0  0  0  0  0  0  0  0  0
  160.4400  209.6550  153.1010 C   0  0  0  0  0  0  0  0  0  0  0  0
  159.7610  211.9620  153.4360 C   0  0  0  0  0  0  0  0  0  0  0  0
  161.3090  208.3850  155.0120 N   0  0  0  0  0  1  0  0  0  0  0  0
  161.6840  208.4330  151.2060 C   0  0  0  0  0  0  0  0  0  0  0  0
  162.3530  209.4680  150.8200 N   0  0  0  0  0  2  0  0  0  0  0  0
  160.6990  208.5310  152.2470 N   0  0  0  0  0  2  0  0  0  0  0  0
  162.0610  207.0900  150.6750 C   0  0  2  0  0  3  0  0  0  0  0  0
  161.1520  206.6850  149.6540 O   0  0  0  0  0  0  0  0  0  0  0  0
  161.4400  206.8220  148.2940 C   0  0  0  0  0  0  0  0  0  0  0  0
  160.5380  206.3470  147.3540 O   0  0  0  0  0  0  0  0  0  0  0  0
  162.5100  207.3680  147.9120 O   0  0  0  0  0  1  0  0  0  0  0  0
  162.1130  206.0600  151.8030 C   0  0  0  0  0  2  0  0  0  0  0  0
  160.4640  203.8710  152.5860 O   0  0  0  0  0  0  0  0  0  0  0  0
  161.3370  203.6600  151.7030 C   0  0  0  0  0  0  0  0  0  0  0  0
  162.1970  204.7110  151.2640 N   0  0  0  0  0  2  0  0  0  0  0  0
  161.4930  202.2930  151.1280 C   0  0  0  0  0  2  0  0  0  0  0  0
  161.0740  200.8930  149.1310 C   0  0  0  0  0  1  0  0  0  0  0  0
  160.6430  202.1380  149.8770 C   0  0  2  0  0  3  0  0  0  0  0  0
  160.8090  203.2960  149.0160 N   0  0  0  0  0  1  0  0  0  0  0  0
  159.2800  213.2580  152.8660 C   0  0  0  0  0  2  0  0  0  0  0  0
  157.9250  213.0660  152.2020 C   0  0  2  0  0  3  0  0  0  0  0  0
  157.9860  213.4020  150.7440 C   0  0  0  0  0  0  0  0  0  0  0  0
  159.2260  214.0850  148.7660 C   0  0  0  0  0  0  0  0  0  0  0  0
  159.1930  213.7710  150.1290 C   0  0  0  0  0  3  0  0  0  0  0  0
  158.0400  214.0260  148.0170 C   0  0  0  0  0  3  0  0  0  0  0  0
  156.8110  213.3510  149.9890 C   0  0  0  0  0  3  0  0  0  0  0  0
  156.8370  213.6610  148.6280 C   0  0  0  0  0  3  0  0  0  0  0  0
  160.4440  214.4520  148.1840 O   0  0  0  0  0  0  0  0  0  0  0  0
  161.7100  214.0360  148.6920 C   0  0  0  0  0  2  0  0  0  0  0  0
  162.1690  212.7570  148.0120 C   0  0  0  0  0  2  0  0  0  0  0  0
  160.6010  211.6560  146.6050 O   0  0  0  0  0  1  0  0  0  0  0  0
  161.5700  212.6580  146.6230 C   0  0  0  0  0  2  0  0  0  0  0  0
  156.8580  213.8820  152.9260 C   0  0  0  0  0  2  0  0  0  0  0  0
  157.1910  214.0540  154.4010 C   0  0  0  0  0  2  0  0  0  0  0  0
  155.1370  213.6870  155.5640 O   0  0  0  0  0  0  0  0  0  0  0  0
  156.6850  212.0020  155.7250 O   0  0  0  0  0  1  0  0  0  0  0  0
  156.2750  213.2440  155.2560 C   0  0  0  0  0  0  0  0  0  0  0  0
  1  6  2  0  0  0  0
  1  7  1  0  0  0  0
  3  8  1  0  0  0  0
  3  4  2  0  0  0  0
  5  4  1  0  0  0  0
  5  2  1  0  0  0  0
  6  3  1  0  0  0  0
  7  5  2  0  0  0  0
  9 11  1  0  0  0  0
 10  9  2  0  0  0  0
 11  6  1  0  0  0  0
 12  9  1  0  0  0  0
 12 17  1  1  0  0  0
 13 12  1  0  0  0  0
 14 13  1  0  0  0  0
 15 14  2  0  0  0  0
 16 14  1  0  0  0  0
 19 18  2  0  0  0  0
 20 19  1  0  0  0  0
 20 17  1  0  0  0  0
 21 19  1  0  0  0  0
 23 22  1  6  0  0  0
 23 21  1  0  0  0  0
 24 23  1  0  0  0  0
 25  7  1  0  0  0  0
 26 25  1  1  0  0  0
 26 38  1  0  0  0  0
 27 26  1  0  0  0  0
 28 29  2  0  0  0  0
 29 27  1  0  0  0  0
 30 32  2  0  0  0  0
 30 28  1  0  0  0  0
 31 27  2  0  0  0  0
 32 31  1  0  0  0  0
 33 34  1  0  0  0  0
 33 28  1  0  0  0  0
 35 34  1  0  0  0  0
 36 37  1  0  0  0  0
 37 35  1  0  0  0  0
 38 39  1  0  0  0  0
 39 42  1  0  0  0  0
 42 40  2  0  0  0  0
 42 41  1  0  0  0  0
M  END
>  <MODEL>
5

>  <REMARK>
 VINA RESULT:      -6.5      3.487      9.718
  Name = 
  18 active torsions:
  status: ('A' for Active; 'I' for Inactive)
    1  A    between atoms: C_1  and  C_2
    2  A    between atoms: C_2  and  C_16
    3  A    between atoms: C_2  and  C_37
    4  A    between atoms: C_4  and  C_5
    5  A    between atoms: C_4  and  O_10
    6  A    between atoms: C_4  and  C_13
    7  A    between atoms: C_5  and  N_25
    8  A    between atoms: C_9  and  C_12
    9  A    between atoms: O_10  and  C_30
   10  A    between atoms: C_12  and  C_21
   11  A    between atoms: C_16  and  C_36
   12  A    between atoms: C_17  and  O_22
   13  A    between atoms: C_19  and  C_20
   14  A    between atoms: C_19  and  C_29
   15  A    between atoms: C_20  and  O_22
   16  A    between atoms: N_28  and  C_31
   17  A    between atoms: C_32  and  C_37
   18  A    between atoms: C_36  and  C_40
                            x       y       z     vdW  Elec       q    Type
                         _______ _______ _______ _____ _____    ______ ____

>  <TORSDO>
F 18

$$$$
=
 OpenBabel11072411233D

 42 43  0  0  1  0  0  0  0  0999 V2000
  160.3130  209.0720  152.4710 C   0  0  0  0  0  3  0  0  0  0  0  0
  161.9770  207.1830  155.2150 N   0  0  0  0  0  1  0  0  0  0  0  0
  159.7580  210.0430  154.6030 C   0  0  0  0  0  0  0  0  0  0  0  0
  160.5290  209.1050  155.2160 N   0  0  0  0  0  0  0  0  0  0  0  0
  161.1960  208.1490  154.5140 C   0  0  0  0  0  0  0  0  0  0  0  0
  159.6320  210.0470  153.2060 C   0  0  0  0  0  0  0  0  0  0  0  0
  161.1010  208.1160  153.1160 C   0  0  0  0  0  0  0  0  0  0  0  0
  159.0640  211.0040  155.3930 N   0  0  0  0  0  1  0  0  0  0  0  0
  159.0730  212.3290  152.1510 C   0  0  0  0  0  0  0  0  0  0  0  0
  160.1960  212.8810  152.4690 N   0  0  0  0  0  2  0  0  0  0  0  0
  158.7560  210.9930  152.5740 N   0  0  0  0  0  2  0  0  0  0  0  0
  158.1690  213.0310  151.1930 C   0  0  2  0  0  3  0  0  0  0  0  0
  158.8900  213.4320  150.0310 O   0  0  0  0  0  0  0  0  0  0  0  0
  158.3500  213.3500  148.7460 C   0  0  0  0  0  0  0  0  0  0  0  0
  159.1830  213.4840  147.6440 O   0  0  0  0  0  0  0  0  0  0  0  0
  157.1160  213.1600  148.5740 O   0  0  0  0  0  1  0  0  0  0  0  0
  157.5000  214.2300  151.8650 C   0  0  0  0  0  2  0  0  0  0  0  0
  157.6790  214.3440  154.7070 O   0  0  0  0  0  0  0  0  0  0  0  0
  156.6230  213.8770  154.2050 C   0  0  0  0  0  0  0  0  0  0  0  0
  156.4660  213.7900  152.7890 N   0  0  0  0  0  2  0  0  0  0  0  0
  155.5350  213.3830  155.0970 C   0  0  0  0  0  2  0  0  0  0  0  0
  155.5880  210.9100  155.0140 C   0  0  0  0  0  1  0  0  0  0  0  0
  155.9720  212.1260  155.8300 C   0  0  2  0  0  3  0  0  0  0  0  0
  155.3260  212.0580  157.1290 N   0  0  0  0  0  1  0  0  0  0  0  0
  161.7680  207.0420  152.3170 C   0  0  0  0  0  2  0  0  0  0  0  0
  161.3660  207.1530  150.8540 C   0  0  2  0  0  3  0  0  0  0  0  0
  161.1900  205.8000  150.2390 C   0  0  0  0  0  0  0  0  0  0  0  0
  161.2670  204.3070  148.3200 C   0  0  0  0  0  0  0  0  0  0  0  0
  161.4430  205.5790  148.8750 C   0  0  0  0  0  3  0  0  0  0  0  0
  160.8390  203.2510  149.1400 C   0  0  0  0  0  3  0  0  0  0  0  0
  160.7600  204.7410  151.0440 C   0  0  0  0  0  3  0  0  0  0  0  0
  160.5850  203.4690  150.4960 C   0  0  0  0  0  3  0  0  0  0  0  0
  161.5250  204.1200  146.9570 O   0  0  0  0  0  0  0  0  0  0  0  0
  161.3440  205.1430  145.9800 C   0  0  0  0  0  2  0  0  0  0  0  0
  160.7740  204.5650  144.6960 C   0  0  0  0  0  2  0  0  0  0  0  0
  159.2760  202.7930  144.1760 O   0  0  0  0  0  1  0  0  0  0  0  0
  160.4380  203.1000  144.8840 C   0  0  0  0  0  2  0  0  0  0  0  0
  162.3800  207.9960  150.0860 C   0  0  0  0  0  2  0  0  0  0  0  0
  161.7120  208.8080  148.9850 C   0  0  0  0  0  2  0  0  0  0  0  0
  162.3320  210.7090  150.2920 O   0  0  0  0  0  1  0  0  0  0  0  0
  161.7410  211.1470  148.1200 O   0  0  0  0  0  0  0  0  0  0  0  0
  161.9520  210.2680  149.1760 C   0  0  0  0  0  0  0  0  0  0  0  0
  1  7  2  0  0  0  0
  1  6  1  0  0  0  0
  3  4  1  0  0  0  0
  3  8  1  0  0  0  0
  5  2  1  0  0  0  0
  5  4  2  0  0  0  0
  6  3  2  0  0  0  0
  7  5  1  0  0  0  0
  9 10  2  0  0  0  0
  9 11  1  0  0  0  0
 11  6  1  0  0  0  0
 12 17  1  1  0  0  0
 12  9  1  0  0  0  0
 13 12  1  0  0  0  0
 14 13  1  0  0  0  0
 15 14  2  0  0  0  0
 16 14  1  0  0  0  0
 17 20  1  0  0  0  0
 19 18  2  0  0  0  0
 19 21  1  0  0  0  0
 20 19  1  0  0  0  0
 21 23  1  0  0  0  0
 23 22  1  6  0  0  0
 23 24  1  0  0  0  0
 25  7  1  0  0  0  0
 26 38  1  6  0  0  0
 26 25  1  0  0  0  0
 27 26  1  0  0  0  0
 27 31  1  0  0  0  0
 28 29  1  0  0  0  0
 28 30  2  0  0  0  0
 29 27  2  0  0  0  0
 30 32  1  0  0  0  0
 32 31  2  0  0  0  0
 33 28  1  0  0  0  0
 34 33  1  0  0  0  0
 35 37  1  0  0  0  0
 35 34  1  0  0  0  0
 36 37  1  0  0  0  0
 39 42  1  0  0  0  0
 39 38  1  0  0  0  0
 41 42  2  0  0  0  0
 42 40  1  0  0  0  0
M  END
>  <MODEL>
6

>  <REMARK>
 VINA RESULT:      -6.1      3.098      4.720
  Name = 
  18 active torsions:
  status: ('A' for Active; 'I' for Inactive)
    1  A    between atoms: C_1  and  C_2
    2  A    between atoms: C_2  and  C_16
    3  A    between atoms: C_2  and  C_37
    4  A    between atoms: C_4  and  C_5
    5  A    between atoms: C_4  and  O_10
    6  A    between atoms: C_4  and  C_13
    7  A    between atoms: C_5  and  N_25
    8  A    between atoms: C_9  and  C_12
    9  A    between atoms: O_10  and  C_30
   10  A    between atoms: C_12  and  C_21
   11  A    between atoms: C_16  and  C_36
   12  A    between atoms: C_17  and  O_22
   13  A    between atoms: C_19  and  C_20
   14  A    between atoms: C_19  and  C_29
   15  A    between atoms: C_20  and  O_22
   16  A    between atoms: N_28  and  C_31
   17  A    between atoms: C_32  and  C_37
   18  A    between atoms: C_36  and  C_40
                            x       y       z     vdW  Elec       q    Type
                         _______ _______ _______ _____ _____    ______ ____

>  <TORSDO>
F 18

$$$$
=
 OpenBabel11072411233D

 42 43  0  0  1  0  0  0  0  0999 V2000
  161.3410  208.0380  151.8930 C   0  0  0  0  0  3  0  0  0  0  0  0
  162.2850  204.4430  151.6590 N   0  0  0  0  0  1  0  0  0  0  0  0
  160.8270  206.9080  153.9570 C   0  0  0  0  0  0  0  0  0  0  0  0
  161.3110  205.7510  153.4280 N   0  0  0  0  0  0  0  0  0  0  0  0
  161.8070  205.6890  152.1630 C   0  0  0  0  0  0  0  0  0  0  0  0
  160.8320  208.0860  153.1950 C   0  0  0  0  0  0  0  0  0  0  0  0
  161.8320  206.8420  151.3650 C   0  0  0  0  0  0  0  0  0  0  0  0
  160.2990  206.9070  155.2790 N   0  0  0  0  0  1  0  0  0  0  0  0
  160.9080  210.5370  153.9810 C   0  0  0  0  0  0  0  0  0  0  0  0
  162.1900  210.6490  153.8850 N   0  0  0  0  0  2  0  0  0  0  0  0
  160.2510  209.2830  153.7330 N   0  0  0  0  0  2  0  0  0  0  0  0
  160.0880  211.7670  154.1900 C   0  0  2  0  0  3  0  0  0  0  0  0
  160.3120  212.2970  155.4950 O   0  0  0  0  0  0  0  0  0  0  0  0
  160.3400  211.4940  156.6370 C   0  0  0  0  0  0  0  0  0  0  0  0
  159.1570  210.9600  157.1260 O   0  0  0  0  0  0  0  0  0  0  0  0
  161.4260  211.2520  157.2300 O   0  0  0  0  0  1  0  0  0  0  0  0
  158.6060  211.4710  153.9650 C   0  0  0  0  0  2  0  0  0  0  0  0
  155.9110  211.3810  154.8900 O   0  0  0  0  0  0  0  0  0  0  0  0
  156.4480  212.5130  154.7580 C   0  0  0  0  0  0  0  0  0  0  0  0
  157.7940  212.6310  154.2990 N   0  0  0  0  0  2  0  0  0  0  0  0
  155.6620  213.7440  155.0570 C   0  0  0  0  0  2  0  0  0  0  0  0
  157.0790  213.7470  157.0850 C   0  0  0  0  0  1  0  0  0  0  0  0
  155.7000  214.0560  156.5440 C   0  0  2  0  0  3  0  0  0  0  0  0
  154.7150  213.2510  157.2460 N   0  0  0  0  0  1  0  0  0  0  0  0
  162.3110  206.7960  149.9490 C   0  0  0  0  0  2  0  0  0  0  0  0
  161.1370  206.9510  148.9950 C   0  0  2  0  0  3  0  0  0  0  0  0
  161.1890  205.9300  147.9030 C   0  0  0  0  0  0  0  0  0  0  0  0
  161.5820  203.6570  147.1300 C   0  0  0  0  0  0  0  0  0  0  0  0
  161.5350  204.5950  148.1670 C   0  0  0  0  0  3  0  0  0  0  0  0
  161.2770  204.0620  145.8210 C   0  0  0  0  0  3  0  0  0  0  0  0
  160.8920  206.3220  146.5950 C   0  0  0  0  0  3  0  0  0  0  0  0
  160.9340  205.3900  145.5550 C   0  0  0  0  0  3  0  0  0  0  0  0
  161.9330  202.3350  147.4260 O   0  0  0  0  0  0  0  0  0  0  0  0
  160.9800  201.2820  147.5490 C   0  0  0  0  0  2  0  0  0  0  0  0
  160.0490  201.5330  148.7240 C   0  0  0  0  0  2  0  0  0  0  0  0
  160.3920  202.3990  150.9110 O   0  0  0  0  0  1  0  0  0  0  0  0
  160.8070  201.4010  150.0290 C   0  0  0  0  0  2  0  0  0  0  0  0
  161.0870  208.3720  148.4390 C   0  0  0  0  0  2  0  0  0  0  0  0
  162.3220  209.1700  148.8340 C   0  0  0  0  0  2  0  0  0  0  0  0
  161.8820  211.0450  150.2470 O   0  0  0  0  0  1  0  0  0  0  0  0
  161.7550  211.4490  147.9940 O   0  0  0  0  0  0  0  0  0  0  0  0
  161.9800  210.6030  149.0730 C   0  0  0  0  0  0  0  0  0  0  0  0
  1  6  1  0  0  0  0
  2  5  1  0  0  0  0
  3  8  1  0  0  0  0
  4  3  1  0  0  0  0
  5  4  2  0  0  0  0
  6 11  1  0  0  0  0
  6  3  2  0  0  0  0
  7  1  2  0  0  0  0
  7  5  1  0  0  0  0
  9 12  1  0  0  0  0
 10  9  2  0  0  0  0
 11  9  1  0  0  0  0
 12 17  1  1  0  0  0
 12 13  1  0  0  0  0
 13 14  1  0  0  0  0
 14 15  2  0  0  0  0
 14 16  1  0  0  0  0
 17 20  1  0  0  0  0
 19 18  2  0  0  0  0
 19 21  1  0  0  0  0
 20 19  1  0  0  0  0
 21 23  1  0  0  0  0
 23 22  1  1  0  0  0
 23 24  1  0  0  0  0
 25  7  1  0  0  0  0
 26 38  1  6  0  0  0
 26 25  1  0  0  0  0
 27 29  1  0  0  0  0
 27 26  1  0  0  0  0
 28 33  1  0  0  0  0
 28 29  2  0  0  0  0
 30 28  1  0  0  0  0
 31 27  2  0  0  0  0
 32 30  2  0  0  0  0
 32 31  1  0  0  0  0
 33 34  1  0  0  0  0
 34 35  1  0  0  0  0
 35 37  1  0  0  0  0
 37 36  1  0  0  0  0
 38 39  1  0  0  0  0
 39 42  1  0  0  0  0
 41 42  2  0  0  0  0
 42 40  1  0  0  0  0
M  END
>  <MODEL>
7

>  <REMARK>
 VINA RESULT:      -6.0      2.542      3.855
  Name = 
  18 active torsions:
  status: ('A' for Active; 'I' for Inactive)
    1  A    between atoms: C_1  and  C_2
    2  A    between atoms: C_2  and  C_16
    3  A    between atoms: C_2  and  C_37
    4  A    between atoms: C_4  and  C_5
    5  A    between atoms: C_4  and  O_10
    6  A    between atoms: C_4  and  C_13
    7  A    between atoms: C_5  and  N_25
    8  A    between atoms: C_9  and  C_12
    9  A    between atoms: O_10  and  C_30
   10  A    between atoms: C_12  and  C_21
   11  A    between atoms: C_16  and  C_36
   12  A    between atoms: C_17  and  O_22
   13  A    between atoms: C_19  and  C_20
   14  A    between atoms: C_19  and  C_29
   15  A    between atoms: C_20  and  O_22
   16  A    between atoms: N_28  and  C_31
   17  A    between atoms: C_32  and  C_37
   18  A    between atoms: C_36  and  C_40
                            x       y       z     vdW  Elec       q    Type
                         _______ _______ _______ _____ _____    ______ ____

>  <TORSDO>
F 18

$$$$
=
 OpenBabel11072411233D

 42 43  0  0  1  0  0  0  0  0999 V2000
  160.4580  207.3820  151.7000 C   0  0  0  0  0  3  0  0  0  0  0  0
  161.9530  203.9870  152.0200 N   0  0  0  0  0  1  0  0  0  0  0  0
  161.4310  207.1060  153.8840 C   0  0  0  0  0  0  0  0  0  0  0  0
  161.8120  205.8460  153.5410 N   0  0  0  0  0  0  0  0  0  0  0  0
  161.5420  205.3200  152.3160 C   0  0  0  0  0  0  0  0  0  0  0  0
  160.7400  207.9080  152.9640 C   0  0  0  0  0  0  0  0  0  0  0  0
  160.8540  206.0850  151.3630 C   0  0  0  0  0  0  0  0  0  0  0  0
  161.7220  207.5940  155.1910 N   0  0  0  0  0  1  0  0  0  0  0  0
  161.0580  210.4040  153.5140 C   0  0  0  0  0  0  0  0  0  0  0  0
  162.3480  210.3700  153.4610 N   0  0  0  0  0  2  0  0  0  0  0  0
  160.2770  209.2080  153.3600 N   0  0  0  0  0  2  0  0  0  0  0  0
  160.3720  211.7280  153.5690 C   0  0  2  0  0  3  0  0  0  0  0  0
  160.0340  212.0560  154.9150 O   0  0  0  0  0  0  0  0  0  0  0  0
  158.7640  211.8240  155.4480 C   0  0  0  0  0  0  0  0  0  0  0  0
  157.8590  212.8720  155.5380 O   0  0  0  0  0  0  0  0  0  0  0  0
  158.4310  210.6770  155.8500 O   0  0  0  0  0  1  0  0  0  0  0  0
  159.1310  211.7290  152.6760 C   0  0  0  0  0  2  0  0  0  0  0  0
  157.3190  213.7620  151.8370 O   0  0  0  0  0  0  0  0  0  0  0  0
  158.3730  213.6040  151.1670 C   0  0  0  0  0  0  0  0  0  0  0  0
  159.3240  212.6050  151.5300 N   0  0  0  0  0  2  0  0  0  0  0  0
  158.6190  214.4510  149.9650 C   0  0  0  0  0  2  0  0  0  0  0  0
  159.8300  213.8810  147.8830 C   0  0  0  0  0  1  0  0  0  0  0  0
  158.5850  213.6080  148.7000 C   0  0  2  0  0  3  0  0  0  0  0  0
  157.4100  213.9410  147.9130 N   0  0  0  0  0  1  0  0  0  0  0  0
  160.4850  205.5180  150.0300 C   0  0  0  0  0  2  0  0  0  0  0  0
  160.8850  206.4810  148.9230 C   0  0  2  0  0  3  0  0  0  0  0  0
  160.9820  205.7780  147.6050 C   0  0  0  0  0  0  0  0  0  0  0  0
  161.2180  203.7480  146.2860 C   0  0  0  0  0  0  0  0  0  0  0  0
  161.1250  204.3840  147.5290 C   0  0  0  0  0  3  0  0  0  0  0  0
  161.1630  204.5180  145.1130 C   0  0  0  0  0  3  0  0  0  0  0  0
  160.9320  206.5350  146.4300 C   0  0  0  0  0  3  0  0  0  0  0  0
  161.0220  205.9060  145.1860 C   0  0  0  0  0  3  0  0  0  0  0  0
  161.3640  202.3570  146.2450 O   0  0  0  0  0  0  0  0  0  0  0  0
  161.3390  201.5330  147.4090 C   0  0  0  0  0  2  0  0  0  0  0  0
  159.9630  201.5530  148.0520 C   0  0  0  0  0  2  0  0  0  0  0  0
  161.3410  200.9380  149.8890 O   0  0  0  0  0  1  0  0  0  0  0  0
  160.0870  201.4520  149.5590 C   0  0  0  0  0  2  0  0  0  0  0  0
  162.1880  207.1910  149.2810 C   0  0  0  0  0  2  0  0  0  0  0  0
  162.4770  208.3430  148.3280 C   0  0  0  0  0  2  0  0  0  0  0  0
  162.4970  209.8650  150.1690 O   0  0  0  0  0  1  0  0  0  0  0  0
  161.5330  210.6490  148.2420 O   0  0  0  0  0  0  0  0  0  0  0  0
  162.1790  209.6570  148.9690 C   0  0  0  0  0  0  0  0  0  0  0  0
  1  6  1  0  0  0  0
  2  5  1  0  0  0  0
  3  8  1  0  0  0  0
  4  3  1  0  0  0  0
  5  4  2  0  0  0  0
  6 11  1  0  0  0  0
  6  3  2  0  0  0  0
  7  1  2  0  0  0  0
  7  5  1  0  0  0  0
  9 12  1  0  0  0  0
 10  9  2  0  0  0  0
 11  9  1  0  0  0  0
 12 17  1  6  0  0  0
 12 13  1  0  0  0  0
 13 14  1  0  0  0  0
 14 15  2  0  0  0  0
 14 16  1  0  0  0  0
 19 20  1  0  0  0  0
 19 18  2  0  0  0  0
 20 17  1  0  0  0  0
 21 19  1  0  0  0  0
 23 22  1  6  0  0  0
 23 21  1  0  0  0  0
 24 23  1  0  0  0  0
 25  7  1  0  0  0  0
 26 38  1  1  0  0  0
 26 25  1  0  0  0  0
 27 26  1  0  0  0  0
 28 29  2  0  0  0  0
 29 27  1  0  0  0  0
 30 32  2  0  0  0  0
 30 28  1  0  0  0  0
 31 27  2  0  0  0  0
 32 31  1  0  0  0  0
 33 28  1  0  0  0  0
 33 34  1  0  0  0  0
 34 35  1  0  0  0  0
 35 37  1  0  0  0  0
 37 36  1  0  0  0  0
 39 42  1  0  0  0  0
 39 38  1  0  0  0  0
 41 42  2  0  0  0  0
 42 40  1  0  0  0  0
M  END
>  <MODEL>
8

>  <REMARK>
 VINA RESULT:      -5.7      2.905      4.478
  Name = 
  18 active torsions:
  status: ('A' for Active; 'I' for Inactive)
    1  A    between atoms: C_1  and  C_2
    2  A    between atoms: C_2  and  C_16
    3  A    between atoms: C_2  and  C_37
    4  A    between atoms: C_4  and  C_5
    5  A    between atoms: C_4  and  O_10
    6  A    between atoms: C_4  and  C_13
    7  A    between atoms: C_5  and  N_25
    8  A    between atoms: C_9  and  C_12
    9  A    between atoms: O_10  and  C_30
   10  A    between atoms: C_12  and  C_21
   11  A    between atoms: C_16  and  C_36
   12  A    between atoms: C_17  and  O_22
   13  A    between atoms: C_19  and  C_20
   14  A    between atoms: C_19  and  C_29
   15  A    between atoms: C_20  and  O_22
   16  A    between atoms: N_28  and  C_31
   17  A    between atoms: C_32  and  C_37
   18  A    between atoms: C_36  and  C_40
                            x       y       z     vdW  Elec       q    Type
                         _______ _______ _______ _____ _____    ______ ____

>  <TORSDO>
F 18

$$$$
=
 OpenBabel11072411233D

 42 43  0  0  1  0  0  0  0  0999 V2000
  162.0360  209.4080  148.1940 C   0  0  0  0  0  3  0  0  0  0  0  0
  162.6230  207.7620  151.4820 N   0  0  0  0  0  1  0  0  0  0  0  0
  161.4950  210.9200  149.9880 C   0  0  0  0  0  0  0  0  0  0  0  0
  161.8450  209.9600  150.8860 N   0  0  0  0  0  0  0  0  0  0  0  0
  162.2850  208.7330  150.4940 C   0  0  0  0  0  0  0  0  0  0  0  0
  161.5830  210.6640  148.6120 C   0  0  0  0  0  0  0  0  0  0  0  0
  162.3900  208.4330  149.1290 C   0  0  0  0  0  0  0  0  0  0  0  0
  161.0200  212.1780  150.4580 N   0  0  0  0  0  1  0  0  0  0  0  0
  161.9270  212.6900  147.0600 C   0  0  0  0  0  0  0  0  0  0  0  0
  163.1360  212.9290  147.4480 N   0  0  0  0  0  2  0  0  0  0  0  0
  161.1410  211.6560  147.6740 N   0  0  0  0  0  2  0  0  0  0  0  0
  161.4060  213.3900  145.8490 C   0  0  2  0  0  3  0  0  0  0  0  0
  162.4260  214.1930  145.2610 O   0  0  0  0  0  0  0  0  0  0  0  0
  163.0990  213.8180  144.0960 C   0  0  0  0  0  0  0  0  0  0  0  0
  162.5790  212.8060  143.3030 O   0  0  0  0  0  0  0  0  0  0  0  0
  164.1730  214.3850  143.7600 O   0  0  0  0  0  1  0  0  0  0  0  0
  160.1790  214.2320  146.2010 C   0  0  0  0  0  2  0  0  0  0  0  0
  157.6790  214.2570  147.5700 O   0  0  0  0  0  0  0  0  0  0  0  0
  158.7280  214.3260  148.2640 C   0  0  0  0  0  0  0  0  0  0  0  0
  160.0130  214.3190  147.6440 N   0  0  0  0  0  2  0  0  0  0  0  0
  158.6270  214.4450  149.7470 C   0  0  0  0  0  2  0  0  0  0  0  0
  156.2090  214.1940  150.2080 C   0  0  0  0  0  1  0  0  0  0  0  0
  157.5570  213.5110  150.2880 C   0  0  2  0  0  3  0  0  0  0  0  0
  157.8460  213.1730  151.6710 N   0  0  0  0  0  1  0  0  0  0  0  0
  162.8080  207.0750  148.6620 C   0  0  0  0  0  2  0  0  0  0  0  0
  161.6400  206.3710  147.9870 C   0  0  2  0  0  3  0  0  0  0  0  0
  161.2660  205.1220  148.7200 C   0  0  0  0  0  0  0  0  0  0  0  0
  160.9500  202.7110  148.7970 C   0  0  0  0  0  0  0  0  0  0  0  0
  161.3090  203.8660  148.0940 C   0  0  0  0  0  3  0  0  0  0  0  0
  160.5490  202.8180  150.1380 C   0  0  0  0  0  3  0  0  0  0  0  0
  160.8600  205.2170  150.0550 C   0  0  0  0  0  3  0  0  0  0  0  0
  160.5030  204.0670  150.7630 C   0  0  0  0  0  3  0  0  0  0  0  0
  161.0010  201.4750  148.1430 O   0  0  0  0  0  0  0  0  0  0  0  0
  160.8780  201.3330  146.7290 C   0  0  0  0  0  2  0  0  0  0  0  0
  160.5280  199.9010  146.3610 C   0  0  0  0  0  2  0  0  0  0  0  0
  161.3470  197.9720  145.2400 O   0  0  0  0  0  1  0  0  0  0  0  0
  161.5550  199.3420  145.3970 C   0  0  0  0  0  2  0  0  0  0  0  0
  161.9630  206.0920  146.5210 C   0  0  0  0  0  2  0  0  0  0  0  0
  160.7250  206.2170  145.6430 C   0  0  0  0  0  2  0  0  0  0  0  0
  161.1720  205.7450  143.3440 O   0  0  0  0  0  0  0  0  0  0  0  0
  160.4710  203.9630  144.6060 O   0  0  0  0  0  1  0  0  0  0  0  0
  160.8090  205.3040  144.4670 C   0  0  0  0  0  0  0  0  0  0  0  0
  1  6  2  0  0  0  0
  1  7  1  0  0  0  0
  3  8  1  0  0  0  0
  3  4  2  0  0  0  0
  5  4  1  0  0  0  0
  5  2  1  0  0  0  0
  6  3  1  0  0  0  0
  7  5  2  0  0  0  0
  9 10  2  0  0  0  0
  9 11  1  0  0  0  0
 11  6  1  0  0  0  0
 12 17  1  1  0  0  0
 12  9  1  0  0  0  0
 13 12  1  0  0  0  0
 14 13  1  0  0  0  0
 15 14  2  0  0  0  0
 16 14  1  0  0  0  0
 17 20  1  0  0  0  0
 18 19  2  0  0  0  0
 19 21  1  0  0  0  0
 20 19  1  0  0  0  0
 21 23  1  0  0  0  0
 23 22  1  1  0  0  0
 23 24  1  0  0  0  0
 25  7  1  0  0  0  0
 26 38  1  6  0  0  0
 26 25  1  0  0  0  0
 26 27  1  0  0  0  0
 27 31  1  0  0  0  0
 28 30  2  0  0  0  0
 29 27  2  0  0  0  0
 29 28  1  0  0  0  0
 30 32  1  0  0  0  0
 31 32  2  0  0  0  0
 33 28  1  0  0  0  0
 34 33  1  0  0  0  0
 35 34  1  0  0  0  0
 36 37  1  0  0  0  0
 37 35  1  0  0  0  0
 39 38  1  0  0  0  0
 40 42  2  0  0  0  0
 42 41  1  0  0  0  0
 42 39  1  0  0  0  0
M  END
>  <MODEL>
9

>  <REMARK>
 VINA RESULT:      -5.5      4.319      6.345
  Name = 
  18 active torsions:
  status: ('A' for Active; 'I' for Inactive)
    1  A    between atoms: C_1  and  C_2
    2  A    between atoms: C_2  and  C_16
    3  A    between atoms: C_2  and  C_37
    4  A    between atoms: C_4  and  C_5
    5  A    between atoms: C_4  and  O_10
    6  A    between atoms: C_4  and  C_13
    7  A    between atoms: C_5  and  N_25
    8  A    between atoms: C_9  and  C_12
    9  A    between atoms: O_10  and  C_30
   10  A    between atoms: C_12  and  C_21
   11  A    between atoms: C_16  and  C_36
   12  A    between atoms: C_17  and  O_22
   13  A    between atoms: C_19  and  C_20
   14  A    between atoms: C_19  and  C_29
   15  A    between atoms: C_20  and  O_22
   16  A    between atoms: N_28  and  C_31
   17  A    between atoms: C_32  and  C_37
   18  A    between atoms: C_36  and  C_40
                            x       y       z     vdW  Elec       q    Type
                         _______ _______ _______ _____ _____    ______ ____

>  <TORSDO>
F 18

$$$$
