=
 OpenBabel11072411213D

 42 47  0  0  1  0  0  0  0  0999 V2000
  160.7490  205.5680  148.9010 N   0  0  0  0  0  2  0  0  0  0  0  0
  160.9320  205.4690  151.2170 C   0  0  0  0  0  2  0  0  0  0  0  0
  162.4670  209.3310  150.1180 C   0  0  2  0  0  3  0  0  0  0  0  0
  161.6280  209.6120  151.3560 C   0  0  1  0  0  3  0  0  0  0  0  0
  160.9730  207.8510  147.0710 C   0  0  0  0  0  1  0  0  0  0  0  0
  161.5500  207.8680  148.4760 C   0  0  2  0  0  3  0  0  0  0  0  0
  160.7470  206.9330  149.3990 C   0  0  2  0  0  3  0  0  0  0  0  0
  160.7010  208.1230  151.9530 S   0  0  0  0  0  0  0  0  0  0  0  0
  160.5580  204.7250  150.0150 N   0  0  0  0  0  0  0  0  0  0  0  0
  161.3450  206.8470  150.7850 C   0  0  1  0  0  3  0  0  0  0  0  0
  162.5360  210.2520  148.9030 C   0  0  1  0  0  3  0  0  0  0  0  0
  161.4020  209.2630  149.0400 C   0  0  2  0  0  3  0  0  0  0  0  0
  161.5040  203.6300  149.8820 C   0  0  0  0  0  1  0  0  0  0  0  0
  160.0540  213.1190  148.6530 C   0  0  0  0  0  2  0  0  0  0  0  0
  159.9900  213.2190  147.1230 C   0  0  1  0  0  3  0  0  0  0  0  0
  162.0510  211.6630  149.2230 C   0  0  2  0  0  3  0  0  0  0  0  0
  161.2650  212.8520  146.3580 C   0  0  0  0  0  0  0  0  0  0  0  0
  160.5270  211.7390  149.0990 C   0  0  0  0  0  2  0  0  0  0  0  0
  162.4740  212.6410  146.9240 C   0  0  0  0  0  3  0  0  0  0  0  0
  162.7940  212.7140  148.3870 C   0  0  0  0  0  2  0  0  0  0  0  0
  158.7800  212.4390  146.6040 C   0  0  0  0  0  3  0  0  0  0  0  0
  157.5590  212.7430  147.4540 C   0  0  0  0  0  2  0  0  0  0  0  0
  157.7200  213.4040  146.1030 C   0  0  0  0  0  2  0  0  0  0  0  0
  161.1880  212.8150  144.8530 C   0  0  1  0  0  3  0  0  0  0  0  0
  160.1130  213.5790  144.3920 O   0  0  0  0  0  1  0  0  0  0  0  0
  162.4630  213.2670  144.2180 C   0  0  0  0  0  0  0  0  0  0  0  0
  163.0820  214.4380  144.6390 O   0  0  0  0  0  1  0  0  0  0  0  0
  162.9860  212.5760  143.3060 O   0  0  0  0  0  0  0  0  0  0  0  0
  159.8370  211.1830  154.9470 O   0  0  0  0  0  0  0  0  0  0  0  0
  162.3600  210.3140  152.4650 C   0  0  0  0  0  0  0  0  0  0  0  0
  162.5330  210.4590  154.9390 C   0  0  0  0  0  1  0  0  0  0  0  0
  160.4300  211.1990  153.8330 C   0  0  0  0  0  0  0  0  0  0  0  0
  163.5870  210.5550  152.3010 O   0  0  0  0  0  0  0  0  0  0  0  0
  161.7440  210.6320  153.7270 N   0  0  0  0  0  0  0  0  0  0  0  0
  159.8170  211.7680  152.7050 O   0  0  0  0  0  0  0  0  0  0  0  0
  156.3370  214.0790  152.6780 N   0  0  0  0  0  0  0  0  0  0  0  0
  157.7180  212.4740  153.7830 C   0  0  0  0  0  3  0  0  0  0  0  0
  155.6430  213.2330  154.8270 N   0  0  0  0  0  1  0  0  0  0  0  0
  157.2050  214.1420  151.6300 C   0  0  0  0  0  3  0  0  0  0  0  0
  158.3650  213.3650  151.6350 C   0  0  0  0  0  3  0  0  0  0  0  0
  158.6300  212.5170  152.7140 C   0  0  0  0  0  0  0  0  0  0  0  0
  156.5680  213.2670  153.7450 C   0  0  0  0  0  0  0  0  0  0  0  0
  1  7  1  0  0  0  0
  1  9  1  0  0  0  0
  3  4  1  0  0  0  0
  4  8  1  0  0  0  0
  4 30  1  0  0  0  0
  5  6  1  0  0  0  0
  6 12  1  0  0  0  0
  6  7  1  0  0  0  0
  7 10  1  0  0  0  0
  9  2  1  0  0  0  0
 10  2  1  0  0  0  0
 10  8  1  0  0  0  0
 11 12  1  0  0  0  0
 11 16  1  0  0  0  0
 11  3  1  0  0  0  0
 12  3  1  0  0  0  0
 13  9  1  0  0  0  0
 14 18  1  0  0  0  0
 15 14  1  0  0  0  0
 17 19  2  0  0  0  0
 17 15  1  0  0  0  0
 18 16  1  0  0  0  0
 19 20  1  0  0  0  0
 20 16  1  0  0  0  0
 21 15  1  0  0  0  0
 21 22  1  0  0  0  0
 23 21  1  0  0  0  0
 23 22  1  0  0  0  0
 24 17  1  0  0  0  0
 25 24  1  0  0  0  0
 26 27  1  0  0  0  0
 26 24  1  0  0  0  0
 28 26  2  0  0  0  0
 30 34  1  0  0  0  0
 32 29  2  0  0  0  0
 33 30  2  0  0  0  0
 34 32  1  0  0  0  0
 34 31  1  0  0  0  0
 35 41  1  0  0  0  0
 35 32  1  0  0  0  0
 36 42  1  0  0  0  0
 39 40  1  0  0  0  0
 39 36  2  0  0  0  0
 40 41  2  0  0  0  0
 41 37  1  0  0  0  0
 42 37  2  0  0  0  0
 42 38  1  0  0  0  0
M  END
>  <MODEL>
1

>  <REMARK>
 VINA RESULT:      -4.0      0.000      0.000
  Name = 
  7 active torsions:
  status: ('A' for Active; 'I' for Inactive)
    1  A    between atoms: C_2  and  C_21
    2  A    between atoms: C_10  and  C_23
    3  A    between atoms: C_14  and  C_29
    4  A    between atoms: C_17  and  C_28
    5  A    between atoms: C_19  and  C_21
    6  A    between atoms: O_31  and  C_33
    7  A    between atoms: O_31  and  C_36
                            x       y       z     vdW  Elec       q    Type
                         _______ _______ _______ _____ _____    ______ ____

>  <TORSDO>
F 7

$$$$
=
 OpenBabel11072411213D

 42 47  0  0  1  0  0  0  0  0999 V2000
  162.0300  207.3470  149.3810 N   0  0  0  0  0  2  0  0  0  0  0  0
  162.2560  208.9330  147.6950 C   0  0  0  0  0  2  0  0  0  0  0  0
  160.2130  210.9540  150.8910 C   0  0  2  0  0  3  0  0  0  0  0  0
  161.2230  211.9810  150.3990 C   0  0  1  0  0  3  0  0  0  0  0  0
  161.2900  207.6630  152.2030 C   0  0  0  0  0  1  0  0  0  0  0  0
  160.9630  208.7070  151.1490 C   0  0  2  0  0  3  0  0  0  0  0  0
  161.9940  208.6590  150.0060 C   0  0  2  0  0  3  0  0  0  0  0  0
  162.3690  211.3040  149.1110 S   0  0  0  0  0  0  0  0  0  0  0  0
  162.4850  207.5350  148.0600 N   0  0  0  0  0  0  0  0  0  0  0  0
  161.6530  209.6180  148.8880 C   0  0  1  0  0  3  0  0  0  0  0  0
  159.8530  210.7420  152.3590 C   0  0  1  0  0  3  0  0  0  0  0  0
  161.0790  210.0780  151.7760 C   0  0  2  0  0  3  0  0  0  0  0  0
  161.6330  206.7280  147.2030 C   0  0  0  0  0  1  0  0  0  0  0  0
  160.5570  212.4150  155.6990 C   0  0  0  0  0  2  0  0  0  0  0  0
  159.2200  212.0990  156.3860 C   0  0  1  0  0  3  0  0  0  0  0  0
  160.2560  211.9310  153.2270 C   0  0  2  0  0  3  0  0  0  0  0  0
  157.9870  212.0150  155.4820 C   0  0  0  0  0  0  0  0  0  0  0  0
  160.8360  211.4430  154.5570 C   0  0  0  0  0  2  0  0  0  0  0  0
  157.9530  212.3840  154.1830 C   0  0  0  0  0  3  0  0  0  0  0  0
  159.1000  212.9280  153.3830 C   0  0  0  0  0  2  0  0  0  0  0  0
  159.3680  210.8460  157.2510 C   0  0  0  0  0  3  0  0  0  0  0  0
  159.6890  209.6440  156.3800 C   0  0  0  0  0  2  0  0  0  0  0  0
  160.7910  210.3220  157.1630 C   0  0  0  0  0  2  0  0  0  0  0  0
  156.6900  211.5780  156.1130 C   0  0  1  0  0  3  0  0  0  0  0  0
  156.2730  212.4950  157.0800 O   0  0  0  0  0  1  0  0  0  0  0  0
  155.6180  211.3670  155.0940 C   0  0  0  0  0  0  0  0  0  0  0  0
  155.0290  212.4520  154.4570 O   0  0  0  0  0  0  0  0  0  0  0  0
  155.2550  210.1970  154.8010 O   0  0  0  0  0  1  0  0  0  0  0  0
  158.0330  212.5560  147.5590 O   0  0  0  0  0  0  0  0  0  0  0  0
  160.6310  213.3040  150.0020 C   0  0  0  0  0  0  0  0  0  0  0  0
  158.4740  214.4530  149.5600 C   0  0  0  0  0  1  0  0  0  0  0  0
  159.1990  212.6230  148.0370 C   0  0  0  0  0  0  0  0  0  0  0  0
  161.1680  214.3500  150.4600 O   0  0  0  0  0  0  0  0  0  0  0  0
  159.4360  213.4170  149.2090 N   0  0  0  0  0  0  0  0  0  0  0  0
  160.2610  211.9330  147.4290 O   0  0  0  0  0  0  0  0  0  0  0  0
  161.9720  212.9460  143.7560 N   0  0  0  0  0  0  0  0  0  0  0  0
  160.2290  211.8520  144.9680 C   0  0  0  0  0  3  0  0  0  0  0  0
  160.2250  211.8300  142.5250 N   0  0  0  0  0  1  0  0  0  0  0  0
  162.5680  213.3380  144.9160 C   0  0  0  0  0  3  0  0  0  0  0  0
  162.0010  212.9940  146.1450 C   0  0  0  0  0  3  0  0  0  0  0  0
  160.8240  212.2410  146.1810 C   0  0  0  0  0  0  0  0  0  0  0  0
  160.8250  212.2150  143.7570 C   0  0  0  0  0  0  0  0  0  0  0  0
  1  7  1  0  0  0  0
  2  9  1  0  0  0  0
  2 10  1  0  0  0  0
  3 12  1  0  0  0  0
  3 11  1  0  0  0  0
  4  3  1  0  0  0  0
  6 12  1  0  0  0  0
  6  5  1  0  0  0  0
  7  6  1  0  0  0  0
  8  4  1  0  0  0  0
  9  1  1  0  0  0  0
 10  8  1  0  0  0  0
 10  7  1  0  0  0  0
 11 16  1  0  0  0  0
 12 11  1  0  0  0  0
 13  9  1  0  0  0  0
 14 15  1  0  0  0  0
 15 21  1  0  0  0  0
 16 20  1  0  0  0  0
 16 18  1  0  0  0  0
 17 24  1  0  0  0  0
 17 15  1  0  0  0  0
 18 14  1  0  0  0  0
 19 17  2  0  0  0  0
 20 19  1  0  0  0  0
 22 23  1  0  0  0  0
 22 21  1  0  0  0  0
 23 21  1  0  0  0  0
 24 25  1  0  0  0  0
 26 24  1  0  0  0  0
 27 26  2  0  0  0  0
 28 26  1  0  0  0  0
 29 32  2  0  0  0  0
 30  4  1  0  0  0  0
 30 33  2  0  0  0  0
 32 34  1  0  0  0  0
 34 31  1  0  0  0  0
 34 30  1  0  0  0  0
 35 32  1  0  0  0  0
 36 42  2  0  0  0  0
 36 39  1  0  0  0  0
 37 41  2  0  0  0  0
 38 42  1  0  0  0  0
 39 40  2  0  0  0  0
 40 41  1  0  0  0  0
 41 35  1  0  0  0  0
 42 37  1  0  0  0  0
M  END
>  <MODEL>
2

>  <REMARK>
 VINA RESULT:      -1.9      3.166      8.014
  Name = 
  7 active torsions:
  status: ('A' for Active; 'I' for Inactive)
    1  A    between atoms: C_2  and  C_21
    2  A    between atoms: C_10  and  C_23
    3  A    between atoms: C_14  and  C_29
    4  A    between atoms: C_17  and  C_28
    5  A    between atoms: C_19  and  C_21
    6  A    between atoms: O_31  and  C_33
    7  A    between atoms: O_31  and  C_36
                            x       y       z     vdW  Elec       q    Type
                         _______ _______ _______ _____ _____    ______ ____

>  <TORSDO>
F 7

$$$$
=
 OpenBabel11072411213D

 42 47  0  0  1  0  0  0  0  0999 V2000
  160.8350  203.9440  152.8410 N   0  0  0  0  0  2  0  0  0  0  0  0
  162.0260  204.0500  150.8460 C   0  0  0  0  0  2  0  0  0  0  0  0
  160.8450  208.0970  151.6830 C   0  0  2  0  0  3  0  0  0  0  0  0
  162.2820  208.2300  151.2010 C   0  0  1  0  0  3  0  0  0  0  0  0
  159.9900  206.0800  154.6670 C   0  0  0  0  0  1  0  0  0  0  0  0
  160.3560  206.3400  153.2160 C   0  0  2  0  0  3  0  0  0  0  0  0
  161.3670  205.2910  152.7190 C   0  0  2  0  0  3  0  0  0  0  0  0
  163.1040  206.5930  150.9230 S   0  0  0  0  0  0  0  0  0  0  0  0
  161.4900  203.1560  151.8720 N   0  0  0  0  0  0  0  0  0  0  0  0
  161.6880  205.4560  151.2510 C   0  0  1  0  0  3  0  0  0  0  0  0
  160.2420  208.9220  152.8160 C   0  0  1  0  0  3  0  0  0  0  0  0
  161.0480  207.6820  153.1270 C   0  0  2  0  0  3  0  0  0  0  0  0
  160.4700  202.3410  151.2340 C   0  0  0  0  0  1  0  0  0  0  0  0
  161.8330  211.4510  155.1670 C   0  0  0  0  0  2  0  0  0  0  0  0
  160.5750  211.8310  155.9610 C   0  0  1  0  0  3  0  0  0  0  0  0
  161.0610  210.1740  153.1140 C   0  0  2  0  0  3  0  0  0  0  0  0
  159.2440  211.7770  155.2050 C   0  0  0  0  0  0  0  0  0  0  0  0
  161.6820  210.0810  154.5110 C   0  0  0  0  0  2  0  0  0  0  0  0
  159.1190  211.6160  153.8690 C   0  0  0  0  0  3  0  0  0  0  0  0
  160.2380  211.4500  152.8850 C   0  0  0  0  0  2  0  0  0  0  0  0
  160.5170  211.0180  157.2560 C   0  0  0  0  0  3  0  0  0  0  0  0
  160.2000  209.5650  156.9470 C   0  0  0  0  0  2  0  0  0  0  0  0
  161.6210  209.9750  157.2610 C   0  0  0  0  0  2  0  0  0  0  0  0
  157.9840  212.0180  155.9960 C   0  0  1  0  0  3  0  0  0  0  0  0
  158.0300  213.2560  156.6400 O   0  0  0  0  0  1  0  0  0  0  0  0
  156.7620  211.9150  155.1420 C   0  0  0  0  0  0  0  0  0  0  0  0
  156.2150  210.6740  154.8420 O   0  0  0  0  0  1  0  0  0  0  0  0
  156.2170  212.9620  154.7030 O   0  0  0  0  0  0  0  0  0  0  0  0
  160.4200  207.8650  147.3320 O   0  0  0  0  0  0  0  0  0  0  0  0
  162.4730  209.1710  150.0450 C   0  0  0  0  0  0  0  0  0  0  0  0
  161.2470  210.3700  148.2470 C   0  0  0  0  0  1  0  0  0  0  0  0
  161.3500  207.8840  148.1840 C   0  0  0  0  0  0  0  0  0  0  0  0
  163.3210  210.0960  150.1720 O   0  0  0  0  0  0  0  0  0  0  0  0
  161.6690  209.1140  148.8520 N   0  0  0  0  0  0  0  0  0  0  0  0
  162.0730  206.7170  148.4780 O   0  0  0  0  0  0  0  0  0  0  0  0
  162.1570  203.3260  146.0400 N   0  0  0  0  0  0  0  0  0  0  0  0
  161.4510  204.3700  148.0690 C   0  0  0  0  0  3  0  0  0  0  0  0
  160.8300  202.0530  147.6010 N   0  0  0  0  0  1  0  0  0  0  0  0
  162.7940  204.4640  145.6470 C   0  0  0  0  0  3  0  0  0  0  0  0
  162.7730  205.5950  146.4640 C   0  0  0  0  0  3  0  0  0  0  0  0
  162.1020  205.5560  147.6890 C   0  0  0  0  0  0  0  0  0  0  0  0
  161.4920  203.2560  147.2260 C   0  0  0  0  0  0  0  0  0  0  0  0
  2 10  1  0  0  0  0
  2  9  1  0  0  0  0
  3 11  1  0  0  0  0
  3 12  1  0  0  0  0
  4  3  1  0  0  0  0
  6  5  1  0  0  0  0
  7  1  1  0  0  0  0
  7  6  1  0  0  0  0
  8  4  1  0  0  0  0
  8 10  1  0  0  0  0
  9  1  1  0  0  0  0
 10  7  1  0  0  0  0
 11 16  1  0  0  0  0
 11 12  1  0  0  0  0
 12  6  1  0  0  0  0
 13  9  1  0  0  0  0
 14 15  1  0  0  0  0
 15 21  1  0  0  0  0
 16 18  1  0  0  0  0
 17 15  1  0  0  0  0
 17 24  1  0  0  0  0
 18 14  1  0  0  0  0
 19 17  2  0  0  0  0
 20 16  1  0  0  0  0
 20 19  1  0  0  0  0
 21 23  1  0  0  0  0
 22 21  1  0  0  0  0
 22 23  1  0  0  0  0
 24 25  1  0  0  0  0
 26 24  1  0  0  0  0
 27 26  1  0  0  0  0
 28 26  2  0  0  0  0
 29 32  2  0  0  0  0
 30 33  2  0  0  0  0
 30  4  1  0  0  0  0
 31 34  1  0  0  0  0
 32 35  1  0  0  0  0
 32 34  1  0  0  0  0
 34 30  1  0  0  0  0
 36 42  1  0  0  0  0
 39 36  2  0  0  0  0
 39 40  1  0  0  0  0
 40 41  2  0  0  0  0
 41 37  1  0  0  0  0
 41 35  1  0  0  0  0
 42 38  1  0  0  0  0
 42 37  2  0  0  0  0
M  END
>  <MODEL>
3

>  <REMARK>
 VINA RESULT:      -1.2      3.743      8.434
  Name = 
  7 active torsions:
  status: ('A' for Active; 'I' for Inactive)
    1  A    between atoms: C_2  and  C_21
    2  A    between atoms: C_10  and  C_23
    3  A    between atoms: C_14  and  C_29
    4  A    between atoms: C_17  and  C_28
    5  A    between atoms: C_19  and  C_21
    6  A    between atoms: O_31  and  C_33
    7  A    between atoms: O_31  and  C_36
                            x       y       z     vdW  Elec       q    Type
                         _______ _______ _______ _____ _____    ______ ____

>  <TORSDO>
F 7

$$$$
