=
 OpenBabel11072413053D

 37 41  0  0  1  0  0  0  0  0999 V2000
  161.6970  206.8360  150.9120 C   0  0  0  0  0  0  0  0  0  0  0  0
  161.6970  209.0570  154.0300 C   0  0  0  0  0  2  0  0  0  0  0  0
  159.7790  213.0400  150.9240 C   0  0  0  0  0  2  0  0  0  0  0  0
  161.2210  210.2720  150.9820 C   0  0  2  0  0  3  0  0  0  0  0  0
  161.5270  209.1270  148.4600 O   0  0  0  0  0  1  0  0  0  0  0  0
  162.5190  211.6910  149.5820 O   0  0  0  0  0  0  0  0  0  0  0  0
  158.9360  212.1220  151.8180 C   0  0  1  0  0  3  0  0  0  0  0  0
  159.7830  211.3460  152.8540 C   0  0  2  0  0  3  0  0  0  0  0  0
  162.1330  207.9420  151.7850 C   0  0  1  0  0  3  0  0  0  0  0  0
  161.0790  205.6640  151.3530 C   0  0  0  0  0  0  0  0  0  0  0  0
  161.0760  204.8940  149.0430 C   0  0  0  0  0  3  0  0  0  0  0  0
  162.2860  209.1430  150.8110 C   0  0  1  0  0  3  0  0  0  0  0  0
  161.4100  211.4090  150.0100 C   0  0  0  0  0  0  0  0  0  0  0  0
  160.5660  205.5810  152.7680 C   0  0  0  0  0  2  0  0  0  0  0  0
  161.1860  210.9430  152.3680 C   0  0  1  0  0  3  0  0  0  0  0  0
  161.1250  206.6810  153.6850 C   0  0  0  0  0  2  0  0  0  0  0  0
  162.1290  210.3980  153.4420 C   0  0  0  0  0  2  0  0  0  0  0  0
  162.3620  208.4970  149.3850 C   0  0  1  0  0  3  0  0  0  0  0  0
  161.6250  206.1180  148.6180 C   0  0  0  0  0  0  0  0  0  0  0  0
  160.1550  203.4530  150.7890 N   0  0  0  0  0  1  0  0  0  0  0  0
  161.1970  208.0520  152.9960 C   0  0  1  0  0  3  0  0  0  0  0  0
  160.2510  212.2930  149.6820 C   0  0  0  0  0  2  0  0  0  0  0  0
  161.9080  207.0940  149.5880 C   0  0  0  0  0  0  0  0  0  0  0  0
  160.7810  204.6720  150.4000 C   0  0  0  0  0  0  0  0  0  0  0  0
  159.0750  210.2160  153.2700 O   0  0  0  0  0  1  0  0  0  0  0  0
  157.4650  214.0410  151.7340 O   0  0  0  0  0  1  0  0  0  0  0  0
  157.8330  212.9390  152.5080 C   0  0  2  0  0  3  0  0  0  0  0  0
  158.2670  213.4160  153.8660 C   0  0  0  0  0  0  0  0  0  0  0  0
  158.9750  214.4530  153.9630 O   0  0  0  0  0  0  0  0  0  0  0  0
  157.9090  212.7260  155.0260 O   0  0  0  0  0  0  0  0  0  0  0  0
  156.6450  212.0980  155.1760 C   0  0  0  0  0  1  0  0  0  0  0  0
  161.9140  206.3520  147.1670 C   0  0  0  0  0  2  0  0  0  0  0  0
  162.7610  205.2320  146.5730 C   0  0  0  0  0  2  0  0  0  0  0  0
  162.0440  204.5510  145.4200 C   0  0  1  0  0  3  0  0  0  0  0  0
  161.4580  203.3660  145.8670 O   0  0  0  0  0  1  0  0  0  0  0  0
  160.9720  205.4770  144.8810 C   0  0  0  0  0  2  0  0  0  0  0  0
  161.2830  205.8490  143.5730 O   0  0  0  0  0  1  0  0  0  0  0  0
  1 10  1  0  0  0  0
  3  7  1  0  0  0  0
  4 13  1  6  0  0  0
  4 15  1  0  0  0  0
  5 18  1  0  0  0  0
  6 13  2  0  0  0  0
  7 27  1  1  0  0  0
  7  8  1  0  0  0  0
  8 25  1  6  0  0  0
  9  1  1  6  0  0  0
  9 21  1  0  0  0  0
 10 14  1  0  0  0  0
 11 24  1  0  0  0  0
 12  4  1  0  0  0  0
 12  9  1  0  0  0  0
 14 16  1  0  0  0  0
 15  8  1  0  0  0  0
 15 17  1  0  0  0  0
 17  2  1  0  0  0  0
 18 23  1  0  0  0  0
 18 12  1  0  0  0  0
 19 11  2  0  0  0  0
 19 23  1  0  0  0  0
 21 16  1  0  0  0  0
 21  2  1  0  0  0  0
 22 13  1  0  0  0  0
 22  3  1  0  0  0  0
 23  1  2  0  0  0  0
 24 20  1  0  0  0  0
 24 10  2  0  0  0  0
 26 27  1  0  0  0  0
 27 28  1  0  0  0  0
 28 29  2  0  0  0  0
 28 30  1  0  0  0  0
 30 31  1  0  0  0  0
 32 19  1  0  0  0  0
 33 32  1  0  0  0  0
 34 35  1  0  0  0  0
 34 33  1  0  0  0  0
 36 34  1  0  0  0  0
 37 36  1  0  0  0  0
M  END
>  <MODEL>
1

>  <REMARK>
 VINA RESULT:      -6.7      0.000      0.000
  Name = 
  7 active torsions:
  status: ('A' for Active; 'I' for Inactive)
    1  A    between atoms: O_4  and  C_15
    2  A    between atoms: C_5  and  C_8
    3  A    between atoms: C_8  and  C_23
    4  A    between atoms: C_10  and  C_37
    5  A    between atoms: C_15  and  C_37
    6  A    between atoms: C_23  and  C_27
    7  A    between atoms: C_27  and  C_28
                            x       y       z     vdW  Elec       q    Type
                         _______ _______ _______ _____ _____    ______ ____

>  <TORSDO>
F 7

$$$$
=
 OpenBabel11072413053D

 37 41  0  0  1  0  0  0  0  0999 V2000
  161.4390  208.0690  152.9420 C   0  0  0  0  0  0  0  0  0  0  0  0
  160.7630  210.1300  156.0960 C   0  0  0  0  0  2  0  0  0  0  0  0
  157.7150  213.3870  153.0490 C   0  0  0  0  0  2  0  0  0  0  0  0
  159.9340  211.1930  153.0670 C   0  0  2  0  0  3  0  0  0  0  0  0
  160.5730  210.2390  150.5270 O   0  0  0  0  0  1  0  0  0  0  0  0
  160.7340  212.9640  151.6950 O   0  0  0  0  0  0  0  0  0  0  0  0
  157.1940  212.2400  153.9240 C   0  0  1  0  0  3  0  0  0  0  0  0
  158.2390  211.7430  154.9510 C   0  0  2  0  0  3  0  0  0  0  0  0
  161.5170  209.2400  153.8350 C   0  0  1  0  0  3  0  0  0  0  0  0
  161.2100  206.7560  153.3600 C   0  0  0  0  0  0  0  0  0  0  0  0
  161.4400  206.0620  151.0380 C   0  0  0  0  0  3  0  0  0  0  0  0
  161.2930  210.4470  152.8810 C   0  0  1  0  0  3  0  0  0  0  0  0
  159.7650  212.3490  152.1140 C   0  0  0  0  0  0  0  0  0  0  0  0
  160.7490  206.4960  154.7720 C   0  0  0  0  0  2  0  0  0  0  0  0
  159.6970  211.7970  154.4630 C   0  0  1  0  0  3  0  0  0  0  0  0
  160.9460  207.7000  155.7100 C   0  0  0  0  0  2  0  0  0  0  0  0
  160.7640  211.5480  155.5320 C   0  0  0  0  0  2  0  0  0  0  0  0
  161.5620  209.8790  151.4450 C   0  0  1  0  0  3  0  0  0  0  0  0
  161.5870  207.4020  150.6360 C   0  0  0  0  0  0  0  0  0  0  0  0
  161.0060  204.3790  152.7570 N   0  0  0  0  0  1  0  0  0  0  0  0
  160.5930  209.0380  155.0440 C   0  0  1  0  0  3  0  0  0  0  0  0
  158.3900  212.8410  151.7960 C   0  0  0  0  0  2  0  0  0  0  0  0
  161.5600  208.4010  151.6230 C   0  0  0  0  0  0  0  0  0  0  0  0
  161.2290  205.7370  152.3900 C   0  0  0  0  0  0  0  0  0  0  0  0
  157.9110  210.4440  155.3450 O   0  0  0  0  0  1  0  0  0  0  0  0
  155.1530  213.5360  153.8190 O   0  0  0  0  0  1  0  0  0  0  0  0
  155.8950  212.6680  154.6230 C   0  0  2  0  0  3  0  0  0  0  0  0
  156.1720  213.3380  155.9400 C   0  0  0  0  0  0  0  0  0  0  0  0
  156.7590  214.4510  155.9600 O   0  0  0  0  0  0  0  0  0  0  0  0
  155.7980  212.7450  157.1480 O   0  0  0  0  0  0  0  0  0  0  0  0
  155.1150  211.5020  157.2040 C   0  0  0  0  0  1  0  0  0  0  0  0
  161.7890  207.7390  149.1900 C   0  0  0  0  0  2  0  0  0  0  0  0
  160.9980  206.8060  148.2790 C   0  0  0  0  0  2  0  0  0  0  0  0
  161.9210  205.8930  147.4900 C   0  0  1  0  0  3  0  0  0  0  0  0
  161.7530  204.5750  147.9180 O   0  0  0  0  0  1  0  0  0  0  0  0
  161.5860  205.9960  146.0160 C   0  0  0  0  0  2  0  0  0  0  0  0
  160.2530  206.3730  145.8580 O   0  0  0  0  0  1  0  0  0  0  0  0
  1 10  1  0  0  0  0
  3  7  1  0  0  0  0
  4 13  1  6  0  0  0
  4 15  1  0  0  0  0
  5 18  1  0  0  0  0
  6 13  2  0  0  0  0
  7 27  1  1  0  0  0
  7  8  1  0  0  0  0
  8 25  1  6  0  0  0
  9  1  1  6  0  0  0
  9 21  1  0  0  0  0
 10 14  1  0  0  0  0
 11 24  1  0  0  0  0
 12  4  1  0  0  0  0
 12  9  1  0  0  0  0
 14 16  1  0  0  0  0
 15  8  1  0  0  0  0
 15 17  1  0  0  0  0
 17  2  1  0  0  0  0
 18 23  1  0  0  0  0
 18 12  1  0  0  0  0
 19 11  2  0  0  0  0
 19 23  1  0  0  0  0
 21 16  1  0  0  0  0
 21  2  1  0  0  0  0
 22 13  1  0  0  0  0
 22  3  1  0  0  0  0
 23  1  2  0  0  0  0
 24 20  1  0  0  0  0
 24 10  2  0  0  0  0
 26 27  1  0  0  0  0
 27 28  1  0  0  0  0
 28 29  2  0  0  0  0
 28 30  1  0  0  0  0
 30 31  1  0  0  0  0
 32 19  1  0  0  0  0
 33 32  1  0  0  0  0
 34 35  1  0  0  0  0
 34 33  1  0  0  0  0
 36 34  1  0  0  0  0
 37 36  1  0  0  0  0
M  END
>  <MODEL>
2

>  <REMARK>
 VINA RESULT:      -6.6      1.739      2.599
  Name = 
  7 active torsions:
  status: ('A' for Active; 'I' for Inactive)
    1  A    between atoms: O_4  and  C_15
    2  A    between atoms: C_5  and  C_8
    3  A    between atoms: C_8  and  C_23
    4  A    between atoms: C_10  and  C_37
    5  A    between atoms: C_15  and  C_37
    6  A    between atoms: C_23  and  C_27
    7  A    between atoms: C_27  and  C_28
                            x       y       z     vdW  Elec       q    Type
                         _______ _______ _______ _____ _____    ______ ____

>  <TORSDO>
F 7

$$$$
=
 OpenBabel11072413053D

 37 41  0  0  1  0  0  0  0  0999 V2000
  161.6360  207.4700  152.2730 C   0  0  0  0  0  0  0  0  0  0  0  0
  161.6060  209.5110  155.5110 C   0  0  0  0  0  2  0  0  0  0  0  0
  158.6950  213.2270  152.8850 C   0  0  0  0  0  2  0  0  0  0  0  0
  160.5880  210.7600  152.6140 C   0  0  2  0  0  3  0  0  0  0  0  0
  160.8000  209.8040  150.0050 O   0  0  0  0  0  1  0  0  0  0  0  0
  161.4570  212.4490  151.1820 O   0  0  0  0  0  0  0  0  0  0  0  0
  158.1290  212.1340  153.7990 C   0  0  1  0  0  3  0  0  0  0  0  0
  159.2070  211.4740  154.6900 C   0  0  2  0  0  3  0  0  0  0  0  0
  161.9720  208.5940  153.1660 C   0  0  1  0  0  3  0  0  0  0  0  0
  161.2820  206.1870  152.6980 C   0  0  0  0  0  0  0  0  0  0  0  0
  161.1510  205.5360  150.3550 C   0  0  0  0  0  3  0  0  0  0  0  0
  161.8050  209.8470  152.2610 C   0  0  1  0  0  3  0  0  0  0  0  0
  160.4680  211.9550  151.7030 C   0  0  0  0  0  0  0  0  0  0  0  0
  160.9540  205.9500  154.1500 C   0  0  0  0  0  2  0  0  0  0  0  0
  160.5950  211.3500  154.0370 C   0  0  1  0  0  3  0  0  0  0  0  0
  161.4160  207.0890  155.0740 C   0  0  0  0  0  2  0  0  0  0  0  0
  161.7330  210.9320  154.9710 C   0  0  0  0  0  2  0  0  0  0  0  0
  161.8300  209.2910  150.7970 C   0  0  1  0  0  3  0  0  0  0  0  0
  161.4300  206.8570  149.9570 C   0  0  0  0  0  0  0  0  0  0  0  0
  160.6940  203.8760  152.0910 N   0  0  0  0  0  1  0  0  0  0  0  0
  161.1730  208.4810  154.4720 C   0  0  1  0  0  3  0  0  0  0  0  0
  159.1450  212.6340  151.5550 C   0  0  0  0  0  2  0  0  0  0  0  0
  161.6490  207.8220  150.9530 C   0  0  0  0  0  0  0  0  0  0  0  0
  161.0530  205.2030  151.7190 C   0  0  0  0  0  0  0  0  0  0  0  0
  158.7550  210.2190  155.1030 O   0  0  0  0  0  1  0  0  0  0  0  0
  157.2090  212.4800  156.0100 O   0  0  0  0  0  1  0  0  0  0  0  0
  156.9870  212.7090  154.6510 C   0  0  2  0  0  3  0  0  0  0  0  0
  155.6590  212.1190  154.2650 C   0  0  0  0  0  0  0  0  0  0  0  0
  155.3650  210.9540  154.6390 O   0  0  0  0  0  0  0  0  0  0  0  0
  154.7450  212.8350  153.4890 O   0  0  0  0  0  0  0  0  0  0  0  0
  154.6980  214.2540  153.4880 C   0  0  0  0  0  1  0  0  0  0  0  0
  161.5100  207.2050  148.5020 C   0  0  0  0  0  2  0  0  0  0  0  0
  160.6650  206.2630  147.6500 C   0  0  0  0  0  2  0  0  0  0  0  0
  161.4580  205.7260  146.4710 C   0  0  1  0  0  3  0  0  0  0  0  0
  161.7410  204.3740  146.6730 O   0  0  0  0  0  1  0  0  0  0  0  0
  160.6420  205.8910  145.2040 C   0  0  0  0  0  2  0  0  0  0  0  0
  161.3200  205.3210  144.1270 O   0  0  0  0  0  1  0  0  0  0  0  0
  1 10  1  0  0  0  0
  3  7  1  0  0  0  0
  4 13  1  6  0  0  0
  4 15  1  0  0  0  0
  5 18  1  0  0  0  0
  6 13  2  0  0  0  0
  7 27  1  1  0  0  0
  7  8  1  0  0  0  0
  8 25  1  6  0  0  0
  9  1  1  6  0  0  0
  9 21  1  0  0  0  0
 10 14  1  0  0  0  0
 11 24  1  0  0  0  0
 12  4  1  0  0  0  0
 12  9  1  0  0  0  0
 14 16  1  0  0  0  0
 15  8  1  0  0  0  0
 15 17  1  0  0  0  0
 17  2  1  0  0  0  0
 18 23  1  0  0  0  0
 18 12  1  0  0  0  0
 19 11  2  0  0  0  0
 19 23  1  0  0  0  0
 21 16  1  0  0  0  0
 21  2  1  0  0  0  0
 22 13  1  0  0  0  0
 22  3  1  0  0  0  0
 23  1  2  0  0  0  0
 24 20  1  0  0  0  0
 24 10  2  0  0  0  0
 27 26  1  0  0  0  0
 28 29  2  0  0  0  0
 28 27  1  0  0  0  0
 30 28  1  0  0  0  0
 31 30  1  0  0  0  0
 32 19  1  0  0  0  0
 33 32  1  0  0  0  0
 34 35  1  0  0  0  0
 34 33  1  0  0  0  0
 36 34  1  0  0  0  0
 37 36  1  0  0  0  0
M  END
>  <MODEL>
3

>  <REMARK>
 VINA RESULT:      -5.7      1.509      2.173
  Name = 
  7 active torsions:
  status: ('A' for Active; 'I' for Inactive)
    1  A    between atoms: O_4  and  C_15
    2  A    between atoms: C_5  and  C_8
    3  A    between atoms: C_8  and  C_23
    4  A    between atoms: C_10  and  C_37
    5  A    between atoms: C_15  and  C_37
    6  A    between atoms: C_23  and  C_27
    7  A    between atoms: C_27  and  C_28
                            x       y       z     vdW  Elec       q    Type
                         _______ _______ _______ _____ _____    ______ ____

>  <TORSDO>
F 7

$$$$
=
 OpenBabel11072413053D

 37 41  0  0  1  0  0  0  0  0999 V2000
  159.0560  213.3380  150.0900 C   0  0  0  0  0  0  0  0  0  0  0  0
  162.2690  212.2600  148.3090 C   0  0  0  0  0  2  0  0  0  0  0  0
  162.1890  207.7890  151.3390 C   0  0  0  0  0  2  0  0  0  0  0  0
  161.1210  210.7020  151.0000 C   0  0  2  0  0  3  0  0  0  0  0  0
  159.1040  211.3620  152.8070 O   0  0  0  0  0  1  0  0  0  0  0  0
  161.9200  210.5210  153.2340 O   0  0  0  0  0  0  0  0  0  0  0  0
  161.6640  207.9020  149.9030 C   0  0  1  0  0  3  0  0  0  0  0  0
  162.1580  209.1750  149.1780 C   0  0  2  0  0  3  0  0  0  0  0  0
  160.4930  213.0320  149.9600 C   0  0  1  0  0  3  0  0  0  0  0  0
  158.2210  213.7260  149.0400 C   0  0  0  0  0  0  0  0  0  0  0  0
  156.4170  213.9370  150.6600 C   0  0  0  0  0  3  0  0  0  0  0  0
  160.8140  212.2140  151.2410 C   0  0  1  0  0  3  0  0  0  0  0  0
  161.4180  209.9540  152.2750 C   0  0  0  0  0  0  0  0  0  0  0  0
  158.7040  213.5910  147.6180 C   0  0  0  0  0  2  0  0  0  0  0  0
  162.3230  210.4090  150.0840 C   0  0  1  0  0  3  0  0  0  0  0  0
  160.2240  213.3850  147.5060 C   0  0  0  0  0  2  0  0  0  0  0  0
  163.0390  211.6040  149.4520 C   0  0  0  0  0  2  0  0  0  0  0  0
  159.6270  212.5160  152.2180 C   0  0  1  0  0  3  0  0  0  0  0  0
  157.2600  213.4650  151.6830 C   0  0  0  0  0  0  0  0  0  0  0  0
  155.9870  214.4530  148.3100 N   0  0  0  0  0  1  0  0  0  0  0  0
  160.7760  212.4310  148.5760 C   0  0  1  0  0  3  0  0  0  0  0  0
  161.2360  208.4710  152.3140 C   0  0  0  0  0  2  0  0  0  0  0  0
  158.5890  213.1470  151.3590 C   0  0  0  0  0  0  0  0  0  0  0  0
  156.8840  214.0460  149.3380 C   0  0  0  0  0  0  0  0  0  0  0  0
  161.2930  209.4660  148.1220 O   0  0  0  0  0  1  0  0  0  0  0  0
  162.6240  206.9660  147.8890 O   0  0  0  0  0  1  0  0  0  0  0  0
  162.0360  206.6380  149.1130 C   0  0  2  0  0  3  0  0  0  0  0  0
  160.8350  205.7700  148.8620 C   0  0  0  0  0  0  0  0  0  0  0  0
  159.9060  206.1920  148.1260 O   0  0  0  0  0  0  0  0  0  0  0  0
  160.7240  204.5030  149.4390 O   0  0  0  0  0  0  0  0  0  0  0  0
  160.8050  204.2970  150.8410 C   0  0  0  0  0  1  0  0  0  0  0  0
  156.7450  213.3310  153.0840 C   0  0  0  0  0  2  0  0  0  0  0  0
  157.3370  214.3920  154.0060 C   0  0  0  0  0  2  0  0  0  0  0  0
  156.9970  214.1110  155.4590 C   0  0  1  0  0  3  0  0  0  0  0  0
  155.6880  213.6360  155.5520 O   0  0  0  0  0  1  0  0  0  0  0  0
  157.9560  213.0720  156.0050 C   0  0  0  0  0  2  0  0  0  0  0  0
  159.2440  213.3200  155.5310 O   0  0  0  0  0  1  0  0  0  0  0  0
  1 23  1  0  0  0  0
  2 21  1  0  0  0  0
  2 17  1  0  0  0  0
  3 22  1  0  0  0  0
  4 12  1  0  0  0  0
  4 13  1  1  0  0  0
  7 27  1  6  0  0  0
  7  3  1  0  0  0  0
  8 25  1  6  0  0  0
  8  7  1  0  0  0  0
  8 15  1  0  0  0  0
  9  1  1  6  0  0  0
  9 12  1  0  0  0  0
 10 24  1  0  0  0  0
 10  1  2  0  0  0  0
 11 19  1  0  0  0  0
 12 18  1  0  0  0  0
 13 22  1  0  0  0  0
 13  6  2  0  0  0  0
 14 10  1  0  0  0  0
 15  4  1  0  0  0  0
 16 14  1  0  0  0  0
 16 21  1  0  0  0  0
 17 15  1  0  0  0  0
 18  5  1  0  0  0  0
 19 32  1  0  0  0  0
 20 24  1  0  0  0  0
 21  9  1  0  0  0  0
 23 19  2  0  0  0  0
 23 18  1  0  0  0  0
 24 11  2  0  0  0  0
 26 27  1  0  0  0  0
 28 27  1  0  0  0  0
 28 30  1  0  0  0  0
 29 28  2  0  0  0  0
 30 31  1  0  0  0  0
 32 33  1  0  0  0  0
 33 34  1  0  0  0  0
 34 35  1  0  0  0  0
 34 36  1  0  0  0  0
 37 36  1  0  0  0  0
M  END
>  <MODEL>
4

>  <REMARK>
 VINA RESULT:      -4.5      2.806      8.777
  Name = 
  7 active torsions:
  status: ('A' for Active; 'I' for Inactive)
    1  A    between atoms: O_4  and  C_15
    2  A    between atoms: C_5  and  C_8
    3  A    between atoms: C_8  and  C_23
    4  A    between atoms: C_10  and  C_37
    5  A    between atoms: C_15  and  C_37
    6  A    between atoms: C_23  and  C_27
    7  A    between atoms: C_27  and  C_28
                            x       y       z     vdW  Elec       q    Type
                         _______ _______ _______ _____ _____    ______ ____

>  <TORSDO>
F 7

$$$$
