=
 OpenBabel11072415223D

 63 70  0  0  1  0  0  0  0  0999 V2000
  159.7130  209.4110  154.7180 N   0  0  0  0  0  2  0  0  0  0  0  0
  159.0710  212.5220  148.3320 C   0  0  0  0  0  2  0  0  0  0  0  0
  159.6820  213.3200  150.2770 C   0  0  2  0  0  3  0  0  0  0  0  0
  155.0930  214.1700  154.9070 O   0  0  0  0  0  1  0  0  0  0  0  0
  161.6310  210.6120  155.7710 C   0  0  0  0  0  0  0  0  0  0  0  0
  160.3420  208.2240  152.5120 C   0  0  0  0  0  2  0  0  0  0  0  0
  157.5720  212.1580  150.4170 C   0  0  1  0  0  3  0  0  0  0  0  0
  163.0130  210.5050  155.9510 O   0  0  0  0  0  1  0  0  0  0  0  0
  158.4950  212.9310  153.8430 C   0  0  2  0  0  3  0  0  0  0  0  0
  156.2360  214.0820  154.1080 C   0  0  2  0  0  3  0  0  0  0  0  0
  158.8400  212.4850  151.2550 C   0  0  2  0  0  0  0  0  0  0  0  0
  158.3390  213.4250  152.3780 C   0  0  1  0  0  3  0  0  0  0  0  0
  159.5210  211.1620  151.7140 C   0  0  2  0  0  3  0  0  0  0  0  0
  155.9450  213.4020  152.9220 O   0  0  0  0  0  0  0  0  0  0  0  0
  157.3890  213.3750  154.8290 C   0  0  1  0  0  3  0  0  0  0  0  0
  161.7910  210.2820  152.1130 C   0  0  0  0  0  3  0  0  0  0  0  0
  159.7640  213.2670  154.3360 O   0  0  0  0  0  0  0  0  0  0  0  0
  156.5840  213.3090  150.6270 C   0  0  1  0  0  3  0  0  0  0  0  0
  160.1440  212.3150  149.2900 N   0  0  2  0  0  0  0  0  0  0  0  0
  157.8270  211.7980  148.9110 C   0  0  0  0  0  2  0  0  0  0  0  0
  160.0830  212.2600  155.2550 C   0  0  0  0  0  2  0  0  0  0  0  0
  161.0520  213.3500  149.8120 C   0  0  1  0  0  3  0  0  0  0  0  0
  161.3380  208.9490  151.5920 C   0  0  1  0  0  3  0  0  0  0  0  0
  156.9010  213.8630  152.0070 C   0  0  2  0  0  3  0  0  0  0  0  0
  158.6430  210.2570  152.6000 C   0  0  0  0  0  2  0  0  0  0  0  0
  159.3640  209.1080  153.3180 C   0  0  2  0  0  3  0  0  0  0  0  0
  161.0330  210.6480  157.0440 O   0  0  0  0  0  1  0  0  0  0  0  0
  161.1550  209.3680  154.9840 C   0  0  1  0  0  3  0  0  0  0  0  0
  161.3950  211.8060  155.0420 O   0  0  0  0  0  0  0  0  0  0  0  0
  160.9450  211.3150  152.1770 C   0  0  0  0  0  3  0  0  0  0  0  0
  161.2620  214.4490  148.7810 C   0  0  0  0  0  2  0  0  0  0  0  0
  162.0390  213.9460  147.6530 N   0  0  0  0  0  1  0  0  0  0  0  0
  161.4970  208.1130  155.7390 C   0  0  0  0  0  3  0  0  0  0  0  0
  160.6180  207.5120  156.5410 C   0  0  0  0  0  2  0  0  0  0  0  0
  162.5380  208.0470  151.3750 C   0  0  0  0  0  2  0  0  0  0  0  0
  162.1130  206.6400  150.9800 C   0  0  2  0  0  3  0  0  0  0  0  0
  162.4180  205.7130  152.0200 O   0  0  0  0  0  0  0  0  0  0  0  0
  161.0290  204.6730  153.5490 O   0  0  0  0  0  0  0  0  0  0  0  0
  161.5370  204.6940  152.3950 C   0  0  0  0  0  0  0  0  0  0  0  0
  161.2360  203.6720  151.4950 O   0  0  0  0  0  0  0  0  0  0  0  0
  160.9050  201.6080  150.8850 C   0  0  0  0  0  1  0  0  0  0  0  0
  161.7130  202.4320  151.6730 O   0  0  0  0  0  0  0  0  0  0  0  0
  162.8220  206.2630  149.6740 C   0  0  0  0  0  2  0  0  0  0  0  0
  161.8910  205.9340  148.5880 N   0  0  0  0  0  0  0  0  0  0  0  0
  161.3780  207.2550  146.6120 C   0  0  0  0  0  2  0  0  0  0  0  0
  160.0640  206.8440  147.2420 C   0  0  0  0  0  2  0  0  0  0  0  0
  161.2600  207.1680  148.1240 C   0  0  0  0  0  3  0  0  0  0  0  0
  162.5880  205.2920  147.4590 C   0  0  0  0  0  2  0  0  0  0  0  0
  162.4150  203.7710  147.4000 C   0  0  0  0  0  2  0  0  0  0  0  0
  160.3730  203.5550  146.1770 C   0  0  0  0  0  2  0  0  0  0  0  0
  161.2580  201.0040  146.9040 C   0  0  0  0  0  2  0  0  0  0  0  0
  161.0040  203.4130  147.4980 N   0  0  0  0  0  0  0  0  0  0  0  0
  160.9480  202.6800  145.2360 O   0  0  0  0  0  0  0  0  0  0  0  0
  160.5530  201.3910  145.6130 C   0  0  0  0  0  2  0  0  0  0  0  0
  160.8870  202.0270  147.9770 C   0  0  0  0  0  2  0  0  0  0  0  0
  156.7440  214.4220  149.5900 C   0  0  0  0  0  2  0  0  0  0  0  0
  155.7700  214.2480  148.4390 C   0  0  0  0  0  2  0  0  0  0  0  0
  155.7780  214.4530  145.9260 N   0  0  0  0  0  1  0  0  0  0  0  0
  156.5010  214.3060  147.1450 C   0  0  0  0  0  0  0  0  0  0  0  0
  157.7590  214.2600  147.1260 O   0  0  0  0  0  0  0  0  0  0  0  0
  156.9080  212.1380  155.5850 C   0  0  0  0  0  2  0  0  0  0  0  0
  155.7660  211.4520  154.8430 C   0  0  0  0  0  2  0  0  0  0  0  0
  155.2980  210.2220  155.5980 C   0  0  0  0  0  1  0  0  0  0  0  0
  1 28  1  0  0  0  0
  2 20  1  0  0  0  0
  2 19  1  0  0  0  0
  3 11  1  0  0  0  0
  5  8  1  0  0  0  0
  5 27  1  0  0  0  0
  6 26  1  0  0  0  0
  7 18  1  0  0  0  0
  7 11  1  0  0  0  0
  9 17  1  0  0  0  0
  9 15  1  0  0  0  0
 10 15  1  0  0  0  0
 10  4  1  0  0  0  0
 11 13  1  0  0  0  0
 11 12  1  0  0  0  0
 12  9  1  0  0  0  0
 13 30  1  0  0  0  0
 13 25  1  0  0  0  0
 14 10  1  0  0  0  0
 15 61  1  0  0  0  0
 16 30  2  0  0  0  0
 17 21  1  0  0  0  0
 18 24  1  0  0  0  0
 19 22  1  0  0  0  0
 19  3  1  0  0  0  0
 20  7  1  0  0  0  0
 22  3  1  0  0  0  0
 23 16  1  0  0  0  0
 23  6  1  0  0  0  0
 24 12  1  0  0  0  0
 24 14  1  0  0  0  0
 25 26  1  0  0  0  0
 26  1  1  0  0  0  0
 28 33  1  0  0  0  0
 28  5  1  0  0  0  0
 29 21  1  0  0  0  0
 29  5  1  0  0  0  0
 31 22  1  0  0  0  0
 32 31  1  0  0  0  0
 33 34  2  0  0  0  0
 35 23  1  0  0  0  0
 36 35  1  0  0  0  0
 36 37  1  0  0  0  0
 37 39  1  0  0  0  0
 39 38  2  0  0  0  0
 40 42  1  0  0  0  0
 40 39  1  0  0  0  0
 41 42  1  0  0  0  0
 43 36  1  0  0  0  0
 44 43  1  0  0  0  0
 45 46  1  0  0  0  0
 45 47  1  0  0  0  0
 46 47  1  0  0  0  0
 47 44  1  0  0  0  0
 48 44  1  0  0  0  0
 49 48  1  0  0  0  0
 49 52  1  0  0  0  0
 50 52  1  0  0  0  0
 51 55  1  0  0  0  0
 52 55  1  0  0  0  0
 53 54  1  0  0  0  0
 53 50  1  0  0  0  0
 54 51  1  0  0  0  0
 56 18  1  0  0  0  0
 57 56  1  0  0  0  0
 58 59  1  0  0  0  0
 59 57  1  0  0  0  0
 60 59  2  0  0  0  0
 62 61  1  0  0  0  0
 62 63  1  0  0  0  0
M  END
>  <MODEL>
1

>  <REMARK>
 VINA RESULT:       1.7      0.000      0.000
  Name = 
  19 active torsions:
  status: ('A' for Active; 'I' for Inactive)
    1  A    between atoms: C_1  and  C_44
    2  A    between atoms: C_7  and  C_27
    3  A    between atoms: C_7  and  N_60
    4  A    between atoms: C_12  and  C_34
    5  A    between atoms: C_12  and  C_43
    6  A    between atoms: C_13  and  O_21
    7  A    between atoms: C_13  and  O_56
    8  A    between atoms: N_18  and  C_27
    9  A    between atoms: C_20  and  C_24
   10  A    between atoms: C_20  and  C_55
   11  A    between atoms: O_21  and  O_23
   12  A    between atoms: C_24  and  C_37
   13  A    between atoms: C_25  and  C_40
   14  A    between atoms: C_25  and  N_60
   15  A    between atoms: C_29  and  C_40
   16  A    between atoms: C_29  and  C_45
   17  A    between atoms: C_39  and  C_59
   18  A    between atoms: C_40  and  O_56
   19  A    between atoms: C_54  and  N_60
                            x       y       z     vdW  Elec       q    Type
                         _______ _______ _______ _____ _____    ______ ____

>  <TORSDO>
F 19

$$$$
