=
 OpenBabel11072409473D

 49 52  0  0  1  0  0  0  0  0999 V2000
  161.2320  203.9500  148.7870 C   0  0  2  0  0  3  0  0  0  0  0  0
  159.2770  204.2710  150.7920 O   0  0  0  0  0  1  0  0  0  0  0  0
  160.8290  207.3350  153.8730 C   0  0  0  0  0  0  0  0  0  0  0  0
  161.2940  209.7920  153.5100 C   0  0  0  0  0  0  0  0  0  0  0  0
  161.8030  210.7530  152.7980 N   0  0  0  0  0  0  0  0  0  0  0  0
  162.1670  203.6430  149.7950 O   0  0  0  0  0  0  0  0  0  0  0  0
  160.2770  209.1270  156.9150 O   0  0  0  0  0  0  0  0  0  0  0  0
  161.5390  203.3660  151.0420 C   0  0  1  0  0  3  0  0  0  0  0  0
  160.7470  202.6550  148.1190 C   0  0  2  0  0  3  0  0  0  0  0  0
  161.7610  205.6660  152.2440 C   0  0  1  0  0  3  0  0  0  0  0  0
  159.5690  201.9660  150.2830 C   0  0  0  0  0  3  0  0  0  0  0  0
  162.1900  206.9450  150.4760 C   0  0  0  0  0  2  0  0  0  0  0  0
  160.5850  208.9290  155.7120 C   0  0  0  0  0  0  0  0  0  0  0  0
  160.9290  208.4720  152.8850 C   0  0  0  0  0  2  0  0  0  0  0  0
  159.8740  201.7790  148.9900 C   0  0  0  0  0  3  0  0  0  0  0  0
  161.2240  206.1090  151.0330 O   0  0  0  0  0  0  0  0  0  0  0  0
  161.9490  207.0600  148.9870 C   0  0  1  0  0  3  0  0  0  0  0  0
  160.5940  207.5640  155.1690 C   0  0  0  0  0  3  0  0  0  0  0  0
  161.8690  204.8500  147.7150 C   0  0  2  0  0  3  0  0  0  0  0  0
  160.7710  205.9230  153.3760 C   0  0  0  0  0  2  0  0  0  0  0  0
  162.1320  204.1800  152.1970 C   0  0  0  0  0  2  0  0  0  0  0  0
  162.2300  210.5740  151.4420 C   0  0  0  0  0  0  0  0  0  0  0  0
  160.0120  203.1300  151.1180 C   0  0  2  0  0  3  0  0  0  0  0  0
  163.2320  209.8450  151.2050 O   0  0  0  0  0  0  0  0  0  0  0  0
  161.2580  209.4200  148.6910 C   0  0  0  0  0  2  0  0  0  0  0  0
  161.7990  210.8130  148.9750 C   0  0  0  0  0  2  0  0  0  0  0  0
  160.9620  210.0270  154.8790 N   0  0  0  0  0  2  0  0  0  0  0  0
  161.5170  211.1890  150.3570 N   0  0  0  0  0  0  0  0  0  0  0  0
  162.3950  208.4310  148.5140 C   0  0  0  0  0  2  0  0  0  0  0  0
  162.7480  205.9810  148.2710 C   0  0  0  0  0  2  0  0  0  0  0  0
  161.8630  201.9080  147.6500 O   0  0  0  0  0  0  0  0  0  0  0  0
  161.1920  200.2170  146.1490 C   0  0  0  0  0  0  0  0  0  0  0  0
  161.7420  200.5640  147.3050 C   0  0  0  0  0  3  0  0  0  0  0  0
  161.0810  198.8390  145.8080 N   0  0  0  0  0  1  0  0  0  0  0  0
  160.7290  201.2000  145.2760 O   0  0  0  0  0  0  0  0  0  0  0  0
  159.5640  201.0520  144.6300 O   0  0  0  0  0  1  0  0  0  0  0  0
  160.4390  212.1380  150.6080 C   0  0  0  0  0  2  0  0  0  0  0  0
  160.2850  213.0840  149.4250 C   0  0  2  0  0  3  0  0  0  0  0  0
  162.0450  214.4520  148.5820 O   0  0  0  0  0  1  0  0  0  0  0  0
  161.1240  214.3350  149.6230 C   0  0  0  0  0  2  0  0  0  0  0  0
  158.8170  213.4110  149.1330 C   0  0  0  0  0  2  0  0  0  0  0  0
  157.3440  212.4990  147.4860 O   0  0  0  0  0  1  0  0  0  0  0  0
  158.4200  213.1060  147.7210 C   0  0  0  0  0  0  0  0  0  0  0  0
  159.2530  213.4710  146.6710 O   0  0  0  0  0  0  0  0  0  0  0  0
  160.8160  205.3790  146.7460 C   0  0  0  0  0  2  0  0  0  0  0  0
  161.4790  206.0180  145.5410 C   0  0  0  0  0  2  0  0  0  0  0  0
  161.1010  205.2790  144.3070 C   0  0  0  0  0  0  0  0  0  0  0  0
  161.5620  205.7090  143.0680 O   0  0  0  0  0  0  0  0  0  0  0  0
  160.3890  204.2450  144.3870 O   0  0  0  0  0  1  0  0  0  0  0  0
  1  6  1  1  0  0  0
  3 18  2  0  0  0  0
  4 27  1  0  0  0  0
  5  4  2  0  0  0  0
  6  8  1  0  0  0  0
  8 23  1  0  0  0  0
  8 21  1  1  0  0  0
  9 31  1  1  0  0  0
  9  1  1  0  0  0  0
  9 15  1  0  0  0  0
 10 21  1  6  0  0  0
 10 20  1  0  0  0  0
 11 23  1  0  0  0  0
 12 16  1  0  0  0  0
 13  7  2  0  0  0  0
 14  4  1  0  0  0  0
 14  3  1  0  0  0  0
 15 11  2  0  0  0  0
 16 10  1  0  0  0  0
 17 30  1  6  0  0  0
 17 12  1  0  0  0  0
 18 13  1  0  0  0  0
 19 45  1  1  0  0  0
 19 30  1  0  0  0  0
 19  1  1  0  0  0  0
 20  3  1  0  0  0  0
 22  5  1  0  0  0  0
 23  2  1  6  0  0  0
 24 22  2  0  0  0  0
 25 26  1  0  0  0  0
 26 28  1  0  0  0  0
 27 13  1  0  0  0  0
 28 37  1  0  0  0  0
 28 22  1  0  0  0  0
 29 25  1  0  0  0  0
 29 17  1  0  0  0  0
 32 33  2  0  0  0  0
 33 31  1  0  0  0  0
 34 32  1  0  0  0  0
 35 32  1  0  0  0  0
 36 35  1  0  0  0  0
 38 41  1  1  0  0  0
 38 40  1  0  0  0  0
 38 37  1  0  0  0  0
 39 40  1  0  0  0  0
 42 43  1  0  0  0  0
 43 41  1  0  0  0  0
 44 43  2  0  0  0  0
 46 45  1  0  0  0  0
 47 49  1  0  0  0  0
 47 46  1  0  0  0  0
 48 47  2  0  0  0  0
M  END
>  <MODEL>
1

>  <REMARK>
 VINA RESULT:      -3.9      0.000      0.000
  Name = 
  11 active torsions:
  status: ('A' for Active; 'I' for Inactive)
    1  A    between atoms: C_5  and  O_22
    2  A    between atoms: C_10  and  O_21
    3  A    between atoms: C_12  and  O_21
    4  A    between atoms: C_20  and  C_24
    5  A    between atoms: C_23  and  C_31
    6  A    between atoms: C_23  and  C_33
    7  A    between atoms: C_23  and  C_49
    8  A    between atoms: C_24  and  C_38
    9  A    between atoms: C_27  and  C_38
   10  A    between atoms: C_28  and  C_49
   11  A    between atoms: C_33  and  N_44
                            x       y       z     vdW  Elec       q    Type
                         _______ _______ _______ _____ _____    ______ ____

>  <TORSDO>
F 11

$$$$
=
 OpenBabel11072409473D

 49 52  0  0  1  0  0  0  0  0999 V2000
  161.1610  204.5470  148.6180 C   0  0  2  0  0  3  0  0  0  0  0  0
  159.3170  204.6510  150.7460 O   0  0  0  0  0  1  0  0  0  0  0  0
  161.0220  207.4060  154.0300 C   0  0  0  0  0  0  0  0  0  0  0  0
  161.4590  209.8900  153.8900 C   0  0  0  0  0  0  0  0  0  0  0  0
  161.9260  210.9220  153.2510 N   0  0  0  0  0  0  0  0  0  0  0  0
  162.1500  204.1500  149.5390 O   0  0  0  0  0  0  0  0  0  0  0  0
  160.6290  208.8820  157.2610 O   0  0  0  0  0  0  0  0  0  0  0  0
  161.5910  203.7440  150.7840 C   0  0  1  0  0  3  0  0  0  0  0  0
  160.6450  203.3200  147.8510 C   0  0  2  0  0  3  0  0  0  0  0  0
  161.8710  205.9160  152.1960 C   0  0  1  0  0  3  0  0  0  0  0  0
  159.5870  202.4100  149.9950 C   0  0  0  0  0  3  0  0  0  0  0  0
  162.2000  207.3670  150.5440 C   0  0  0  0  0  2  0  0  0  0  0  0
  160.8720  208.8070  156.0300 C   0  0  0  0  0  0  0  0  0  0  0  0
  161.0650  208.6360  153.1570 C   0  0  0  0  0  2  0  0  0  0  0  0
  159.8230  202.3550  148.6750 C   0  0  0  0  0  3  0  0  0  0  0  0
  161.2680  206.4710  151.0660 O   0  0  0  0  0  0  0  0  0  0  0  0
  161.8780  207.6270  149.0890 C   0  0  1  0  0  3  0  0  0  0  0  0
  160.8560  207.5030  155.3530 C   0  0  0  0  0  3  0  0  0  0  0  0
  161.7370  205.5550  147.6090 C   0  0  2  0  0  3  0  0  0  0  0  0
  160.9420  206.0500  153.3990 C   0  0  0  0  0  2  0  0  0  0  0  0
  162.2430  204.4440  151.9820 C   0  0  0  0  0  2  0  0  0  0  0  0
  162.2800  210.8830  151.8640 C   0  0  0  0  0  0  0  0  0  0  0  0
  160.0710  203.4890  150.9170 C   0  0  2  0  0  3  0  0  0  0  0  0
  163.2700  210.1890  151.5020 O   0  0  0  0  0  0  0  0  0  0  0  0
  161.1650  209.9990  149.0670 C   0  0  0  0  0  2  0  0  0  0  0  0
  161.7160  211.3620  149.4590 C   0  0  0  0  0  2  0  0  0  0  0  0
  161.2010  209.9860  155.2910 N   0  0  0  0  0  2  0  0  0  0  0  0
  161.5080  211.5960  150.8850 N   0  0  0  0  0  0  0  0  0  0  0  0
  162.2940  209.0430  148.7320 C   0  0  0  0  0  2  0  0  0  0  0  0
  162.6410  206.6320  148.2270 C   0  0  0  0  0  2  0  0  0  0  0  0
  161.7360  202.6330  147.2510 O   0  0  0  0  0  0  0  0  0  0  0  0
  161.1320  200.7420  145.9800 C   0  0  0  0  0  0  0  0  0  0  0  0
  161.7070  201.2540  147.0590 C   0  0  0  0  0  3  0  0  0  0  0  0
  161.1160  199.3290  145.7950 N   0  0  0  0  0  1  0  0  0  0  0  0
  160.5510  201.5840  145.0340 O   0  0  0  0  0  0  0  0  0  0  0  0
  159.2390  201.5190  144.7690 O   0  0  0  0  0  1  0  0  0  0  0  0
  160.4420  212.5070  151.2870 C   0  0  0  0  0  2  0  0  0  0  0  0
  159.1010  211.7840  151.2720 C   0  0  2  0  0  3  0  0  0  0  0  0
  158.6280  213.7950  150.0840 O   0  0  0  0  0  1  0  0  0  0  0  0
  158.0560  212.6060  150.5360 C   0  0  0  0  0  2  0  0  0  0  0  0
  158.6420  211.3890  152.6790 C   0  0  0  0  0  2  0  0  0  0  0  0
  157.4320  213.3020  153.4460 O   0  0  0  0  0  0  0  0  0  0  0  0
  158.4430  212.5680  153.5820 C   0  0  0  0  0  0  0  0  0  0  0  0
  159.3900  212.8650  154.5540 O   0  0  0  0  0  1  0  0  0  0  0  0
  160.6320  206.1680  146.7550 C   0  0  0  0  0  2  0  0  0  0  0  0
  160.3990  205.3330  145.5110 C   0  0  0  0  0  2  0  0  0  0  0  0
  161.6200  205.3410  144.6620 C   0  0  0  0  0  0  0  0  0  0  0  0
  162.8180  204.8410  145.1590 O   0  0  0  0  0  1  0  0  0  0  0  0
  161.5620  205.7750  143.4820 O   0  0  0  0  0  0  0  0  0  0  0  0
  1  6  1  1  0  0  0
  3 18  2  0  0  0  0
  4 27  1  0  0  0  0
  5  4  2  0  0  0  0
  6  8  1  0  0  0  0
  8 23  1  0  0  0  0
  8 21  1  1  0  0  0
  9 31  1  1  0  0  0
  9  1  1  0  0  0  0
  9 15  1  0  0  0  0
 10 21  1  6  0  0  0
 10 20  1  0  0  0  0
 11 23  1  0  0  0  0
 12 16  1  0  0  0  0
 13  7  2  0  0  0  0
 14  4  1  0  0  0  0
 14  3  1  0  0  0  0
 15 11  2  0  0  0  0
 16 10  1  0  0  0  0
 17 30  1  6  0  0  0
 17 12  1  0  0  0  0
 18 13  1  0  0  0  0
 19 45  1  1  0  0  0
 19 30  1  0  0  0  0
 19  1  1  0  0  0  0
 20  3  1  0  0  0  0
 22  5  1  0  0  0  0
 23  2  1  6  0  0  0
 24 22  2  0  0  0  0
 25 26  1  0  0  0  0
 26 28  1  0  0  0  0
 27 13  1  0  0  0  0
 28 37  1  0  0  0  0
 28 22  1  0  0  0  0
 29 25  1  0  0  0  0
 29 17  1  0  0  0  0
 32 33  2  0  0  0  0
 33 31  1  0  0  0  0
 34 32  1  0  0  0  0
 35 32  1  0  0  0  0
 36 35  1  0  0  0  0
 38 40  1  1  0  0  0
 38 37  1  0  0  0  0
 38 41  1  0  0  0  0
 39 40  1  0  0  0  0
 41 43  1  0  0  0  0
 42 43  2  0  0  0  0
 43 44  1  0  0  0  0
 46 45  1  0  0  0  0
 47 48  1  0  0  0  0
 47 46  1  0  0  0  0
 49 47  2  0  0  0  0
M  END
>  <MODEL>
2

>  <REMARK>
 VINA RESULT:      -1.6      1.525      2.066
  Name = 
  11 active torsions:
  status: ('A' for Active; 'I' for Inactive)
    1  A    between atoms: C_5  and  O_22
    2  A    between atoms: C_10  and  O_21
    3  A    between atoms: C_12  and  O_21
    4  A    between atoms: C_20  and  C_24
    5  A    between atoms: C_23  and  C_31
    6  A    between atoms: C_23  and  C_33
    7  A    between atoms: C_23  and  C_49
    8  A    between atoms: C_24  and  C_38
    9  A    between atoms: C_27  and  C_38
   10  A    between atoms: C_28  and  C_49
   11  A    between atoms: C_33  and  N_44
                            x       y       z     vdW  Elec       q    Type
                         _______ _______ _______ _____ _____    ______ ____

>  <TORSDO>
F 11

$$$$
=
 OpenBabel11072409473D

 49 52  0  0  1  0  0  0  0  0999 V2000
  158.7120  211.5050  154.8160 C   0  0  2  0  0  3  0  0  0  0  0  0
  156.9060  212.1410  152.7480 O   0  0  0  0  0  1  0  0  0  0  0  0
  159.3250  213.3170  148.9990 C   0  0  0  0  0  0  0  0  0  0  0  0
  160.8530  211.8500  147.6230 C   0  0  0  0  0  0  0  0  0  0  0  0
  161.8000  210.9630  147.5450 N   0  0  0  0  0  0  0  0  0  0  0  0
  159.3120  212.7670  154.6340 O   0  0  0  0  0  0  0  0  0  0  0  0
  159.3110  214.4190  145.6000 O   0  0  0  0  0  0  0  0  0  0  0  0
  158.5040  213.6360  153.8470 C   0  0  1  0  0  3  0  0  0  0  0  0
  157.7790  211.5460  156.0350 C   0  0  2  0  0  3  0  0  0  0  0  0
  159.5900  213.3470  151.4960 C   0  0  1  0  0  3  0  0  0  0  0  0
  156.2070  213.1360  154.7920 C   0  0  0  0  0  3  0  0  0  0  0  0
  160.7110  211.4610  151.8580 C   0  0  0  0  0  2  0  0  0  0  0  0
  159.6210  213.7330  146.6070 C   0  0  0  0  0  0  0  0  0  0  0  0
  160.0110  211.9800  148.8640 C   0  0  0  0  0  2  0  0  0  0  0  0
  156.5280  212.3750  155.8490 C   0  0  0  0  0  3  0  0  0  0  0  0
  159.4260  211.9990  151.8230 O   0  0  0  0  0  0  0  0  0  0  0  0
  160.6950  210.1900  152.6800 C   0  0  1  0  0  3  0  0  0  0  0  0
  159.0850  214.0830  147.9300 C   0  0  0  0  0  3  0  0  0  0  0  0
  159.7840  210.4270  155.0500 C   0  0  2  0  0  3  0  0  0  0  0  0
  158.7040  213.7040  150.3070 C   0  0  0  0  0  2  0  0  0  0  0  0
  159.2750  214.2660  152.6820 C   0  0  0  0  0  2  0  0  0  0  0  0
  162.2400  210.1930  148.6700 C   0  0  0  0  0  0  0  0  0  0  0  0
  157.0290  213.2800  153.5460 C   0  0  2  0  0  3  0  0  0  0  0  0
  162.8390  210.7760  149.6160 O   0  0  0  0  0  0  0  0  0  0  0  0
  161.1420  208.4150  151.0110 C   0  0  0  0  0  2  0  0  0  0  0  0
  162.2070  208.0500  149.9880 C   0  0  0  0  0  2  0  0  0  0  0  0
  160.5220  212.6320  146.4750 N   0  0  0  0  0  2  0  0  0  0  0  0
  161.9820  208.7820  148.7450 N   0  0  0  0  0  0  0  0  0  0  0  0
  161.7420  209.2340  152.1380 C   0  0  0  0  0  2  0  0  0  0  0  0
  161.0080  210.5320  154.1290 C   0  0  0  0  0  2  0  0  0  0  0  0
  158.4950  212.0040  157.1740 O   0  0  0  0  0  0  0  0  0  0  0  0
  160.6450  212.9730  157.1670 C   0  0  0  0  0  0  0  0  0  0  0  0
  159.8810  211.8920  157.2530 C   0  0  0  0  0  3  0  0  0  0  0  0
  162.0610  212.8420  157.2550 N   0  0  0  0  0  1  0  0  0  0  0  0
  160.0610  214.2260  156.9940 O   0  0  0  0  0  0  0  0  0  0  0  0
  158.7630  214.4230  157.2600 O   0  0  0  0  0  1  0  0  0  0  0  0
  161.4090  208.0620  147.6140 C   0  0  0  0  0  2  0  0  0  0  0  0
  161.5990  206.5620  147.7960 C   0  0  2  0  0  3  0  0  0  0  0  0
  160.7380  206.1620  145.6100 O   0  0  0  0  0  1  0  0  0  0  0  0
  161.8120  205.8800  146.4540 C   0  0  0  0  0  2  0  0  0  0  0  0
  160.4550  205.9270  148.5930 C   0  0  0  0  0  2  0  0  0  0  0  0
  160.6630  204.9370  150.7580 O   0  0  0  0  0  1  0  0  0  0  0  0
  160.9200  204.8560  149.5300 C   0  0  0  0  0  0  0  0  0  0  0  0
  161.6580  203.7820  149.0460 O   0  0  0  0  0  0  0  0  0  0  0  0
  159.1720  209.0300  155.0170 C   0  0  0  0  0  2  0  0  0  0  0  0
  159.8590  208.1270  156.0240 C   0  0  0  0  0  2  0  0  0  0  0  0
  161.1750  207.6860  155.4900 C   0  0  0  0  0  0  0  0  0  0  0  0
  162.3510  208.1960  156.0280 O   0  0  0  0  0  1  0  0  0  0  0  0
  161.2250  206.8280  154.5720 O   0  0  0  0  0  0  0  0  0  0  0  0
  1  6  1  1  0  0  0
  1 19  1  0  0  0  0
  1  9  1  0  0  0  0
  3 20  1  0  0  0  0
  4 14  1  0  0  0  0
  5  4  2  0  0  0  0
  5 22  1  0  0  0  0
  7 13  2  0  0  0  0
  8 21  1  6  0  0  0
  8  6  1  0  0  0  0
  9 31  1  1  0  0  0
 10 20  1  6  0  0  0
 10 16  1  0  0  0  0
 10 21  1  0  0  0  0
 11 15  2  0  0  0  0
 13 18  1  0  0  0  0
 14  3  1  0  0  0  0
 15  9  1  0  0  0  0
 16 12  1  0  0  0  0
 17 12  1  6  0  0  0
 17 30  1  0  0  0  0
 18  3  2  0  0  0  0
 19 45  1  6  0  0  0
 22 28  1  0  0  0  0
 22 24  2  0  0  0  0
 23  2  1  1  0  0  0
 23  8  1  0  0  0  0
 23 11  1  0  0  0  0
 25 29  1  0  0  0  0
 26 25  1  0  0  0  0
 27 13  1  0  0  0  0
 27  4  1  0  0  0  0
 28 26  1  0  0  0  0
 29 17  1  0  0  0  0
 30 19  1  0  0  0  0
 31 33  1  0  0  0  0
 32 33  2  0  0  0  0
 32 34  1  0  0  0  0
 35 32  1  0  0  0  0
 35 36  1  0  0  0  0
 37 38  1  0  0  0  0
 37 28  1  0  0  0  0
 38 40  1  6  0  0  0
 38 41  1  0  0  0  0
 39 40  1  0  0  0  0
 41 43  1  0  0  0  0
 43 42  1  0  0  0  0
 44 43  2  0  0  0  0
 45 46  1  0  0  0  0
 47 46  1  0  0  0  0
 47 48  1  0  0  0  0
 49 47  2  0  0  0  0
M  END
>  <MODEL>
3

>  <REMARK>
 VINA RESULT:      -1.3      2.956     10.102
  Name = 
  11 active torsions:
  status: ('A' for Active; 'I' for Inactive)
    1  A    between atoms: C_5  and  O_22
    2  A    between atoms: C_10  and  O_21
    3  A    between atoms: C_12  and  O_21
    4  A    between atoms: C_20  and  C_24
    5  A    between atoms: C_23  and  C_31
    6  A    between atoms: C_23  and  C_33
    7  A    between atoms: C_23  and  C_49
    8  A    between atoms: C_24  and  C_38
    9  A    between atoms: C_27  and  C_38
   10  A    between atoms: C_28  and  C_49
   11  A    between atoms: C_33  and  N_44
                            x       y       z     vdW  Elec       q    Type
                         _______ _______ _______ _____ _____    ______ ____

>  <TORSDO>
F 11

$$$$
