=
 OpenBabel11072410413D

 50 55  0  0  1  0  0  0  0  0999 V2000
  161.1930  206.3470  150.6220 N   0  0  0  0  0  2  0  0  0  0  0  0
  161.4800  206.8860  155.5950 C   0  0  0  0  0  3  0  0  0  0  0  0
  159.4240  208.8820  153.9020 O   0  0  0  0  0  0  0  0  0  0  0  0
  160.4500  210.8980  151.9860 C   0  0  0  0  0  3  0  0  0  0  0  0
  160.2830  208.4910  152.8170 C   0  0  2  0  0  3  0  0  0  0  0  0
  161.7720  207.6590  154.6080 N   0  0  0  0  0  0  0  0  0  0  0  0
  160.7310  205.9890  153.0150 C   0  0  2  0  0  3  0  0  0  0  0  0
  160.0800  212.3840  155.1740 C   0  0  1  0  0  3  0  0  0  0  0  0
  161.3050  207.4200  153.2500 C   0  0  1  0  0  3  0  0  0  0  0  0
  162.5270  206.5050  150.0510 C   0  0  2  0  0  3  0  0  0  0  0  0
  160.6070  205.6970  155.3720 C   0  0  0  0  0  2  0  0  0  0  0  0
  161.8520  212.7390  156.7460 O   0  0  0  0  0  0  0  0  0  0  0  0
  161.0280  205.0740  154.1230 N   0  0  0  0  0  2  0  0  0  0  0  0
  161.0140  211.9340  156.2570 C   0  0  0  0  0  0  0  0  0  0  0  0
  159.3610  211.4350  152.8670 C   0  0  0  0  0  2  0  0  0  0  0  0
  160.8850  209.6220  151.9750 C   0  0  0  0  0  0  0  0  0  0  0  0
  163.4690  206.8110  151.0390 O   0  0  0  0  0  1  0  0  0  0  0  0
  159.7060  209.9550  154.7640 C   0  0  0  0  0  0  0  0  0  0  0  0
  162.5430  207.6050  148.9830 C   0  0  2  0  0  3  0  0  0  0  0  0
  160.9840  210.6060  156.6880 O   0  0  0  0  0  0  0  0  0  0  0  0
  161.4320  209.0320  149.3340 S   0  0  0  0  0  0  0  0  0  0  0  0
  161.2390  205.3790  151.7100 C   0  0  1  0  0  3  0  0  0  0  0  0
  159.9940  209.6960  156.2120 C   0  0  0  0  0  2  0  0  0  0  0  0
  162.0190  209.3090  151.0420 C   0  0  0  0  0  2  0  0  0  0  0  0
  159.7020  211.2070  154.2950 C   0  0  0  0  0  0  0  0  0  0  0  0
  158.8510  213.0930  155.7680 C   0  0  0  0  0  0  0  0  0  0  0  0
  158.0240  212.2480  156.7240 C   0  0  0  0  0  2  0  0  0  0  0  0
  158.9250  213.3460  157.2590 C   0  0  0  0  0  2  0  0  0  0  0  0
  156.7400  213.5830  154.4250 C   0  0  0  0  0  0  0  0  0  0  0  0
  157.9500  214.1870  152.5950 C   0  0  0  0  0  0  0  0  0  0  0  0
  158.3310  214.4510  151.3860 N   0  0  0  0  0  2  0  0  0  0  0  0
  156.6320  213.5870  152.9300 C   0  0  2  0  0  3  0  0  0  0  0  0
  158.0650  214.1050  154.9060 C   0  0  2  0  0  3  0  0  0  0  0  0
  155.8670  213.1610  155.1630 O   0  0  0  0  0  0  0  0  0  0  0  0
  158.7480  214.4400  153.7040 O   0  0  0  0  0  0  0  0  0  0  0  0
  155.6020  214.4370  152.5210 O   0  0  0  0  0  0  0  0  0  0  0  0
  154.6750  213.6010  151.9060 C   0  0  0  0  0  1  0  0  0  0  0  0
  162.2320  207.0520  147.6360 C   0  0  0  0  0  0  0  0  0  0  0  0
  160.8640  206.9370  147.2130 N   0  0  0  0  0  2  0  0  0  0  0  0
  163.1610  206.5710  146.9340 O   0  0  0  0  0  0  0  0  0  0  0  0
  160.4580  206.0790  146.0940 C   0  0  0  0  0  2  0  0  0  0  0  0
  161.6530  205.2900  145.5730 C   0  0  0  0  0  2  0  0  0  0  0  0
  161.1870  203.9330  145.0770 C   0  0  0  0  0  2  0  0  0  0  0  0
  161.6200  202.8620  146.0630 C   0  0  0  0  0  2  0  0  0  0  0  0
  160.6010  201.7330  146.0960 C   0  0  1  0  0  3  0  0  0  0  0  0
  159.7170  201.7770  144.8630 C   0  0  0  0  0  1  0  0  0  0  0  0
  161.2460  200.5000  146.1630 O   0  0  0  0  0  1  0  0  0  0  0  0
  160.4230  204.1580  151.3190 C   0  0  0  0  0  2  0  0  0  0  0  0
  160.5150  201.8070  150.1780 C   0  0  0  0  0  1  0  0  0  0  0  0
  161.4620  202.6710  151.4550 S   0  0  0  0  0  0  0  0  0  0  0  0
  1 22  1  0  0  0  0
  3 18  1  0  0  0  0
  4 15  1  0  0  0  0
  5 16  1  1  0  0  0
  5  9  1  0  0  0  0
  5  3  1  0  0  0  0
  6  2  2  0  0  0  0
  7  9  1  0  0  0  0
  7 13  1  1  0  0  0
  8 26  1  1  0  0  0
  8 14  1  0  0  0  0
  9  6  1  1  0  0  0
 10  1  1  0  0  0  0
 10 17  1  1  0  0  0
 11  2  1  0  0  0  0
 13 11  1  0  0  0  0
 14 20  1  0  0  0  0
 14 12  2  0  0  0  0
 15 25  1  0  0  0  0
 16  4  2  0  0  0  0
 18 23  1  0  0  0  0
 19 38  1  6  0  0  0
 19 21  1  0  0  0  0
 19 10  1  0  0  0  0
 21 24  1  0  0  0  0
 22 48  1  6  0  0  0
 22  7  1  0  0  0  0
 23 20  1  0  0  0  0
 24 16  1  0  0  0  0
 25 18  2  0  0  0  0
 25  8  1  0  0  0  0
 26 27  1  0  0  0  0
 26 28  1  0  0  0  0
 27 28  1  0  0  0  0
 29 33  1  0  0  0  0
 29 34  2  0  0  0  0
 30 32  1  0  0  0  0
 30 35  1  0  0  0  0
 31 30  2  0  0  0  0
 32 36  1  1  0  0  0
 32 29  1  0  0  0  0
 33 26  1  6  0  0  0
 35 33  1  0  0  0  0
 37 36  1  0  0  0  0
 39 38  1  0  0  0  0
 40 38  2  0  0  0  0
 41 39  1  0  0  0  0
 42 41  1  0  0  0  0
 43 42  1  0  0  0  0
 43 44  1  0  0  0  0
 44 45  1  0  0  0  0
 45 46  1  6  0  0  0
 45 47  1  0  0  0  0
 48 50  1  0  0  0  0
 49 50  1  0  0  0  0
M  END
>  <MODEL>
1

>  <REMARK>
 VINA RESULT:      -1.8      0.000      0.000
  Name = 
  11 active torsions:
  status: ('A' for Active; 'I' for Inactive)
    1  A    between atoms: C_4  and  C_32
    2  A    between atoms: C_4  and  N_45
    3  A    between atoms: C_5  and  C_16
    4  A    between atoms: C_5  and  C_39
    5  A    between atoms: O_8  and  C_21
    6  A    between atoms: C_12  and  C_30
    7  A    between atoms: C_12  and  C_32
    8  A    between atoms: C_15  and  C_38
    9  A    between atoms: C_25  and  C_30
   10  A    between atoms: S_34  and  C_44
   11  A    between atoms: C_42  and  C_44
                            x       y       z     vdW  Elec       q    Type
                         _______ _______ _______ _____ _____    ______ ____

>  <TORSDO>
F 11

$$$$
=
 OpenBabel11072410413D

 50 55  0  0  1  0  0  0  0  0999 V2000
  160.7220  210.1940  152.9400 N   0  0  0  0  0  2  0  0  0  0  0  0
  162.6060  210.2970  148.2990 C   0  0  0  0  0  3  0  0  0  0  0  0
  160.4550  207.8810  149.0800 O   0  0  0  0  0  0  0  0  0  0  0  0
  161.1320  205.7850  151.0640 C   0  0  0  0  0  3  0  0  0  0  0  0
  160.8680  208.2370  150.4110 C   0  0  2  0  0  3  0  0  0  0  0  0
  162.6930  209.4500  149.2650 N   0  0  0  0  0  0  0  0  0  0  0  0
  160.9720  210.7810  150.5610 C   0  0  2  0  0  3  0  0  0  0  0  0
  161.9910  204.6620  147.8220 C   0  0  1  0  0  3  0  0  0  0  0  0
  161.7990  209.4670  150.4140 C   0  0  1  0  0  3  0  0  0  0  0  0
  161.8230  210.1260  153.8960 C   0  0  2  0  0  3  0  0  0  0  0  0
  161.5370  211.3380  148.3190 C   0  0  0  0  0  2  0  0  0  0  0  0
  164.1930  204.7120  146.8820 O   0  0  0  0  0  0  0  0  0  0  0  0
  161.4540  211.8520  149.6820 N   0  0  0  0  0  2  0  0  0  0  0  0
  163.1350  205.3470  147.1350 C   0  0  0  0  0  0  0  0  0  0  0  0
  160.4610  205.2320  149.8400 C   0  0  0  0  0  2  0  0  0  0  0  0
  161.3440  207.0930  151.3130 C   0  0  0  0  0  0  0  0  0  0  0  0
  163.0590  210.0560  153.2440 O   0  0  0  0  0  1  0  0  0  0  0  0
  161.1470  206.9620  148.2760 C   0  0  0  0  0  0  0  0  0  0  0  0
  161.6750  208.9150  154.8250 C   0  0  2  0  0  3  0  0  0  0  0  0
  163.0380  206.7040  146.8210 O   0  0  0  0  0  0  0  0  0  0  0  0
  160.9550  207.4200  154.0260 S   0  0  0  0  0  0  0  0  0  0  0  0
  160.9550  211.2840  152.0030 C   0  0  1  0  0  3  0  0  0  0  0  0
  161.8240  207.4260  147.0220 C   0  0  0  0  0  2  0  0  0  0  0  0
  162.0750  207.4230  152.5820 C   0  0  0  0  0  2  0  0  0  0  0  0
  161.1870  205.6710  148.6200 C   0  0  0  0  0  0  0  0  0  0  0  0
  161.1270  203.8890  146.8110 C   0  0  0  0  0  0  0  0  0  0  0  0
  160.3240  204.7590  145.8570 C   0  0  0  0  0  2  0  0  0  0  0  0
  161.5620  204.0300  145.3680 C   0  0  0  0  0  2  0  0  0  0  0  0
  160.9980  202.0070  148.5260 C   0  0  0  0  0  0  0  0  0  0  0  0
  161.2880  200.4190  146.9230 C   0  0  0  0  0  0  0  0  0  0  0  0
  161.5610  199.3220  146.2920 N   0  0  0  0  0  2  0  0  0  0  0  0
  161.5730  200.6310  148.3650 C   0  0  2  0  0  3  0  0  0  0  0  0
  160.4640  202.5600  147.2350 C   0  0  2  0  0  3  0  0  0  0  0  0
  161.0060  202.6220  149.5780 O   0  0  0  0  0  0  0  0  0  0  0  0
  160.6990  201.5140  146.3010 O   0  0  0  0  0  0  0  0  0  0  0  0
  160.8540  199.7140  149.1350 O   0  0  0  0  0  0  0  0  0  0  0  0
  160.2050  200.4860  150.0940 C   0  0  0  0  0  1  0  0  0  0  0  0
  160.8840  209.2600  156.0380 C   0  0  0  0  0  0  0  0  0  0  0  0
  160.0340  210.4190  156.0280 N   0  0  0  0  0  2  0  0  0  0  0  0
  161.0680  208.6110  157.1030 O   0  0  0  0  0  0  0  0  0  0  0  0
  159.5290  211.0320  157.2610 C   0  0  0  0  0  2  0  0  0  0  0  0
  159.7530  212.5390  157.2320 C   0  0  0  0  0  2  0  0  0  0  0  0
  158.4990  213.2300  156.7290 C   0  0  0  0  0  2  0  0  0  0  0  0
  157.2770  212.5010  157.2610 C   0  0  0  0  0  2  0  0  0  0  0  0
  156.1850  212.4610  156.2020 C   0  0  1  0  0  3  0  0  0  0  0  0
  155.5170  211.0990  156.1770 C   0  0  0  0  0  1  0  0  0  0  0  0
  155.2300  213.4440  156.4540 O   0  0  0  0  0  1  0  0  0  0  0  0
  159.8830  212.3430  152.2030 C   0  0  0  0  0  2  0  0  0  0  0  0
  157.5630  213.1730  153.0800 C   0  0  0  0  0  1  0  0  0  0  0  0
  158.4290  211.5860  152.9910 S   0  0  0  0  0  0  0  0  0  0  0  0
  1 10  1  0  0  0  0
  2 11  1  0  0  0  0
  2  6  2  0  0  0  0
  4 16  2  0  0  0  0
  5  3  1  6  0  0  0
  5  9  1  0  0  0  0
  5 16  1  0  0  0  0
  7 13  1  6  0  0  0
  7 22  1  0  0  0  0
  8 26  1  6  0  0  0
  8 25  1  0  0  0  0
  9  6  1  6  0  0  0
  9  7  1  0  0  0  0
 10 17  1  6  0  0  0
 10 19  1  0  0  0  0
 11 13  1  0  0  0  0
 12 14  2  0  0  0  0
 14  8  1  0  0  0  0
 15  4  1  0  0  0  0
 16 24  1  0  0  0  0
 18 25  2  0  0  0  0
 18  3  1  0  0  0  0
 19 38  1  1  0  0  0
 20 23  1  0  0  0  0
 20 14  1  0  0  0  0
 21 19  1  0  0  0  0
 22 48  1  6  0  0  0
 22  1  1  0  0  0  0
 23 18  1  0  0  0  0
 24 21  1  0  0  0  0
 25 15  1  0  0  0  0
 27 26  1  0  0  0  0
 28 27  1  0  0  0  0
 28 26  1  0  0  0  0
 29 34  2  0  0  0  0
 30 32  1  0  0  0  0
 31 30  2  0  0  0  0
 32 29  1  0  0  0  0
 32 36  1  1  0  0  0
 33 26  1  6  0  0  0
 33 29  1  0  0  0  0
 35 30  1  0  0  0  0
 35 33  1  0  0  0  0
 36 37  1  0  0  0  0
 38 40  2  0  0  0  0
 39 38  1  0  0  0  0
 39 41  1  0  0  0  0
 42 41  1  0  0  0  0
 43 42  1  0  0  0  0
 43 44  1  0  0  0  0
 45 46  1  1  0  0  0
 45 47  1  0  0  0  0
 45 44  1  0  0  0  0
 48 50  1  0  0  0  0
 50 49  1  0  0  0  0
M  END
>  <MODEL>
2

>  <REMARK>
 VINA RESULT:      -1.7      2.590     10.976
  Name = 
  11 active torsions:
  status: ('A' for Active; 'I' for Inactive)
    1  A    between atoms: C_4  and  C_32
    2  A    between atoms: C_4  and  N_45
    3  A    between atoms: C_5  and  C_16
    4  A    between atoms: C_5  and  C_39
    5  A    between atoms: O_8  and  C_21
    6  A    between atoms: C_12  and  C_30
    7  A    between atoms: C_12  and  C_32
    8  A    between atoms: C_15  and  C_38
    9  A    between atoms: C_25  and  C_30
   10  A    between atoms: S_34  and  C_44
   11  A    between atoms: C_42  and  C_44
                            x       y       z     vdW  Elec       q    Type
                         _______ _______ _______ _____ _____    ______ ____

>  <TORSDO>
F 11

$$$$
=
 OpenBabel11072410413D

 50 55  0  0  1  0  0  0  0  0999 V2000
  161.0480  205.6820  149.4360 N   0  0  0  0  0  2  0  0  0  0  0  0
  161.7830  205.5390  154.3900 C   0  0  0  0  0  3  0  0  0  0  0  0
  159.8850  207.9710  153.1410 O   0  0  0  0  0  0  0  0  0  0  0  0
  161.0180  210.0760  151.3890 C   0  0  0  0  0  3  0  0  0  0  0  0
  160.5990  207.6210  151.9420 C   0  0  2  0  0  3  0  0  0  0  0  0
  162.0980  206.3920  153.4780 N   0  0  0  0  0  0  0  0  0  0  0  0
  160.7270  205.0780  151.8030 C   0  0  2  0  0  3  0  0  0  0  0  0
  161.0920  211.1740  154.7500 C   0  0  1  0  0  3  0  0  0  0  0  0
  161.5010  206.3870  152.1500 C   0  0  1  0  0  3  0  0  0  0  0  0
  162.3440  205.7500  148.7670 C   0  0  2  0  0  3  0  0  0  0  0  0
  160.7460  204.5030  154.1100 C   0  0  0  0  0  2  0  0  0  0  0  0
  163.0090  211.1070  156.1830 O   0  0  0  0  0  0  0  0  0  0  0  0
  160.9850  203.9990  152.7620 N   0  0  0  0  0  2  0  0  0  0  0  0
  162.0380  210.4790  155.6820 C   0  0  0  0  0  0  0  0  0  0  0  0
  160.0790  210.6240  152.4240 C   0  0  0  0  0  2  0  0  0  0  0  0
  161.2790  208.7690  151.1870 C   0  0  0  0  0  0  0  0  0  0  0  0
  163.3910  205.8100  149.6930 O   0  0  0  0  0  1  0  0  0  0  0  0
  160.3710  208.8810  154.0930 C   0  0  0  0  0  0  0  0  0  0  0  0
  162.4230  206.9680  147.8390 C   0  0  2  0  0  3  0  0  0  0  0  0
  161.8660  209.1210  155.9550 O   0  0  0  0  0  0  0  0  0  0  0  0
  161.5400  208.4610  148.4560 S   0  0  0  0  0  0  0  0  0  0  0  0
  161.0490  204.5840  150.3930 C   0  0  1  0  0  3  0  0  0  0  0  0
  160.7310  208.4060  155.4680 C   0  0  0  0  0  2  0  0  0  0  0  0
  162.2870  208.4440  150.1240 C   0  0  0  0  0  2  0  0  0  0  0  0
  160.4960  210.1750  153.7770 C   0  0  0  0  0  0  0  0  0  0  0  0
  160.0160  211.9450  155.5340 C   0  0  0  0  0  0  0  0  0  0  0  0
  159.9930  211.6700  157.0300 C   0  0  0  0  0  2  0  0  0  0  0  0
  160.5550  212.9770  156.5020 C   0  0  0  0  0  2  0  0  0  0  0  0
  157.8680  213.3180  155.5510 C   0  0  0  0  0  0  0  0  0  0  0  0
  156.5770  211.4450  155.5610 C   0  0  0  0  0  0  0  0  0  0  0  0
  155.6010  210.6060  155.7030 N   0  0  0  0  0  2  0  0  0  0  0  0
  156.5300  212.8500  156.0400 C   0  0  2  0  0  3  0  0  0  0  0  0
  158.6460  212.2240  154.8760 C   0  0  2  0  0  3  0  0  0  0  0  0
  158.2910  214.4480  155.7220 O   0  0  0  0  0  0  0  0  0  0  0  0
  157.7740  211.1030  154.9430 O   0  0  0  0  0  0  0  0  0  0  0  0
  155.5070  213.5440  155.3900 O   0  0  0  0  0  0  0  0  0  0  0  0
  154.7340  214.0790  156.4160 C   0  0  0  0  0  1  0  0  0  0  0  0
  161.9400  206.6340  146.4710 C   0  0  0  0  0  0  0  0  0  0  0  0
  160.5430  206.3780  146.2520 N   0  0  0  0  0  2  0  0  0  0  0  0
  162.7760  206.4520  145.5460 O   0  0  0  0  0  0  0  0  0  0  0  0
  160.0500  205.6920  145.0540 C   0  0  0  0  0  2  0  0  0  0  0  0
  161.2080  205.0540  144.2950 C   0  0  0  0  0  2  0  0  0  0  0  0
  161.5830  203.7390  144.9550 C   0  0  0  0  0  2  0  0  0  0  0  0
  160.3330  203.0830  145.5130 C   0  0  0  0  0  2  0  0  0  0  0  0
  160.2750  201.6200  145.0970 C   0  0  1  0  0  3  0  0  0  0  0  0
  160.9540  200.7440  146.1330 C   0  0  0  0  0  1  0  0  0  0  0  0
  158.9520  201.2140  144.9390 O   0  0  0  0  0  1  0  0  0  0  0  0
  160.0520  203.5320  149.9380 C   0  0  0  0  0  2  0  0  0  0  0  0
  159.6050  200.9730  149.6330 C   0  0  0  0  0  1  0  0  0  0  0  0
  160.9510  202.1150  149.2350 S   0  0  0  0  0  0  0  0  0  0  0  0
  1 22  1  0  0  0  0
  3 18  1  0  0  0  0
  4 15  1  0  0  0  0
  5 16  1  1  0  0  0
  5  9  1  0  0  0  0
  5  3  1  0  0  0  0
  6  2  2  0  0  0  0
  7  9  1  0  0  0  0
  7 13  1  1  0  0  0
  8 26  1  1  0  0  0
  8 14  1  0  0  0  0
  9  6  1  1  0  0  0
 10  1  1  0  0  0  0
 10 17  1  1  0  0  0
 11  2  1  0  0  0  0
 13 11  1  0  0  0  0
 14 20  1  0  0  0  0
 14 12  2  0  0  0  0
 15 25  1  0  0  0  0
 16  4  2  0  0  0  0
 18 23  1  0  0  0  0
 19 38  1  6  0  0  0
 19 21  1  0  0  0  0
 19 10  1  0  0  0  0
 21 24  1  0  0  0  0
 22 48  1  6  0  0  0
 22  7  1  0  0  0  0
 23 20  1  0  0  0  0
 24 16  1  0  0  0  0
 25 18  2  0  0  0  0
 25  8  1  0  0  0  0
 26 28  1  0  0  0  0
 26 27  1  0  0  0  0
 28 27  1  0  0  0  0
 29 34  2  0  0  0  0
 29 32  1  0  0  0  0
 30 31  2  0  0  0  0
 30 32  1  0  0  0  0
 32 36  1  6  0  0  0
 33 35  1  0  0  0  0
 33 26  1  1  0  0  0
 33 29  1  0  0  0  0
 35 30  1  0  0  0  0
 36 37  1  0  0  0  0
 39 38  1  0  0  0  0
 40 38  2  0  0  0  0
 41 39  1  0  0  0  0
 42 43  1  0  0  0  0
 42 41  1  0  0  0  0
 43 44  1  0  0  0  0
 45 44  1  0  0  0  0
 45 46  1  1  0  0  0
 47 45  1  0  0  0  0
 50 49  1  0  0  0  0
 50 48  1  0  0  0  0
M  END
>  <MODEL>
3

>  <REMARK>
 VINA RESULT:      -0.7      1.884      2.141
  Name = 
  11 active torsions:
  status: ('A' for Active; 'I' for Inactive)
    1  A    between atoms: C_4  and  C_32
    2  A    between atoms: C_4  and  N_45
    3  A    between atoms: C_5  and  C_16
    4  A    between atoms: C_5  and  C_39
    5  A    between atoms: O_8  and  C_21
    6  A    between atoms: C_12  and  C_30
    7  A    between atoms: C_12  and  C_32
    8  A    between atoms: C_15  and  C_38
    9  A    between atoms: C_25  and  C_30
   10  A    between atoms: S_34  and  C_44
   11  A    between atoms: C_42  and  C_44
                            x       y       z     vdW  Elec       q    Type
                         _______ _______ _______ _____ _____    ______ ____

>  <TORSDO>
F 11

$$$$
=
 OpenBabel11072410413D

 50 55  0  0  1  0  0  0  0  0999 V2000
  161.0740  204.6420  147.8110 N   0  0  0  0  0  2  0  0  0  0  0  0
  162.0960  204.9090  152.7090 C   0  0  0  0  0  3  0  0  0  0  0  0
  160.1800  207.2730  151.3600 O   0  0  0  0  0  0  0  0  0  0  0  0
  161.2530  209.1880  149.3690 C   0  0  0  0  0  3  0  0  0  0  0  0
  160.8150  206.8020  150.1590 C   0  0  2  0  0  3  0  0  0  0  0  0
  162.3750  205.6710  151.7090 N   0  0  0  0  0  0  0  0  0  0  0  0
  160.8800  204.2540  150.2360 C   0  0  2  0  0  3  0  0  0  0  0  0
  161.5480  210.5700  152.6110 C   0  0  1  0  0  3  0  0  0  0  0  0
  161.7000  205.5670  150.4230 C   0  0  1  0  0  3  0  0  0  0  0  0
  162.3290  204.6180  147.0670 C   0  0  2  0  0  3  0  0  0  0  0  0
  161.0220  203.8810  152.5800 C   0  0  0  0  0  2  0  0  0  0  0  0
  163.5450  210.5770  153.9330 O   0  0  0  0  0  0  0  0  0  0  0  0
  161.1700  203.2560  151.2710 N   0  0  0  0  0  2  0  0  0  0  0  0
  162.5330  209.9340  153.5450 C   0  0  0  0  0  0  0  0  0  0  0  0
  160.3890  209.8480  150.4040 C   0  0  0  0  0  2  0  0  0  0  0  0
  161.4730  207.8620  149.2690 C   0  0  0  0  0  0  0  0  0  0  0  0
  163.4300  204.7300  147.9230 O   0  0  0  0  0  1  0  0  0  0  0  0
  160.7400  208.2490  152.2000 C   0  0  0  0  0  0  0  0  0  0  0  0
  162.3800  205.7480  146.0320 C   0  0  2  0  0  3  0  0  0  0  0  0
  162.3470  208.6090  153.9460 O   0  0  0  0  0  0  0  0  0  0  0  0
  161.5660  207.3130  146.5650 S   0  0  0  0  0  0  0  0  0  0  0  0
  161.1080  203.6320  148.8600 C   0  0  1  0  0  3  0  0  0  0  0  0
  161.1710  207.8850  153.5880 C   0  0  0  0  0  2  0  0  0  0  0  0
  162.4100  207.4190  148.1830 C   0  0  0  0  0  2  0  0  0  0  0  0
  160.8740  209.5060  151.7650 C   0  0  0  0  0  0  0  0  0  0  0  0
  160.5370  211.4350  153.3840 C   0  0  0  0  0  0  0  0  0  0  0  0
  159.5290  210.6540  154.2140 C   0  0  0  0  0  2  0  0  0  0  0  0
  160.6780  211.3800  154.8910 C   0  0  0  0  0  2  0  0  0  0  0  0
  158.5510  212.7370  152.4590 C   0  0  0  0  0  0  0  0  0  0  0  0
  159.6460  213.1810  150.5150 C   0  0  0  0  0  0  0  0  0  0  0  0
  159.9350  213.4780  149.2880 N   0  0  0  0  0  2  0  0  0  0  0  0
  158.2590  212.9820  151.0080 C   0  0  2  0  0  3  0  0  0  0  0  0
  160.0230  212.7500  152.7580 C   0  0  2  0  0  3  0  0  0  0  0  0
  157.6890  212.5110  153.2910 O   0  0  0  0  0  0  0  0  0  0  0  0
  160.6190  213.0180  151.4950 O   0  0  0  0  0  0  0  0  0  0  0  0
  157.5220  214.1580  150.8540 O   0  0  0  0  0  0  0  0  0  0  0  0
  156.4670  213.8080  150.0170 C   0  0  0  0  0  1  0  0  0  0  0  0
  161.8100  205.3110  144.7280 C   0  0  0  0  0  0  0  0  0  0  0  0
  162.3140  205.8750  143.5060 N   0  0  0  0  0  2  0  0  0  0  0  0
  160.8050  204.5510  144.7140 O   0  0  0  0  0  0  0  0  0  0  0  0
  161.5780  205.7900  142.2400 C   0  0  0  0  0  2  0  0  0  0  0  0
  161.8740  207.0080  141.3740 C   0  0  0  0  0  2  0  0  0  0  0  0
  162.6200  206.5740  140.1250 C   0  0  0  0  0  2  0  0  0  0  0  0
  161.8700  207.0610  138.8980 C   0  0  0  0  0  2  0  0  0  0  0  0
  161.3660  208.4800  139.1170 C   0  0  1  0  0  3  0  0  0  0  0  0
  162.1460  209.4610  138.2620 C   0  0  0  0  0  1  0  0  0  0  0  0
  160.0110  208.5650  138.8060 O   0  0  0  0  0  1  0  0  0  0  0  0
  160.0630  202.5710  148.5560 C   0  0  0  0  0  2  0  0  0  0  0  0
  160.7490  201.3620  146.3410 C   0  0  0  0  0  1  0  0  0  0  0  0
  160.8960  201.0160  148.1110 S   0  0  0  0  0  0  0  0  0  0  0  0
  1 22  1  0  0  0  0
  3 18  1  0  0  0  0
  4 15  1  0  0  0  0
  5 16  1  1  0  0  0
  5  9  1  0  0  0  0
  5  3  1  0  0  0  0
  6  2  2  0  0  0  0
  7  9  1  0  0  0  0
  7 13  1  1  0  0  0
  8 26  1  1  0  0  0
  8 14  1  0  0  0  0
  9  6  1  1  0  0  0
 10  1  1  0  0  0  0
 10 17  1  1  0  0  0
 11  2  1  0  0  0  0
 13 11  1  0  0  0  0
 14 12  2  0  0  0  0
 14 20  1  0  0  0  0
 15 25  1  0  0  0  0
 16  4  2  0  0  0  0
 18 23  1  0  0  0  0
 19 38  1  6  0  0  0
 19 21  1  0  0  0  0
 19 10  1  0  0  0  0
 21 24  1  0  0  0  0
 22 48  1  6  0  0  0
 22  7  1  0  0  0  0
 23 20  1  0  0  0  0
 24 16  1  0  0  0  0
 25 18  2  0  0  0  0
 25  8  1  0  0  0  0
 26 27  1  0  0  0  0
 26 28  1  0  0  0  0
 27 28  1  0  0  0  0
 29 33  1  0  0  0  0
 29 34  2  0  0  0  0
 30 32  1  0  0  0  0
 30 35  1  0  0  0  0
 31 30  2  0  0  0  0
 32 36  1  1  0  0  0
 32 29  1  0  0  0  0
 33 26  1  6  0  0  0
 35 33  1  0  0  0  0
 37 36  1  0  0  0  0
 39 38  1  0  0  0  0
 40 38  2  0  0  0  0
 41 39  1  0  0  0  0
 42 41  1  0  0  0  0
 43 42  1  0  0  0  0
 44 45  1  0  0  0  0
 44 43  1  0  0  0  0
 45 46  1  6  0  0  0
 47 45  1  0  0  0  0
 49 50  1  0  0  0  0
 50 48  1  0  0  0  0
M  END
>  <MODEL>
4

>  <REMARK>
 VINA RESULT:      -0.6      3.236      4.347
  Name = 
  11 active torsions:
  status: ('A' for Active; 'I' for Inactive)
    1  A    between atoms: C_4  and  C_32
    2  A    between atoms: C_4  and  N_45
    3  A    between atoms: C_5  and  C_16
    4  A    between atoms: C_5  and  C_39
    5  A    between atoms: O_8  and  C_21
    6  A    between atoms: C_12  and  C_30
    7  A    between atoms: C_12  and  C_32
    8  A    between atoms: C_15  and  C_38
    9  A    between atoms: C_25  and  C_30
   10  A    between atoms: S_34  and  C_44
   11  A    between atoms: C_42  and  C_44
                            x       y       z     vdW  Elec       q    Type
                         _______ _______ _______ _____ _____    ______ ____

>  <TORSDO>
F 11

$$$$
=
 OpenBabel11072410413D

 50 55  0  0  1  0  0  0  0  0999 V2000
  162.1440  204.4430  148.8180 N   0  0  0  0  0  2  0  0  0  0  0  0
  161.5700  209.4190  148.6860 C   0  0  0  0  0  3  0  0  0  0  0  0
  162.5660  208.0150  151.5340 O   0  0  0  0  0  0  0  0  0  0  0  0
  160.7890  206.2130  153.0780 C   0  0  0  0  0  3  0  0  0  0  0  0
  161.9840  206.8540  150.9170 C   0  0  2  0  0  3  0  0  0  0  0  0
  160.9840  208.4820  149.3470 N   0  0  0  0  0  0  0  0  0  0  0  0
  162.6780  206.8210  148.4630 C   0  0  2  0  0  3  0  0  0  0  0  0
  160.4180  209.5280  154.2550 C   0  0  1  0  0  3  0  0  0  0  0  0
  161.5300  207.1390  149.4700 C   0  0  1  0  0  3  0  0  0  0  0  0
  160.8850  203.8110  148.4340 C   0  0  2  0  0  3  0  0  0  0  0  0
  162.8810  209.1500  148.0250 C   0  0  0  0  0  2  0  0  0  0  0  0
  158.6460  211.0190  153.6460 O   0  0  0  0  0  0  0  0  0  0  0  0
  162.7960  207.8320  147.4060 N   0  0  0  0  0  2  0  0  0  0  0  0
  159.7600  210.5150  153.3390 C   0  0  0  0  0  0  0  0  0  0  0  0
  161.5180  207.1970  153.9480 C   0  0  0  0  0  2  0  0  0  0  0  0
  160.9600  206.0730  151.7490 C   0  0  0  0  0  0  0  0  0  0  0  0
  159.8890  204.7650  148.2000 O   0  0  0  0  0  1  0  0  0  0  0  0
  161.8280  208.9430  152.2860 C   0  0  0  0  0  0  0  0  0  0  0  0
  160.4040  202.8370  149.5160 C   0  0  2  0  0  3  0  0  0  0  0  0
  160.3640  210.8380  152.1230 O   0  0  0  0  0  0  0  0  0  0  0  0
  160.7700  203.3660  151.2420 S   0  0  0  0  0  0  0  0  0  0  0  0
  162.5110  205.4440  147.8250 C   0  0  1  0  0  3  0  0  0  0  0  0
  161.6610  210.3460  151.7860 C   0  0  0  0  0  2  0  0  0  0  0  0
  160.0940  205.0550  151.0660 C   0  0  0  0  0  2  0  0  0  0  0  0
  161.2890  208.5790  153.4540 C   0  0  0  0  0  0  0  0  0  0  0  0
  161.2010  210.2470  155.3680 C   0  0  0  0  0  0  0  0  0  0  0  0
  162.4270  209.5020  155.8720 C   0  0  0  0  0  2  0  0  0  0  0  0
  162.5860  210.7120  154.9690 C   0  0  0  0  0  2  0  0  0  0  0  0
  158.9530  210.8450  156.4120 C   0  0  0  0  0  0  0  0  0  0  0  0
  159.2980  213.0690  156.0720 C   0  0  0  0  0  0  0  0  0  0  0  0
  159.1370  214.3420  155.9030 N   0  0  0  0  0  2  0  0  0  0  0  0
  158.1740  212.1010  156.1590 C   0  0  2  0  0  3  0  0  0  0  0  0
  160.4370  211.0830  156.4180 C   0  0  2  0  0  3  0  0  0  0  0  0
  158.4390  209.7490  156.5520 O   0  0  0  0  0  0  0  0  0  0  0  0
  160.5530  212.4810  156.1870 O   0  0  0  0  0  0  0  0  0  0  0  0
  157.3680  212.4000  157.2600 O   0  0  0  0  0  0  0  0  0  0  0  0
  156.0690  212.3920  156.7620 C   0  0  0  0  0  1  0  0  0  0  0  0
  160.9480  201.4690  149.2900 C   0  0  0  0  0  0  0  0  0  0  0  0
  161.4020  201.0930  147.9790 N   0  0  0  0  0  2  0  0  0  0  0  0
  160.8830  200.6160  150.2140 O   0  0  0  0  0  0  0  0  0  0  0  0
  161.5920  199.6920  147.5880 C   0  0  0  0  0  2  0  0  0  0  0  0
  161.6230  199.5670  146.0700 C   0  0  0  0  0  2  0  0  0  0  0  0
  160.2110  199.6680  145.5230 C   0  0  0  0  0  2  0  0  0  0  0  0
  160.1450  200.7960  144.5080 C   0  0  0  0  0  2  0  0  0  0  0  0
  159.7610  202.0990  145.1930 C   0  0  1  0  0  3  0  0  0  0  0  0
  159.4140  203.1590  144.1650 C   0  0  0  0  0  1  0  0  0  0  0  0
  158.6730  201.8980  146.0400 O   0  0  0  0  0  1  0  0  0  0  0  0
  163.7860  205.0020  147.1270 C   0  0  0  0  0  2  0  0  0  0  0  0
  162.0870  205.3540  145.1700 C   0  0  0  0  0  1  0  0  0  0  0  0
  163.3590  204.1350  145.5850 S   0  0  0  0  0  0  0  0  0  0  0  0
  2  6  2  0  0  0  0
  3 18  1  0  0  0  0
  4 15  1  0  0  0  0
  5  3  1  1  0  0  0
  5 16  1  0  0  0  0
  7 13  1  6  0  0  0
  7  9  1  0  0  0  0
  8 26  1  1  0  0  0
  9  6  1  1  0  0  0
  9  5  1  0  0  0  0
 10 17  1  1  0  0  0
 10  1  1  0  0  0  0
 10 19  1  0  0  0  0
 11  2  1  0  0  0  0
 13 11  1  0  0  0  0
 14 12  2  0  0  0  0
 14  8  1  0  0  0  0
 16  4  2  0  0  0  0
 18 25  2  0  0  0  0
 19 38  1  6  0  0  0
 19 21  1  0  0  0  0
 20 14  1  0  0  0  0
 22 48  1  1  0  0  0
 22  7  1  0  0  0  0
 22  1  1  0  0  0  0
 23 20  1  0  0  0  0
 23 18  1  0  0  0  0
 24 21  1  0  0  0  0
 24 16  1  0  0  0  0
 25 15  1  0  0  0  0
 25  8  1  0  0  0  0
 26 27  1  0  0  0  0
 28 26  1  0  0  0  0
 28 27  1  0  0  0  0
 29 33  1  0  0  0  0
 29 34  2  0  0  0  0
 30 32  1  0  0  0  0
 30 35  1  0  0  0  0
 31 30  2  0  0  0  0
 32 29  1  0  0  0  0
 32 36  1  1  0  0  0
 33 26  1  6  0  0  0
 35 33  1  0  0  0  0
 37 36  1  0  0  0  0
 38 40  2  0  0  0  0
 39 38  1  0  0  0  0
 41 39  1  0  0  0  0
 42 41  1  0  0  0  0
 43 42  1  0  0  0  0
 44 45  1  0  0  0  0
 44 43  1  0  0  0  0
 45 46  1  6  0  0  0
 45 47  1  0  0  0  0
 49 50  1  0  0  0  0
 50 48  1  0  0  0  0
M  END
>  <MODEL>
5

>  <REMARK>
 VINA RESULT:      -0.5      2.532      4.867
  Name = 
  11 active torsions:
  status: ('A' for Active; 'I' for Inactive)
    1  A    between atoms: C_4  and  C_32
    2  A    between atoms: C_4  and  N_45
    3  A    between atoms: C_5  and  C_16
    4  A    between atoms: C_5  and  C_39
    5  A    between atoms: O_8  and  C_21
    6  A    between atoms: C_12  and  C_30
    7  A    between atoms: C_12  and  C_32
    8  A    between atoms: C_15  and  C_38
    9  A    between atoms: C_25  and  C_30
   10  A    between atoms: S_34  and  C_44
   11  A    between atoms: C_42  and  C_44
                            x       y       z     vdW  Elec       q    Type
                         _______ _______ _______ _____ _____    ______ ____

>  <TORSDO>
F 11

$$$$
