=
 OpenBabel11072412473D

 55 63  0  0  1  0  0  0  0  0999 V2000
  161.0140  208.9900  154.7480 C   0  0  0  0  0  0  0  0  0  0  0  0
  158.5270  212.1490  153.4130 C   0  0  0  0  0  0  0  0  0  0  0  0
  159.4570  210.8010  155.2200 C   0  0  0  0  0  0  0  0  0  0  0  0
  160.1750  210.0230  154.2900 C   0  0  0  0  0  0  0  0  0  0  0  0
  159.2390  211.3640  152.4940 C   0  0  0  0  0  3  0  0  0  0  0  0
  161.9340  207.7160  156.6400 N   0  0  0  0  0  1  0  0  0  0  0  0
  159.5680  210.5160  156.5780 C   0  0  0  0  0  3  0  0  0  0  0  0
  161.0970  208.7510  156.1300 C   0  0  0  0  0  0  0  0  0  0  0  0
  160.3720  209.5060  156.9990 N   0  0  0  0  0  0  0  0  0  0  0  0
  160.0510  210.3120  152.9240 C   0  0  0  0  0  3  0  0  0  0  0  0
  158.6570  211.8610  154.7830 C   0  0  0  0  0  3  0  0  0  0  0  0
  157.9760  214.4530  153.7750 O   0  0  0  0  0  1  0  0  0  0  0  0
  157.7390  213.3590  152.9250 C   0  0  1  0  0  0  0  0  0  0  0  0
  160.1270  212.4390  146.5960 S   0  0  0  0  0  0  0  0  0  0  0  0
  161.4450  212.1580  147.8520 C   0  0  0  0  0  2  0  0  0  0  0  0
  159.4910  214.0700  151.1650 C   0  0  0  0  0  3  0  0  0  0  0  0
  159.3730  213.5570  147.7520 C   0  0  0  0  0  0  0  0  0  0  0  0
  160.2140  214.0040  148.7470 C   0  0  0  0  0  0  0  0  0  0  0  0
  158.1300  213.9670  149.4180 N   0  0  0  0  0  0  0  0  0  0  0  0
  159.3600  214.2240  149.8020 C   0  0  0  0  0  0  0  0  0  0  0  0
  157.3680  213.6270  150.4340 N   0  0  0  0  0  2  0  0  0  0  0  0
  158.1660  213.7610  151.5320 C   0  0  0  0  0  0  0  0  0  0  0  0
  158.0960  213.4550  148.1980 N   0  0  0  0  0  0  0  0  0  0  0  0
  161.5610  213.3900  148.7620 C   0  0  0  0  0  2  0  0  0  0  0  0
  156.3520  213.0670  152.8710 O   0  0  0  0  0  0  0  0  0  0  0  0
  155.6720  213.7640  153.8880 C   0  0  0  0  0  2  0  0  0  0  0  0
  155.3370  211.5910  154.8970 C   0  0  0  0  0  0  0  0  0  0  0  0
  155.4660  212.8770  155.0680 C   0  0  0  0  0  0  0  0  0  0  0  0
  155.2210  210.3670  154.7330 O   0  0  0  0  0  0  0  0  0  0  0  0
  155.4900  213.4160  156.3840 N   0  0  0  0  0  1  0  0  0  0  0  0
  161.8600  208.2000  153.7920 C   0  0  0  0  0  2  0  0  0  0  0  0
  161.0190  207.7800  152.5920 C   0  0  0  0  0  2  0  0  0  0  0  0
  161.8390  207.0950  151.4940 C   0  0  1  0  0  3  0  0  0  0  0  0
  162.4320  205.7440  151.9280 C   0  0  2  0  0  3  0  0  0  0  0  0
  163.7550  205.6310  151.5140 F   0  0  0  0  0  0  0  0  0  0  0  0
  161.2060  201.2740  148.1690 O   0  0  0  0  0  0  0  0  0  0  0  0
  160.3120  204.2470  152.1690 C   0  0  0  0  0  2  0  0  0  0  0  0
  160.8000  200.8850  149.4790 C   0  0  0  0  0  2  0  0  0  0  0  0
  160.6040  202.1110  150.3650 C   0  0  2  0  0  3  0  0  0  0  0  0
  161.5390  203.3350  152.3180 C   0  0  1  0  0  3  0  0  0  0  0  0
  161.5730  204.3040  149.9200 C   0  0  0  0  0  3  0  0  0  0  0  0
  161.0930  203.1460  149.4800 C   0  0  0  0  0  0  0  0  0  0  0  0
  161.4360  202.0500  151.5740 N   0  0  0  0  0  2  0  0  0  0  0  0
  161.2650  202.6350  148.1850 N   0  0  0  0  0  0  0  0  0  0  0  0
  161.5920  204.5720  151.4040 C   0  0  2  0  0  0  0  0  0  0  0  0
  160.8890  203.4380  147.0230 C   0  0  1  0  0  3  0  0  0  0  0  0
  160.8680  205.0020  144.7060 C   0  0  1  0  0  3  0  0  0  0  0  0
  159.9290  202.0050  145.3570 O   0  0  0  0  0  1  0  0  0  0  0  0
  161.5970  204.6530  147.0220 O   0  0  0  0  0  0  0  0  0  0  0  0
  161.5790  205.9890  143.8030 C   0  0  0  0  0  1  0  0  0  0  0  0
  161.5200  203.6210  144.5730 C   0  0  0  0  0  2  0  0  0  0  0  0
  160.8860  205.5140  146.1590 C   0  0  0  0  0  2  0  0  0  0  0  0
  161.1030  202.6760  145.7050 C   0  0  1  0  0  3  0  0  0  0  0  0
  160.4060  206.8520  149.3000 N   0  0  0  0  0  0  0  0  0  0  0  0
  161.0390  206.9570  150.2650 C   0  0  0  0  0  0  0  0  0  0  0  0
  1  8  1  0  0  0  0
  2 11  2  0  0  0  0
  3  7  2  0  0  0  0
  4  1  2  0  0  0  0
  4  3  1  0  0  0  0
  5 10  2  0  0  0  0
  5  2  1  0  0  0  0
  7  9  1  0  0  0  0
  8  6  1  0  0  0  0
  8  9  2  0  0  0  0
 10  4  1  0  0  0  0
 11  3  1  0  0  0  0
 13  2  1  0  0  0  0
 13 12  1  1  0  0  0
 14 17  1  0  0  0  0
 14 15  1  0  0  0  0
 15 24  1  0  0  0  0
 16 22  2  0  0  0  0
 17 23  2  0  0  0  0
 17 18  1  0  0  0  0
 18 24  1  0  0  0  0
 18 20  2  0  0  0  0
 19 20  1  0  0  0  0
 19 21  1  0  0  0  0
 20 16  1  0  0  0  0
 21 22  1  0  0  0  0
 22 13  1  0  0  0  0
 23 19  1  0  0  0  0
 25 13  1  0  0  0  0
 25 26  1  0  0  0  0
 26 28  1  0  0  0  0
 27 28  2  0  0  0  0
 28 30  1  0  0  0  0
 29 27  2  0  0  0  0
 31  1  1  0  0  0  0
 32 31  1  0  0  0  0
 33 55  1  6  0  0  0
 33 34  1  0  0  0  0
 33 32  1  0  0  0  0
 34 35  1  6  0  0  0
 36 44  1  0  0  0  0
 36 38  1  0  0  0  0
 39 38  1  6  0  0  0
 39 43  1  0  0  0  0
 40 37  1  1  0  0  0
 41 45  1  0  0  0  0
 42 41  2  0  0  0  0
 42 39  1  0  0  0  0
 43 40  1  0  0  0  0
 44 42  1  0  0  0  0
 45 34  1  1  0  0  0
 45 37  1  0  0  0  0
 45 40  1  0  0  0  0
 46 44  1  1  0  0  0
 47 50  1  6  0  0  0
 47 52  1  0  0  0  0
 49 46  1  0  0  0  0
 51 47  1  0  0  0  0
 51 53  1  0  0  0  0
 52 49  1  0  0  0  0
 53 48  1  6  0  0  0
 53 46  1  0  0  0  0
 54 55  3  0  0  0  0
M  END
>  <MODEL>
1

>  <REMARK>
 VINA RESULT:      -7.2      0.000      0.000
  Name = 
  12 active torsions:
  status: ('A' for Active; 'I' for Inactive)
    1  A    between atoms: C_3  and  C_29
    2  A    between atoms: C_3  and  C_39
    3  A    between atoms: C_5  and  C_39
    4  A    between atoms: C_5  and  C_48
    5  A    between atoms: C_9  and  N_44
    6  A    between atoms: C_10  and  C_49
    7  A    between atoms: C_11  and  C_29
    8  A    between atoms: C_16  and  O_21
    9  A    between atoms: C_16  and  C_24
   10  A    between atoms: C_16  and  C_45
   11  A    between atoms: O_21  and  C_49
   12  A    between atoms: C_39  and  C_53
                            x       y       z     vdW  Elec       q    Type
                         _______ _______ _______ _____ _____    ______ ____

>  <TORSDO>
F 12

$$$$
=
 OpenBabel11072412473D

 55 63  0  0  1  0  0  0  0  0999 V2000
  161.0060  208.5880  154.4430 C   0  0  0  0  0  0  0  0  0  0  0  0
  158.8840  212.0810  153.3260 C   0  0  0  0  0  0  0  0  0  0  0  0
  159.4220  210.3610  154.9690 C   0  0  0  0  0  0  0  0  0  0  0  0
  160.2910  209.7360  154.0520 C   0  0  0  0  0  0  0  0  0  0  0  0
  159.7450  211.4480  152.4170 C   0  0  0  0  0  3  0  0  0  0  0  0
  161.5190  206.9260  156.1810 N   0  0  0  0  0  1  0  0  0  0  0  0
  159.2630  209.8150  156.2400 C   0  0  0  0  0  3  0  0  0  0  0  0
  160.8160  208.0850  155.7400 C   0  0  0  0  0  0  0  0  0  0  0  0
  159.9520  208.6990  156.5930 N   0  0  0  0  0  0  0  0  0  0  0  0
  160.4380  210.2880  152.7730 C   0  0  0  0  0  3  0  0  0  0  0  0
  158.7420  211.5300  154.6110 C   0  0  0  0  0  3  0  0  0  0  0  0
  158.8330  214.4530  153.6690 O   0  0  0  0  0  1  0  0  0  0  0  0
  158.2280  213.4060  152.9520 C   0  0  1  0  0  0  0  0  0  0  0  0
  160.1600  212.2260  146.5120 S   0  0  0  0  0  0  0  0  0  0  0  0
  161.6190  212.4630  147.6110 C   0  0  0  0  0  2  0  0  0  0  0  0
  159.5550  214.2750  150.9130 C   0  0  0  0  0  3  0  0  0  0  0  0
  159.2520  213.2720  147.6220 C   0  0  0  0  0  0  0  0  0  0  0  0
  160.0360  214.0500  148.4450 C   0  0  0  0  0  0  0  0  0  0  0  0
  158.1100  213.5910  149.3780 N   0  0  0  0  0  0  0  0  0  0  0  0
  159.2580  214.1980  149.5700 C   0  0  0  0  0  0  0  0  0  0  0  0
  157.5650  213.2180  150.5160 N   0  0  0  0  0  2  0  0  0  0  0  0
  158.3990  213.7010  151.4790 C   0  0  0  0  0  0  0  0  0  0  0  0
  158.0950  212.9200  148.2380 N   0  0  0  0  0  0  0  0  0  0  0  0
  161.4920  213.8010  148.3550 C   0  0  0  0  0  2  0  0  0  0  0  0
  156.8350  213.3680  153.2140 O   0  0  0  0  0  0  0  0  0  0  0  0
  156.5210  214.2300  154.2810 C   0  0  0  0  0  2  0  0  0  0  0  0
  155.5240  212.3140  155.3700 C   0  0  0  0  0  0  0  0  0  0  0  0
  155.4980  213.6010  155.1650 C   0  0  0  0  0  0  0  0  0  0  0  0
  155.5550  211.0900  155.5710 O   0  0  0  0  0  0  0  0  0  0  0  0
  154.5450  214.4070  155.8480 N   0  0  0  0  0  1  0  0  0  0  0  0
  162.0050  207.9500  153.5220 C   0  0  0  0  0  2  0  0  0  0  0  0
  161.3060  206.9210  152.6420 C   0  0  0  0  0  2  0  0  0  0  0  0
  161.7570  206.9750  151.1790 C   0  0  1  0  0  3  0  0  0  0  0  0
  160.7160  206.4100  150.1980 C   0  0  2  0  0  3  0  0  0  0  0  0
  160.1030  205.2800  150.7270 F   0  0  0  0  0  0  0  0  0  0  0  0
  160.6390  204.4100  144.5760 O   0  0  0  0  0  0  0  0  0  0  0  0
  162.8260  206.4360  148.6680 C   0  0  0  0  0  2  0  0  0  0  0  0
  161.5050  205.5410  144.6390 C   0  0  0  0  0  2  0  0  0  0  0  0
  161.9690  205.7800  146.0730 C   0  0  2  0  0  3  0  0  0  0  0  0
  161.7660  207.3300  148.0070 C   0  0  1  0  0  3  0  0  0  0  0  0
  160.8350  204.9180  148.0520 C   0  0  0  0  0  3  0  0  0  0  0  0
  161.1590  204.8030  146.7680 C   0  0  0  0  0  0  0  0  0  0  0  0
  161.6340  207.1320  146.5380 N   0  0  0  0  0  2  0  0  0  0  0  0
  160.5460  203.9380  145.8500 N   0  0  0  0  0  0  0  0  0  0  0  0
  161.3470  206.1020  148.8330 C   0  0  2  0  0  0  0  0  0  0  0  0
  160.4490  202.5090  146.1390 C   0  0  1  0  0  3  0  0  0  0  0  0
  160.9360  199.7770  146.4770 C   0  0  1  0  0  3  0  0  0  0  0  0
  160.3830  202.1920  148.5140 O   0  0  0  0  0  1  0  0  0  0  0  0
  160.8860  201.7580  145.0330 O   0  0  0  0  0  0  0  0  0  0  0  0
  161.7220  198.5430  146.0850 C   0  0  0  0  0  1  0  0  0  0  0  0
  161.8290  200.7200  147.2910 C   0  0  0  0  0  2  0  0  0  0  0  0
  160.3690  200.4590  145.2170 C   0  0  0  0  0  2  0  0  0  0  0  0
  161.2300  202.1250  147.4060 C   0  0  1  0  0  3  0  0  0  0  0  0
  162.4620  209.4230  150.5190 N   0  0  0  0  0  0  0  0  0  0  0  0
  162.1500  208.3460  150.8110 C   0  0  0  0  0  0  0  0  0  0  0  0
  1  8  1  0  0  0  0
  2 11  2  0  0  0  0
  3  7  2  0  0  0  0
  4  1  2  0  0  0  0
  4  3  1  0  0  0  0
  5 10  2  0  0  0  0
  5  2  1  0  0  0  0
  7  9  1  0  0  0  0
  8  6  1  0  0  0  0
  8  9  2  0  0  0  0
 10  4  1  0  0  0  0
 11  3  1  0  0  0  0
 13 25  1  0  0  0  0
 13  2  1  0  0  0  0
 13 12  1  1  0  0  0
 14 15  1  0  0  0  0
 14 17  1  0  0  0  0
 15 24  1  0  0  0  0
 16 22  2  0  0  0  0
 17 23  2  0  0  0  0
 17 18  1  0  0  0  0
 18 20  2  0  0  0  0
 19 20  1  0  0  0  0
 19 21  1  0  0  0  0
 20 16  1  0  0  0  0
 21 22  1  0  0  0  0
 22 13  1  0  0  0  0
 23 19  1  0  0  0  0
 24 18  1  0  0  0  0
 25 26  1  0  0  0  0
 26 28  1  0  0  0  0
 27 29  2  0  0  0  0
 28 27  2  0  0  0  0
 28 30  1  0  0  0  0
 31  1  1  0  0  0  0
 32 31  1  0  0  0  0
 33 55  1  6  0  0  0
 33 32  1  0  0  0  0
 34 35  1  1  0  0  0
 34 33  1  0  0  0  0
 36 38  1  0  0  0  0
 36 44  1  0  0  0  0
 37 45  1  0  0  0  0
 39 38  1  6  0  0  0
 39 43  1  0  0  0  0
 39 42  1  0  0  0  0
 40 37  1  6  0  0  0
 40 45  1  0  0  0  0
 41 45  1  0  0  0  0
 42 41  2  0  0  0  0
 43 40  1  0  0  0  0
 44 42  1  0  0  0  0
 45 34  1  1  0  0  0
 46 44  1  6  0  0  0
 46 53  1  0  0  0  0
 47 50  1  6  0  0  0
 47 51  1  0  0  0  0
 49 52  1  0  0  0  0
 49 46  1  0  0  0  0
 51 53  1  0  0  0  0
 52 47  1  0  0  0  0
 53 48  1  1  0  0  0
 54 55  3  0  0  0  0
M  END
>  <MODEL>
2

>  <REMARK>
 VINA RESULT:      -6.3      1.683      2.879
  Name = 
  12 active torsions:
  status: ('A' for Active; 'I' for Inactive)
    1  A    between atoms: C_3  and  C_29
    2  A    between atoms: C_3  and  C_39
    3  A    between atoms: C_5  and  C_39
    4  A    between atoms: C_5  and  C_48
    5  A    between atoms: C_9  and  N_44
    6  A    between atoms: C_10  and  C_49
    7  A    between atoms: C_11  and  C_29
    8  A    between atoms: C_16  and  O_21
    9  A    between atoms: C_16  and  C_24
   10  A    between atoms: C_16  and  C_45
   11  A    between atoms: O_21  and  C_49
   12  A    between atoms: C_39  and  C_53
                            x       y       z     vdW  Elec       q    Type
                         _______ _______ _______ _____ _____    ______ ____

>  <TORSDO>
F 12

$$$$
=
 OpenBabel11072412473D

 55 63  0  0  1  0  0  0  0  0999 V2000
  161.9050  208.7360  149.3610 C   0  0  0  0  0  0  0  0  0  0  0  0
  160.6340  210.3770  153.0540 C   0  0  0  0  0  0  0  0  0  0  0  0
  161.0470  208.4480  151.6210 C   0  0  0  0  0  0  0  0  0  0  0  0
  161.4650  209.2950  150.5750 C   0  0  0  0  0  0  0  0  0  0  0  0
  161.0440  211.2130  152.0050 C   0  0  0  0  0  3  0  0  0  0  0  0
  162.3340  206.7280  148.0080 N   0  0  0  0  0  1  0  0  0  0  0  0
  161.0500  207.0690  151.4250 C   0  0  0  0  0  3  0  0  0  0  0  0
  161.8960  207.3390  149.2200 C   0  0  0  0  0  0  0  0  0  0  0  0
  161.4650  206.5500  150.2410 N   0  0  0  0  0  0  0  0  0  0  0  0
  161.4510  210.6820  150.7790 C   0  0  0  0  0  3  0  0  0  0  0  0
  160.6530  208.9860  152.8500 C   0  0  0  0  0  3  0  0  0  0  0  0
  161.4810  211.4280  155.0340 O   0  0  0  0  0  1  0  0  0  0  0  0
  160.3020  210.9770  154.4160 C   0  0  1  0  0  0  0  0  0  0  0  0
  154.6550  214.3250  152.5460 S   0  0  0  0  0  0  0  0  0  0  0  0
  155.6570  213.8420  151.0800 C   0  0  0  0  0  2  0  0  0  0  0  0
  159.3270  213.0060  153.1490 C   0  0  0  0  0  3  0  0  0  0  0  0
  156.1700  214.3690  153.4700 C   0  0  0  0  0  0  0  0  0  0  0  0
  157.3080  214.4530  152.6990 C   0  0  0  0  0  0  0  0  0  0  0  0
  157.7020  213.4330  154.5950 N   0  0  0  0  0  0  0  0  0  0  0  0
  158.2530  213.8090  153.4640 C   0  0  0  0  0  0  0  0  0  0  0  0
  158.3210  212.3920  155.1110 N   0  0  0  0  0  2  0  0  0  0  0  0
  159.3750  212.1620  154.2770 C   0  0  0  0  0  0  0  0  0  0  0  0
  156.3990  213.6620  154.6060 N   0  0  0  0  0  0  0  0  0  0  0  0
  157.0910  214.3710  151.2370 C   0  0  0  0  0  2  0  0  0  0  0  0
  159.6470  210.0250  155.2380 O   0  0  0  0  0  0  0  0  0  0  0  0
  160.2650  209.9700  156.5010 C   0  0  0  0  0  2  0  0  0  0  0  0
  160.1380  207.5560  156.4180 C   0  0  0  0  0  0  0  0  0  0  0  0
  160.8330  208.6120  156.7360 C   0  0  0  0  0  0  0  0  0  0  0  0
  159.4770  206.5520  156.1080 O   0  0  0  0  0  0  0  0  0  0  0  0
  162.1580  208.4630  157.2300 N   0  0  0  0  0  1  0  0  0  0  0  0
  162.4380  209.6050  148.2590 C   0  0  0  0  0  2  0  0  0  0  0  0
  162.4200  211.0630  148.7030 C   0  0  0  0  0  2  0  0  0  0  0  0
  162.0370  212.0290  147.5780 C   0  0  1  0  0  3  0  0  0  0  0  0
  160.5240  212.0780  147.3040 C   0  0  2  0  0  3  0  0  0  0  0  0
  160.0110  210.7960  147.1420 F   0  0  0  0  0  0  0  0  0  0  0  0
  158.7170  213.0190  141.6940 O   0  0  0  0  0  0  0  0  0  0  0  0
  160.4410  214.4530  146.2340 C   0  0  0  0  0  2  0  0  0  0  0  0
  158.2690  214.1070  142.5000 C   0  0  0  0  0  2  0  0  0  0  0  0
  159.0970  214.2030  143.7780 C   0  0  2  0  0  3  0  0  0  0  0  0
  159.0070  213.9030  146.2450 C   0  0  1  0  0  3  0  0  0  0  0  0
  160.4180  212.3760  144.7070 C   0  0  0  0  0  3  0  0  0  0  0  0
  159.8910  212.9990  143.6580 C   0  0  0  0  0  0  0  0  0  0  0  0
  158.2580  214.1340  144.9800 N   0  0  0  0  0  2  0  0  0  0  0  0
  159.7530  212.4530  142.3730 N   0  0  0  0  0  0  0  0  0  0  0  0
  160.2070  212.9530  146.0840 C   0  0  2  0  0  0  0  0  0  0  0  0
  160.9150  211.8950  141.6840 C   0  0  1  0  0  3  0  0  0  0  0  0
  162.8480  211.1480  139.8080 C   0  0  1  0  0  3  0  0  0  0  0  0
  162.8770  213.0990  142.3540 O   0  0  0  0  0  1  0  0  0  0  0  0
  160.5070  211.1860  140.5400 O   0  0  0  0  0  0  0  0  0  0  0  0
  163.2120  210.8660  138.3650 C   0  0  0  0  0  1  0  0  0  0  0  0
  162.6570  212.6560  140.0060 C   0  0  0  0  0  2  0  0  0  0  0  0
  161.5900  210.3480  140.1970 C   0  0  0  0  0  2  0  0  0  0  0  0
  161.9430  212.9780  141.3230 C   0  0  1  0  0  3  0  0  0  0  0  0
  163.0020  214.4290  148.0650 N   0  0  0  0  0  0  0  0  0  0  0  0
  162.5760  213.3740  147.8480 C   0  0  0  0  0  0  0  0  0  0  0  0
  1  4  1  0  0  0  0
  2 13  1  0  0  0  0
  3 11  2  0  0  0  0
  4 10  2  0  0  0  0
  4  3  1  0  0  0  0
  5  2  2  0  0  0  0
  6  8  1  0  0  0  0
  7  3  1  0  0  0  0
  8  1  2  0  0  0  0
  8  9  1  0  0  0  0
  9  7  2  0  0  0  0
 10  5  1  0  0  0  0
 11  2  1  0  0  0  0
 13 12  1  1  0  0  0
 13 25  1  0  0  0  0
 14 17  1  0  0  0  0
 15 24  1  0  0  0  0
 15 14  1  0  0  0  0
 16 20  1  0  0  0  0
 16 22  2  0  0  0  0
 17 23  2  0  0  0  0
 18 20  2  0  0  0  0
 18 17  1  0  0  0  0
 19 23  1  0  0  0  0
 19 21  1  0  0  0  0
 20 19  1  0  0  0  0
 22 13  1  0  0  0  0
 22 21  1  0  0  0  0
 24 18  1  0  0  0  0
 25 26  1  0  0  0  0
 26 28  1  0  0  0  0
 27 28  2  0  0  0  0
 28 30  1  0  0  0  0
 29 27  2  0  0  0  0
 31 32  1  0  0  0  0
 31  1  1  0  0  0  0
 33 55  1  1  0  0  0
 33 32  1  0  0  0  0
 34 35  1  6  0  0  0
 34 33  1  0  0  0  0
 36 44  1  0  0  0  0
 36 38  1  0  0  0  0
 39 38  1  6  0  0  0
 39 43  1  0  0  0  0
 40 37  1  6  0  0  0
 41 45  1  0  0  0  0
 42 39  1  0  0  0  0
 42 41  2  0  0  0  0
 43 40  1  0  0  0  0
 44 42  1  0  0  0  0
 45 37  1  0  0  0  0
 45 40  1  0  0  0  0
 45 34  1  1  0  0  0
 46 44  1  6  0  0  0
 47 50  1  6  0  0  0
 47 51  1  0  0  0  0
 47 52  1  0  0  0  0
 49 46  1  0  0  0  0
 51 53  1  0  0  0  0
 52 49  1  0  0  0  0
 53 46  1  0  0  0  0
 53 48  1  1  0  0  0
 55 54  3  0  0  0  0
M  END
>  <MODEL>
3

>  <REMARK>
 VINA RESULT:      -6.0      4.295      8.091
  Name = 
  12 active torsions:
  status: ('A' for Active; 'I' for Inactive)
    1  A    between atoms: C_3  and  C_29
    2  A    between atoms: C_3  and  C_39
    3  A    between atoms: C_5  and  C_39
    4  A    between atoms: C_5  and  C_48
    5  A    between atoms: C_9  and  N_44
    6  A    between atoms: C_10  and  C_49
    7  A    between atoms: C_11  and  C_29
    8  A    between atoms: C_16  and  O_21
    9  A    between atoms: C_16  and  C_24
   10  A    between atoms: C_16  and  C_45
   11  A    between atoms: O_21  and  C_49
   12  A    between atoms: C_39  and  C_53
                            x       y       z     vdW  Elec       q    Type
                         _______ _______ _______ _____ _____    ______ ____

>  <TORSDO>
F 12

$$$$
=
 OpenBabel11072412473D

 55 63  0  0  1  0  0  0  0  0999 V2000
  160.2380  212.9710  147.4950 C   0  0  0  0  0  0  0  0  0  0  0  0
  161.0980  211.1460  151.2200 C   0  0  0  0  0  0  0  0  0  0  0  0
  159.7280  212.6270  149.8510 C   0  0  0  0  0  0  0  0  0  0  0  0
  160.5470  212.3750  148.7320 C   0  0  0  0  0  0  0  0  0  0  0  0
  161.9120  210.9060  150.1030 C   0  0  0  0  0  3  0  0  0  0  0  0
  158.7710  214.4470  146.1840 N   0  0  0  0  0  1  0  0  0  0  0  0
  158.6410  213.4870  149.7200 C   0  0  0  0  0  3  0  0  0  0  0  0
  159.1240  213.8220  147.4170 C   0  0  0  0  0  0  0  0  0  0  0  0
  158.3670  214.0630  148.5210 N   0  0  0  0  0  0  0  0  0  0  0  0
  161.6440  211.5140  148.8740 C   0  0  0  0  0  3  0  0  0  0  0  0
  159.9950  212.0050  151.0740 C   0  0  0  0  0  3  0  0  0  0  0  0
  162.7300  210.2540  152.7320 O   0  0  0  0  0  1  0  0  0  0  0  0
  161.3470  210.3830  152.5170 C   0  0  1  0  0  0  0  0  0  0  0  0
  156.6100  212.0590  157.1370 S   0  0  0  0  0  0  0  0  0  0  0  0
  156.1240  212.6210  155.4530 C   0  0  0  0  0  2  0  0  0  0  0  0
  159.9870  212.2900  153.6060 C   0  0  0  0  0  3  0  0  0  0  0  0
  158.3000  212.2180  156.6180 C   0  0  0  0  0  0  0  0  0  0  0  0
  158.4840  213.0060  155.5030 C   0  0  0  0  0  0  0  0  0  0  0  0
  160.0420  211.4760  155.6670 N   0  0  0  0  0  0  0  0  0  0  0  0
  159.6030  212.4620  154.9170 C   0  0  0  0  0  0  0  0  0  0  0  0
  160.7170  210.5960  154.9600 N   0  0  0  0  0  2  0  0  0  0  0  0
  160.7650  211.1190  153.7020 C   0  0  0  0  0  0  0  0  0  0  0  0
  159.2180  211.2200  156.6690 N   0  0  0  0  0  0  0  0  0  0  0  0
  157.2440  213.4870  154.8550 C   0  0  0  0  0  2  0  0  0  0  0  0
  160.7330  209.1040  152.4730 O   0  0  0  0  0  0  0  0  0  0  0  0
  161.6640  208.1100  152.8250 C   0  0  0  0  0  2  0  0  0  0  0  0
  161.9150  207.1370  150.6250 C   0  0  0  0  0  0  0  0  0  0  0  0
  161.5780  206.9660  151.8720 C   0  0  0  0  0  0  0  0  0  0  0  0
  162.2420  207.3000  149.4390 O   0  0  0  0  0  0  0  0  0  0  0  0
  161.2080  205.6730  152.3340 N   0  0  0  0  0  1  0  0  0  0  0  0
  161.0360  212.6540  146.2640 C   0  0  0  0  0  2  0  0  0  0  0  0
  160.9980  213.8410  145.3090 C   0  0  0  0  0  2  0  0  0  0  0  0
  161.5390  213.5090  143.9150 C   0  0  1  0  0  3  0  0  0  0  0  0
  160.6420  214.0200  142.7750 C   0  0  2  0  0  3  0  0  0  0  0  0
  159.4170  214.4530  143.2680 F   0  0  0  0  0  0  0  0  0  0  0  0
  158.3540  211.8500  137.7070 O   0  0  0  0  0  0  0  0  0  0  0  0
  161.1940  211.6300  141.8930 C   0  0  0  0  0  2  0  0  0  0  0  0
  159.6920  211.3760  137.8360 C   0  0  0  0  0  2  0  0  0  0  0  0
  160.1490  211.4510  139.2900 C   0  0  2  0  0  3  0  0  0  0  0  0
  161.6900  212.6340  140.8420 C   0  0  1  0  0  3  0  0  0  0  0  0
  159.1190  212.8640  140.9890 C   0  0  0  0  0  3  0  0  0  0  0  0
  159.0230  212.1460  139.8750 C   0  0  0  0  0  0  0  0  0  0  0  0
  161.3680  212.2550  139.4400 N   0  0  0  0  0  2  0  0  0  0  0  0
  157.9590  212.1990  138.9630 N   0  0  0  0  0  0  0  0  0  0  0  0
  160.4480  212.9460  141.6950 C   0  0  2  0  0  0  0  0  0  0  0  0
  156.5860  211.9980  139.4240 C   0  0  1  0  0  3  0  0  0  0  0  0
  153.8040  211.8650  139.6650 C   0  0  1  0  0  3  0  0  0  0  0  0
  156.1150  209.6480  139.4820 O   0  0  0  0  0  1  0  0  0  0  0  0
  155.8360  213.1730  139.2430 O   0  0  0  0  0  0  0  0  0  0  0  0
  152.4420  212.3800  139.2480 C   0  0  0  0  0  1  0  0  0  0  0  0
  154.4150  211.0440  138.5240 C   0  0  0  0  0  2  0  0  0  0  0  0
  154.7060  213.0440  140.0790 C   0  0  0  0  0  2  0  0  0  0  0  0
  155.9150  210.8040  138.7260 C   0  0  1  0  0  3  0  0  0  0  0  0
  164.0060  214.3890  143.6520 N   0  0  0  0  0  0  0  0  0  0  0  0
  162.9210  213.9990  143.7690 C   0  0  0  0  0  0  0  0  0  0  0  0
  1  4  1  0  0  0  0
  2 13  1  0  0  0  0
  3 11  2  0  0  0  0
  4 10  2  0  0  0  0
  4  3  1  0  0  0  0
  5  2  2  0  0  0  0
  6  8  1  0  0  0  0
  7  3  1  0  0  0  0
  8  1  2  0  0  0  0
  8  9  1  0  0  0  0
  9  7  2  0  0  0  0
 10  5  1  0  0  0  0
 11  2  1  0  0  0  0
 13 12  1  1  0  0  0
 13 22  1  0  0  0  0
 15 14  1  0  0  0  0
 16 22  2  0  0  0  0
 16 20  1  0  0  0  0
 17 23  2  0  0  0  0
 17 14  1  0  0  0  0
 18 17  1  0  0  0  0
 19 23  1  0  0  0  0
 20 18  2  0  0  0  0
 20 19  1  0  0  0  0
 21 19  1  0  0  0  0
 22 21  1  0  0  0  0
 24 15  1  0  0  0  0
 24 18  1  0  0  0  0
 25 13  1  0  0  0  0
 25 26  1  0  0  0  0
 27 28  2  0  0  0  0
 28 30  1  0  0  0  0
 28 26  1  0  0  0  0
 29 27  2  0  0  0  0
 31  1  1  0  0  0  0
 32 31  1  0  0  0  0
 33 55  1  6  0  0  0
 33 32  1  0  0  0  0
 34 35  1  1  0  0  0
 34 33  1  0  0  0  0
 36 38  1  0  0  0  0
 36 44  1  0  0  0  0
 39 38  1  6  0  0  0
 39 43  1  0  0  0  0
 39 42  1  0  0  0  0
 40 45  1  0  0  0  0
 40 37  1  1  0  0  0
 41 45  1  0  0  0  0
 42 41  2  0  0  0  0
 43 40  1  0  0  0  0
 44 42  1  0  0  0  0
 45 37  1  0  0  0  0
 45 34  1  1  0  0  0
 46 44  1  6  0  0  0
 47 50  1  6  0  0  0
 47 52  1  0  0  0  0
 49 46  1  0  0  0  0
 49 52  1  0  0  0  0
 51 53  1  0  0  0  0
 51 47  1  0  0  0  0
 53 46  1  0  0  0  0
 53 48  1  1  0  0  0
 54 55  3  0  0  0  0
M  END
>  <MODEL>
4

>  <REMARK>
 VINA RESULT:      -5.3      6.182     10.151
  Name = 
  12 active torsions:
  status: ('A' for Active; 'I' for Inactive)
    1  A    between atoms: C_3  and  C_29
    2  A    between atoms: C_3  and  C_39
    3  A    between atoms: C_5  and  C_39
    4  A    between atoms: C_5  and  C_48
    5  A    between atoms: C_9  and  N_44
    6  A    between atoms: C_10  and  C_49
    7  A    between atoms: C_11  and  C_29
    8  A    between atoms: C_16  and  O_21
    9  A    between atoms: C_16  and  C_24
   10  A    between atoms: C_16  and  C_45
   11  A    between atoms: O_21  and  C_49
   12  A    between atoms: C_39  and  C_53
                            x       y       z     vdW  Elec       q    Type
                         _______ _______ _______ _____ _____    ______ ____

>  <TORSDO>
F 12

$$$$
=
 OpenBabel11072412473D

 55 63  0  0  1  0  0  0  0  0999 V2000
  160.9750  209.1280  155.0190 C   0  0  0  0  0  0  0  0  0  0  0  0
  158.4390  212.1790  153.5320 C   0  0  0  0  0  0  0  0  0  0  0  0
  159.5240  211.0460  155.3990 C   0  0  0  0  0  0  0  0  0  0  0  0
  160.1170  210.1230  154.5140 C   0  0  0  0  0  0  0  0  0  0  0  0
  159.0280  211.2520  152.6590 C   0  0  0  0  0  3  0  0  0  0  0  0
  162.0610  208.0800  156.9600 N   0  0  0  0  0  1  0  0  0  0  0  0
  159.7730  210.9380  156.7650 C   0  0  0  0  0  3  0  0  0  0  0  0
  161.2000  209.0710  156.4040 C   0  0  0  0  0  0  0  0  0  0  0  0
  160.5930  209.9620  157.2330 N   0  0  0  0  0  0  0  0  0  0  0  0
  159.8540  210.2340  153.1420 C   0  0  0  0  0  3  0  0  0  0  0  0
  158.7080  212.0700  154.9070 C   0  0  0  0  0  3  0  0  0  0  0  0
  157.7400  214.4520  153.8280 O   0  0  0  0  0  1  0  0  0  0  0  0
  157.6340  213.3450  152.9680 C   0  0  1  0  0  0  0  0  0  0  0  0
  160.3270  212.4840  146.7550 S   0  0  0  0  0  0  0  0  0  0  0  0
  161.5560  212.1020  148.0710 C   0  0  0  0  0  2  0  0  0  0  0  0
  159.5150  214.0150  151.3300 C   0  0  0  0  0  3  0  0  0  0  0  0
  159.5650  213.6050  147.9020 C   0  0  0  0  0  0  0  0  0  0  0  0
  160.3690  213.9810  148.9550 C   0  0  0  0  0  0  0  0  0  0  0  0
  158.2520  214.0310  149.5090 N   0  0  0  0  0  0  0  0  0  0  0  0
  159.4690  214.2150  149.9680 C   0  0  0  0  0  0  0  0  0  0  0  0
  157.4180  213.7010  150.4710 N   0  0  0  0  0  2  0  0  0  0  0  0
  158.1580  213.7640  151.6140 C   0  0  0  0  0  0  0  0  0  0  0  0
  158.2610  213.5560  148.2740 N   0  0  0  0  0  0  0  0  0  0  0  0
  161.6820  213.3000  149.0250 C   0  0  0  0  0  2  0  0  0  0  0  0
  156.2730  212.9800  152.7990 O   0  0  0  0  0  0  0  0  0  0  0  0
  155.4720  213.6540  153.7380 C   0  0  0  0  0  2  0  0  0  0  0  0
  155.2710  213.4190  156.1370 C   0  0  0  0  0  0  0  0  0  0  0  0
  155.3300  212.8330  154.9750 C   0  0  0  0  0  0  0  0  0  0  0  0
  155.2080  213.9790  157.2430 O   0  0  0  0  0  0  0  0  0  0  0  0
  155.1790  211.4220  154.8860 N   0  0  0  0  0  1  0  0  0  0  0  0
  161.6920  208.1860  154.0960 C   0  0  0  0  0  2  0  0  0  0  0  0
  160.8320  206.9500  153.8550 C   0  0  0  0  0  2  0  0  0  0  0  0
  160.8390  206.4870  152.3950 C   0  0  1  0  0  3  0  0  0  0  0  0
  160.9650  207.6440  151.3890 C   0  0  2  0  0  3  0  0  0  0  0  0
  159.7180  208.1920  151.1100 F   0  0  0  0  0  0  0  0  0  0  0  0
  161.2780  204.7190  146.1960 O   0  0  0  0  0  0  0  0  0  0  0  0
  163.0960  207.6690  149.8890 C   0  0  0  0  0  2  0  0  0  0  0  0
  161.9990  205.9430  146.0680 C   0  0  0  0  0  2  0  0  0  0  0  0
  162.3930  206.4780  147.4410 C   0  0  2  0  0  3  0  0  0  0  0  0
  161.9540  208.2990  149.0770 C   0  0  1  0  0  3  0  0  0  0  0  0
  161.3190  205.8340  149.5330 C   0  0  0  0  0  3  0  0  0  0  0  0
  161.6890  205.5420  148.2910 C   0  0  0  0  0  0  0  0  0  0  0  0
  161.8860  207.8380  147.6640 N   0  0  0  0  0  2  0  0  0  0  0  0
  161.2090  204.4650  147.5320 N   0  0  0  0  0  0  0  0  0  0  0  0
  161.6640  207.1880  150.1010 C   0  0  2  0  0  0  0  0  0  0  0  0
  161.2780  203.1050  148.0630 C   0  0  1  0  0  3  0  0  0  0  0  0
  160.8680  200.7250  149.4710 C   0  0  1  0  0  3  0  0  0  0  0  0
  160.4730  201.5730  146.4030 O   0  0  0  0  0  1  0  0  0  0  0  0
  161.3320  203.1330  149.4680 O   0  0  0  0  0  0  0  0  0  0  0  0
  160.3610  200.0280  150.7170 C   0  0  0  0  0  1  0  0  0  0  0  0
  159.6800  201.2220  148.6400 C   0  0  0  0  0  2  0  0  0  0  0  0
  161.8220  201.8700  149.8630 C   0  0  0  0  0  2  0  0  0  0  0  0
  160.1070  202.2380  147.5750 C   0  0  1  0  0  3  0  0  0  0  0  0
  162.7150  204.6800  152.0170 N   0  0  0  0  0  0  0  0  0  0  0  0
  161.8880  205.4750  152.1810 C   0  0  0  0  0  0  0  0  0  0  0  0
  1  8  1  0  0  0  0
  2 11  2  0  0  0  0
  3  7  2  0  0  0  0
  4  1  2  0  0  0  0
  4  3  1  0  0  0  0
  5 10  2  0  0  0  0
  5  2  1  0  0  0  0
  7  9  1  0  0  0  0
  8  6  1  0  0  0  0
  8  9  2  0  0  0  0
 10  4  1  0  0  0  0
 11  3  1  0  0  0  0
 13  2  1  0  0  0  0
 13 12  1  1  0  0  0
 14 17  1  0  0  0  0
 14 15  1  0  0  0  0
 15 24  1  0  0  0  0
 16 22  2  0  0  0  0
 17 23  2  0  0  0  0
 17 18  1  0  0  0  0
 18 24  1  0  0  0  0
 18 20  2  0  0  0  0
 19 20  1  0  0  0  0
 19 21  1  0  0  0  0
 20 16  1  0  0  0  0
 21 22  1  0  0  0  0
 22 13  1  0  0  0  0
 23 19  1  0  0  0  0
 25 13  1  0  0  0  0
 25 26  1  0  0  0  0
 26 28  1  0  0  0  0
 27 29  2  0  0  0  0
 28 27  2  0  0  0  0
 30 28  1  0  0  0  0
 31  1  1  0  0  0  0
 32 31  1  0  0  0  0
 33 55  1  1  0  0  0
 33 32  1  0  0  0  0
 34 35  1  6  0  0  0
 34 33  1  0  0  0  0
 36 44  1  0  0  0  0
 37 45  1  0  0  0  0
 38 36  1  0  0  0  0
 39 38  1  6  0  0  0
 39 43  1  0  0  0  0
 39 42  1  0  0  0  0
 40 37  1  1  0  0  0
 40 45  1  0  0  0  0
 41 45  1  0  0  0  0
 42 41  2  0  0  0  0
 43 40  1  0  0  0  0
 44 42  1  0  0  0  0
 45 34  1  1  0  0  0
 46 44  1  1  0  0  0
 46 49  1  0  0  0  0
 47 52  1  0  0  0  0
 47 50  1  1  0  0  0
 49 52  1  0  0  0  0
 51 47  1  0  0  0  0
 53 48  1  6  0  0  0
 53 46  1  0  0  0  0
 53 51  1  0  0  0  0
 54 55  3  0  0  0  0
M  END
>  <MODEL>
5

>  <REMARK>
 VINA RESULT:      -5.2      1.448      3.022
  Name = 
  12 active torsions:
  status: ('A' for Active; 'I' for Inactive)
    1  A    between atoms: C_3  and  C_29
    2  A    between atoms: C_3  and  C_39
    3  A    between atoms: C_5  and  C_39
    4  A    between atoms: C_5  and  C_48
    5  A    between atoms: C_9  and  N_44
    6  A    between atoms: C_10  and  C_49
    7  A    between atoms: C_11  and  C_29
    8  A    between atoms: C_16  and  O_21
    9  A    between atoms: C_16  and  C_24
   10  A    between atoms: C_16  and  C_45
   11  A    between atoms: O_21  and  C_49
   12  A    between atoms: C_39  and  C_53
                            x       y       z     vdW  Elec       q    Type
                         _______ _______ _______ _____ _____    ______ ____

>  <TORSDO>
F 12

$$$$
