=
 OpenBabel11072415273D

 70 74  0  0  1  0  0  0  0  0999 V2000
  161.5690  209.5370  149.4720 C   0  0  1  0  0  3  0  0  0  0  0  0
  160.6010  210.0920  150.3800 O   0  0  0  0  0  0  0  0  0  0  0  0
  161.3630  210.6630  151.4410 C   0  0  2  0  0  3  0  0  0  0  0  0
  159.8210  210.0860  153.1750 O   0  0  0  0  0  1  0  0  0  0  0  0
  161.1940  209.9860  152.7430 C   0  0  2  0  0  3  0  0  0  0  0  0
  162.1670  210.2030  153.8950 C   0  0  0  0  0  2  0  0  0  0  0  0
  161.9300  209.1560  155.0140 C   0  0  1  0  0  3  0  0  0  0  0  0
  159.5080  208.5730  157.0150 C   0  0  0  0  0  2  0  0  0  0  0  0
  161.7280  209.7540  156.4040 C   0  0  0  0  0  2  0  0  0  0  0  0
  160.4490  207.4030  157.1300 C   0  0  0  0  0  2  0  0  0  0  0  0
  161.0230  206.9670  155.7790 C   0  0  0  0  0  2  0  0  0  0  0  0
  160.9960  208.0050  154.6620 C   0  0  0  0  0  2  0  0  0  0  0  0
  160.2990  209.8620  156.8660 C   0  0  1  0  0  3  0  0  0  0  0  0
  159.5820  210.8420  156.1370 O   0  0  0  0  0  0  0  0  0  0  0  0
  160.6680  212.7030  157.0670 O   0  0  0  0  0  1  0  0  0  0  0  0
  159.5120  211.9080  157.0930 C   0  0  1  0  0  3  0  0  0  0  0  0
  158.2270  212.7220  156.7850 C   0  0  1  0  0  3  0  0  0  0  0  0
  158.5980  213.9820  155.9900 C   0  0  0  0  0  3  0  0  0  0  0  0
  159.7710  213.6940  155.3100 F   0  0  0  0  0  0  0  0  0  0  0  0
  157.6250  214.4460  155.0950 F   0  0  0  0  0  0  0  0  0  0  0  0
  157.3030  211.9740  156.1000 O   0  0  0  0  0  0  0  0  0  0  0  0
  156.1790  211.7260  156.9580 C   0  0  0  0  0  2  0  0  0  0  0  0
  155.7630  214.0210  156.4570 O   0  0  0  0  0  1  0  0  0  0  0  0
  155.1380  212.8480  156.8860 C   0  0  0  0  0  2  0  0  0  0  0  0
  161.1330  212.1660  151.4570 C   0  0  0  0  0  2  0  0  0  0  0  0
  158.6950  212.4330  152.2440 C   0  0  0  0  0  1  0  0  0  0  0  0
  159.6770  212.4870  151.1090 C   0  0  1  0  0  3  0  0  0  0  0  0
  158.4600  213.3640  149.4900 O   0  0  0  0  0  1  0  0  0  0  0  0
  159.5390  213.5570  150.2060 O   0  0  0  0  0  0  0  0  0  0  0  0
  161.5320  208.1110  149.4170 O   0  0  0  0  0  0  0  0  0  0  0  0
  161.6030  207.5000  148.2180 C   0  0  0  0  0  0  0  0  0  0  0  0
  160.6780  207.4390  147.3670 O   0  0  0  0  0  0  0  0  0  0  0  0
  162.8780  206.9770  147.8340 C   0  0  0  0  0  2  0  0  0  0  0  0
  162.5000  205.5700  146.8010 P   0  0  1  0  0  4  0  0  0  0  0  0
  163.4620  205.0860  145.7440 O   0  0  0  0  0  0  0  0  0  0  0  0
  161.3030  204.4790  147.5430 C   0  0  1  0  0  3  0  0  0  0  0  0
  160.5210  203.6640  146.5000 C   0  0  1  0  0  3  0  0  0  0  0  0
  161.2590  200.3480  148.1890 C   0  0  0  0  0  2  0  0  0  0  0  0
  160.9600  200.8140  146.8410 C   0  0  1  0  0  0  0  0  0  0  0  0
  162.1470  201.2030  147.6200 O   0  0  0  0  0  0  0  0  0  0  0  0
  160.9910  201.5670  145.6070 C   0  0  1  0  0  3  0  0  0  0  0  0
  160.2090  200.8660  144.7770 F   0  0  0  0  0  0  0  0  0  0  0  0
  160.1780  202.1840  146.7640 C   0  0  2  0  0  0  0  0  0  0  0  0
  158.6690  201.8510  146.7510 C   0  0  0  0  0  1  0  0  0  0  0  0
  159.3720  203.6060  144.3560 O   0  0  0  0  0  1  0  0  0  0  0  0
  159.9010  204.4610  145.2960 C   0  0  2  0  0  3  0  0  0  0  0  0
  161.7210  205.0330  143.7270 O   0  0  0  0  0  0  0  0  0  0  0  0
  160.7880  205.4290  144.6890 C   0  0  0  0  0  0  0  0  0  0  0  0
  160.7450  206.7120  144.9670 O   0  0  0  0  0  1  0  0  0  0  0  0
  161.7850  203.8070  148.7970 O   0  0  0  0  0  0  0  0  0  0  0  0
  160.9730  202.7820  150.9040 C   0  0  0  0  0  3  0  0  0  0  0  0
  160.7040  202.9510  152.2810 C   0  0  0  0  0  3  0  0  0  0  0  0
  161.2370  205.3030  152.1030 C   0  0  0  0  0  3  0  0  0  0  0  0
  160.8460  204.2070  152.9010 C   0  0  0  0  0  3  0  0  0  0  0  0
  161.4170  203.8900  150.0930 C   0  0  0  0  0  0  0  0  0  0  0  0
  161.4790  205.1320  150.7390 C   0  0  0  0  0  3  0  0  0  0  0  0
  161.3170  210.1720  148.1070 C   0  0  0  0  0  2  0  0  0  0  0  0
  162.7740  211.8460  149.1890 F   0  0  0  0  0  0  0  0  0  0  0  0
  161.9130  211.5820  148.1420 C   0  0  2  0  0  3  0  0  0  0  0  0
  161.0560  212.7180  147.6740 C   0  0  0  0  0  2  0  0  0  0  0  0
  162.2200  212.7850  144.0890 C   0  0  0  0  0  3  0  0  0  0  0  0
  161.0350  212.4240  143.4070 C   0  0  0  0  0  0  0  0  0  0  0  0
  159.9030  212.4300  145.5040 N   0  0  0  0  0  0  0  0  0  0  0  0
  159.8760  212.2640  144.1810 C   0  0  0  0  0  3  0  0  0  0  0  0
  162.2270  212.9430  145.4860 C   0  0  0  0  0  3  0  0  0  0  0  0
  161.0390  212.7300  146.2000 C   0  0  0  0  0  0  0  0  0  0  0  0
  160.9690  212.1670  142.0660 O   0  0  0  0  0  0  0  0  0  0  0  0
  161.0990  212.6060  139.8290 O   0  0  0  0  0  1  0  0  0  0  0  0
  161.4540  214.4060  141.3450 C   0  0  0  0  0  1  0  0  0  0  0  0
  161.6390  212.9210  141.0630 C   0  0  1  0  0  3  0  0  0  0  0  0
  1 57  1  6  0  0  0
  1  2  1  0  0  0  0
  2  3  1  0  0  0  0
  3 25  1  1  0  0  0
  3  5  1  0  0  0  0
  5  4  1  1  0  0  0
  5  6  1  0  0  0  0
  7  6  1  6  0  0  0
  7  9  1  0  0  0  0
  8 10  1  0  0  0  0
  9 13  1  0  0  0  0
 11 10  1  0  0  0  0
 12  7  1  0  0  0  0
 12 11  1  0  0  0  0
 13 14  1  6  0  0  0
 13  8  1  0  0  0  0
 14 16  1  0  0  0  0
 16 15  1  6  0  0  0
 17 18  1  6  0  0  0
 17 16  1  0  0  0  0
 19 18  1  0  0  0  0
 20 18  1  0  0  0  0
 21 17  1  0  0  0  0
 21 22  1  0  0  0  0
 23 24  1  0  0  0  0
 24 22  1  0  0  0  0
 27 25  1  0  0  0  0
 27 26  1  1  0  0  0
 28 29  1  0  0  0  0
 29 27  1  0  0  0  0
 30  1  1  0  0  0  0
 31 30  1  0  0  0  0
 32 31  2  0  0  0  0
 33 31  1  0  0  0  0
 34 35  2  1  0  0  0
 34 36  1  0  0  0  0
 34 33  1  0  0  0  0
 36 50  1  1  0  0  0
 37 46  1  1  0  0  0
 37 43  1  0  0  0  0
 37 36  1  0  0  0  0
 39 40  1  0  0  0  0
 39 38  1  1  0  0  0
 40 38  1  0  0  0  0
 41 42  1  6  0  0  0
 41 43  1  0  0  0  0
 41 39  1  0  0  0  0
 43 44  1  6  0  0  0
 43 39  1  0  0  0  0
 46 45  1  6  0  0  0
 47 48  2  0  0  0  0
 48 49  1  0  0  0  0
 48 46  1  0  0  0  0
 50 55  1  0  0  0  0
 51 52  1  0  0  0  0
 52 54  2  0  0  0  0
 53 54  1  0  0  0  0
 55 56  1  0  0  0  0
 55 51  2  0  0  0  0
 56 53  2  0  0  0  0
 57 59  1  0  0  0  0
 59 58  1  1  0  0  0
 60 59  1  0  0  0  0
 61 65  1  0  0  0  0
 62 61  2  0  0  0  0
 62 64  1  0  0  0  0
 63 66  1  0  0  0  0
 64 63  2  0  0  0  0
 65 66  2  0  0  0  0
 66 60  1  0  0  0  0
 67 62  1  0  0  0  0
 68 70  1  0  0  0  0
 70 69  1  1  0  0  0
 70 67  1  0  0  0  0
M  END
>  <MODEL>
1

>  <REMARK>
 VINA RESULT:      -2.0      0.000      0.000
  Name = 
  32 active torsions:
  status: ('A' for Active; 'I' for Inactive)
    1  A    between atoms: O_1  and  C_20
    2  A    between atoms: O_1  and  C_22
    3  A    between atoms: C_5  and  C_65
    4  A    between atoms: C_6  and  C_20
    5  A    between atoms: C_7  and  O_11
    6  A    between atoms: C_7  and  C_66
    7  A    between atoms: C_9  and  C_31
    8  A    between atoms: C_9  and  C_59
    9  A    between atoms: O_10  and  C_50
   10  A    between atoms: O_10  and  C_64
   11  A    between atoms: O_11  and  C_59
   12  A    between atoms: C_16  and  O_41
   13  A    between atoms: O_17  and  C_61
   14  A    between atoms: O_17  and  C_70
   15  A    between atoms: C_18  and  C_48
   16  A    between atoms: C_20  and  C_70
   17  A    between atoms: O_21  and  C_42
   18  A    between atoms: C_22  and  C_46
   19  A    between atoms: C_27  and  C_31
   20  A    between atoms: C_27  and  C_57
   21  A    between atoms: O_32  and  C_59
   22  A    between atoms: O_32  and  C_60
   23  A    between atoms: C_33  and  C_42
   24  A    between atoms: C_33  and  C_60
   25  A    between atoms: P_38  and  C_50
   26  A    between atoms: P_38  and  C_66
   27  A    between atoms: O_41  and  C_62
   28  A    between atoms: C_48  and  C_54
   29  A    between atoms: C_50  and  C_54
   30  A    between atoms: C_52  and  C_54
   31  A    between atoms: C_60  and  C_63
   32  A    between atoms: C_63  and  C_65
                            x       y       z     vdW  Elec       q    Type
                         _______ _______ _______ _____ _____    ______ ____

>  <TORSDO>
F 32

$$$$
=
 OpenBabel11072415273D

 70 74  0  0  1  0  0  0  0  0999 V2000
  161.8700  208.8230  148.4880 C   0  0  1  0  0  3  0  0  0  0  0  0
  162.6650  208.1830  147.4730 O   0  0  0  0  0  0  0  0  0  0  0  0
  161.9730  206.9770  147.1580 C   0  0  2  0  0  3  0  0  0  0  0  0
  163.5510  205.3620  147.9450 O   0  0  0  0  0  1  0  0  0  0  0  0
  162.2120  205.8730  148.1110 C   0  0  2  0  0  3  0  0  0  0  0  0
  161.2000  204.7530  148.3140 C   0  0  0  0  0  2  0  0  0  0  0  0
  161.1030  204.3710  149.8140 C   0  0  1  0  0  3  0  0  0  0  0  0
  160.2790  201.7000  151.3620 C   0  0  0  0  0  2  0  0  0  0  0  0
  159.7020  203.9750  150.2740 C   0  0  0  0  0  2  0  0  0  0  0  0
  160.8780  202.6230  152.3900 C   0  0  0  0  0  2  0  0  0  0  0  0
  162.1020  203.3800  151.8680 C   0  0  0  0  0  2  0  0  0  0  0  0
  162.2320  203.5010  150.3530 C   0  0  0  0  0  2  0  0  0  0  0  0
  159.4420  202.4960  150.3740 C   0  0  1  0  0  3  0  0  0  0  0  0
  159.3980  201.8800  149.0990 O   0  0  0  0  0  0  0  0  0  0  0  0
  160.9120  200.3910  150.0980 O   0  0  0  0  0  1  0  0  0  0  0  0
  160.6980  201.2810  149.0340 C   0  0  1  0  0  3  0  0  0  0  0  0
  160.8180  200.5860  147.6500 C   0  0  1  0  0  3  0  0  0  0  0  0
  161.0790  201.6440  146.5690 C   0  0  0  0  0  3  0  0  0  0  0  0
  159.9380  201.7010  145.7820 F   0  0  0  0  0  0  0  0  0  0  0  0
  161.4050  202.9240  147.0350 F   0  0  0  0  0  0  0  0  0  0  0  0
  161.8070  199.6350  147.6430 O   0  0  0  0  0  0  0  0  0  0  0  0
  162.0900  199.2700  146.2840 C   0  0  0  0  0  2  0  0  0  0  0  0
  160.7580  198.7040  144.3870 O   0  0  0  0  0  1  0  0  0  0  0  0
  161.0280  198.3290  145.7050 C   0  0  0  0  0  2  0  0  0  0  0  0
  162.2210  206.6370  145.6960 C   0  0  0  0  0  2  0  0  0  0  0  0
  161.4610  204.5890  144.3320 C   0  0  0  0  0  1  0  0  0  0  0  0
  161.0710  205.7910  145.1440 C   0  0  1  0  0  3  0  0  0  0  0  0
  159.0820  206.5040  145.7840 O   0  0  0  0  0  1  0  0  0  0  0  0
  160.0120  205.6210  146.0530 O   0  0  0  0  0  0  0  0  0  0  0  0
  162.1670  208.3600  149.8060 O   0  0  0  0  0  0  0  0  0  0  0  0
  161.1540  207.9750  150.6080 C   0  0  0  0  0  0  0  0  0  0  0  0
  160.1370  207.3260  150.2490 O   0  0  0  0  0  0  0  0  0  0  0  0
  161.3060  208.2290  152.0070 C   0  0  0  0  0  2  0  0  0  0  0  0
  161.5440  209.9950  152.1280 P   0  0  1  0  0  4  0  0  0  0  0  0
  162.2760  210.7670  151.0590 O   0  0  0  0  0  0  0  0  0  0  0  0
  160.3410  210.7750  153.1840 C   0  0  1  0  0  3  0  0  0  0  0  0
  160.5040  210.3770  154.6600 C   0  0  1  0  0  3  0  0  0  0  0  0
  156.8380  211.0730  155.3450 C   0  0  0  0  0  2  0  0  0  0  0  0
  158.1230  211.5170  155.8700 C   0  0  1  0  0  0  0  0  0  0  0  0
  157.6600  211.7330  154.4900 O   0  0  0  0  0  0  0  0  0  0  0  0
  159.4760  212.0180  155.9520 C   0  0  1  0  0  3  0  0  0  0  0  0
  159.6670  212.2310  157.2600 F   0  0  0  0  0  0  0  0  0  0  0  0
  159.3220  210.5140  155.6410 C   0  0  2  0  0  0  0  0  0  0  0  0
  159.3850  209.5840  156.8720 C   0  0  0  0  0  1  0  0  0  0  0  0
  161.5550  208.3550  155.5110 O   0  0  0  0  0  1  0  0  0  0  0  0
  161.8260  209.6220  155.0490 C   0  0  2  0  0  3  0  0  0  0  0  0
  163.7460  211.1180  155.4700 O   0  0  0  0  0  0  0  0  0  0  0  0
  162.6920  210.3420  155.9580 C   0  0  0  0  0  0  0  0  0  0  0  0
  162.5210  210.3420  157.2600 O   0  0  0  0  0  1  0  0  0  0  0  0
  160.0580  212.2090  152.8320 O   0  0  0  0  0  0  0  0  0  0  0  0
  158.0970  212.7750  151.4250 C   0  0  0  0  0  3  0  0  0  0  0  0
  157.5930  213.5170  150.3330 C   0  0  0  0  0  3  0  0  0  0  0  0
  159.8250  214.2940  149.8220 C   0  0  0  0  0  3  0  0  0  0  0  0
  158.4440  214.2950  149.5280 C   0  0  0  0  0  3  0  0  0  0  0  0
  159.5010  212.8070  151.7590 C   0  0  0  0  0  0  0  0  0  0  0  0
  160.3180  213.5410  150.8890 C   0  0  0  0  0  3  0  0  0  0  0  0
  162.0890  210.3270  148.3450 C   0  0  0  0  0  2  0  0  0  0  0  0
  160.4920  210.0690  146.4790 F   0  0  0  0  0  0  0  0  0  0  0  0
  160.9310  210.8790  147.5090 C   0  0  2  0  0  3  0  0  0  0  0  0
  160.8790  212.3560  147.2710 C   0  0  0  0  0  2  0  0  0  0  0  0
  162.1360  213.1970  143.8170 C   0  0  0  0  0  3  0  0  0  0  0  0
  161.0510  212.7700  143.0160 C   0  0  0  0  0  0  0  0  0  0  0  0
  159.8630  212.2510  145.0160 N   0  0  0  0  0  0  0  0  0  0  0  0
  159.9090  212.3040  143.6850 C   0  0  0  0  0  3  0  0  0  0  0  0
  162.0690  213.1220  145.2190 C   0  0  0  0  0  3  0  0  0  0  0  0
  160.9100  212.6080  145.8180 C   0  0  0  0  0  0  0  0  0  0  0  0
  161.0740  212.7310  141.6500 O   0  0  0  0  0  0  0  0  0  0  0  0
  160.9710  213.5770  139.5330 O   0  0  0  0  0  1  0  0  0  0  0  0
  158.9410  213.3770  140.7560 C   0  0  0  0  0  1  0  0  0  0  0  0
  160.4330  213.6770  140.8020 C   0  0  1  0  0  3  0  0  0  0  0  0
  1 57  1  1  0  0  0
  1 30  1  0  0  0  0
  2  1  1  0  0  0  0
  3 25  1  6  0  0  0
  3  2  1  0  0  0  0
  3  5  1  0  0  0  0
  5  4  1  6  0  0  0
  5  6  1  0  0  0  0
  7  6  1  6  0  0  0
  7  9  1  0  0  0  0
  7 12  1  0  0  0  0
  8 10  1  0  0  0  0
  9 13  1  0  0  0  0
 11 10  1  0  0  0  0
 12 11  1  0  0  0  0
 13 14  1  6  0  0  0
 13  8  1  0  0  0  0
 16 14  1  0  0  0  0
 16 15  1  1  0  0  0
 17 18  1  6  0  0  0
 17 16  1  0  0  0  0
 18 20  1  0  0  0  0
 19 18  1  0  0  0  0
 21 17  1  0  0  0  0
 22 21  1  0  0  0  0
 23 24  1  0  0  0  0
 24 22  1  0  0  0  0
 27 26  1  1  0  0  0
 27 25  1  0  0  0  0
 27 29  1  0  0  0  0
 28 29  1  0  0  0  0
 30 31  1  0  0  0  0
 31 33  1  0  0  0  0
 32 31  2  0  0  0  0
 33 34  1  0  0  0  0
 34 35  2  6  0  0  0
 34 36  1  0  0  0  0
 36 50  1  1  0  0  0
 37 36  1  6  0  0  0
 37 46  1  0  0  0  0
 37 43  1  0  0  0  0
 39 38  1  1  0  0  0
 39 41  1  0  0  0  0
 40 38  1  0  0  0  0
 40 39  1  0  0  0  0
 41 42  1  1  0  0  0
 43 39  1  0  0  0  0
 43 41  1  0  0  0  0
 43 44  1  1  0  0  0
 46 45  1  1  0  0  0
 46 48  1  0  0  0  0
 47 48  2  0  0  0  0
 48 49  1  0  0  0  0
 51 55  1  0  0  0  0
 52 51  2  0  0  0  0
 53 56  1  0  0  0  0
 54 53  2  0  0  0  0
 54 52  1  0  0  0  0
 55 50  1  0  0  0  0
 56 55  2  0  0  0  0
 59 58  1  6  0  0  0
 59 57  1  0  0  0  0
 60 59  1  0  0  0  0
 61 65  1  0  0  0  0
 62 64  1  0  0  0  0
 62 61  2  0  0  0  0
 63 66  1  0  0  0  0
 64 63  2  0  0  0  0
 65 66  2  0  0  0  0
 66 60  1  0  0  0  0
 67 62  1  0  0  0  0
 68 70  1  0  0  0  0
 70 69  1  6  0  0  0
 70 67  1  0  0  0  0
M  END
>  <MODEL>
2

>  <REMARK>
 VINA RESULT:      -0.3      2.019     10.022
  Name = 
  32 active torsions:
  status: ('A' for Active; 'I' for Inactive)
    1  A    between atoms: O_1  and  C_20
    2  A    between atoms: O_1  and  C_22
    3  A    between atoms: C_5  and  C_65
    4  A    between atoms: C_6  and  C_20
    5  A    between atoms: C_7  and  O_11
    6  A    between atoms: C_7  and  C_66
    7  A    between atoms: C_9  and  C_31
    8  A    between atoms: C_9  and  C_59
    9  A    between atoms: O_10  and  C_50
   10  A    between atoms: O_10  and  C_64
   11  A    between atoms: O_11  and  C_59
   12  A    between atoms: C_16  and  O_41
   13  A    between atoms: O_17  and  C_61
   14  A    between atoms: O_17  and  C_70
   15  A    between atoms: C_18  and  C_48
   16  A    between atoms: C_20  and  C_70
   17  A    between atoms: O_21  and  C_42
   18  A    between atoms: C_22  and  C_46
   19  A    between atoms: C_27  and  C_31
   20  A    between atoms: C_27  and  C_57
   21  A    between atoms: O_32  and  C_59
   22  A    between atoms: O_32  and  C_60
   23  A    between atoms: C_33  and  C_42
   24  A    between atoms: C_33  and  C_60
   25  A    between atoms: P_38  and  C_50
   26  A    between atoms: P_38  and  C_66
   27  A    between atoms: O_41  and  C_62
   28  A    between atoms: C_48  and  C_54
   29  A    between atoms: C_50  and  C_54
   30  A    between atoms: C_52  and  C_54
   31  A    between atoms: C_60  and  C_63
   32  A    between atoms: C_63  and  C_65
                            x       y       z     vdW  Elec       q    Type
                         _______ _______ _______ _____ _____    ______ ____

>  <TORSDO>
F 32

$$$$
=
 OpenBabel11072415273D

 70 75  0  0  1  0  0  0  0  0999 V2000
  161.1720  207.0880  153.2020 C   0  0  1  0  0  3  0  0  0  0  0  0
  162.0040  208.2350  153.4560 O   0  0  0  0  0  0  0  0  0  0  0  0
  161.6730  209.1730  152.4350 C   0  0  2  0  0  3  0  0  0  0  0  0
  159.6510  210.1470  153.2620 O   0  0  0  0  0  1  0  0  0  0  0  0
  161.0310  210.4090  152.9310 C   0  0  2  0  0  3  0  0  0  0  0  0
  161.1980  211.7430  152.2170 C   0  0  0  0  0  2  0  0  0  0  0  0
  159.8490  212.5050  152.1600 C   0  0  1  0  0  3  0  0  0  0  0  0
  158.3650  214.1990  149.8930 C   0  0  2  0  0  3  0  0  0  0  0  0
  159.9820  214.0040  151.9040 C   0  0  0  0  0  2  0  0  0  0  0  0
  157.3620  213.9890  150.9960 C   0  0  0  0  0  2  0  0  0  0  0  0
  157.4250  212.5820  151.5970 C   0  0  0  0  0  2  0  0  0  0  0  0
  158.7270  211.8140  151.3950 C   0  0  0  0  0  2  0  0  0  0  0  0
  159.7420  214.4480  150.4850 C   0  0  1  0  0  3  0  0  0  0  0  0
  160.7770  214.0200  149.6180 O   0  0  0  0  0  0  0  0  0  0  0  0
  158.9120  214.4250  148.2520 O   0  0  0  0  0  0  0  0  0  0  0  0
  160.0250  213.6000  148.4720 C   0  0  1  0  0  3  0  0  0  0  0  0
  160.9980  213.5850  147.2610 C   0  0  1  0  0  3  0  0  0  0  0  0
  162.3350  212.9620  147.6860 C   0  0  0  0  0  3  0  0  0  0  0  0
  163.2760  213.9800  147.6610 F   0  0  0  0  0  0  0  0  0  0  0  0
  162.3420  212.3320  148.9370 F   0  0  0  0  0  0  0  0  0  0  0  0
  160.4680  212.9070  146.1920 O   0  0  0  0  0  0  0  0  0  0  0  0
  159.7110  213.8250  145.3900 C   0  0  0  0  0  2  0  0  0  0  0  0
  158.6480  213.5610  143.2700 O   0  0  0  0  0  1  0  0  0  0  0  0
  158.6050  213.1220  144.5950 C   0  0  0  0  0  2  0  0  0  0  0  0
  160.9190  208.4500  151.3290 C   0  0  0  0  0  2  0  0  0  0  0  0
  161.8140  210.2600  149.7300 C   0  0  0  0  0  1  0  0  0  0  0  0
  161.5060  208.8080  149.9620 C   0  0  1  0  0  3  0  0  0  0  0  0
  163.0500  208.3790  148.4430 O   0  0  0  0  0  1  0  0  0  0  0  0
  162.4570  207.8800  149.4990 O   0  0  0  0  0  0  0  0  0  0  0  0
  161.9040  205.9610  152.7190 O   0  0  0  0  0  0  0  0  0  0  0  0
  161.7610  205.5910  151.4320 C   0  0  0  0  0  0  0  0  0  0  0  0
  162.6800  205.5410  150.5740 O   0  0  0  0  0  0  0  0  0  0  0  0
  160.4740  205.1020  151.0400 C   0  0  0  0  0  2  0  0  0  0  0  0
  160.5330  205.0470  149.2560 P   0  0  1  0  0  4  0  0  0  0  0  0
  160.3000  206.2820  148.4200 O   0  0  0  0  0  0  0  0  0  0  0  0
  161.4890  203.6740  148.6460 C   0  0  1  0  0  3  0  0  0  0  0  0
  160.7170  202.3450  148.7000 C   0  0  1  0  0  3  0  0  0  0  0  0
  160.6750  202.4410  152.4920 C   0  0  0  0  0  2  0  0  0  0  0  0
  161.0110  201.4750  151.4540 C   0  0  1  0  0  0  0  0  0  0  0  0
  161.7080  202.7530  151.6680 O   0  0  0  0  0  0  0  0  0  0  0  0
  161.5830  200.8660  150.2740 C   0  0  1  0  0  3  0  0  0  0  0  0
  161.2760  199.5690  150.3950 F   0  0  0  0  0  0  0  0  0  0  0  0
  160.3210  201.7280  150.0560 C   0  0  2  0  0  0  0  0  0  0  0  0
  158.9900  200.9440  150.0520 C   0  0  0  0  0  1  0  0  0  0  0  0
  158.8140  201.5270  147.4230 O   0  0  0  0  0  1  0  0  0  0  0  0
  160.1620  201.7920  147.3380 C   0  0  2  0  0  3  0  0  0  0  0  0
  160.2990  199.8270  145.8470 O   0  0  0  0  0  0  0  0  0  0  0  0
  160.8890  200.6630  146.8000 C   0  0  0  0  0  0  0  0  0  0  0  0
  162.1280  200.3840  147.1340 O   0  0  0  0  0  1  0  0  0  0  0  0
  162.3190  203.9970  147.4350 O   0  0  0  0  0  0  0  0  0  0  0  0
  162.5790  205.7850  145.7370 C   0  0  0  0  0  3  0  0  0  0  0  0
  162.2950  206.2270  144.4240 C   0  0  0  0  0  3  0  0  0  0  0  0
  160.8890  204.2920  144.0690 C   0  0  0  0  0  3  0  0  0  0  0  0
  161.4610  205.4820  143.5700 C   0  0  0  0  0  3  0  0  0  0  0  0
  162.0330  204.5450  146.2360 C   0  0  0  0  0  0  0  0  0  0  0  0
  161.1550  203.8740  145.3740 C   0  0  0  0  0  3  0  0  0  0  0  0
  160.4300  206.7780  154.5000 C   0  0  0  0  0  2  0  0  0  0  0  0
  162.4310  207.3060  155.8470 F   0  0  0  0  0  0  0  0  0  0  0  0
  161.0990  207.5890  155.6130 C   0  0  2  0  0  3  0  0  0  0  0  0
  160.2730  207.9610  156.8050 C   0  0  0  0  0  2  0  0  0  0  0  0
  158.5220  211.2860  157.0960 C   0  0  0  0  0  3  0  0  0  0  0  0
  159.6160  212.1810  157.0480 C   0  0  0  0  0  0  0  0  0  0  0  0
  161.0470  210.3090  156.6870 N   0  0  0  0  0  0  0  0  0  0  0  0
  160.8860  211.6250  156.8270 C   0  0  0  0  0  3  0  0  0  0  0  0
  158.7170  209.9010  156.9570 C   0  0  0  0  0  3  0  0  0  0  0  0
  160.0190  209.4130  156.7780 C   0  0  0  0  0  0  0  0  0  0  0  0
  159.5180  213.5270  157.2610 O   0  0  0  0  0  0  0  0  0  0  0  0
  159.3350  214.1490  155.0710 O   0  0  0  0  0  1  0  0  0  0  0  0
  157.4050  214.3310  156.4510 C   0  0  0  0  0  1  0  0  0  0  0  0
  158.9200  214.4480  156.3560 C   0  0  1  0  0  3  0  0  0  0  0  0
  1  2  1  0  0  0  0
  1 57  1  1  0  0  0
  3 25  1  6  0  0  0
  3  5  1  0  0  0  0
  3  2  1  0  0  0  0
  5  4  1  6  0  0  0
  6  5  1  0  0  0  0
  7  6  1  6  0  0  0
  8 13  1  0  0  0  0
  8 10  1  1  0  0  0
  9  7  1  0  0  0  0
 10 11  1  0  0  0  0
 12 11  1  0  0  0  0
 12  7  1  0  0  0  0
 13  9  1  1  0  0  0
 14 13  1  0  0  0  0
 15 16  1  0  0  0  0
 15  8  1  0  0  0  0
 16 17  1  6  0  0  0
 16 14  1  0  0  0  0
 17 21  1  6  0  0  0
 17 18  1  0  0  0  0
 18 20  1  0  0  0  0
 19 18  1  0  0  0  0
 22 21  1  0  0  0  0
 23 24  1  0  0  0  0
 24 22  1  0  0  0  0
 27 26  1  1  0  0  0
 27 25  1  0  0  0  0
 28 29  1  0  0  0  0
 29 27  1  0  0  0  0
 30  1  1  0  0  0  0
 31 30  1  0  0  0  0
 32 31  2  0  0  0  0
 33 31  1  0  0  0  0
 34 35  2  1  0  0  0
 34 33  1  0  0  0  0
 36 50  1  6  0  0  0
 36 37  1  0  0  0  0
 36 34  1  0  0  0  0
 37 46  1  6  0  0  0
 37 43  1  0  0  0  0
 39 40  1  0  0  0  0
 39 38  1  1  0  0  0
 40 38  1  0  0  0  0
 41 42  1  1  0  0  0
 41 39  1  0  0  0  0
 43 44  1  6  0  0  0
 43 41  1  0  0  0  0
 43 39  1  0  0  0  0
 46 45  1  1  0  0  0
 47 48  2  0  0  0  0
 48 49  1  0  0  0  0
 48 46  1  0  0  0  0
 51 55  1  0  0  0  0
 52 51  2  0  0  0  0
 53 56  1  0  0  0  0
 54 53  2  0  0  0  0
 54 52  1  0  0  0  0
 55 50  1  0  0  0  0
 56 55  2  0  0  0  0
 57 59  1  0  0  0  0
 59 58  1  1  0  0  0
 59 60  1  0  0  0  0
 62 61  1  0  0  0  0
 62 67  1  0  0  0  0
 63 66  2  0  0  0  0
 63 64  1  0  0  0  0
 64 62  2  0  0  0  0
 65 61  2  0  0  0  0
 66 60  1  0  0  0  0
 66 65  1  0  0  0  0
 68 70  1  0  0  0  0
 70 69  1  6  0  0  0
 70 67  1  0  0  0  0
M  END
>  <MODEL>
3

>  <REMARK>
 VINA RESULT:      -0.2      2.828      8.121
  Name = 
  32 active torsions:
  status: ('A' for Active; 'I' for Inactive)
    1  A    between atoms: O_1  and  C_20
    2  A    between atoms: O_1  and  C_22
    3  A    between atoms: C_5  and  C_65
    4  A    between atoms: C_6  and  C_20
    5  A    between atoms: C_7  and  O_11
    6  A    between atoms: C_7  and  C_66
    7  A    between atoms: C_9  and  C_31
    8  A    between atoms: C_9  and  C_59
    9  A    between atoms: O_10  and  C_50
   10  A    between atoms: O_10  and  C_64
   11  A    between atoms: O_11  and  C_59
   12  A    between atoms: C_16  and  O_41
   13  A    between atoms: O_17  and  C_61
   14  A    between atoms: O_17  and  C_70
   15  A    between atoms: C_18  and  C_48
   16  A    between atoms: C_20  and  C_70
   17  A    between atoms: O_21  and  C_42
   18  A    between atoms: C_22  and  C_46
   19  A    between atoms: C_27  and  C_31
   20  A    between atoms: C_27  and  C_57
   21  A    between atoms: O_32  and  C_59
   22  A    between atoms: O_32  and  C_60
   23  A    between atoms: C_33  and  C_42
   24  A    between atoms: C_33  and  C_60
   25  A    between atoms: P_38  and  C_50
   26  A    between atoms: P_38  and  C_66
   27  A    between atoms: O_41  and  C_62
   28  A    between atoms: C_48  and  C_54
   29  A    between atoms: C_50  and  C_54
   30  A    between atoms: C_52  and  C_54
   31  A    between atoms: C_60  and  C_63
   32  A    between atoms: C_63  and  C_65
                            x       y       z     vdW  Elec       q    Type
                         _______ _______ _______ _____ _____    ______ ____

>  <TORSDO>
F 32

$$$$
=
 OpenBabel11072415273D

 70 74  0  0  1  0  0  0  0  0999 V2000
  161.2070  206.9210  153.2010 C   0  0  1  0  0  3  0  0  0  0  0  0
  162.0230  208.0790  153.4540 O   0  0  0  0  0  0  0  0  0  0  0  0
  161.6890  209.0060  152.4230 C   0  0  2  0  0  3  0  0  0  0  0  0
  159.4240  209.6880  152.7790 O   0  0  0  0  0  1  0  0  0  0  0  0
  160.8030  210.1060  152.8590 C   0  0  2  0  0  3  0  0  0  0  0  0
  160.9910  211.5340  152.3640 C   0  0  0  0  0  2  0  0  0  0  0  0
  159.6860  212.3510  152.5470 C   0  0  1  0  0  3  0  0  0  0  0  0
  158.0190  214.3020  150.6430 C   0  0  0  0  0  2  0  0  0  0  0  0
  159.8620  213.8610  152.4040 C   0  0  0  0  0  2  0  0  0  0  0  0
  157.1520  214.0330  151.8440 C   0  0  0  0  0  2  0  0  0  0  0  0
  157.2170  212.5760  152.3100 C   0  0  0  0  0  2  0  0  0  0  0  0
  158.4430  211.7780  151.8770 C   0  0  0  0  0  2  0  0  0  0  0  0
  159.4710  214.4410  151.0710 C   0  0  1  0  0  3  0  0  0  0  0  0
  160.3650  214.0520  150.0440 O   0  0  0  0  0  0  0  0  0  0  0  0
  158.4610  214.4340  148.7260 O   0  0  0  0  0  1  0  0  0  0  0  0
  159.4590  213.5110  149.0740 C   0  0  1  0  0  3  0  0  0  0  0  0
  160.3050  213.0650  147.8500 C   0  0  1  0  0  3  0  0  0  0  0  0
  161.6310  212.4650  148.3360 C   0  0  0  0  0  3  0  0  0  0  0  0
  162.5100  213.5230  148.5080 F   0  0  0  0  0  0  0  0  0  0  0  0
  161.5610  211.7030  149.5090 F   0  0  0  0  0  0  0  0  0  0  0  0
  159.6270  212.1670  147.0640 O   0  0  0  0  0  0  0  0  0  0  0  0
  159.4560  212.7310  145.7560 C   0  0  0  0  0  2  0  0  0  0  0  0
  157.6950  214.3320  145.5910 O   0  0  0  0  0  1  0  0  0  0  0  0
  157.9810  212.9760  145.4200 C   0  0  0  0  0  2  0  0  0  0  0  0
  161.2110  208.2340  151.2030 C   0  0  0  0  0  2  0  0  0  0  0  0
  163.1110  207.6770  149.5560 C   0  0  0  0  0  1  0  0  0  0  0  0
  162.0250  208.6290  149.9690 C   0  0  1  0  0  3  0  0  0  0  0  0
  161.6260  208.6600  147.7980 O   0  0  0  0  0  1  0  0  0  0  0  0
  161.2460  209.1830  148.9370 O   0  0  0  0  0  0  0  0  0  0  0  0
  161.9570  205.8000  152.7320 O   0  0  0  0  0  0  0  0  0  0  0  0
  161.8100  205.4020  151.4540 C   0  0  0  0  0  0  0  0  0  0  0  0
  162.6880  205.4740  150.5550 O   0  0  0  0  0  0  0  0  0  0  0  0
  160.5880  204.7370  151.1200 C   0  0  0  0  0  2  0  0  0  0  0  0
  160.6470  204.5360  149.3470 P   0  0  1  0  0  4  0  0  0  0  0  0
  160.3520  205.6830  148.4120 O   0  0  0  0  0  0  0  0  0  0  0  0
  161.6720  203.1670  148.8490 C   0  0  1  0  0  3  0  0  0  0  0  0
  161.0250  201.8050  149.1490 C   0  0  1  0  0  3  0  0  0  0  0  0
  160.7140  199.3390  146.2840 C   0  0  0  0  0  2  0  0  0  0  0  0
  160.3250  200.7180  146.5500 C   0  0  1  0  0  0  0  0  0  0  0  0
  161.7130  200.2310  146.5030 O   0  0  0  0  0  0  0  0  0  0  0  0
  160.3720  202.1100  146.9370 C   0  0  1  0  0  3  0  0  0  0  0  0
  159.2010  202.6050  146.5180 F   0  0  0  0  0  0  0  0  0  0  0  0
  160.1780  201.0890  148.0780 C   0  0  2  0  0  0  0  0  0  0  0  0
  158.7090  200.8270  148.4760 C   0  0  0  0  0  1  0  0  0  0  0  0
  160.6970  199.9700  150.7140 O   0  0  0  0  0  1  0  0  0  0  0  0
  161.4580  201.0930  150.4820 C   0  0  2  0  0  3  0  0  0  0  0  0
  162.7210  202.4040  152.1520 O   0  0  0  0  0  0  0  0  0  0  0  0
  161.4990  201.9530  151.6440 C   0  0  0  0  0  0  0  0  0  0  0  0
  160.4190  202.3840  152.2540 O   0  0  0  0  0  1  0  0  0  0  0  0
  162.3760  203.3770  147.5380 O   0  0  0  0  0  0  0  0  0  0  0  0
  161.1990  203.7220  145.3840 C   0  0  0  0  0  3  0  0  0  0  0  0
  160.8930  204.6080  144.3260 C   0  0  0  0  0  3  0  0  0  0  0  0
  162.3780  206.2640  145.2740 C   0  0  0  0  0  3  0  0  0  0  0  0
  161.4650  205.8920  144.2640 C   0  0  0  0  0  3  0  0  0  0  0  0
  162.0970  204.1140  146.4440 C   0  0  0  0  0  0  0  0  0  0  0  0
  162.6920  205.3760  146.3040 C   0  0  0  0  0  3  0  0  0  0  0  0
  160.4580  206.6110  154.4950 C   0  0  0  0  0  2  0  0  0  0  0  0
  162.3870  207.2840  155.8810 F   0  0  0  0  0  0  0  0  0  0  0  0
  161.0530  207.4980  155.5910 C   0  0  2  0  0  3  0  0  0  0  0  0
  160.1710  207.8860  156.7360 C   0  0  0  0  0  2  0  0  0  0  0  0
  160.3070  211.6530  156.7760 C   0  0  0  0  0  3  0  0  0  0  0  0
  159.1760  211.9790  155.9920 C   0  0  0  0  0  0  0  0  0  0  0  0
  158.6700  209.6540  155.8710 N   0  0  0  0  0  0  0  0  0  0  0  0
  158.3680  210.9150  155.5630 C   0  0  0  0  0  3  0  0  0  0  0  0
  160.6110  210.3150  157.0780 C   0  0  0  0  0  3  0  0  0  0  0  0
  159.7810  209.3000  156.5840 C   0  0  0  0  0  0  0  0  0  0  0  0
  158.8630  213.2460  155.5840 O   0  0  0  0  0  0  0  0  0  0  0  0
  157.8130  214.4240  157.2340 O   0  0  0  0  0  1  0  0  0  0  0  0
  160.1910  214.3460  157.2560 C   0  0  0  0  0  1  0  0  0  0  0  0
  158.9250  214.4010  156.4120 C   0  0  1  0  0  3  0  0  0  0  0  0
  1  2  1  0  0  0  0
  1 57  1  1  0  0  0
  3 25  1  6  0  0  0
  3  5  1  0  0  0  0
  3  2  1  0  0  0  0
  5  4  1  6  0  0  0
  6  5  1  0  0  0  0
  7  6  1  6  0  0  0
  8 13  1  0  0  0  0
  8 10  1  0  0  0  0
  9  7  1  0  0  0  0
 10 11  1  0  0  0  0
 12 11  1  0  0  0  0
 12  7  1  0  0  0  0
 13 14  1  6  0  0  0
 13  9  1  0  0  0  0
 16 15  1  6  0  0  0
 16 14  1  0  0  0  0
 17 21  1  1  0  0  0
 17 18  1  0  0  0  0
 17 16  1  0  0  0  0
 18 19  1  0  0  0  0
 18 20  1  0  0  0  0
 22 21  1  0  0  0  0
 24 23  1  0  0  0  0
 24 22  1  0  0  0  0
 27 26  1  6  0  0  0
 27 25  1  0  0  0  0
 28 29  1  0  0  0  0
 29 27  1  0  0  0  0
 30  1  1  0  0  0  0
 31 30  1  0  0  0  0
 32 31  2  0  0  0  0
 33 31  1  0  0  0  0
 34 35  2  6  0  0  0
 34 33  1  0  0  0  0
 36 50  1  6  0  0  0
 36 34  1  0  0  0  0
 37 36  1  6  0  0  0
 37 46  1  0  0  0  0
 38 40  1  0  0  0  0
 39 38  1  6  0  0  0
 39 41  1  0  0  0  0
 39 43  1  0  0  0  0
 40 39  1  0  0  0  0
 41 42  1  6  0  0  0
 41 43  1  0  0  0  0
 43 44  1  1  0  0  0
 43 37  1  0  0  0  0
 46 45  1  1  0  0  0
 46 48  1  0  0  0  0
 48 47  2  0  0  0  0
 48 49  1  0  0  0  0
 51 55  1  0  0  0  0
 52 51  2  0  0  0  0
 53 56  1  0  0  0  0
 54 52  1  0  0  0  0
 54 53  2  0  0  0  0
 55 50  1  0  0  0  0
 56 55  2  0  0  0  0
 57 59  1  0  0  0  0
 59 58  1  1  0  0  0
 59 60  1  0  0  0  0
 61 65  1  0  0  0  0
 62 61  2  0  0  0  0
 63 66  1  0  0  0  0
 64 63  2  0  0  0  0
 64 62  1  0  0  0  0
 66 60  1  0  0  0  0
 66 65  2  0  0  0  0
 67 62  1  0  0  0  0
 67 70  1  0  0  0  0
 70 68  1  0  0  0  0
 70 69  1  1  0  0  0
M  END
>  <MODEL>
4

>  <REMARK>
 VINA RESULT:       0.7      2.851      7.878
  Name = 
  32 active torsions:
  status: ('A' for Active; 'I' for Inactive)
    1  A    between atoms: O_1  and  C_20
    2  A    between atoms: O_1  and  C_22
    3  A    between atoms: C_5  and  C_65
    4  A    between atoms: C_6  and  C_20
    5  A    between atoms: C_7  and  O_11
    6  A    between atoms: C_7  and  C_66
    7  A    between atoms: C_9  and  C_31
    8  A    between atoms: C_9  and  C_59
    9  A    between atoms: O_10  and  C_50
   10  A    between atoms: O_10  and  C_64
   11  A    between atoms: O_11  and  C_59
   12  A    between atoms: C_16  and  O_41
   13  A    between atoms: O_17  and  C_61
   14  A    between atoms: O_17  and  C_70
   15  A    between atoms: C_18  and  C_48
   16  A    between atoms: C_20  and  C_70
   17  A    between atoms: O_21  and  C_42
   18  A    between atoms: C_22  and  C_46
   19  A    between atoms: C_27  and  C_31
   20  A    between atoms: C_27  and  C_57
   21  A    between atoms: O_32  and  C_59
   22  A    between atoms: O_32  and  C_60
   23  A    between atoms: C_33  and  C_42
   24  A    between atoms: C_33  and  C_60
   25  A    between atoms: P_38  and  C_50
   26  A    between atoms: P_38  and  C_66
   27  A    between atoms: O_41  and  C_62
   28  A    between atoms: C_48  and  C_54
   29  A    between atoms: C_50  and  C_54
   30  A    between atoms: C_52  and  C_54
   31  A    between atoms: C_60  and  C_63
   32  A    between atoms: C_63  and  C_65
                            x       y       z     vdW  Elec       q    Type
                         _______ _______ _______ _____ _____    ______ ____

>  <TORSDO>
F 32

$$$$
