=
 OpenBabel11072411423D

 49 52  0  0  1  0  0  0  0  0999 V2000
  161.2240  208.8780  151.5000 C   0  0  1  0  0  3  0  0  0  0  0  0
  160.6350  207.9150  157.2170 C   0  0  0  0  0  1  0  0  0  0  0  0
  161.1970  208.6290  152.9810 C   0  0  0  0  0  0  0  0  0  0  0  0
  160.8600  206.2930  152.6790 O   0  0  0  0  0  0  0  0  0  0  0  0
  160.9990  207.2520  153.4820 C   0  0  0  0  0  0  0  0  0  0  0  0
  160.5050  208.1990  155.7290 C   0  0  2  0  0  3  0  0  0  0  0  0
  161.3110  209.6450  153.8480 C   0  0  0  0  0  3  0  0  0  0  0  0
  160.9890  206.9740  154.9510 C   0  0  0  0  0  2  0  0  0  0  0  0
  161.3320  209.4320  155.3340 C   0  0  1  0  0  3  0  0  0  0  0  0
  160.8210  210.6240  155.9930 N   0  0  0  0  0  2  0  0  0  0  0  0
  159.4800  211.0800  155.8020 C   0  0  0  0  0  0  0  0  0  0  0  0
  158.6720  210.4110  155.1060 O   0  0  0  0  0  0  0  0  0  0  0  0
  157.1780  213.6080  156.6670 C   0  0  1  0  0  3  0  0  0  0  0  0
  159.2520  213.5160  155.5150 C   0  0  0  0  0  2  0  0  0  0  0  0
  157.6510  212.2820  156.7190 O   0  0  0  0  0  0  0  0  0  0  0  0
  158.1280  214.4530  155.8400 C   0  0  1  0  0  3  0  0  0  0  0  0
  156.8200  213.9700  155.2370 C   0  0  0  0  0  2  0  0  0  0  0  0
  159.0230  212.3470  156.4410 C   0  0  1  0  0  3  0  0  0  0  0  0
  161.1520  210.3640  151.1160 C   0  0  0  0  0  2  0  0  0  0  0  0
  162.1380  210.7700  150.0210 C   0  0  0  0  0  2  0  0  0  0  0  0
  161.7580  212.1170  149.4190 C   0  0  2  0  0  3  0  0  0  0  0  0
  160.5670  212.5700  149.9800 O   0  0  0  0  0  1  0  0  0  0  0  0
  161.6730  212.1160  147.8860 C   0  0  1  0  0  3  0  0  0  0  0  0
  160.3120  212.6060  147.4130 C   0  0  0  0  0  1  0  0  0  0  0  0
  162.6580  212.8080  145.8020 F   0  0  0  0  0  0  0  0  0  0  0  0
  162.8720  214.1730  147.5810 F   0  0  0  0  0  0  0  0  0  0  0  0
  164.0230  212.2490  147.5030 F   0  0  0  0  0  0  0  0  0  0  0  0
  162.8210  212.8520  147.1760 C   0  0  0  0  0  0  0  0  0  0  0  0
  162.3310  208.0920  150.7980 C   0  0  0  0  0  2  0  0  0  0  0  0
  160.5830  206.9080  149.5410 C   0  0  0  0  0  3  0  0  0  0  0  0
  162.1970  206.5670  147.1710 C   0  0  1  0  0  3  0  0  0  0  0  0
  160.0100  206.1990  148.3460 C   0  0  0  0  0  2  0  0  0  0  0  0
  160.6760  206.6590  147.0520 C   0  0  0  0  0  2  0  0  0  0  0  0
  162.7050  207.4390  148.3270 C   0  0  0  0  0  2  0  0  0  0  0  0
  161.8270  207.4240  149.5560 C   0  0  0  0  0  0  0  0  0  0  0  0
  162.6430  205.1190  147.3200 C   0  0  0  0  0  2  0  0  0  0  0  0
  162.9790  204.5270  145.9820 C   0  0  0  0  0  0  0  0  0  0  0  0
  164.1470  204.4350  145.6480 O   0  0  0  0  0  0  0  0  0  0  0  0
  161.4610  205.1140  144.2330 O   0  0  0  0  0  1  0  0  0  0  0  0
  161.9080  204.0610  145.0380 C   0  0  2  0  0  3  0  0  0  0  0  0
  160.7410  203.4760  145.8240 C   0  0  0  0  0  2  0  0  0  0  0  0
  160.7270  201.9560  145.7330 C   0  0  2  0  0  3  0  0  0  0  0  0
  159.6890  201.4970  144.7220 C   0  0  0  0  0  1  0  0  0  0  0  0
  160.4100  201.4220  146.9830 O   0  0  0  0  0  0  0  0  0  0  0  0
  161.4580  201.8150  147.8170 C   0  0  0  0  0  2  0  0  0  0  0  0
  160.9460  201.9740  149.2460 C   0  0  2  0  0  3  0  0  0  0  0  0
  159.6170  201.2630  149.4580 C   0  0  0  0  0  1  0  0  0  0  0  0
  160.9360  203.3150  149.6950 O   0  0  0  0  0  0  0  0  0  0  0  0
  160.9240  203.3300  151.1000 C   0  0  0  0  0  1  0  0  0  0  0  0
  1 29  1  1  0  0  0
  1  3  1  0  0  0  0
  3  5  1  0  0  0  0
  3  7  2  0  0  0  0
  4  5  2  0  0  0  0
  5  8  1  0  0  0  0
  6  2  1  1  0  0  0
  7  9  1  0  0  0  0
  8  6  1  0  0  0  0
  9  6  1  0  0  0  0
  9 10  1  1  0  0  0
 11 10  1  0  0  0  0
 12 11  2  0  0  0  0
 13 17  1  6  0  0  0
 13 15  1  0  0  0  0
 14 16  1  0  0  0  0
 14 18  1  0  0  0  0
 16 17  1  6  0  0  0
 16 13  1  0  0  0  0
 18 11  1  6  0  0  0
 18 15  1  0  0  0  0
 19  1  1  0  0  0  0
 20 19  1  0  0  0  0
 21 22  1  1  0  0  0
 21 20  1  0  0  0  0
 23 24  1  1  0  0  0
 23 21  1  0  0  0  0
 25 28  1  0  0  0  0
 28 27  1  0  0  0  0
 28 26  1  0  0  0  0
 28 23  1  0  0  0  0
 30 35  2  0  0  0  0
 31 36  1  1  0  0  0
 31 34  1  0  0  0  0
 32 30  1  0  0  0  0
 33 31  1  0  0  0  0
 33 32  1  0  0  0  0
 34 35  1  0  0  0  0
 35 29  1  0  0  0  0
 37 36  1  0  0  0  0
 38 37  2  0  0  0  0
 40 39  1  1  0  0  0
 40 41  1  0  0  0  0
 40 37  1  0  0  0  0
 42 43  1  6  0  0  0
 42 41  1  0  0  0  0
 42 44  1  0  0  0  0
 44 45  1  0  0  0  0
 45 46  1  0  0  0  0
 46 47  1  6  0  0  0
 46 48  1  0  0  0  0
 48 49  1  0  0  0  0
M  END
>  <MODEL>
1

>  <REMARK>
 VINA RESULT:      -7.0      0.000      0.000
  Name = 
  19 active torsions:
  status: ('A' for Active; 'I' for Inactive)
    1  A    between atoms: C_1  and  C_9
    2  A    between atoms: C_1  and  C_23
    3  A    between atoms: C_4  and  C_25
    4  A    between atoms: C_4  and  C_45
    5  A    between atoms: C_5  and  C_25
    6  A    between atoms: C_5  and  C_40
    7  A    between atoms: C_8  and  C_11
    8  A    between atoms: C_9  and  C_40
    9  A    between atoms: C_11  and  C_16
   10  A    between atoms: C_12  and  C_25
   11  A    between atoms: C_16  and  C_41
   12  A    between atoms: C_22  and  C_29
   13  A    between atoms: C_22  and  O_31
   14  A    between atoms: C_26  and  O_46
   15  A    between atoms: C_26  and  C_48
   16  A    between atoms: N_28  and  C_49
   17  A    between atoms: C_29  and  O_46
   18  A    between atoms: C_37  and  C_43
   19  A    between atoms: C_41  and  C_48
                            x       y       z     vdW  Elec       q    Type
                         _______ _______ _______ _____ _____    ______ ____

>  <TORSDO>
F 19

$$$$
=
 OpenBabel11072411423D

 49 52  0  0  1  0  0  0  0  0999 V2000
  160.9730  206.9010  151.9270 C   0  0  1  0  0  3  0  0  0  0  0  0
  160.6970  210.1140  156.7800 C   0  0  0  0  0  1  0  0  0  0  0  0
  161.0270  207.7240  153.1800 C   0  0  0  0  0  0  0  0  0  0  0  0
  160.5870  205.8340  154.5560 O   0  0  0  0  0  0  0  0  0  0  0  0
  160.8090  207.0710  154.4890 C   0  0  0  0  0  0  0  0  0  0  0  0
  160.4880  209.3220  155.5000 C   0  0  2  0  0  3  0  0  0  0  0  0
  161.2300  209.0490  153.1210 C   0  0  0  0  0  3  0  0  0  0  0  0
  160.8790  207.8640  155.7540 C   0  0  0  0  0  2  0  0  0  0  0  0
  161.3340  209.8990  154.3540 C   0  0  1  0  0  3  0  0  0  0  0  0
  160.9070  211.2530  154.0350 N   0  0  0  0  0  2  0  0  0  0  0  0
  159.6840  211.5210  153.3460 C   0  0  0  0  0  0  0  0  0  0  0  0
  158.8960  210.5820  153.0580 O   0  0  0  0  0  0  0  0  0  0  0  0
  157.6640  214.0860  152.0150 C   0  0  1  0  0  3  0  0  0  0  0  0
  159.8480  213.2520  151.6020 C   0  0  0  0  0  2  0  0  0  0  0  0
  157.9310  213.0710  152.9540 O   0  0  0  0  0  0  0  0  0  0  0  0
  158.8330  214.2120  151.0570 C   0  0  1  0  0  3  0  0  0  0  0  0
  157.5700  213.4870  150.6240 C   0  0  0  0  0  2  0  0  0  0  0  0
  159.3240  212.9190  152.9770 C   0  0  1  0  0  3  0  0  0  0  0  0
  160.8200  207.7300  150.6410 C   0  0  0  0  0  2  0  0  0  0  0  0
  162.1430  208.0280  149.9350 C   0  0  0  0  0  2  0  0  0  0  0  0
  161.9650  209.1150  148.8840 C   0  0  2  0  0  3  0  0  0  0  0  0
  163.0040  209.0580  147.9590 O   0  0  0  0  0  1  0  0  0  0  0  0
  161.8280  210.5300  149.4640 C   0  0  1  0  0  3  0  0  0  0  0  0
  162.7630  210.7280  150.6490 C   0  0  0  0  0  1  0  0  0  0  0  0
  161.6080  212.8800  148.9960 F   0  0  0  0  0  0  0  0  0  0  0  0
  163.2650  211.7470  147.9750 F   0  0  0  0  0  0  0  0  0  0  0  0
  161.1350  211.4090  147.3580 F   0  0  0  0  0  0  0  0  0  0  0  0
  161.9650  211.6660  148.4370 C   0  0  0  0  0  0  0  0  0  0  0  0
  162.0770  205.8450  151.8760 C   0  0  0  0  0  2  0  0  0  0  0  0
  161.8130  203.4030  151.9270 C   0  0  0  0  0  3  0  0  0  0  0  0
  160.4640  203.2660  149.3780 C   0  0  1  0  0  3  0  0  0  0  0  0
  161.3740  202.0700  151.3870 C   0  0  0  0  0  2  0  0  0  0  0  0
  160.1790  202.2130  150.4490 C   0  0  0  0  0  2  0  0  0  0  0  0
  160.7560  204.6290  150.0190 C   0  0  0  0  0  2  0  0  0  0  0  0
  161.5820  204.5620  151.2810 C   0  0  0  0  0  0  0  0  0  0  0  0
  161.5970  202.8180  148.4640 C   0  0  0  0  0  2  0  0  0  0  0  0
  161.2240  201.5610  147.7320 C   0  0  0  0  0  0  0  0  0  0  0  0
  161.4810  200.4820  148.2350 O   0  0  0  0  0  0  0  0  0  0  0  0
  160.5700  200.3410  145.7850 O   0  0  0  0  0  1  0  0  0  0  0  0
  160.5580  201.6030  146.3880 C   0  0  2  0  0  3  0  0  0  0  0  0
  161.2620  202.6150  145.4900 C   0  0  0  0  0  2  0  0  0  0  0  0
  160.2910  203.6790  144.9980 C   0  0  2  0  0  3  0  0  0  0  0  0
  159.1930  203.0450  144.1600 C   0  0  0  0  0  1  0  0  0  0  0  0
  160.9810  204.6060  144.2150 O   0  0  0  0  0  0  0  0  0  0  0  0
  160.7720  205.8340  144.8450 C   0  0  0  0  0  2  0  0  0  0  0  0
  161.2070  205.7440  146.3050 C   0  0  2  0  0  3  0  0  0  0  0  0
  160.2490  206.4800  147.2320 C   0  0  0  0  0  1  0  0  0  0  0  0
  162.5610  206.0960  146.5130 O   0  0  0  0  0  0  0  0  0  0  0  0
  163.3750  204.9880  146.2240 C   0  0  0  0  0  1  0  0  0  0  0  0
  1 19  1  6  0  0  0
  1  3  1  0  0  0  0
  3  5  1  0  0  0  0
  5  4  2  0  0  0  0
  5  8  1  0  0  0  0
  6  8  1  0  0  0  0
  6  2  1  1  0  0  0
  7  3  2  0  0  0  0
  7  9  1  0  0  0  0
  9 10  1  6  0  0  0
  9  6  1  0  0  0  0
 11 10  1  0  0  0  0
 12 11  2  0  0  0  0
 13 17  1  6  0  0  0
 13 15  1  0  0  0  0
 14 18  1  0  0  0  0
 15 18  1  0  0  0  0
 16 17  1  6  0  0  0
 16 14  1  0  0  0  0
 16 13  1  0  0  0  0
 18 11  1  6  0  0  0
 20 19  1  0  0  0  0
 21 22  1  6  0  0  0
 21 23  1  0  0  0  0
 21 20  1  0  0  0  0
 23 24  1  1  0  0  0
 26 28  1  0  0  0  0
 27 28  1  0  0  0  0
 28 25  1  0  0  0  0
 28 23  1  0  0  0  0
 29  1  1  0  0  0  0
 31 36  1  1  0  0  0
 31 34  1  0  0  0  0
 31 33  1  0  0  0  0
 32 30  1  0  0  0  0
 33 32  1  0  0  0  0
 34 35  1  0  0  0  0
 35 29  1  0  0  0  0
 35 30  2  0  0  0  0
 37 38  2  0  0  0  0
 37 36  1  0  0  0  0
 40 39  1  6  0  0  0
 40 37  1  0  0  0  0
 41 40  1  0  0  0  0
 42 43  1  6  0  0  0
 42 41  1  0  0  0  0
 44 45  1  0  0  0  0
 44 42  1  0  0  0  0
 45 46  1  0  0  0  0
 46 48  1  0  0  0  0
 46 47  1  1  0  0  0
 49 48  1  0  0  0  0
M  END
>  <MODEL>
2

>  <REMARK>
 VINA RESULT:      -6.7      1.957      3.571
  Name = 
  19 active torsions:
  status: ('A' for Active; 'I' for Inactive)
    1  A    between atoms: C_1  and  C_9
    2  A    between atoms: C_1  and  C_23
    3  A    between atoms: C_4  and  C_25
    4  A    between atoms: C_4  and  C_45
    5  A    between atoms: C_5  and  C_25
    6  A    between atoms: C_5  and  C_40
    7  A    between atoms: C_8  and  C_11
    8  A    between atoms: C_9  and  C_40
    9  A    between atoms: C_11  and  C_16
   10  A    between atoms: C_12  and  C_25
   11  A    between atoms: C_16  and  C_41
   12  A    between atoms: C_22  and  C_29
   13  A    between atoms: C_22  and  O_31
   14  A    between atoms: C_26  and  O_46
   15  A    between atoms: C_26  and  C_48
   16  A    between atoms: N_28  and  C_49
   17  A    between atoms: C_29  and  O_46
   18  A    between atoms: C_37  and  C_43
   19  A    between atoms: C_41  and  C_48
                            x       y       z     vdW  Elec       q    Type
                         _______ _______ _______ _____ _____    ______ ____

>  <TORSDO>
F 19

$$$$
=
 OpenBabel11072411423D

 49 52  0  0  1  0  0  0  0  0999 V2000
  159.4770  211.1740  152.6060 C   0  0  1  0  0  3  0  0  0  0  0  0
  162.1390  208.2150  156.8600 C   0  0  0  0  0  1  0  0  0  0  0  0
  160.0500  210.3900  153.7500 C   0  0  0  0  0  0  0  0  0  0  0  0
  160.5590  212.3650  154.9750 O   0  0  0  0  0  0  0  0  0  0  0  0
  160.5870  211.1070  154.9270 C   0  0  0  0  0  0  0  0  0  0  0  0
  161.7050  209.0000  155.6340 C   0  0  2  0  0  3  0  0  0  0  0  0
  160.1140  209.0510  153.6980 C   0  0  0  0  0  3  0  0  0  0  0  0
  161.1430  210.3490  156.0890 C   0  0  0  0  0  2  0  0  0  0  0  0
  160.6400  208.2290  154.8390 C   0  0  1  0  0  3  0  0  0  0  0  0
  161.1900  206.9870  154.3170 N   0  0  0  0  0  2  0  0  0  0  0  0
  161.3760  206.7690  152.9170 C   0  0  0  0  0  0  0  0  0  0  0  0
  161.1340  207.6880  152.0910 O   0  0  0  0  0  0  0  0  0  0  0  0
  161.7040  204.0880  150.6500 C   0  0  1  0  0  3  0  0  0  0  0  0
  160.9730  204.3390  152.8950 C   0  0  0  0  0  2  0  0  0  0  0  0
  161.8880  205.4330  151.0240 O   0  0  0  0  0  0  0  0  0  0  0  0
  161.0460  203.3310  151.7880 C   0  0  1  0  0  3  0  0  0  0  0  0
  160.2220  203.7700  150.5900 C   0  0  0  0  0  2  0  0  0  0  0  0
  161.8750  205.4540  152.4250 C   0  0  1  0  0  3  0  0  0  0  0  0
  158.0200  211.6170  152.8200 C   0  0  0  0  0  2  0  0  0  0  0  0
  157.8680  213.0990  153.1630 C   0  0  0  0  0  2  0  0  0  0  0  0
  157.1890  213.2760  154.5160 C   0  0  2  0  0  3  0  0  0  0  0  0
  157.8150  214.2920  155.2330 O   0  0  0  0  0  1  0  0  0  0  0  0
  157.1090  211.9890  155.3480 C   0  0  1  0  0  3  0  0  0  0  0  0
  157.6290  212.2180  156.7600 C   0  0  0  0  0  1  0  0  0  0  0  0
  155.8610  209.9310  155.3830 F   0  0  0  0  0  0  0  0  0  0  0  0
  154.9950  211.7140  156.4530 F   0  0  0  0  0  0  0  0  0  0  0  0
  155.0380  211.6670  154.2100 F   0  0  0  0  0  0  0  0  0  0  0  0
  155.7300  211.3080  155.3540 C   0  0  0  0  0  0  0  0  0  0  0  0
  160.4160  212.2830  152.1320 C   0  0  0  0  0  2  0  0  0  0  0  0
  160.7760  212.7740  149.7520 C   0  0  0  0  0  3  0  0  0  0  0  0
  162.3580  210.4080  149.2670 C   0  0  1  0  0  3  0  0  0  0  0  0
  161.3170  212.5100  148.3740 C   0  0  0  0  0  2  0  0  0  0  0  0
  162.5860  211.6640  148.4260 C   0  0  0  0  0  2  0  0  0  0  0  0
  161.9510  210.7790  150.6990 C   0  0  0  0  0  2  0  0  0  0  0  0
  161.0160  211.9610  150.7980 C   0  0  0  0  0  0  0  0  0  0  0  0
  161.3330  209.4940  148.6090 C   0  0  0  0  0  2  0  0  0  0  0  0
  161.8640  208.0940  148.4980 C   0  0  0  0  0  0  0  0  0  0  0  0
  162.9440  207.8270  148.9940 O   0  0  0  0  0  0  0  0  0  0  0  0
  160.1370  206.4470  148.6070 O   0  0  0  0  0  1  0  0  0  0  0  0
  161.1040  207.0200  147.7750 C   0  0  2  0  0  3  0  0  0  0  0  0
  162.0660  205.9460  147.2790 C   0  0  0  0  0  2  0  0  0  0  0  0
  161.9980  205.8080  145.7640 C   0  0  2  0  0  3  0  0  0  0  0  0
  160.5860  206.0810  145.2720 C   0  0  0  0  0  1  0  0  0  0  0  0
  162.3620  204.5100  145.4030 O   0  0  0  0  0  0  0  0  0  0  0  0
  161.1530  203.8390  145.2080 C   0  0  0  0  0  2  0  0  0  0  0  0
  161.1970  202.4840  145.9060 C   0  0  2  0  0  3  0  0  0  0  0  0
  160.1670  201.5160  145.3410 C   0  0  0  0  0  1  0  0  0  0  0  0
  161.1570  202.5750  147.3170 O   0  0  0  0  0  0  0  0  0  0  0  0
  160.8990  201.3020  147.8540 C   0  0  0  0  0  1  0  0  0  0  0  0
  1 29  1  1  0  0  0
  1 19  1  0  0  0  0
  1  3  1  0  0  0  0
  3  5  1  0  0  0  0
  5  4  2  0  0  0  0
  5  8  1  0  0  0  0
  6  8  1  0  0  0  0
  6  2  1  1  0  0  0
  7  3  2  0  0  0  0
  7  9  1  0  0  0  0
  9 10  1  6  0  0  0
  9  6  1  0  0  0  0
 11 10  1  0  0  0  0
 12 11  2  0  0  0  0
 13 17  1  6  0  0  0
 13 15  1  0  0  0  0
 13 16  1  0  0  0  0
 15 18  1  0  0  0  0
 16 17  1  6  0  0  0
 16 14  1  0  0  0  0
 18 14  1  0  0  0  0
 18 11  1  6  0  0  0
 19 20  1  0  0  0  0
 20 21  1  0  0  0  0
 21 22  1  1  0  0  0
 21 23  1  0  0  0  0
 23 28  1  0  0  0  0
 23 24  1  1  0  0  0
 27 28  1  0  0  0  0
 28 25  1  0  0  0  0
 28 26  1  0  0  0  0
 30 35  2  0  0  0  0
 31 36  1  6  0  0  0
 31 34  1  0  0  0  0
 32 33  1  0  0  0  0
 32 30  1  0  0  0  0
 33 31  1  0  0  0  0
 34 35  1  0  0  0  0
 35 29  1  0  0  0  0
 37 36  1  0  0  0  0
 37 38  2  0  0  0  0
 40 37  1  0  0  0  0
 40 39  1  1  0  0  0
 41 40  1  0  0  0  0
 42 43  1  1  0  0  0
 42 41  1  0  0  0  0
 44 42  1  0  0  0  0
 45 44  1  0  0  0  0
 45 46  1  0  0  0  0
 46 47  1  6  0  0  0
 46 48  1  0  0  0  0
 48 49  1  0  0  0  0
M  END
>  <MODEL>
3

>  <REMARK>
 VINA RESULT:      -6.6      3.350      6.586
  Name = 
  19 active torsions:
  status: ('A' for Active; 'I' for Inactive)
    1  A    between atoms: C_1  and  C_9
    2  A    between atoms: C_1  and  C_23
    3  A    between atoms: C_4  and  C_25
    4  A    between atoms: C_4  and  C_45
    5  A    between atoms: C_5  and  C_25
    6  A    between atoms: C_5  and  C_40
    7  A    between atoms: C_8  and  C_11
    8  A    between atoms: C_9  and  C_40
    9  A    between atoms: C_11  and  C_16
   10  A    between atoms: C_12  and  C_25
   11  A    between atoms: C_16  and  C_41
   12  A    between atoms: C_22  and  C_29
   13  A    between atoms: C_22  and  O_31
   14  A    between atoms: C_26  and  O_46
   15  A    between atoms: C_26  and  C_48
   16  A    between atoms: N_28  and  C_49
   17  A    between atoms: C_29  and  O_46
   18  A    between atoms: C_37  and  C_43
   19  A    between atoms: C_41  and  C_48
                            x       y       z     vdW  Elec       q    Type
                         _______ _______ _______ _____ _____    ______ ____

>  <TORSDO>
F 19

$$$$
=
 OpenBabel11072411423D

 49 52  0  0  1  0  0  0  0  0999 V2000
  161.6020  208.7170  151.6310 C   0  0  1  0  0  3  0  0  0  0  0  0
  160.3000  214.2220  150.2330 C   0  0  0  0  0  1  0  0  0  0  0  0
  161.1570  210.0930  151.2260 C   0  0  0  0  0  0  0  0  0  0  0  0
  162.4060  210.0050  149.2030 O   0  0  0  0  0  0  0  0  0  0  0  0
  161.6370  210.6650  149.9500 C   0  0  0  0  0  0  0  0  0  0  0  0
  160.8680  212.9010  150.7250 C   0  0  2  0  0  3  0  0  0  0  0  0
  160.3650  210.8190  152.0280 C   0  0  0  0  0  3  0  0  0  0  0  0
  161.1930  212.0240  149.5140 C   0  0  0  0  0  2  0  0  0  0  0  0
  159.8650  212.1800  151.6390 C   0  0  1  0  0  3  0  0  0  0  0  0
  159.6200  212.9590  152.8440 N   0  0  0  0  0  2  0  0  0  0  0  0
  158.3960  212.8580  153.5770 C   0  0  0  0  0  0  0  0  0  0  0  0
  157.5150  212.0260  153.2350 O   0  0  0  0  0  0  0  0  0  0  0  0
  157.4310  213.6100  156.8840 C   0  0  1  0  0  3  0  0  0  0  0  0
  156.7760  214.3230  154.7160 C   0  0  0  0  0  2  0  0  0  0  0  0
  158.2680  212.9790  155.9430 O   0  0  0  0  0  0  0  0  0  0  0  0
  156.3900  214.4420  156.1590 C   0  0  1  0  0  3  0  0  0  0  0  0
  156.0130  213.0900  156.7400 C   0  0  0  0  0  2  0  0  0  0  0  0
  158.1620  213.7290  154.7630 C   0  0  1  0  0  3  0  0  0  0  0  0
  160.7300  208.0750  152.7220 C   0  0  0  0  0  2  0  0  0  0  0  0
  161.3750  208.0720  154.1080 C   0  0  0  0  0  2  0  0  0  0  0  0
  160.5050  208.8150  155.1140 C   0  0  2  0  0  3  0  0  0  0  0  0
  159.6970  209.7370  154.4560 O   0  0  0  0  0  1  0  0  0  0  0  0
  161.2940  209.4900  156.2450 C   0  0  1  0  0  3  0  0  0  0  0  0
  162.2340  208.5030  156.9220 C   0  0  0  0  0  1  0  0  0  0  0  0
  163.0850  211.0350  156.6920 F   0  0  0  0  0  0  0  0  0  0  0  0
  162.4980  210.6850  154.5460 F   0  0  0  0  0  0  0  0  0  0  0  0
  161.1380  211.8450  155.9020 F   0  0  0  0  0  0  0  0  0  0  0  0
  162.0230  210.7820  155.8410 C   0  0  0  0  0  0  0  0  0  0  0  0
  161.8780  207.8170  150.4260 C   0  0  0  0  0  2  0  0  0  0  0  0
  162.3210  205.7250  151.6370 C   0  0  0  0  0  3  0  0  0  0  0  0
  160.2460  204.2370  150.2890 C   0  0  1  0  0  3  0  0  0  0  0  0
  162.0980  204.2790  151.9820 C   0  0  0  0  0  2  0  0  0  0  0  0
  160.6570  203.8570  151.7110 C   0  0  0  0  0  2  0  0  0  0  0  0
  160.3670  205.7520  150.0750 C   0  0  0  0  0  2  0  0  0  0  0  0
  161.5720  206.3820  150.7310 C   0  0  0  0  0  0  0  0  0  0  0  0
  161.0560  203.4580  149.2620 C   0  0  0  0  0  2  0  0  0  0  0  0
  160.4430  202.1110  149.0130 C   0  0  0  0  0  0  0  0  0  0  0  0
  159.2450  201.9630  149.1790 O   0  0  0  0  0  0  0  0  0  0  0  0
  162.6330  201.1800  148.8010 O   0  0  0  0  0  1  0  0  0  0  0  0
  161.2730  200.9370  148.5810 C   0  0  2  0  0  3  0  0  0  0  0  0
  161.0290  200.6420  147.1050 C   0  0  0  0  0  2  0  0  0  0  0  0
  160.5630  201.8900  146.3680 C   0  0  2  0  0  3  0  0  0  0  0  0
  159.8680  201.5080  145.0710 C   0  0  0  0  0  1  0  0  0  0  0  0
  161.6660  202.6910  146.0730 O   0  0  0  0  0  0  0  0  0  0  0  0
  161.1650  203.7070  145.2570 C   0  0  0  0  0  2  0  0  0  0  0  0
  162.0670  204.9340  145.3500 C   0  0  2  0  0  3  0  0  0  0  0  0
  163.3570  204.6380  146.1050 C   0  0  0  0  0  1  0  0  0  0  0  0
  161.4020  206.0890  145.8210 O   0  0  0  0  0  0  0  0  0  0  0  0
  162.0260  206.5330  147.0000 C   0  0  0  0  0  1  0  0  0  0  0  0
  1 29  1  6  0  0  0
  1 19  1  0  0  0  0
  3  1  1  0  0  0  0
  3  7  2  0  0  0  0
  4  5  2  0  0  0  0
  5  3  1  0  0  0  0
  6  2  1  6  0  0  0
  6  9  1  0  0  0  0
  8  5  1  0  0  0  0
  8  6  1  0  0  0  0
  9  7  1  0  0  0  0
  9 10  1  1  0  0  0
 10 11  1  0  0  0  0
 12 11  2  0  0  0  0
 13 17  1  6  0  0  0
 14 18  1  0  0  0  0
 15 13  1  0  0  0  0
 16 14  1  6  0  0  0
 16 17  1  0  0  0  0
 16 13  1  0  0  0  0
 18 11  1  6  0  0  0
 18 15  1  0  0  0  0
 19 20  1  0  0  0  0
 20 21  1  0  0  0  0
 21 22  1  6  0  0  0
 21 23  1  0  0  0  0
 23 24  1  6  0  0  0
 26 28  1  0  0  0  0
 28 27  1  0  0  0  0
 28 23  1  0  0  0  0
 28 25  1  0  0  0  0
 29 35  1  0  0  0  0
 30 32  1  0  0  0  0
 31 36  1  6  0  0  0
 31 33  1  0  0  0  0
 33 32  1  0  0  0  0
 34 31  1  0  0  0  0
 34 35  1  0  0  0  0
 35 30  2  0  0  0  0
 37 38  2  0  0  0  0
 37 36  1  0  0  0  0
 40 39  1  6  0  0  0
 40 37  1  0  0  0  0
 41 40  1  0  0  0  0
 42 43  1  6  0  0  0
 42 41  1  0  0  0  0
 44 42  1  0  0  0  0
 45 46  1  0  0  0  0
 45 44  1  0  0  0  0
 46 48  1  0  0  0  0
 46 47  1  1  0  0  0
 48 49  1  0  0  0  0
M  END
>  <MODEL>
4

>  <REMARK>
 VINA RESULT:      -5.6      2.633      5.216
  Name = 
  19 active torsions:
  status: ('A' for Active; 'I' for Inactive)
    1  A    between atoms: C_1  and  C_9
    2  A    between atoms: C_1  and  C_23
    3  A    between atoms: C_4  and  C_25
    4  A    between atoms: C_4  and  C_45
    5  A    between atoms: C_5  and  C_25
    6  A    between atoms: C_5  and  C_40
    7  A    between atoms: C_8  and  C_11
    8  A    between atoms: C_9  and  C_40
    9  A    between atoms: C_11  and  C_16
   10  A    between atoms: C_12  and  C_25
   11  A    between atoms: C_16  and  C_41
   12  A    between atoms: C_22  and  C_29
   13  A    between atoms: C_22  and  O_31
   14  A    between atoms: C_26  and  O_46
   15  A    between atoms: C_26  and  C_48
   16  A    between atoms: N_28  and  C_49
   17  A    between atoms: C_29  and  O_46
   18  A    between atoms: C_37  and  C_43
   19  A    between atoms: C_41  and  C_48
                            x       y       z     vdW  Elec       q    Type
                         _______ _______ _______ _____ _____    ______ ____

>  <TORSDO>
F 19

$$$$
=
 OpenBabel11072411423D

 49 52  0  0  1  0  0  0  0  0999 V2000
  160.2860  212.3890  149.0090 C   0  0  1  0  0  3  0  0  0  0  0  0
  158.0830  214.4530  144.0250 C   0  0  0  0  0  1  0  0  0  0  0  0
  159.7290  213.0350  147.7730 C   0  0  0  0  0  0  0  0  0  0  0  0
  157.4870  212.5980  148.4380 O   0  0  0  0  0  0  0  0  0  0  0  0
  158.2640  213.0850  147.5770 C   0  0  0  0  0  0  0  0  0  0  0  0
  158.6580  213.6630  145.1890 C   0  0  2  0  0  3  0  0  0  0  0  0
  160.5460  213.5300  146.8320 C   0  0  0  0  0  3  0  0  0  0  0  0
  157.6830  213.7420  146.3660 C   0  0  0  0  0  2  0  0  0  0  0  0
  160.0280  214.2220  145.6050 C   0  0  1  0  0  3  0  0  0  0  0  0
  160.9930  214.0650  144.5270 N   0  0  0  0  0  2  0  0  0  0  0  0
  161.1890  212.8160  143.8600 C   0  0  0  0  0  0  0  0  0  0  0  0
  160.4680  211.8230  144.1420 O   0  0  0  0  0  0  0  0  0  0  0  0
  163.0420  213.7710  141.0160 C   0  0  1  0  0  3  0  0  0  0  0  0
  161.7140  211.9030  141.6340 C   0  0  0  0  0  2  0  0  0  0  0  0
  162.6230  213.9520  142.3490 O   0  0  0  0  0  0  0  0  0  0  0  0
  162.4330  212.4990  140.4610 C   0  0  1  0  0  3  0  0  0  0  0  0
  161.8460  213.8490  140.0860 C   0  0  0  0  0  2  0  0  0  0  0  0
  162.2400  212.6860  142.8120 C   0  0  1  0  0  3  0  0  0  0  0  0
  161.4400  211.4120  148.7350 C   0  0  0  0  0  2  0  0  0  0  0  0
  162.1230  210.8900  150.0000 C   0  0  0  0  0  2  0  0  0  0  0  0
  161.5530  209.5370  150.4060 C   0  0  2  0  0  3  0  0  0  0  0  0
  161.4730  209.4520  151.7930 O   0  0  0  0  0  1  0  0  0  0  0  0
  162.3180  208.3370  149.8290 C   0  0  1  0  0  3  0  0  0  0  0  0
  162.6150  207.3070  150.9090 C   0  0  0  0  0  1  0  0  0  0  0  0
  162.6010  206.9600  147.8760 F   0  0  0  0  0  0  0  0  0  0  0  0
  160.6330  206.8600  148.9680 F   0  0  0  0  0  0  0  0  0  0  0  0
  161.1590  208.6860  147.7740 F   0  0  0  0  0  0  0  0  0  0  0  0
  161.6710  207.6930  148.5920 C   0  0  0  0  0  0  0  0  0  0  0  0
  160.5570  213.4000  150.1230 C   0  0  0  0  0  2  0  0  0  0  0  0
  158.4060  213.9140  151.1910 C   0  0  0  0  0  3  0  0  0  0  0  0
  158.9470  212.3540  153.5590 C   0  0  1  0  0  3  0  0  0  0  0  0
  157.3790  213.8450  152.2870 C   0  0  0  0  0  2  0  0  0  0  0  0
  157.5060  212.5520  153.0890 C   0  0  0  0  0  2  0  0  0  0  0  0
  159.9060  212.2910  152.3620 C   0  0  0  0  0  2  0  0  0  0  0  0
  159.5780  213.2540  151.2470 C   0  0  0  0  0  0  0  0  0  0  0  0
  159.3510  213.4400  154.5470 C   0  0  0  0  0  2  0  0  0  0  0  0
  159.9730  212.8380  155.7730 C   0  0  0  0  0  0  0  0  0  0  0  0
  160.4670  213.5720  156.6110 O   0  0  0  0  0  0  0  0  0  0  0  0
  158.7410  210.8470  156.2450 O   0  0  0  0  0  1  0  0  0  0  0  0
  160.0180  211.3520  155.9820 C   0  0  2  0  0  3  0  0  0  0  0  0
  160.9570  211.0180  157.1360 C   0  0  0  0  0  2  0  0  0  0  0  0
  162.1280  210.1680  156.6610 C   0  0  2  0  0  3  0  0  0  0  0  0
  163.3650  211.0300  156.4730 C   0  0  0  0  0  1  0  0  0  0  0  0
  161.8000  209.5730  155.4420 O   0  0  0  0  0  0  0  0  0  0  0  0
  161.5910  208.2260  155.7440 C   0  0  0  0  0  2  0  0  0  0  0  0
  160.2750  207.7590  155.1280 C   0  0  2  0  0  3  0  0  0  0  0  0
  159.4170  206.9940  156.1270 C   0  0  0  0  0  1  0  0  0  0  0  0
  160.4380  207.0770  153.9000 O   0  0  0  0  0  0  0  0  0  0  0  0
  161.5210  206.1880  154.0060 C   0  0  0  0  0  1  0  0  0  0  0  0
  1 19  1  6  0  0  0
  1 29  1  0  0  0  0
  3  1  1  0  0  0  0
  5  3  1  0  0  0  0
  5  4  2  0  0  0  0
  6  2  1  6  0  0  0
  6  9  1  0  0  0  0
  6  8  1  0  0  0  0
  7  3  2  0  0  0  0
  8  5  1  0  0  0  0
  9 10  1  6  0  0  0
  9  7  1  0  0  0  0
 11 12  2  0  0  0  0
 11 10  1  0  0  0  0
 13 17  1  6  0  0  0
 13 15  1  0  0  0  0
 14 18  1  0  0  0  0
 15 18  1  0  0  0  0
 16 17  1  6  0  0  0
 16 13  1  0  0  0  0
 16 14  1  0  0  0  0
 18 11  1  1  0  0  0
 19 20  1  0  0  0  0
 20 21  1  0  0  0  0
 21 22  1  1  0  0  0
 23 21  1  0  0  0  0
 23 24  1  1  0  0  0
 25 28  1  0  0  0  0
 27 28  1  0  0  0  0
 28 26  1  0  0  0  0
 28 23  1  0  0  0  0
 29 35  1  0  0  0  0
 30 35  2  0  0  0  0
 30 32  1  0  0  0  0
 31 36  1  1  0  0  0
 32 33  1  0  0  0  0
 33 31  1  0  0  0  0
 34 31  1  0  0  0  0
 35 34  1  0  0  0  0
 36 37  1  0  0  0  0
 37 40  1  0  0  0  0
 37 38  2  0  0  0  0
 40 39  1  1  0  0  0
 40 41  1  0  0  0  0
 42 43  1  6  0  0  0
 42 41  1  0  0  0  0
 44 45  1  0  0  0  0
 44 42  1  0  0  0  0
 46 45  1  0  0  0  0
 46 47  1  1  0  0  0
 48 49  1  0  0  0  0
 48 46  1  0  0  0  0
M  END
>  <MODEL>
5

>  <REMARK>
 VINA RESULT:      -5.0      4.173     10.444
  Name = 
  19 active torsions:
  status: ('A' for Active; 'I' for Inactive)
    1  A    between atoms: C_1  and  C_9
    2  A    between atoms: C_1  and  C_23
    3  A    between atoms: C_4  and  C_25
    4  A    between atoms: C_4  and  C_45
    5  A    between atoms: C_5  and  C_25
    6  A    between atoms: C_5  and  C_40
    7  A    between atoms: C_8  and  C_11
    8  A    between atoms: C_9  and  C_40
    9  A    between atoms: C_11  and  C_16
   10  A    between atoms: C_12  and  C_25
   11  A    between atoms: C_16  and  C_41
   12  A    between atoms: C_22  and  C_29
   13  A    between atoms: C_22  and  O_31
   14  A    between atoms: C_26  and  O_46
   15  A    between atoms: C_26  and  C_48
   16  A    between atoms: N_28  and  C_49
   17  A    between atoms: C_29  and  O_46
   18  A    between atoms: C_37  and  C_43
   19  A    between atoms: C_41  and  C_48
                            x       y       z     vdW  Elec       q    Type
                         _______ _______ _______ _____ _____    ______ ____

>  <TORSDO>
F 19

$$$$
=
 OpenBabel11072411423D

 49 52  0  0  1  0  0  0  0  0999 V2000
  161.5290  208.0900  148.8120 C   0  0  1  0  0  3  0  0  0  0  0  0
  161.6660  213.9140  148.7120 C   0  0  0  0  0  1  0  0  0  0  0  0
  161.6780  209.5820  148.7350 C   0  0  0  0  0  0  0  0  0  0  0  0
  162.3370  209.7300  151.0170 O   0  0  0  0  0  0  0  0  0  0  0  0
  162.0980  210.3330  149.9380 C   0  0  0  0  0  0  0  0  0  0  0  0
  161.3590  212.4300  148.8210 C   0  0  2  0  0  3  0  0  0  0  0  0
  161.3960  210.2400  147.6010 C   0  0  0  0  0  3  0  0  0  0  0  0
  162.2750  211.8160  149.8830 C   0  0  0  0  0  2  0  0  0  0  0  0
  161.5740  211.7260  147.4730 C   0  0  1  0  0  3  0  0  0  0  0  0
  160.6420  212.2320  146.4760 N   0  0  0  0  0  2  0  0  0  0  0  0
  161.0800  212.9680  145.3320 C   0  0  0  0  0  0  0  0  0  0  0  0
  162.3090  213.1360  145.1140 O   0  0  0  0  0  0  0  0  0  0  0  0
  159.0870  213.0400  142.4240 C   0  0  1  0  0  3  0  0  0  0  0  0
  160.7610  214.4290  143.3750 C   0  0  0  0  0  2  0  0  0  0  0  0
  159.4550  212.4940  143.6690 O   0  0  0  0  0  0  0  0  0  0  0  0
  159.9430  214.2570  142.1300 C   0  0  1  0  0  3  0  0  0  0  0  0
  160.2480  212.9320  141.4530 C   0  0  0  0  0  2  0  0  0  0  0  0
  160.0820  213.5280  144.3780 C   0  0  1  0  0  3  0  0  0  0  0  0
  162.8600  207.3360  148.9610 C   0  0  0  0  0  2  0  0  0  0  0  0
  163.0190  206.1620  147.9960 C   0  0  0  0  0  2  0  0  0  0  0  0
  161.8760  206.1270  146.9900 C   0  0  2  0  0  3  0  0  0  0  0  0
  160.8480  205.3180  147.4650 O   0  0  0  0  0  1  0  0  0  0  0  0
  162.2990  205.6990  145.5770 C   0  0  1  0  0  3  0  0  0  0  0  0
  163.1680  204.4500  145.6220 C   0  0  0  0  0  1  0  0  0  0  0  0
  160.1050  206.4100  144.8880 F   0  0  0  0  0  0  0  0  0  0  0  0
  161.5790  205.8220  143.2900 F   0  0  0  0  0  0  0  0  0  0  0  0
  160.6720  204.2490  144.6080 F   0  0  0  0  0  0  0  0  0  0  0  0
  161.1430  205.5510  144.5740 C   0  0  0  0  0  0  0  0  0  0  0  0
  160.4420  207.6640  149.7990 C   0  0  0  0  0  2  0  0  0  0  0  0
  161.0970  205.4440  150.6230 C   0  0  0  0  0  3  0  0  0  0  0  0
  161.8500  206.3860  153.2460 C   0  0  1  0  0  3  0  0  0  0  0  0
  161.6110  204.4680  151.6450 C   0  0  0  0  0  2  0  0  0  0  0  0
  162.5290  205.1510  152.6550 C   0  0  0  0  0  2  0  0  0  0  0  0
  161.4940  207.3910  152.1430 C   0  0  0  0  0  2  0  0  0  0  0  0
  160.9900  206.7640  150.8640 C   0  0  0  0  0  0  0  0  0  0  0  0
  160.6280  205.9930  154.0660 C   0  0  0  0  0  2  0  0  0  0  0  0
  160.3680  207.0030  155.1470 C   0  0  0  0  0  0  0  0  0  0  0  0
  159.3240  206.9500  155.7710 O   0  0  0  0  0  0  0  0  0  0  0  0
  161.8330  207.9600  156.7740 O   0  0  0  0  0  1  0  0  0  0  0  0
  161.3580  208.0860  155.4640 C   0  0  2  0  0  3  0  0  0  0  0  0
  160.7090  209.4540  155.2760 C   0  0  0  0  0  2  0  0  0  0  0  0
  161.6230  210.3900  154.4970 C   0  0  2  0  0  3  0  0  0  0  0  0
  162.6640  211.0000  155.4220 C   0  0  0  0  0  1  0  0  0  0  0  0
  160.8620  211.4130  153.9330 O   0  0  0  0  0  0  0  0  0  0  0  0
  159.7210  210.7800  153.4350 C   0  0  0  0  0  2  0  0  0  0  0  0
  158.7680  211.8200  152.8550 C   0  0  2  0  0  3  0  0  0  0  0  0
  159.4990  212.8640  152.0210 C   0  0  0  0  0  1  0  0  0  0  0  0
  157.8990  212.3870  153.8160 O   0  0  0  0  0  0  0  0  0  0  0  0
  157.5490  211.4050  154.7580 C   0  0  0  0  0  1  0  0  0  0  0  0
  1 19  1  1  0  0  0
  1 29  1  0  0  0  0
  3  1  1  0  0  0  0
  3  5  1  0  0  0  0
  5  4  2  0  0  0  0
  6  2  1  6  0  0  0
  6  8  1  0  0  0  0
  7  3  2  0  0  0  0
  8  5  1  0  0  0  0
  9 10  1  6  0  0  0
  9  7  1  0  0  0  0
  9  6  1  0  0  0  0
 11 10  1  0  0  0  0
 12 11  2  0  0  0  0
 13 17  1  6  0  0  0
 13 15  1  0  0  0  0
 14 18  1  0  0  0  0
 15 18  1  0  0  0  0
 16 17  1  6  0  0  0
 16 13  1  0  0  0  0
 16 14  1  0  0  0  0
 18 11  1  1  0  0  0
 20 19  1  0  0  0  0
 21 22  1  1  0  0  0
 21 20  1  0  0  0  0
 23 24  1  1  0  0  0
 23 21  1  0  0  0  0
 26 28  1  0  0  0  0
 28 27  1  0  0  0  0
 28 25  1  0  0  0  0
 28 23  1  0  0  0  0
 29 35  1  0  0  0  0
 30 35  2  0  0  0  0
 30 32  1  0  0  0  0
 31 36  1  6  0  0  0
 32 33  1  0  0  0  0
 33 31  1  0  0  0  0
 34 31  1  0  0  0  0
 35 34  1  0  0  0  0
 36 37  1  0  0  0  0
 37 40  1  0  0  0  0
 37 38  2  0  0  0  0
 40 39  1  1  0  0  0
 41 40  1  0  0  0  0
 42 41  1  0  0  0  0
 42 43  1  1  0  0  0
 44 42  1  0  0  0  0
 45 44  1  0  0  0  0
 46 47  1  1  0  0  0
 46 45  1  0  0  0  0
 46 48  1  0  0  0  0
 48 49  1  0  0  0  0
M  END
>  <MODEL>
6

>  <REMARK>
 VINA RESULT:      -5.0      3.545      9.312
  Name = 
  19 active torsions:
  status: ('A' for Active; 'I' for Inactive)
    1  A    between atoms: C_1  and  C_9
    2  A    between atoms: C_1  and  C_23
    3  A    between atoms: C_4  and  C_25
    4  A    between atoms: C_4  and  C_45
    5  A    between atoms: C_5  and  C_25
    6  A    between atoms: C_5  and  C_40
    7  A    between atoms: C_8  and  C_11
    8  A    between atoms: C_9  and  C_40
    9  A    between atoms: C_11  and  C_16
   10  A    between atoms: C_12  and  C_25
   11  A    between atoms: C_16  and  C_41
   12  A    between atoms: C_22  and  C_29
   13  A    between atoms: C_22  and  O_31
   14  A    between atoms: C_26  and  O_46
   15  A    between atoms: C_26  and  C_48
   16  A    between atoms: N_28  and  C_49
   17  A    between atoms: C_29  and  O_46
   18  A    between atoms: C_37  and  C_43
   19  A    between atoms: C_41  and  C_48
                            x       y       z     vdW  Elec       q    Type
                         _______ _______ _______ _____ _____    ______ ____

>  <TORSDO>
F 19

$$$$
=
 OpenBabel11072411423D

 49 52  0  0  1  0  0  0  0  0999 V2000
  161.0210  210.0170  151.6600 C   0  0  1  0  0  3  0  0  0  0  0  0
  160.1000  208.6360  157.2450 C   0  0  0  0  0  1  0  0  0  0  0  0
  160.9060  209.6770  153.1180 C   0  0  0  0  0  0  0  0  0  0  0  0
  160.9270  207.3400  152.6730 O   0  0  0  0  0  0  0  0  0  0  0  0
  160.8620  208.2570  153.5320 C   0  0  0  0  0  0  0  0  0  0  0  0
  160.0550  208.9900  155.7680 C   0  0  2  0  0  3  0  0  0  0  0  0
  160.8040  210.6450  154.0400 C   0  0  0  0  0  3  0  0  0  0  0  0
  160.7700  207.8920  154.9780 C   0  0  0  0  0  2  0  0  0  0  0  0
  160.7310  210.3460  155.5100 C   0  0  1  0  0  3  0  0  0  0  0  0
  160.0040  211.4150  156.1780 N   0  0  0  0  0  2  0  0  0  0  0  0
  158.6540  211.7420  155.8380 C   0  0  0  0  0  0  0  0  0  0  0  0
  158.0250  211.0540  154.9920 O   0  0  0  0  0  0  0  0  0  0  0  0
  155.9480  213.5180  157.2370 C   0  0  1  0  0  3  0  0  0  0  0  0
  157.4890  213.8800  155.4670 C   0  0  0  0  0  2  0  0  0  0  0  0
  156.8620  212.4470  157.2240 O   0  0  0  0  0  0  0  0  0  0  0  0
  156.2460  214.4530  156.0800 C   0  0  1  0  0  3  0  0  0  0  0  0
  155.0880  213.4740  155.9870 C   0  0  0  0  0  2  0  0  0  0  0  0
  157.9760  212.8920  156.4990 C   0  0  1  0  0  3  0  0  0  0  0  0
  160.6180  211.4610  151.3230 C   0  0  0  0  0  2  0  0  0  0  0  0
  161.2050  211.9780  150.0100 C   0  0  0  0  0  2  0  0  0  0  0  0
  160.6170  213.3360  149.6480 C   0  0  2  0  0  3  0  0  0  0  0  0
  159.2540  213.3540  149.9290 O   0  0  0  0  0  1  0  0  0  0  0  0
  160.8810  213.7660  148.1980 C   0  0  1  0  0  3  0  0  0  0  0  0
  162.3720  213.7690  147.8920 C   0  0  0  0  0  1  0  0  0  0  0  0
  158.7680  212.8260  147.5320 F   0  0  0  0  0  0  0  0  0  0  0  0
  160.1150  213.6520  145.9260 F   0  0  0  0  0  0  0  0  0  0  0  0
  160.6560  211.7380  146.9640 F   0  0  0  0  0  0  0  0  0  0  0  0
  160.0850  212.9870  147.1380 C   0  0  0  0  0  0  0  0  0  0  0  0
  162.3550  209.5720  151.0620 C   0  0  0  0  0  2  0  0  0  0  0  0
  161.5440  208.7510  148.8930 C   0  0  0  0  0  3  0  0  0  0  0  0
  162.3660  206.0230  149.3590 C   0  0  1  0  0  3  0  0  0  0  0  0
  161.2910  207.7070  147.8410 C   0  0  0  0  0  2  0  0  0  0  0  0
  162.3010  206.5670  147.9320 C   0  0  0  0  0  2  0  0  0  0  0  0
  162.7740  207.1260  150.3440 C   0  0  0  0  0  2  0  0  0  0  0  0
  162.1680  208.4790  150.0550 C   0  0  0  0  0  0  0  0  0  0  0  0
  161.0450  205.3760  149.7540 C   0  0  0  0  0  2  0  0  0  0  0  0
  161.2350  204.4500  150.9200 C   0  0  0  0  0  0  0  0  0  0  0  0
  161.9600  204.7900  151.8370 O   0  0  0  0  0  0  0  0  0  0  0  0
  160.8060  202.4790  152.2000 O   0  0  0  0  0  1  0  0  0  0  0  0
  160.5660  203.1070  150.9740 C   0  0  2  0  0  3  0  0  0  0  0  0
  161.0690  202.2300  149.8320 C   0  0  0  0  0  2  0  0  0  0  0  0
  159.9420  201.8880  148.8670 C   0  0  2  0  0  3  0  0  0  0  0  0
  159.0150  200.8530  149.4840 C   0  0  0  0  0  1  0  0  0  0  0  0
  160.4840  201.3680  147.6910 O   0  0  0  0  0  0  0  0  0  0  0  0
  161.5670  202.1990  147.3980 C   0  0  0  0  0  2  0  0  0  0  0  0
  161.1920  203.1550  146.2700 C   0  0  2  0  0  3  0  0  0  0  0  0
  160.3950  202.4610  145.1740 C   0  0  0  0  0  1  0  0  0  0  0  0
  162.2860  203.9000  145.7740 O   0  0  0  0  0  0  0  0  0  0  0  0
  161.8530  204.6990  144.7020 C   0  0  0  0  0  1  0  0  0  0  0  0
  1 29  1  1  0  0  0
  1  3  1  0  0  0  0
  3  5  1  0  0  0  0
  3  7  2  0  0  0  0
  4  5  2  0  0  0  0
  5  8  1  0  0  0  0
  6  2  1  1  0  0  0
  7  9  1  0  0  0  0
  8  6  1  0  0  0  0
  9  6  1  0  0  0  0
  9 10  1  1  0  0  0
 11 10  1  0  0  0  0
 12 11  2  0  0  0  0
 13 17  1  6  0  0  0
 14 18  1  0  0  0  0
 15 13  1  0  0  0  0
 16 14  1  6  0  0  0
 16 13  1  0  0  0  0
 17 16  1  0  0  0  0
 18 11  1  6  0  0  0
 18 15  1  0  0  0  0
 19  1  1  0  0  0  0
 20 19  1  0  0  0  0
 21 22  1  6  0  0  0
 21 20  1  0  0  0  0
 23 24  1  6  0  0  0
 23 21  1  0  0  0  0
 26 28  1  0  0  0  0
 27 28  1  0  0  0  0
 28 25  1  0  0  0  0
 28 23  1  0  0  0  0
 30 35  2  0  0  0  0
 31 36  1  1  0  0  0
 31 34  1  0  0  0  0
 32 33  1  0  0  0  0
 32 30  1  0  0  0  0
 33 31  1  0  0  0  0
 35 34  1  0  0  0  0
 35 29  1  0  0  0  0
 36 37  1  0  0  0  0
 37 40  1  0  0  0  0
 37 38  2  0  0  0  0
 40 39  1  1  0  0  0
 41 40  1  0  0  0  0
 42 43  1  1  0  0  0
 42 41  1  0  0  0  0
 44 42  1  0  0  0  0
 45 44  1  0  0  0  0
 46 47  1  6  0  0  0
 46 45  1  0  0  0  0
 48 46  1  0  0  0  0
 49 48  1  0  0  0  0
M  END
>  <MODEL>
7

>  <REMARK>
 VINA RESULT:      -4.9      1.416      3.037
  Name = 
  19 active torsions:
  status: ('A' for Active; 'I' for Inactive)
    1  A    between atoms: C_1  and  C_9
    2  A    between atoms: C_1  and  C_23
    3  A    between atoms: C_4  and  C_25
    4  A    between atoms: C_4  and  C_45
    5  A    between atoms: C_5  and  C_25
    6  A    between atoms: C_5  and  C_40
    7  A    between atoms: C_8  and  C_11
    8  A    between atoms: C_9  and  C_40
    9  A    between atoms: C_11  and  C_16
   10  A    between atoms: C_12  and  C_25
   11  A    between atoms: C_16  and  C_41
   12  A    between atoms: C_22  and  C_29
   13  A    between atoms: C_22  and  O_31
   14  A    between atoms: C_26  and  O_46
   15  A    between atoms: C_26  and  C_48
   16  A    between atoms: N_28  and  C_49
   17  A    between atoms: C_29  and  O_46
   18  A    between atoms: C_37  and  C_43
   19  A    between atoms: C_41  and  C_48
                            x       y       z     vdW  Elec       q    Type
                         _______ _______ _______ _____ _____    ______ ____

>  <TORSDO>
F 19

$$$$
=
 OpenBabel11072411423D

 49 52  0  0  1  0  0  0  0  0999 V2000
  162.0080  210.7340  150.2750 C   0  0  1  0  0  3  0  0  0  0  0  0
  158.7550  214.4360  147.1670 C   0  0  0  0  0  1  0  0  0  0  0  0
  161.2640  211.7700  149.4840 C   0  0  0  0  0  0  0  0  0  0  0  0
  160.0210  212.4720  151.3870 O   0  0  0  0  0  0  0  0  0  0  0  0
  160.2530  212.6130  150.1580 C   0  0  0  0  0  0  0  0  0  0  0  0
  159.3960  213.2830  147.9210 C   0  0  2  0  0  3  0  0  0  0  0  0
  161.4780  211.9090  148.1670 C   0  0  0  0  0  3  0  0  0  0  0  0
  159.5140  213.6660  149.3980 C   0  0  0  0  0  2  0  0  0  0  0  0
  160.7860  212.9610  147.3500 C   0  0  1  0  0  3  0  0  0  0  0  0
  160.6790  212.5010  145.9730 N   0  0  0  0  0  2  0  0  0  0  0  0
  161.3130  213.1900  144.8930 C   0  0  0  0  0  0  0  0  0  0  0  0
  162.0520  214.1850  145.1160 O   0  0  0  0  0  0  0  0  0  0  0  0
  162.2670  212.4220  141.5860 C   0  0  1  0  0  3  0  0  0  0  0  0
  160.6860  213.8690  142.6090 C   0  0  0  0  0  2  0  0  0  0  0  0
  162.3160  212.2120  142.9770 O   0  0  0  0  0  0  0  0  0  0  0  0
  161.2840  213.5350  141.2750 C   0  0  1  0  0  3  0  0  0  0  0  0
  162.7770  213.8130  141.2580 C   0  0  0  0  0  2  0  0  0  0  0  0
  161.1160  212.7220  143.4920 C   0  0  1  0  0  3  0  0  0  0  0  0
  161.1420  210.0000  151.3120 C   0  0  0  0  0  2  0  0  0  0  0  0
  161.6660  210.1080  152.7450 C   0  0  0  0  0  2  0  0  0  0  0  0
  160.5620  209.8090  153.7510 C   0  0  2  0  0  3  0  0  0  0  0  0
  160.0680  210.9960  154.2830 O   0  0  0  0  0  1  0  0  0  0  0  0
  160.9800  208.8420  154.8680 C   0  0  1  0  0  3  0  0  0  0  0  0
  160.1570  209.0740  156.1270 C   0  0  0  0  0  1  0  0  0  0  0  0
  159.7230  206.8220  154.5060 F   0  0  0  0  0  0  0  0  0  0  0  0
  161.5090  207.2090  153.1900 F   0  0  0  0  0  0  0  0  0  0  0  0
  161.8070  206.6560  155.3440 F   0  0  0  0  0  0  0  0  0  0  0  0
  160.9980  207.3590  154.4660 C   0  0  0  0  0  0  0  0  0  0  0  0
  162.8510  209.8180  149.3880 C   0  0  0  0  0  2  0  0  0  0  0  0
  162.2800  207.5180  150.0350 C   0  0  0  0  0  3  0  0  0  0  0  0
  160.7760  206.9720  147.6320 C   0  0  1  0  0  3  0  0  0  0  0  0
  161.6430  206.1690  149.8460 C   0  0  0  0  0  2  0  0  0  0  0  0
  160.4230  206.2520  148.9330 C   0  0  0  0  0  2  0  0  0  0  0  0
  161.2780  208.3930  147.9160 C   0  0  0  0  0  2  0  0  0  0  0  0
  162.1620  208.5130  149.1350 C   0  0  0  0  0  0  0  0  0  0  0  0
  161.7870  206.1690  146.8240 C   0  0  0  0  0  2  0  0  0  0  0  0
  161.1830  205.7030  145.5300 C   0  0  0  0  0  0  0  0  0  0  0  0
  160.6760  206.5210  144.7830 O   0  0  0  0  0  0  0  0  0  0  0  0
  159.9100  203.8700  144.6800 O   0  0  0  0  0  1  0  0  0  0  0  0
  161.1720  204.2520  145.1460 C   0  0  2  0  0  3  0  0  0  0  0  0
  161.5660  203.3940  146.3430 C   0  0  0  0  0  2  0  0  0  0  0  0
  161.1900  201.9360  146.1180 C   0  0  2  0  0  3  0  0  0  0  0  0
  160.0730  201.8310  145.0930 C   0  0  0  0  0  1  0  0  0  0  0  0
  160.7550  201.3810  147.3220 O   0  0  0  0  0  0  0  0  0  0  0  0
  161.2640  202.2250  148.3110 C   0  0  0  0  0  2  0  0  0  0  0  0
  160.6490  201.8660  149.6600 C   0  0  2  0  0  3  0  0  0  0  0  0
  159.2320  201.3260  149.5160 C   0  0  0  0  0  1  0  0  0  0  0  0
  160.7550  202.8980  150.6210 O   0  0  0  0  0  0  0  0  0  0  0  0
  161.2400  202.3590  151.8250 C   0  0  0  0  0  1  0  0  0  0  0  0
  1 29  1  6  0  0  0
  1 19  1  0  0  0  0
  3  5  1  0  0  0  0
  3  1  1  0  0  0  0
  5  4  2  0  0  0  0
  6  2  1  6  0  0  0
  6  8  1  0  0  0  0
  7  3  2  0  0  0  0
  8  5  1  0  0  0  0
  9 10  1  6  0  0  0
  9  6  1  0  0  0  0
  9  7  1  0  0  0  0
 11 12  2  0  0  0  0
 11 10  1  0  0  0  0
 13 17  1  1  0  0  0
 13 15  1  0  0  0  0
 14 18  1  0  0  0  0
 15 18  1  0  0  0  0
 16 17  1  1  0  0  0
 16 13  1  0  0  0  0
 16 14  1  0  0  0  0
 18 11  1  1  0  0  0
 19 20  1  0  0  0  0
 20 21  1  0  0  0  0
 21 22  1  1  0  0  0
 21 23  1  0  0  0  0
 23 24  1  1  0  0  0
 26 28  1  0  0  0  0
 28 25  1  0  0  0  0
 28 23  1  0  0  0  0
 28 27  1  0  0  0  0
 31 36  1  1  0  0  0
 31 34  1  0  0  0  0
 31 33  1  0  0  0  0
 32 30  1  0  0  0  0
 33 32  1  0  0  0  0
 34 35  1  0  0  0  0
 35 29  1  0  0  0  0
 35 30  2  0  0  0  0
 37 36  1  0  0  0  0
 38 37  2  0  0  0  0
 40 39  1  1  0  0  0
 40 37  1  0  0  0  0
 40 41  1  0  0  0  0
 42 43  1  6  0  0  0
 42 41  1  0  0  0  0
 42 44  1  0  0  0  0
 44 45  1  0  0  0  0
 45 46  1  0  0  0  0
 46 47  1  6  0  0  0
 46 48  1  0  0  0  0
 48 49  1  0  0  0  0
M  END
>  <MODEL>
8

>  <REMARK>
 VINA RESULT:      -4.9      3.643      7.560
  Name = 
  19 active torsions:
  status: ('A' for Active; 'I' for Inactive)
    1  A    between atoms: C_1  and  C_9
    2  A    between atoms: C_1  and  C_23
    3  A    between atoms: C_4  and  C_25
    4  A    between atoms: C_4  and  C_45
    5  A    between atoms: C_5  and  C_25
    6  A    between atoms: C_5  and  C_40
    7  A    between atoms: C_8  and  C_11
    8  A    between atoms: C_9  and  C_40
    9  A    between atoms: C_11  and  C_16
   10  A    between atoms: C_12  and  C_25
   11  A    between atoms: C_16  and  C_41
   12  A    between atoms: C_22  and  C_29
   13  A    between atoms: C_22  and  O_31
   14  A    between atoms: C_26  and  O_46
   15  A    between atoms: C_26  and  C_48
   16  A    between atoms: N_28  and  C_49
   17  A    between atoms: C_29  and  O_46
   18  A    between atoms: C_37  and  C_43
   19  A    between atoms: C_41  and  C_48
                            x       y       z     vdW  Elec       q    Type
                         _______ _______ _______ _____ _____    ______ ____

>  <TORSDO>
F 19

$$$$
=
 OpenBabel11072411423D

 49 52  0  0  1  0  0  0  0  0999 V2000
  161.8510  208.8300  149.5780 C   0  0  1  0  0  3  0  0  0  0  0  0
  160.5620  214.4470  148.7190 C   0  0  0  0  0  1  0  0  0  0  0  0
  161.6420  210.3000  149.3570 C   0  0  0  0  0  0  0  0  0  0  0  0
  161.2280  210.6870  151.6670 O   0  0  0  0  0  0  0  0  0  0  0  0
  161.3200  211.1700  150.5090 C   0  0  0  0  0  0  0  0  0  0  0  0
  160.6180  212.9400  148.9080 C   0  0  2  0  0  3  0  0  0  0  0  0
  161.7050  210.8220  148.1230 C   0  0  0  0  0  3  0  0  0  0  0  0
  161.1280  212.6400  150.3190 C   0  0  0  0  0  2  0  0  0  0  0  0
  161.5450  212.2930  147.8660 C   0  0  1  0  0  3  0  0  0  0  0  0
  161.0200  212.4870  146.5230 N   0  0  0  0  0  2  0  0  0  0  0  0
  161.7590  213.1770  145.5130 C   0  0  0  0  0  0  0  0  0  0  0  0
  162.9310  213.5770  145.7410 O   0  0  0  0  0  0  0  0  0  0  0  0
  160.9070  212.4150  142.1770 C   0  0  1  0  0  3  0  0  0  0  0  0
  162.1230  214.1350  143.2730 C   0  0  0  0  0  2  0  0  0  0  0  0
  160.8240  212.1950  143.5650 O   0  0  0  0  0  0  0  0  0  0  0  0
  161.7950  213.6150  141.9050 C   0  0  1  0  0  3  0  0  0  0  0  0
  162.3360  212.2090  141.7090 C   0  0  0  0  0  2  0  0  0  0  0  0
  161.1500  213.4150  144.1740 C   0  0  1  0  0  3  0  0  0  0  0  0
  162.3040  208.0680  148.3220 C   0  0  0  0  0  2  0  0  0  0  0  0
  161.1530  207.5000  147.4920 C   0  0  0  0  0  2  0  0  0  0  0  0
  161.3710  206.0210  147.2000 C   0  0  2  0  0  3  0  0  0  0  0  0
  162.0740  205.4280  148.2440 O   0  0  0  0  0  1  0  0  0  0  0  0
  162.0550  205.7440  145.8540 C   0  0  1  0  0  3  0  0  0  0  0  0
  163.1520  204.7000  146.0030 C   0  0  0  0  0  1  0  0  0  0  0  0
  161.5090  206.0030  143.5240 F   0  0  0  0  0  0  0  0  0  0  0  0
  161.0390  204.0330  144.5110 F   0  0  0  0  0  0  0  0  0  0  0  0
  159.8260  205.8530  145.0130 F   0  0  0  0  0  0  0  0  0  0  0  0
  161.0980  205.4020  144.7010 C   0  0  0  0  0  0  0  0  0  0  0  0
  162.6790  208.5420  150.8300 C   0  0  0  0  0  2  0  0  0  0  0  0
  162.2900  207.4350  152.9890 C   0  0  0  0  0  3  0  0  0  0  0  0
  160.6770  205.3160  151.8720 C   0  0  1  0  0  3  0  0  0  0  0  0
  161.7260  206.3730  153.8920 C   0  0  0  0  0  2  0  0  0  0  0  0
  160.4500  205.7690  153.3140 C   0  0  0  0  0  2  0  0  0  0  0  0
  161.1080  206.4980  150.9930 C   0  0  0  0  0  2  0  0  0  0  0  0
  162.0570  207.4630  151.6630 C   0  0  0  0  0  0  0  0  0  0  0  0
  161.6830  204.1740  151.8130 C   0  0  0  0  0  2  0  0  0  0  0  0
  160.9870  202.8480  151.9050 C   0  0  0  0  0  0  0  0  0  0  0  0
  159.8100  202.8140  152.2180 O   0  0  0  0  0  0  0  0  0  0  0  0
  163.0950  201.7610  151.6200 O   0  0  0  0  0  1  0  0  0  0  0  0
  161.7110  201.5600  151.6390 C   0  0  2  0  0  3  0  0  0  0  0  0
  161.2530  200.9710  150.3090 C   0  0  0  0  0  2  0  0  0  0  0  0
  160.6590  202.0460  149.4100 C   0  0  2  0  0  3  0  0  0  0  0  0
  159.2150  201.7130  149.0730 C   0  0  0  0  0  1  0  0  0  0  0  0
  161.3960  202.1180  148.2280 O   0  0  0  0  0  0  0  0  0  0  0  0
  160.4550  201.9640  147.2080 C   0  0  0  0  0  2  0  0  0  0  0  0
  161.0230  201.0620  146.1170 C   0  0  2  0  0  3  0  0  0  0  0  0
  160.0860  200.9550  144.9200 C   0  0  0  0  0  1  0  0  0  0  0  0
  161.4580  199.8040  146.5940 O   0  0  0  0  0  0  0  0  0  0  0  0
  161.2070  198.8270  145.6160 C   0  0  0  0  0  1  0  0  0  0  0  0
  1 19  1  6  0  0  0
  1 29  1  0  0  0  0
  3  1  1  0  0  0  0
  3  5  1  0  0  0  0
  5  4  2  0  0  0  0
  6  2  1  6  0  0  0
  6  8  1  0  0  0  0
  7  3  2  0  0  0  0
  8  5  1  0  0  0  0
  9 10  1  6  0  0  0
  9  7  1  0  0  0  0
  9  6  1  0  0  0  0
 11 12  2  0  0  0  0
 11 10  1  0  0  0  0
 13 17  1  6  0  0  0
 13 15  1  0  0  0  0
 14 18  1  0  0  0  0
 15 18  1  0  0  0  0
 16 17  1  1  0  0  0
 16 13  1  0  0  0  0
 16 14  1  0  0  0  0
 18 11  1  1  0  0  0
 20 19  1  0  0  0  0
 21 20  1  0  0  0  0
 21 22  1  1  0  0  0
 23 24  1  1  0  0  0
 23 21  1  0  0  0  0
 25 28  1  0  0  0  0
 26 28  1  0  0  0  0
 28 27  1  0  0  0  0
 28 23  1  0  0  0  0
 29 35  1  0  0  0  0
 30 32  1  0  0  0  0
 31 36  1  1  0  0  0
 31 33  1  0  0  0  0
 33 32  1  0  0  0  0
 34 35  1  0  0  0  0
 34 31  1  0  0  0  0
 35 30  2  0  0  0  0
 36 37  1  0  0  0  0
 37 38  2  0  0  0  0
 40 39  1  6  0  0  0
 40 37  1  0  0  0  0
 41 40  1  0  0  0  0
 42 43  1  6  0  0  0
 42 41  1  0  0  0  0
 44 42  1  0  0  0  0
 45 44  1  0  0  0  0
 46 47  1  6  0  0  0
 46 48  1  0  0  0  0
 46 45  1  0  0  0  0
 49 48  1  0  0  0  0
M  END
>  <MODEL>
9

>  <REMARK>
 VINA RESULT:      -4.8      3.870      7.778
  Name = 
  19 active torsions:
  status: ('A' for Active; 'I' for Inactive)
    1  A    between atoms: C_1  and  C_9
    2  A    between atoms: C_1  and  C_23
    3  A    between atoms: C_4  and  C_25
    4  A    between atoms: C_4  and  C_45
    5  A    between atoms: C_5  and  C_25
    6  A    between atoms: C_5  and  C_40
    7  A    between atoms: C_8  and  C_11
    8  A    between atoms: C_9  and  C_40
    9  A    between atoms: C_11  and  C_16
   10  A    between atoms: C_12  and  C_25
   11  A    between atoms: C_16  and  C_41
   12  A    between atoms: C_22  and  C_29
   13  A    between atoms: C_22  and  O_31
   14  A    between atoms: C_26  and  O_46
   15  A    between atoms: C_26  and  C_48
   16  A    between atoms: N_28  and  C_49
   17  A    between atoms: C_29  and  O_46
   18  A    between atoms: C_37  and  C_43
   19  A    between atoms: C_41  and  C_48
                            x       y       z     vdW  Elec       q    Type
                         _______ _______ _______ _____ _____    ______ ____

>  <TORSDO>
F 19

$$$$
