=
 OpenBabel11072410133D

 37 41  0  0  1  0  0  0  0  0999 V2000
  161.9610  207.7220  152.1210 C   0  0  1  0  0  3  0  0  0  0  0  0
  160.1390  208.2360  153.8260 N   0  0  0  0  0  0  0  0  0  0  0  0
  160.7300  207.4430  152.9820 C   0  0  0  0  0  3  0  0  0  0  0  0
  160.5710  209.5530  154.2900 C   0  0  1  0  0  0  0  0  0  0  0  0
  160.3560  209.9750  156.6880 C   0  0  0  0  0  2  0  0  0  0  0  0
  162.4950  210.2910  155.4820 C   0  0  0  0  0  2  0  0  0  0  0  0
  162.6800  210.6870  154.1560 O   0  0  0  0  0  0  0  0  0  0  0  0
  159.4090  210.9410  156.0010 C   0  0  2  0  0  3  0  0  0  0  0  0
  161.6550  210.1180  153.3920 C   0  0  0  0  0  2  0  0  0  0  0  0
  159.3860  210.4820  154.5440 C   0  0  1  0  0  3  0  0  0  0  0  0
  159.9490  212.3510  156.2460 C   0  0  0  0  0  1  0  0  0  0  0  0
  161.2800  209.4110  155.6200 C   0  0  2  0  0  3  0  0  0  0  0  0
  159.8190  211.8330  152.4040 C   0  0  0  0  0  3  0  0  0  0  0  0
  160.3270  213.1990  150.4520 O   0  0  0  0  0  1  0  0  0  0  0  0
  159.0040  211.5300  153.5170 C   0  0  0  0  0  0  0  0  0  0  0  0
  159.5090  212.8960  151.5320 C   0  0  0  0  0  0  0  0  0  0  0  0
  157.8770  212.3300  153.7480 C   0  0  0  0  0  3  0  0  0  0  0  0
  158.3700  213.6790  151.7690 C   0  0  0  0  0  3  0  0  0  0  0  0
  157.5620  213.3850  152.8730 C   0  0  0  0  0  3  0  0  0  0  0  0
  162.7310  206.4110  151.8840 C   0  0  0  0  0  2  0  0  0  0  0  0
  161.6380  204.7690  150.2990 N   0  0  0  0  0  0  0  0  0  0  0  0
  161.8460  205.1590  151.5920 C   0  0  0  0  0  0  0  0  0  0  0  0
  160.9000  203.6570  150.0170 C   0  0  0  0  0  3  0  0  0  0  0  0
  160.5290  203.2870  152.3240 C   0  0  0  0  0  3  0  0  0  0  0  0
  160.3390  202.9200  151.0250 N   0  0  0  0  0  0  0  0  0  0  0  0
  161.2990  204.4330  152.6330 C   0  0  0  0  0  3  0  0  0  0  0  0
  161.3550  208.0240  150.7450 C   0  0  0  0  0  2  0  0  0  0  0  0
  162.3600  207.8830  149.6020 C   0  0  1  0  0  3  0  0  0  0  0  0
  161.4890  210.0830  148.9760 O   0  0  0  0  0  1  0  0  0  0  0  0
  161.5490  207.7940  148.3180 C   0  0  1  0  0  3  0  0  0  0  0  0
  162.3590  209.0450  148.5920 C   0  0  2  0  0  3  0  0  0  0  0  0
  162.2240  207.0050  147.3880 O   0  0  0  0  0  0  0  0  0  0  0  0
  161.2930  206.0470  147.0090 C   0  0  0  0  0  2  0  0  0  0  0  0
  161.9990  204.7370  146.6870 C   0  0  0  0  0  2  0  0  0  0  0  0
  161.2130  205.3460  144.3740 C   0  0  0  0  0  1  0  0  0  0  0  0
  161.7760  204.2590  145.2580 C   0  0  2  0  0  3  0  0  0  0  0  0
  160.9530  203.1320  145.2250 O   0  0  0  0  0  1  0  0  0  0  0  0
  1 27  1  6  0  0  0
  1  3  1  0  0  0  0
  3  2  2  0  0  0  0
  4  2  1  6  0  0  0
  4 10  1  0  0  0  0
  4 12  1  0  0  0  0
  7  6  1  0  0  0  0
  8 11  1  6  0  0  0
  8  5  1  0  0  0  0
  9  7  1  0  0  0  0
  9  4  1  0  0  0  0
 10 15  1  6  0  0  0
 10  8  1  0  0  0  0
 12  6  1  6  0  0  0
 12  5  1  0  0  0  0
 13 15  1  0  0  0  0
 14 16  1  0  0  0  0
 15 17  2  0  0  0  0
 16 18  1  0  0  0  0
 16 13  2  0  0  0  0
 18 19  2  0  0  0  0
 19 17  1  0  0  0  0
 20  1  1  0  0  0  0
 21 22  1  0  0  0  0
 22 20  1  0  0  0  0
 22 26  2  0  0  0  0
 23 21  2  0  0  0  0
 23 25  1  0  0  0  0
 24 26  1  0  0  0  0
 25 24  2  0  0  0  0
 28 27  1  1  0  0  0
 30 32  1  6  0  0  0
 30 31  1  0  0  0  0
 30 28  1  0  0  0  0
 31 29  1  1  0  0  0
 31 28  1  0  0  0  0
 33 32  1  0  0  0  0
 34 33  1  0  0  0  0
 36 35  1  6  0  0  0
 36 34  1  0  0  0  0
 37 36  1  0  0  0  0
M  END
>  <MODEL>
1

>  <REMARK>
 VINA RESULT:      -6.9      0.000      0.000
  Name = 
  11 active torsions:
  status: ('A' for Active; 'I' for Inactive)
    1  A    between atoms: N_1  and  C_9
    2  A    between atoms: C_3  and  C_16
    3  A    between atoms: C_4  and  C_6
    4  A    between atoms: C_4  and  O_25
    5  A    between atoms: C_6  and  C_12
    6  A    between atoms: C_7  and  C_15
    7  A    between atoms: C_7  and  C_18
    8  A    between atoms: C_16  and  C_18
    9  A    between atoms: C_17  and  O_25
   10  A    between atoms: C_18  and  C_21
   11  A    between atoms: C_19  and  C_33
                            x       y       z     vdW  Elec       q    Type
                         _______ _______ _______ _____ _____    ______ ____

>  <TORSDO>
F 11

$$$$
=
 OpenBabel11072410133D

 37 41  0  0  1  0  0  0  0  0999 V2000
  161.5340  209.8370  151.8760 C   0  0  1  0  0  3  0  0  0  0  0  0
  160.4180  207.5600  151.6370 N   0  0  0  0  0  0  0  0  0  0  0  0
  160.4730  208.7660  152.1190 C   0  0  0  0  0  3  0  0  0  0  0  0
  161.2730  206.9490  150.6200 C   0  0  1  0  0  0  0  0  0  0  0  0
  160.8420  207.6170  148.3080 C   0  0  0  0  0  2  0  0  0  0  0  0
  163.0900  207.7850  149.3290 C   0  0  0  0  0  2  0  0  0  0  0  0
  163.6500  206.9610  150.3080 O   0  0  0  0  0  0  0  0  0  0  0  0
  160.5190  206.1370  148.3890 C   0  0  2  0  0  3  0  0  0  0  0  0
  162.6310  206.5930  151.1920 C   0  0  0  0  0  2  0  0  0  0  0  0
  160.5590  205.8190  149.8830 C   0  0  1  0  0  3  0  0  0  0  0  0
  161.5460  205.4040  147.5250 C   0  0  0  0  0  1  0  0  0  0  0  0
  161.6150  207.9810  149.5650 C   0  0  2  0  0  3  0  0  0  0  0  0
  160.7900  203.3280  149.3050 C   0  0  0  0  0  3  0  0  0  0  0  0
  160.8590  200.9560  148.7550 O   0  0  0  0  0  1  0  0  0  0  0  0
  160.8330  204.3740  150.2530 C   0  0  0  0  0  0  0  0  0  0  0  0
  160.9230  201.9790  149.6920 C   0  0  0  0  0  0  0  0  0  0  0  0
  160.9960  204.0370  151.6030 C   0  0  0  0  0  3  0  0  0  0  0  0
  161.0990  201.6580  151.0450 C   0  0  0  0  0  3  0  0  0  0  0  0
  161.1380  202.6920  151.9880 C   0  0  0  0  0  3  0  0  0  0  0  0
  160.8490  211.1940  151.6340 C   0  0  0  0  0  2  0  0  0  0  0  0
  162.0940  211.3040  149.4340 N   0  0  0  0  0  0  0  0  0  0  0  0
  161.1710  211.8720  150.2650 C   0  0  0  0  0  0  0  0  0  0  0  0
  162.3680  211.8540  148.2160 C   0  0  0  0  0  3  0  0  0  0  0  0
  160.8100  213.5880  148.6230 C   0  0  0  0  0  3  0  0  0  0  0  0
  161.7340  212.9990  147.8120 N   0  0  0  0  0  0  0  0  0  0  0  0
  160.5080  213.0240  149.8850 C   0  0  0  0  0  3  0  0  0  0  0  0
  162.1700  210.0110  153.2600 C   0  0  0  0  0  2  0  0  0  0  0  0
  161.2240  210.6440  154.2810 C   0  0  1  0  0  3  0  0  0  0  0  0
  163.2510  210.7190  155.6520 O   0  0  0  0  0  1  0  0  0  0  0  0
  161.1210  209.6690  155.4440 C   0  0  1  0  0  3  0  0  0  0  0  0
  161.8670  210.9740  155.6410 C   0  0  2  0  0  3  0  0  0  0  0  0
  159.8620  209.7670  156.0310 O   0  0  0  0  0  0  0  0  0  0  0  0
  159.3590  210.9750  155.5670 C   0  0  0  0  0  2  0  0  0  0  0  0
  157.8360  210.9540  155.6110 C   0  0  0  0  0  2  0  0  0  0  0  0
  158.0330  212.6260  153.7390 C   0  0  0  0  0  1  0  0  0  0  0  0
  157.1820  211.5520  154.3730 C   0  0  2  0  0  3  0  0  0  0  0  0
  155.9110  212.0510  154.6640 O   0  0  0  0  0  1  0  0  0  0  0  0
  1 20  1  1  0  0  0
  1  3  1  0  0  0  0
  1 27  1  0  0  0  0
  2  3  2  0  0  0  0
  4  9  1  0  0  0  0
  4  2  1  1  0  0  0
  5  8  1  0  0  0  0
  6 12  1  0  0  0  0
  6  7  1  0  0  0  0
  7  9  1  0  0  0  0
  8 11  1  6  0  0  0
  8 10  1  0  0  0  0
 10 15  1  6  0  0  0
 10  4  1  0  0  0  0
 12  5  1  6  0  0  0
 12  4  1  0  0  0  0
 13 16  2  0  0  0  0
 13 15  1  0  0  0  0
 14 16  1  0  0  0  0
 15 17  2  0  0  0  0
 16 18  1  0  0  0  0
 17 19  1  0  0  0  0
 18 19  2  0  0  0  0
 21 22  1  0  0  0  0
 22 20  1  0  0  0  0
 23 21  2  0  0  0  0
 24 26  1  0  0  0  0
 25 23  1  0  0  0  0
 25 24  2  0  0  0  0
 26 22  2  0  0  0  0
 28 27  1  6  0  0  0
 28 30  1  0  0  0  0
 28 31  1  0  0  0  0
 30 31  1  0  0  0  0
 30 32  1  1  0  0  0
 31 29  1  6  0  0  0
 33 34  1  0  0  0  0
 33 32  1  0  0  0  0
 36 35  1  1  0  0  0
 36 37  1  0  0  0  0
 36 34  1  0  0  0  0
M  END
>  <MODEL>
2

>  <REMARK>
 VINA RESULT:      -6.6      2.571      8.722
  Name = 
  11 active torsions:
  status: ('A' for Active; 'I' for Inactive)
    1  A    between atoms: N_1  and  C_9
    2  A    between atoms: C_3  and  C_16
    3  A    between atoms: C_4  and  C_6
    4  A    between atoms: C_4  and  O_25
    5  A    between atoms: C_6  and  C_12
    6  A    between atoms: C_7  and  C_15
    7  A    between atoms: C_7  and  C_18
    8  A    between atoms: C_16  and  C_18
    9  A    between atoms: C_17  and  O_25
   10  A    between atoms: C_18  and  C_21
   11  A    between atoms: C_19  and  C_33
                            x       y       z     vdW  Elec       q    Type
                         _______ _______ _______ _____ _____    ______ ____

>  <TORSDO>
F 11

$$$$
=
 OpenBabel11072410133D

 37 41  0  0  1  0  0  0  0  0999 V2000
  161.5310  210.0540  151.5480 C   0  0  1  0  0  3  0  0  0  0  0  0
  160.5390  207.7100  151.6460 N   0  0  0  0  0  0  0  0  0  0  0  0
  160.5710  208.9590  152.0070 C   0  0  0  0  0  3  0  0  0  0  0  0
  161.3150  207.0470  150.5990 C   0  0  1  0  0  0  0  0  0  0  0  0
  160.7240  207.6160  148.2960 C   0  0  0  0  0  2  0  0  0  0  0  0
  163.0410  207.8080  149.1470 C   0  0  0  0  0  2  0  0  0  0  0  0
  163.6640  207.0230  150.1190 O   0  0  0  0  0  0  0  0  0  0  0  0
  160.3980  206.1440  148.4670 C   0  0  2  0  0  3  0  0  0  0  0  0
  162.7090  206.7040  151.0890 C   0  0  0  0  0  2  0  0  0  0  0  0
  160.5430  205.8920  149.9670 C   0  0  1  0  0  3  0  0  0  0  0  0
  161.3570  205.3640  147.5660 C   0  0  0  0  0  1  0  0  0  0  0  0
  161.5870  208.0280  149.4780 C   0  0  2  0  0  3  0  0  0  0  0  0
  160.7750  203.3840  149.4710 C   0  0  0  0  0  3  0  0  0  0  0  0
  160.8460  200.9940  149.0030 O   0  0  0  0  0  1  0  0  0  0  0  0
  160.8350  204.4620  150.3810 C   0  0  0  0  0  0  0  0  0  0  0  0
  160.9260  202.0490  149.9010 C   0  0  0  0  0  0  0  0  0  0  0  0
  161.0310  204.1730  151.7380 C   0  0  0  0  0  3  0  0  0  0  0  0
  161.1350  201.7770  151.2600 C   0  0  0  0  0  3  0  0  0  0  0  0
  161.1900  202.8430  152.1650 C   0  0  0  0  0  3  0  0  0  0  0  0
  160.7300  211.3110  151.1620 C   0  0  0  0  0  2  0  0  0  0  0  0
  160.6540  213.2390  149.5260 N   0  0  0  0  0  0  0  0  0  0  0  0
  161.2070  212.0370  149.8660 C   0  0  0  0  0  0  0  0  0  0  0  0
  161.0780  213.9130  148.4180 C   0  0  0  0  0  3  0  0  0  0  0  0
  162.6210  212.1880  147.9290 C   0  0  0  0  0  3  0  0  0  0  0  0
  162.0540  213.3870  147.6150 N   0  0  0  0  0  0  0  0  0  0  0  0
  162.1990  211.4810  149.0800 C   0  0  0  0  0  3  0  0  0  0  0  0
  162.2260  210.4690  152.8490 C   0  0  0  0  0  2  0  0  0  0  0  0
  161.6510  209.7760  154.0850 C   0  0  1  0  0  3  0  0  0  0  0  0
  160.6150  211.9640  154.4490 O   0  0  0  0  0  1  0  0  0  0  0  0
  162.2630  210.4650  155.2950 C   0  0  1  0  0  3  0  0  0  0  0  0
  160.7930  210.6780  154.9930 C   0  0  2  0  0  3  0  0  0  0  0  0
  162.3890  209.5550  156.3420 O   0  0  0  0  0  0  0  0  0  0  0  0
  161.0820  209.3050  156.7400 C   0  0  0  0  0  2  0  0  0  0  0  0
  160.9410  207.8520  157.1750 C   0  0  0  0  0  2  0  0  0  0  0  0
  160.9700  206.6350  154.9710 C   0  0  0  0  0  1  0  0  0  0  0  0
  160.1560  206.9940  156.1910 C   0  0  2  0  0  3  0  0  0  0  0  0
  158.9660  207.6180  155.8130 O   0  0  0  0  0  1  0  0  0  0  0  0
  1 20  1  1  0  0  0
  1  3  1  0  0  0  0
  1 27  1  0  0  0  0
  2  3  2  0  0  0  0
  4  9  1  0  0  0  0
  4  2  1  1  0  0  0
  5  8  1  0  0  0  0
  6 12  1  0  0  0  0
  6  7  1  0  0  0  0
  7  9  1  0  0  0  0
  8 11  1  6  0  0  0
  8 10  1  0  0  0  0
 10 15  1  6  0  0  0
 10  4  1  0  0  0  0
 12  5  1  6  0  0  0
 12  4  1  0  0  0  0
 13 16  2  0  0  0  0
 13 15  1  0  0  0  0
 14 16  1  0  0  0  0
 15 17  2  0  0  0  0
 16 18  1  0  0  0  0
 17 19  1  0  0  0  0
 18 19  2  0  0  0  0
 21 22  1  0  0  0  0
 22 20  1  0  0  0  0
 23 21  2  0  0  0  0
 24 26  1  0  0  0  0
 25 24  2  0  0  0  0
 25 23  1  0  0  0  0
 26 22  2  0  0  0  0
 28 27  1  6  0  0  0
 28 31  1  0  0  0  0
 28 30  1  0  0  0  0
 30 32  1  1  0  0  0
 31 29  1  6  0  0  0
 31 30  1  0  0  0  0
 32 33  1  0  0  0  0
 33 34  1  0  0  0  0
 36 35  1  6  0  0  0
 36 34  1  0  0  0  0
 37 36  1  0  0  0  0
M  END
>  <MODEL>
3

>  <REMARK>
 VINA RESULT:      -6.3      2.713      8.517
  Name = 
  11 active torsions:
  status: ('A' for Active; 'I' for Inactive)
    1  A    between atoms: N_1  and  C_9
    2  A    between atoms: C_3  and  C_16
    3  A    between atoms: C_4  and  C_6
    4  A    between atoms: C_4  and  O_25
    5  A    between atoms: C_6  and  C_12
    6  A    between atoms: C_7  and  C_15
    7  A    between atoms: C_7  and  C_18
    8  A    between atoms: C_16  and  C_18
    9  A    between atoms: C_17  and  O_25
   10  A    between atoms: C_18  and  C_21
   11  A    between atoms: C_19  and  C_33
                            x       y       z     vdW  Elec       q    Type
                         _______ _______ _______ _____ _____    ______ ____

>  <TORSDO>
F 11

$$$$
=
 OpenBabel11072410133D

 37 41  0  0  1  0  0  0  0  0999 V2000
  161.7660  206.6430  149.9830 C   0  0  1  0  0  3  0  0  0  0  0  0
  160.5620  206.4990  147.7420 N   0  0  0  0  0  0  0  0  0  0  0  0
  160.7930  207.0720  148.8860 C   0  0  0  0  0  3  0  0  0  0  0  0
  161.2710  205.3770  147.1300 C   0  0  1  0  0  0  0  0  0  0  0  0
  160.6510  204.8380  144.8270 C   0  0  0  0  0  2  0  0  0  0  0  0
  162.9970  205.2600  145.4950 C   0  0  0  0  0  2  0  0  0  0  0  0
  163.6010  204.9830  146.7240 O   0  0  0  0  0  0  0  0  0  0  0  0
  160.2480  203.6410  145.6660 C   0  0  2  0  0  3  0  0  0  0  0  0
  162.6550  205.2160  147.7280 C   0  0  0  0  0  2  0  0  0  0  0  0
  160.4180  204.1110  147.1110 C   0  0  1  0  0  3  0  0  0  0  0  0
  161.1360  202.4710  145.2380 C   0  0  0  0  0  1  0  0  0  0  0  0
  161.5680  205.7000  145.6810 C   0  0  2  0  0  3  0  0  0  0  0  0
  160.7030  203.3020  149.5300 C   0  0  0  0  0  3  0  0  0  0  0  0
  161.1160  202.5840  151.8220 O   0  0  0  0  0  1  0  0  0  0  0  0
  160.6390  203.0250  148.1470 C   0  0  0  0  0  0  0  0  0  0  0  0
  161.0340  202.2990  150.4650 C   0  0  0  0  0  0  0  0  0  0  0  0
  160.9310  201.7240  147.7170 C   0  0  0  0  0  3  0  0  0  0  0  0
  161.3110  200.9990  150.0220 C   0  0  0  0  0  3  0  0  0  0  0  0
  161.2510  200.7230  148.6500 C   0  0  0  0  0  3  0  0  0  0  0  0
  162.8200  207.7440  150.1930 C   0  0  0  0  0  2  0  0  0  0  0  0
  162.2840  209.6270  148.5910 N   0  0  0  0  0  0  0  0  0  0  0  0
  162.3420  209.1970  149.8860 C   0  0  0  0  0  0  0  0  0  0  0  0
  161.8350  210.8800  148.2910 C   0  0  0  0  0  3  0  0  0  0  0  0
  161.4990  211.3350  150.5880 C   0  0  0  0  0  3  0  0  0  0  0  0
  161.4490  211.7370  149.2870 N   0  0  0  0  0  0  0  0  0  0  0  0
  161.9540  210.0360  150.9140 C   0  0  0  0  0  3  0  0  0  0  0  0
  160.9120  206.7310  151.2530 C   0  0  0  0  0  2  0  0  0  0  0  0
  161.7340  207.0070  152.5120 C   0  0  1  0  0  3  0  0  0  0  0  0
  160.8090  204.8520  153.2150 O   0  0  0  0  0  1  0  0  0  0  0  0
  160.7400  207.1950  153.6480 C   0  0  1  0  0  3  0  0  0  0  0  0
  161.5980  205.9460  153.6200 C   0  0  2  0  0  3  0  0  0  0  0  0
  161.2590  208.0860  154.5850 O   0  0  0  0  0  0  0  0  0  0  0  0
  160.7220  209.3150  154.2260 C   0  0  0  0  0  2  0  0  0  0  0  0
  161.7290  210.4230  154.5060 C   0  0  0  0  0  2  0  0  0  0  0  0
  161.3710  211.2010  156.8740 C   0  0  0  0  0  1  0  0  0  0  0  0
  162.2580  210.4190  155.9340 C   0  0  2  0  0  3  0  0  0  0  0  0
  163.5670  210.9030  155.9890 O   0  0  0  0  0  1  0  0  0  0  0  0
  1  3  1  6  0  0  0
  1 20  1  0  0  0  0
  1 27  1  0  0  0  0
  2  3  2  0  0  0  0
  4  9  1  0  0  0  0
  4  2  1  1  0  0  0
  5  8  1  0  0  0  0
  6 12  1  0  0  0  0
  6  7  1  0  0  0  0
  7  9  1  0  0  0  0
  8 11  1  6  0  0  0
  8 10  1  0  0  0  0
 10  4  1  0  0  0  0
 10 15  1  1  0  0  0
 12  5  1  6  0  0  0
 12  4  1  0  0  0  0
 13 16  1  0  0  0  0
 15 13  2  0  0  0  0
 16 14  1  0  0  0  0
 17 15  1  0  0  0  0
 17 19  2  0  0  0  0
 18 16  2  0  0  0  0
 19 18  1  0  0  0  0
 21 22  1  0  0  0  0
 22 20  1  0  0  0  0
 22 26  2  0  0  0  0
 23 21  2  0  0  0  0
 23 25  1  0  0  0  0
 24 26  1  0  0  0  0
 25 24  2  0  0  0  0
 28 27  1  6  0  0  0
 28 31  1  0  0  0  0
 28 30  1  0  0  0  0
 30 32  1  1  0  0  0
 31 29  1  6  0  0  0
 31 30  1  0  0  0  0
 33 34  1  0  0  0  0
 33 32  1  0  0  0  0
 34 36  1  0  0  0  0
 36 37  1  0  0  0  0
 36 35  1  1  0  0  0
M  END
>  <MODEL>
4

>  <REMARK>
 VINA RESULT:      -6.1      2.824      9.374
  Name = 
  11 active torsions:
  status: ('A' for Active; 'I' for Inactive)
    1  A    between atoms: N_1  and  C_9
    2  A    between atoms: C_3  and  C_16
    3  A    between atoms: C_4  and  C_6
    4  A    between atoms: C_4  and  O_25
    5  A    between atoms: C_6  and  C_12
    6  A    between atoms: C_7  and  C_15
    7  A    between atoms: C_7  and  C_18
    8  A    between atoms: C_16  and  C_18
    9  A    between atoms: C_17  and  O_25
   10  A    between atoms: C_18  and  C_21
   11  A    between atoms: C_19  and  C_33
                            x       y       z     vdW  Elec       q    Type
                         _______ _______ _______ _____ _____    ______ ____

>  <TORSDO>
F 11

$$$$
=
 OpenBabel11072410133D

 37 41  0  0  1  0  0  0  0  0999 V2000
  161.9250  207.3760  152.6410 C   0  0  1  0  0  3  0  0  0  0  0  0
  160.0830  207.9220  154.3140 N   0  0  0  0  0  0  0  0  0  0  0  0
  160.6860  207.1120  153.4950 C   0  0  0  0  0  3  0  0  0  0  0  0
  160.5060  209.2510  154.7520 C   0  0  1  0  0  0  0  0  0  0  0  0
  161.5030  209.3850  156.9800 C   0  0  0  0  0  2  0  0  0  0  0  0
  162.6470  210.2700  154.9710 C   0  0  0  0  0  2  0  0  0  0  0  0
  162.0650  210.8220  153.8280 O   0  0  0  0  0  0  0  0  0  0  0  0
  160.2150  210.1840  157.0430 C   0  0  2  0  0  3  0  0  0  0  0  0
  160.8830  210.1200  153.5680 C   0  0  0  0  0  2  0  0  0  0  0  0
  159.5070  209.8720  155.7250 C   0  0  1  0  0  3  0  0  0  0  0  0
  160.6040  211.6480  157.2590 C   0  0  0  0  0  1  0  0  0  0  0  0
  161.8120  209.1390  155.5120 C   0  0  2  0  0  3  0  0  0  0  0  0
  157.4160  211.3310  156.0240 C   0  0  0  0  0  3  0  0  0  0  0  0
  155.3480  212.5940  156.2790 O   0  0  0  0  0  1  0  0  0  0  0  0
  158.5110  210.9070  155.2390 C   0  0  0  0  0  0  0  0  0  0  0  0
  156.4320  212.1980  155.5060 C   0  0  0  0  0  0  0  0  0  0  0  0
  158.5890  211.3570  153.9140 C   0  0  0  0  0  3  0  0  0  0  0  0
  156.5310  212.6510  154.1840 C   0  0  0  0  0  3  0  0  0  0  0  0
  157.6130  212.2290  153.4010 C   0  0  0  0  0  3  0  0  0  0  0  0
  162.6400  206.0440  152.3490 C   0  0  0  0  0  2  0  0  0  0  0  0
  161.5680  204.8790  150.3760 N   0  0  0  0  0  0  0  0  0  0  0  0
  161.7470  204.9250  151.7300 C   0  0  0  0  0  0  0  0  0  0  0  0
  160.8220  203.8900  149.8040 C   0  0  0  0  0  3  0  0  0  0  0  0
  160.3830  202.9570  151.9340 C   0  0  0  0  0  3  0  0  0  0  0  0
  160.2230  202.9340  150.5810 N   0  0  0  0  0  0  0  0  0  0  0  0
  161.1610  203.9710  152.5410 C   0  0  0  0  0  3  0  0  0  0  0  0
  161.3290  207.7560  151.2810 C   0  0  0  0  0  2  0  0  0  0  0  0
  162.3890  208.0660  150.2250 C   0  0  1  0  0  3  0  0  0  0  0  0
  161.4320  210.3140  150.3690 O   0  0  0  0  0  1  0  0  0  0  0  0
  161.6420  208.4140  148.9460 C   0  0  1  0  0  3  0  0  0  0  0  0
  162.3720  209.5120  149.6950 C   0  0  2  0  0  3  0  0  0  0  0  0
  162.3990  208.0330  147.8400 O   0  0  0  0  0  0  0  0  0  0  0  0
  162.2510  206.6540  147.7810 C   0  0  0  0  0  2  0  0  0  0  0  0
  161.2470  206.2850  146.6980 C   0  0  0  0  0  2  0  0  0  0  0  0
  162.9900  204.9780  145.4370 C   0  0  0  0  0  1  0  0  0  0  0  0
  161.5790  204.9860  145.9730 C   0  0  2  0  0  3  0  0  0  0  0  0
  160.6680  204.7330  144.9460 O   0  0  0  0  0  1  0  0  0  0  0  0
  1 27  1  6  0  0  0
  1  3  1  0  0  0  0
  3  2  2  0  0  0  0
  4  2  1  6  0  0  0
  4 12  1  0  0  0  0
  4 10  1  0  0  0  0
  5  8  1  0  0  0  0
  7  6  1  0  0  0  0
  8 11  1  6  0  0  0
  9  7  1  0  0  0  0
  9  4  1  0  0  0  0
 10 15  1  6  0  0  0
 10  8  1  0  0  0  0
 12  6  1  6  0  0  0
 12  5  1  0  0  0  0
 15 13  2  0  0  0  0
 16 13  1  0  0  0  0
 16 14  1  0  0  0  0
 17 15  1  0  0  0  0
 18 16  2  0  0  0  0
 19 17  2  0  0  0  0
 19 18  1  0  0  0  0
 20  1  1  0  0  0  0
 21 22  1  0  0  0  0
 22 20  1  0  0  0  0
 22 26  2  0  0  0  0
 23 21  2  0  0  0  0
 23 25  1  0  0  0  0
 24 26  1  0  0  0  0
 25 24  2  0  0  0  0
 28 27  1  1  0  0  0
 30 32  1  6  0  0  0
 30 31  1  0  0  0  0
 30 28  1  0  0  0  0
 31 28  1  0  0  0  0
 31 29  1  1  0  0  0
 33 32  1  0  0  0  0
 34 33  1  0  0  0  0
 36 35  1  6  0  0  0
 36 34  1  0  0  0  0
 37 36  1  0  0  0  0
M  END
>  <MODEL>
5

>  <REMARK>
 VINA RESULT:      -6.0      1.610      2.031
  Name = 
  11 active torsions:
  status: ('A' for Active; 'I' for Inactive)
    1  A    between atoms: N_1  and  C_9
    2  A    between atoms: C_3  and  C_16
    3  A    between atoms: C_4  and  C_6
    4  A    between atoms: C_4  and  O_25
    5  A    between atoms: C_6  and  C_12
    6  A    between atoms: C_7  and  C_15
    7  A    between atoms: C_7  and  C_18
    8  A    between atoms: C_16  and  C_18
    9  A    between atoms: C_17  and  O_25
   10  A    between atoms: C_18  and  C_21
   11  A    between atoms: C_19  and  C_33
                            x       y       z     vdW  Elec       q    Type
                         _______ _______ _______ _____ _____    ______ ____

>  <TORSDO>
F 11

$$$$
=
 OpenBabel11072410133D

 37 41  0  0  1  0  0  0  0  0999 V2000
  161.5460  209.4300  151.7260 C   0  0  1  0  0  3  0  0  0  0  0  0
  162.6640  210.4220  153.7900 N   0  0  0  0  0  0  0  0  0  0  0  0
  162.6050  210.2050  152.5090 C   0  0  0  0  0  3  0  0  0  0  0  0
  161.6630  210.1120  154.8100 C   0  0  1  0  0  0  0  0  0  0  0  0
  161.2070  207.7410  155.1870 C   0  0  0  0  0  2  0  0  0  0  0  0
  161.8330  209.2700  157.0300 C   0  0  0  0  0  2  0  0  0  0  0  0
  161.5460  210.6320  157.1480 O   0  0  0  0  0  0  0  0  0  0  0  0
  159.9230  208.3380  154.6430 C   0  0  2  0  0  3  0  0  0  0  0  0
  161.6130  211.1960  155.8700 C   0  0  0  0  0  2  0  0  0  0  0  0
  160.3180  209.7440  154.1910 C   0  0  1  0  0  3  0  0  0  0  0  0
  158.8830  208.2680  155.7630 C   0  0  0  0  0  1  0  0  0  0  0  0
  162.1060  208.8960  155.5960 C   0  0  2  0  0  3  0  0  0  0  0  0
  158.9360  211.5330  152.9730 C   0  0  0  0  0  3  0  0  0  0  0  0
  157.7380  213.3270  151.8410 O   0  0  0  0  0  1  0  0  0  0  0  0
  159.1990  210.7670  154.1300 C   0  0  0  0  0  0  0  0  0  0  0  0
  157.9760  212.5650  152.9770 C   0  0  0  0  0  0  0  0  0  0  0  0
  158.4910  211.0700  155.3000 C   0  0  0  0  0  3  0  0  0  0  0  0
  157.2640  212.8480  154.1520 C   0  0  0  0  0  3  0  0  0  0  0  0
  157.5260  212.0930  155.3010 C   0  0  0  0  0  3  0  0  0  0  0  0
  161.7660  209.6410  150.2180 C   0  0  0  0  0  2  0  0  0  0  0  0
  160.8210  211.9810  150.4000 N   0  0  0  0  0  0  0  0  0  0  0  0
  161.6290  211.1140  149.7210 C   0  0  0  0  0  0  0  0  0  0  0  0
  160.7110  213.2840  150.0100 C   0  0  0  0  0  3  0  0  0  0  0  0
  162.2080  212.8980  148.2180 C   0  0  0  0  0  3  0  0  0  0  0  0
  161.3970  213.7420  148.9170 N   0  0  0  0  0  0  0  0  0  0  0  0
  162.3390  211.5460  148.6160 C   0  0  0  0  0  3  0  0  0  0  0  0
  161.9630  207.9700  151.9380 C   0  0  0  0  0  2  0  0  0  0  0  0
  160.8810  206.9700  151.5280 C   0  0  1  0  0  3  0  0  0  0  0  0
  162.1970  205.4460  152.9200 O   0  0  0  0  0  1  0  0  0  0  0  0
  161.5640  205.9160  150.6710 C   0  0  1  0  0  3  0  0  0  0  0  0
  161.0870  205.5400  152.0590 C   0  0  2  0  0  3  0  0  0  0  0  0
  160.6660  205.4220  149.7270 O   0  0  0  0  0  0  0  0  0  0  0  0
  160.5150  206.4600  148.8190 C   0  0  0  0  0  2  0  0  0  0  0  0
  161.6650  206.4490  147.8210 C   0  0  0  0  0  2  0  0  0  0  0  0
  162.6970  205.0910  145.9690 C   0  0  0  0  0  1  0  0  0  0  0  0
  161.4130  205.5610  146.6090 C   0  0  2  0  0  3  0  0  0  0  0  0
  160.6110  206.2090  145.6670 O   0  0  0  0  0  1  0  0  0  0  0  0
  1 20  1  6  0  0  0
  1 27  1  0  0  0  0
  1  3  1  0  0  0  0
  3  2  2  0  0  0  0
  4  2  1  6  0  0  0
  4 12  1  0  0  0  0
  4  9  1  0  0  0  0
  6  7  1  0  0  0  0
  8  5  1  0  0  0  0
  8 11  1  1  0  0  0
  9  7  1  0  0  0  0
 10 15  1  1  0  0  0
 10  8  1  0  0  0  0
 10  4  1  0  0  0  0
 12  5  1  6  0  0  0
 12  6  1  0  0  0  0
 13 16  2  0  0  0  0
 13 15  1  0  0  0  0
 14 16  1  0  0  0  0
 15 17  2  0  0  0  0
 16 18  1  0  0  0  0
 17 19  1  0  0  0  0
 18 19  2  0  0  0  0
 22 20  1  0  0  0  0
 22 21  2  0  0  0  0
 23 21  1  0  0  0  0
 24 26  2  0  0  0  0
 24 25  1  0  0  0  0
 25 23  2  0  0  0  0
 26 22  1  0  0  0  0
 28 27  1  1  0  0  0
 28 31  1  0  0  0  0
 30 32  1  6  0  0  0
 30 28  1  0  0  0  0
 30 31  1  0  0  0  0
 31 29  1  1  0  0  0
 33 32  1  0  0  0  0
 34 33  1  0  0  0  0
 36 35  1  6  0  0  0
 36 34  1  0  0  0  0
 37 36  1  0  0  0  0
M  END
>  <MODEL>
6

>  <REMARK>
 VINA RESULT:      -5.7      2.572      4.474
  Name = 
  11 active torsions:
  status: ('A' for Active; 'I' for Inactive)
    1  A    between atoms: N_1  and  C_9
    2  A    between atoms: C_3  and  C_16
    3  A    between atoms: C_4  and  C_6
    4  A    between atoms: C_4  and  O_25
    5  A    between atoms: C_6  and  C_12
    6  A    between atoms: C_7  and  C_15
    7  A    between atoms: C_7  and  C_18
    8  A    between atoms: C_16  and  C_18
    9  A    between atoms: C_17  and  O_25
   10  A    between atoms: C_18  and  C_21
   11  A    between atoms: C_19  and  C_33
                            x       y       z     vdW  Elec       q    Type
                         _______ _______ _______ _____ _____    ______ ____

>  <TORSDO>
F 11

$$$$
=
 OpenBabel11072410133D

 37 41  0  0  1  0  0  0  0  0999 V2000
  160.9930  208.8880  151.8240 C   0  0  1  0  0  3  0  0  0  0  0  0
  161.5350  207.9080  154.1120 N   0  0  0  0  0  0  0  0  0  0  0  0
  161.4160  207.8110  152.8210 C   0  0  0  0  0  3  0  0  0  0  0  0
  161.4400  209.1070  154.9440 C   0  0  1  0  0  0  0  0  0  0  0  0
  160.7140  208.7590  157.2530 C   0  0  0  0  0  2  0  0  0  0  0  0
  162.8040  209.9630  156.6970 C   0  0  0  0  0  2  0  0  0  0  0  0
  163.0660  210.7530  155.5750 O   0  0  0  0  0  0  0  0  0  0  0  0
  159.6330  209.5900  156.5880 C   0  0  2  0  0  3  0  0  0  0  0  0
  162.4170  210.1710  154.4810 C   0  0  0  0  0  2  0  0  0  0  0  0
  159.9950  209.5730  155.1040 C   0  0  1  0  0  3  0  0  0  0  0  0
  159.6440  210.9640  157.2600 C   0  0  0  0  0  1  0  0  0  0  0  0
  161.9310  208.7880  156.3410 C   0  0  2  0  0  3  0  0  0  0  0  0
  159.5930  212.0730  154.6820 C   0  0  0  0  0  3  0  0  0  0  0  0
  159.0960  214.4390  154.3790 O   0  0  0  0  0  1  0  0  0  0  0  0
  159.4690  210.7270  154.2720 C   0  0  0  0  0  0  0  0  0  0  0  0
  158.9870  213.1200  153.9580 C   0  0  0  0  0  0  0  0  0  0  0  0
  158.7100  210.4500  153.1280 C   0  0  0  0  0  3  0  0  0  0  0  0
  158.2410  212.8290  152.8070 C   0  0  0  0  0  3  0  0  0  0  0  0
  158.1140  211.4960  152.4010 C   0  0  0  0  0  3  0  0  0  0  0  0
  162.2220  209.7160  151.4090 C   0  0  0  0  0  2  0  0  0  0  0  0
  162.4560  210.7990  149.1340 N   0  0  0  0  0  0  0  0  0  0  0  0
  161.9420  210.8710  150.3980 C   0  0  0  0  0  0  0  0  0  0  0  0
  162.1960  211.7760  148.2190 C   0  0  0  0  0  3  0  0  0  0  0  0
  160.9050  212.9580  149.8100 C   0  0  0  0  0  3  0  0  0  0  0  0
  161.4280  212.8580  148.5560 N   0  0  0  0  0  0  0  0  0  0  0  0
  161.1580  211.9480  150.7680 C   0  0  0  0  0  3  0  0  0  0  0  0
  160.6750  208.0800  150.5600 C   0  0  0  0  0  2  0  0  0  0  0  0
  161.7770  207.0900  150.1860 C   0  0  1  0  0  3  0  0  0  0  0  0
  161.3860  207.9770  147.9390 O   0  0  0  0  0  1  0  0  0  0  0  0
  161.1330  206.0360  149.2980 C   0  0  1  0  0  3  0  0  0  0  0  0
  162.1060  207.0230  148.6830 C   0  0  2  0  0  3  0  0  0  0  0  0
  161.7750  204.8120  149.4780 O   0  0  0  0  0  0  0  0  0  0  0  0
  161.3020  204.0200  148.4410 C   0  0  0  0  0  2  0  0  0  0  0  0
  160.5400  202.8270  149.0050 C   0  0  0  0  0  2  0  0  0  0  0  0
  161.0170  200.5940  147.9460 C   0  0  0  0  0  1  0  0  0  0  0  0
  161.3650  201.5480  149.0630 C   0  0  2  0  0  3  0  0  0  0  0  0
  161.2300  200.9160  150.3000 O   0  0  0  0  0  1  0  0  0  0  0  0
  1 27  1  6  0  0  0
  1  3  1  0  0  0  0
  3  2  2  0  0  0  0
  4  2  1  6  0  0  0
  4 10  1  0  0  0  0
  4 12  1  0  0  0  0
  7  6  1  0  0  0  0
  8  5  1  0  0  0  0
  8 11  1  1  0  0  0
  9  4  1  0  0  0  0
  9  7  1  0  0  0  0
 10 15  1  1  0  0  0
 10  8  1  0  0  0  0
 12  6  1  1  0  0  0
 12  5  1  0  0  0  0
 15 13  1  0  0  0  0
 16 14  1  0  0  0  0
 16 13  2  0  0  0  0
 17 15  2  0  0  0  0
 18 16  1  0  0  0  0
 19 18  2  0  0  0  0
 19 17  1  0  0  0  0
 20  1  1  0  0  0  0
 21 22  1  0  0  0  0
 22 26  2  0  0  0  0
 22 20  1  0  0  0  0
 23 25  1  0  0  0  0
 23 21  2  0  0  0  0
 24 26  1  0  0  0  0
 25 24  2  0  0  0  0
 28 27  1  6  0  0  0
 30 32  1  1  0  0  0
 30 28  1  0  0  0  0
 31 29  1  6  0  0  0
 31 30  1  0  0  0  0
 31 28  1  0  0  0  0
 33 34  1  0  0  0  0
 33 32  1  0  0  0  0
 34 36  1  0  0  0  0
 36 35  1  6  0  0  0
 36 37  1  0  0  0  0
M  END
>  <MODEL>
7

>  <REMARK>
 VINA RESULT:      -5.7      2.487      4.078
  Name = 
  11 active torsions:
  status: ('A' for Active; 'I' for Inactive)
    1  A    between atoms: N_1  and  C_9
    2  A    between atoms: C_3  and  C_16
    3  A    between atoms: C_4  and  C_6
    4  A    between atoms: C_4  and  O_25
    5  A    between atoms: C_6  and  C_12
    6  A    between atoms: C_7  and  C_15
    7  A    between atoms: C_7  and  C_18
    8  A    between atoms: C_16  and  C_18
    9  A    between atoms: C_17  and  O_25
   10  A    between atoms: C_18  and  C_21
   11  A    between atoms: C_19  and  C_33
                            x       y       z     vdW  Elec       q    Type
                         _______ _______ _______ _____ _____    ______ ____

>  <TORSDO>
F 11

$$$$
=
 OpenBabel11072410133D

 37 41  0  0  1  0  0  0  0  0999 V2000
  161.6010  209.4210  151.7370 C   0  0  1  0  0  3  0  0  0  0  0  0
  162.7250  210.3640  153.8190 N   0  0  0  0  0  0  0  0  0  0  0  0
  162.6730  210.1580  152.5360 C   0  0  0  0  0  3  0  0  0  0  0  0
  161.7060  210.0760  154.8270 C   0  0  1  0  0  0  0  0  0  0  0  0
  161.2160  207.7130  155.2200 C   0  0  0  0  0  2  0  0  0  0  0  0
  161.8310  209.2540  157.0570 C   0  0  0  0  0  2  0  0  0  0  0  0
  161.5580  210.6200  157.1580 O   0  0  0  0  0  0  0  0  0  0  0  0
  159.9480  208.3200  154.6500 C   0  0  2  0  0  3  0  0  0  0  0  0
  161.6520  211.1710  155.8750 C   0  0  0  0  0  2  0  0  0  0  0  0
  160.3660  209.7170  154.1900 C   0  0  1  0  0  3  0  0  0  0  0  0
  158.8900  208.2730  155.7550 C   0  0  0  0  0  1  0  0  0  0  0  0
  162.1220  208.8630  155.6320 C   0  0  2  0  0  3  0  0  0  0  0  0
  159.0040  211.4870  152.9240 C   0  0  0  0  0  3  0  0  0  0  0  0
  157.8270  213.2640  151.7440 O   0  0  0  0  0  1  0  0  0  0  0  0
  159.2600  210.7510  154.1020 C   0  0  0  0  0  0  0  0  0  0  0  0
  158.0570  212.5320  152.9010 C   0  0  0  0  0  0  0  0  0  0  0  0
  158.5570  211.0970  155.2640 C   0  0  0  0  0  3  0  0  0  0  0  0
  157.3520  212.8570  154.0680 C   0  0  0  0  0  3  0  0  0  0  0  0
  157.6060  212.1320  155.2380 C   0  0  0  0  0  3  0  0  0  0  0  0
  161.8670  209.6010  150.2320 C   0  0  0  0  0  2  0  0  0  0  0  0
  160.8400  211.9120  150.3000 N   0  0  0  0  0  0  0  0  0  0  0  0
  161.7200  211.0590  149.6960 C   0  0  0  0  0  0  0  0  0  0  0  0
  160.7170  213.2030  149.8750 C   0  0  0  0  0  3  0  0  0  0  0  0
  162.3470  212.8330  148.2000 C   0  0  0  0  0  3  0  0  0  0  0  0
  161.4630  213.6630  148.8230 N   0  0  0  0  0  0  0  0  0  0  0  0
  162.4920  211.4940  148.6350 C   0  0  0  0  0  3  0  0  0  0  0  0
  161.9460  207.9470  151.9770 C   0  0  0  0  0  2  0  0  0  0  0  0
  160.9700  206.9820  151.3040 C   0  0  1  0  0  3  0  0  0  0  0  0
  161.9090  205.3950  152.9140 O   0  0  0  0  0  1  0  0  0  0  0  0
  161.8120  205.9340  150.5940 C   0  0  1  0  0  3  0  0  0  0  0  0
  161.0250  205.5350  151.8270 C   0  0  2  0  0  3  0  0  0  0  0  0
  161.1440  205.4830  149.4580 O   0  0  0  0  0  0  0  0  0  0  0  0
  160.8740  204.1470  149.7240 C   0  0  0  0  0  2  0  0  0  0  0  0
  161.2040  203.2980  148.5040 C   0  0  0  0  0  2  0  0  0  0  0  0
  160.5420  201.3280  149.9240 C   0  0  0  0  0  1  0  0  0  0  0  0
  160.5670  201.9140  148.5330 C   0  0  2  0  0  3  0  0  0  0  0  0
  161.2100  201.0440  147.6510 O   0  0  0  0  0  1  0  0  0  0  0  0
  1 20  1  6  0  0  0
  1 27  1  0  0  0  0
  1  3  1  0  0  0  0
  3  2  2  0  0  0  0
  4  2  1  6  0  0  0
  4 12  1  0  0  0  0
  4  9  1  0  0  0  0
  6  7  1  0  0  0  0
  8  5  1  0  0  0  0
  8 11  1  1  0  0  0
  9  7  1  0  0  0  0
 10 15  1  1  0  0  0
 10  8  1  0  0  0  0
 10  4  1  0  0  0  0
 12  5  1  6  0  0  0
 12  6  1  0  0  0  0
 13 15  1  0  0  0  0
 14 16  1  0  0  0  0
 15 17  2  0  0  0  0
 16 13  2  0  0  0  0
 16 18  1  0  0  0  0
 18 19  2  0  0  0  0
 19 17  1  0  0  0  0
 22 20  1  0  0  0  0
 22 21  2  0  0  0  0
 23 21  1  0  0  0  0
 24 26  2  0  0  0  0
 24 25  1  0  0  0  0
 25 23  2  0  0  0  0
 26 22  1  0  0  0  0
 28 31  1  0  0  0  0
 28 27  1  1  0  0  0
 30 32  1  6  0  0  0
 30 28  1  0  0  0  0
 30 31  1  0  0  0  0
 31 29  1  1  0  0  0
 32 33  1  0  0  0  0
 34 36  1  0  0  0  0
 34 33  1  0  0  0  0
 36 35  1  1  0  0  0
 37 36  1  0  0  0  0
M  END
>  <MODEL>
8

>  <REMARK>
 VINA RESULT:      -5.7      2.770      4.630
  Name = 
  11 active torsions:
  status: ('A' for Active; 'I' for Inactive)
    1  A    between atoms: N_1  and  C_9
    2  A    between atoms: C_3  and  C_16
    3  A    between atoms: C_4  and  C_6
    4  A    between atoms: C_4  and  O_25
    5  A    between atoms: C_6  and  C_12
    6  A    between atoms: C_7  and  C_15
    7  A    between atoms: C_7  and  C_18
    8  A    between atoms: C_16  and  C_18
    9  A    between atoms: C_17  and  O_25
   10  A    between atoms: C_18  and  C_21
   11  A    between atoms: C_19  and  C_33
                            x       y       z     vdW  Elec       q    Type
                         _______ _______ _______ _____ _____    ______ ____

>  <TORSDO>
F 11

$$$$
=
 OpenBabel11072410133D

 37 41  0  0  1  0  0  0  0  0999 V2000
  161.6220  207.3580  152.6430 C   0  0  1  0  0  3  0  0  0  0  0  0
  160.1210  207.9060  154.6270 N   0  0  0  0  0  0  0  0  0  0  0  0
  160.6030  207.0800  153.7460 C   0  0  0  0  0  3  0  0  0  0  0  0
  160.5290  209.2840  154.8980 C   0  0  1  0  0  0  0  0  0  0  0  0
  161.3600  209.7380  157.1520 C   0  0  0  0  0  2  0  0  0  0  0  0
  162.6620  210.3170  155.1280 C   0  0  0  0  0  2  0  0  0  0  0  0
  162.1740  210.6980  153.8760 O   0  0  0  0  0  0  0  0  0  0  0  0
  160.0820  210.5420  157.0000 C   0  0  2  0  0  3  0  0  0  0  0  0
  161.0050  209.9700  153.6310 C   0  0  0  0  0  2  0  0  0  0  0  0
  159.4700  210.0430  155.6920 C   0  0  1  0  0  3  0  0  0  0  0  0
  160.4740  212.0200  157.0300 C   0  0  0  0  0  1  0  0  0  0  0  0
  161.7730  209.2790  155.7620 C   0  0  2  0  0  3  0  0  0  0  0  0
  158.9700  211.9180  154.0100 C   0  0  0  0  0  3  0  0  0  0  0  0
  158.5510  213.7940  152.5140 O   0  0  0  0  0  1  0  0  0  0  0  0
  158.5270  210.9990  154.9870 C   0  0  0  0  0  0  0  0  0  0  0  0
  158.1010  212.8820  153.4590 C   0  0  0  0  0  0  0  0  0  0  0  0
  157.1950  211.0780  155.4130 C   0  0  0  0  0  3  0  0  0  0  0  0
  156.7670  212.9400  153.8860 C   0  0  0  0  0  3  0  0  0  0  0  0
  156.3260  212.0330  154.8570 C   0  0  0  0  0  3  0  0  0  0  0  0
  162.4920  206.1070  152.4200 C   0  0  0  0  0  2  0  0  0  0  0  0
  161.7800  204.9040  150.3110 N   0  0  0  0  0  0  0  0  0  0  0  0
  161.7900  204.9280  151.6770 C   0  0  0  0  0  0  0  0  0  0  0  0
  161.2060  203.8670  149.6360 C   0  0  0  0  0  3  0  0  0  0  0  0
  160.6070  202.8360  151.6800 C   0  0  0  0  0  3  0  0  0  0  0  0
  160.6140  202.8370  150.3180 N   0  0  0  0  0  0  0  0  0  0  0  0
  161.2060  203.9010  152.3950 C   0  0  0  0  0  3  0  0  0  0  0  0
  160.7560  207.4100  151.3790 C   0  0  0  0  0  2  0  0  0  0  0  0
  160.8900  208.7250  150.6110 C   0  0  1  0  0  3  0  0  0  0  0  0
  161.8720  207.2700  148.9050 O   0  0  0  0  0  1  0  0  0  0  0  0
  162.3800  208.9960  150.4680 C   0  0  1  0  0  3  0  0  0  0  0  0
  161.5810  208.6060  149.2400 C   0  0  2  0  0  3  0  0  0  0  0  0
  162.6090  210.3700  150.4490 O   0  0  0  0  0  0  0  0  0  0  0  0
  161.9140  210.8190  149.3340 C   0  0  0  0  0  2  0  0  0  0  0  0
  162.7060  211.9160  148.6360 C   0  0  0  0  0  2  0  0  0  0  0  0
  161.4330  214.0190  148.0910 C   0  0  0  0  0  1  0  0  0  0  0  0
  161.9030  212.6760  147.5870 C   0  0  2  0  0  3  0  0  0  0  0  0
  160.8200  211.9200  147.1360 O   0  0  0  0  0  1  0  0  0  0  0  0
  1 27  1  6  0  0  0
  1  3  1  0  0  0  0
  3  2  2  0  0  0  0
  4  2  1  6  0  0  0
  4 10  1  0  0  0  0
  4 12  1  0  0  0  0
  7  6  1  0  0  0  0
  8 11  1  6  0  0  0
  8  5  1  0  0  0  0
  9  7  1  0  0  0  0
  9  4  1  0  0  0  0
 10 15  1  6  0  0  0
 10  8  1  0  0  0  0
 12  6  1  6  0  0  0
 12  5  1  0  0  0  0
 13 15  1  0  0  0  0
 14 16  1  0  0  0  0
 15 17  2  0  0  0  0
 16 18  1  0  0  0  0
 16 13  2  0  0  0  0
 18 19  2  0  0  0  0
 19 17  1  0  0  0  0
 20  1  1  0  0  0  0
 21 22  1  0  0  0  0
 22 26  2  0  0  0  0
 22 20  1  0  0  0  0
 23 21  2  0  0  0  0
 23 25  1  0  0  0  0
 24 26  1  0  0  0  0
 25 24  2  0  0  0  0
 28 27  1  1  0  0  0
 30 32  1  6  0  0  0
 30 28  1  0  0  0  0
 31 29  1  1  0  0  0
 31 30  1  0  0  0  0
 31 28  1  0  0  0  0
 33 32  1  0  0  0  0
 34 33  1  0  0  0  0
 36 35  1  1  0  0  0
 36 34  1  0  0  0  0
 37 36  1  0  0  0  0
M  END
>  <MODEL>
9

>  <REMARK>
 VINA RESULT:      -5.6      1.981      3.382
  Name = 
  11 active torsions:
  status: ('A' for Active; 'I' for Inactive)
    1  A    between atoms: N_1  and  C_9
    2  A    between atoms: C_3  and  C_16
    3  A    between atoms: C_4  and  C_6
    4  A    between atoms: C_4  and  O_25
    5  A    between atoms: C_6  and  C_12
    6  A    between atoms: C_7  and  C_15
    7  A    between atoms: C_7  and  C_18
    8  A    between atoms: C_16  and  C_18
    9  A    between atoms: C_17  and  O_25
   10  A    between atoms: C_18  and  C_21
   11  A    between atoms: C_19  and  C_33
                            x       y       z     vdW  Elec       q    Type
                         _______ _______ _______ _____ _____    ______ ____

>  <TORSDO>
F 11

$$$$
