=
 OpenBabel11072411093D

 46 50  0  0  1  0  0  0  0  0999 V2000
  161.7030  209.5510  150.3960 C   0  0  0  0  0  0  0  0  0  0  0  0
  161.2320  204.3160  149.8760 C   0  0  2  0  0  3  0  0  0  0  0  0
  160.6300  205.4200  154.4560 O   0  0  0  0  0  0  0  0  0  0  0  0
  161.2630  206.3320  153.4390 S   0  0  0  0  0  0  0  0  0  0  0  0
  160.7200  205.9590  151.8140 N   0  0  2  0  0  0  0  0  0  0  0  0
  162.7580  206.1910  153.5050 O   0  0  0  0  0  0  0  0  0  0  0  0
  162.5820  210.7530  150.4330 C   0  0  0  0  0  2  0  0  0  0  0  0
  162.0560  205.5760  146.9020 N   0  0  0  0  0  0  0  0  0  0  0  0
  162.3080  209.9810  148.2590 N   0  0  0  0  0  0  0  0  0  0  0  0
  160.1170  204.2480  146.8850 O   0  0  0  0  0  0  0  0  0  0  0  0
  160.8270  208.0330  153.8250 C   0  0  2  0  0  3  0  0  0  0  0  0
  161.5770  209.1510  149.1450 C   0  0  0  0  0  0  0  0  0  0  0  0
  161.4040  208.9560  152.8180 C   0  0  0  0  0  0  0  0  0  0  0  0
  160.5730  208.2750  156.3130 C   0  0  0  0  0  1  0  0  0  0  0  0
  162.0720  209.8820  154.9060 C   0  0  1  0  0  3  0  0  0  0  0  0
  161.1360  208.8080  151.5230 C   0  0  0  0  0  3  0  0  0  0  0  0
  162.6790  206.4910  147.8400 C   0  0  0  0  0  2  0  0  0  0  0  0
  161.6640  206.6550  148.9830 C   0  0  1  0  0  3  0  0  0  0  0  0
  161.4980  208.4610  155.1190 C   0  0  2  0  0  3  0  0  0  0  0  0
  161.8450  203.8360  152.2760 O   0  0  0  0  0  1  0  0  0  0  0  0
  160.9100  205.0080  147.5030 C   0  0  0  0  0  0  0  0  0  0  0  0
  159.7210  204.8680  151.8790 C   0  0  0  0  0  2  0  0  0  0  0  0
  162.8810  210.8980  148.9710 C   0  0  0  0  0  3  0  0  0  0  0  0
  162.3150  209.9710  153.4000 C   0  0  0  0  0  2  0  0  0  0  0  0
  161.0620  204.5820  151.3870 C   0  0  2  0  0  0  0  0  0  0  0  0
  160.8420  207.9160  148.7160 C   0  0  0  0  0  2  0  0  0  0  0  0
  160.7300  205.4280  148.9190 C   0  0  1  0  0  3  0  0  0  0  0  0
  163.1540  204.0150  145.5260 O   0  0  0  0  0  1  0  0  0  0  0  0
  162.5430  205.2720  145.5590 C   0  0  1  0  0  3  0  0  0  0  0  0
  161.4000  205.3430  144.5470 C   0  0  1  0  0  3  0  0  0  0  0  0
  160.4720  206.4990  144.8740 C   0  0  0  0  0  1  0  0  0  0  0  0
  161.8970  205.4860  143.2480 O   0  0  0  0  0  1  0  0  0  0  0  0
  160.6220  202.9530  149.5400 C   0  0  0  0  0  2  0  0  0  0  0  0
  161.6980  201.8850  149.4310 C   0  0  0  0  0  3  0  0  0  0  0  0
  161.6010  200.9530  150.6190 C   0  0  0  0  0  1  0  0  0  0  0  0
  161.5120  201.0890  148.1560 C   0  0  0  0  0  1  0  0  0  0  0  0
  161.1310  211.0210  155.3630 C   0  0  1  0  0  3  0  0  0  0  0  0
  158.9310  211.7770  154.3550 C   0  0  0  0  0  0  0  0  0  0  0  0
  159.7640  210.7630  154.9250 N   0  0  0  0  0  2  0  0  0  0  0  0
  159.3650  212.9480  154.2000 O   0  0  0  0  0  0  0  0  0  0  0  0
  157.5390  211.4530  153.9340 C   0  0  2  0  0  3  0  0  0  0  0  0
  156.9610  212.5620  153.3180 O   0  0  0  0  0  1  0  0  0  0  0  0
  156.7080  211.0330  155.1350 C   0  0  0  0  0  2  0  0  0  0  0  0
  155.5970  210.3270  154.7130 F   0  0  0  0  0  0  0  0  0  0  0  0
  161.1560  211.2430  156.8830 C   0  0  0  0  0  2  0  0  0  0  0  0
  160.8140  212.6760  157.2600 C   0  0  0  0  0  1  0  0  0  0  0  0
  1  7  1  0  0  0  0
  1 16  1  0  0  0  0
  2 33  1  6  0  0  0
  2 25  1  0  0  0  0
  4  6  2  0  0  0  0
  4 11  1  0  0  0  0
  4  3  2  0  0  0  0
  5 22  1  1  0  0  0
  5  4  1  0  0  0  0
  8 21  1  0  0  0  0
  8 17  1  0  0  0  0
  9 23  2  0  0  0  0
  9 12  1  0  0  0  0
 10 21  2  0  0  0  0
 11 13  1  6  0  0  0
 11 19  1  0  0  0  0
 12  1  2  0  0  0  0
 13 24  1  0  0  0  0
 15 19  1  0  0  0  0
 15 37  1  6  0  0  0
 16 13  2  0  0  0  0
 18 17  1  6  0  0  0
 19 14  1  1  0  0  0
 23  7  1  0  0  0  0
 24 15  1  0  0  0  0
 25  5  1  0  0  0  0
 25 22  1  0  0  0  0
 25 20  1  1  0  0  0
 26 18  1  0  0  0  0
 26 12  1  0  0  0  0
 27 21  1  6  0  0  0
 27 18  1  0  0  0  0
 27  2  1  0  0  0  0
 29 28  1  1  0  0  0
 29  8  1  0  0  0  0
 30 31  1  1  0  0  0
 30 29  1  0  0  0  0
 32 30  1  0  0  0  0
 34 33  1  0  0  0  0
 34 35  1  0  0  0  0
 36 34  1  0  0  0  0
 37 45  1  1  0  0  0
 38 39  1  0  0  0  0
 39 37  1  0  0  0  0
 40 38  2  0  0  0  0
 41 42  1  1  0  0  0
 41 38  1  0  0  0  0
 41 43  1  0  0  0  0
 44 43  1  0  0  0  0
 45 46  1  0  0  0  0
M  END
>  <MODEL>
1

>  <REMARK>
 VINA RESULT:      -3.0      0.000      0.000
  Name = 
  9 active torsions:
  status: ('A' for Active; 'I' for Inactive)
    1  A    between atoms: C_1  and  C_2
    2  A    between atoms: C_2  and  C_5
    3  A    between atoms: C_3  and  C_12
    4  A    between atoms: C_3  and  C_29
    5  A    between atoms: C_3  and  N_31
    6  A    between atoms: C_6  and  C_34
    7  A    between atoms: C_10  and  C_18
    8  A    between atoms: N_16  and  C_34
    9  A    between atoms: C_17  and  C_18
                            x       y       z     vdW  Elec       q    Type
                         _______ _______ _______ _____ _____    ______ ____

>  <TORSDO>
F 9

$$$$
=
 OpenBabel11072411093D

 46 50  0  0  1  0  0  0  0  0999 V2000
  161.8600  209.0260  149.1430 C   0  0  0  0  0  0  0  0  0  0  0  0
  161.1040  208.0390  154.2770 C   0  0  2  0  0  3  0  0  0  0  0  0
  161.4970  203.8880  152.0010 O   0  0  0  0  0  0  0  0  0  0  0  0
  161.2070  205.2020  151.3260 S   0  0  0  0  0  0  0  0  0  0  0  0
  161.8030  206.5550  152.2690 N   0  0  2  0  0  0  0  0  0  0  0  0
  159.7230  205.3470  151.1350 O   0  0  0  0  0  0  0  0  0  0  0  0
  161.2970  209.4580  147.8330 C   0  0  0  0  0  3  0  0  0  0  0  0
  160.9060  211.3340  153.8220 N   0  0  0  0  0  0  0  0  0  0  0  0
  161.5910  211.2690  149.2580 N   0  0  0  0  0  0  0  0  0  0  0  0
  162.4600  210.6760  155.4580 O   0  0  0  0  0  0  0  0  0  0  0  0
  161.9990  205.2200  149.7130 C   0  0  2  0  0  3  0  0  0  0  0  0
  162.0090  210.0850  149.9150 C   0  0  1  0  0  3  0  0  0  0  0  0
  161.7650  206.5180  149.0350 C   0  0  0  0  0  0  0  0  0  0  0  0
  162.0570  202.8810  148.7950 C   0  0  0  0  0  1  0  0  0  0  0  0
  161.1370  204.8940  147.4130 C   0  0  1  0  0  3  0  0  0  0  0  0
  162.1170  207.6630  149.6140 C   0  0  0  0  0  3  0  0  0  0  0  0
  160.4320  210.7920  152.5620 C   0  0  0  0  0  2  0  0  0  0  0  0
  161.3390  209.5840  152.2740 C   0  0  1  0  0  3  0  0  0  0  0  0
  161.3270  204.2170  148.7910 C   0  0  2  0  0  3  0  0  0  0  0  0
  160.1580  205.7320  153.8830 O   0  0  0  0  0  1  0  0  0  0  0  0
  161.8170  210.4240  154.4040 C   0  0  0  0  0  0  0  0  0  0  0  0
  162.4970  206.0370  153.4690 C   0  0  0  0  0  2  0  0  0  0  0  0
  161.1890  210.9330  148.0740 C   0  0  0  0  0  3  0  0  0  0  0  0
  161.0730  206.3880  147.7310 C   0  0  0  0  0  2  0  0  0  0  0  0
  161.1820  206.6470  153.6110 C   0  0  2  0  0  0  0  0  0  0  0  0
  162.4630  210.0410  151.3440 C   0  0  0  0  0  2  0  0  0  0  0  0
  161.9510  209.1620  153.6270 C   0  0  1  0  0  3  0  0  0  0  0  0
  159.6170  213.2850  153.5570 O   0  0  0  0  0  1  0  0  0  0  0  0
  160.4960  212.6080  154.4080 C   0  0  1  0  0  3  0  0  0  0  0  0
  159.8570  212.3850  155.7780 C   0  0  1  0  0  3  0  0  0  0  0  0
  160.0370  213.6110  156.6550 C   0  0  0  0  0  1  0  0  0  0  0  0
  158.4970  212.0900  155.6480 O   0  0  0  0  0  1  0  0  0  0  0  0
  161.3970  207.8920  155.7720 C   0  0  0  0  0  2  0  0  0  0  0  0
  160.1410  208.1100  156.5980 C   0  0  0  0  0  3  0  0  0  0  0  0
  159.0240  208.5890  155.6950 C   0  0  0  0  0  1  0  0  0  0  0  0
  159.7230  206.8140  157.2610 C   0  0  0  0  0  1  0  0  0  0  0  0
  162.2740  204.6110  146.4050 C   0  0  1  0  0  3  0  0  0  0  0  0
  160.9020  202.5870  145.7360 C   0  0  0  0  0  0  0  0  0  0  0  0
  162.1570  203.2610  145.8660 N   0  0  0  0  0  2  0  0  0  0  0  0
  159.8330  203.1560  146.0790 O   0  0  0  0  0  0  0  0  0  0  0  0
  160.8480  201.2040  145.1840 C   0  0  2  0  0  3  0  0  0  0  0  0
  159.5960  200.9690  144.6180 O   0  0  0  0  0  1  0  0  0  0  0  0
  161.1230  200.1880  146.2800 C   0  0  0  0  0  2  0  0  0  0  0  0
  161.2420  198.9260  145.7310 F   0  0  0  0  0  0  0  0  0  0  0  0
  162.3180  205.6270  145.2530 C   0  0  0  0  0  2  0  0  0  0  0  0
  161.2310  205.3730  144.2210 C   0  0  0  0  0  1  0  0  0  0  0  0
  1 16  1  0  0  0  0
  1 12  1  0  0  0  0
  2 33  1  1  0  0  0
  4  3  2  0  0  0  0
  4  5  1  0  0  0  0
  5 22  1  1  0  0  0
  5 25  1  0  0  0  0
  6  4  2  0  0  0  0
  7 23  1  0  0  0  0
  7  1  2  0  0  0  0
  8 21  1  0  0  0  0
  8 29  1  0  0  0  0
  9 12  1  0  0  0  0
 11 13  1  6  0  0  0
 11  4  1  0  0  0  0
 12 26  1  1  0  0  0
 13 16  2  0  0  0  0
 15 37  1  6  0  0  0
 15 24  1  0  0  0  0
 15 19  1  0  0  0  0
 17  8  1  0  0  0  0
 18 26  1  6  0  0  0
 18 17  1  0  0  0  0
 18 27  1  0  0  0  0
 19 14  1  6  0  0  0
 19 11  1  0  0  0  0
 21 10  2  0  0  0  0
 22 25  1  0  0  0  0
 23  9  2  0  0  0  0
 24 13  1  0  0  0  0
 25 20  1  1  0  0  0
 25  2  1  0  0  0  0
 27  2  1  0  0  0  0
 27 21  1  1  0  0  0
 29 28  1  6  0  0  0
 29 30  1  0  0  0  0
 30 31  1  1  0  0  0
 32 30  1  0  0  0  0
 33 34  1  0  0  0  0
 34 36  1  0  0  0  0
 35 34  1  0  0  0  0
 37 45  1  6  0  0  0
 38 39  1  0  0  0  0
 38 40  2  0  0  0  0
 39 37  1  0  0  0  0
 41 42  1  1  0  0  0
 41 38  1  0  0  0  0
 41 43  1  0  0  0  0
 44 43  1  0  0  0  0
 46 45  1  0  0  0  0
M  END
>  <MODEL>
2

>  <REMARK>
 VINA RESULT:      -3.0      2.910      9.246
  Name = 
  9 active torsions:
  status: ('A' for Active; 'I' for Inactive)
    1  A    between atoms: C_1  and  C_2
    2  A    between atoms: C_2  and  C_5
    3  A    between atoms: C_3  and  C_12
    4  A    between atoms: C_3  and  C_29
    5  A    between atoms: C_3  and  N_31
    6  A    between atoms: C_6  and  C_34
    7  A    between atoms: C_10  and  C_18
    8  A    between atoms: N_16  and  C_34
    9  A    between atoms: C_17  and  C_18
                            x       y       z     vdW  Elec       q    Type
                         _______ _______ _______ _____ _____    ______ ____

>  <TORSDO>
F 9

$$$$
=
 OpenBabel11072411093D

 46 50  0  0  1  0  0  0  0  0999 V2000
  160.7060  205.3960  151.7830 C   0  0  0  0  0  0  0  0  0  0  0  0
  162.1210  210.2130  150.1390 C   0  0  2  0  0  3  0  0  0  0  0  0
  162.0200  207.3210  146.3730 O   0  0  0  0  0  0  0  0  0  0  0  0
  162.0680  206.8520  147.8020 S   0  0  0  0  0  0  0  0  0  0  0  0
  161.4080  208.0530  148.8960 N   0  0  2  0  0  0  0  0  0  0  0  0
  163.4920  206.5630  148.1850 O   0  0  0  0  0  0  0  0  0  0  0  0
  161.0660  204.1340  152.4850 C   0  0  0  0  0  3  0  0  0  0  0  0
  161.8480  210.2960  153.4600 N   0  0  0  0  0  0  0  0  0  0  0  0
  160.6970  205.8590  153.9970 N   0  0  0  0  0  0  0  0  0  0  0  0
  160.5740  211.9250  152.3440 O   0  0  0  0  0  0  0  0  0  0  0  0
  161.1130  205.3360  147.9540 C   0  0  2  0  0  3  0  0  0  0  0  0
  160.5060  206.3440  152.6790 C   0  0  1  0  0  3  0  0  0  0  0  0
  161.1070  204.8660  149.3600 C   0  0  0  0  0  0  0  0  0  0  0  0
  161.2560  204.0520  145.7990 C   0  0  0  0  0  1  0  0  0  0  0  0
  161.7610  202.9500  148.1100 C   0  0  1  0  0  3  0  0  0  0  0  0
  160.6760  205.6540  150.3410 C   0  0  0  0  0  3  0  0  0  0  0  0
  162.2510  208.9290  153.1900 C   0  0  0  0  0  2  0  0  0  0  0  0
  161.4810  208.5210  151.9230 C   0  0  1  0  0  3  0  0  0  0  0  0
  161.8060  204.2080  147.2090 C   0  0  2  0  0  3  0  0  0  0  0  0
  163.3060  209.3640  148.0790 O   0  0  0  0  0  1  0  0  0  0  0  0
  161.1280  210.7940  152.3510 C   0  0  0  0  0  0  0  0  0  0  0  0
  160.9160  209.2040  148.1070 C   0  0  0  0  0  2  0  0  0  0  0  0
  161.0120  204.6060  153.9070 C   0  0  0  0  0  3  0  0  0  0  0  0
  161.6680  203.5050  149.5300 C   0  0  0  0  0  2  0  0  0  0  0  0
  162.1510  209.3340  148.8700 C   0  0  2  0  0  0  0  0  0  0  0  0
  160.2150  207.7780  152.3520 C   0  0  0  0  0  2  0  0  0  0  0  0
  161.0740  209.8320  151.2170 C   0  0  1  0  0  3  0  0  0  0  0  0
  161.0280  211.7520  155.1170 O   0  0  0  0  0  1  0  0  0  0  0  0
  162.1530  211.0490  154.6740 C   0  0  1  0  0  3  0  0  0  0  0  0
  162.6710  210.1140  155.7670 C   0  0  1  0  0  3  0  0  0  0  0  0
  163.4750  210.8910  156.7940 C   0  0  0  0  0  1  0  0  0  0  0  0
  161.6120  209.4530  156.3950 O   0  0  0  0  0  1  0  0  0  0  0  0
  162.0100  211.6820  149.7250 C   0  0  0  0  0  2  0  0  0  0  0  0
  162.1210  211.8340  148.2180 C   0  0  0  0  0  3  0  0  0  0  0  0
  160.9120  212.5830  147.6990 C   0  0  0  0  0  1  0  0  0  0  0  0
  163.3750  212.6070  147.8650 C   0  0  0  0  0  1  0  0  0  0  0  0
  160.5680  202.0080  147.8250 C   0  0  1  0  0  3  0  0  0  0  0  0
  160.5340  200.4540  145.8220 C   0  0  0  0  0  0  0  0  0  0  0  0
  161.0170  200.8130  147.1200 N   0  0  0  0  0  2  0  0  0  0  0  0
  159.6970  201.1830  145.2290 O   0  0  0  0  0  0  0  0  0  0  0  0
  161.0240  199.2150  145.1560 C   0  0  2  0  0  3  0  0  0  0  0  0
  159.9560  198.3540  144.9110 O   0  0  0  0  0  1  0  0  0  0  0  0
  162.0610  198.5240  146.0250 C   0  0  0  0  0  2  0  0  0  0  0  0
  163.0090  197.9090  145.2280 F   0  0  0  0  0  0  0  0  0  0  0  0
  159.8090  201.6050  149.0980 C   0  0  0  0  0  2  0  0  0  0  0  0
  160.6320  200.6930  149.9940 C   0  0  0  0  0  1  0  0  0  0  0  0
  1  7  2  0  0  0  0
  1 12  1  0  0  0  0
  2 33  1  6  0  0  0
  2 27  1  0  0  0  0
  3  4  2  0  0  0  0
  4 11  1  0  0  0  0
  4  6  2  0  0  0  0
  4  5  1  0  0  0  0
  5 22  1  6  0  0  0
  7 23  1  0  0  0  0
  8 29  1  0  0  0  0
 10 21  2  0  0  0  0
 11 13  1  1  0  0  0
 12 26  1  6  0  0  0
 12  9  1  0  0  0  0
 13 24  1  0  0  0  0
 13 16  2  0  0  0  0
 15 37  1  6  0  0  0
 15 24  1  0  0  0  0
 16  1  1  0  0  0  0
 17  8  1  0  0  0  0
 18 26  1  1  0  0  0
 18 17  1  0  0  0  0
 19 14  1  6  0  0  0
 19 11  1  0  0  0  0
 19 15  1  0  0  0  0
 21  8  1  0  0  0  0
 22 25  1  0  0  0  0
 23  9  2  0  0  0  0
 25 20  1  6  0  0  0
 25  5  1  0  0  0  0
 25  2  1  0  0  0  0
 27 18  1  0  0  0  0
 27 21  1  1  0  0  0
 29 28  1  1  0  0  0
 29 30  1  0  0  0  0
 30 32  1  0  0  0  0
 30 31  1  1  0  0  0
 34 33  1  0  0  0  0
 35 34  1  0  0  0  0
 36 34  1  0  0  0  0
 37 45  1  1  0  0  0
 38 39  1  0  0  0  0
 39 37  1  0  0  0  0
 40 38  2  0  0  0  0
 41 42  1  1  0  0  0
 41 38  1  0  0  0  0
 41 43  1  0  0  0  0
 44 43  1  0  0  0  0
 45 46  1  0  0  0  0
M  END
>  <MODEL>
3

>  <REMARK>
 VINA RESULT:      -0.2      3.646     10.056
  Name = 
  9 active torsions:
  status: ('A' for Active; 'I' for Inactive)
    1  A    between atoms: C_1  and  C_2
    2  A    between atoms: C_2  and  C_5
    3  A    between atoms: C_3  and  C_12
    4  A    between atoms: C_3  and  C_29
    5  A    between atoms: C_3  and  N_31
    6  A    between atoms: C_6  and  C_34
    7  A    between atoms: C_10  and  C_18
    8  A    between atoms: N_16  and  C_34
    9  A    between atoms: C_17  and  C_18
                            x       y       z     vdW  Elec       q    Type
                         _______ _______ _______ _____ _____    ______ ____

>  <TORSDO>
F 9

$$$$
