=
 OpenBabel11072412223D

 27 29  0  0  1  0  0  0  0  0999 V2000
  161.4910  206.7930  151.0310 N   0  0  0  0  0  0  0  0  0  0  0  0
  161.7150  207.9280  151.9370 C   0  0  1  0  0  3  0  0  0  0  0  0
  161.8360  209.2430  151.2100 C   0  0  0  0  0  3  0  0  0  0  0  0
  161.7230  206.8320  149.7520 C   0  0  0  0  0  0  0  0  0  0  0  0
  162.0940  208.1110  149.1350 C   0  0  0  0  0  0  0  0  0  0  0  0
  162.4000  208.1770  147.9160 O   0  0  0  0  0  0  0  0  0  0  0  0
  161.5340  205.6730  148.9260 N   0  0  0  0  0  2  0  0  0  0  0  0
  162.0490  209.2980  149.9290 N   0  0  0  0  0  0  0  0  0  0  0  0
  160.7250  201.6910  150.1400 C   0  0  0  0  0  3  0  0  0  0  0  0
  161.2500  204.3340  149.3600 C   0  0  0  0  0  0  0  0  0  0  0  0
  160.7680  202.7040  151.0990 C   0  0  0  0  0  3  0  0  0  0  0  0
  160.9480  201.9930  148.7930 C   0  0  0  0  0  0  0  0  0  0  0  0
  160.9090  200.9860  147.8400 O   0  0  0  0  0  1  0  0  0  0  0  0
  161.2110  203.3110  148.4070 C   0  0  0  0  0  3  0  0  0  0  0  0
  161.0310  204.0210  150.7120 C   0  0  0  0  0  3  0  0  0  0  0  0
  160.6100  208.0140  152.9780 C   0  0  0  0  0  2  0  0  0  0  0  0
  160.6400  209.6580  156.2680 N   0  0  0  0  0  0  0  0  0  0  0  0
  160.5020  207.0890  155.5490 S   0  0  0  0  0  0  0  0  0  0  0  0
  159.8960  208.4480  156.5830 C   0  0  0  0  0  2  0  0  0  0  0  0
  161.1840  208.2760  154.3610 C   0  0  2  0  0  3  0  0  0  0  0  0
  160.8110  209.6700  154.8210 C   0  0  2  0  0  3  0  0  0  0  0  0
  161.9190  210.6350  154.4330 C   0  0  0  0  0  1  0  0  0  0  0  0
  159.7730  210.7750  156.6180 C   0  0  0  0  0  2  0  0  0  0  0  0
  158.5280  210.7660  155.7470 C   0  0  0  0  0  2  0  0  0  0  0  0
  158.0990  212.1870  155.4250 C   0  0  0  0  0  2  0  0  0  0  0  0
  158.3210  211.4080  153.1800 O   0  0  0  0  0  1  0  0  0  0  0  0
  158.4590  212.5330  153.9920 C   0  0  0  0  0  2  0  0  0  0  0  0
  1  2  1  0  0  0  0
  2 16  1  1  0  0  0
  3  2  1  0  0  0  0
  4  1  2  0  0  0  0
  5  4  1  0  0  0  0
  5  8  1  0  0  0  0
  6  5  2  0  0  0  0
  7 10  1  0  0  0  0
  7  4  1  0  0  0  0
  8  3  2  0  0  0  0
  9 11  1  0  0  0  0
 10 15  1  0  0  0  0
 12  9  2  0  0  0  0
 13 12  1  0  0  0  0
 14 12  1  0  0  0  0
 14 10  2  0  0  0  0
 15 11  2  0  0  0  0
 17 19  1  0  0  0  0
 17 23  1  0  0  0  0
 18 19  1  0  0  0  0
 20 16  1  6  0  0  0
 20 21  1  0  0  0  0
 20 18  1  0  0  0  0
 21 22  1  1  0  0  0
 21 17  1  0  0  0  0
 24 23  1  0  0  0  0
 25 24  1  0  0  0  0
 26 27  1  0  0  0  0
 27 25  1  0  0  0  0
M  END
>  <MODEL>
1

>  <REMARK>
 VINA RESULT:      -7.2      0.000      0.000
  Name = 
  7 active torsions:
  status: ('A' for Active; 'I' for Inactive)
    1  A    between atoms: N_1  and  C_18
    2  A    between atoms: C_5  and  C_6
    3  A    between atoms: C_6  and  C_14
    4  A    between atoms: C_7  and  N_25
    5  A    between atoms: C_8  and  C_10
    6  A    between atoms: C_8  and  C_18
    7  A    between atoms: C_10  and  C_22
                            x       y       z     vdW  Elec       q    Type
                         _______ _______ _______ _____ _____    ______ ____

>  <TORSDO>
F 7

$$$$
=
 OpenBabel11072412223D

 27 29  0  0  1  0  0  0  0  0999 V2000
  160.4790  210.7690  152.5340 N   0  0  0  0  0  0  0  0  0  0  0  0
  161.2280  209.5850  152.9770 C   0  0  1  0  0  3  0  0  0  0  0  0
  161.2610  209.4400  154.4780 C   0  0  0  0  0  3  0  0  0  0  0  0
  160.1830  211.7700  153.3090 C   0  0  0  0  0  0  0  0  0  0  0  0
  160.4790  211.6690  154.7440 C   0  0  0  0  0  0  0  0  0  0  0  0
  160.2770  212.6430  155.5150 O   0  0  0  0  0  0  0  0  0  0  0  0
  159.4930  212.9240  152.8050 N   0  0  0  0  0  2  0  0  0  0  0  0
  160.9490  210.4250  155.2660 N   0  0  0  0  0  0  0  0  0  0  0  0
  158.5290  213.8280  148.7750 C   0  0  0  0  0  3  0  0  0  0  0  0
  159.1930  213.2240  151.4340 C   0  0  0  0  0  0  0  0  0  0  0  0
  159.8670  213.8220  149.1750 C   0  0  0  0  0  3  0  0  0  0  0  0
  157.5220  213.5370  149.7010 C   0  0  0  0  0  0  0  0  0  0  0  0
  156.1930  213.5460  149.3040 O   0  0  0  0  0  1  0  0  0  0  0  0
  157.8550  213.2380  151.0260 C   0  0  0  0  0  3  0  0  0  0  0  0
  160.1980  213.5240  150.5000 C   0  0  0  0  0  3  0  0  0  0  0  0
  160.6630  208.3210  152.3490 C   0  0  0  0  0  2  0  0  0  0  0  0
  161.6460  206.1120  149.5770 N   0  0  0  0  0  0  0  0  0  0  0  0
  161.9750  208.7320  149.9850 S   0  0  0  0  0  0  0  0  0  0  0  0
  161.5120  207.3780  148.8730 C   0  0  0  0  0  2  0  0  0  0  0  0
  161.6800  207.6710  151.4240 C   0  0  2  0  0  3  0  0  0  0  0  0
  161.1520  206.3410  150.9290 C   0  0  2  0  0  3  0  0  0  0  0  0
  161.6360  205.2370  151.8560 C   0  0  0  0  0  1  0  0  0  0  0  0
  160.7340  205.1810  148.9270 C   0  0  0  0  0  2  0  0  0  0  0  0
  161.5090  204.0200  148.3260 C   0  0  0  0  0  2  0  0  0  0  0  0
  161.5580  204.1450  146.8130 C   0  0  0  0  0  2  0  0  0  0  0  0
  162.5020  205.8750  145.4660 O   0  0  0  0  0  1  0  0  0  0  0  0
  162.8180  204.8740  146.3860 C   0  0  0  0  0  2  0  0  0  0  0  0
  1  2  1  0  0  0  0
  1  4  2  0  0  0  0
  2 16  1  6  0  0  0
  2  3  1  0  0  0  0
  3  8  2  0  0  0  0
  4  5  1  0  0  0  0
  5  8  1  0  0  0  0
  5  6  2  0  0  0  0
  7  4  1  0  0  0  0
  9 11  2  0  0  0  0
  9 12  1  0  0  0  0
 10  7  1  0  0  0  0
 11 15  1  0  0  0  0
 12 14  2  0  0  0  0
 13 12  1  0  0  0  0
 14 10  1  0  0  0  0
 15 10  2  0  0  0  0
 17 21  1  0  0  0  0
 18 20  1  0  0  0  0
 19 17  1  0  0  0  0
 19 18  1  0  0  0  0
 20 16  1  1  0  0  0
 21 20  1  0  0  0  0
 21 22  1  1  0  0  0
 23 17  1  0  0  0  0
 24 23  1  0  0  0  0
 25 24  1  0  0  0  0
 26 27  1  0  0  0  0
 27 25  1  0  0  0  0
M  END
>  <MODEL>
2

>  <REMARK>
 VINA RESULT:      -7.0      3.108      8.681
  Name = 
  7 active torsions:
  status: ('A' for Active; 'I' for Inactive)
    1  A    between atoms: N_1  and  C_18
    2  A    between atoms: C_5  and  C_6
    3  A    between atoms: C_6  and  C_14
    4  A    between atoms: C_7  and  N_25
    5  A    between atoms: C_8  and  C_10
    6  A    between atoms: C_8  and  C_18
    7  A    between atoms: C_10  and  C_22
                            x       y       z     vdW  Elec       q    Type
                         _______ _______ _______ _____ _____    ______ ____

>  <TORSDO>
F 7

$$$$
=
 OpenBabel11072412223D

 27 29  0  0  1  0  0  0  0  0999 V2000
  160.4210  210.7730  152.4730 N   0  0  0  0  0  0  0  0  0  0  0  0
  161.1780  209.5900  152.9020 C   0  0  1  0  0  3  0  0  0  0  0  0
  161.2300  209.4380  154.4010 C   0  0  0  0  0  3  0  0  0  0  0  0
  160.1320  211.7700  153.2580 C   0  0  0  0  0  0  0  0  0  0  0  0
  160.4460  211.6630  154.6880 C   0  0  0  0  0  0  0  0  0  0  0  0
  160.2520  212.6330  155.4660 O   0  0  0  0  0  0  0  0  0  0  0  0
  159.4330  212.9250  152.7670 N   0  0  0  0  0  2  0  0  0  0  0  0
  160.9260  210.4180  155.1980 N   0  0  0  0  0  0  0  0  0  0  0  0
  158.5710  213.8160  148.7120 C   0  0  0  0  0  3  0  0  0  0  0  0
  159.1150  213.2310  151.4020 C   0  0  0  0  0  0  0  0  0  0  0  0
  157.5270  213.4890  149.5790 C   0  0  0  0  0  3  0  0  0  0  0  0
  159.8870  213.8480  149.1840 C   0  0  0  0  0  0  0  0  0  0  0  0
  160.9260  214.1700  148.3230 O   0  0  0  0  0  1  0  0  0  0  0  0
  160.1560  213.5540  150.5250 C   0  0  0  0  0  3  0  0  0  0  0  0
  157.7970  213.1960  150.9180 C   0  0  0  0  0  3  0  0  0  0  0  0
  160.6080  208.3280  152.2750 C   0  0  0  0  0  2  0  0  0  0  0  0
  161.6540  205.9820  149.6410 N   0  0  0  0  0  0  0  0  0  0  0  0
  161.9630  208.6210  149.9170 S   0  0  0  0  0  0  0  0  0  0  0  0
  161.5270  207.2090  148.8690 C   0  0  0  0  0  2  0  0  0  0  0  0
  161.6460  207.6350  151.4050 C   0  0  2  0  0  3  0  0  0  0  0  0
  161.1330  206.2780  150.9700 C   0  0  2  0  0  3  0  0  0  0  0  0
  161.6040  205.2270  151.9620 C   0  0  0  0  0  1  0  0  0  0  0  0
  160.7580  205.0140  149.0230 C   0  0  0  0  0  2  0  0  0  0  0  0
  161.5410  204.0810  148.1150 C   0  0  0  0  0  2  0  0  0  0  0  0
  161.0380  202.6550  148.2630 C   0  0  0  0  0  2  0  0  0  0  0  0
  160.9360  201.1060  150.0770 O   0  0  0  0  0  1  0  0  0  0  0  0
  160.5910  202.4020  149.6910 C   0  0  0  0  0  2  0  0  0  0  0  0
  1  2  1  0  0  0  0
  1  4  2  0  0  0  0
  2 16  1  6  0  0  0
  2  3  1  0  0  0  0
  3  8  2  0  0  0  0
  4  5  1  0  0  0  0
  5  8  1  0  0  0  0
  5  6  2  0  0  0  0
  7  4  1  0  0  0  0
  9 12  2  0  0  0  0
  9 11  1  0  0  0  0
 10  7  1  0  0  0  0
 11 15  2  0  0  0  0
 12 14  1  0  0  0  0
 13 12  1  0  0  0  0
 14 10  2  0  0  0  0
 15 10  1  0  0  0  0
 17 21  1  0  0  0  0
 18 20  1  0  0  0  0
 19 17  1  0  0  0  0
 19 18  1  0  0  0  0
 20 16  1  1  0  0  0
 21 20  1  0  0  0  0
 21 22  1  1  0  0  0
 23 17  1  0  0  0  0
 24 25  1  0  0  0  0
 24 23  1  0  0  0  0
 25 27  1  0  0  0  0
 27 26  1  0  0  0  0
M  END
>  <MODEL>
3

>  <REMARK>
 VINA RESULT:      -7.0      3.103      8.665
  Name = 
  7 active torsions:
  status: ('A' for Active; 'I' for Inactive)
    1  A    between atoms: N_1  and  C_18
    2  A    between atoms: C_5  and  C_6
    3  A    between atoms: C_6  and  C_14
    4  A    between atoms: C_7  and  N_25
    5  A    between atoms: C_8  and  C_10
    6  A    between atoms: C_8  and  C_18
    7  A    between atoms: C_10  and  C_22
                            x       y       z     vdW  Elec       q    Type
                         _______ _______ _______ _____ _____    ______ ____

>  <TORSDO>
F 7

$$$$
=
 OpenBabel11072412223D

 27 29  0  0  1  0  0  0  0  0999 V2000
  161.5730  207.2010  151.4160 N   0  0  0  0  0  0  0  0  0  0  0  0
  161.8510  208.2950  152.3560 C   0  0  1  0  0  3  0  0  0  0  0  0
  161.9350  209.6410  151.6800 C   0  0  0  0  0  3  0  0  0  0  0  0
  161.7320  207.2940  150.1280 C   0  0  0  0  0  0  0  0  0  0  0  0
  162.0700  208.5990  149.5470 C   0  0  0  0  0  0  0  0  0  0  0  0
  162.3060  208.7160  148.3170 O   0  0  0  0  0  0  0  0  0  0  0  0
  161.4920  206.1720  149.2650 N   0  0  0  0  0  2  0  0  0  0  0  0
  162.0750  209.7510  150.3920 N   0  0  0  0  0  0  0  0  0  0  0  0
  160.7390  202.1420  150.3510 C   0  0  0  0  0  3  0  0  0  0  0  0
  161.2290  204.8160  149.6580 C   0  0  0  0  0  0  0  0  0  0  0  0
  160.8780  203.1070  151.3510 C   0  0  0  0  0  3  0  0  0  0  0  0
  160.8480  202.5090  149.0060 C   0  0  0  0  0  0  0  0  0  0  0  0
  160.7140  201.5500  148.0130 O   0  0  0  0  0  1  0  0  0  0  0  0
  161.0950  203.8420  148.6630 C   0  0  0  0  0  3  0  0  0  0  0  0
  161.1240  204.4380  151.0060 C   0  0  0  0  0  3  0  0  0  0  0  0
  160.8080  208.3370  153.4600 C   0  0  0  0  0  2  0  0  0  0  0  0
  159.7490  210.8470  155.9330 N   0  0  0  0  0  0  0  0  0  0  0  0
  161.5880  208.9110  156.0180 S   0  0  0  0  0  0  0  0  0  0  0  0
  160.2150  209.7870  156.8130 C   0  0  0  0  0  2  0  0  0  0  0  0
  161.0510  209.5130  154.3950 C   0  0  2  0  0  3  0  0  0  0  0  0
  159.7710  210.2980  154.5830 C   0  0  2  0  0  3  0  0  0  0  0  0
  159.7210  211.4220  153.5600 C   0  0  0  0  0  1  0  0  0  0  0  0
  158.3570  211.0910  156.2860 C   0  0  0  0  0  2  0  0  0  0  0  0
  158.1980  212.4930  156.8530 C   0  0  0  0  0  2  0  0  0  0  0  0
  157.0370  213.2050  156.1800 C   0  0  0  0  0  2  0  0  0  0  0  0
  156.1370  213.0490  153.9750 O   0  0  0  0  0  1  0  0  0  0  0  0
  156.4120  212.3110  155.1260 C   0  0  0  0  0  2  0  0  0  0  0  0
  1  2  1  0  0  0  0
  2 16  1  1  0  0  0
  3  2  1  0  0  0  0
  4  1  2  0  0  0  0
  5  4  1  0  0  0  0
  5  8  1  0  0  0  0
  6  5  2  0  0  0  0
  7 10  1  0  0  0  0
  7  4  1  0  0  0  0
  8  3  2  0  0  0  0
  9 11  1  0  0  0  0
 10 15  1  0  0  0  0
 12  9  2  0  0  0  0
 13 12  1  0  0  0  0
 14 12  1  0  0  0  0
 14 10  2  0  0  0  0
 15 11  2  0  0  0  0
 17 23  1  0  0  0  0
 17 19  1  0  0  0  0
 18 19  1  0  0  0  0
 20 16  1  6  0  0  0
 20 21  1  0  0  0  0
 20 18  1  0  0  0  0
 21 22  1  6  0  0  0
 21 17  1  0  0  0  0
 23 24  1  0  0  0  0
 25 24  1  0  0  0  0
 26 27  1  0  0  0  0
 27 25  1  0  0  0  0
M  END
>  <MODEL>
4

>  <REMARK>
 VINA RESULT:      -6.9      1.138      1.316
  Name = 
  7 active torsions:
  status: ('A' for Active; 'I' for Inactive)
    1  A    between atoms: N_1  and  C_18
    2  A    between atoms: C_5  and  C_6
    3  A    between atoms: C_6  and  C_14
    4  A    between atoms: C_7  and  N_25
    5  A    between atoms: C_8  and  C_10
    6  A    between atoms: C_8  and  C_18
    7  A    between atoms: C_10  and  C_22
                            x       y       z     vdW  Elec       q    Type
                         _______ _______ _______ _____ _____    ______ ____

>  <TORSDO>
F 7

$$$$
=
 OpenBabel11072412223D

 27 29  0  0  1  0  0  0  0  0999 V2000
  161.8600  208.8880  148.5580 N   0  0  0  0  0  0  0  0  0  0  0  0
  161.9930  207.4280  148.6510 C   0  0  1  0  0  3  0  0  0  0  0  0
  161.9630  206.9270  150.0730 C   0  0  0  0  0  3  0  0  0  0  0  0
  162.0520  209.6980  149.5570 C   0  0  0  0  0  0  0  0  0  0  0  0
  162.2770  209.1360  150.8950 C   0  0  0  0  0  0  0  0  0  0  0  0
  162.5410  209.8810  151.8740 O   0  0  0  0  0  0  0  0  0  0  0  0
  161.9570  211.1210  149.3920 N   0  0  0  0  0  2  0  0  0  0  0  0
  162.1350  207.7260  151.0830 N   0  0  0  0  0  0  0  0  0  0  0  0
  161.4690  213.2530  145.7580 C   0  0  0  0  0  3  0  0  0  0  0  0
  161.8200  211.8440  148.1590 C   0  0  0  0  0  0  0  0  0  0  0  0
  162.7060  213.2770  146.4060 C   0  0  0  0  0  3  0  0  0  0  0  0
  160.4060  212.5310  146.3090 C   0  0  0  0  0  0  0  0  0  0  0  0
  159.1760  212.5090  145.6670 O   0  0  0  0  0  1  0  0  0  0  0  0
  160.5820  211.8310  147.5060 C   0  0  0  0  0  3  0  0  0  0  0  0
  162.8800  212.5770  147.6030 C   0  0  0  0  0  3  0  0  0  0  0  0
  160.9140  206.7340  147.8370 C   0  0  0  0  0  2  0  0  0  0  0  0
  161.7100  204.0010  145.5060 N   0  0  0  0  0  0  0  0  0  0  0  0
  160.2200  206.2030  145.2450 S   0  0  0  0  0  0  0  0  0  0  0  0
  160.4150  204.4190  144.9930 C   0  0  0  0  0  2  0  0  0  0  0  0
  161.4850  206.1730  146.5430 C   0  0  2  0  0  3  0  0  0  0  0  0
  161.9150  204.7360  146.7480 C   0  0  2  0  0  3  0  0  0  0  0  0
  163.3850  204.7070  147.1360 C   0  0  0  0  0  1  0  0  0  0  0  0
  161.5810  202.5910  145.8460 C   0  0  0  0  0  2  0  0  0  0  0  0
  160.6010  202.4150  146.9930 C   0  0  0  0  0  2  0  0  0  0  0  0
  161.1620  201.4480  148.0220 C   0  0  0  0  0  2  0  0  0  0  0  0
  160.8310  202.8060  149.9580 O   0  0  0  0  0  1  0  0  0  0  0  0
  160.4410  201.6130  149.3470 C   0  0  0  0  0  2  0  0  0  0  0  0
  1  2  1  0  0  0  0
  1  4  2  0  0  0  0
  2 16  1  6  0  0  0
  2  3  1  0  0  0  0
  3  8  2  0  0  0  0
  4  5  1  0  0  0  0
  5  8  1  0  0  0  0
  5  6  2  0  0  0  0
  7  4  1  0  0  0  0
  9 12  2  0  0  0  0
  9 11  1  0  0  0  0
 10  7  1  0  0  0  0
 11 15  2  0  0  0  0
 12 14  1  0  0  0  0
 13 12  1  0  0  0  0
 14 10  2  0  0  0  0
 15 10  1  0  0  0  0
 17 23  1  0  0  0  0
 17 21  1  0  0  0  0
 18 20  1  0  0  0  0
 19 18  1  0  0  0  0
 19 17  1  0  0  0  0
 20 21  1  0  0  0  0
 20 16  1  1  0  0  0
 21 22  1  6  0  0  0
 23 24  1  0  0  0  0
 24 25  1  0  0  0  0
 25 27  1  0  0  0  0
 27 26  1  0  0  0  0
M  END
>  <MODEL>
5

>  <REMARK>
 VINA RESULT:      -6.7      4.250      9.219
  Name = 
  7 active torsions:
  status: ('A' for Active; 'I' for Inactive)
    1  A    between atoms: N_1  and  C_18
    2  A    between atoms: C_5  and  C_6
    3  A    between atoms: C_6  and  C_14
    4  A    between atoms: C_7  and  N_25
    5  A    between atoms: C_8  and  C_10
    6  A    between atoms: C_8  and  C_18
    7  A    between atoms: C_10  and  C_22
                            x       y       z     vdW  Elec       q    Type
                         _______ _______ _______ _____ _____    ______ ____

>  <TORSDO>
F 7

$$$$
=
 OpenBabel11072412223D

 27 29  0  0  1  0  0  0  0  0999 V2000
  161.1840  204.7100  149.9880 N   0  0  0  0  0  0  0  0  0  0  0  0
  160.8330  205.1700  151.3390 C   0  0  1  0  0  3  0  0  0  0  0  0
  160.9060  204.0720  152.3690 C   0  0  0  0  0  3  0  0  0  0  0  0
  161.2060  203.4590  149.6330 C   0  0  0  0  0  0  0  0  0  0  0  0
  161.0120  202.4260  150.6570 C   0  0  0  0  0  0  0  0  0  0  0  0
  160.9510  201.2080  150.3440 O   0  0  0  0  0  0  0  0  0  0  0  0
  161.5070  203.0740  148.2830 N   0  0  0  0  0  2  0  0  0  0  0  0
  160.9480  202.8180  152.0300 N   0  0  0  0  0  0  0  0  0  0  0  0
  161.8550  205.6030  144.8960 C   0  0  0  0  0  3  0  0  0  0  0  0
  161.6490  203.9380  147.1450 C   0  0  0  0  0  0  0  0  0  0  0  0
  162.6700  205.8280  146.0070 C   0  0  0  0  0  3  0  0  0  0  0  0
  160.9340  204.5500  144.9080 C   0  0  0  0  0  0  0  0  0  0  0  0
  160.1210  204.3280  143.8060 O   0  0  0  0  0  1  0  0  0  0  0  0
  160.8320  203.7230  146.0310 C   0  0  0  0  0  3  0  0  0  0  0  0
  162.5670  205.0010  147.1280 C   0  0  0  0  0  3  0  0  0  0  0  0
  161.7170  206.3320  151.7600 C   0  0  0  0  0  2  0  0  0  0  0  0
  161.1050  209.2260  153.9470 N   0  0  0  0  0  0  0  0  0  0  0  0
  161.2060  208.9770  151.2890 S   0  0  0  0  0  0  0  0  0  0  0  0
  161.6750  209.8880  152.7830 C   0  0  0  0  0  2  0  0  0  0  0  0
  160.8810  207.4930  152.2770 C   0  0  2  0  0  3  0  0  0  0  0  0
  161.2480  207.7950  153.7150 C   0  0  2  0  0  3  0  0  0  0  0  0
  160.3210  207.0200  154.6380 C   0  0  0  0  0  1  0  0  0  0  0  0
  161.9560  209.5770  155.0760 C   0  0  0  0  0  2  0  0  0  0  0  0
  161.4630  210.8590  155.7260 C   0  0  0  0  0  2  0  0  0  0  0  0
  159.9660  210.7820  155.9750 C   0  0  0  0  0  2  0  0  0  0  0  0
  159.6930  212.4250  154.2650 O   0  0  0  0  0  1  0  0  0  0  0  0
  159.2960  212.0770  155.5570 C   0  0  0  0  0  2  0  0  0  0  0  0
  1  2  1  0  0  0  0
  2 16  1  1  0  0  0
  2  3  1  0  0  0  0
  4  1  2  0  0  0  0
  4  5  1  0  0  0  0
  5  8  1  0  0  0  0
  6  5  2  0  0  0  0
  7  4  1  0  0  0  0
  8  3  2  0  0  0  0
  9 12  2  0  0  0  0
  9 11  1  0  0  0  0
 10  7  1  0  0  0  0
 11 15  2  0  0  0  0
 12 14  1  0  0  0  0
 13 12  1  0  0  0  0
 14 10  2  0  0  0  0
 15 10  1  0  0  0  0
 17 23  1  0  0  0  0
 18 20  1  0  0  0  0
 18 19  1  0  0  0  0
 19 17  1  0  0  0  0
 20 16  1  6  0  0  0
 20 21  1  0  0  0  0
 21 17  1  0  0  0  0
 21 22  1  1  0  0  0
 23 24  1  0  0  0  0
 24 25  1  0  0  0  0
 26 27  1  0  0  0  0
 27 25  1  0  0  0  0
M  END
>  <MODEL>
6

>  <REMARK>
 VINA RESULT:      -6.7      2.537      4.180
  Name = 
  7 active torsions:
  status: ('A' for Active; 'I' for Inactive)
    1  A    between atoms: N_1  and  C_18
    2  A    between atoms: C_5  and  C_6
    3  A    between atoms: C_6  and  C_14
    4  A    between atoms: C_7  and  N_25
    5  A    between atoms: C_8  and  C_10
    6  A    between atoms: C_8  and  C_18
    7  A    between atoms: C_10  and  C_22
                            x       y       z     vdW  Elec       q    Type
                         _______ _______ _______ _____ _____    ______ ____

>  <TORSDO>
F 7

$$$$
=
 OpenBabel11072412223D

 27 29  0  0  1  0  0  0  0  0999 V2000
  161.0970  204.1270  149.8090 N   0  0  0  0  0  0  0  0  0  0  0  0
  160.9110  204.4190  151.2370 C   0  0  1  0  0  3  0  0  0  0  0  0
  161.1650  203.2220  152.1180 C   0  0  0  0  0  3  0  0  0  0  0  0
  161.1220  202.9250  149.3140 C   0  0  0  0  0  0  0  0  0  0  0  0
  161.1070  201.7780  150.2310 C   0  0  0  0  0  0  0  0  0  0  0  0
  161.0530  200.6000  149.7910 O   0  0  0  0  0  0  0  0  0  0  0  0
  161.2550  202.7040  147.9010 N   0  0  0  0  0  2  0  0  0  0  0  0
  161.2110  202.0160  151.6350 N   0  0  0  0  0  0  0  0  0  0  0  0
  161.1500  205.6790  144.8810 C   0  0  0  0  0  3  0  0  0  0  0  0
  161.2110  203.6920  146.8610 C   0  0  0  0  0  0  0  0  0  0  0  0
  161.1600  204.3320  144.5160 C   0  0  0  0  0  3  0  0  0  0  0  0
  161.1740  206.0370  146.2330 C   0  0  0  0  0  0  0  0  0  0  0  0
  161.1660  207.3760  146.5970 O   0  0  0  0  0  1  0  0  0  0  0  0
  161.2060  205.0450  147.2180 C   0  0  0  0  0  3  0  0  0  0  0  0
  161.1930  203.3420  145.5010 C   0  0  0  0  0  3  0  0  0  0  0  0
  161.7970  205.5760  151.6720 C   0  0  0  0  0  2  0  0  0  0  0  0
  161.3650  209.1500  152.4280 N   0  0  0  0  0  0  0  0  0  0  0  0
  161.4360  207.8010  150.1230 S   0  0  0  0  0  0  0  0  0  0  0  0
  161.9650  209.2290  151.1060 C   0  0  0  0  0  2  0  0  0  0  0  0
  161.0320  206.8900  151.6370 C   0  0  2  0  0  3  0  0  0  0  0  0
  161.4240  207.7480  152.8220 C   0  0  2  0  0  3  0  0  0  0  0  0
  160.4590  207.4850  153.9670 C   0  0  0  0  0  1  0  0  0  0  0  0
  162.2410  209.8950  153.3220 C   0  0  0  0  0  2  0  0  0  0  0  0
  161.4180  210.7690  154.2540 C   0  0  0  0  0  2  0  0  0  0  0  0
  161.8960  210.6070  155.6870 C   0  0  0  0  0  2  0  0  0  0  0  0
  159.5390  210.3110  155.9220 O   0  0  0  0  0  1  0  0  0  0  0  0
  160.7610  210.1200  156.5680 C   0  0  0  0  0  2  0  0  0  0  0  0
  1  2  1  0  0  0  0
  2 16  1  1  0  0  0
  2  3  1  0  0  0  0
  4  1  2  0  0  0  0
  4  5  1  0  0  0  0
  5  8  1  0  0  0  0
  6  5  2  0  0  0  0
  7  4  1  0  0  0  0
  8  3  2  0  0  0  0
  9 12  1  0  0  0  0
 10 14  1  0  0  0  0
 10  7  1  0  0  0  0
 11  9  2  0  0  0  0
 11 15  1  0  0  0  0
 12 13  1  0  0  0  0
 12 14  2  0  0  0  0
 15 10  2  0  0  0  0
 17 21  1  0  0  0  0
 17 23  1  0  0  0  0
 18 19  1  0  0  0  0
 18 20  1  0  0  0  0
 19 17  1  0  0  0  0
 20 16  1  6  0  0  0
 20 21  1  0  0  0  0
 21 22  1  1  0  0  0
 23 24  1  0  0  0  0
 24 25  1  0  0  0  0
 25 27  1  0  0  0  0
 26 27  1  0  0  0  0
M  END
>  <MODEL>
7

>  <REMARK>
 VINA RESULT:      -6.6      2.490      4.847
  Name = 
  7 active torsions:
  status: ('A' for Active; 'I' for Inactive)
    1  A    between atoms: N_1  and  C_18
    2  A    between atoms: C_5  and  C_6
    3  A    between atoms: C_6  and  C_14
    4  A    between atoms: C_7  and  N_25
    5  A    between atoms: C_8  and  C_10
    6  A    between atoms: C_8  and  C_18
    7  A    between atoms: C_10  and  C_22
                            x       y       z     vdW  Elec       q    Type
                         _______ _______ _______ _____ _____    ______ ____

>  <TORSDO>
F 7

$$$$
=
 OpenBabel11072412223D

 27 29  0  0  1  0  0  0  0  0999 V2000
  160.4500  209.1700  154.3120 N   0  0  0  0  0  0  0  0  0  0  0  0
  161.2130  208.2510  153.4570 C   0  0  1  0  0  3  0  0  0  0  0  0
  161.1930  206.8300  153.9610 C   0  0  0  0  0  3  0  0  0  0  0  0
  160.0980  208.8990  155.5350 C   0  0  0  0  0  0  0  0  0  0  0  0
  160.3430  207.5500  156.0610 C   0  0  0  0  0  0  0  0  0  0  0  0
  160.0880  207.2680  157.2610 O   0  0  0  0  0  0  0  0  0  0  0  0
  159.3970  209.8590  156.3390 N   0  0  0  0  0  2  0  0  0  0  0  0
  160.8270  206.5400  155.1740 N   0  0  0  0  0  0  0  0  0  0  0  0
  158.5600  213.9040  155.3800 C   0  0  0  0  0  3  0  0  0  0  0  0
  159.1400  211.2350  156.0200 C   0  0  0  0  0  0  0  0  0  0  0  0
  159.6900  213.6010  156.1420 C   0  0  0  0  0  3  0  0  0  0  0  0
  157.7170  212.8790  154.9400 C   0  0  0  0  0  0  0  0  0  0  0  0
  156.5920  213.1810  154.1860 O   0  0  0  0  0  1  0  0  0  0  0  0
  158.0070  211.5490  155.2620 C   0  0  0  0  0  3  0  0  0  0  0  0
  159.9780  212.2710  156.4630 C   0  0  0  0  0  3  0  0  0  0  0  0
  160.7040  208.2980  152.0250 C   0  0  0  0  0  2  0  0  0  0  0  0
  161.9220  207.0440  148.7890 N   0  0  0  0  0  0  0  0  0  0  0  0
  162.3280  209.3430  150.0890 S   0  0  0  0  0  0  0  0  0  0  0  0
  161.9440  208.4780  148.5430 C   0  0  0  0  0  2  0  0  0  0  0  0
  161.7980  207.8980  151.0460 C   0  0  2  0  0  3  0  0  0  0  0  0
  161.2710  206.8590  150.0790 C   0  0  2  0  0  3  0  0  0  0  0  0
  161.5750  205.4720  150.6240 C   0  0  0  0  0  1  0  0  0  0  0  0
  161.0550  206.4670  147.7710 C   0  0  0  0  0  2  0  0  0  0  0  0
  161.8880  205.8440  146.6630 C   0  0  0  0  0  2  0  0  0  0  0  0
  161.9450  204.3350  146.8310 C   0  0  0  0  0  2  0  0  0  0  0  0
  161.3170  204.5670  144.5390 O   0  0  0  0  0  1  0  0  0  0  0  0
  161.4230  203.6470  145.5830 C   0  0  0  0  0  2  0  0  0  0  0  0
  1  4  2  0  0  0  0
  2 16  1  6  0  0  0
  2  3  1  0  0  0  0
  2  1  1  0  0  0  0
  3  8  2  0  0  0  0
  4  5  1  0  0  0  0
  4  7  1  0  0  0  0
  5  6  2  0  0  0  0
  8  5  1  0  0  0  0
  9 11  1  0  0  0  0
 10  7  1  0  0  0  0
 10 15  1  0  0  0  0
 11 15  2  0  0  0  0
 12 14  1  0  0  0  0
 12  9  2  0  0  0  0
 13 12  1  0  0  0  0
 14 10  2  0  0  0  0
 17 21  1  0  0  0  0
 18 20  1  0  0  0  0
 19 17  1  0  0  0  0
 19 18  1  0  0  0  0
 20 16  1  1  0  0  0
 21 22  1  1  0  0  0
 21 20  1  0  0  0  0
 23 17  1  0  0  0  0
 24 25  1  0  0  0  0
 24 23  1  0  0  0  0
 26 27  1  0  0  0  0
 27 25  1  0  0  0  0
M  END
>  <MODEL>
8

>  <REMARK>
 VINA RESULT:      -6.6      2.542      9.167
  Name = 
  7 active torsions:
  status: ('A' for Active; 'I' for Inactive)
    1  A    between atoms: N_1  and  C_18
    2  A    between atoms: C_5  and  C_6
    3  A    between atoms: C_6  and  C_14
    4  A    between atoms: C_7  and  N_25
    5  A    between atoms: C_8  and  C_10
    6  A    between atoms: C_8  and  C_18
    7  A    between atoms: C_10  and  C_22
                            x       y       z     vdW  Elec       q    Type
                         _______ _______ _______ _____ _____    ______ ____

>  <TORSDO>
F 7

$$$$
=
 OpenBabel11072412223D

 27 29  0  0  1  0  0  0  0  0999 V2000
  161.2570  208.5890  151.3600 N   0  0  0  0  0  0  0  0  0  0  0  0
  161.2070  207.5700  150.3030 C   0  0  1  0  0  3  0  0  0  0  0  0
  161.9240  207.9940  149.0450 C   0  0  0  0  0  3  0  0  0  0  0  0
  161.5550  209.8370  151.1480 C   0  0  0  0  0  0  0  0  0  0  0  0
  162.0090  210.2430  149.8120 C   0  0  0  0  0  0  0  0  0  0  0  0
  162.2350  211.4520  149.5460 O   0  0  0  0  0  0  0  0  0  0  0  0
  161.5370  210.7980  152.2150 N   0  0  0  0  0  2  0  0  0  0  0  0
  162.2450  209.2340  148.8280 N   0  0  0  0  0  0  0  0  0  0  0  0
  160.1890  210.2180  156.1940 C   0  0  0  0  0  3  0  0  0  0  0  0
  161.0540  210.6010  153.5530 C   0  0  0  0  0  0  0  0  0  0  0  0
  159.2800  210.6260  155.2150 C   0  0  0  0  0  3  0  0  0  0  0  0
  161.5300  210.0050  155.8580 C   0  0  0  0  0  0  0  0  0  0  0  0
  162.4330  209.6030  156.8300 O   0  0  0  0  0  1  0  0  0  0  0  0
  161.9590  210.1980  154.5410 C   0  0  0  0  0  3  0  0  0  0  0  0
  159.7110  210.8180  153.9000 C   0  0  0  0  0  3  0  0  0  0  0  0
  161.7730  206.2490  150.7980 C   0  0  0  0  0  2  0  0  0  0  0  0
  160.8430  202.9240  149.5300 N   0  0  0  0  0  0  0  0  0  0  0  0
  160.7860  203.9890  151.9800 S   0  0  0  0  0  0  0  0  0  0  0  0
  161.2040  202.5950  150.9010 C   0  0  0  0  0  2  0  0  0  0  0  0
  160.7930  205.1120  150.5570 C   0  0  2  0  0  3  0  0  0  0  0  0
  161.2100  204.3210  149.3350 C   0  0  2  0  0  3  0  0  0  0  0  0
  160.4990  204.8820  148.1130 C   0  0  0  0  0  1  0  0  0  0  0  0
  161.7040  202.1190  148.6750 C   0  0  0  0  0  2  0  0  0  0  0  0
  161.0150  200.8120  148.3180 C   0  0  0  0  0  2  0  0  0  0  0  0
  161.1960  200.5070  146.8410 C   0  0  0  0  0  2  0  0  0  0  0  0
  160.0840  201.3260  144.8940 O   0  0  0  0  0  1  0  0  0  0  0  0
  160.8300  201.7190  146.0050 C   0  0  0  0  0  2  0  0  0  0  0  0
  2 16  1  1  0  0  0
  2  1  1  0  0  0  0
  3  2  1  0  0  0  0
  4  1  2  0  0  0  0
  4  7  1  0  0  0  0
  5  4  1  0  0  0  0
  6  5  2  0  0  0  0
  7 10  1  0  0  0  0
  8  3  2  0  0  0  0
  8  5  1  0  0  0  0
 10 15  2  0  0  0  0
 10 14  1  0  0  0  0
 11  9  2  0  0  0  0
 12  9  1  0  0  0  0
 12 13  1  0  0  0  0
 14 12  2  0  0  0  0
 15 11  1  0  0  0  0
 17 19  1  0  0  0  0
 19 18  1  0  0  0  0
 20 16  1  1  0  0  0
 20 18  1  0  0  0  0
 21 22  1  6  0  0  0
 21 17  1  0  0  0  0
 21 20  1  0  0  0  0
 23 17  1  0  0  0  0
 24 23  1  0  0  0  0
 25 24  1  0  0  0  0
 26 27  1  0  0  0  0
 27 25  1  0  0  0  0
M  END
>  <MODEL>
9

>  <REMARK>
 VINA RESULT:      -6.5      2.296      8.554
  Name = 
  7 active torsions:
  status: ('A' for Active; 'I' for Inactive)
    1  A    between atoms: N_1  and  C_18
    2  A    between atoms: C_5  and  C_6
    3  A    between atoms: C_6  and  C_14
    4  A    between atoms: C_7  and  N_25
    5  A    between atoms: C_8  and  C_10
    6  A    between atoms: C_8  and  C_18
    7  A    between atoms: C_10  and  C_22
                            x       y       z     vdW  Elec       q    Type
                         _______ _______ _______ _____ _____    ______ ____

>  <TORSDO>
F 7

$$$$
