=
 OpenBabel11072411203D

 42 47  0  0  1  0  0  0  0  0999 V2000
  162.4400  206.8540  150.4690 C   0  0  0  0  0  2  0  0  0  0  0  0
  161.0190  207.8490  154.8250 C   0  0  0  0  0  0  0  0  0  0  0  0
  160.7250  207.6610  156.1740 C   0  0  0  0  0  3  0  0  0  0  0  0
  160.3750  210.1930  155.0560 C   0  0  0  0  0  0  0  0  0  0  0  0
  160.8460  209.1440  154.2380 C   0  0  0  0  0  0  0  0  0  0  0  0
  161.6120  208.2460  152.1200 C   0  0  0  0  0  0  0  0  0  0  0  0
  160.0950  209.9550  156.3670 N   0  0  0  0  0  0  0  0  0  0  0  0
  162.2780  206.0310  151.7640 C   0  0  1  0  0  3  0  0  0  0  0  0
  161.1290  209.3660  152.9350 C   0  0  0  0  0  3  0  0  0  0  0  0
  161.7480  206.9850  152.7180 N   0  0  0  0  0  0  0  0  0  0  0  0
  161.4610  206.8010  154.1070 C   0  0  0  0  0  3  0  0  0  0  0  0
  160.2600  208.7320  156.9340 C   0  0  0  0  0  3  0  0  0  0  0  0
  161.9800  208.2340  150.8500 C   0  0  0  0  0  0  0  0  0  0  0  0
  160.7760  204.6170  150.2650 N   0  0  0  0  0  0  0  0  0  0  0  0
  161.0180  204.1550  152.5460 O   0  0  0  0  0  0  0  0  0  0  0  0
  161.3150  204.8950  151.5680 C   0  0  0  0  0  0  0  0  0  0  0  0
  163.5470  204.3940  146.1950 C   0  0  0  0  0  1  0  0  0  0  0  0
  162.1620  204.7610  146.6850 C   0  0  1  0  0  3  0  0  0  0  0  0
  160.3640  206.1770  148.4160 C   0  0  0  0  0  3  0  0  0  0  0  0
  161.9590  204.2350  148.1210 C   0  0  0  0  0  2  0  0  0  0  0  0
  161.9400  206.2710  146.5430 C   0  0  0  0  0  2  0  0  0  0  0  0
  160.6470  206.6580  147.2010 C   0  0  0  0  0  3  0  0  0  0  0  0
  161.3560  205.2680  149.0910 C   0  0  2  0  0  3  0  0  0  0  0  0
  159.8010  203.5400  150.0850 C   0  0  0  0  0  2  0  0  0  0  0  0
  159.4330  201.3750  148.8950 C   0  0  0  0  0  1  0  0  0  0  0  0
  161.1950  201.5660  150.6120 C   0  0  0  0  0  1  0  0  0  0  0  0
  160.4660  202.3000  149.5070 C   0  0  0  0  0  3  0  0  0  0  0  0
  161.9630  210.6720  150.4290 O   0  0  0  0  0  1  0  0  0  0  0  0
  161.9660  209.3780  149.9230 C   0  0  0  0  0  0  0  0  0  0  0  0
  161.9590  209.2030  148.6760 O   0  0  0  0  0  0  0  0  0  0  0  0
  160.1360  211.5710  154.5160 C   0  0  0  0  0  2  0  0  0  0  0  0
  157.6170  214.4500  150.5390 C   0  0  0  0  0  1  0  0  0  0  0  0
  157.5350  213.7440  151.8450 C   0  0  0  0  0  0  0  0  0  0  0  0
  156.4220  213.6580  152.5550 O   0  0  0  0  0  0  0  0  0  0  0  0
  155.9290  212.6130  154.6950 C   0  0  0  0  0  3  0  0  0  0  0  0
  156.5280  211.8750  155.7320 C   0  0  0  0  0  0  0  0  0  0  0  0
  158.6840  211.9150  154.5680 C   0  0  0  0  0  0  0  0  0  0  0  0
  155.7160  211.4590  156.9060 C   0  0  0  0  0  1  0  0  0  0  0  0
  157.8970  211.5290  155.6710 C   0  0  0  0  0  3  0  0  0  0  0  0
  158.0600  212.6480  153.5570 C   0  0  0  0  0  0  0  0  0  0  0  0
  156.7390  212.9790  153.6230 C   0  0  0  0  0  0  0  0  0  0  0  0
  158.6000  213.1300  152.4230 N   0  0  0  0  0  0  0  0  0  0  0  0
  1 13  1  0  0  0  0
  1  8  1  0  0  0  0
  2  3  1  0  0  0  0
  3 12  2  0  0  0  0
  4  7  2  0  0  0  0
  5  2  1  0  0  0  0
  5  4  1  0  0  0  0
  6 10  1  0  0  0  0
  6  9  1  0  0  0  0
  7 12  1  0  0  0  0
  8 16  1  6  0  0  0
  8 10  1  0  0  0  0
  9  5  2  0  0  0  0
 10 11  1  0  0  0  0
 11  2  2  0  0  0  0
 13  6  2  0  0  0  0
 14 16  1  0  0  0  0
 16 15  2  0  0  0  0
 18 17  1  1  0  0  0
 18 20  1  0  0  0  0
 19 23  1  0  0  0  0
 20 23  1  0  0  0  0
 21 18  1  0  0  0  0
 21 22  1  0  0  0  0
 22 19  2  0  0  0  0
 23 14  1  1  0  0  0
 24 14  1  0  0  0  0
 25 27  1  0  0  0  0
 27 24  1  0  0  0  0
 27 26  1  0  0  0  0
 29 28  1  0  0  0  0
 29 13  1  0  0  0  0
 30 29  2  0  0  0  0
 31 37  1  0  0  0  0
 31  4  1  0  0  0  0
 32 33  1  0  0  0  0
 33 42  2  0  0  0  0
 33 34  1  0  0  0  0
 34 41  1  0  0  0  0
 35 36  1  0  0  0  0
 36 38  1  0  0  0  0
 37 39  1  0  0  0  0
 39 36  2  0  0  0  0
 40 41  1  0  0  0  0
 40 37  2  0  0  0  0
 41 35  2  0  0  0  0
 42 40  1  0  0  0  0
M  END
>  <MODEL>
1

>  <REMARK>
 VINA RESULT:      -9.5      0.000      0.000
  Name = 
  7 active torsions:
  status: ('A' for Active; 'I' for Inactive)
    1  A    between atoms: N_1  and  C_40
    2  A    between atoms: N_1  and  C_42
    3  A    between atoms: C_12  and  C_15
    4  A    between atoms: C_12  and  C_25
    5  A    between atoms: C_19  and  C_40
    6  A    between atoms: C_21  and  C_29
    7  A    between atoms: C_24  and  C_41
                            x       y       z     vdW  Elec       q    Type
                         _______ _______ _______ _____ _____    ______ ____

>  <TORSDO>
F 7

$$$$
=
 OpenBabel11072411203D

 42 47  0  0  1  0  0  0  0  0999 V2000
  160.9220  211.4040  151.6580 C   0  0  0  0  0  2  0  0  0  0  0  0
  160.8690  206.7410  152.1430 C   0  0  0  0  0  0  0  0  0  0  0  0
  160.6480  205.4950  152.7250 C   0  0  0  0  0  3  0  0  0  0  0  0
  161.7140  205.6120  150.1500 C   0  0  0  0  0  0  0  0  0  0  0  0
  161.4140  206.8160  150.8210 C   0  0  0  0  0  0  0  0  0  0  0  0
  161.3120  209.2340  150.9560 C   0  0  0  0  0  0  0  0  0  0  0  0
  161.4860  204.4190  150.7670 N   0  0  0  0  0  0  0  0  0  0  0  0
  160.5080  210.4430  152.7920 C   0  0  1  0  0  3  0  0  0  0  0  0
  161.6340  208.0070  150.2210 C   0  0  0  0  0  3  0  0  0  0  0  0
  160.8020  209.1280  152.2580 N   0  0  0  0  0  0  0  0  0  0  0  0
  160.5620  207.8460  152.8450 C   0  0  0  0  0  3  0  0  0  0  0  0
  160.9650  204.3370  152.0180 C   0  0  0  0  0  3  0  0  0  0  0  0
  161.4090  210.4930  150.5650 C   0  0  0  0  0  0  0  0  0  0  0  0
  160.8030  211.5630  155.0640 N   0  0  0  0  0  0  0  0  0  0  0  0
  162.4130  210.1030  154.1970 O   0  0  0  0  0  0  0  0  0  0  0  0
  161.3100  210.6960  154.0360 C   0  0  0  0  0  0  0  0  0  0  0  0
  155.9980  210.4780  155.2130 C   0  0  0  0  0  1  0  0  0  0  0  0
  157.0560  211.3340  155.8770 C   0  0  1  0  0  3  0  0  0  0  0  0
  159.1890  213.2530  155.8160 C   0  0  0  0  0  3  0  0  0  0  0  0
  158.4590  210.8580  155.4490 C   0  0  0  0  0  2  0  0  0  0  0  0
  156.7900  212.8150  155.5850 C   0  0  0  0  0  2  0  0  0  0  0  0
  157.9390  213.6450  156.0810 C   0  0  0  0  0  3  0  0  0  0  0  0
  159.4060  211.9930  155.0200 C   0  0  2  0  0  3  0  0  0  0  0  0
  161.6070  211.8460  156.2540 C   0  0  0  0  0  2  0  0  0  0  0  0
  163.0170  210.0460  157.2610 C   0  0  0  0  0  1  0  0  0  0  0  0
  160.6600  209.6010  156.6810 C   0  0  0  0  0  1  0  0  0  0  0  0
  161.6270  210.6470  157.1910 C   0  0  0  0  0  3  0  0  0  0  0  0
  161.9600  212.3340  149.0040 O   0  0  0  0  0  1  0  0  0  0  0  0
  161.9030  210.9700  149.2620 C   0  0  0  0  0  0  0  0  0  0  0  0
  162.2790  210.1590  148.3740 O   0  0  0  0  0  0  0  0  0  0  0  0
  162.3150  205.5980  148.7770 C   0  0  0  0  0  2  0  0  0  0  0  0
  161.4390  205.7910  143.3320 C   0  0  0  0  0  1  0  0  0  0  0  0
  161.4150  205.0110  144.5970 C   0  0  0  0  0  0  0  0  0  0  0  0
  161.0230  203.7490  144.6650 O   0  0  0  0  0  0  0  0  0  0  0  0
  160.8480  202.1930  146.5250 C   0  0  0  0  0  3  0  0  0  0  0  0
  161.0590  202.0960  147.9140 C   0  0  0  0  0  0  0  0  0  0  0  0
  161.8270  204.4210  147.9980 C   0  0  0  0  0  0  0  0  0  0  0  0
  160.7660  200.8200  148.6170 C   0  0  0  0  0  1  0  0  0  0  0  0
  161.5440  203.2030  148.6450 C   0  0  0  0  0  3  0  0  0  0  0  0
  161.6050  204.4850  146.6210 C   0  0  0  0  0  0  0  0  0  0  0  0
  161.1360  203.4130  145.9210 C   0  0  0  0  0  0  0  0  0  0  0  0
  161.7920  205.5300  145.7940 N   0  0  0  0  0  0  0  0  0  0  0  0
  1  8  1  0  0  0  0
  2  3  1  0  0  0  0
  2 11  2  0  0  0  0
  4  7  2  0  0  0  0
  4  5  1  0  0  0  0
  5  2  1  0  0  0  0
  6 10  1  0  0  0  0
  7 12  1  0  0  0  0
  8 16  1  1  0  0  0
  9  5  2  0  0  0  0
  9  6  1  0  0  0  0
 10  8  1  0  0  0  0
 10 11  1  0  0  0  0
 12  3  2  0  0  0  0
 13  6  2  0  0  0  0
 13  1  1  0  0  0  0
 14 24  1  0  0  0  0
 16 15  2  0  0  0  0
 16 14  1  0  0  0  0
 18 17  1  6  0  0  0
 19 22  2  0  0  0  0
 20 18  1  0  0  0  0
 21 18  1  0  0  0  0
 21 22  1  0  0  0  0
 23 14  1  1  0  0  0
 23 20  1  0  0  0  0
 23 19  1  0  0  0  0
 24 27  1  0  0  0  0
 26 27  1  0  0  0  0
 27 25  1  0  0  0  0
 28 29  1  0  0  0  0
 29 13  1  0  0  0  0
 30 29  2  0  0  0  0
 31  4  1  0  0  0  0
 32 33  1  0  0  0  0
 33 34  1  0  0  0  0
 33 42  2  0  0  0  0
 34 41  1  0  0  0  0
 35 36  1  0  0  0  0
 36 38  1  0  0  0  0
 36 39  2  0  0  0  0
 37 39  1  0  0  0  0
 37 31  1  0  0  0  0
 40 37  2  0  0  0  0
 41 35  2  0  0  0  0
 41 40  1  0  0  0  0
 42 40  1  0  0  0  0
M  END
>  <MODEL>
2

>  <REMARK>
 VINA RESULT:      -7.8      2.339      9.287
  Name = 
  7 active torsions:
  status: ('A' for Active; 'I' for Inactive)
    1  A    between atoms: N_1  and  C_40
    2  A    between atoms: N_1  and  C_42
    3  A    between atoms: C_12  and  C_15
    4  A    between atoms: C_12  and  C_25
    5  A    between atoms: C_19  and  C_40
    6  A    between atoms: C_21  and  C_29
    7  A    between atoms: C_24  and  C_41
                            x       y       z     vdW  Elec       q    Type
                         _______ _______ _______ _____ _____    ______ ____

>  <TORSDO>
F 7

$$$$
=
 OpenBabel11072411203D

 42 47  0  0  1  0  0  0  0  0999 V2000
  162.5210  207.5960  149.6830 C   0  0  0  0  0  2  0  0  0  0  0  0
  161.0340  209.5170  153.6930 C   0  0  0  0  0  0  0  0  0  0  0  0
  160.7360  209.6350  155.0490 C   0  0  0  0  0  3  0  0  0  0  0  0
  160.3080  211.8270  153.3780 C   0  0  0  0  0  0  0  0  0  0  0  0
  160.8210  210.6350  152.8230 C   0  0  0  0  0  0  0  0  0  0  0  0
  161.6340  209.3010  150.9690 C   0  0  0  0  0  0  0  0  0  0  0  0
  160.0260  211.8880  154.7090 N   0  0  0  0  0  0  0  0  0  0  0  0
  162.3770  207.0880  151.1330 C   0  0  1  0  0  3  0  0  0  0  0  0
  161.1060  210.5610  151.5050 C   0  0  0  0  0  3  0  0  0  0  0  0
  161.8080  208.2170  151.8420 N   0  0  0  0  0  0  0  0  0  0  0  0
  161.5160  208.3480  153.2350 C   0  0  0  0  0  3  0  0  0  0  0  0
  160.2290  210.8350  155.5420 C   0  0  0  0  0  3  0  0  0  0  0  0
  162.0110  209.0100  149.7360 C   0  0  0  0  0  0  0  0  0  0  0  0
  160.9300  205.3190  150.0010 N   0  0  0  0  0  0  0  0  0  0  0  0
  161.1800  205.3960  152.3260 O   0  0  0  0  0  0  0  0  0  0  0  0
  161.4550  205.9050  151.2040 C   0  0  0  0  0  0  0  0  0  0  0  0
  163.7820  204.3050  146.1110 C   0  0  0  0  0  1  0  0  0  0  0  0
  162.3690  204.6920  146.4950 C   0  0  1  0  0  3  0  0  0  0  0  0
  160.4600  206.3660  147.8310 C   0  0  0  0  0  3  0  0  0  0  0  0
  162.1720  204.5110  148.0140 C   0  0  0  0  0  2  0  0  0  0  0  0
  162.0610  206.1070  145.9950 C   0  0  0  0  0  2  0  0  0  0  0  0
  160.7360  206.5590  146.5370 C   0  0  0  0  0  3  0  0  0  0  0  0
  161.4920  205.7060  148.7070 C   0  0  2  0  0  3  0  0  0  0  0  0
  159.9940  204.1970  150.0740 C   0  0  0  0  0  2  0  0  0  0  0  0
  159.9720  201.8420  149.2390 C   0  0  0  0  0  1  0  0  0  0  0  0
  160.8990  202.3630  151.4660 C   0  0  0  0  0  1  0  0  0  0  0  0
  160.7380  202.8700  150.0490 C   0  0  0  0  0  3  0  0  0  0  0  0
  162.7360  211.0650  148.5630 O   0  0  0  0  0  1  0  0  0  0  0  0
  161.9650  209.9080  148.5710 C   0  0  0  0  0  0  0  0  0  0  0  0
  161.2390  209.6450  147.5760 O   0  0  0  0  0  0  0  0  0  0  0  0
  160.0270  213.0350  152.5350 C   0  0  0  0  0  2  0  0  0  0  0  0
  157.4270  214.2090  157.2590 C   0  0  0  0  0  1  0  0  0  0  0  0
  157.3700  214.0460  155.7830 C   0  0  0  0  0  0  0  0  0  0  0  0
  156.2630  214.2070  155.0770 O   0  0  0  0  0  0  0  0  0  0  0  0
  155.8040  214.0160  152.6960 C   0  0  0  0  0  3  0  0  0  0  0  0
  156.4250  213.7260  151.4670 C   0  0  0  0  0  0  0  0  0  0  0  0
  158.5770  213.3910  152.5890 C   0  0  0  0  0  0  0  0  0  0  0  0
  155.6260  213.7430  150.2140 C   0  0  0  0  0  1  0  0  0  0  0  0
  157.8020  213.4140  151.4140 C   0  0  0  0  0  3  0  0  0  0  0  0
  157.9310  213.6810  153.7920 C   0  0  0  0  0  0  0  0  0  0  0  0
  156.6020  213.9800  153.8370 C   0  0  0  0  0  0  0  0  0  0  0  0
  158.4520  213.7130  155.0320 N   0  0  0  0  0  0  0  0  0  0  0  0
  1 13  1  0  0  0  0
  1  8  1  0  0  0  0
  2  3  1  0  0  0  0
  3 12  2  0  0  0  0
  4  7  2  0  0  0  0
  5  4  1  0  0  0  0
  5  2  1  0  0  0  0
  6  9  1  0  0  0  0
  6 10  1  0  0  0  0
  7 12  1  0  0  0  0
  8 16  1  6  0  0  0
  8 10  1  0  0  0  0
  9  5  2  0  0  0  0
 10 11  1  0  0  0  0
 11  2  2  0  0  0  0
 13  6  2  0  0  0  0
 14 24  1  0  0  0  0
 14 16  1  0  0  0  0
 16 15  2  0  0  0  0
 18 17  1  1  0  0  0
 18 20  1  0  0  0  0
 19 23  1  0  0  0  0
 20 23  1  0  0  0  0
 21 18  1  0  0  0  0
 21 22  1  0  0  0  0
 22 19  2  0  0  0  0
 23 14  1  1  0  0  0
 25 27  1  0  0  0  0
 27 24  1  0  0  0  0
 27 26  1  0  0  0  0
 28 29  1  0  0  0  0
 29 13  1  0  0  0  0
 30 29  2  0  0  0  0
 31 37  1  0  0  0  0
 31  4  1  0  0  0  0
 33 32  1  0  0  0  0
 34 33  1  0  0  0  0
 35 41  1  0  0  0  0
 36 35  2  0  0  0  0
 37 40  1  0  0  0  0
 38 36  1  0  0  0  0
 39 36  1  0  0  0  0
 39 37  2  0  0  0  0
 40 41  2  0  0  0  0
 40 42  1  0  0  0  0
 41 34  1  0  0  0  0
 42 33  2  0  0  0  0
M  END
>  <MODEL>
3

>  <REMARK>
 VINA RESULT:      -6.7      1.493      2.454
  Name = 
  7 active torsions:
  status: ('A' for Active; 'I' for Inactive)
    1  A    between atoms: N_1  and  C_40
    2  A    between atoms: N_1  and  C_42
    3  A    between atoms: C_12  and  C_15
    4  A    between atoms: C_12  and  C_25
    5  A    between atoms: C_19  and  C_40
    6  A    between atoms: C_21  and  C_29
    7  A    between atoms: C_24  and  C_41
                            x       y       z     vdW  Elec       q    Type
                         _______ _______ _______ _____ _____    ______ ____

>  <TORSDO>
F 7

$$$$
=
 OpenBabel11072411203D

 42 47  0  0  1  0  0  0  0  0999 V2000
  162.6030  210.1550  148.2840 C   0  0  0  0  0  2  0  0  0  0  0  0
  160.4660  210.4690  152.4450 C   0  0  0  0  0  0  0  0  0  0  0  0
  159.9930  210.0850  153.6980 C   0  0  0  0  0  3  0  0  0  0  0  0
  159.5880  212.7110  152.8480 C   0  0  0  0  0  0  0  0  0  0  0  0
  160.2670  211.8140  151.9960 C   0  0  0  0  0  0  0  0  0  0  0  0
  161.4170  211.2580  149.9360 C   0  0  0  0  0  0  0  0  0  0  0  0
  159.1380  212.2840  154.0600 N   0  0  0  0  0  0  0  0  0  0  0  0
  162.3240  209.1600  149.4300 C   0  0  1  0  0  3  0  0  0  0  0  0
  160.7200  212.2250  150.7910 C   0  0  0  0  0  3  0  0  0  0  0  0
  161.5750  209.9420  150.3940 N   0  0  0  0  0  0  0  0  0  0  0  0
  161.1020  209.5580  151.6870 C   0  0  0  0  0  3  0  0  0  0  0  0
  159.3260  211.0120  154.4970 C   0  0  0  0  0  3  0  0  0  0  0  0
  161.9690  211.4380  148.7480 C   0  0  0  0  0  0  0  0  0  0  0  0
  161.3230  206.8420  149.7880 N   0  0  0  0  0  0  0  0  0  0  0  0
  160.9400  208.0540  147.8230 O   0  0  0  0  0  0  0  0  0  0  0  0
  161.5060  207.9950  148.9500 C   0  0  0  0  0  0  0  0  0  0  0  0
  160.0800  206.9530  154.5560 C   0  0  0  0  0  1  0  0  0  0  0  0
  160.9150  206.1880  153.5510 C   0  0  1  0  0  3  0  0  0  0  0  0
  162.8990  206.0260  151.4840 C   0  0  0  0  0  3  0  0  0  0  0  0
  160.5170  206.5990  152.1190 C   0  0  0  0  0  2  0  0  0  0  0  0
  162.4050  206.3780  153.8570 C   0  0  0  0  0  2  0  0  0  0  0  0
  163.2300  205.7790  152.7550 C   0  0  0  0  0  3  0  0  0  0  0  0
  161.7110  206.9060  151.1970 C   0  0  2  0  0  3  0  0  0  0  0  0
  160.5660  205.6890  149.3000 C   0  0  0  0  0  2  0  0  0  0  0  0
  161.5820  204.6050  147.2920 C   0  0  0  0  0  1  0  0  0  0  0  0
  160.9870  203.2510  149.2680 C   0  0  0  0  0  1  0  0  0  0  0  0
  161.5030  204.5970  148.8060 C   0  0  0  0  0  3  0  0  0  0  0  0
  160.8170  213.1680  147.4050 O   0  0  0  0  0  0  0  0  0  0  0  0
  161.9910  212.6900  147.9730 C   0  0  0  0  0  0  0  0  0  0  0  0
  163.0600  213.3380  147.8180 O   0  0  0  0  0  1  0  0  0  0  0  0
  159.3100  214.1280  152.4450 C   0  0  0  0  0  2  0  0  0  0  0  0
  154.6590  214.4430  155.3980 C   0  0  0  0  0  1  0  0  0  0  0  0
  155.3210  214.4070  154.0670 C   0  0  0  0  0  0  0  0  0  0  0  0
  154.6550  214.4530  152.9240 O   0  0  0  0  0  0  0  0  0  0  0  0
  155.3900  214.4080  150.6070 C   0  0  0  0  0  3  0  0  0  0  0  0
  156.5500  214.3320  149.8120 C   0  0  0  0  0  0  0  0  0  0  0  0
  157.9610  214.2430  151.8130 C   0  0  0  0  0  0  0  0  0  0  0  0
  156.4310  214.3350  148.3310 C   0  0  0  0  0  1  0  0  0  0  0  0
  157.8270  214.2480  150.4110 C   0  0  0  0  0  3  0  0  0  0  0  0
  156.7920  214.3160  152.5720 C   0  0  0  0  0  0  0  0  0  0  0  0
  155.5630  214.3960  151.9880 C   0  0  0  0  0  0  0  0  0  0  0  0
  156.6670  214.3200  153.9120 N   0  0  0  0  0  0  0  0  0  0  0  0
  1 13  1  0  0  0  0
  1  8  1  0  0  0  0
  2  3  1  0  0  0  0
  3 12  2  0  0  0  0
  4  7  2  0  0  0  0
  5  2  1  0  0  0  0
  5  4  1  0  0  0  0
  6 10  1  0  0  0  0
  6  9  1  0  0  0  0
  7 12  1  0  0  0  0
  8 16  1  6  0  0  0
  8 10  1  0  0  0  0
  9  5  2  0  0  0  0
 10 11  1  0  0  0  0
 11  2  2  0  0  0  0
 13  6  2  0  0  0  0
 15 16  2  0  0  0  0
 16 14  1  0  0  0  0
 18 21  1  0  0  0  0
 18 17  1  1  0  0  0
 19 22  2  0  0  0  0
 20 18  1  0  0  0  0
 22 21  1  0  0  0  0
 23 14  1  6  0  0  0
 23 19  1  0  0  0  0
 23 20  1  0  0  0  0
 24 14  1  0  0  0  0
 25 27  1  0  0  0  0
 27 26  1  0  0  0  0
 27 24  1  0  0  0  0
 28 29  2  0  0  0  0
 29 13  1  0  0  0  0
 30 29  1  0  0  0  0
 31  4  1  0  0  0  0
 33 32  1  0  0  0  0
 34 33  1  0  0  0  0
 35 41  1  0  0  0  0
 36 39  1  0  0  0  0
 36 35  2  0  0  0  0
 37 31  1  0  0  0  0
 37 40  1  0  0  0  0
 38 36  1  0  0  0  0
 39 37  2  0  0  0  0
 40 42  1  0  0  0  0
 41 40  2  0  0  0  0
 41 34  1  0  0  0  0
 42 33  2  0  0  0  0
M  END
>  <MODEL>
4

>  <REMARK>
 VINA RESULT:      -6.6      2.120      4.540
  Name = 
  7 active torsions:
  status: ('A' for Active; 'I' for Inactive)
    1  A    between atoms: N_1  and  C_40
    2  A    between atoms: N_1  and  C_42
    3  A    between atoms: C_12  and  C_15
    4  A    between atoms: C_12  and  C_25
    5  A    between atoms: C_19  and  C_40
    6  A    between atoms: C_21  and  C_29
    7  A    between atoms: C_24  and  C_41
                            x       y       z     vdW  Elec       q    Type
                         _______ _______ _______ _____ _____    ______ ____

>  <TORSDO>
F 7

$$$$
