=
 OpenBabel11072411523D

 32 35  0  0  1  0  0  0  0  0999 V2000
  160.9630  209.6310  154.0150 C   0  0  1  0  0  3  0  0  0  0  0  0
  162.1300  209.7310  151.1940 C   0  0  2  0  0  3  0  0  0  0  0  0
  161.4650  208.6320  151.9430 C   0  0  2  0  0  0  0  0  0  0  0  0
  160.7180  207.5560  151.2650 N   0  0  0  0  0  0  0  0  0  0  0  0
  161.9680  208.0240  155.4930 O   0  0  0  0  0  1  0  0  0  0  0  0
  160.8500  208.2440  154.6880 C   0  0  2  0  0  3  0  0  0  0  0  0
  161.2620  210.5940  151.9340 O   0  0  0  0  0  0  0  0  0  0  0  0
  160.6000  209.5740  152.5910 N   0  0  2  0  0  0  0  0  0  0  0  0
  160.6970  207.0900  153.6850 C   0  0  0  0  0  2  0  0  0  0  0  0
  161.5790  207.2740  152.4480 C   0  0  2  0  0  3  0  0  0  0  0  0
  159.7730  210.1850  156.0090 F   0  0  0  0  0  0  0  0  0  0  0  0
  160.8190  211.8390  154.9100 F   0  0  0  0  0  0  0  0  0  0  0  0
  158.9510  210.9240  154.0430 F   0  0  0  0  0  0  0  0  0  0  0  0
  160.1080  210.6630  154.7550 C   0  0  0  0  0  0  0  0  0  0  0  0
  161.8010  209.8260  149.6990 C   0  0  2  0  0  3  0  0  0  0  0  0
  162.6810  209.0190  148.9740 O   0  0  0  0  0  1  0  0  0  0  0  0
  161.8930  211.2300  149.1950 C   0  0  0  0  0  0  0  0  0  0  0  0
  161.0850  212.1060  149.6100 O   0  0  0  0  0  0  0  0  0  0  0  0
  163.0270  212.8680  147.7530 C   0  0  0  0  0  1  0  0  0  0  0  0
  162.8690  211.5490  148.2510 O   0  0  0  0  0  0  0  0  0  0  0  0
  161.4600  206.9460  150.1690 C   0  0  0  0  0  2  0  0  0  0  0  0
  160.5320  206.2240  149.1890 C   0  0  2  0  0  3  0  0  0  0  0  0
  160.4580  204.7110  149.4200 C   0  0  0  0  0  2  0  0  0  0  0  0
  160.7990  206.5760  147.7210 C   0  0  0  0  0  2  0  0  0  0  0  0
  161.6760  203.9860  148.8450 C   0  0  0  0  0  2  0  0  0  0  0  0
  161.8660  204.3100  147.3620 C   0  0  2  0  0  3  0  0  0  0  0  0
  162.0050  205.8200  147.1590 C   0  0  0  0  0  2  0  0  0  0  0  0
  160.7900  203.8110  146.6060 O   0  0  0  0  0  0  0  0  0  0  0  0
  162.6390  203.5690  145.2580 F   0  0  0  0  0  0  0  0  0  0  0  0
  160.7470  204.4880  144.4050 F   0  0  0  0  0  0  0  0  0  0  0  0
  160.8190  202.3030  144.9150 F   0  0  0  0  0  0  0  0  0  0  0  0
  161.2540  203.5560  145.3000 C   0  0  0  0  0  0  0  0  0  0  0  0
  1  6  1  0  0  0  0
  1 14  1  1  0  0  0
  2 15  1  6  0  0  0
  2  7  1  0  0  0  0
  2  3  1  0  0  0  0
  3  4  1  6  0  0  0
  3 10  1  0  0  0  0
  3  8  1  0  0  0  0
  4 10  1  0  0  0  0
  6  5  1  6  0  0  0
  8  7  1  6  0  0  0
  8  1  1  0  0  0  0
  9  6  1  0  0  0  0
 10  9  1  1  0  0  0
 13 14  1  0  0  0  0
 14 12  1  0  0  0  0
 14 11  1  0  0  0  0
 15 16  1  6  0  0  0
 17 18  2  0  0  0  0
 17 15  1  0  0  0  0
 19 20  1  0  0  0  0
 20 17  1  0  0  0  0
 21  4  1  0  0  0  0
 22 23  1  0  0  0  0
 22 21  1  1  0  0  0
 24 22  1  0  0  0  0
 25 23  1  0  0  0  0
 26 28  1  6  0  0  0
 26 25  1  0  0  0  0
 27 26  1  0  0  0  0
 27 24  1  0  0  0  0
 29 32  1  0  0  0  0
 30 32  1  0  0  0  0
 31 32  1  0  0  0  0
 32 28  1  0  0  0  0
M  END
>  <MODEL>
1

>  <REMARK>
 VINA RESULT:      -7.6      0.000      0.000
  Name = 
  8 active torsions:
  status: ('A' for Active; 'I' for Inactive)
    1  A    between atoms: C_1  and  C_2
    2  A    between atoms: C_1  and  O_30
    3  A    between atoms: C_2  and  C_7
    4  A    between atoms: C_5  and  C_28
    5  A    between atoms: C_6  and  C_31
    6  A    between atoms: N_15  and  C_31
    7  A    between atoms: C_19  and  O_32
    8  A    between atoms: C_22  and  O_32
                            x       y       z     vdW  Elec       q    Type
                         _______ _______ _______ _____ _____    ______ ____

>  <TORSDO>
F 8

$$$$
=
 OpenBabel11072411523D

 32 35  0  0  1  0  0  0  0  0999 V2000
  160.8360  201.6940  148.5320 C   0  0  1  0  0  3  0  0  0  0  0  0
  160.7600  204.6030  147.6020 C   0  0  2  0  0  3  0  0  0  0  0  0
  160.9580  204.0080  148.9500 C   0  0  2  0  0  0  0  0  0  0  0  0
  161.7340  204.6860  150.0050 N   0  0  0  0  0  0  0  0  0  0  0  0
  159.1590  201.0790  150.1400 O   0  0  0  0  0  1  0  0  0  0  0  0
  160.5070  201.4140  150.0160 C   0  0  2  0  0  3  0  0  0  0  0  0
  161.4270  203.4310  147.1240 O   0  0  0  0  0  0  0  0  0  0  0  0
  161.6630  202.8990  148.3770 N   0  0  2  0  0  0  0  0  0  0  0  0
  160.8370  202.5910  150.9470 C   0  0  0  0  0  2  0  0  0  0  0  0
  160.4810  203.9430  150.3220 C   0  0  2  0  0  3  0  0  0  0  0  0
  162.8820  200.5540  148.0740 F   0  0  0  0  0  0  0  0  0  0  0  0
  161.0530  199.3180  148.4790 F   0  0  0  0  0  0  0  0  0  0  0  0
  161.2370  200.4410  146.5340 F   0  0  0  0  0  0  0  0  0  0  0  0
  161.5130  200.4810  147.8890 C   0  0  0  0  0  0  0  0  0  0  0  0
  161.6030  205.8430  147.2810 C   0  0  2  0  0  3  0  0  0  0  0  0
  160.7620  206.9210  146.9970 O   0  0  0  0  0  1  0  0  0  0  0  0
  162.5160  205.6130  146.1190 C   0  0  0  0  0  0  0  0  0  0  0  0
  163.6310  205.0480  146.2920 O   0  0  0  0  0  0  0  0  0  0  0  0
  161.2820  205.2650  144.0200 C   0  0  0  0  0  1  0  0  0  0  0  0
  162.1240  206.0480  144.8540 O   0  0  0  0  0  0  0  0  0  0  0  0
  161.3460  206.0770  150.1980 C   0  0  0  0  0  2  0  0  0  0  0  0
  162.2290  206.7730  151.2360 C   0  0  2  0  0  3  0  0  0  0  0  0
  162.1450  206.1430  152.6300 C   0  0  0  0  0  2  0  0  0  0  0  0
  162.0470  208.2950  151.2730 C   0  0  0  0  0  2  0  0  0  0  0  0
  160.8820  206.5740  153.3760 C   0  0  0  0  0  2  0  0  0  0  0  0
  160.7730  208.0980  153.4500 C   0  0  2  0  0  3  0  0  0  0  0  0
  160.7910  208.7040  152.0450 C   0  0  0  0  0  2  0  0  0  0  0  0
  161.8190  208.6300  154.2270 O   0  0  0  0  0  0  0  0  0  0  0  0
  161.8250  207.8320  156.3850 F   0  0  0  0  0  0  0  0  0  0  0  0
  159.9520  208.8140  155.5630 F   0  0  0  0  0  0  0  0  0  0  0  0
  161.7790  210.0410  155.9990 F   0  0  0  0  0  0  0  0  0  0  0  0
  161.3390  208.8160  155.5380 C   0  0  0  0  0  0  0  0  0  0  0  0
  1 14  1  1  0  0  0
  1  6  1  0  0  0  0
  2 15  1  1  0  0  0
  2  3  1  0  0  0  0
  3  4  1  1  0  0  0
  3 10  1  0  0  0  0
  4 21  1  0  0  0  0
  4 10  1  0  0  0  0
  6  5  1  6  0  0  0
  6  9  1  0  0  0  0
  7  2  1  0  0  0  0
  8  7  1  6  0  0  0
  8  1  1  0  0  0  0
  8  3  1  0  0  0  0
 10  9  1  1  0  0  0
 13 14  1  0  0  0  0
 14 11  1  0  0  0  0
 14 12  1  0  0  0  0
 15 16  1  6  0  0  0
 17 18  2  0  0  0  0
 17 15  1  0  0  0  0
 19 20  1  0  0  0  0
 20 17  1  0  0  0  0
 22 21  1  6  0  0  0
 22 24  1  0  0  0  0
 22 23  1  0  0  0  0
 23 25  1  0  0  0  0
 24 27  1  0  0  0  0
 25 26  1  0  0  0  0
 26 28  1  1  0  0  0
 27 26  1  0  0  0  0
 28 32  1  0  0  0  0
 32 30  1  0  0  0  0
 32 31  1  0  0  0  0
 32 29  1  0  0  0  0
M  END
>  <MODEL>
2

>  <REMARK>
 VINA RESULT:      -7.4      2.861      8.475
  Name = 
  8 active torsions:
  status: ('A' for Active; 'I' for Inactive)
    1  A    between atoms: C_1  and  C_2
    2  A    between atoms: C_1  and  O_30
    3  A    between atoms: C_2  and  C_7
    4  A    between atoms: C_5  and  C_28
    5  A    between atoms: C_6  and  C_31
    6  A    between atoms: N_15  and  C_31
    7  A    between atoms: C_19  and  O_32
    8  A    between atoms: C_22  and  O_32
                            x       y       z     vdW  Elec       q    Type
                         _______ _______ _______ _____ _____    ______ ____

>  <TORSDO>
F 8

$$$$
=
 OpenBabel11072411523D

 32 35  0  0  1  0  0  0  0  0999 V2000
  161.0190  210.1540  153.5880 C   0  0  1  0  0  3  0  0  0  0  0  0
  162.1500  209.8500  150.7670 C   0  0  2  0  0  3  0  0  0  0  0  0
  161.4650  208.8780  151.6600 C   0  0  2  0  0  0  0  0  0  0  0  0
  160.6800  207.7440  151.1360 N   0  0  0  0  0  0  0  0  0  0  0  0
  161.9990  208.7260  155.2540 O   0  0  0  0  0  1  0  0  0  0  0  0
  160.8770  208.8710  154.4380 C   0  0  2  0  0  3  0  0  0  0  0  0
  161.3160  210.8260  151.3950 O   0  0  0  0  0  0  0  0  0  0  0  0
  160.6360  209.9210  152.1870 N   0  0  2  0  0  0  0  0  0  0  0  0
  160.6790  207.6000  153.5970 C   0  0  0  0  0  2  0  0  0  0  0  0
  161.5490  207.5950  152.3380 C   0  0  2  0  0  3  0  0  0  0  0  0
  158.9050  210.8800  154.4240 F   0  0  0  0  0  0  0  0  0  0  0  0
  160.7580  211.6850  155.4000 F   0  0  0  0  0  0  0  0  0  0  0  0
  160.1880  212.3820  153.3350 F   0  0  0  0  0  0  0  0  0  0  0  0
  160.2030  211.2980  154.1940 C   0  0  0  0  0  0  0  0  0  0  0  0
  161.8040  209.7570  149.2750 C   0  0  2  0  0  3  0  0  0  0  0  0
  162.6660  208.8550  148.6490 O   0  0  0  0  0  1  0  0  0  0  0  0
  161.9030  211.0850  148.5950 C   0  0  0  0  0  0  0  0  0  0  0  0
  162.9050  211.8250  148.7960 O   0  0  0  0  0  0  0  0  0  0  0  0
  160.9140  212.7330  147.0620 C   0  0  0  0  0  1  0  0  0  0  0  0
  160.8680  211.4960  147.7560 O   0  0  0  0  0  0  0  0  0  0  0  0
  161.3900  206.9750  150.1220 C   0  0  0  0  0  2  0  0  0  0  0  0
  160.4530  206.0230  149.3750 C   0  0  2  0  0  3  0  0  0  0  0  0
  160.1880  204.7130  150.1250 C   0  0  0  0  0  2  0  0  0  0  0  0
  160.8590  205.7860  147.9160 C   0  0  0  0  0  2  0  0  0  0  0  0
  161.3500  203.7280  149.9810 C   0  0  0  0  0  2  0  0  0  0  0  0
  161.6770  203.4670  148.5100 C   0  0  2  0  0  3  0  0  0  0  0  0
  162.0040  204.7790  147.7940 C   0  0  0  0  0  2  0  0  0  0  0  0
  160.6050  202.8160  147.8740 O   0  0  0  0  0  0  0  0  0  0  0  0
  159.7600  200.9850  148.9820 F   0  0  0  0  0  0  0  0  0  0  0  0
  161.9920  201.1290  148.6040 F   0  0  0  0  0  0  0  0  0  0  0  0
  160.5730  200.7680  146.9030 F   0  0  0  0  0  0  0  0  0  0  0  0
  160.7340  201.4320  148.1040 C   0  0  0  0  0  0  0  0  0  0  0  0
  1 14  1  1  0  0  0
  1  6  1  0  0  0  0
  2 15  1  6  0  0  0
  2  7  1  0  0  0  0
  2  3  1  0  0  0  0
  3  4  1  6  0  0  0
  3  8  1  0  0  0  0
  3 10  1  0  0  0  0
  4 10  1  0  0  0  0
  6  5  1  6  0  0  0
  8  7  1  6  0  0  0
  8  1  1  0  0  0  0
  9  6  1  0  0  0  0
 10  9  1  1  0  0  0
 13 14  1  0  0  0  0
 14 11  1  0  0  0  0
 14 12  1  0  0  0  0
 15 16  1  6  0  0  0
 17 18  2  0  0  0  0
 17 15  1  0  0  0  0
 19 20  1  0  0  0  0
 20 17  1  0  0  0  0
 21  4  1  0  0  0  0
 22 21  1  1  0  0  0
 22 23  1  0  0  0  0
 24 22  1  0  0  0  0
 25 23  1  0  0  0  0
 26 28  1  6  0  0  0
 26 25  1  0  0  0  0
 27 24  1  0  0  0  0
 27 26  1  0  0  0  0
 28 32  1  0  0  0  0
 31 32  1  0  0  0  0
 32 30  1  0  0  0  0
 32 29  1  0  0  0  0
M  END
>  <MODEL>
3

>  <REMARK>
 VINA RESULT:      -7.4      1.515      1.879
  Name = 
  8 active torsions:
  status: ('A' for Active; 'I' for Inactive)
    1  A    between atoms: C_1  and  C_2
    2  A    between atoms: C_1  and  O_30
    3  A    between atoms: C_2  and  C_7
    4  A    between atoms: C_5  and  C_28
    5  A    between atoms: C_6  and  C_31
    6  A    between atoms: N_15  and  C_31
    7  A    between atoms: C_19  and  O_32
    8  A    between atoms: C_22  and  O_32
                            x       y       z     vdW  Elec       q    Type
                         _______ _______ _______ _____ _____    ______ ____

>  <TORSDO>
F 8

$$$$
=
 OpenBabel11072411523D

 32 35  0  0  1  0  0  0  0  0999 V2000
  161.1950  209.4990  154.0300 C   0  0  1  0  0  3  0  0  0  0  0  0
  162.3270  208.7240  151.3000 C   0  0  2  0  0  3  0  0  0  0  0  0
  161.5620  207.9390  152.3050 C   0  0  2  0  0  0  0  0  0  0  0  0
  160.7000  206.8030  151.9280 N   0  0  0  0  0  0  0  0  0  0  0  0
  162.0510  208.2490  155.8950 O   0  0  0  0  0  1  0  0  0  0  0  0
  160.9500  208.3600  155.0460 C   0  0  2  0  0  3  0  0  0  0  0  0
  161.5620  209.8370  151.7710 O   0  0  0  0  0  0  0  0  0  0  0  0
  160.8080  209.1030  152.6680 N   0  0  2  0  0  0  0  0  0  0  0  0
  160.6650  207.0030  154.3850 C   0  0  0  0  0  2  0  0  0  0  0  0
  161.5440  206.7600  153.1550 C   0  0  2  0  0  3  0  0  0  0  0  0
  160.5970  211.7430  153.4800 F   0  0  0  0  0  0  0  0  0  0  0  0
  159.1150  210.5060  154.6250 F   0  0  0  0  0  0  0  0  0  0  0  0
  160.9810  211.2480  155.6480 F   0  0  0  0  0  0  0  0  0  0  0  0
  160.4620  210.7730  154.4560 C   0  0  0  0  0  0  0  0  0  0  0  0
  161.9880  208.4500  149.8290 C   0  0  2  0  0  3  0  0  0  0  0  0
  162.9680  207.6300  149.2670 O   0  0  0  0  0  1  0  0  0  0  0  0
  161.8890  209.7130  149.0350 C   0  0  0  0  0  0  0  0  0  0  0  0
  161.4840  209.6800  147.8400 O   0  0  0  0  0  0  0  0  0  0  0  0
  161.8860  212.1720  149.0850 C   0  0  0  0  0  1  0  0  0  0  0  0
  162.2690  210.9170  149.6270 O   0  0  0  0  0  0  0  0  0  0  0  0
  161.3590  205.8510  151.0440 C   0  0  0  0  0  2  0  0  0  0  0  0
  160.3520  205.0870  150.1820 C   0  0  2  0  0  3  0  0  0  0  0  0
  160.3150  203.5830  150.4720 C   0  0  0  0  0  2  0  0  0  0  0  0
  160.4780  205.3870  148.6830 C   0  0  0  0  0  2  0  0  0  0  0  0
  161.4820  202.8460  149.8130 C   0  0  0  0  0  2  0  0  0  0  0  0
  161.5300  203.1170  148.3080 C   0  0  2  0  0  3  0  0  0  0  0  0
  161.6350  204.6200  148.0390 C   0  0  0  0  0  2  0  0  0  0  0  0
  160.3940  202.5830  147.6730 O   0  0  0  0  0  0  0  0  0  0  0  0
  161.6490  202.6730  145.7460 F   0  0  0  0  0  0  0  0  0  0  0  0
  159.7360  201.4530  145.7780 F   0  0  0  0  0  0  0  0  0  0  0  0
  161.5360  200.7720  146.9320 F   0  0  0  0  0  0  0  0  0  0  0  0
  160.8210  201.8820  146.5280 C   0  0  0  0  0  0  0  0  0  0  0  0
  1 14  1  1  0  0  0
  1  6  1  0  0  0  0
  2 15  1  6  0  0  0
  2  7  1  0  0  0  0
  2  3  1  0  0  0  0
  3  4  1  6  0  0  0
  3  8  1  0  0  0  0
  3 10  1  0  0  0  0
  4 10  1  0  0  0  0
  6  5  1  1  0  0  0
  8  7  1  6  0  0  0
  8  1  1  0  0  0  0
  9  6  1  0  0  0  0
 10  9  1  1  0  0  0
 11 14  1  0  0  0  0
 14 12  1  0  0  0  0
 14 13  1  0  0  0  0
 15 16  1  6  0  0  0
 17 20  1  0  0  0  0
 17 15  1  0  0  0  0
 18 17  2  0  0  0  0
 19 20  1  0  0  0  0
 21  4  1  0  0  0  0
 22 23  1  0  0  0  0
 22 21  1  1  0  0  0
 24 22  1  0  0  0  0
 25 23  1  0  0  0  0
 26 28  1  6  0  0  0
 26 25  1  0  0  0  0
 27 26  1  0  0  0  0
 27 24  1  0  0  0  0
 29 32  1  0  0  0  0
 30 32  1  0  0  0  0
 32 31  1  0  0  0  0
 32 28  1  0  0  0  0
M  END
>  <MODEL>
4

>  <REMARK>
 VINA RESULT:      -7.1      1.232      1.705
  Name = 
  8 active torsions:
  status: ('A' for Active; 'I' for Inactive)
    1  A    between atoms: C_1  and  C_2
    2  A    between atoms: C_1  and  O_30
    3  A    between atoms: C_2  and  C_7
    4  A    between atoms: C_5  and  C_28
    5  A    between atoms: C_6  and  C_31
    6  A    between atoms: N_15  and  C_31
    7  A    between atoms: C_19  and  O_32
    8  A    between atoms: C_22  and  O_32
                            x       y       z     vdW  Elec       q    Type
                         _______ _______ _______ _____ _____    ______ ____

>  <TORSDO>
F 8

$$$$
=
 OpenBabel11072411523D

 32 35  0  0  1  0  0  0  0  0999 V2000
  160.8470  201.6890  148.6390 C   0  0  1  0  0  3  0  0  0  0  0  0
  160.5040  204.6180  147.8420 C   0  0  2  0  0  3  0  0  0  0  0  0
  160.8490  203.9890  149.1450 C   0  0  2  0  0  0  0  0  0  0  0  0
  161.6610  204.6800  150.1630 N   0  0  0  0  0  0  0  0  0  0  0  0
  159.3500  200.9000  150.3460 O   0  0  0  0  0  1  0  0  0  0  0  0
  160.6590  201.3320  150.1310 C   0  0  2  0  0  3  0  0  0  0  0  0
  161.2050  203.5150  147.2640 O   0  0  0  0  0  0  0  0  0  0  0  0
  161.5780  202.9540  148.4710 N   0  0  2  0  0  0  0  0  0  0  0  0
  160.9840  202.4940  151.0820 C   0  0  0  0  0  2  0  0  0  0  0  0
  160.4910  203.8400  150.5450 C   0  0  2  0  0  3  0  0  0  0  0  0
  161.1560  199.3330  148.4170 F   0  0  0  0  0  0  0  0  0  0  0  0
  161.2070  200.5840  146.5540 F   0  0  0  0  0  0  0  0  0  0  0  0
  162.9220  200.6770  148.0140 F   0  0  0  0  0  0  0  0  0  0  0  0
  161.5490  200.5510  147.8940 C   0  0  0  0  0  0  0  0  0  0  0  0
  161.2340  205.9260  147.5100 C   0  0  2  0  0  3  0  0  0  0  0  0
  160.5050  207.0090  148.0050 O   0  0  0  0  0  1  0  0  0  0  0  0
  161.4300  206.0970  146.0380 C   0  0  0  0  0  0  0  0  0  0  0  0
  160.4660  206.4580  145.3080 O   0  0  0  0  0  0  0  0  0  0  0  0
  163.4590  204.7150  145.8880 C   0  0  0  0  0  1  0  0  0  0  0  0
  162.6830  205.8330  145.4860 O   0  0  0  0  0  0  0  0  0  0  0  0
  161.1990  206.0320  150.4450 C   0  0  0  0  0  2  0  0  0  0  0  0
  162.1470  206.7690  151.3950 C   0  0  2  0  0  3  0  0  0  0  0  0
  162.1380  206.2090  152.8220 C   0  0  0  0  0  2  0  0  0  0  0  0
  161.9790  208.2920  151.3660 C   0  0  0  0  0  2  0  0  0  0  0  0
  160.9230  206.6900  153.6160 C   0  0  0  0  0  2  0  0  0  0  0  0
  160.8320  208.2180  153.6200 C   0  0  2  0  0  3  0  0  0  0  0  0
  160.7730  208.7530  152.1880 C   0  0  0  0  0  2  0  0  0  0  0  0
  161.9240  208.7760  154.3080 O   0  0  0  0  0  0  0  0  0  0  0  0
  161.8450  210.8710  155.2560 F   0  0  0  0  0  0  0  0  0  0  0  0
  161.8180  209.0380  156.5930 F   0  0  0  0  0  0  0  0  0  0  0  0
  160.0430  209.5370  155.3150 F   0  0  0  0  0  0  0  0  0  0  0  0
  161.4220  209.5560  155.3680 C   0  0  0  0  0  0  0  0  0  0  0  0
  1 14  1  6  0  0  0
  1  6  1  0  0  0  0
  2 15  1  1  0  0  0
  2  3  1  0  0  0  0
  3  4  1  1  0  0  0
  3 10  1  0  0  0  0
  4 21  1  0  0  0  0
  4 10  1  0  0  0  0
  6  5  1  6  0  0  0
  6  9  1  0  0  0  0
  7  2  1  0  0  0  0
  8  7  1  6  0  0  0
  8  1  1  0  0  0  0
  8  3  1  0  0  0  0
 10  9  1  1  0  0  0
 12 14  1  0  0  0  0
 14 13  1  0  0  0  0
 14 11  1  0  0  0  0
 15 16  1  6  0  0  0
 17 15  1  0  0  0  0
 18 17  2  0  0  0  0
 20 19  1  0  0  0  0
 20 17  1  0  0  0  0
 22 21  1  6  0  0  0
 22 23  1  0  0  0  0
 23 25  1  0  0  0  0
 24 22  1  0  0  0  0
 24 27  1  0  0  0  0
 25 26  1  0  0  0  0
 26 28  1  6  0  0  0
 27 26  1  0  0  0  0
 28 32  1  0  0  0  0
 29 32  1  0  0  0  0
 31 32  1  0  0  0  0
 32 30  1  0  0  0  0
M  END
>  <MODEL>
5

>  <REMARK>
 VINA RESULT:      -6.6      2.761      8.452
  Name = 
  8 active torsions:
  status: ('A' for Active; 'I' for Inactive)
    1  A    between atoms: C_1  and  C_2
    2  A    between atoms: C_1  and  O_30
    3  A    between atoms: C_2  and  C_7
    4  A    between atoms: C_5  and  C_28
    5  A    between atoms: C_6  and  C_31
    6  A    between atoms: N_15  and  C_31
    7  A    between atoms: C_19  and  O_32
    8  A    between atoms: C_22  and  O_32
                            x       y       z     vdW  Elec       q    Type
                         _______ _______ _______ _____ _____    ______ ____

>  <TORSDO>
F 8

$$$$
=
 OpenBabel11072411523D

 32 35  0  0  1  0  0  0  0  0999 V2000
  160.6760  210.3580  153.3650 C   0  0  1  0  0  3  0  0  0  0  0  0
  162.1670  208.4450  151.5080 C   0  0  2  0  0  3  0  0  0  0  0  0
  161.3280  208.1930  152.7100 C   0  0  2  0  0  0  0  0  0  0  0  0
  160.5780  206.9370  152.8970 N   0  0  0  0  0  0  0  0  0  0  0  0
  161.3630  210.3080  155.6670 O   0  0  0  0  0  1  0  0  0  0  0  0
  160.3690  209.8630  154.7970 C   0  0  2  0  0  3  0  0  0  0  0  0
  161.2950  209.5560  151.2860 O   0  0  0  0  0  0  0  0  0  0  0  0
  160.4770  209.2940  152.3690 N   0  0  2  0  0  0  0  0  0  0  0  0
  160.2370  208.3350  154.8990 C   0  0  0  0  0  2  0  0  0  0  0  0
  161.2690  207.6030  154.0370 C   0  0  2  0  0  3  0  0  0  0  0  0
  159.6290  212.3500  154.1620 F   0  0  0  0  0  0  0  0  0  0  0  0
  160.4880  212.3660  152.0890 F   0  0  0  0  0  0  0  0  0  0  0  0
  158.6060  211.2010  152.5120 F   0  0  0  0  0  0  0  0  0  0  0  0
  159.8310  211.5880  153.0250 C   0  0  0  0  0  0  0  0  0  0  0  0
  162.0220  207.4370  150.3600 C   0  0  2  0  0  3  0  0  0  0  0  0
  163.1990  206.6950  150.2370 O   0  0  0  0  0  1  0  0  0  0  0  0
  161.7290  208.1120  149.0590 C   0  0  0  0  0  0  0  0  0  0  0  0
  162.2390  209.2370  148.8000 O   0  0  0  0  0  0  0  0  0  0  0  0
  161.3570  206.8580  146.9760 C   0  0  0  0  0  1  0  0  0  0  0  0
  160.8720  207.4900  148.1510 O   0  0  0  0  0  0  0  0  0  0  0  0
  161.3870  205.7460  152.6760 C   0  0  0  0  0  2  0  0  0  0  0  0
  160.5280  204.5430  152.2800 C   0  0  2  0  0  3  0  0  0  0  0  0
  161.2210  203.1950  152.5100 C   0  0  0  0  0  2  0  0  0  0  0  0
  159.9290  204.6560  150.8730 C   0  0  0  0  0  2  0  0  0  0  0  0
  162.2290  202.8760  151.4050 C   0  0  0  0  0  2  0  0  0  0  0  0
  161.5740  202.9330  150.0230 C   0  0  2  0  0  3  0  0  0  0  0  0
  160.9460  204.3080  149.7850 C   0  0  0  0  0  2  0  0  0  0  0  0
  160.6040  201.9220  149.8950 O   0  0  0  0  0  0  0  0  0  0  0  0
  161.1960  200.2440  148.4360 F   0  0  0  0  0  0  0  0  0  0  0  0
  161.2470  202.4020  147.7360 F   0  0  0  0  0  0  0  0  0  0  0  0
  159.2870  201.3820  148.1310 F   0  0  0  0  0  0  0  0  0  0  0  0
  160.5980  201.4890  148.5540 C   0  0  0  0  0  0  0  0  0  0  0  0
  1 14  1  6  0  0  0
  1  6  1  0  0  0  0
  2 15  1  6  0  0  0
  2  3  1  0  0  0  0
  3  4  1  6  0  0  0
  3 10  1  0  0  0  0
  4 10  1  0  0  0  0
  6  9  1  0  0  0  0
  6  5  1  1  0  0  0
  7  2  1  0  0  0  0
  8  7  1  6  0  0  0
  8  3  1  0  0  0  0
  8  1  1  0  0  0  0
 10  9  1  1  0  0  0
 12 14  1  0  0  0  0
 13 14  1  0  0  0  0
 14 11  1  0  0  0  0
 15 16  1  6  0  0  0
 17 15  1  0  0  0  0
 18 17  2  0  0  0  0
 19 20  1  0  0  0  0
 20 17  1  0  0  0  0
 21  4  1  0  0  0  0
 22 23  1  0  0  0  0
 22 21  1  6  0  0  0
 24 22  1  0  0  0  0
 25 23  1  0  0  0  0
 26 28  1  1  0  0  0
 26 25  1  0  0  0  0
 27 26  1  0  0  0  0
 27 24  1  0  0  0  0
 29 32  1  0  0  0  0
 30 32  1  0  0  0  0
 31 32  1  0  0  0  0
 32 28  1  0  0  0  0
M  END
>  <MODEL>
6

>  <REMARK>
 VINA RESULT:      -6.5      2.248      3.040
  Name = 
  8 active torsions:
  status: ('A' for Active; 'I' for Inactive)
    1  A    between atoms: C_1  and  C_2
    2  A    between atoms: C_1  and  O_30
    3  A    between atoms: C_2  and  C_7
    4  A    between atoms: C_5  and  C_28
    5  A    between atoms: C_6  and  C_31
    6  A    between atoms: N_15  and  C_31
    7  A    between atoms: C_19  and  O_32
    8  A    between atoms: C_22  and  O_32
                            x       y       z     vdW  Elec       q    Type
                         _______ _______ _______ _____ _____    ______ ____

>  <TORSDO>
F 8

$$$$
=
 OpenBabel11072411523D

 32 35  0  0  1  0  0  0  0  0999 V2000
  159.2900  212.0800  154.5910 C   0  0  1  0  0  3  0  0  0  0  0  0
  159.7080  209.0690  154.8830 C   0  0  2  0  0  3  0  0  0  0  0  0
  159.9720  209.9910  153.7470 C   0  0  2  0  0  0  0  0  0  0  0  0
  161.0260  209.7300  152.7490 N   0  0  0  0  0  0  0  0  0  0  0  0
  157.7810  212.7500  152.8440 O   0  0  0  0  0  1  0  0  0  0  0  0
  159.1350  212.6410  153.1580 C   0  0  2  0  0  3  0  0  0  0  0  0
  160.0250  210.1930  155.7070 O   0  0  0  0  0  0  0  0  0  0  0  0
  160.3270  211.0400  154.6580 N   0  0  2  0  0  0  0  0  0  0  0  0
  159.8490  211.7950  152.0920 C   0  0  0  0  0  2  0  0  0  0  0  0
  159.7050  210.2920  152.3500 C   0  0  2  0  0  3  0  0  0  0  0  0
  159.6280  214.4200  154.9200 F   0  0  0  0  0  0  0  0  0  0  0  0
  158.5860  213.2660  156.5390 F   0  0  0  0  0  0  0  0  0  0  0  0
  160.7980  212.9870  156.2120 F   0  0  0  0  0  0  0  0  0  0  0  0
  159.5840  213.2080  155.5840 C   0  0  0  0  0  0  0  0  0  0  0  0
  160.7420  207.9580  155.1050 C   0  0  2  0  0  3  0  0  0  0  0  0
  160.3140  206.7870  154.4760 O   0  0  0  0  0  1  0  0  0  0  0  0
  160.9630  207.6830  156.5580 C   0  0  0  0  0  0  0  0  0  0  0  0
  160.0600  207.1280  157.2420 O   0  0  0  0  0  0  0  0  0  0  0  0
  162.5770  209.4240  157.2020 C   0  0  0  0  0  1  0  0  0  0  0  0
  162.1690  208.0650  157.1440 O   0  0  0  0  0  0  0  0  0  0  0  0
  160.9830  208.3780  152.2080 C   0  0  0  0  0  2  0  0  0  0  0  0
  162.1010  208.1380  151.1910 C   0  0  2  0  0  3  0  0  0  0  0  0
  161.7470  208.5980  149.7730 C   0  0  0  0  0  2  0  0  0  0  0  0
  162.6560  206.7090  151.2180 C   0  0  0  0  0  2  0  0  0  0  0  0
  160.8420  207.5940  149.0570 C   0  0  0  0  0  2  0  0  0  0  0  0
  161.4640  206.1960  149.0460 C   0  0  2  0  0  3  0  0  0  0  0  0
  161.7490  205.7270  150.4740 C   0  0  0  0  0  2  0  0  0  0  0  0
  162.6450  206.1870  148.2830 O   0  0  0  0  0  0  0  0  0  0  0  0
  163.6100  204.8990  146.6380 F   0  0  0  0  0  0  0  0  0  0  0  0
  161.7770  206.1430  146.1500 F   0  0  0  0  0  0  0  0  0  0  0  0
  161.6060  204.3420  147.4780 F   0  0  0  0  0  0  0  0  0  0  0  0
  162.4180  205.4040  147.1340 C   0  0  0  0  0  0  0  0  0  0  0  0
  1  8  1  0  0  0  0
  1 14  1  1  0  0  0
  2 15  1  1  0  0  0
  2  7  1  0  0  0  0
  3  4  1  6  0  0  0
  3  8  1  0  0  0  0
  3  2  1  0  0  0  0
  6  5  1  6  0  0  0
  6  1  1  0  0  0  0
  8  7  1  1  0  0  0
  9  6  1  0  0  0  0
 10  9  1  1  0  0  0
 10  4  1  0  0  0  0
 10  3  1  0  0  0  0
 11 14  1  0  0  0  0
 14 13  1  0  0  0  0
 14 12  1  0  0  0  0
 15 16  1  6  0  0  0
 15 17  1  0  0  0  0
 17 20  1  0  0  0  0
 17 18  2  0  0  0  0
 20 19  1  0  0  0  0
 21  4  1  0  0  0  0
 22 24  1  0  0  0  0
 22 21  1  1  0  0  0
 23 22  1  0  0  0  0
 25 23  1  0  0  0  0
 26 28  1  6  0  0  0
 26 25  1  0  0  0  0
 26 27  1  0  0  0  0
 27 24  1  0  0  0  0
 29 32  1  0  0  0  0
 30 32  1  0  0  0  0
 32 31  1  0  0  0  0
 32 28  1  0  0  0  0
M  END
>  <MODEL>
7

>  <REMARK>
 VINA RESULT:      -5.8      2.561      4.895
  Name = 
  8 active torsions:
  status: ('A' for Active; 'I' for Inactive)
    1  A    between atoms: C_1  and  C_2
    2  A    between atoms: C_1  and  O_30
    3  A    between atoms: C_2  and  C_7
    4  A    between atoms: C_5  and  C_28
    5  A    between atoms: C_6  and  C_31
    6  A    between atoms: N_15  and  C_31
    7  A    between atoms: C_19  and  O_32
    8  A    between atoms: C_22  and  O_32
                            x       y       z     vdW  Elec       q    Type
                         _______ _______ _______ _____ _____    ______ ____

>  <TORSDO>
F 8

$$$$
=
 OpenBabel11072411523D

 32 35  0  0  1  0  0  0  0  0999 V2000
  161.2430  208.8090  153.6730 C   0  0  1  0  0  3  0  0  0  0  0  0
  162.4810  207.6810  151.1180 C   0  0  2  0  0  3  0  0  0  0  0  0
  161.6240  207.0490  152.1570 C   0  0  2  0  0  0  0  0  0  0  0  0
  160.7280  205.9170  151.8560 N   0  0  0  0  0  0  0  0  0  0  0  0
  161.9310  207.7420  155.7130 O   0  0  0  0  0  1  0  0  0  0  0  0
  160.8860  207.8050  154.7930 C   0  0  2  0  0  3  0  0  0  0  0  0
  161.7490  208.8720  151.4170 O   0  0  0  0  0  0  0  0  0  0  0  0
  160.9110  208.2790  152.3420 N   0  0  2  0  0  0  0  0  0  0  0  0
  160.5690  206.3950  154.2700 C   0  0  0  0  0  2  0  0  0  0  0  0
  161.5000  205.9760  153.1290 C   0  0  2  0  0  3  0  0  0  0  0  0
  159.6400  210.4010  152.9020 F   0  0  0  0  0  0  0  0  0  0  0  0
  159.8740  210.1280  155.1170 F   0  0  0  0  0  0  0  0  0  0  0  0
  161.4870  211.1740  153.9410 F   0  0  0  0  0  0  0  0  0  0  0  0
  160.5520  210.1540  153.9120 C   0  0  0  0  0  0  0  0  0  0  0  0
  162.2090  207.2580  149.6690 C   0  0  2  0  0  3  0  0  0  0  0  0
  163.3340  206.6120  149.1510 O   0  0  0  0  0  1  0  0  0  0  0  0
  161.8700  208.4260  148.8010 C   0  0  0  0  0  0  0  0  0  0  0  0
  162.0030  209.6020  149.2400 O   0  0  0  0  0  0  0  0  0  0  0  0
  160.8300  206.9470  147.1330 C   0  0  0  0  0  1  0  0  0  0  0  0
  161.3890  208.1960  147.5120 O   0  0  0  0  0  0  0  0  0  0  0  0
  161.3850  204.8430  151.1240 C   0  0  0  0  0  2  0  0  0  0  0  0
  160.3850  204.0130  150.3160 C   0  0  2  0  0  3  0  0  0  0  0  0
  160.4540  202.5120  150.6150 C   0  0  0  0  0  2  0  0  0  0  0  0
  160.4200  204.3080  148.8120 C   0  0  0  0  0  2  0  0  0  0  0  0
  161.6290  201.8410  149.9030 C   0  0  0  0  0  2  0  0  0  0  0  0
  161.5880  202.1030  148.3960 C   0  0  2  0  0  3  0  0  0  0  0  0
  161.5880  203.6070  148.1160 C   0  0  0  0  0  2  0  0  0  0  0  0
  160.4570  201.4970  147.8210 O   0  0  0  0  0  0  0  0  0  0  0  0
  159.5620  201.3230  145.7080 F   0  0  0  0  0  0  0  0  0  0  0  0
  161.3490  200.0440  146.2730 F   0  0  0  0  0  0  0  0  0  0  0  0
  161.5780  202.2600  146.0060 F   0  0  0  0  0  0  0  0  0  0  0  0
  160.7270  201.2710  146.4570 C   0  0  0  0  0  0  0  0  0  0  0  0
  1 14  1  1  0  0  0
  1  6  1  0  0  0  0
  2 15  1  6  0  0  0
  2  7  1  0  0  0  0
  2  3  1  0  0  0  0
  3  4  1  6  0  0  0
  3  8  1  0  0  0  0
  3 10  1  0  0  0  0
  4 10  1  0  0  0  0
  6  5  1  1  0  0  0
  8  7  1  6  0  0  0
  8  1  1  0  0  0  0
  9  6  1  0  0  0  0
 10  9  1  1  0  0  0
 11 14  1  0  0  0  0
 14 13  1  0  0  0  0
 14 12  1  0  0  0  0
 15 16  1  6  0  0  0
 17 18  2  0  0  0  0
 17 15  1  0  0  0  0
 19 20  1  0  0  0  0
 20 17  1  0  0  0  0
 21  4  1  0  0  0  0
 22 23  1  0  0  0  0
 22 21  1  1  0  0  0
 24 22  1  0  0  0  0
 25 23  1  0  0  0  0
 26 28  1  1  0  0  0
 26 25  1  0  0  0  0
 27 26  1  0  0  0  0
 27 24  1  0  0  0  0
 29 32  1  0  0  0  0
 30 32  1  0  0  0  0
 31 32  1  0  0  0  0
 32 28  1  0  0  0  0
M  END
>  <MODEL>
8

>  <REMARK>
 VINA RESULT:      -5.7      1.816      2.617
  Name = 
  8 active torsions:
  status: ('A' for Active; 'I' for Inactive)
    1  A    between atoms: C_1  and  C_2
    2  A    between atoms: C_1  and  O_30
    3  A    between atoms: C_2  and  C_7
    4  A    between atoms: C_5  and  C_28
    5  A    between atoms: C_6  and  C_31
    6  A    between atoms: N_15  and  C_31
    7  A    between atoms: C_19  and  O_32
    8  A    between atoms: C_22  and  O_32
                            x       y       z     vdW  Elec       q    Type
                         _______ _______ _______ _____ _____    ______ ____

>  <TORSDO>
F 8

$$$$
=
 OpenBabel11072411523D

 32 35  0  0  1  0  0  0  0  0999 V2000
  160.7300  202.8890  150.1870 C   0  0  1  0  0  3  0  0  0  0  0  0
  160.7000  205.3930  148.4390 C   0  0  2  0  0  3  0  0  0  0  0  0
  161.0830  205.1930  149.8610 C   0  0  2  0  0  0  0  0  0  0  0  0
  162.0740  206.0510  150.5380 N   0  0  0  0  0  0  0  0  0  0  0  0
  159.3140  202.9660  152.1270 O   0  0  0  0  0  1  0  0  0  0  0  0
  160.6410  203.0890  151.7170 C   0  0  2  0  0  3  0  0  0  0  0  0
  161.1910  204.0640  148.2490 O   0  0  0  0  0  0  0  0  0  0  0  0
  161.6010  203.8920  149.5570 N   0  0  2  0  0  0  0  0  0  0  0  0
  161.2080  204.4370  152.1890 C   0  0  0  0  0  2  0  0  0  0  0  0
  160.8460  205.5840  151.2410 C   0  0  2  0  0  3  0  0  0  0  0  0
  161.9220  201.4800  148.6730 F   0  0  0  0  0  0  0  0  0  0  0  0
  162.0190  200.9970  150.8620 F   0  0  0  0  0  0  0  0  0  0  0  0
  160.1140  200.6250  149.7170 F   0  0  0  0  0  0  0  0  0  0  0  0
  161.2010  201.4710  149.8530 C   0  0  0  0  0  0  0  0  0  0  0  0
  161.5610  206.3810  147.6400 C   0  0  2  0  0  3  0  0  0  0  0  0
  160.8240  207.5360  147.3730 O   0  0  0  0  0  1  0  0  0  0  0  0
  162.0340  205.7910  146.3500 C   0  0  0  0  0  0  0  0  0  0  0  0
  163.0840  205.0910  146.3210 O   0  0  0  0  0  0  0  0  0  0  0  0
  161.1980  205.0770  144.1500 C   0  0  0  0  0  1  0  0  0  0  0  0
  161.3110  206.0430  145.1850 O   0  0  0  0  0  0  0  0  0  0  0  0
  161.8240  207.4740  150.3530 C   0  0  0  0  0  2  0  0  0  0  0  0
  162.4210  208.3070  151.4900 C   0  0  2  0  0  3  0  0  0  0  0  0
  161.9070  207.9050  152.8770 C   0  0  0  0  0  2  0  0  0  0  0  0
  162.3330  209.8190  151.2520 C   0  0  0  0  0  2  0  0  0  0  0  0
  160.5150  208.4720  153.1550 C   0  0  0  0  0  2  0  0  0  0  0  0
  160.4870  209.9910  152.9740 C   0  0  2  0  0  3  0  0  0  0  0  0
  160.9390  210.3680  151.5620 C   0  0  0  0  0  2  0  0  0  0  0  0
  161.3020  210.6180  153.9330 O   0  0  0  0  0  0  0  0  0  0  0  0
  160.8170  212.1970  155.5350 F   0  0  0  0  0  0  0  0  0  0  0  0
  160.6490  209.9930  156.0520 F   0  0  0  0  0  0  0  0  0  0  0  0
  159.1780  210.9470  154.6500 F   0  0  0  0  0  0  0  0  0  0  0  0
  160.5010  210.9390  155.0470 C   0  0  0  0  0  0  0  0  0  0  0  0
  1 14  1  1  0  0  0
  1  6  1  0  0  0  0
  2 15  1  6  0  0  0
  2  3  1  0  0  0  0
  3  4  1  6  0  0  0
  3 10  1  0  0  0  0
  4 10  1  0  0  0  0
  6  5  1  6  0  0  0
  6  9  1  0  0  0  0
  7  2  1  0  0  0  0
  8  7  1  6  0  0  0
  8  3  1  0  0  0  0
  8  1  1  0  0  0  0
 10  9  1  1  0  0  0
 11 14  1  0  0  0  0
 13 14  1  0  0  0  0
 14 12  1  0  0  0  0
 15 16  1  6  0  0  0
 17 15  1  0  0  0  0
 18 17  2  0  0  0  0
 19 20  1  0  0  0  0
 20 17  1  0  0  0  0
 21  4  1  0  0  0  0
 22 21  1  6  0  0  0
 22 23  1  0  0  0  0
 23 25  1  0  0  0  0
 24 22  1  0  0  0  0
 24 27  1  0  0  0  0
 26 25  1  0  0  0  0
 26 28  1  1  0  0  0
 27 26  1  0  0  0  0
 28 32  1  0  0  0  0
 31 32  1  0  0  0  0
 32 29  1  0  0  0  0
 32 30  1  0  0  0  0
M  END
>  <MODEL>
9

>  <REMARK>
 VINA RESULT:      -5.6      2.583      7.974
  Name = 
  8 active torsions:
  status: ('A' for Active; 'I' for Inactive)
    1  A    between atoms: C_1  and  C_2
    2  A    between atoms: C_1  and  O_30
    3  A    between atoms: C_2  and  C_7
    4  A    between atoms: C_5  and  C_28
    5  A    between atoms: C_6  and  C_31
    6  A    between atoms: N_15  and  C_31
    7  A    between atoms: C_19  and  O_32
    8  A    between atoms: C_22  and  O_32
                            x       y       z     vdW  Elec       q    Type
                         _______ _______ _______ _____ _____    ______ ____

>  <TORSDO>
F 8

$$$$
