=
 OpenBabel11072410323D

 32 33  0  0  1  0  0  0  0  0999 V2000
  161.2350  206.3760  152.0050 C   0  0  2  0  0  3  0  0  0  0  0  0
  160.7720  207.1570  153.1880 C   0  0  0  0  0  3  0  0  0  0  0  0
  161.4010  207.0710  154.3010 N   0  0  0  0  0  0  0  0  0  0  0  0
  161.9900  208.0450  156.6770 O   0  0  0  0  0  0  0  0  0  0  0  0
  160.8770  207.9600  155.6710 S   0  0  0  0  0  0  0  0  0  0  0  0
  159.6880  207.2800  156.2890 O   0  0  0  0  0  0  0  0  0  0  0  0
  161.5430  210.5070  155.3280 N   0  0  0  0  0  0  0  0  0  0  0  0
  161.2820  211.4110  156.1780 N   0  0  0  0  0  0  0  0  0  0  0  0
  159.9700  211.2340  156.6850 C   0  0  0  0  0  3  0  0  0  0  0  0
  160.4130  209.6060  155.1670 C   0  0  2  0  0  3  0  0  0  0  0  0
  159.4110  210.1750  156.1190 C   0  0  0  0  0  3  0  0  0  0  0  0
  161.7390  205.0880  152.4460 N   0  0  0  0  0  2  0  0  0  0  0  0
  160.8230  204.0740  151.9400 C   0  0  0  0  0  2  0  0  0  0  0  0
  160.9620  202.0140  148.6630 C   0  0  0  0  0  0  0  0  0  0  0  0
  160.9710  203.4260  148.1860 C   0  0  1  0  0  3  0  0  0  0  0  0
  161.3230  203.4910  150.6250 C   0  0  1  0  0  3  0  0  0  0  0  0
  161.1200  201.0770  147.8990 O   0  0  0  0  0  0  0  0  0  0  0  0
  160.7950  201.7630  150.4180 S   0  0  0  0  0  0  0  0  0  0  0  0
  160.8240  204.2910  149.4270 C   0  0  0  0  0  2  0  0  0  0  0  0
  162.1950  203.7050  147.5680 O   0  0  0  0  0  0  0  0  0  0  0  0
  161.8070  204.2550  146.0100 P   0  0  0  0  0  0  0  0  0  0  0  0
  160.9110  203.0650  145.2110 O   0  0  0  0  0  0  0  0  0  0  0  0
  160.8840  205.6710  146.1060 O   0  0  0  0  0  1  0  0  0  0  0  0
  163.0730  204.5300  145.2290 O   0  0  0  0  0  1  0  0  0  0  0  0
  162.2950  207.1050  151.3220 N   0  0  0  0  0  2  0  0  0  0  0  0
  161.6750  208.2300  150.6330 C   0  0  2  0  0  3  0  0  0  0  0  0
  161.7640  209.2730  148.4990 F   0  0  0  0  0  0  0  0  0  0  0  0
  161.7250  208.0360  149.1170 C   0  0  0  0  0  0  0  0  0  0  0  0
  160.6090  207.3480  148.6730 F   0  0  0  0  0  0  0  0  0  0  0  0
  162.8630  207.3310  148.7690 F   0  0  0  0  0  0  0  0  0  0  0  0
  161.2460  210.4870  151.7210 C   0  0  0  0  0  1  0  0  0  0  0  0
  162.2790  209.5610  151.0950 C   0  0  0  0  0  2  0  0  0  0  0  0
  1 12  1  0  0  0  0
  1  2  1  1  0  0  0
  2  3  2  0  0  0  0
  3  5  1  0  0  0  0
  5  6  2  0  0  0  0
  5  4  2  0  0  0  0
  7  8  2  0  0  0  0
  8  9  1  0  0  0  0
 10  7  1  0  0  0  0
 10  5  1  1  0  0  0
 10 11  1  0  0  0  0
 11  9  2  0  0  0  0
 13 12  1  0  0  0  0
 14 18  1  0  0  0  0
 15 20  1  1  0  0  0
 15 14  1  0  0  0  0
 15 19  1  0  0  0  0
 16 13  1  1  0  0  0
 17 14  2  0  0  0  0
 18 16  1  0  0  0  0
 19 16  1  0  0  0  0
 21 23  1  0  0  0  0
 21 20  1  0  0  0  0
 22 21  2  0  0  0  0
 24 21  1  0  0  0  0
 25  1  1  0  0  0  0
 26 32  1  6  0  0  0
 26 25  1  0  0  0  0
 27 28  1  0  0  0  0
 28 26  1  0  0  0  0
 29 28  1  0  0  0  0
 30 28  1  0  0  0  0
 32 31  1  0  0  0  0
M  END
>  <MODEL>
1

>  <REMARK>
 VINA RESULT:      -7.4      0.000      0.000
  Name = 
  12 active torsions:
  status: ('A' for Active; 'I' for Inactive)
    1  A    between atoms: P_3  and  O_14
    2  A    between atoms: N_7  and  C_22
    3  A    between atoms: N_7  and  C_30
    4  A    between atoms: C_10  and  O_14
    5  A    between atoms: C_11  and  S_17
    6  A    between atoms: C_12  and  C_22
    7  A    between atoms: C_15  and  C_18
    8  A    between atoms: C_15  and  C_24
    9  A    between atoms: C_15  and  N_32
   10  A    between atoms: S_17  and  N_29
   11  A    between atoms: C_23  and  C_30
   12  A    between atoms: C_30  and  N_32
                            x       y       z     vdW  Elec       q    Type
                         _______ _______ _______ _____ _____    ______ ____

>  <TORSDO>
F 12

$$$$
=
 OpenBabel11072410323D

 32 33  0  0  1  0  0  0  0  0999 V2000
  160.4080  205.7780  149.4520 C   0  0  2  0  0  3  0  0  0  0  0  0
  160.4880  205.9510  147.9730 C   0  0  0  0  0  3  0  0  0  0  0  0
  161.2110  205.1590  147.2710 N   0  0  0  0  0  0  0  0  0  0  0  0
  162.5870  206.0700  145.2180 O   0  0  0  0  0  0  0  0  0  0  0  0
  161.3150  205.3500  145.5700 S   0  0  0  0  0  0  0  0  0  0  0  0
  160.1350  206.1380  145.0760 O   0  0  0  0  0  0  0  0  0  0  0  0
  159.9880  203.4480  144.2770 N   0  0  0  0  0  2  0  0  0  0  0  0
  159.4960  202.4330  144.8550 N   0  0  0  0  0  0  0  0  0  0  0  0
  160.4110  201.9310  145.8130 C   0  0  0  0  0  3  0  0  0  0  0  0
  161.3140  203.7450  144.7930 C   0  0  2  0  0  3  0  0  0  0  0  0
  161.5060  202.6750  145.8180 C   0  0  0  0  0  2  0  0  0  0  0  0
  160.5500  207.0720  150.0950 N   0  0  0  0  0  2  0  0  0  0  0  0
  161.9510  207.2120  150.4710 C   0  0  0  0  0  2  0  0  0  0  0  0
  161.5660  209.8490  153.2820 C   0  0  0  0  0  0  0  0  0  0  0  0
  160.8910  208.6440  153.8420 C   0  0  1  0  0  3  0  0  0  0  0  0
  162.0900  207.9170  151.8140 C   0  0  1  0  0  3  0  0  0  0  0  0
  161.7470  210.8530  153.9510 O   0  0  0  0  0  0  0  0  0  0  0  0
  162.1750  209.7220  151.6140 S   0  0  0  0  0  0  0  0  0  0  0  0
  160.9260  207.5940  152.7440 C   0  0  0  0  0  2  0  0  0  0  0  0
  161.6050  208.1800  154.9530 O   0  0  0  0  0  0  0  0  0  0  0  0
  160.6350  208.5290  156.3010 P   0  0  0  0  0  0  0  0  0  0  0  0
  159.2220  209.2980  155.7800 O   0  0  0  0  0  0  0  0  0  0  0  0
  160.2200  207.0990  157.1060 O   0  0  0  0  0  1  0  0  0  0  0  0
  161.3770  209.4450  157.2480 O   0  0  0  0  0  1  0  0  0  0  0  0
  161.4750  204.8930  149.9000 N   0  0  0  0  0  2  0  0  0  0  0  0
  160.8480  203.6900  150.4320 C   0  0  2  0  0  3  0  0  0  0  0  0
  162.0880  204.4760  152.3020 F   0  0  0  0  0  0  0  0  0  0  0  0
  161.3270  203.4100  151.8580 C   0  0  0  0  0  0  0  0  0  0  0  0
  162.0970  202.2610  151.9000 F   0  0  0  0  0  0  0  0  0  0  0  0
  160.2390  203.2610  152.6990 F   0  0  0  0  0  0  0  0  0  0  0  0
  159.8490  201.5510  149.4920 C   0  0  0  0  0  1  0  0  0  0  0  0
  161.0360  202.5020  149.4830 C   0  0  0  0  0  2  0  0  0  0  0  0
  1  2  1  6  0  0  0
  1 25  1  0  0  0  0
  1 12  1  0  0  0  0
  3  2  2  0  0  0  0
  4  5  2  0  0  0  0
  5  3  1  0  0  0  0
  6  5  2  0  0  0  0
  7 10  1  0  0  0  0
  7  8  1  0  0  0  0
  8  9  2  0  0  0  0
  9 11  1  0  0  0  0
 10  5  1  1  0  0  0
 10 11  1  0  0  0  0
 12 13  1  0  0  0  0
 14 15  1  0  0  0  0
 14 17  2  0  0  0  0
 15 20  1  1  0  0  0
 16 13  1  6  0  0  0
 16 19  1  0  0  0  0
 18 16  1  0  0  0  0
 18 14  1  0  0  0  0
 19 15  1  0  0  0  0
 20 21  1  0  0  0  0
 21 23  1  0  0  0  0
 21 24  1  0  0  0  0
 22 21  2  0  0  0  0
 25 26  1  0  0  0  0
 26 32  1  6  0  0  0
 26 28  1  0  0  0  0
 28 29  1  0  0  0  0
 28 27  1  0  0  0  0
 28 30  1  0  0  0  0
 32 31  1  0  0  0  0
M  END
>  <MODEL>
2

>  <REMARK>
 VINA RESULT:      -7.0      4.040      9.243
  Name = 
  12 active torsions:
  status: ('A' for Active; 'I' for Inactive)
    1  A    between atoms: P_3  and  O_14
    2  A    between atoms: N_7  and  C_22
    3  A    between atoms: N_7  and  C_30
    4  A    between atoms: C_10  and  O_14
    5  A    between atoms: C_11  and  S_17
    6  A    between atoms: C_12  and  C_22
    7  A    between atoms: C_15  and  C_18
    8  A    between atoms: C_15  and  C_24
    9  A    between atoms: C_15  and  N_32
   10  A    between atoms: S_17  and  N_29
   11  A    between atoms: C_23  and  C_30
   12  A    between atoms: C_30  and  N_32
                            x       y       z     vdW  Elec       q    Type
                         _______ _______ _______ _____ _____    ______ ____

>  <TORSDO>
F 12

$$$$
=
 OpenBabel11072410323D

 32 33  0  0  1  0  0  0  0  0999 V2000
  162.2060  208.6340  150.3920 C   0  0  2  0  0  3  0  0  0  0  0  0
  162.0640  210.0670  150.0020 C   0  0  0  0  0  3  0  0  0  0  0  0
  162.0100  210.3950  148.7650 N   0  0  0  0  0  0  0  0  0  0  0  0
  163.2080  212.6100  147.9920 O   0  0  0  0  0  0  0  0  0  0  0  0
  161.8530  212.0390  148.3040 S   0  0  0  0  0  0  0  0  0  0  0  0
  161.2200  212.8190  149.4210 O   0  0  0  0  0  0  0  0  0  0  0  0
  161.4280  213.0500  145.8860 N   0  0  0  0  0  2  0  0  0  0  0  0
  160.6860  214.0560  145.6770 N   0  0  0  0  0  0  0  0  0  0  0  0
  159.5110  213.9620  146.4640 C   0  0  0  0  0  3  0  0  0  0  0  0
  160.8220  212.1510  146.8540 C   0  0  2  0  0  3  0  0  0  0  0  0
  159.5420  212.8500  147.1820 C   0  0  0  0  0  2  0  0  0  0  0  0
  162.1990  207.8090  149.1970 N   0  0  0  0  0  2  0  0  0  0  0  0
  160.8390  207.3120  149.0270 C   0  0  0  0  0  2  0  0  0  0  0  0
  162.0150  204.4210  146.7340 C   0  0  0  0  0  0  0  0  0  0  0  0
  161.6220  203.7280  147.9920 C   0  0  1  0  0  3  0  0  0  0  0  0
  160.8190  206.0520  148.1740 C   0  0  1  0  0  3  0  0  0  0  0  0
  162.3260  203.8030  145.7300 O   0  0  0  0  0  0  0  0  0  0  0  0
  161.9250  206.2000  146.7390 S   0  0  0  0  0  0  0  0  0  0  0  0
  161.2350  204.8220  148.9740 C   0  0  0  0  0  2  0  0  0  0  0  0
  160.5140  202.9080  147.7500 O   0  0  0  0  0  0  0  0  0  0  0  0
  160.5720  201.6940  148.9350 P   0  0  0  0  0  0  0  0  0  0  0  0
  161.4960  200.4020  148.3550 O   0  0  0  0  0  0  0  0  0  0  0  0
  161.2860  202.2930  150.3480 O   0  0  0  0  0  1  0  0  0  0  0  0
  159.1750  201.2050  149.2430 O   0  0  0  0  0  1  0  0  0  0  0  0
  161.0970  208.2500  151.2540 N   0  0  0  0  0  2  0  0  0  0  0  0
  161.6640  207.8300  152.5300 C   0  0  2  0  0  3  0  0  0  0  0  0
  160.7040  205.7430  151.9160 F   0  0  0  0  0  0  0  0  0  0  0  0
  161.7610  206.3050  152.6080 C   0  0  0  0  0  0  0  0  0  0  0  0
  161.7150  205.8770  153.9230 F   0  0  0  0  0  0  0  0  0  0  0  0
  162.9450  205.8790  152.0310 F   0  0  0  0  0  0  0  0  0  0  0  0
  160.4980  209.8940  153.4450 C   0  0  0  0  0  1  0  0  0  0  0  0
  160.9010  208.4510  153.7050 C   0  0  0  0  0  2  0  0  0  0  0  0
  1  2  1  6  0  0  0
  1 25  1  0  0  0  0
  3  2  2  0  0  0  0
  4  5  2  0  0  0  0
  5  3  1  0  0  0  0
  5  6  2  0  0  0  0
  7 10  1  0  0  0  0
  8  7  1  0  0  0  0
  8  9  2  0  0  0  0
  9 11  1  0  0  0  0
 10 11  1  0  0  0  0
 10  5  1  1  0  0  0
 12  1  1  0  0  0  0
 13 12  1  0  0  0  0
 14 18  1  0  0  0  0
 14 15  1  0  0  0  0
 15 20  1  6  0  0  0
 15 19  1  0  0  0  0
 16 19  1  0  0  0  0
 16 13  1  1  0  0  0
 17 14  2  0  0  0  0
 18 16  1  0  0  0  0
 20 21  1  0  0  0  0
 21 24  1  0  0  0  0
 21 23  1  0  0  0  0
 22 21  2  0  0  0  0
 25 26  1  0  0  0  0
 26 28  1  0  0  0  0
 26 32  1  1  0  0  0
 27 28  1  0  0  0  0
 28 29  1  0  0  0  0
 30 28  1  0  0  0  0
 31 32  1  0  0  0  0
M  END
>  <MODEL>
3

>  <REMARK>
 VINA RESULT:      -6.9      4.352      5.950
  Name = 
  12 active torsions:
  status: ('A' for Active; 'I' for Inactive)
    1  A    between atoms: P_3  and  O_14
    2  A    between atoms: N_7  and  C_22
    3  A    between atoms: N_7  and  C_30
    4  A    between atoms: C_10  and  O_14
    5  A    between atoms: C_11  and  S_17
    6  A    between atoms: C_12  and  C_22
    7  A    between atoms: C_15  and  C_18
    8  A    between atoms: C_15  and  C_24
    9  A    between atoms: C_15  and  N_32
   10  A    between atoms: S_17  and  N_29
   11  A    between atoms: C_23  and  C_30
   12  A    between atoms: C_30  and  N_32
                            x       y       z     vdW  Elec       q    Type
                         _______ _______ _______ _____ _____    ______ ____

>  <TORSDO>
F 12

$$$$
=
 OpenBabel11072410323D

 32 33  0  0  1  0  0  0  0  0999 V2000
  162.2700  208.6630  149.8680 C   0  0  2  0  0  3  0  0  0  0  0  0
  161.9560  209.7720  148.9210 C   0  0  0  0  0  3  0  0  0  0  0  0
  162.0800  210.9910  149.2940 N   0  0  0  0  0  0  0  0  0  0  0  0
  160.7290  211.8070  147.1850 O   0  0  0  0  0  0  0  0  0  0  0  0
  161.7170  212.2750  148.2170 S   0  0  0  0  0  0  0  0  0  0  0  0
  162.9760  212.7360  147.5390 O   0  0  0  0  0  0  0  0  0  0  0  0
  160.2710  213.1270  150.2740 N   0  0  0  0  0  0  0  0  0  0  0  0
  159.0410  213.4210  150.1820 N   0  0  0  0  0  0  0  0  0  0  0  0
  158.8070  214.1470  148.9870 C   0  0  0  0  0  3  0  0  0  0  0  0
  161.0120  213.6340  149.1310 C   0  0  2  0  0  3  0  0  0  0  0  0
  159.9430  214.2990  148.3260 C   0  0  0  0  0  3  0  0  0  0  0  0
  162.5760  207.4600  149.1140 N   0  0  0  0  0  2  0  0  0  0  0  0
  161.7730  207.5000  147.8990 C   0  0  0  0  0  2  0  0  0  0  0  0
  161.6050  203.9030  146.4740 C   0  0  0  0  0  0  0  0  0  0  0  0
  161.5060  203.6980  147.9460 C   0  0  1  0  0  3  0  0  0  0  0  0
  161.2490  206.1160  147.5410 C   0  0  1  0  0  3  0  0  0  0  0  0
  161.4630  202.9830  145.6860 O   0  0  0  0  0  0  0  0  0  0  0  0
  161.8540  205.5750  145.9140 S   0  0  0  0  0  0  0  0  0  0  0  0
  161.6600  205.0730  148.5750 C   0  0  0  0  0  2  0  0  0  0  0  0
  160.2460  203.1800  148.2650 O   0  0  0  0  0  0  0  0  0  0  0  0
  160.5380  201.8500  149.2780 P   0  0  0  0  0  0  0  0  0  0  0  0
  159.0790  201.0470  149.5690 O   0  0  0  0  0  1  0  0  0  0  0  0
  161.6200  200.7790  148.5360 O   0  0  0  0  0  0  0  0  0  0  0  0
  161.1160  202.3200  150.5940 O   0  0  0  0  0  1  0  0  0  0  0  0
  161.1240  208.4180  150.7320 N   0  0  0  0  0  2  0  0  0  0  0  0
  161.6380  208.1050  152.0590 C   0  0  2  0  0  3  0  0  0  0  0  0
  162.6870  205.9810  152.2610 F   0  0  0  0  0  0  0  0  0  0  0  0
  161.4650  206.6180  152.3750 C   0  0  0  0  0  0  0  0  0  0  0  0
  160.5690  206.0310  151.4990 F   0  0  0  0  0  0  0  0  0  0  0  0
  161.0040  206.4630  153.6710 F   0  0  0  0  0  0  0  0  0  0  0  0
  160.1760  210.1320  152.5160 C   0  0  0  0  0  1  0  0  0  0  0  0
  161.0280  209.0260  153.1200 C   0  0  0  0  0  2  0  0  0  0  0  0
  1  2  1  6  0  0  0
  1 25  1  0  0  0  0
  2  3  2  0  0  0  0
  4  5  2  0  0  0  0
  5  3  1  0  0  0  0
  6  5  2  0  0  0  0
  8  7  2  0  0  0  0
  9  8  1  0  0  0  0
 10  5  1  6  0  0  0
 10  7  1  0  0  0  0
 11  9  2  0  0  0  0
 11 10  1  0  0  0  0
 12  1  1  0  0  0  0
 13 12  1  0  0  0  0
 14 15  1  0  0  0  0
 15 20  1  6  0  0  0
 15 19  1  0  0  0  0
 16 13  1  1  0  0  0
 16 19  1  0  0  0  0
 17 14  2  0  0  0  0
 18 14  1  0  0  0  0
 18 16  1  0  0  0  0
 20 21  1  0  0  0  0
 21 22  1  0  0  0  0
 21 24  1  0  0  0  0
 23 21  2  0  0  0  0
 25 26  1  0  0  0  0
 26 28  1  0  0  0  0
 26 32  1  1  0  0  0
 27 28  1  0  0  0  0
 28 30  1  0  0  0  0
 29 28  1  0  0  0  0
 31 32  1  0  0  0  0
M  END
>  <MODEL>
4

>  <REMARK>
 VINA RESULT:      -6.9      3.936      5.536
  Name = 
  12 active torsions:
  status: ('A' for Active; 'I' for Inactive)
    1  A    between atoms: P_3  and  O_14
    2  A    between atoms: N_7  and  C_22
    3  A    between atoms: N_7  and  C_30
    4  A    between atoms: C_10  and  O_14
    5  A    between atoms: C_11  and  S_17
    6  A    between atoms: C_12  and  C_22
    7  A    between atoms: C_15  and  C_18
    8  A    between atoms: C_15  and  C_24
    9  A    between atoms: C_15  and  N_32
   10  A    between atoms: S_17  and  N_29
   11  A    between atoms: C_23  and  C_30
   12  A    between atoms: C_30  and  N_32
                            x       y       z     vdW  Elec       q    Type
                         _______ _______ _______ _____ _____    ______ ____

>  <TORSDO>
F 12

$$$$
=
 OpenBabel11072410323D

 32 33  0  0  1  0  0  0  0  0999 V2000
  161.4220  206.6560  152.4290 C   0  0  2  0  0  3  0  0  0  0  0  0
  160.8250  206.8460  153.7820 C   0  0  0  0  0  3  0  0  0  0  0  0
  161.1530  207.8600  154.4930 N   0  0  0  0  0  0  0  0  0  0  0  0
  161.4550  207.6310  157.1000 O   0  0  0  0  0  0  0  0  0  0  0  0
  160.4780  208.0880  156.0530 S   0  0  0  0  0  0  0  0  0  0  0  0
  159.2040  207.3000  156.1720 O   0  0  0  0  0  0  0  0  0  0  0  0
  158.9290  210.1850  155.5530 N   0  0  0  0  0  2  0  0  0  0  0  0
  159.1990  211.0490  154.6650 N   0  0  0  0  0  0  0  0  0  0  0  0
  160.5800  211.3630  154.7010 C   0  0  0  0  0  3  0  0  0  0  0  0
  160.1220  209.8170  156.2970 C   0  0  2  0  0  3  0  0  0  0  0  0
  161.1750  210.6580  155.6510 C   0  0  0  0  0  2  0  0  0  0  0  0
  161.9380  205.3020  152.3170 N   0  0  0  0  0  2  0  0  0  0  0  0
  160.8680  204.4800  151.7670 C   0  0  0  0  0  2  0  0  0  0  0  0
  160.9050  202.0510  148.7510 C   0  0  0  0  0  0  0  0  0  0  0  0
  160.9390  203.3960  148.1130 C   0  0  1  0  0  3  0  0  0  0  0  0
  161.3330  203.7360  150.5230 C   0  0  1  0  0  3  0  0  0  0  0  0
  161.0290  201.0270  148.1000 O   0  0  0  0  0  0  0  0  0  0  0  0
  160.7610  202.0100  150.5260 S   0  0  0  0  0  0  0  0  0  0  0  0
  160.8330  204.4030  149.2460 C   0  0  0  0  0  2  0  0  0  0  0  0
  162.1590  203.5700  147.4500 O   0  0  0  0  0  0  0  0  0  0  0  0
  161.7620  204.1250  145.8950 P   0  0  0  0  0  0  0  0  0  0  0  0
  160.8860  205.5640  146.0300 O   0  0  0  0  0  1  0  0  0  0  0  0
  163.1720  204.4180  145.0040 O   0  0  0  0  0  0  0  0  0  0  0  0
  160.9180  203.0950  145.1800 O   0  0  0  0  0  1  0  0  0  0  0  0
  162.5070  207.6070  152.2340 N   0  0  0  0  0  2  0  0  0  0  0  0
  162.1750  208.4130  151.0660 C   0  0  2  0  0  3  0  0  0  0  0  0
  162.5490  210.2700  152.5020 F   0  0  0  0  0  0  0  0  0  0  0  0
  161.7340  209.8190  151.4790 C   0  0  0  0  0  0  0  0  0  0  0  0
  160.4230  209.8130  151.9200 F   0  0  0  0  0  0  0  0  0  0  0  0
  161.8510  210.6830  150.4050 F   0  0  0  0  0  0  0  0  0  0  0  0
  161.4750  207.8420  148.6900 C   0  0  0  0  0  1  0  0  0  0  0  0
  161.1570  207.6960  150.1710 C   0  0  0  0  0  2  0  0  0  0  0  0
  1  2  1  1  0  0  0
  2  3  2  0  0  0  0
  3  5  1  0  0  0  0
  5  6  2  0  0  0  0
  5  4  2  0  0  0  0
  7 10  1  0  0  0  0
  8  9  2  0  0  0  0
  8  7  1  0  0  0  0
  9 11  1  0  0  0  0
 10  5  1  6  0  0  0
 11 10  1  0  0  0  0
 12  1  1  0  0  0  0
 13 12  1  0  0  0  0
 14 18  1  0  0  0  0
 15 20  1  1  0  0  0
 15 14  1  0  0  0  0
 15 19  1  0  0  0  0
 16 18  1  0  0  0  0
 16 13  1  1  0  0  0
 17 14  2  0  0  0  0
 19 16  1  0  0  0  0
 21 22  1  0  0  0  0
 21 20  1  0  0  0  0
 23 21  2  0  0  0  0
 24 21  1  0  0  0  0
 25  1  1  0  0  0  0
 26 32  1  1  0  0  0
 26 28  1  0  0  0  0
 26 25  1  0  0  0  0
 28 29  1  0  0  0  0
 28 27  1  0  0  0  0
 30 28  1  0  0  0  0
 31 32  1  0  0  0  0
M  END
>  <MODEL>
5

>  <REMARK>
 VINA RESULT:      -6.7      1.400      2.011
  Name = 
  12 active torsions:
  status: ('A' for Active; 'I' for Inactive)
    1  A    between atoms: P_3  and  O_14
    2  A    between atoms: N_7  and  C_22
    3  A    between atoms: N_7  and  C_30
    4  A    between atoms: C_10  and  O_14
    5  A    between atoms: C_11  and  S_17
    6  A    between atoms: C_12  and  C_22
    7  A    between atoms: C_15  and  C_18
    8  A    between atoms: C_15  and  C_24
    9  A    between atoms: C_15  and  N_32
   10  A    between atoms: S_17  and  N_29
   11  A    between atoms: C_23  and  C_30
   12  A    between atoms: C_30  and  N_32
                            x       y       z     vdW  Elec       q    Type
                         _______ _______ _______ _____ _____    ______ ____

>  <TORSDO>
F 12

$$$$
=
 OpenBabel11072410323D

 32 33  0  0  1  0  0  0  0  0999 V2000
  162.0650  209.3750  151.1780 C   0  0  2  0  0  3  0  0  0  0  0  0
  162.0460  210.7030  150.4990 C   0  0  0  0  0  3  0  0  0  0  0  0
  161.9590  210.7720  149.2230 N   0  0  0  0  0  0  0  0  0  0  0  0
  163.3340  212.6550  147.9990 O   0  0  0  0  0  0  0  0  0  0  0  0
  161.9410  212.2920  148.4300 S   0  0  0  0  0  0  0  0  0  0  0  0
  161.4100  213.3430  149.3630 O   0  0  0  0  0  0  0  0  0  0  0  0
  161.4750  212.9570  145.9020 N   0  0  0  0  0  2  0  0  0  0  0  0
  160.7240  213.9220  145.5670 N   0  0  0  0  0  0  0  0  0  0  0  0
  159.5610  213.9330  146.3780 C   0  0  0  0  0  3  0  0  0  0  0  0
  160.8880  212.1980  146.9940 C   0  0  2  0  0  3  0  0  0  0  0  0
  159.6090  212.9310  147.2420 C   0  0  0  0  0  2  0  0  0  0  0  0
  162.3230  208.3370  150.1950 N   0  0  0  0  0  2  0  0  0  0  0  0
  161.1390  207.4890  150.1480 C   0  0  0  0  0  2  0  0  0  0  0  0
  161.2820  203.7300  151.0690 C   0  0  0  0  0  0  0  0  0  0  0  0
  160.7070  203.7290  149.6950 C   0  0  1  0  0  3  0  0  0  0  0  0
  161.5200  206.0150  150.1290 C   0  0  1  0  0  3  0  0  0  0  0  0
  161.5870  202.6960  151.6390 O   0  0  0  0  0  0  0  0  0  0  0  0
  161.5840  205.3220  151.8090 S   0  0  0  0  0  0  0  0  0  0  0  0
  160.5370  205.1880  149.3070 C   0  0  0  0  0  2  0  0  0  0  0  0
  161.6030  203.1150  148.8120 O   0  0  0  0  0  0  0  0  0  0  0  0
  160.8320  201.6960  148.2890 P   0  0  0  0  0  0  0  0  0  0  0  0
  159.3130  201.5900  149.0220 O   0  0  0  0  0  1  0  0  0  0  0  0
  160.6330  201.7280  146.6080 O   0  0  0  0  0  0  0  0  0  0  0  0
  161.6540  200.4880  148.6760 O   0  0  0  0  0  1  0  0  0  0  0  0
  160.7780  209.1330  151.8150 N   0  0  0  0  0  2  0  0  0  0  0  0
  160.6660  210.0590  152.9340 C   0  0  2  0  0  3  0  0  0  0  0  0
  160.8120  207.9580  154.0350 F   0  0  0  0  0  0  0  0  0  0  0  0
  160.7790  209.3200  154.2690 C   0  0  0  0  0  0  0  0  0  0  0  0
  159.6990  209.6100  155.0840 F   0  0  0  0  0  0  0  0  0  0  0  0
  161.9470  209.6880  154.9130 F   0  0  0  0  0  0  0  0  0  0  0  0
  159.6380  212.3690  153.1970 C   0  0  0  0  0  1  0  0  0  0  0  0
  159.3990  210.9150  152.8190 C   0  0  0  0  0  2  0  0  0  0  0  0
  1  2  1  6  0  0  0
  1 25  1  0  0  0  0
  3  2  2  0  0  0  0
  4  5  2  0  0  0  0
  5  3  1  0  0  0  0
  5  6  2  0  0  0  0
  7 10  1  0  0  0  0
  8  7  1  0  0  0  0
  8  9  2  0  0  0  0
  9 11  1  0  0  0  0
 10 11  1  0  0  0  0
 10  5  1  1  0  0  0
 12  1  1  0  0  0  0
 13 12  1  0  0  0  0
 14 17  2  0  0  0  0
 14 18  1  0  0  0  0
 15 20  1  6  0  0  0
 15 14  1  0  0  0  0
 16 13  1  1  0  0  0
 16 18  1  0  0  0  0
 19 15  1  0  0  0  0
 19 16  1  0  0  0  0
 21 24  1  0  0  0  0
 21 20  1  0  0  0  0
 21 22  1  0  0  0  0
 23 21  2  0  0  0  0
 25 26  1  0  0  0  0
 26 32  1  1  0  0  0
 26 28  1  0  0  0  0
 27 28  1  0  0  0  0
 28 30  1  0  0  0  0
 28 29  1  0  0  0  0
 32 31  1  0  0  0  0
M  END
>  <MODEL>
6

>  <REMARK>
 VINA RESULT:      -6.5      4.562      6.050
  Name = 
  12 active torsions:
  status: ('A' for Active; 'I' for Inactive)
    1  A    between atoms: P_3  and  O_14
    2  A    between atoms: N_7  and  C_22
    3  A    between atoms: N_7  and  C_30
    4  A    between atoms: C_10  and  O_14
    5  A    between atoms: C_11  and  S_17
    6  A    between atoms: C_12  and  C_22
    7  A    between atoms: C_15  and  C_18
    8  A    between atoms: C_15  and  C_24
    9  A    between atoms: C_15  and  N_32
   10  A    between atoms: S_17  and  N_29
   11  A    between atoms: C_23  and  C_30
   12  A    between atoms: C_30  and  N_32
                            x       y       z     vdW  Elec       q    Type
                         _______ _______ _______ _____ _____    ______ ____

>  <TORSDO>
F 12

$$$$
=
 OpenBabel11072410323D

 32 33  0  0  1  0  0  0  0  0999 V2000
  162.3290  208.4430  149.8740 C   0  0  2  0  0  3  0  0  0  0  0  0
  161.9230  209.8630  149.6670 C   0  0  0  0  0  3  0  0  0  0  0  0
  162.3260  210.5040  148.6330 N   0  0  0  0  0  0  0  0  0  0  0  0
  163.0940  212.9740  148.1390 O   0  0  0  0  0  0  0  0  0  0  0  0
  161.8700  212.1380  148.3860 S   0  0  0  0  0  0  0  0  0  0  0  0
  161.1440  212.6490  149.5980 O   0  0  0  0  0  0  0  0  0  0  0  0
  161.4210  213.0380  145.9290 N   0  0  0  0  0  2  0  0  0  0  0  0
  160.7460  214.0830  145.6870 N   0  0  0  0  0  0  0  0  0  0  0  0
  159.6010  214.1220  146.5200 C   0  0  0  0  0  3  0  0  0  0  0  0
  160.7910  212.2440  146.9700 C   0  0  2  0  0  3  0  0  0  0  0  0
  159.5800  213.0540  147.3020 C   0  0  0  0  0  2  0  0  0  0  0  0
  161.2160  207.5710  149.5410 N   0  0  0  0  0  2  0  0  0  0  0  0
  161.2110  207.4190  148.0920 C   0  0  0  0  0  2  0  0  0  0  0  0
  161.5600  203.8420  146.6470 C   0  0  0  0  0  0  0  0  0  0  0  0
  161.3810  203.6100  148.1080 C   0  0  1  0  0  3  0  0  0  0  0  0
  160.8770  205.9880  147.6930 C   0  0  1  0  0  3  0  0  0  0  0  0
  161.5810  202.9210  145.8480 O   0  0  0  0  0  0  0  0  0  0  0  0
  161.6550  205.5380  146.1120 S   0  0  0  0  0  0  0  0  0  0  0  0
  161.3300  204.9870  148.7500 C   0  0  0  0  0  2  0  0  0  0  0  0
  160.1690  202.9470  148.3330 O   0  0  0  0  0  0  0  0  0  0  0  0
  160.5420  201.6420  149.3520 P   0  0  0  0  0  0  0  0  0  0  0  0
  159.1130  200.8360  149.7610 O   0  0  0  0  0  1  0  0  0  0  0  0
  161.5770  200.5620  148.5590 O   0  0  0  0  0  0  0  0  0  0  0  0
  161.2070  202.1440  150.6140 O   0  0  0  0  0  1  0  0  0  0  0  0
  162.7060  208.2400  151.2660 N   0  0  0  0  0  2  0  0  0  0  0  0
  161.5810  207.5970  151.9320 C   0  0  2  0  0  3  0  0  0  0  0  0
  160.4580  207.8020  154.0170 F   0  0  0  0  0  0  0  0  0  0  0  0
  160.9380  208.5400  152.9510 C   0  0  0  0  0  0  0  0  0  0  0  0
  159.8890  209.2380  152.3800 F   0  0  0  0  0  0  0  0  0  0  0  0
  161.8810  209.4370  153.4210 F   0  0  0  0  0  0  0  0  0  0  0  0
  160.9540  205.1590  152.2820 C   0  0  0  0  0  1  0  0  0  0  0  0
  161.9900  206.2460  152.5280 C   0  0  0  0  0  2  0  0  0  0  0  0
  1  2  1  1  0  0  0
  1 25  1  0  0  0  0
  3  2  2  0  0  0  0
  4  5  2  0  0  0  0
  5  3  1  0  0  0  0
  5  6  2  0  0  0  0
  7 10  1  0  0  0  0
  8  7  1  0  0  0  0
  8  9  2  0  0  0  0
  9 11  1  0  0  0  0
 10 11  1  0  0  0  0
 10  5  1  1  0  0  0
 12  1  1  0  0  0  0
 13 12  1  0  0  0  0
 14 15  1  0  0  0  0
 15 20  1  6  0  0  0
 15 19  1  0  0  0  0
 16 13  1  1  0  0  0
 16 19  1  0  0  0  0
 17 14  2  0  0  0  0
 18 14  1  0  0  0  0
 18 16  1  0  0  0  0
 20 21  1  0  0  0  0
 21 22  1  0  0  0  0
 21 24  1  0  0  0  0
 23 21  2  0  0  0  0
 25 26  1  0  0  0  0
 26 32  1  1  0  0  0
 26 28  1  0  0  0  0
 28 30  1  0  0  0  0
 28 27  1  0  0  0  0
 29 28  1  0  0  0  0
 31 32  1  0  0  0  0
M  END
>  <MODEL>
7

>  <REMARK>
 VINA RESULT:      -6.5      4.437      6.065
  Name = 
  12 active torsions:
  status: ('A' for Active; 'I' for Inactive)
    1  A    between atoms: P_3  and  O_14
    2  A    between atoms: N_7  and  C_22
    3  A    between atoms: N_7  and  C_30
    4  A    between atoms: C_10  and  O_14
    5  A    between atoms: C_11  and  S_17
    6  A    between atoms: C_12  and  C_22
    7  A    between atoms: C_15  and  C_18
    8  A    between atoms: C_15  and  C_24
    9  A    between atoms: C_15  and  N_32
   10  A    between atoms: S_17  and  N_29
   11  A    between atoms: C_23  and  C_30
   12  A    between atoms: C_30  and  N_32
                            x       y       z     vdW  Elec       q    Type
                         _______ _______ _______ _____ _____    ______ ____

>  <TORSDO>
F 12

$$$$
=
 OpenBabel11072410323D

 32 33  0  0  1  0  0  0  0  0999 V2000
  161.5290  207.4640  149.9290 C   0  0  2  0  0  3  0  0  0  0  0  0
  161.8220  206.9560  148.5580 C   0  0  0  0  0  3  0  0  0  0  0  0
  161.0960  206.0330  148.0460 N   0  0  0  0  0  0  0  0  0  0  0  0
  162.4820  206.2830  145.8190 O   0  0  0  0  0  0  0  0  0  0  0  0
  161.4240  205.4370  146.4710 S   0  0  0  0  0  0  0  0  0  0  0  0
  160.1690  205.4710  145.6460 O   0  0  0  0  0  0  0  0  0  0  0  0
  161.3760  202.9460  145.5530 N   0  0  0  0  0  2  0  0  0  0  0  0
  160.6630  202.0330  146.0680 N   0  0  0  0  0  0  0  0  0  0  0  0
  160.7230  202.1120  147.4810 C   0  0  0  0  0  3  0  0  0  0  0  0
  162.0050  203.7550  146.5840 C   0  0  2  0  0  3  0  0  0  0  0  0
  161.5040  203.1190  147.8400 C   0  0  0  0  0  2  0  0  0  0  0  0
  161.8860  208.8690  150.0070 N   0  0  0  0  0  2  0  0  0  0  0  0
  162.2760  209.1360  151.3860 C   0  0  0  0  0  2  0  0  0  0  0  0
  160.4630  211.4800  153.8800 C   0  0  0  0  0  0  0  0  0  0  0  0
  160.0900  212.0350  152.5490 C   0  0  1  0  0  3  0  0  0  0  0  0
  161.1650  209.8540  152.1400 C   0  0  1  0  0  3  0  0  0  0  0  0
  159.9680  211.8990  154.9130 O   0  0  0  0  0  0  0  0  0  0  0  0
  161.6040  210.1120  153.8860 S   0  0  0  0  0  0  0  0  0  0  0  0
  160.8480  211.2110  151.5210 C   0  0  0  0  0  2  0  0  0  0  0  0
  158.7140  211.8810  152.3440 O   0  0  0  0  0  0  0  0  0  0  0  0
  158.1550  213.3950  151.8200 P   0  0  0  0  0  0  0  0  0  0  0  0
  157.6390  213.2670  150.2150 O   0  0  0  0  0  0  0  0  0  0  0  0
  156.8540  213.8990  152.7800 O   0  0  0  0  0  1  0  0  0  0  0  0
  159.2680  214.4140  151.9030 O   0  0  0  0  0  1  0  0  0  0  0  0
  162.3050  206.7100  150.9050 N   0  0  0  0  0  2  0  0  0  0  0  0
  161.3770  205.8460  151.6240 C   0  0  2  0  0  3  0  0  0  0  0  0
  162.6580  206.6790  153.4460 F   0  0  0  0  0  0  0  0  0  0  0  0
  161.4350  206.1150  153.1290 C   0  0  0  0  0  0  0  0  0  0  0  0
  161.2840  204.9410  153.8440 F   0  0  0  0  0  0  0  0  0  0  0  0
  160.4330  207.0000  153.4880 F   0  0  0  0  0  0  0  0  0  0  0  0
  160.3100  203.6660  150.8720 C   0  0  0  0  0  1  0  0  0  0  0  0
  161.5990  204.3740  151.2620 C   0  0  0  0  0  2  0  0  0  0  0  0
  1  2  1  6  0  0  0
  1 12  1  0  0  0  0
  1 25  1  0  0  0  0
  3  2  2  0  0  0  0
  4  5  2  0  0  0  0
  5  3  1  0  0  0  0
  6  5  2  0  0  0  0
  7  8  1  0  0  0  0
  7 10  1  0  0  0  0
  8  9  2  0  0  0  0
  9 11  1  0  0  0  0
 10  5  1  6  0  0  0
 10 11  1  0  0  0  0
 12 13  1  0  0  0  0
 14 18  1  0  0  0  0
 14 17  2  0  0  0  0
 15 20  1  6  0  0  0
 15 14  1  0  0  0  0
 16 13  1  6  0  0  0
 16 18  1  0  0  0  0
 19 16  1  0  0  0  0
 19 15  1  0  0  0  0
 21 24  1  0  0  0  0
 21 20  1  0  0  0  0
 21 23  1  0  0  0  0
 22 21  2  0  0  0  0
 25 26  1  0  0  0  0
 26 32  1  1  0  0  0
 26 28  1  0  0  0  0
 28 27  1  0  0  0  0
 28 30  1  0  0  0  0
 28 29  1  0  0  0  0
 31 32  1  0  0  0  0
M  END
>  <MODEL>
8

>  <REMARK>
 VINA RESULT:      -6.4      4.565      9.014
  Name = 
  12 active torsions:
  status: ('A' for Active; 'I' for Inactive)
    1  A    between atoms: P_3  and  O_14
    2  A    between atoms: N_7  and  C_22
    3  A    between atoms: N_7  and  C_30
    4  A    between atoms: C_10  and  O_14
    5  A    between atoms: C_11  and  S_17
    6  A    between atoms: C_12  and  C_22
    7  A    between atoms: C_15  and  C_18
    8  A    between atoms: C_15  and  C_24
    9  A    between atoms: C_15  and  N_32
   10  A    between atoms: S_17  and  N_29
   11  A    between atoms: C_23  and  C_30
   12  A    between atoms: C_30  and  N_32
                            x       y       z     vdW  Elec       q    Type
                         _______ _______ _______ _____ _____    ______ ____

>  <TORSDO>
F 12

$$$$
=
 OpenBabel11072410323D

 32 33  0  0  1  0  0  0  0  0999 V2000
  161.6240  206.5080  148.2430 C   0  0  2  0  0  3  0  0  0  0  0  0
  161.0120  205.5880  149.2450 C   0  0  0  0  0  3  0  0  0  0  0  0
  161.5680  204.4640  149.5100 N   0  0  0  0  0  0  0  0  0  0  0  0
  159.7550  204.0890  151.3840 O   0  0  0  0  0  0  0  0  0  0  0  0
  160.8720  203.3950  150.6560 S   0  0  0  0  0  0  0  0  0  0  0  0
  161.9200  202.9560  151.6390 O   0  0  0  0  0  0  0  0  0  0  0  0
  161.2000  200.8880  149.8470 N   0  0  0  0  0  0  0  0  0  0  0  0
  161.5760  200.5820  148.6750 N   0  0  0  0  0  0  0  0  0  0  0  0
  160.9120  201.4000  147.7260 C   0  0  0  0  0  3  0  0  0  0  0  0
  160.2240  201.9640  149.8130 C   0  0  2  0  0  3  0  0  0  0  0  0
  160.0990  202.2380  148.3490 C   0  0  0  0  0  3  0  0  0  0  0  0
  161.6180  207.8620  148.7680 N   0  0  0  0  0  2  0  0  0  0  0  0
  162.3070  207.8270  150.0520 C   0  0  0  0  0  2  0  0  0  0  0  0
  160.9130  208.3370  153.6290 C   0  0  0  0  0  0  0  0  0  0  0  0
  160.9190  209.7140  153.0590 C   0  0  1  0  0  3  0  0  0  0  0  0
  161.3570  208.1640  151.1930 C   0  0  1  0  0  3  0  0  0  0  0  0
  160.4170  208.0940  154.7160 O   0  0  0  0  0  0  0  0  0  0  0  0
  161.5900  207.0450  152.6070 S   0  0  0  0  0  0  0  0  0  0  0  0
  161.5450  209.5970  151.6800 C   0  0  0  0  0  2  0  0  0  0  0  0
  159.6030  210.1760  152.9350 O   0  0  0  0  0  0  0  0  0  0  0  0
  159.5790  211.7000  153.6800 P   0  0  0  0  0  0  0  0  0  0  0  0
  160.7900  211.7570  154.8590 O   0  0  0  0  0  1  0  0  0  0  0  0
  159.8660  212.9130  152.5340 O   0  0  0  0  0  0  0  0  0  0  0  0
  158.2370  211.9330  154.3360 O   0  0  0  0  0  1  0  0  0  0  0  0
  160.8590  206.4620  147.0050 N   0  0  0  0  0  2  0  0  0  0  0  0
  161.6960  205.8220  145.9990 C   0  0  2  0  0  3  0  0  0  0  0  0
  159.5860  205.8430  144.9040 F   0  0  0  0  0  0  0  0  0  0  0  0
  160.8480  205.2790  144.8480 C   0  0  0  0  0  0  0  0  0  0  0  0
  160.7280  203.9030  144.9320 F   0  0  0  0  0  0  0  0  0  0  0  0
  161.4290  205.6130  143.6370 F   0  0  0  0  0  0  0  0  0  0  0  0
  163.7440  204.3460  145.7080 C   0  0  0  0  0  1  0  0  0  0  0  0
  162.6100  204.7660  146.6300 C   0  0  0  0  0  2  0  0  0  0  0  0
  1 12  1  0  0  0  0
  1  2  1  1  0  0  0
  2  3  2  0  0  0  0
  3  5  1  0  0  0  0
  5  4  2  0  0  0  0
  5  6  2  0  0  0  0
  8  7  2  0  0  0  0
  9 11  2  0  0  0  0
  9  8  1  0  0  0  0
 10  7  1  0  0  0  0
 10  5  1  1  0  0  0
 11 10  1  0  0  0  0
 12 13  1  0  0  0  0
 14 17  2  0  0  0  0
 15 20  1  6  0  0  0
 15 14  1  0  0  0  0
 16 13  1  6  0  0  0
 16 19  1  0  0  0  0
 16 18  1  0  0  0  0
 18 14  1  0  0  0  0
 19 15  1  0  0  0  0
 20 21  1  0  0  0  0
 21 24  1  0  0  0  0
 21 22  1  0  0  0  0
 23 21  2  0  0  0  0
 25  1  1  0  0  0  0
 26 32  1  1  0  0  0
 26 25  1  0  0  0  0
 28 27  1  0  0  0  0
 28 29  1  0  0  0  0
 28 26  1  0  0  0  0
 30 28  1  0  0  0  0
 31 32  1  0  0  0  0
M  END
>  <MODEL>
9

>  <REMARK>
 VINA RESULT:      -6.4      4.307      8.192
  Name = 
  12 active torsions:
  status: ('A' for Active; 'I' for Inactive)
    1  A    between atoms: P_3  and  O_14
    2  A    between atoms: N_7  and  C_22
    3  A    between atoms: N_7  and  C_30
    4  A    between atoms: C_10  and  O_14
    5  A    between atoms: C_11  and  S_17
    6  A    between atoms: C_12  and  C_22
    7  A    between atoms: C_15  and  C_18
    8  A    between atoms: C_15  and  C_24
    9  A    between atoms: C_15  and  N_32
   10  A    between atoms: S_17  and  N_29
   11  A    between atoms: C_23  and  C_30
   12  A    between atoms: C_30  and  N_32
                            x       y       z     vdW  Elec       q    Type
                         _______ _______ _______ _____ _____    ______ ____

>  <TORSDO>
F 12

$$$$
