=
 OpenBabel11072413463D

 29 31  0  0  1  0  0  0  0  0999 V2000
  160.9110  207.4430  152.5650 C   0  0  2  0  0  3  0  0  0  0  0  0
  161.8550  206.2830  152.8290 C   0  0  2  0  0  3  0  0  0  0  0  0
  162.1900  207.3250  151.7490 C   0  0  1  0  0  3  0  0  0  0  0  0
  161.1970  205.0010  152.3340 C   0  0  0  0  0  1  0  0  0  0  0  0
  162.6720  207.3720  149.3390 C   0  0  0  0  0  3  0  0  0  0  0  0
  160.6320  206.1770  150.0030 C   0  0  0  0  0  2  0  0  0  0  0  0
  161.4600  206.0960  147.6300 C   0  0  0  0  0  0  0  0  0  0  0  0
  162.3790  207.0230  147.9350 C   0  0  0  0  0  3  0  0  0  0  0  0
  161.9070  206.9050  150.3330 C   0  0  0  0  0  0  0  0  0  0  0  0
  160.7980  205.3200  148.7440 C   0  0  0  0  0  2  0  0  0  0  0  0
  161.1910  205.7770  146.2510 N   0  0  0  0  0  0  0  0  0  0  0  0
  160.2370  206.4710  145.5810 O   0  0  0  0  0  1  0  0  0  0  0  0
  161.9030  204.7040  145.5570 C   0  0  0  0  0  0  0  0  0  0  0  0
  161.6380  204.7520  144.1990 F   0  0  0  0  0  0  0  0  0  0  0  0
  161.4940  203.4760  146.0460 F   0  0  0  0  0  0  0  0  0  0  0  0
  163.2660  204.8450  145.7480 F   0  0  0  0  0  0  0  0  0  0  0  0
  161.5720  209.7540  153.2000 C   0  0  0  0  0  3  0  0  0  0  0  0
  161.0370  208.5790  153.5560 C   0  0  0  0  0  0  0  0  0  0  0  0
  159.8160  207.0920  155.4220 O   0  0  0  0  0  0  0  0  0  0  0  0
  161.8240  208.5670  156.3100 N   0  0  0  0  0  1  0  0  0  0  0  0
  159.4900  209.5110  155.5440 O   0  0  0  0  0  0  0  0  0  0  0  0
  160.4820  208.4260  155.2310 S   0  0  0  0  0  0  0  0  0  0  0  0
  161.1600  210.4930  150.8080 N   0  0  0  0  0  2  0  0  0  0  0  0
  162.0630  210.1600  151.8690 C   0  0  0  0  0  0  0  0  0  0  0  0
  163.3370  210.3070  151.7040 N   0  0  0  0  0  2  0  0  0  0  0  0
  161.5990  210.9390  149.4930 C   0  0  0  0  0  2  0  0  0  0  0  0
  160.9350  212.5990  147.9240 O   0  0  0  0  0  0  0  0  0  0  0  0
  162.2000  213.0290  148.3610 C   0  0  0  0  0  2  0  0  0  0  0  0
  161.2330  212.3970  149.2850 C   0  0  2  0  0  3  0  0  0  0  0  0
  1  2  1  0  0  0  0
  1 18  1  1  0  0  0
  2  4  1  6  0  0  0
  3  9  1  6  0  0  0
  3  1  1  0  0  0  0
  3  2  1  0  0  0  0
  5  9  2  0  0  0  0
  6  9  1  0  0  0  0
  7  8  2  0  0  0  0
  7 10  1  0  0  0  0
  8  5  1  0  0  0  0
 10  6  1  0  0  0  0
 11  7  1  0  0  0  0
 12 11  1  0  0  0  0
 13 16  1  0  0  0  0
 13 15  1  0  0  0  0
 13 11  1  0  0  0  0
 14 13  1  0  0  0  0
 17 18  2  0  0  0  0
 18 22  1  0  0  0  0
 22 19  2  0  0  0  0
 22 21  2  0  0  0  0
 22 20  1  0  0  0  0
 23 24  1  0  0  0  0
 24 17  1  0  0  0  0
 25 24  2  0  0  0  0
 26 23  1  0  0  0  0
 27 28  1  0  0  0  0
 27 29  1  0  0  0  0
 28 29  1  0  0  0  0
 29 26  1  6  0  0  0
M  END
>  <MODEL>
1

>  <REMARK>
 VINA RESULT:      -6.9      0.000      0.000
  Name = 
  8 active torsions:
  status: ('A' for Active; 'I' for Inactive)
    1  A    between atoms: C_1  and  N_17
    2  A    between atoms: C_2  and  C_8
    3  A    between atoms: N_5  and  C_27
    4  A    between atoms: C_7  and  C_10
    5  A    between atoms: C_8  and  S_23
    6  A    between atoms: C_11  and  C_22
    7  A    between atoms: C_13  and  N_17
    8  A    between atoms: C_27  and  C_29
                            x       y       z     vdW  Elec       q    Type
                         _______ _______ _______ _____ _____    ______ ____

>  <TORSDO>
F 8

$$$$
=
 OpenBabel11072413463D

 29 31  0  0  1  0  0  0  0  0999 V2000
  161.8880  208.2580  151.8400 C   0  0  2  0  0  3  0  0  0  0  0  0
  161.0460  209.3570  151.2150 C   0  0  2  0  0  3  0  0  0  0  0  0
  160.6690  207.8800  151.0120 C   0  0  1  0  0  3  0  0  0  0  0  0
  161.8460  209.9990  150.0890 C   0  0  0  0  0  1  0  0  0  0  0  0
  160.1600  206.5920  148.9810 C   0  0  0  0  0  3  0  0  0  0  0  0
  162.5070  207.2540  149.2740 C   0  0  0  0  0  2  0  0  0  0  0  0
  161.7250  206.1910  147.1340 C   0  0  0  0  0  0  0  0  0  0  0  0
  160.5360  205.9510  147.7060 C   0  0  0  0  0  3  0  0  0  0  0  0
  161.0610  207.2880  149.6860 C   0  0  0  0  0  0  0  0  0  0  0  0
  162.6440  207.2200  147.7490 C   0  0  0  0  0  2  0  0  0  0  0  0
  162.0670  205.5480  145.8910 N   0  0  0  0  0  0  0  0  0  0  0  0
  163.2830  204.9610  145.7590 O   0  0  0  0  0  1  0  0  0  0  0  0
  161.1460  205.5310  144.7540 C   0  0  0  0  0  0  0  0  0  0  0  0
  161.8360  205.7530  143.5750 F   0  0  0  0  0  0  0  0  0  0  0  0
  160.1950  206.5250  144.9060 F   0  0  0  0  0  0  0  0  0  0  0  0
  160.5190  204.3010  144.6770 F   0  0  0  0  0  0  0  0  0  0  0  0
  161.5470  206.7840  153.8130 C   0  0  0  0  0  3  0  0  0  0  0  0
  161.6050  208.0230  153.3070 C   0  0  0  0  0  0  0  0  0  0  0  0
  159.9130  209.8150  154.3590 O   0  0  0  0  0  0  0  0  0  0  0  0
  161.7070  208.8510  156.0470 N   0  0  0  0  0  1  0  0  0  0  0  0
  162.2370  210.5170  154.0790 O   0  0  0  0  0  0  0  0  0  0  0  0
  161.3440  209.3620  154.4370 S   0  0  0  0  0  0  0  0  0  0  0  0
  160.7180  204.5580  152.9200 N   0  0  0  0  0  2  0  0  0  0  0  0
  161.7740  205.5070  153.1100 C   0  0  0  0  0  0  0  0  0  0  0  0
  162.9330  205.2990  152.5750 N   0  0  0  0  0  2  0  0  0  0  0  0
  160.8860  203.3060  152.1970 C   0  0  0  0  0  2  0  0  0  0  0  0
  160.4040  202.1740  150.1600 O   0  0  0  0  0  0  0  0  0  0  0  0
  161.3370  203.1580  149.7910 C   0  0  0  0  0  2  0  0  0  0  0  0
  160.2920  203.4210  150.8050 C   0  0  2  0  0  3  0  0  0  0  0  0
  1 18  1  1  0  0  0
  2  4  1  6  0  0  0
  2  1  1  0  0  0  0
  3  9  1  6  0  0  0
  3  2  1  0  0  0  0
  3  1  1  0  0  0  0
  5  9  2  0  0  0  0
  6  9  1  0  0  0  0
  7  8  2  0  0  0  0
  7 10  1  0  0  0  0
  8  5  1  0  0  0  0
 10  6  1  0  0  0  0
 11  7  1  0  0  0  0
 12 11  1  0  0  0  0
 13 15  1  0  0  0  0
 13 11  1  0  0  0  0
 14 13  1  0  0  0  0
 16 13  1  0  0  0  0
 18 17  2  0  0  0  0
 18 22  1  0  0  0  0
 19 22  2  0  0  0  0
 21 22  2  0  0  0  0
 22 20  1  0  0  0  0
 23 24  1  0  0  0  0
 24 17  1  0  0  0  0
 25 24  2  0  0  0  0
 26 23  1  0  0  0  0
 27 29  1  0  0  0  0
 28 27  1  0  0  0  0
 28 29  1  0  0  0  0
 29 26  1  1  0  0  0
M  END
>  <MODEL>
2

>  <REMARK>
 VINA RESULT:      -6.8      2.441      4.537
  Name = 
  8 active torsions:
  status: ('A' for Active; 'I' for Inactive)
    1  A    between atoms: C_1  and  N_17
    2  A    between atoms: C_2  and  C_8
    3  A    between atoms: N_5  and  C_27
    4  A    between atoms: C_7  and  C_10
    5  A    between atoms: C_8  and  S_23
    6  A    between atoms: C_11  and  C_22
    7  A    between atoms: C_13  and  N_17
    8  A    between atoms: C_27  and  C_29
                            x       y       z     vdW  Elec       q    Type
                         _______ _______ _______ _____ _____    ______ ____

>  <TORSDO>
F 8

$$$$
=
 OpenBabel11072413463D

 29 31  0  0  1  0  0  0  0  0999 V2000
  160.6330  207.6280  153.6350 C   0  0  2  0  0  3  0  0  0  0  0  0
  161.6430  206.5330  153.9320 C   0  0  2  0  0  3  0  0  0  0  0  0
  161.9600  207.6180  152.8900 C   0  0  1  0  0  3  0  0  0  0  0  0
  161.1080  205.2180  153.3790 C   0  0  0  0  0  1  0  0  0  0  0  0
  162.8470  207.2000  150.6360 C   0  0  0  0  0  3  0  0  0  0  0  0
  160.4060  207.0550  150.8740 C   0  0  0  0  0  2  0  0  0  0  0  0
  161.5360  206.3790  148.7310 C   0  0  0  0  0  0  0  0  0  0  0  0
  162.6940  206.8590  149.2080 C   0  0  0  0  0  3  0  0  0  0  0  0
  161.7870  207.2080  151.4540 C   0  0  0  0  0  0  0  0  0  0  0  0
  160.4110  206.0780  149.6940 C   0  0  0  0  0  2  0  0  0  0  0  0
  161.4130  206.0580  147.3330 N   0  0  0  0  0  0  0  0  0  0  0  0
  160.6880  206.8720  146.5240 O   0  0  0  0  0  1  0  0  0  0  0  0
  162.0290  204.8600  146.7610 C   0  0  0  0  0  0  0  0  0  0  0  0
  162.0850  203.8520  147.7070 F   0  0  0  0  0  0  0  0  0  0  0  0
  163.3160  205.1490  146.3430 F   0  0  0  0  0  0  0  0  0  0  0  0
  161.2830  204.4170  145.6840 F   0  0  0  0  0  0  0  0  0  0  0  0
  160.4640  210.0240  154.2720 C   0  0  0  0  0  3  0  0  0  0  0  0
  160.6210  208.7490  154.6500 C   0  0  0  0  0  0  0  0  0  0  0  0
  160.2090  209.5840  157.1630 O   0  0  0  0  0  0  0  0  0  0  0  0
  160.0090  206.9700  156.8090 N   0  0  0  0  0  1  0  0  0  0  0  0
  162.2620  208.3280  156.7340 O   0  0  0  0  0  0  0  0  0  0  0  0
  160.8040  208.4440  156.3840 S   0  0  0  0  0  0  0  0  0  0  0  0
  161.3210  210.6840  151.9770 N   0  0  0  0  0  2  0  0  0  0  0  0
  160.2430  210.5460  152.9100 C   0  0  0  0  0  0  0  0  0  0  0  0
  159.0290  210.7870  152.5350 N   0  0  0  0  0  2  0  0  0  0  0  0
  161.1420  211.1540  150.6100 C   0  0  0  0  0  2  0  0  0  0  0  0
  162.3640  211.5830  148.6140 O   0  0  0  0  0  0  0  0  0  0  0  0
  161.8850  210.2720  148.4460 C   0  0  0  0  0  2  0  0  0  0  0  0
  162.3410  210.7690  149.7630 C   0  0  2  0  0  3  0  0  0  0  0  0
  1  2  1  0  0  0  0
  1 18  1  1  0  0  0
  2  4  1  6  0  0  0
  3  9  1  6  0  0  0
  3  1  1  0  0  0  0
  3  2  1  0  0  0  0
  5  9  2  0  0  0  0
  6  9  1  0  0  0  0
  7  8  2  0  0  0  0
  7 10  1  0  0  0  0
  8  5  1  0  0  0  0
 10  6  1  0  0  0  0
 11  7  1  0  0  0  0
 12 11  1  0  0  0  0
 13 11  1  0  0  0  0
 13 14  1  0  0  0  0
 15 13  1  0  0  0  0
 16 13  1  0  0  0  0
 17 18  2  0  0  0  0
 18 22  1  0  0  0  0
 22 21  2  0  0  0  0
 22 20  1  0  0  0  0
 22 19  2  0  0  0  0
 23 24  1  0  0  0  0
 24 17  1  0  0  0  0
 25 24  2  0  0  0  0
 26 23  1  0  0  0  0
 27 29  1  0  0  0  0
 28 27  1  0  0  0  0
 28 29  1  0  0  0  0
 29 26  1  1  0  0  0
M  END
>  <MODEL>
3

>  <REMARK>
 VINA RESULT:      -6.8      1.501      1.998
  Name = 
  8 active torsions:
  status: ('A' for Active; 'I' for Inactive)
    1  A    between atoms: C_1  and  N_17
    2  A    between atoms: C_2  and  C_8
    3  A    between atoms: N_5  and  C_27
    4  A    between atoms: C_7  and  C_10
    5  A    between atoms: C_8  and  S_23
    6  A    between atoms: C_11  and  C_22
    7  A    between atoms: C_13  and  N_17
    8  A    between atoms: C_27  and  C_29
                            x       y       z     vdW  Elec       q    Type
                         _______ _______ _______ _____ _____    ______ ____

>  <TORSDO>
F 8

$$$$
=
 OpenBabel11072413463D

 29 31  0  0  1  0  0  0  0  0999 V2000
  161.2000  205.8920  150.8940 C   0  0  2  0  0  3  0  0  0  0  0  0
  162.6090  206.4550  150.9590 C   0  0  2  0  0  3  0  0  0  0  0  0
  161.9350  205.9040  152.2260 C   0  0  1  0  0  3  0  0  0  0  0  0
  162.5360  207.9650  150.7720 C   0  0  0  0  0  1  0  0  0  0  0  0
  161.2790  206.6640  154.4700 C   0  0  0  0  0  3  0  0  0  0  0  0
  160.6800  208.1560  152.6120 C   0  0  0  0  0  2  0  0  0  0  0  0
  160.3640  208.8780  154.9990 C   0  0  0  0  0  0  0  0  0  0  0  0
  160.6740  207.6370  155.4000 C   0  0  0  0  0  3  0  0  0  0  0  0
  161.3700  206.9360  153.1620 C   0  0  0  0  0  0  0  0  0  0  0  0
  160.7450  209.3190  153.6050 C   0  0  0  0  0  2  0  0  0  0  0  0
  159.7710  209.8060  155.9270 N   0  0  0  0  0  0  0  0  0  0  0  0
  159.9110  209.5960  157.2600 O   0  0  0  0  0  1  0  0  0  0  0  0
  158.9970  210.9610  155.4710 C   0  0  0  0  0  0  0  0  0  0  0  0
  158.1580  211.4050  156.4790 F   0  0  0  0  0  0  0  0  0  0  0  0
  158.2280  210.6080  154.3760 F   0  0  0  0  0  0  0  0  0  0  0  0
  159.8510  211.9910  155.1210 F   0  0  0  0  0  0  0  0  0  0  0  0
  161.1050  204.2340  149.0440 C   0  0  0  0  0  3  0  0  0  0  0  0
  161.1250  204.4780  150.3610 C   0  0  0  0  0  0  0  0  0  0  0  0
  160.2680  203.4100  152.6640 O   0  0  0  0  0  0  0  0  0  0  0  0
  160.3470  201.7350  150.6190 N   0  0  0  0  0  1  0  0  0  0  0  0
  162.4610  202.6930  151.8590 O   0  0  0  0  0  0  0  0  0  0  0  0
  161.0690  203.0740  151.4370 S   0  0  0  0  0  0  0  0  0  0  0  0
  162.0820  205.0110  146.8350 N   0  0  0  0  0  2  0  0  0  0  0  0
  161.1910  205.2080  147.9400 C   0  0  0  0  0  0  0  0  0  0  0  0
  160.3690  206.2050  147.9360 N   0  0  0  0  0  2  0  0  0  0  0  0
  162.1700  205.9240  145.7040 C   0  0  0  0  0  2  0  0  0  0  0  0
  160.8510  204.4980  144.3310 O   0  0  0  0  0  0  0  0  0  0  0  0
  161.3130  205.4890  143.4480 C   0  0  0  0  0  2  0  0  0  0  0  0
  160.9270  205.8080  144.8400 C   0  0  2  0  0  3  0  0  0  0  0  0
  1 18  1  6  0  0  0
  1  2  1  0  0  0  0
  1  3  1  0  0  0  0
  2  4  1  1  0  0  0
  2  3  1  0  0  0  0
  3  9  1  1  0  0  0
  5  8  1  0  0  0  0
  6  9  1  0  0  0  0
  6 10  1  0  0  0  0
  7  8  2  0  0  0  0
  7 11  1  0  0  0  0
  9  5  2  0  0  0  0
 10  7  1  0  0  0  0
 11 12  1  0  0  0  0
 13 11  1  0  0  0  0
 13 14  1  0  0  0  0
 15 13  1  0  0  0  0
 16 13  1  0  0  0  0
 17 18  2  0  0  0  0
 18 22  1  0  0  0  0
 20 22  1  0  0  0  0
 22 21  2  0  0  0  0
 22 19  2  0  0  0  0
 23 24  1  0  0  0  0
 24 17  1  0  0  0  0
 25 24  2  0  0  0  0
 26 23  1  0  0  0  0
 27 29  1  0  0  0  0
 28 27  1  0  0  0  0
 28 29  1  0  0  0  0
 29 26  1  1  0  0  0
M  END
>  <MODEL>
4

>  <REMARK>
 VINA RESULT:      -6.7      4.948      7.895
  Name = 
  8 active torsions:
  status: ('A' for Active; 'I' for Inactive)
    1  A    between atoms: C_1  and  N_17
    2  A    between atoms: C_2  and  C_8
    3  A    between atoms: N_5  and  C_27
    4  A    between atoms: C_7  and  C_10
    5  A    between atoms: C_8  and  S_23
    6  A    between atoms: C_11  and  C_22
    7  A    between atoms: C_13  and  N_17
    8  A    between atoms: C_27  and  C_29
                            x       y       z     vdW  Elec       q    Type
                         _______ _______ _______ _____ _____    ______ ____

>  <TORSDO>
F 8

$$$$
=
 OpenBabel11072413463D

 29 31  0  0  1  0  0  0  0  0999 V2000
  161.1540  205.6090  150.4560 C   0  0  2  0  0  3  0  0  0  0  0  0
  162.4880  206.2940  150.2140 C   0  0  2  0  0  3  0  0  0  0  0  0
  162.0880  205.8530  151.6320 C   0  0  1  0  0  3  0  0  0  0  0  0
  162.2270  207.7560  149.8750 C   0  0  0  0  0  1  0  0  0  0  0  0
  161.5820  206.7670  153.8570 C   0  0  0  0  0  3  0  0  0  0  0  0
  160.8310  208.1150  151.9450 C   0  0  0  0  0  2  0  0  0  0  0  0
  160.6740  209.0040  154.2920 C   0  0  0  0  0  0  0  0  0  0  0  0
  161.0300  207.7980  154.7570 C   0  0  0  0  0  3  0  0  0  0  0  0
  161.5760  206.9450  152.5300 C   0  0  0  0  0  0  0  0  0  0  0  0
  160.9490  209.3470  152.8460 C   0  0  0  0  0  2  0  0  0  0  0  0
  160.1340  209.9910  155.1920 N   0  0  0  0  0  0  0  0  0  0  0  0
  158.9440  209.7560  155.8000 O   0  0  0  0  0  1  0  0  0  0  0  0
  160.8230  211.2550  155.4500 C   0  0  0  0  0  0  0  0  0  0  0  0
  162.1940  211.0760  155.3890 F   0  0  0  0  0  0  0  0  0  0  0  0
  160.4920  211.7210  156.7110 F   0  0  0  0  0  0  0  0  0  0  0  0
  160.4560  212.1930  154.5020 F   0  0  0  0  0  0  0  0  0  0  0  0
  161.3190  203.7240  148.8430 C   0  0  0  0  0  3  0  0  0  0  0  0
  161.1440  204.1380  150.1050 C   0  0  0  0  0  0  0  0  0  0  0  0
  160.0890  203.4340  152.4660 O   0  0  0  0  0  0  0  0  0  0  0  0
  160.1060  201.5220  150.6380 N   0  0  0  0  0  1  0  0  0  0  0  0
  162.2410  202.4390  151.8730 O   0  0  0  0  0  0  0  0  0  0  0  0
  160.9100  202.8840  151.3330 S   0  0  0  0  0  0  0  0  0  0  0  0
  160.6440  205.5340  147.1970 N   0  0  0  0  0  2  0  0  0  0  0  0
  161.5810  204.5480  147.6480 C   0  0  0  0  0  0  0  0  0  0  0  0
  162.7280  204.4330  147.0630 N   0  0  0  0  0  2  0  0  0  0  0  0
  160.8800  206.3970  146.0480 C   0  0  0  0  0  2  0  0  0  0  0  0
  160.6890  204.5280  144.5880 O   0  0  0  0  0  0  0  0  0  0  0  0
  161.2060  205.5480  143.7710 C   0  0  0  0  0  2  0  0  0  0  0  0
  160.1980  205.8280  144.8170 C   0  0  2  0  0  3  0  0  0  0  0  0
  1 18  1  6  0  0  0
  1  3  1  0  0  0  0
  2  4  1  1  0  0  0
  2  1  1  0  0  0  0
  2  3  1  0  0  0  0
  3  9  1  1  0  0  0
  5  8  1  0  0  0  0
  6  9  1  0  0  0  0
  6 10  1  0  0  0  0
  7  8  2  0  0  0  0
  7 11  1  0  0  0  0
  9  5  2  0  0  0  0
 10  7  1  0  0  0  0
 11 13  1  0  0  0  0
 11 12  1  0  0  0  0
 13 15  1  0  0  0  0
 14 13  1  0  0  0  0
 16 13  1  0  0  0  0
 17 18  2  0  0  0  0
 18 22  1  0  0  0  0
 20 22  1  0  0  0  0
 22 21  2  0  0  0  0
 22 19  2  0  0  0  0
 23 24  1  0  0  0  0
 24 17  1  0  0  0  0
 25 24  2  0  0  0  0
 26 23  1  0  0  0  0
 27 29  1  0  0  0  0
 28 27  1  0  0  0  0
 28 29  1  0  0  0  0
 29 26  1  1  0  0  0
M  END
>  <MODEL>
5

>  <REMARK>
 VINA RESULT:      -6.5      4.957      7.775
  Name = 
  8 active torsions:
  status: ('A' for Active; 'I' for Inactive)
    1  A    between atoms: C_1  and  N_17
    2  A    between atoms: C_2  and  C_8
    3  A    between atoms: N_5  and  C_27
    4  A    between atoms: C_7  and  C_10
    5  A    between atoms: C_8  and  S_23
    6  A    between atoms: C_11  and  C_22
    7  A    between atoms: C_13  and  N_17
    8  A    between atoms: C_27  and  C_29
                            x       y       z     vdW  Elec       q    Type
                         _______ _______ _______ _____ _____    ______ ____

>  <TORSDO>
F 8

$$$$
=
 OpenBabel11072413463D

 29 31  0  0  1  0  0  0  0  0999 V2000
  160.6460  208.5650  153.9300 C   0  0  2  0  0  3  0  0  0  0  0  0
  161.1060  207.4230  154.8200 C   0  0  2  0  0  3  0  0  0  0  0  0
  161.8940  207.7830  153.5500 C   0  0  1  0  0  3  0  0  0  0  0  0
  160.1150  206.2740  154.6830 C   0  0  0  0  0  1  0  0  0  0  0  0
  162.0980  205.6310  152.3790 C   0  0  0  0  0  3  0  0  0  0  0  0
  161.1420  207.4780  151.0730 C   0  0  0  0  0  2  0  0  0  0  0  0
  161.1680  205.1340  150.1640 C   0  0  0  0  0  0  0  0  0  0  0  0
  161.9250  204.7550  151.2040 C   0  0  0  0  0  3  0  0  0  0  0  0
  161.6510  206.8930  152.3620 C   0  0  0  0  0  0  0  0  0  0  0  0
  160.3910  206.4270  150.2500 C   0  0  0  0  0  2  0  0  0  0  0  0
  161.0190  204.2620  149.0270 N   0  0  0  0  0  0  0  0  0  0  0  0
  160.5240  203.0110  149.2080 O   0  0  0  0  0  1  0  0  0  0  0  0
  161.4120  204.6790  147.6810 C   0  0  0  0  0  0  0  0  0  0  0  0
  161.5960  203.5720  146.8700 F   0  0  0  0  0  0  0  0  0  0  0  0
  162.5970  205.3900  147.7370 F   0  0  0  0  0  0  0  0  0  0  0  0
  160.4230  205.4730  147.1290 F   0  0  0  0  0  0  0  0  0  0  0  0
  161.1630  210.9740  153.5990 C   0  0  0  0  0  3  0  0  0  0  0  0
  161.0330  209.9360  154.4360 C   0  0  0  0  0  0  0  0  0  0  0  0
  162.7320  209.8470  156.5070 O   0  0  0  0  0  0  0  0  0  0  0  0
  161.1030  211.9310  156.4900 N   0  0  0  0  0  1  0  0  0  0  0  0
  160.3700  209.4540  156.9940 O   0  0  0  0  0  0  0  0  0  0  0  0
  161.3280  210.2510  156.1540 S   0  0  0  0  0  0  0  0  0  0  0  0
  161.9430  210.5970  151.2140 N   0  0  0  0  0  2  0  0  0  0  0  0
  160.9280  210.9980  152.1430 C   0  0  0  0  0  0  0  0  0  0  0  0
  159.7450  211.2970  151.7170 N   0  0  0  0  0  2  0  0  0  0  0  0
  161.7410  210.5650  149.7720 C   0  0  0  0  0  2  0  0  0  0  0  0
  161.1780  212.7440  149.0010 O   0  0  0  0  0  0  0  0  0  0  0  0
  161.5910  212.0670  147.8400 C   0  0  0  0  0  2  0  0  0  0  0  0
  162.2540  211.8480  149.1440 C   0  0  2  0  0  3  0  0  0  0  0  0
  1 18  1  1  0  0  0
  1  2  1  0  0  0  0
  2  4  1  6  0  0  0
  3  9  1  6  0  0  0
  3  1  1  0  0  0  0
  3  2  1  0  0  0  0
  6  9  1  0  0  0  0
  7 10  1  0  0  0  0
  7  8  2  0  0  0  0
  8  5  1  0  0  0  0
  9  5  2  0  0  0  0
 10  6  1  0  0  0  0
 11 12  1  0  0  0  0
 11  7  1  0  0  0  0
 13 15  1  0  0  0  0
 13 11  1  0  0  0  0
 14 13  1  0  0  0  0
 16 13  1  0  0  0  0
 17 18  2  0  0  0  0
 18 22  1  0  0  0  0
 22 20  1  0  0  0  0
 22 19  2  0  0  0  0
 22 21  2  0  0  0  0
 23 24  1  0  0  0  0
 24 17  1  0  0  0  0
 25 24  2  0  0  0  0
 26 23  1  0  0  0  0
 27 29  1  0  0  0  0
 28 27  1  0  0  0  0
 28 29  1  0  0  0  0
 29 26  1  1  0  0  0
M  END
>  <MODEL>
6

>  <REMARK>
 VINA RESULT:      -6.5      1.988      2.606
  Name = 
  8 active torsions:
  status: ('A' for Active; 'I' for Inactive)
    1  A    between atoms: C_1  and  N_17
    2  A    between atoms: C_2  and  C_8
    3  A    between atoms: N_5  and  C_27
    4  A    between atoms: C_7  and  C_10
    5  A    between atoms: C_8  and  S_23
    6  A    between atoms: C_11  and  C_22
    7  A    between atoms: C_13  and  N_17
    8  A    between atoms: C_27  and  C_29
                            x       y       z     vdW  Elec       q    Type
                         _______ _______ _______ _____ _____    ______ ____

>  <TORSDO>
F 8

$$$$
=
 OpenBabel11072413463D

 29 31  0  0  1  0  0  0  0  0999 V2000
  160.6920  208.5380  152.2140 C   0  0  2  0  0  3  0  0  0  0  0  0
  161.3560  208.0140  153.4750 C   0  0  2  0  0  3  0  0  0  0  0  0
  161.9470  207.6850  152.0940 C   0  0  1  0  0  3  0  0  0  0  0  0
  160.4600  206.9440  154.0860 C   0  0  0  0  0  1  0  0  0  0  0  0
  162.1630  205.2380  152.1690 C   0  0  0  0  0  3  0  0  0  0  0  0
  160.9570  206.1520  150.2340 C   0  0  0  0  0  2  0  0  0  0  0  0
  161.0360  203.6740  150.6510 C   0  0  0  0  0  0  0  0  0  0  0  0
  161.9230  203.8830  151.6360 C   0  0  0  0  0  3  0  0  0  0  0  0
  161.6370  206.3120  151.5670 C   0  0  0  0  0  0  0  0  0  0  0  0
  160.1920  204.8270  150.1620 C   0  0  0  0  0  2  0  0  0  0  0  0
  160.8240  202.3410  150.1470 N   0  0  0  0  0  0  0  0  0  0  0  0
  160.6100  201.3250  151.0200 O   0  0  0  0  0  1  0  0  0  0  0  0
  160.8590  202.0470  148.7140 C   0  0  0  0  0  0  0  0  0  0  0  0
  161.5840  200.8920  148.4780 F   0  0  0  0  0  0  0  0  0  0  0  0
  161.4570  203.0930  148.0340 F   0  0  0  0  0  0  0  0  0  0  0  0
  159.5720  201.8660  148.2400 F   0  0  0  0  0  0  0  0  0  0  0  0
  160.6010  210.9760  152.6910 C   0  0  0  0  0  3  0  0  0  0  0  0
  161.0180  209.9800  151.8980 C   0  0  0  0  0  0  0  0  0  0  0  0
  161.9540  209.3120  149.4780 O   0  0  0  0  0  0  0  0  0  0  0  0
  161.3140  211.8630  149.7600 N   0  0  0  0  0  1  0  0  0  0  0  0
  163.3950  210.7030  150.8770 O   0  0  0  0  0  0  0  0  0  0  0  0
  161.9710  210.4350  150.4770 S   0  0  0  0  0  0  0  0  0  0  0  0
  158.4130  210.9730  153.9760 N   0  0  0  0  0  2  0  0  0  0  0  0
  159.8420  210.8720  153.9520 C   0  0  0  0  0  0  0  0  0  0  0  0
  160.4870  210.5870  155.0350 N   0  0  0  0  0  2  0  0  0  0  0  0
  157.6210  210.8350  155.1910 C   0  0  0  0  0  2  0  0  0  0  0  0
  155.5490  211.4310  156.1970 O   0  0  0  0  0  0  0  0  0  0  0  0
  155.2290  210.3290  155.3860 C   0  0  0  0  0  2  0  0  0  0  0  0
  156.2110  211.3490  154.9570 C   0  0  2  0  0  3  0  0  0  0  0  0
  1 18  1  1  0  0  0
  1  2  1  0  0  0  0
  2  4  1  6  0  0  0
  3  9  1  6  0  0  0
  3  1  1  0  0  0  0
  3  2  1  0  0  0  0
  6  9  1  0  0  0  0
  7  8  2  0  0  0  0
  8  5  1  0  0  0  0
  9  5  2  0  0  0  0
 10  6  1  0  0  0  0
 10  7  1  0  0  0  0
 11  7  1  0  0  0  0
 11 12  1  0  0  0  0
 13 11  1  0  0  0  0
 14 13  1  0  0  0  0
 15 13  1  0  0  0  0
 16 13  1  0  0  0  0
 17 24  1  0  0  0  0
 18 17  2  0  0  0  0
 19 22  2  0  0  0  0
 20 22  1  0  0  0  0
 22 21  2  0  0  0  0
 22 18  1  0  0  0  0
 23 26  1  0  0  0  0
 24 23  1  0  0  0  0
 24 25  2  0  0  0  0
 28 27  1  0  0  0  0
 29 26  1  1  0  0  0
 29 28  1  0  0  0  0
 29 27  1  0  0  0  0
M  END
>  <MODEL>
7

>  <REMARK>
 VINA RESULT:      -6.4      3.453      5.146
  Name = 
  8 active torsions:
  status: ('A' for Active; 'I' for Inactive)
    1  A    between atoms: C_1  and  N_17
    2  A    between atoms: C_2  and  C_8
    3  A    between atoms: N_5  and  C_27
    4  A    between atoms: C_7  and  C_10
    5  A    between atoms: C_8  and  S_23
    6  A    between atoms: C_11  and  C_22
    7  A    between atoms: C_13  and  N_17
    8  A    between atoms: C_27  and  C_29
                            x       y       z     vdW  Elec       q    Type
                         _______ _______ _______ _____ _____    ______ ____

>  <TORSDO>
F 8

$$$$
=
 OpenBabel11072413463D

 29 31  0  0  1  0  0  0  0  0999 V2000
  160.5160  209.1280  154.3150 C   0  0  2  0  0  3  0  0  0  0  0  0
  160.7540  207.9870  155.2880 C   0  0  2  0  0  3  0  0  0  0  0  0
  161.7150  208.2130  154.1090 C   0  0  1  0  0  3  0  0  0  0  0  0
  159.6750  206.9330  155.0710 C   0  0  0  0  0  1  0  0  0  0  0  0
  161.0750  207.8040  151.7710 C   0  0  0  0  0  3  0  0  0  0  0  0
  161.5770  205.8090  153.1130 C   0  0  0  0  0  2  0  0  0  0  0  0
  161.1900  205.6320  150.6350 C   0  0  0  0  0  0  0  0  0  0  0  0
  160.8200  206.9210  150.6160 C   0  0  0  0  0  3  0  0  0  0  0  0
  161.5200  207.3010  152.9290 C   0  0  0  0  0  0  0  0  0  0  0  0
  161.9810  205.1100  151.8110 C   0  0  0  0  0  2  0  0  0  0  0  0
  160.9250  204.7920  149.4950 N   0  0  0  0  0  0  0  0  0  0  0  0
  160.6060  203.4880  149.6900 O   0  0  0  0  0  1  0  0  0  0  0  0
  161.0140  205.3020  148.1270 C   0  0  0  0  0  0  0  0  0  0  0  0
  160.9020  204.2620  147.2200 F   0  0  0  0  0  0  0  0  0  0  0  0
  162.2330  205.9270  147.9370 F   0  0  0  0  0  0  0  0  0  0  0  0
  159.9920  206.2050  147.8940 F   0  0  0  0  0  0  0  0  0  0  0  0
  160.7720  211.5920  154.1090 C   0  0  0  0  0  3  0  0  0  0  0  0
  160.9790  210.4760  154.8200 C   0  0  0  0  0  0  0  0  0  0  0  0
  163.2920  210.7220  156.1500 O   0  0  0  0  0  0  0  0  0  0  0  0
  161.2740  212.1040  157.1580 N   0  0  0  0  0  1  0  0  0  0  0  0
  161.5020  209.4840  157.2610 O   0  0  0  0  0  0  0  0  0  0  0  0
  161.8070  210.6590  156.3740 S   0  0  0  0  0  0  0  0  0  0  0  0
  158.8020  212.3880  152.7210 N   0  0  0  0  0  2  0  0  0  0  0  0
  160.0700  211.7270  152.8180 C   0  0  0  0  0  0  0  0  0  0  0  0
  160.6700  211.3210  151.7480 N   0  0  0  0  0  2  0  0  0  0  0  0
  158.0940  212.5810  151.4640 C   0  0  0  0  0  2  0  0  0  0  0  0
  156.6180  214.4430  151.5880 O   0  0  0  0  0  0  0  0  0  0  0  0
  156.8200  214.2590  150.2090 C   0  0  0  0  0  2  0  0  0  0  0  0
  157.9120  214.0620  151.1870 C   0  0  2  0  0  3  0  0  0  0  0  0
  1 18  1  1  0  0  0
  1  2  1  0  0  0  0
  2  4  1  6  0  0  0
  3  9  1  6  0  0  0
  3  1  1  0  0  0  0
  3  2  1  0  0  0  0
  5  9  2  0  0  0  0
  7 10  1  0  0  0  0
  8  7  2  0  0  0  0
  8  5  1  0  0  0  0
  9  6  1  0  0  0  0
 10  6  1  0  0  0  0
 11 12  1  0  0  0  0
 11  7  1  0  0  0  0
 13 11  1  0  0  0  0
 14 13  1  0  0  0  0
 15 13  1  0  0  0  0
 16 13  1  0  0  0  0
 17 18  2  0  0  0  0
 18 22  1  0  0  0  0
 19 22  2  0  0  0  0
 22 20  1  0  0  0  0
 22 21  2  0  0  0  0
 23 24  1  0  0  0  0
 24 17  1  0  0  0  0
 25 24  2  0  0  0  0
 26 23  1  0  0  0  0
 28 29  1  0  0  0  0
 28 27  1  0  0  0  0
 29 26  1  1  0  0  0
 29 27  1  0  0  0  0
M  END
>  <MODEL>
8

>  <REMARK>
 VINA RESULT:      -6.2      2.893      3.588
  Name = 
  8 active torsions:
  status: ('A' for Active; 'I' for Inactive)
    1  A    between atoms: C_1  and  N_17
    2  A    between atoms: C_2  and  C_8
    3  A    between atoms: N_5  and  C_27
    4  A    between atoms: C_7  and  C_10
    5  A    between atoms: C_8  and  S_23
    6  A    between atoms: C_11  and  C_22
    7  A    between atoms: C_13  and  N_17
    8  A    between atoms: C_27  and  C_29
                            x       y       z     vdW  Elec       q    Type
                         _______ _______ _______ _____ _____    ______ ____

>  <TORSDO>
F 8

$$$$
=
 OpenBabel11072413463D

 29 31  0  0  1  0  0  0  0  0999 V2000
  161.2400  209.0850  150.5630 C   0  0  2  0  0  3  0  0  0  0  0  0
  162.5230  208.5370  151.1630 C   0  0  2  0  0  3  0  0  0  0  0  0
  162.3640  208.6410  149.6370 C   0  0  1  0  0  3  0  0  0  0  0  0
  162.2290  207.1710  151.7690 C   0  0  0  0  0  1  0  0  0  0  0  0
  162.7610  206.9680  147.8810 C   0  0  0  0  0  3  0  0  0  0  0  0
  160.7350  206.6470  149.2330 C   0  0  0  0  0  2  0  0  0  0  0  0
  161.4780  204.8970  147.5870 C   0  0  0  0  0  0  0  0  0  0  0  0
  162.4150  205.7420  147.1350 C   0  0  0  0  0  3  0  0  0  0  0  0
  162.0270  207.3570  148.9320 C   0  0  0  0  0  0  0  0  0  0  0  0
  160.8490  205.1490  148.9380 C   0  0  0  0  0  2  0  0  0  0  0  0
  161.1570  203.7110  146.8360 N   0  0  0  0  0  0  0  0  0  0  0  0
  160.9040  202.5530  147.4970 O   0  0  0  0  0  1  0  0  0  0  0  0
  161.1220  203.7120  145.3730 C   0  0  0  0  0  0  0  0  0  0  0  0
  160.5030  202.5650  144.9070 F   0  0  0  0  0  0  0  0  0  0  0  0
  162.4110  203.7560  144.8730 F   0  0  0  0  0  0  0  0  0  0  0  0
  160.4150  204.8120  144.9220 F   0  0  0  0  0  0  0  0  0  0  0  0
  160.7000  211.2540  151.6490 C   0  0  0  0  0  3  0  0  0  0  0  0
  161.1490  210.5940  150.5730 C   0  0  0  0  0  0  0  0  0  0  0  0
  161.2050  210.8890  147.9110 O   0  0  0  0  0  0  0  0  0  0  0  0
  160.9050  213.1350  149.2750 N   0  0  0  0  0  1  0  0  0  0  0  0
  163.1290  211.7320  149.1590 O   0  0  0  0  0  0  0  0  0  0  0  0
  161.6340  211.5710  149.1790 S   0  0  0  0  0  0  0  0  0  0  0  0
  161.2370  210.1720  153.8800 N   0  0  0  0  0  2  0  0  0  0  0  0
  160.2820  210.6930  152.9480 C   0  0  0  0  0  0  0  0  0  0  0  0
  159.0340  210.7690  153.2760 N   0  0  0  0  0  2  0  0  0  0  0  0
  160.8750  209.6470  155.1890 C   0  0  0  0  0  2  0  0  0  0  0  0
  160.4360  207.3530  154.7350 O   0  0  0  0  0  0  0  0  0  0  0  0
  160.4030  207.4350  156.1370 C   0  0  0  0  0  2  0  0  0  0  0  0
  161.3690  208.2200  155.3360 C   0  0  2  0  0  3  0  0  0  0  0  0
  1 18  1  1  0  0  0
  1  2  1  0  0  0  0
  2  4  1  6  0  0  0
  3  9  1  6  0  0  0
  3  1  1  0  0  0  0
  3  2  1  0  0  0  0
  5  9  2  0  0  0  0
  7 10  1  0  0  0  0
  8  7  2  0  0  0  0
  8  5  1  0  0  0  0
  9  6  1  0  0  0  0
 10  6  1  0  0  0  0
 11 12  1  0  0  0  0
 11  7  1  0  0  0  0
 13 11  1  0  0  0  0
 14 13  1  0  0  0  0
 15 13  1  0  0  0  0
 16 13  1  0  0  0  0
 17 24  1  0  0  0  0
 18 17  2  0  0  0  0
 19 22  2  0  0  0  0
 21 22  2  0  0  0  0
 22 20  1  0  0  0  0
 22 18  1  0  0  0  0
 23 26  1  0  0  0  0
 24 25  2  0  0  0  0
 24 23  1  0  0  0  0
 27 29  1  0  0  0  0
 27 28  1  0  0  0  0
 29 26  1  6  0  0  0
 29 28  1  0  0  0  0
M  END
>  <MODEL>
9

>  <REMARK>
 VINA RESULT:      -6.1      2.355      4.706
  Name = 
  8 active torsions:
  status: ('A' for Active; 'I' for Inactive)
    1  A    between atoms: C_1  and  N_17
    2  A    between atoms: C_2  and  C_8
    3  A    between atoms: N_5  and  C_27
    4  A    between atoms: C_7  and  C_10
    5  A    between atoms: C_8  and  S_23
    6  A    between atoms: C_11  and  C_22
    7  A    between atoms: C_13  and  N_17
    8  A    between atoms: C_27  and  C_29
                            x       y       z     vdW  Elec       q    Type
                         _______ _______ _______ _____ _____    ______ ____

>  <TORSDO>
F 8

$$$$
