=
 OpenBabel11072411563D

 60 65  0  0  1  0  0  0  0  0999 V2000
  159.8440  213.1050  151.7210 C   0  0  1  0  0  3  0  0  0  0  0  0
  155.9340  213.5640  154.7410 C   0  0  0  0  0  1  0  0  0  0  0  0
  158.1010  210.5410  154.5060 O   0  0  0  0  0  0  0  0  0  0  0  0
  159.6400  212.2820  155.2470 C   0  0  2  0  0  0  0  0  0  0  0  0
  160.3820  212.6910  156.5190 C   0  0  0  0  0  1  0  0  0  0  0  0
  156.9030  211.2370  154.7840 C   0  0  2  0  0  3  0  0  0  0  0  0
  160.6740  212.2910  154.1070 C   0  0  0  0  0  2  0  0  0  0  0  0
  158.4690  213.3020  154.9130 C   0  0  1  0  0  0  0  0  0  0  0  0
  158.6700  212.7350  152.6270 C   0  0  1  0  0  3  0  0  0  0  0  0
  157.0820  212.6980  155.2380 C   0  0  1  0  0  3  0  0  0  0  0  0
  160.0050  212.0200  152.7660 C   0  0  1  0  0  0  0  0  0  0  0  0
  158.5950  214.4360  155.7250 O   0  0  0  0  0  1  0  0  0  0  0  0
  158.5160  213.7750  153.5690 O   0  0  0  0  0  0  0  0  0  0  0  0
  159.9590  210.6990  152.3130 O   0  0  0  0  0  1  0  0  0  0  0  0
  159.0720  210.8470  155.4810 C   0  0  2  0  0  3  0  0  0  0  0  0
  160.1600  209.7460  155.5460 C   0  0  1  0  0  3  0  0  0  0  0  0
  160.1090  208.0650  156.9920 C   0  0  0  0  0  1  0  0  0  0  0  0
  159.5770  208.4960  155.7740 O   0  0  0  0  0  0  0  0  0  0  0  0
  161.0750  209.6710  154.3120 C   0  0  1  0  0  3  0  0  0  0  0  0
  162.4270  210.3360  154.5580 C   0  0  0  0  0  2  0  0  0  0  0  0
  162.6090  210.6510  156.0290 C   0  0  0  0  0  2  0  0  0  0  0  0
  164.3440  210.9750  156.3680 S   0  0  0  0  0  3  0  0  0  0  0  0
  164.3100  212.4250  157.2600 O   0  0  0  0  0  1  0  0  0  0  0  0
  164.9070  211.4070  155.0170 O   0  0  0  0  0  1  0  0  0  0  0  0
  161.2390  208.3450  153.9000 O   0  0  0  0  0  0  0  0  0  0  0  0
  160.5770  207.1520  151.9580 C   0  0  0  0  0  2  0  0  0  0  0  0
  161.2440  208.3950  152.5050 C   0  0  2  0  0  3  0  0  0  0  0  0
  162.0880  207.2540  151.9660 C   0  0  2  0  0  3  0  0  0  0  0  0
  162.5710  207.6210  150.5800 C   0  0  0  0  0  2  0  0  0  0  0  0
  161.8890  206.5740  148.4420 C   0  0  0  0  0  1  0  0  0  0  0  0
  161.4360  207.4610  149.5880 C   0  0  0  0  0  2  0  0  0  0  0  0
  155.9790  210.4430  155.7070 C   0  0  0  0  0  2  0  0  0  0  0  0
  154.2790  210.4560  157.1110 C   0  0  0  0  0  1  0  0  0  0  0  0
  154.9230  211.2410  156.1540 O   0  0  0  0  0  0  0  0  0  0  0  0
  159.6300  212.5410  150.4320 O   0  0  0  0  0  0  0  0  0  0  0  0
  161.4950  211.3710  149.7970 O   0  0  0  0  0  0  0  0  0  0  0  0
  160.6730  212.2910  149.5350 C   0  0  0  0  0  0  0  0  0  0  0  0
  160.8150  213.0730  148.2620 C   0  0  1  0  0  3  0  0  0  0  0  0
  160.1320  214.2840  148.3660 O   0  0  0  0  0  1  0  0  0  0  0  0
  162.2780  213.3420  147.9540 C   0  0  0  0  0  2  0  0  0  0  0  0
  162.5400  213.1180  146.4730 C   0  0  1  0  0  3  0  0  0  0  0  0
  161.3520  213.4900  145.6030 C   0  0  1  0  0  0  0  0  0  0  0  0
  160.1860  213.9110  146.2430 O   0  0  0  0  0  1  0  0  0  0  0  0
  162.5010  214.4520  145.7330 C   0  0  0  0  0  2  0  0  0  0  0  0
  161.2340  212.7870  144.2640 C   0  0  0  0  0  2  0  0  0  0  0  0
  159.9490  212.9800  143.7400 O   0  0  0  0  0  0  0  0  0  0  0  0
  160.0920  212.7970  142.3620 C   0  0  1  0  0  3  0  0  0  0  0  0
  159.4420  213.8300  141.6870 O   0  0  0  0  0  0  0  0  0  0  0  0
  158.2390  213.2730  141.2500 C   0  0  0  0  0  2  0  0  0  0  0  0
  157.9350  213.7660  139.8480 C   0  0  0  0  0  2  0  0  0  0  0  0
  157.0450  212.7780  139.1210 C   0  0  0  0  0  2  0  0  0  0  0  0
  157.5460  211.4290  139.3070 N   0  0  0  0  0  1  0  0  0  0  0  0
  161.5700  212.8100  141.9890 C   0  0  0  0  0  2  0  0  0  0  0  0
  162.9910  212.2820  139.9910 C   0  0  0  0  0  3  0  0  0  0  0  0
  163.2080  211.5960  138.7920 C   0  0  0  0  0  0  0  0  0  0  0  0
  164.3990  211.8210  138.0510 N   0  0  0  0  0  1  0  0  0  0  0  0
  161.8170  212.0650  140.7210 C   0  0  0  0  0  0  0  0  0  0  0  0
  162.2520  210.6920  138.3210 C   0  0  0  0  0  3  0  0  0  0  0  0
  161.0780  210.4740  139.0480 C   0  0  0  0  0  3  0  0  0  0  0  0
  160.8600  211.1610  140.2460 C   0  0  0  0  0  3  0  0  0  0  0  0
  1 35  1  6  0  0  0
  1  9  1  0  0  0  0
  1 11  1  0  0  0  0
  3  6  1  0  0  0  0
  3 15  1  0  0  0  0
  4 15  1  0  0  0  0
  4  5  1  1  0  0  0
  6 10  1  0  0  0  0
  6 32  1  1  0  0  0
  7  4  1  0  0  0  0
  8 10  1  0  0  0  0
  8  4  1  0  0  0  0
  8 12  1  1  0  0  0
  9 11  1  0  0  0  0
  9 13  1  1  0  0  0
 10  2  1  6  0  0  0
 11 14  1  6  0  0  0
 11  7  1  0  0  0  0
 13  8  1  0  0  0  0
 15 16  1  6  0  0  0
 16 18  1  6  0  0  0
 18 17  1  0  0  0  0
 19 20  1  1  0  0  0
 19 16  1  0  0  0  0
 20 21  1  0  0  0  0
 21 22  1  0  0  0  0
 22 23  1  0  0  0  0
 24 22  1  0  0  0  0
 25 19  1  0  0  0  0
 26 28  1  0  0  0  0
 26 27  1  0  0  0  0
 27 25  1  1  0  0  0
 28 29  1  6  0  0  0
 28 27  1  0  0  0  0
 30 31  1  0  0  0  0
 31 29  1  0  0  0  0
 32 34  1  0  0  0  0
 34 33  1  0  0  0  0
 37 36  2  0  0  0  0
 37 35  1  0  0  0  0
 38 39  1  1  0  0  0
 38 37  1  0  0  0  0
 40 38  1  0  0  0  0
 41 40  1  1  0  0  0
 42 44  1  0  0  0  0
 42 43  1  1  0  0  0
 42 41  1  0  0  0  0
 44 41  1  0  0  0  0
 45 42  1  0  0  0  0
 46 45  1  0  0  0  0
 47 53  1  1  0  0  0
 47 46  1  0  0  0  0
 48 47  1  0  0  0  0
 49 48  1  0  0  0  0
 50 49  1  0  0  0  0
 51 52  1  0  0  0  0
 51 50  1  0  0  0  0
 54 57  1  0  0  0  0
 55 54  2  0  0  0  0
 56 55  1  0  0  0  0
 57 53  1  0  0  0  0
 58 55  1  0  0  0  0
 58 59  2  0  0  0  0
 59 60  1  0  0  0  0
 60 57  2  0  0  0  0
M  END
>  <MODEL>
1

>  <REMARK>
 VINA RESULT:      -3.0      0.000      0.000
  Name = 
  26 active torsions:
  status: ('A' for Active; 'I' for Inactive)
    1  A    between atoms: O_1  and  C_15
    2  A    between atoms: O_1  and  C_48
    3  A    between atoms: C_3  and  O_23
    4  A    between atoms: S_6  and  C_39
    5  A    between atoms: C_10  and  C_37
    6  A    between atoms: C_13  and  C_60
    7  A    between atoms: C_14  and  C_33
    8  A    between atoms: C_14  and  C_48
    9  A    between atoms: C_15  and  C_34
   10  A    between atoms: C_16  and  C_38
   11  A    between atoms: C_16  and  C_54
   12  A    between atoms: C_17  and  C_55
   13  A    between atoms: O_19  and  C_25
   14  A    between atoms: O_19  and  C_32
   15  A    between atoms: O_20  and  C_48
   16  A    between atoms: O_20  and  C_55
   17  A    between atoms: O_23  and  C_49
   18  A    between atoms: C_24  and  C_37
   19  A    between atoms: C_24  and  C_49
   20  A    between atoms: C_32  and  C_50
   21  A    between atoms: C_32  and  C_51
   22  A    between atoms: C_34  and  C_36
   23  A    between atoms: C_39  and  C_51
   24  A    between atoms: O_43  and  C_50
   25  A    between atoms: O_47  and  C_60
   26  A    between atoms: C_50  and  C_58
                            x       y       z     vdW  Elec       q    Type
                         _______ _______ _______ _____ _____    ______ ____

>  <TORSDO>
F 26

$$$$
=
 OpenBabel11072411563D

 60 65  0  0  1  0  0  0  0  0999 V2000
  160.0330  212.9190  151.5150 C   0  0  1  0  0  3  0  0  0  0  0  0
  156.8780  212.8680  155.3440 C   0  0  0  0  0  1  0  0  0  0  0  0
  158.7890  209.9120  154.1200 O   0  0  0  0  0  0  0  0  0  0  0  0
  160.5360  211.4710  154.8020 C   0  0  2  0  0  0  0  0  0  0  0  0
  161.5500  211.6340  155.9340 C   0  0  0  0  0  1  0  0  0  0  0  0
  157.7140  210.5610  154.7680 C   0  0  2  0  0  3  0  0  0  0  0  0
  161.3050  211.6750  153.4840 C   0  0  0  0  0  2  0  0  0  0  0  0
  159.3750  212.5490  154.9130 C   0  0  1  0  0  0  0  0  0  0  0  0
  159.0600  212.4050  152.5750 C   0  0  1  0  0  3  0  0  0  0  0  0
  158.0590  211.9130  155.4210 C   0  0  1  0  0  3  0  0  0  0  0  0
  160.3550  211.6600  152.2940 C   0  0  1  0  0  0  0  0  0  0  0  0
  159.7260  213.5150  155.8640 O   0  0  0  0  0  1  0  0  0  0  0  0
  159.1610  213.2580  153.6950 O   0  0  0  0  0  0  0  0  0  0  0  0
  160.1480  210.4450  151.6380 O   0  0  0  0  0  1  0  0  0  0  0  0
  159.9590  210.0250  154.8990 C   0  0  2  0  0  3  0  0  0  0  0  0
  160.9790  208.9180  154.5330 C   0  0  1  0  0  3  0  0  0  0  0  0
  162.2360  209.1460  156.3450 C   0  0  0  0  0  1  0  0  0  0  0  0
  161.4010  208.2430  155.6830 O   0  0  0  0  0  0  0  0  0  0  0  0
  160.4800  207.9010  153.4920 C   0  0  1  0  0  3  0  0  0  0  0  0
  160.5810  208.4390  152.0680 C   0  0  0  0  0  2  0  0  0  0  0  0
  162.0170  208.4090  151.5850 C   0  0  0  0  0  2  0  0  0  0  0  0
  162.0560  208.0240  149.8290 S   0  0  0  0  0  3  0  0  0  0  0  0
  163.3830  206.9660  149.6840 O   0  0  0  0  0  1  0  0  0  0  0  0
  162.5610  209.3110  149.1830 O   0  0  0  0  0  1  0  0  0  0  0  0
  161.1690  206.6900  153.6180 O   0  0  0  0  0  0  0  0  0  0  0  0
  160.6800  204.4970  152.8530 C   0  0  0  0  0  2  0  0  0  0  0  0
  160.8250  205.9560  152.4810 C   0  0  2  0  0  3  0  0  0  0  0  0
  161.9390  204.9770  152.1620 C   0  0  2  0  0  3  0  0  0  0  0  0
  161.8680  204.6220  150.6930 C   0  0  0  0  0  2  0  0  0  0  0  0
  161.3210  202.4490  149.6410 C   0  0  0  0  0  1  0  0  0  0  0  0
  160.7740  203.5960  150.4700 C   0  0  0  0  0  2  0  0  0  0  0  0
  156.9660  209.6240  155.7160 C   0  0  0  0  0  2  0  0  0  0  0  0
  154.8230  209.8910  156.1600 C   0  0  0  0  0  1  0  0  0  0  0  0
  156.0900  210.3420  156.5330 O   0  0  0  0  0  0  0  0  0  0  0  0
  159.5230  212.6010  150.2250 O   0  0  0  0  0  0  0  0  0  0  0  0
  161.2700  211.5630  149.1660 O   0  0  0  0  0  0  0  0  0  0  0  0
  160.3480  212.4220  149.1110 C   0  0  0  0  0  0  0  0  0  0  0  0
  160.1410  213.2080  147.8490 C   0  0  1  0  0  3  0  0  0  0  0  0
  159.5400  214.4320  148.1420 O   0  0  0  0  0  1  0  0  0  0  0  0
  161.4630  213.4500  147.1400 C   0  0  0  0  0  2  0  0  0  0  0  0
  161.4110  212.8550  145.7420 C   0  0  1  0  0  3  0  0  0  0  0  0
  160.0260  212.9230  145.1240 C   0  0  1  0  0  0  0  0  0  0  0  0
  158.9920  213.4400  145.9050 O   0  0  0  0  0  1  0  0  0  0  0  0
  161.0610  213.9410  144.7290 C   0  0  0  0  0  2  0  0  0  0  0  0
  159.6920  211.8850  144.0700 C   0  0  0  0  0  2  0  0  0  0  0  0
  158.6500  212.3530  143.2590 O   0  0  0  0  0  0  0  0  0  0  0  0
  159.2760  212.7950  142.0890 C   0  0  1  0  0  3  0  0  0  0  0  0
  159.0340  214.1580  141.9200 O   0  0  0  0  0  0  0  0  0  0  0  0
  159.2410  214.3930  140.5600 C   0  0  0  0  0  2  0  0  0  0  0  0
  158.1750  213.6720  139.7560 C   0  0  0  0  0  2  0  0  0  0  0  0
  158.6380  213.4660  138.3270 C   0  0  0  0  0  2  0  0  0  0  0  0
  157.9870  214.4240  137.4530 N   0  0  0  0  0  1  0  0  0  0  0  0
  160.7790  212.5630  142.1880 C   0  0  0  0  0  2  0  0  0  0  0  0
  160.6210  210.7220  140.4920 C   0  0  0  0  0  3  0  0  0  0  0  0
  161.1230  210.0370  139.3820 C   0  0  0  0  0  0  0  0  0  0  0  0
  160.4360  208.8990  138.8800 N   0  0  0  0  0  1  0  0  0  0  0  0
  161.2970  211.8410  140.9900 C   0  0  0  0  0  0  0  0  0  0  0  0
  162.3010  210.4700  138.7670 C   0  0  0  0  0  3  0  0  0  0  0  0
  162.9790  211.5860  139.2630 C   0  0  0  0  0  3  0  0  0  0  0  0
  162.4780  212.2710  140.3750 C   0  0  0  0  0  3  0  0  0  0  0  0
  1 35  1  6  0  0  0
  1 11  1  0  0  0  0
  1  9  1  0  0  0  0
  3  6  1  0  0  0  0
  3 15  1  0  0  0  0
  4 15  1  0  0  0  0
  4  8  1  0  0  0  0
  4  5  1  1  0  0  0
  6 10  1  0  0  0  0
  6 32  1  1  0  0  0
  7  4  1  0  0  0  0
  8 10  1  0  0  0  0
  8 12  1  1  0  0  0
  9 13  1  1  0  0  0
 10  2  1  6  0  0  0
 11 14  1  6  0  0  0
 11  9  1  0  0  0  0
 11  7  1  0  0  0  0
 13  8  1  0  0  0  0
 15 16  1  6  0  0  0
 16 18  1  1  0  0  0
 18 17  1  0  0  0  0
 19 20  1  6  0  0  0
 19 25  1  0  0  0  0
 19 16  1  0  0  0  0
 21 20  1  0  0  0  0
 22 21  1  0  0  0  0
 23 22  1  0  0  0  0
 24 22  1  0  0  0  0
 27 26  1  0  0  0  0
 27 25  1  1  0  0  0
 28 29  1  6  0  0  0
 28 27  1  0  0  0  0
 28 26  1  0  0  0  0
 30 31  1  0  0  0  0
 31 29  1  0  0  0  0
 32 34  1  0  0  0  0
 33 34  1  0  0  0  0
 37 36  2  0  0  0  0
 37 35  1  0  0  0  0
 38 39  1  1  0  0  0
 38 37  1  0  0  0  0
 40 38  1  0  0  0  0
 41 40  1  1  0  0  0
 42 41  1  0  0  0  0
 42 43  1  1  0  0  0
 44 42  1  0  0  0  0
 44 41  1  0  0  0  0
 45 42  1  0  0  0  0
 46 45  1  0  0  0  0
 47 53  1  1  0  0  0
 47 46  1  0  0  0  0
 48 47  1  0  0  0  0
 49 48  1  0  0  0  0
 50 49  1  0  0  0  0
 51 50  1  0  0  0  0
 52 51  1  0  0  0  0
 54 57  1  0  0  0  0
 55 54  2  0  0  0  0
 56 55  1  0  0  0  0
 57 53  1  0  0  0  0
 58 59  2  0  0  0  0
 58 55  1  0  0  0  0
 59 60  1  0  0  0  0
 60 57  2  0  0  0  0
M  END
>  <MODEL>
2

>  <REMARK>
 VINA RESULT:      -1.2      1.935      2.653
  Name = 
  26 active torsions:
  status: ('A' for Active; 'I' for Inactive)
    1  A    between atoms: O_1  and  C_15
    2  A    between atoms: O_1  and  C_48
    3  A    between atoms: C_3  and  O_23
    4  A    between atoms: S_6  and  C_39
    5  A    between atoms: C_10  and  C_37
    6  A    between atoms: C_13  and  C_60
    7  A    between atoms: C_14  and  C_33
    8  A    between atoms: C_14  and  C_48
    9  A    between atoms: C_15  and  C_34
   10  A    between atoms: C_16  and  C_38
   11  A    between atoms: C_16  and  C_54
   12  A    between atoms: C_17  and  C_55
   13  A    between atoms: O_19  and  C_25
   14  A    between atoms: O_19  and  C_32
   15  A    between atoms: O_20  and  C_48
   16  A    between atoms: O_20  and  C_55
   17  A    between atoms: O_23  and  C_49
   18  A    between atoms: C_24  and  C_37
   19  A    between atoms: C_24  and  C_49
   20  A    between atoms: C_32  and  C_50
   21  A    between atoms: C_32  and  C_51
   22  A    between atoms: C_34  and  C_36
   23  A    between atoms: C_39  and  C_51
   24  A    between atoms: O_43  and  C_50
   25  A    between atoms: O_47  and  C_60
   26  A    between atoms: C_50  and  C_58
                            x       y       z     vdW  Elec       q    Type
                         _______ _______ _______ _____ _____    ______ ____

>  <TORSDO>
F 26

$$$$
=
 OpenBabel11072411563D

 60 65  0  0  1  0  0  0  0  0999 V2000
  161.7000  210.3110  148.4810 C   0  0  1  0  0  3  0  0  0  0  0  0
  160.9740  207.4630  152.4780 C   0  0  0  0  0  1  0  0  0  0  0  0
  160.4400  206.3670  148.9560 O   0  0  0  0  0  0  0  0  0  0  0  0
  162.8180  206.9040  149.0260 C   0  0  2  0  0  0  0  0  0  0  0  0
  164.1590  206.1720  149.0300 C   0  0  0  0  0  1  0  0  0  0  0  0
  160.2290  206.3300  150.3530 C   0  0  2  0  0  3  0  0  0  0  0  0
  162.9190  208.0120  147.9610 C   0  0  0  0  0  2  0  0  0  0  0  0
  162.5150  207.5550  150.4430 C   0  0  1  0  0  0  0  0  0  0  0  0
  161.1800  209.1860  149.3740 C   0  0  1  0  0  3  0  0  0  0  0  0
  161.4340  206.7570  151.2120 C   0  0  1  0  0  3  0  0  0  0  0  0
  161.6720  208.8860  147.9680 C   0  0  1  0  0  0  0  0  0  0  0  0
  163.6680  207.5010  151.2360 O   0  0  0  0  0  1  0  0  0  0  0  0
  162.1640  208.9330  150.3550 O   0  0  0  0  0  0  0  0  0  0  0  0
  160.6360  208.5530  147.0920 O   0  0  0  0  0  1  0  0  0  0  0  0
  161.7200  205.8610  148.6500 C   0  0  2  0  0  3  0  0  0  0  0  0
  161.7900  205.3810  147.1790 C   0  0  1  0  0  3  0  0  0  0  0  0
  162.8690  205.4200  145.2420 C   0  0  0  0  0  1  0  0  0  0  0  0
  162.9650  205.8350  146.5720 O   0  0  0  0  0  0  0  0  0  0  0  0
  161.6680  203.8590  146.9920 C   0  0  1  0  0  3  0  0  0  0  0  0
  161.7970  203.1060  148.3130 C   0  0  0  0  0  2  0  0  0  0  0  0
  160.4410  202.6260  148.7900 C   0  0  0  0  0  2  0  0  0  0  0  0
  160.5680  200.9260  149.3600 S   0  0  0  0  0  3  0  0  0  0  0  0
  159.0400  200.6230  150.0480 O   0  0  0  0  0  1  0  0  0  0  0  0
  161.4880  201.0130  150.5740 O   0  0  0  0  0  1  0  0  0  0  0  0
  160.4690  203.5370  146.3490 O   0  0  0  0  0  0  0  0  0  0  0  0
  159.6110  202.3370  144.4900 C   0  0  0  0  0  2  0  0  0  0  0  0
  160.8280  202.6500  145.3320 C   0  0  2  0  0  3  0  0  0  0  0  0
  160.0880  201.3400  145.5250 C   0  0  2  0  0  3  0  0  0  0  0  0
  160.8640  200.2380  144.8370 C   0  0  0  0  0  2  0  0  0  0  0  0
  161.7560  199.4210  146.9980 C   0  0  0  0  0  1  0  0  0  0  0  0
  160.9680  199.0390  145.7580 C   0  0  0  0  0  2  0  0  0  0  0  0
  159.6240  205.0020  150.8070 C   0  0  0  0  0  2  0  0  0  0  0  0
  160.4960  203.8120  152.4450 C   0  0  0  0  0  1  0  0  0  0  0  0
  160.6280  204.0690  151.0800 O   0  0  0  0  0  0  0  0  0  0  0  0
  160.5940  211.0530  147.9790 O   0  0  0  0  0  0  0  0  0  0  0  0
  160.5940  212.9250  146.6580 O   0  0  0  0  0  0  0  0  0  0  0  0
  160.6260  212.4420  147.8220 C   0  0  0  0  0  0  0  0  0  0  0  0
  160.6680  213.3620  149.0070 C   0  0  1  0  0  3  0  0  0  0  0  0
  161.4930  214.4530  148.7360 O   0  0  0  0  0  1  0  0  0  0  0  0
  159.2750  213.8560  149.3570 C   0  0  0  0  0  2  0  0  0  0  0  0
  158.7060  213.0240  150.4950 C   0  0  1  0  0  3  0  0  0  0  0  0
  159.2900  213.3980  151.8460 C   0  0  1  0  0  0  0  0  0  0  0  0
  160.2880  214.3720  151.8740 O   0  0  0  0  0  1  0  0  0  0  0  0
  157.9350  213.9230  151.4580 C   0  0  0  0  0  2  0  0  0  0  0  0
  159.2950  212.3220  152.9140 C   0  0  0  0  0  2  0  0  0  0  0  0
  160.4830  212.3940  153.6530 O   0  0  0  0  0  0  0  0  0  0  0  0
  160.1280  211.9940  154.9440 C   0  0  1  0  0  3  0  0  0  0  0  0
  161.2590  211.5220  155.6120 O   0  0  0  0  0  0  0  0  0  0  0  0
  160.8200  210.3980  156.3110 C   0  0  0  0  0  2  0  0  0  0  0  0
  160.1780  209.4220  155.3430 C   0  0  0  0  0  2  0  0  0  0  0  0
  160.4330  207.9930  155.7840 C   0  0  0  0  0  2  0  0  0  0  0  0
  159.7340  207.7270  157.0280 N   0  0  0  0  0  1  0  0  0  0  0  0
  159.5520  213.1770  155.7130 C   0  0  0  0  0  2  0  0  0  0  0  0
  157.4260  211.8510  155.6220 C   0  0  0  0  0  3  0  0  0  0  0  0
  156.0340  211.7640  155.7220 C   0  0  0  0  0  0  0  0  0  0  0  0
  155.3820  210.5220  155.4970 N   0  0  0  0  0  1  0  0  0  0  0  0
  158.0700  213.0740  155.8400 C   0  0  0  0  0  0  0  0  0  0  0  0
  155.2840  212.9000  156.0420 C   0  0  0  0  0  3  0  0  0  0  0  0
  155.9250  214.1230  156.2590 C   0  0  0  0  0  3  0  0  0  0  0  0
  157.3170  214.2100  156.1570 C   0  0  0  0  0  3  0  0  0  0  0  0
  1 35  1  6  0  0  0
  1  9  1  0  0  0  0
  3  6  1  0  0  0  0
  4  5  1  1  0  0  0
  4  8  1  0  0  0  0
  6 32  1  1  0  0  0
  6 10  1  0  0  0  0
  7 11  1  0  0  0  0
  7  4  1  0  0  0  0
  8 10  1  0  0  0  0
  8 12  1  1  0  0  0
  9 13  1  1  0  0  0
 10  2  1  1  0  0  0
 11 14  1  6  0  0  0
 11  1  1  0  0  0  0
 11  9  1  0  0  0  0
 13  8  1  0  0  0  0
 15 16  1  6  0  0  0
 15  3  1  0  0  0  0
 15  4  1  0  0  0  0
 16 18  1  1  0  0  0
 17 18  1  0  0  0  0
 19 16  1  0  0  0  0
 19 20  1  1  0  0  0
 20 21  1  0  0  0  0
 21 22  1  0  0  0  0
 22 23  1  0  0  0  0
 22 24  1  0  0  0  0
 25 19  1  0  0  0  0
 26 27  1  0  0  0  0
 26 28  1  0  0  0  0
 27 28  1  0  0  0  0
 27 25  1  1  0  0  0
 28 29  1  6  0  0  0
 29 31  1  0  0  0  0
 31 30  1  0  0  0  0
 32 34  1  0  0  0  0
 34 33  1  0  0  0  0
 36 37  2  0  0  0  0
 37 35  1  0  0  0  0
 37 38  1  0  0  0  0
 38 39  1  6  0  0  0
 38 40  1  0  0  0  0
 41 40  1  6  0  0  0
 41 44  1  0  0  0  0
 41 42  1  0  0  0  0
 42 43  1  1  0  0  0
 42 45  1  0  0  0  0
 44 42  1  0  0  0  0
 45 46  1  0  0  0  0
 46 47  1  0  0  0  0
 47 48  1  0  0  0  0
 47 53  1  1  0  0  0
 48 49  1  0  0  0  0
 50 51  1  0  0  0  0
 50 49  1  0  0  0  0
 51 52  1  0  0  0  0
 53 57  1  0  0  0  0
 54 55  2  0  0  0  0
 54 57  1  0  0  0  0
 55 58  1  0  0  0  0
 56 55  1  0  0  0  0
 57 60  2  0  0  0  0
 58 59  2  0  0  0  0
 60 59  1  0  0  0  0
M  END
>  <MODEL>
3

>  <REMARK>
 VINA RESULT:      -1.0      5.403     10.969
  Name = 
  26 active torsions:
  status: ('A' for Active; 'I' for Inactive)
    1  A    between atoms: O_1  and  C_15
    2  A    between atoms: O_1  and  C_48
    3  A    between atoms: C_3  and  O_23
    4  A    between atoms: S_6  and  C_39
    5  A    between atoms: C_10  and  C_37
    6  A    between atoms: C_13  and  C_60
    7  A    between atoms: C_14  and  C_33
    8  A    between atoms: C_14  and  C_48
    9  A    between atoms: C_15  and  C_34
   10  A    between atoms: C_16  and  C_38
   11  A    between atoms: C_16  and  C_54
   12  A    between atoms: C_17  and  C_55
   13  A    between atoms: O_19  and  C_25
   14  A    between atoms: O_19  and  C_32
   15  A    between atoms: O_20  and  C_48
   16  A    between atoms: O_20  and  C_55
   17  A    between atoms: O_23  and  C_49
   18  A    between atoms: C_24  and  C_37
   19  A    between atoms: C_24  and  C_49
   20  A    between atoms: C_32  and  C_50
   21  A    between atoms: C_32  and  C_51
   22  A    between atoms: C_34  and  C_36
   23  A    between atoms: C_39  and  C_51
   24  A    between atoms: O_43  and  C_50
   25  A    between atoms: O_47  and  C_60
   26  A    between atoms: C_50  and  C_58
                            x       y       z     vdW  Elec       q    Type
                         _______ _______ _______ _____ _____    ______ ____

>  <TORSDO>
F 26

$$$$
