=
 OpenBabel11072415123D

 39 44  0  0  1  0  0  0  0  0999 V2000
  160.9710  208.2360  151.7640 C   0  0  1  0  0  3  0  0  0  0  0  0
  160.8670  203.4770  148.8050 N   0  0  0  0  0  2  0  0  0  0  0  0
  162.3600  207.7600  149.7310 C   0  0  0  0  0  2  0  0  0  0  0  0
  161.8700  204.5620  151.6980 C   0  0  0  0  0  2  0  0  0  0  0  0
  161.5390  201.1610  149.0360 C   0  0  0  0  0  3  0  0  0  0  0  0
  160.6530  205.9010  149.3920 C   0  0  1  0  0  3  0  0  0  0  0  0
  161.0880  202.2990  149.5580 C   0  0  0  0  0  0  0  0  0  0  0  0
  160.2550  204.4480  149.6930 C   0  0  2  0  0  3  0  0  0  0  0  0
  162.0460  205.9960  151.4500 N   0  0  1  0  0  0  0  0  0  0  0  0
  162.0110  206.2830  150.0040 C   0  0  2  0  0  3  0  0  0  0  0  0
  160.7640  202.4640  150.9940 C   0  0  0  0  0  2  0  0  0  0  0  0
  160.5670  203.9720  151.1240 C   0  0  1  0  0  0  0  0  0  0  0  0
  162.2010  208.6510  150.9640 C   0  0  0  0  0  2  0  0  0  0  0  0
  161.0520  206.7690  152.2140 C   0  0  0  0  0  2  0  0  0  0  0  0
  159.4920  204.2400  151.9700 O   0  0  0  0  0  1  0  0  0  0  0  0
  160.7530  209.1400  152.9360 C   0  0  0  0  0  0  0  0  0  0  0  0
  160.3670  210.4860  152.7670 C   0  0  0  0  0  3  0  0  0  0  0  0
  161.3040  207.4620  154.7530 C   0  0  0  0  0  3  0  0  0  0  0  0
  160.3850  210.8410  155.1880 C   0  0  0  0  0  3  0  0  0  0  0  0
  161.3320  207.5920  156.1050 N   0  0  0  0  0  2  0  0  0  0  0  0
  160.1850  211.3380  153.8840 C   0  0  0  0  0  0  0  0  0  0  0  0
  160.9380  208.6900  154.2440 C   0  0  0  0  0  0  0  0  0  0  0  0
  160.7620  209.5060  155.3210 C   0  0  0  0  0  0  0  0  0  0  0  0
  161.0040  208.8330  156.4540 N   0  0  0  0  0  0  0  0  0  0  0  0
  159.8210  212.7130  153.7110 N   0  0  0  0  0  2  0  0  0  0  0  0
  158.4470  213.1750  153.5400 C   0  0  2  0  0  3  0  0  0  0  0  0
  156.7100  211.6100  154.4980 C   0  0  0  0  0  3  0  0  0  0  0  0
  157.5800  212.6990  154.6670 C   0  0  0  0  0  0  0  0  0  0  0  0
  155.9220  211.1670  155.5670 C   0  0  0  0  0  3  0  0  0  0  0  0
  156.0010  211.8100  156.8060 C   0  0  0  0  0  3  0  0  0  0  0  0
  157.6540  213.3400  155.9080 C   0  0  0  0  0  3  0  0  0  0  0  0
  156.8680  212.8970  156.9770 C   0  0  0  0  0  3  0  0  0  0  0  0
  158.5220  213.5380  151.3560 C   0  0  0  0  0  1  0  0  0  0  0  0
  157.9470  212.7100  152.3210 O   0  0  0  0  0  0  0  0  0  0  0  0
  160.4750  206.2860  147.9170 C   0  0  0  0  0  2  0  0  0  0  0  0
  161.7020  205.9770  147.0750 C   0  0  0  0  0  1  0  0  0  0  0  0
  161.8430  200.9990  147.5830 C   0  0  0  0  0  2  0  0  0  0  0  0
  160.5940  201.2080  146.7390 C   0  0  0  0  0  2  0  0  0  0  0  0
  160.8580  202.1040  145.6980 O   0  0  0  0  0  1  0  0  0  0  0  0
  1 14  1  0  0  0  0
  1 16  1  1  0  0  0
  2  7  1  0  0  0  0
  3 13  1  0  0  0  0
  5  7  2  0  0  0  0
  6 35  1  6  0  0  0
  6  8  1  0  0  0  0
  6 10  1  0  0  0  0
  7 11  1  0  0  0  0
  8  2  1  6  0  0  0
  8 12  1  0  0  0  0
  9  4  1  6  0  0  0
  9 14  1  0  0  0  0
 10  3  1  1  0  0  0
 10  9  1  0  0  0  0
 11 12  1  0  0  0  0
 12  4  1  0  0  0  0
 12 15  1  1  0  0  0
 13  1  1  0  0  0  0
 16 22  1  0  0  0  0
 17 16  2  0  0  0  0
 17 21  1  0  0  0  0
 18 20  1  0  0  0  0
 19 23  1  0  0  0  0
 20 24  1  0  0  0  0
 21 19  2  0  0  0  0
 22 18  2  0  0  0  0
 22 23  1  0  0  0  0
 23 24  2  0  0  0  0
 25 21  1  0  0  0  0
 26 34  1  6  0  0  0
 26 25  1  0  0  0  0
 26 28  1  0  0  0  0
 27 28  2  0  0  0  0
 27 29  1  0  0  0  0
 28 31  1  0  0  0  0
 29 30  2  0  0  0  0
 30 32  1  0  0  0  0
 31 32  2  0  0  0  0
 33 34  1  0  0  0  0
 36 35  1  0  0  0  0
 37  5  1  0  0  0  0
 38 37  1  0  0  0  0
 39 38  1  0  0  0  0
M  END
>  <MODEL>
1

>  <REMARK>
 VINA RESULT:      -7.6      0.000      0.000
  Name = 
  8 active torsions:
  status: ('A' for Active; 'I' for Inactive)
    1  A    between atoms: C_1  and  C_3
    2  A    between atoms: C_6  and  C_13
    3  A    between atoms: C_9  and  C_18
    4  A    between atoms: C_12  and  C_22
    5  A    between atoms: C_18  and  O_21
    6  A    between atoms: C_18  and  N_23
    7  A    between atoms: C_22  and  C_28
    8  A    between atoms: N_23  and  C_29
                            x       y       z     vdW  Elec       q    Type
                         _______ _______ _______ _____ _____    ______ ____

>  <TORSDO>
F 8

$$$$
=
 OpenBabel11072415123D

 39 44  0  0  1  0  0  0  0  0999 V2000
  160.9830  208.2690  151.6250 C   0  0  1  0  0  3  0  0  0  0  0  0
  160.8890  203.4150  148.8240 N   0  0  0  0  0  2  0  0  0  0  0  0
  162.3770  207.7270  149.6120 C   0  0  0  0  0  2  0  0  0  0  0  0
  161.8850  204.5960  151.6820 C   0  0  0  0  0  2  0  0  0  0  0  0
  161.5620  201.1080  149.1330 C   0  0  0  0  0  3  0  0  0  0  0  0
  160.6720  205.8560  149.3300 C   0  0  1  0  0  3  0  0  0  0  0  0
  161.1090  202.2620  149.6160 C   0  0  0  0  0  0  0  0  0  0  0  0
  160.2740  204.4150  149.6780 C   0  0  2  0  0  3  0  0  0  0  0  0
  162.0600  206.0210  151.3870 N   0  0  1  0  0  0  0  0  0  0  0  0
  162.0280  206.2600  149.9320 C   0  0  2  0  0  3  0  0  0  0  0  0
  160.7820  202.4740  151.0450 C   0  0  0  0  0  2  0  0  0  0  0  0
  160.5830  203.9860  151.1250 C   0  0  1  0  0  0  0  0  0  0  0  0
  162.2140  208.6590  150.8150 C   0  0  0  0  0  2  0  0  0  0  0  0
  161.0640  206.8180  152.1230 C   0  0  0  0  0  2  0  0  0  0  0  0
  159.5060  204.2810  151.9590 O   0  0  0  0  0  1  0  0  0  0  0  0
  160.7610  209.2110  152.7660 C   0  0  0  0  0  0  0  0  0  0  0  0
  160.3280  210.5370  152.5540 C   0  0  0  0  0  3  0  0  0  0  0  0
  161.4070  207.6240  154.6330 C   0  0  0  0  0  3  0  0  0  0  0  0
  160.3870  210.9870  154.9580 C   0  0  0  0  0  3  0  0  0  0  0  0
  161.4610  207.8080  155.9780 N   0  0  0  0  0  2  0  0  0  0  0  0
  160.1430  211.4260  153.6410 C   0  0  0  0  0  0  0  0  0  0  0  0
  160.9900  208.8190  154.0850 C   0  0  0  0  0  0  0  0  0  0  0  0
  160.8110  209.6700  155.1340 C   0  0  0  0  0  0  0  0  0  0  0  0
  161.1000  209.0500  156.2860 N   0  0  0  0  0  0  0  0  0  0  0  0
  159.7300  212.7800  153.4240 N   0  0  0  0  0  2  0  0  0  0  0  0
  158.4670  213.1550  152.7960 C   0  0  2  0  0  3  0  0  0  0  0  0
  159.9310  213.7880  150.8360 C   0  0  0  0  0  3  0  0  0  0  0  0
  158.6640  213.4570  151.3400 C   0  0  0  0  0  0  0  0  0  0  0  0
  160.0990  214.0470  149.4710 C   0  0  0  0  0  3  0  0  0  0  0  0
  159.0020  213.9770  148.6070 C   0  0  0  0  0  3  0  0  0  0  0  0
  157.5680  213.3900  150.4720 C   0  0  0  0  0  3  0  0  0  0  0  0
  157.7360  213.6480  149.1070 C   0  0  0  0  0  3  0  0  0  0  0  0
  157.3020  213.7580  154.5810 C   0  0  0  0  0  1  0  0  0  0  0  0
  157.9360  214.2720  153.4490 O   0  0  0  0  0  0  0  0  0  0  0  0
  160.4980  206.1930  147.8440 C   0  0  0  0  0  2  0  0  0  0  0  0
  161.7250  205.8530  147.0130 C   0  0  0  0  0  1  0  0  0  0  0  0
  161.8700  200.8990  147.6860 C   0  0  0  0  0  2  0  0  0  0  0  0
  160.6270  201.0970  146.8310 C   0  0  0  0  0  2  0  0  0  0  0  0
  160.8890  202.0060  145.8010 O   0  0  0  0  0  1  0  0  0  0  0  0
  1 14  1  0  0  0  0
  1 16  1  1  0  0  0
  2  7  1  0  0  0  0
  3 13  1  0  0  0  0
  5  7  2  0  0  0  0
  6 35  1  6  0  0  0
  6  8  1  0  0  0  0
  6 10  1  0  0  0  0
  7 11  1  0  0  0  0
  8  2  1  6  0  0  0
  8 12  1  0  0  0  0
  9  4  1  6  0  0  0
  9 14  1  0  0  0  0
 10  3  1  1  0  0  0
 10  9  1  0  0  0  0
 11 12  1  0  0  0  0
 12  4  1  0  0  0  0
 12 15  1  1  0  0  0
 13  1  1  0  0  0  0
 16 22  1  0  0  0  0
 17 16  2  0  0  0  0
 17 21  1  0  0  0  0
 18 20  1  0  0  0  0
 19 23  1  0  0  0  0
 20 24  1  0  0  0  0
 21 19  2  0  0  0  0
 22 18  2  0  0  0  0
 22 23  1  0  0  0  0
 23 24  2  0  0  0  0
 25 21  1  0  0  0  0
 26 25  1  1  0  0  0
 26 34  1  0  0  0  0
 27 28  1  0  0  0  0
 28 26  1  0  0  0  0
 29 27  2  0  0  0  0
 30 32  2  0  0  0  0
 30 29  1  0  0  0  0
 31 28  2  0  0  0  0
 32 31  1  0  0  0  0
 34 33  1  0  0  0  0
 36 35  1  0  0  0  0
 37  5  1  0  0  0  0
 38 37  1  0  0  0  0
 39 38  1  0  0  0  0
M  END
>  <MODEL>
2

>  <REMARK>
 VINA RESULT:      -7.6      1.014      2.750
  Name = 
  8 active torsions:
  status: ('A' for Active; 'I' for Inactive)
    1  A    between atoms: C_1  and  C_3
    2  A    between atoms: C_6  and  C_13
    3  A    between atoms: C_9  and  C_18
    4  A    between atoms: C_12  and  C_22
    5  A    between atoms: C_18  and  O_21
    6  A    between atoms: C_18  and  N_23
    7  A    between atoms: C_22  and  C_28
    8  A    between atoms: N_23  and  C_29
                            x       y       z     vdW  Elec       q    Type
                         _______ _______ _______ _____ _____    ______ ____

>  <TORSDO>
F 8

$$$$
=
 OpenBabel11072415123D

 39 44  0  0  1  0  0  0  0  0999 V2000
  161.4760  206.6230  150.6040 C   0  0  1  0  0  3  0  0  0  0  0  0
  161.2060  202.2720  147.0830 N   0  0  0  0  0  2  0  0  0  0  0  0
  160.0810  204.5670  150.9410 C   0  0  0  0  0  2  0  0  0  0  0  0
  160.2600  205.3740  147.2470 C   0  0  0  0  0  2  0  0  0  0  0  0
  160.3300  201.7430  144.8860 C   0  0  0  0  0  3  0  0  0  0  0  0
  161.6240  203.6140  149.1530 C   0  0  1  0  0  3  0  0  0  0  0  0
  160.8720  202.6010  145.7470 C   0  0  0  0  0  0  0  0  0  0  0  0
  161.8880  203.4190  147.6530 C   0  0  2  0  0  3  0  0  0  0  0  0
  160.2140  205.6110  148.6930 N   0  0  1  0  0  0  0  0  0  0  0  0
  160.2950  204.3380  149.4320 C   0  0  2  0  0  3  0  0  0  0  0  0
  161.1880  204.0080  145.4050 C   0  0  0  0  0  2  0  0  0  0  0  0
  161.5140  204.6200  146.7650 C   0  0  1  0  0  0  0  0  0  0  0  0
  160.3000  206.0210  151.3640 C   0  0  0  0  0  2  0  0  0  0  0  0
  161.2600  206.5700  149.0840 C   0  0  0  0  0  2  0  0  0  0  0  0
  162.5960  205.4920  146.6470 O   0  0  0  0  0  1  0  0  0  0  0  0
  161.7560  208.0230  151.0530 C   0  0  0  0  0  0  0  0  0  0  0  0
  161.8140  208.3610  152.4220 C   0  0  0  0  0  2  0  0  0  0  0  0
  161.9660  209.0700  148.7550 C   0  0  0  0  0  3  0  0  0  0  0  0
  162.2510  210.7030  151.8700 C   0  0  0  0  0  3  0  0  0  0  0  0
  162.2060  210.3540  148.3810 N   0  0  0  0  0  0  0  0  0  0  0  0
  162.0570  209.6930  152.8340 C   0  0  0  0  0  0  0  0  0  0  0  0
  161.9550  209.0530  150.1340 C   0  0  0  0  0  0  0  0  0  0  0  0
  162.1910  210.3370  150.5270 C   0  0  0  0  0  0  0  0  0  0  0  0
  162.3430  211.1270  149.4550 N   0  0  0  0  0  0  0  0  0  0  0  0
  162.0880  210.0410  154.2230 N   0  0  0  0  0  2  0  0  0  0  0  0
  160.9320  209.9540  155.1100 C   0  0  2  0  0  3  0  0  0  0  0  0
  159.0130  211.0790  153.9100 C   0  0  0  0  0  3  0  0  0  0  0  0
  160.0090  211.1170  154.8990 C   0  0  0  0  0  0  0  0  0  0  0  0
  158.1480  212.1670  153.7410 C   0  0  0  0  0  3  0  0  0  0  0  0
  158.2760  213.2930  154.5590 C   0  0  0  0  0  3  0  0  0  0  0  0
  160.1340  212.2480  155.7130 C   0  0  0  0  0  3  0  0  0  0  0  0
  159.2690  213.3350  155.5450 C   0  0  0  0  0  3  0  0  0  0  0  0
  161.9560  208.6670  156.5930 C   0  0  0  0  0  1  0  0  0  0  0  0
  161.3650  209.9220  156.4390 O   0  0  0  0  0  0  0  0  0  0  0  0
  161.8560  202.3440  149.9820 C   0  0  0  0  0  2  0  0  0  0  0  0
  160.7190  201.3430  149.8580 C   0  0  0  0  0  1  0  0  0  0  0  0
  160.0350  200.3220  145.2350 C   0  0  0  0  0  2  0  0  0  0  0  0
  161.2580  199.6420  145.8330 C   0  0  0  0  0  2  0  0  0  0  0  0
  161.3510  198.3240  145.3760 O   0  0  0  0  0  1  0  0  0  0  0  0
  1 16  1  1  0  0  0
  1 13  1  0  0  0  0
  3 13  1  0  0  0  0
  5 37  1  0  0  0  0
  5  7  2  0  0  0  0
  6 10  1  0  0  0  0
  6 35  1  1  0  0  0
  7  2  1  0  0  0  0
  8  2  1  6  0  0  0
  8  6  1  0  0  0  0
  9  4  1  6  0  0  0
  9 14  1  0  0  0  0
  9 10  1  0  0  0  0
 10  3  1  1  0  0  0
 11  7  1  0  0  0  0
 11 12  1  0  0  0  0
 12 15  1  6  0  0  0
 12  4  1  0  0  0  0
 12  8  1  0  0  0  0
 14  1  1  0  0  0  0
 16 17  1  0  0  0  0
 17 21  1  0  0  0  0
 18 22  1  0  0  0  0
 19 21  2  0  0  0  0
 20 18  2  0  0  0  0
 20 24  1  0  0  0  0
 21 25  1  0  0  0  0
 22 23  1  0  0  0  0
 22 16  2  0  0  0  0
 23 19  1  0  0  0  0
 24 23  2  0  0  0  0
 26 25  1  6  0  0  0
 26 34  1  0  0  0  0
 27 28  1  0  0  0  0
 28 26  1  0  0  0  0
 28 31  2  0  0  0  0
 29 27  2  0  0  0  0
 29 30  1  0  0  0  0
 30 32  2  0  0  0  0
 32 31  1  0  0  0  0
 34 33  1  0  0  0  0
 36 35  1  0  0  0  0
 37 38  1  0  0  0  0
 39 38  1  0  0  0  0
M  END
>  <MODEL>
3

>  <REMARK>
 VINA RESULT:      -5.6      2.394      4.332
  Name = 
  8 active torsions:
  status: ('A' for Active; 'I' for Inactive)
    1  A    between atoms: C_1  and  C_3
    2  A    between atoms: C_6  and  C_13
    3  A    between atoms: C_9  and  C_18
    4  A    between atoms: C_12  and  C_22
    5  A    between atoms: C_18  and  O_21
    6  A    between atoms: C_18  and  N_23
    7  A    between atoms: C_22  and  C_28
    8  A    between atoms: N_23  and  C_29
                            x       y       z     vdW  Elec       q    Type
                         _______ _______ _______ _____ _____    ______ ____

>  <TORSDO>
F 8

$$$$
=
 OpenBabel11072415123D

 39 44  0  0  1  0  0  0  0  0999 V2000
  161.5290  206.8270  150.5770 C   0  0  1  0  0  3  0  0  0  0  0  0
  161.2360  202.2880  147.3030 N   0  0  0  0  0  2  0  0  0  0  0  0
  160.0670  204.8320  150.9890 C   0  0  0  0  0  2  0  0  0  0  0  0
  160.3740  205.4190  147.2610 C   0  0  0  0  0  2  0  0  0  0  0  0
  160.4090  201.6560  145.1150 C   0  0  0  0  0  3  0  0  0  0  0  0
  161.6320  203.7360  149.3050 C   0  0  1  0  0  3  0  0  0  0  0  0
  160.9500  202.5480  145.9420 C   0  0  0  0  0  0  0  0  0  0  0  0
  161.9340  203.4470  147.8270 C   0  0  2  0  0  3  0  0  0  0  0  0
  160.2930  205.7400  148.6890 N   0  0  1  0  0  0  0  0  0  0  0  0
  160.3170  204.5100  149.5020 C   0  0  2  0  0  3  0  0  0  0  0  0
  161.3150  203.9240  145.5290 C   0  0  0  0  0  2  0  0  0  0  0  0
  161.6200  204.6050  146.8610 C   0  0  1  0  0  0  0  0  0  0  0  0
  160.3140  206.3020  151.3340 C   0  0  0  0  0  2  0  0  0  0  0  0
  161.3550  206.6920  149.0560 C   0  0  0  0  0  2  0  0  0  0  0  0
  162.7290  205.4390  146.7260 O   0  0  0  0  0  1  0  0  0  0  0  0
  161.8340  208.2420  150.9530 C   0  0  0  0  0  0  0  0  0  0  0  0
  161.9810  208.6320  152.3010 C   0  0  0  0  0  2  0  0  0  0  0  0
  161.8910  209.2020  148.6080 C   0  0  0  0  0  3  0  0  0  0  0  0
  162.3780  210.9520  151.6340 C   0  0  0  0  0  3  0  0  0  0  0  0
  162.1050  210.4700  148.1710 N   0  0  0  0  0  0  0  0  0  0  0  0
  162.2490  209.9790  152.6460 C   0  0  0  0  0  0  0  0  0  0  0  0
  161.9710  209.2380  149.9850 C   0  0  0  0  0  0  0  0  0  0  0  0
  162.2310  210.5350  150.3120 C   0  0  0  0  0  0  0  0  0  0  0  0
  162.3100  211.2830  149.2030 N   0  0  0  0  0  0  0  0  0  0  0  0
  162.3710  210.3790  154.0160 N   0  0  0  0  0  2  0  0  0  0  0  0
  161.2330  210.5960  154.9040 C   0  0  2  0  0  3  0  0  0  0  0  0
  159.6830  208.6340  155.2740 C   0  0  0  0  0  3  0  0  0  0  0  0
  160.8570  209.3270  155.6100 C   0  0  0  0  0  0  0  0  0  0  0  0
  159.3590  207.4410  155.9310 C   0  0  0  0  0  3  0  0  0  0  0  0
  160.2070  206.9370  156.9220 C   0  0  0  0  0  3  0  0  0  0  0  0
  161.7010  208.8200  156.6040 C   0  0  0  0  0  3  0  0  0  0  0  0
  161.3780  207.6260  157.2590 C   0  0  0  0  0  3  0  0  0  0  0  0
  159.7110  212.2050  154.8490 C   0  0  0  0  0  1  0  0  0  0  0  0
  160.1470  211.0700  154.1630 O   0  0  0  0  0  0  0  0  0  0  0  0
  161.8050  202.5110  150.2120 C   0  0  0  0  0  2  0  0  0  0  0  0
  160.8000  201.4100  149.9140 C   0  0  0  0  0  1  0  0  0  0  0  0
  160.0630  200.2650  145.5360 C   0  0  0  0  0  2  0  0  0  0  0  0
  161.3200  199.4520  145.8110 C   0  0  0  0  0  2  0  0  0  0  0  0
  161.1980  198.1720  145.2610 O   0  0  0  0  0  1  0  0  0  0  0  0
  1 16  1  6  0  0  0
  1 13  1  0  0  0  0
  3 13  1  0  0  0  0
  5 37  1  0  0  0  0
  5  7  2  0  0  0  0
  6 10  1  0  0  0  0
  6 35  1  1  0  0  0
  7  2  1  0  0  0  0
  8  2  1  6  0  0  0
  8  6  1  0  0  0  0
  9  4  1  6  0  0  0
  9 14  1  0  0  0  0
  9 10  1  0  0  0  0
 10  3  1  1  0  0  0
 11  7  1  0  0  0  0
 11 12  1  0  0  0  0
 12 15  1  6  0  0  0
 12  4  1  0  0  0  0
 12  8  1  0  0  0  0
 14  1  1  0  0  0  0
 16 17  1  0  0  0  0
 17 21  1  0  0  0  0
 18 22  1  0  0  0  0
 19 21  2  0  0  0  0
 20 18  2  0  0  0  0
 20 24  1  0  0  0  0
 21 25  1  0  0  0  0
 22 23  1  0  0  0  0
 22 16  2  0  0  0  0
 23 19  1  0  0  0  0
 24 23  2  0  0  0  0
 26 25  1  6  0  0  0
 26 28  1  0  0  0  0
 27 28  2  0  0  0  0
 27 29  1  0  0  0  0
 28 31  1  0  0  0  0
 29 30  2  0  0  0  0
 30 32  1  0  0  0  0
 31 32  2  0  0  0  0
 34 33  1  0  0  0  0
 34 26  1  0  0  0  0
 36 35  1  0  0  0  0
 37 38  1  0  0  0  0
 39 38  1  0  0  0  0
M  END
>  <MODEL>
4

>  <REMARK>
 VINA RESULT:      -5.6      2.515      4.534
  Name = 
  8 active torsions:
  status: ('A' for Active; 'I' for Inactive)
    1  A    between atoms: C_1  and  C_3
    2  A    between atoms: C_6  and  C_13
    3  A    between atoms: C_9  and  C_18
    4  A    between atoms: C_12  and  C_22
    5  A    between atoms: C_18  and  O_21
    6  A    between atoms: C_18  and  N_23
    7  A    between atoms: C_22  and  C_28
    8  A    between atoms: N_23  and  C_29
                            x       y       z     vdW  Elec       q    Type
                         _______ _______ _______ _____ _____    ______ ____

>  <TORSDO>
F 8

$$$$
=
 OpenBabel11072415123D

 39 44  0  0  1  0  0  0  0  0999 V2000
  160.8200  206.9770  151.9550 C   0  0  1  0  0  3  0  0  0  0  0  0
  159.3560  211.3270  155.1710 N   0  0  0  0  0  2  0  0  0  0  0  0
  161.5650  207.3490  154.3200 C   0  0  0  0  0  2  0  0  0  0  0  0
  161.2010  210.6890  152.5760 C   0  0  0  0  0  2  0  0  0  0  0  0
  159.7670  213.7090  155.3300 C   0  0  0  0  0  3  0  0  0  0  0  0
  159.6070  208.9790  154.3440 C   0  0  1  0  0  3  0  0  0  0  0  0
  159.6130  212.6010  154.6100 C   0  0  0  0  0  0  0  0  0  0  0  0
  159.1210  210.4100  154.0710 C   0  0  2  0  0  3  0  0  0  0  0  0
  161.4860  209.2600  152.7380 N   0  0  1  0  0  0  0  0  0  0  0  0
  161.1150  208.8050  154.0910 C   0  0  2  0  0  3  0  0  0  0  0  0
  159.6950  212.5720  153.1310 C   0  0  0  0  0  2  0  0  0  0  0  0
  159.7300  211.0770  152.8240 C   0  0  1  0  0  0  0  0  0  0  0  0
  161.8430  206.5950  153.0180 C   0  0  0  0  0  2  0  0  0  0  0  0
  160.8290  208.4870  151.6710 C   0  0  0  0  0  2  0  0  0  0  0  0
  158.9530  210.8040  151.6990 O   0  0  0  0  0  1  0  0  0  0  0  0
  161.0280  206.1980  150.6950 C   0  0  0  0  0  0  0  0  0  0  0  0
  160.6260  204.8500  150.5860 C   0  0  0  0  0  2  0  0  0  0  0  0
  162.1450  208.0350  149.3530 C   0  0  0  0  0  3  0  0  0  0  0  0
  161.4750  204.7360  148.2940 C   0  0  0  0  0  3  0  0  0  0  0  0
  162.6360  208.0380  148.0860 N   0  0  0  0  0  0  0  0  0  0  0  0
  160.8480  204.1170  149.3950 C   0  0  0  0  0  0  0  0  0  0  0  0
  161.6430  206.7710  149.5810 C   0  0  0  0  0  0  0  0  0  0  0  0
  161.8570  206.0690  148.4330 C   0  0  0  0  0  0  0  0  0  0  0  0
  162.4640  206.8450  147.5240 N   0  0  0  0  0  0  0  0  0  0  0  0
  160.4650  202.7400  149.2950 N   0  0  0  0  0  2  0  0  0  0  0  0
  161.3820  201.6650  148.9310 C   0  0  2  0  0  3  0  0  0  0  0  0
  161.4780  199.8710  147.1530 C   0  0  0  0  0  3  0  0  0  0  0  0
  161.0940  201.1630  147.5470 C   0  0  0  0  0  0  0  0  0  0  0  0
  161.1830  199.4130  145.8640 C   0  0  0  0  0  3  0  0  0  0  0  0
  160.5050  200.2430  144.9660 C   0  0  0  0  0  3  0  0  0  0  0  0
  160.4180  201.9900  146.6450 C   0  0  0  0  0  3  0  0  0  0  0  0
  160.1220  201.5320  145.3560 C   0  0  0  0  0  3  0  0  0  0  0  0
  160.0560  200.8550  150.5090 C   0  0  0  0  0  1  0  0  0  0  0  0
  161.2650  200.6200  149.8530 O   0  0  0  0  0  0  0  0  0  0  0  0
  159.1050  208.4090  155.6760 C   0  0  0  0  0  2  0  0  0  0  0  0
  160.0370  208.7140  156.8380 C   0  0  0  0  0  1  0  0  0  0  0  0
  159.6620  213.7310  156.8200 C   0  0  0  0  0  2  0  0  0  0  0  0
  158.2160  213.9070  157.2610 C   0  0  0  0  0  2  0  0  0  0  0  0
  157.4400  214.3740  156.1960 O   0  0  0  0  0  1  0  0  0  0  0  0
  1 16  1  6  0  0  0
  1 13  1  0  0  0  0
  4  9  1  0  0  0  0
  4 12  1  0  0  0  0
  5 37  1  0  0  0  0
  6 35  1  1  0  0  0
  7  2  1  0  0  0  0
  7  5  2  0  0  0  0
  8  6  1  0  0  0  0
  8  2  1  1  0  0  0
  9 14  1  6  0  0  0
  9 10  1  0  0  0  0
 10  3  1  6  0  0  0
 10  6  1  0  0  0  0
 11  7  1  0  0  0  0
 12 15  1  6  0  0  0
 12 11  1  0  0  0  0
 12  8  1  0  0  0  0
 13  3  1  0  0  0  0
 14  1  1  0  0  0  0
 17 16  1  0  0  0  0
 18 22  1  0  0  0  0
 19 23  1  0  0  0  0
 19 21  2  0  0  0  0
 20 18  2  0  0  0  0
 21 17  1  0  0  0  0
 22 16  2  0  0  0  0
 23 22  1  0  0  0  0
 24 20  1  0  0  0  0
 24 23  2  0  0  0  0
 25 21  1  0  0  0  0
 26 25  1  1  0  0  0
 26 34  1  0  0  0  0
 27 28  1  0  0  0  0
 28 26  1  0  0  0  0
 29 27  2  0  0  0  0
 30 32  2  0  0  0  0
 30 29  1  0  0  0  0
 31 28  2  0  0  0  0
 32 31  1  0  0  0  0
 34 33  1  0  0  0  0
 35 36  1  0  0  0  0
 37 38  1  0  0  0  0
 39 38  1  0  0  0  0
M  END
>  <MODEL>
5

>  <REMARK>
 VINA RESULT:      -5.6      2.050     10.584
  Name = 
  8 active torsions:
  status: ('A' for Active; 'I' for Inactive)
    1  A    between atoms: C_1  and  C_3
    2  A    between atoms: C_6  and  C_13
    3  A    between atoms: C_9  and  C_18
    4  A    between atoms: C_12  and  C_22
    5  A    between atoms: C_18  and  O_21
    6  A    between atoms: C_18  and  N_23
    7  A    between atoms: C_22  and  C_28
    8  A    between atoms: N_23  and  C_29
                            x       y       z     vdW  Elec       q    Type
                         _______ _______ _______ _____ _____    ______ ____

>  <TORSDO>
F 8

$$$$
=
 OpenBabel11072415123D

 39 44  0  0  1  0  0  0  0  0999 V2000
  160.8540  206.9670  152.2830 C   0  0  1  0  0  3  0  0  0  0  0  0
  159.5880  211.5340  155.2740 N   0  0  0  0  0  2  0  0  0  0  0  0
  161.8760  207.5880  154.4870 C   0  0  0  0  0  2  0  0  0  0  0  0
  161.1150  210.7330  152.5220 C   0  0  0  0  0  2  0  0  0  0  0  0
  159.8890  213.9360  155.1680 C   0  0  0  0  0  3  0  0  0  0  0  0
  159.8540  209.1310  154.6280 C   0  0  1  0  0  3  0  0  0  0  0  0
  159.7030  212.7590  154.5750 C   0  0  0  0  0  0  0  0  0  0  0  0
  159.2630  210.5100  154.2990 C   0  0  2  0  0  3  0  0  0  0  0  0
  161.4940  209.3390  152.7690 N   0  0  1  0  0  0  0  0  0  0  0  0
  161.3240  208.9970  154.1930 C   0  0  2  0  0  3  0  0  0  0  0  0
  159.5960  212.5970  153.1060 C   0  0  0  0  0  2  0  0  0  0  0  0
  159.6700  211.0820  152.9290 C   0  0  1  0  0  0  0  0  0  0  0  0
  162.0240  206.7280  153.2300 C   0  0  0  0  0  2  0  0  0  0  0  0
  160.7470  208.4430  151.8700 C   0  0  0  0  0  2  0  0  0  0  0  0
  158.7700  210.6740  151.9450 O   0  0  0  0  0  1  0  0  0  0  0  0
  160.9390  206.0830  151.0790 C   0  0  0  0  0  0  0  0  0  0  0  0
  160.9180  206.6130  149.7720 C   0  0  0  0  0  3  0  0  0  0  0  0
  161.0710  203.8690  152.3050 C   0  0  0  0  0  3  0  0  0  0  0  0
  161.0650  204.3670  148.8120 C   0  0  0  0  0  3  0  0  0  0  0  0
  161.1540  202.5970  151.8370 N   0  0  0  0  0  2  0  0  0  0  0  0
  160.9780  205.7630  148.6400 C   0  0  0  0  0  0  0  0  0  0  0  0
  161.0270  204.6960  151.2020 C   0  0  0  0  0  0  0  0  0  0  0  0
  161.0870  203.8760  150.1160 C   0  0  0  0  0  0  0  0  0  0  0  0
  161.1630  202.5960  150.5070 N   0  0  0  0  0  0  0  0  0  0  0  0
  160.9280  206.3000  147.3130 N   0  0  0  0  0  2  0  0  0  0  0  0
  161.6720  205.7500  146.1840 C   0  0  2  0  0  3  0  0  0  0  0  0
  161.4990  203.2320  146.3010 C   0  0  0  0  0  3  0  0  0  0  0  0
  161.0790  204.4470  145.7370 C   0  0  0  0  0  0  0  0  0  0  0  0
  160.9190  202.0270  145.8850 C   0  0  0  0  0  3  0  0  0  0  0  0
  159.9200  202.0340  144.9070 C   0  0  0  0  0  3  0  0  0  0  0  0
  160.0810  204.4480  144.7570 C   0  0  0  0  0  3  0  0  0  0  0  0
  159.5000  203.2450  144.3430 C   0  0  0  0  0  3  0  0  0  0  0  0
  163.5100  204.6400  145.6360 C   0  0  0  0  0  1  0  0  0  0  0  0
  163.0090  205.5660  146.5520 O   0  0  0  0  0  0  0  0  0  0  0  0
  159.5580  208.6680  156.0600 C   0  0  0  0  0  2  0  0  0  0  0  0
  159.3770  207.1630  156.1680 C   0  0  0  0  0  1  0  0  0  0  0  0
  159.9760  214.0920  156.6520 C   0  0  0  0  0  2  0  0  0  0  0  0
  158.6040  214.3660  157.2510 C   0  0  0  0  0  2  0  0  0  0  0  0
  157.6430  214.4520  156.2390 O   0  0  0  0  0  1  0  0  0  0  0  0
  1 16  1  6  0  0  0
  1 13  1  0  0  0  0
  4  9  1  0  0  0  0
  4 12  1  0  0  0  0
  5 37  1  0  0  0  0
  6 35  1  1  0  0  0
  7  5  2  0  0  0  0
  7  2  1  0  0  0  0
  8  6  1  0  0  0  0
  8  2  1  1  0  0  0
  9 14  1  6  0  0  0
  9 10  1  0  0  0  0
 10  3  1  6  0  0  0
 10  6  1  0  0  0  0
 11  7  1  0  0  0  0
 12 15  1  6  0  0  0
 12 11  1  0  0  0  0
 12  8  1  0  0  0  0
 13  3  1  0  0  0  0
 14  1  1  0  0  0  0
 16 22  1  0  0  0  0
 17 16  2  0  0  0  0
 19 23  1  0  0  0  0
 20 18  1  0  0  0  0
 21 19  2  0  0  0  0
 21 17  1  0  0  0  0
 22 18  2  0  0  0  0
 23 24  2  0  0  0  0
 23 22  1  0  0  0  0
 24 20  1  0  0  0  0
 25 21  1  0  0  0  0
 26 34  1  1  0  0  0
 26 25  1  0  0  0  0
 28 26  1  0  0  0  0
 28 27  2  0  0  0  0
 29 27  1  0  0  0  0
 30 29  2  0  0  0  0
 31 28  1  0  0  0  0
 32 31  2  0  0  0  0
 32 30  1  0  0  0  0
 33 34  1  0  0  0  0
 35 36  1  0  0  0  0
 37 38  1  0  0  0  0
 39 38  1  0  0  0  0
M  END
>  <MODEL>
6

>  <REMARK>
 VINA RESULT:      -5.5      2.299     10.051
  Name = 
  8 active torsions:
  status: ('A' for Active; 'I' for Inactive)
    1  A    between atoms: C_1  and  C_3
    2  A    between atoms: C_6  and  C_13
    3  A    between atoms: C_9  and  C_18
    4  A    between atoms: C_12  and  C_22
    5  A    between atoms: C_18  and  O_21
    6  A    between atoms: C_18  and  N_23
    7  A    between atoms: C_22  and  C_28
    8  A    between atoms: N_23  and  C_29
                            x       y       z     vdW  Elec       q    Type
                         _______ _______ _______ _____ _____    ______ ____

>  <TORSDO>
F 8

$$$$
=
 OpenBabel11072415123D

 39 44  0  0  1  0  0  0  0  0999 V2000
  160.3560  212.9060  143.2850 C   0  0  1  0  0  3  0  0  0  0  0  0
  159.0700  213.2340  148.7300 N   0  0  0  0  0  2  0  0  0  0  0  0
  161.7450  214.0390  145.0390 C   0  0  0  0  0  2  0  0  0  0  0  0
  158.0760  214.4420  145.8840 C   0  0  0  0  0  2  0  0  0  0  0  0
  157.4700  214.3450  150.1720 C   0  0  0  0  0  3  0  0  0  0  0  0
  160.2910  212.6700  146.6200 C   0  0  1  0  0  3  0  0  0  0  0  0
  157.7930  213.7760  149.0130 C   0  0  0  0  0  0  0  0  0  0  0  0
  158.9890  212.5940  147.4300 C   0  0  2  0  0  3  0  0  0  0  0  0
  159.2770  214.3140  145.0530 N   0  0  1  0  0  0  0  0  0  0  0  0
  160.4570  214.0110  145.8860 C   0  0  2  0  0  3  0  0  0  0  0  0
  156.8480  213.6460  147.8790 C   0  0  0  0  0  2  0  0  0  0  0  0
  157.7550  213.1980  146.7350 C   0  0  1  0  0  0  0  0  0  0  0  0
  161.4790  213.9050  143.5380 C   0  0  0  0  0  2  0  0  0  0  0  0
  159.0550  213.3210  143.9890 C   0  0  0  0  0  2  0  0  0  0  0  0
  157.1080  212.2310  145.9670 O   0  0  0  0  0  1  0  0  0  0  0  0
  160.1280  212.7040  141.8210 C   0  0  0  0  0  0  0  0  0  0  0  0
  158.9150  213.0790  141.2050 C   0  0  0  0  0  2  0  0  0  0  0  0
  162.3690  211.6530  141.2800 C   0  0  0  0  0  3  0  0  0  0  0  0
  159.7140  212.2690  139.0390 C   0  0  0  0  0  3  0  0  0  0  0  0
  162.8730  211.1860  140.1080 N   0  0  0  0  0  0  0  0  0  0  0  0
  158.7030  212.8620  139.8210 C   0  0  0  0  0  0  0  0  0  0  0  0
  161.1010  212.1230  141.0080 C   0  0  0  0  0  0  0  0  0  0  0  0
  160.9020  211.9140  139.6760 C   0  0  0  0  0  0  0  0  0  0  0  0
  161.9840  211.3420  139.1310 N   0  0  0  0  0  0  0  0  0  0  0  0
  157.4600  213.2160  139.2020 N   0  0  0  0  0  2  0  0  0  0  0  0
  156.1510  212.9080  139.7690 C   0  0  2  0  0  3  0  0  0  0  0  0
  154.4800  211.0140  139.7070 C   0  0  0  0  0  3  0  0  0  0  0  0
  155.5620  211.6900  139.1230 C   0  0  0  0  0  0  0  0  0  0  0  0
  153.9320  209.8890  139.0790 C   0  0  0  0  0  3  0  0  0  0  0  0
  154.4620  209.4390  137.8660 C   0  0  0  0  0  3  0  0  0  0  0  0
  156.0910  211.2340  137.9100 C   0  0  0  0  0  3  0  0  0  0  0  0
  155.5420  210.1120  137.2810 C   0  0  0  0  0  3  0  0  0  0  0  0
  155.0080  214.4420  140.8860 C   0  0  0  0  0  1  0  0  0  0  0  0
  155.2990  214.0030  139.5940 O   0  0  0  0  0  0  0  0  0  0  0  0
  161.5240  212.2060  147.4070 C   0  0  0  0  0  2  0  0  0  0  0  0
  162.0040  213.2380  148.4140 C   0  0  0  0  0  1  0  0  0  0  0  0
  158.4250  214.4530  151.3160 C   0  0  0  0  0  2  0  0  0  0  0  0
  157.8990  213.7080  152.5350 C   0  0  0  0  0  2  0  0  0  0  0  0
  158.8000  213.8250  153.5980 O   0  0  0  0  0  1  0  0  0  0  0  0
  1 16  1  6  0  0  0
  1 13  1  0  0  0  0
  1 14  1  0  0  0  0
  2  7  1  0  0  0  0
  4 12  1  0  0  0  0
  5 37  1  0  0  0  0
  6 35  1  1  0  0  0
  6  8  1  0  0  0  0
  7  5  2  0  0  0  0
  8  2  1  1  0  0  0
  9 14  1  6  0  0  0
  9  4  1  0  0  0  0
  9 10  1  0  0  0  0
 10  3  1  6  0  0  0
 10  6  1  0  0  0  0
 11  7  1  0  0  0  0
 12 15  1  6  0  0  0
 12  8  1  0  0  0  0
 12 11  1  0  0  0  0
 13  3  1  0  0  0  0
 17 16  1  0  0  0  0
 19 23  1  0  0  0  0
 19 21  2  0  0  0  0
 20 18  2  0  0  0  0
 21 17  1  0  0  0  0
 22 18  1  0  0  0  0
 22 16  2  0  0  0  0
 23 22  1  0  0  0  0
 24 23  2  0  0  0  0
 24 20  1  0  0  0  0
 25 21  1  0  0  0  0
 26 25  1  6  0  0  0
 28 27  1  0  0  0  0
 28 26  1  0  0  0  0
 29 27  2  0  0  0  0
 30 29  1  0  0  0  0
 31 28  2  0  0  0  0
 32 30  2  0  0  0  0
 32 31  1  0  0  0  0
 34 26  1  0  0  0  0
 34 33  1  0  0  0  0
 35 36  1  0  0  0  0
 37 38  1  0  0  0  0
 38 39  1  0  0  0  0
M  END
>  <MODEL>
7

>  <REMARK>
 VINA RESULT:      -5.5      8.706     13.235
  Name = 
  8 active torsions:
  status: ('A' for Active; 'I' for Inactive)
    1  A    between atoms: C_1  and  C_3
    2  A    between atoms: C_6  and  C_13
    3  A    between atoms: C_9  and  C_18
    4  A    between atoms: C_12  and  C_22
    5  A    between atoms: C_18  and  O_21
    6  A    between atoms: C_18  and  N_23
    7  A    between atoms: C_22  and  C_28
    8  A    between atoms: N_23  and  C_29
                            x       y       z     vdW  Elec       q    Type
                         _______ _______ _______ _____ _____    ______ ____

>  <TORSDO>
F 8

$$$$
=
 OpenBabel11072415123D

 39 44  0  0  1  0  0  0  0  0999 V2000
  161.4460  212.7460  143.3690 C   0  0  1  0  0  3  0  0  0  0  0  0
  159.2440  213.1830  148.5040 N   0  0  0  0  0  2  0  0  0  0  0  0
  162.4880  213.9660  145.2960 C   0  0  0  0  0  2  0  0  0  0  0  0
  158.7210  214.2850  145.4940 C   0  0  0  0  0  2  0  0  0  0  0  0
  157.3970  214.2870  149.6180 C   0  0  0  0  0  3  0  0  0  0  0  0
  160.8200  212.5980  146.6500 C   0  0  1  0  0  3  0  0  0  0  0  0
  157.9260  213.6960  148.5490 C   0  0  0  0  0  0  0  0  0  0  0  0
  159.4010  212.5070  147.2300 C   0  0  2  0  0  3  0  0  0  0  0  0
  160.0490  214.1690  144.8830 N   0  0  1  0  0  0  0  0  0  0  0  0
  161.0760  213.9230  145.9120 C   0  0  2  0  0  3  0  0  0  0  0  0
  157.1910  213.5080  147.2760 C   0  0  0  0  0  2  0  0  0  0  0  0
  158.2890  213.0560  146.3170 C   0  0  1  0  0  0  0  0  0  0  0  0
  162.4860  213.7840  143.7770 C   0  0  0  0  0  2  0  0  0  0  0  0
  160.0340  213.1420  143.8280 C   0  0  0  0  0  2  0  0  0  0  0  0
  157.8060  212.0500  145.4810 O   0  0  0  0  0  1  0  0  0  0  0  0
  161.4750  212.4980  141.8940 C   0  0  0  0  0  0  0  0  0  0  0  0
  160.6170  211.5570  141.2870 C   0  0  0  0  0  2  0  0  0  0  0  0
  163.3170  214.1410  141.3190 C   0  0  0  0  0  3  0  0  0  0  0  0
  161.5850  212.0250  139.0900 C   0  0  0  0  0  3  0  0  0  0  0  0
  163.8960  214.4480  140.1300 N   0  0  0  0  0  0  0  0  0  0  0  0
  160.6690  211.3150  139.8920 C   0  0  0  0  0  0  0  0  0  0  0  0
  162.3640  213.1780  141.0610 C   0  0  0  0  0  0  0  0  0  0  0  0
  162.4160  212.9500  139.7180 C   0  0  0  0  0  0  0  0  0  0  0  0
  163.3520  213.7260  139.1540 N   0  0  0  0  0  0  0  0  0  0  0  0
  159.8180  210.3390  139.2810 N   0  0  0  0  0  2  0  0  0  0  0  0
  159.0280  210.5870  138.0790 C   0  0  2  0  0  3  0  0  0  0  0  0
  156.7570  209.4870  138.2040 C   0  0  0  0  0  3  0  0  0  0  0  0
  157.5640  210.6190  138.3990 C   0  0  0  0  0  0  0  0  0  0  0  0
  155.3950  209.5310  138.5270 C   0  0  0  0  0  3  0  0  0  0  0  0
  154.8370  210.7040  139.0450 C   0  0  0  0  0  3  0  0  0  0  0  0
  157.0000  211.7920  138.9150 C   0  0  0  0  0  3  0  0  0  0  0  0
  155.6400  211.8350  139.2390 C   0  0  0  0  0  3  0  0  0  0  0  0
  160.4390  208.9470  137.6010 C   0  0  0  0  0  1  0  0  0  0  0  0
  159.2900  209.5880  137.1360 O   0  0  0  0  0  0  0  0  0  0  0  0
  161.9120  212.1920  147.6490 C   0  0  0  0  0  2  0  0  0  0  0  0
  161.8580  210.7180  148.0160 C   0  0  0  0  0  1  0  0  0  0  0  0
  158.1400  214.4530  150.9030 C   0  0  0  0  0  2  0  0  0  0  0  0
  158.1140  213.1670  151.7170 C   0  0  0  0  0  2  0  0  0  0  0  0
  159.4180  212.7600  152.0190 O   0  0  0  0  0  1  0  0  0  0  0  0
  1 16  1  6  0  0  0
  1 13  1  0  0  0  0
  1 14  1  0  0  0  0
  2  7  1  0  0  0  0
  4 12  1  0  0  0  0
  5 37  1  0  0  0  0
  6  8  1  0  0  0  0
  6 35  1  1  0  0  0
  7  5  2  0  0  0  0
  8  2  1  1  0  0  0
  9 14  1  6  0  0  0
  9  4  1  0  0  0  0
  9 10  1  0  0  0  0
 10  3  1  6  0  0  0
 10  6  1  0  0  0  0
 11  7  1  0  0  0  0
 12 15  1  6  0  0  0
 12  8  1  0  0  0  0
 12 11  1  0  0  0  0
 13  3  1  0  0  0  0
 17 16  1  0  0  0  0
 19 23  1  0  0  0  0
 19 21  2  0  0  0  0
 20 18  2  0  0  0  0
 21 17  1  0  0  0  0
 22 18  1  0  0  0  0
 22 16  2  0  0  0  0
 23 22  1  0  0  0  0
 24 23  2  0  0  0  0
 24 20  1  0  0  0  0
 25 21  1  0  0  0  0
 26 34  1  6  0  0  0
 26 28  1  0  0  0  0
 26 25  1  0  0  0  0
 27 28  2  0  0  0  0
 27 29  1  0  0  0  0
 28 31  1  0  0  0  0
 29 30  2  0  0  0  0
 30 32  1  0  0  0  0
 31 32  2  0  0  0  0
 34 33  1  0  0  0  0
 35 36  1  0  0  0  0
 37 38  1  0  0  0  0
 38 39  1  0  0  0  0
M  END
>  <MODEL>
8

>  <REMARK>
 VINA RESULT:      -5.2      8.545     13.306
  Name = 
  8 active torsions:
  status: ('A' for Active; 'I' for Inactive)
    1  A    between atoms: C_1  and  C_3
    2  A    between atoms: C_6  and  C_13
    3  A    between atoms: C_9  and  C_18
    4  A    between atoms: C_12  and  C_22
    5  A    between atoms: C_18  and  O_21
    6  A    between atoms: C_18  and  N_23
    7  A    between atoms: C_22  and  C_28
    8  A    between atoms: N_23  and  C_29
                            x       y       z     vdW  Elec       q    Type
                         _______ _______ _______ _____ _____    ______ ____

>  <TORSDO>
F 8

$$$$
=
 OpenBabel11072415123D

 39 44  0  0  1  0  0  0  0  0999 V2000
  161.0820  207.2530  152.5280 C   0  0  1  0  0  3  0  0  0  0  0  0
  161.8700  203.7080  148.2590 N   0  0  0  0  0  2  0  0  0  0  0  0
  160.1790  204.9170  152.3950 C   0  0  0  0  0  2  0  0  0  0  0  0
  160.2460  206.4400  148.9290 C   0  0  0  0  0  2  0  0  0  0  0  0
  161.1800  203.4350  145.9520 C   0  0  0  0  0  3  0  0  0  0  0  0
  161.9320  204.6850  150.5620 C   0  0  1  0  0  3  0  0  0  0  0  0
  161.4970  204.2080  146.9880 C   0  0  0  0  0  0  0  0  0  0  0  0
  162.2640  204.8440  149.0710 C   0  0  2  0  0  3  0  0  0  0  0  0
  160.1190  206.3780  150.3880 N   0  0  1  0  0  0  0  0  0  0  0  0
  160.4700  205.0350  150.8850 C   0  0  2  0  0  3  0  0  0  0  0  0
  161.4950  205.6890  146.9300 C   0  0  0  0  0  2  0  0  0  0  0  0
  161.6480  206.0830  148.3970 C   0  0  1  0  0  0  0  0  0  0  0  0
  160.0560  206.2750  153.0890 C   0  0  0  0  0  2  0  0  0  0  0  0
  160.9140  207.4480  151.0130 C   0  0  0  0  0  2  0  0  0  0  0  0
  162.5080  207.1750  148.5080 O   0  0  0  0  0  1  0  0  0  0  0  0
  161.0300  208.5660  153.2420 C   0  0  0  0  0  0  0  0  0  0  0  0
  160.7440  209.7670  152.5590 C   0  0  0  0  0  3  0  0  0  0  0  0
  161.5810  207.7020  155.5600 C   0  0  0  0  0  3  0  0  0  0  0  0
  160.9770  211.0510  154.6280 C   0  0  0  0  0  3  0  0  0  0  0  0
  161.7240  208.3560  156.7420 N   0  0  0  0  0  2  0  0  0  0  0  0
  160.7190  211.0070  153.2430 C   0  0  0  0  0  0  0  0  0  0  0  0
  161.2780  208.6570  154.6120 C   0  0  0  0  0  0  0  0  0  0  0  0
  161.2530  209.8480  155.2740 C   0  0  0  0  0  0  0  0  0  0  0  0
  161.5270  209.6600  156.5730 N   0  0  0  0  0  0  0  0  0  0  0  0
  160.4560  212.2290  152.5440 N   0  0  0  0  0  2  0  0  0  0  0  0
  159.1180  212.7660  152.3180 C   0  0  2  0  0  3  0  0  0  0  0  0
  160.0550  213.3990  150.0580 C   0  0  0  0  0  3  0  0  0  0  0  0
  158.9430  213.1790  150.8870 C   0  0  0  0  0  0  0  0  0  0  0  0
  159.8720  213.7660  148.7190 C   0  0  0  0  0  3  0  0  0  0  0  0
  158.5800  213.9140  148.2060 C   0  0  0  0  0  3  0  0  0  0  0  0
  157.6520  213.3300  150.3690 C   0  0  0  0  0  3  0  0  0  0  0  0
  157.4690  213.6960  149.0310 C   0  0  0  0  0  3  0  0  0  0  0  0
  158.0320  213.3930  154.1440 C   0  0  0  0  0  1  0  0  0  0  0  0
  158.9060  213.8610  153.1610 O   0  0  0  0  0  0  0  0  0  0  0  0
  162.4280  203.3600  151.1570 C   0  0  0  0  0  2  0  0  0  0  0  0
  161.3380  202.3040  151.2350 C   0  0  0  0  0  1  0  0  0  0  0  0
  161.2050  201.9430  146.0160 C   0  0  0  0  0  2  0  0  0  0  0  0
  160.0410  201.3460  145.2380 C   0  0  0  0  0  2  0  0  0  0  0  0
  159.3830  202.3430  144.5110 O   0  0  0  0  0  1  0  0  0  0  0  0
  1 13  1  0  0  0  0
  1 16  1  1  0  0  0
  3 13  1  0  0  0  0
  5 37  1  0  0  0  0
  5  7  2  0  0  0  0
  6 10  1  0  0  0  0
  6 35  1  6  0  0  0
  7  2  1  0  0  0  0
  8  2  1  6  0  0  0
  8  6  1  0  0  0  0
  9  4  1  6  0  0  0
  9 10  1  0  0  0  0
  9 14  1  0  0  0  0
 10  3  1  1  0  0  0
 11  7  1  0  0  0  0
 11 12  1  0  0  0  0
 12 15  1  1  0  0  0
 12  4  1  0  0  0  0
 12  8  1  0  0  0  0
 14  1  1  0  0  0  0
 16 22  1  0  0  0  0
 17 16  2  0  0  0  0
 17 21  1  0  0  0  0
 18 20  1  0  0  0  0
 19 23  1  0  0  0  0
 21 19  2  0  0  0  0
 22 23  1  0  0  0  0
 22 18  2  0  0  0  0
 23 24  2  0  0  0  0
 24 20  1  0  0  0  0
 25 21  1  0  0  0  0
 26 25  1  6  0  0  0
 26 34  1  0  0  0  0
 27 28  1  0  0  0  0
 28 26  1  0  0  0  0
 29 27  2  0  0  0  0
 30 29  1  0  0  0  0
 30 32  2  0  0  0  0
 31 28  2  0  0  0  0
 32 31  1  0  0  0  0
 34 33  1  0  0  0  0
 35 36  1  0  0  0  0
 38 37  1  0  0  0  0
 39 38  1  0  0  0  0
M  END
>  <MODEL>
9

>  <REMARK>
 VINA RESULT:      -5.0      1.811      3.763
  Name = 
  8 active torsions:
  status: ('A' for Active; 'I' for Inactive)
    1  A    between atoms: C_1  and  C_3
    2  A    between atoms: C_6  and  C_13
    3  A    between atoms: C_9  and  C_18
    4  A    between atoms: C_12  and  C_22
    5  A    between atoms: C_18  and  O_21
    6  A    between atoms: C_18  and  N_23
    7  A    between atoms: C_22  and  C_28
    8  A    between atoms: N_23  and  C_29
                            x       y       z     vdW  Elec       q    Type
                         _______ _______ _______ _____ _____    ______ ____

>  <TORSDO>
F 8

$$$$
