=
 OpenBabel11072410433D

 50 53  0  0  1  0  0  0  0  0999 V2000
  161.4030  206.4080  147.8790 C   0  0  2  0  0  3  0  0  0  0  0  0
  160.3380  205.8900  147.2540 O   0  0  0  0  0  0  0  0  0  0  0  0
  160.1710  206.7460  146.1210 C   0  0  0  0  0  2  0  0  0  0  0  0
  160.1440  205.9330  144.9040 C   0  0  0  0  0  2  0  0  0  0  0  0
  161.5240  205.5910  144.3830 C   0  0  1  0  0  3  0  0  0  0  0  0
  162.0330  204.2420  144.8390 C   0  0  0  0  0  0  0  0  0  0  0  0
  163.3820  203.9690  145.1080 O   0  0  0  0  0  0  0  0  0  0  0  0
  161.1600  203.3480  145.1590 O   0  0  0  0  0  1  0  0  0  0  0  0
  161.4730  205.6230  142.8550 C   0  0  0  0  0  2  0  0  0  0  0  0
  161.9580  206.9870  142.2530 C   0  0  0  0  0  2  0  0  0  0  0  0
  161.8850  208.0180  139.9760 C   0  0  0  0  0  0  0  0  0  0  0  0
  159.5250  209.6240  138.8360 C   0  0  0  0  0  0  0  0  0  0  0  0
  158.2360  209.8200  139.0700 C   0  0  0  0  0  2  0  0  0  0  0  0
  161.8400  209.4710  139.4370 C   0  0  2  0  0  0  0  0  0  0  0  0
  160.5560  211.5770  139.9880 C   0  0  0  0  0  0  0  0  0  0  0  0
  159.6840  208.0590  137.0120 O   0  0  0  0  0  1  0  0  0  0  0  0
  161.8630  206.9680  140.7770 C   0  0  0  0  0  3  0  0  0  0  0  0
  159.3830  212.3040  139.8230 O   0  0  0  0  0  1  0  0  0  0  0  0
  163.2000  210.1100  139.1880 C   0  0  0  0  0  1  0  0  0  0  0  0
  162.4650  207.9870  137.5660 F   0  0  0  0  0  0  0  0  0  0  0  0
  160.6230  210.3530  139.5010 C   0  0  0  0  0  0  0  0  0  0  0  0
  160.0540  208.3360  138.3190 C   0  0  1  0  0  3  0  0  0  0  0  0
  161.5420  208.4320  138.5130 C   0  0  1  0  0  0  0  0  0  0  0  0
  161.7290  212.2400  140.6490 C   0  0  0  0  0  2  0  0  0  0  0  0
  161.8120  211.8970  141.9900 O   0  0  0  0  0  1  0  0  0  0  0  0
  161.9850  205.4820  149.0090 C   0  0  0  0  0  2  0  0  0  0  0  0
  160.6830  204.2570  152.2690 C   0  0  0  0  0  2  0  0  0  0  0  0
  161.6970  206.5420  151.8520 C   0  0  0  0  0  0  0  0  0  0  0  0
  160.4360  203.0370  151.3830 C   0  0  0  0  0  2  0  0  0  0  0  0
  162.7670  206.9520  151.2810 O   0  0  0  0  0  0  0  0  0  0  0  0
  160.9310  204.8780  149.9700 C   0  0  2  0  0  3  0  0  0  0  0  0
  161.0530  205.3440  151.3440 N   0  0  0  0  0  0  0  0  0  0  0  0
  161.1690  203.3980  150.1040 C   0  0  2  0  0  3  0  0  0  0  0  0
  160.3110  208.5690  155.3480 C   0  0  0  0  0  3  0  0  0  0  0  0
  160.5850  209.2990  154.1860 C   0  0  0  0  0  0  0  0  0  0  0  0
  160.9760  206.5500  154.2220 C   0  0  0  0  0  3  0  0  0  0  0  0
  160.5300  207.1890  155.3720 C   0  0  0  0  0  3  0  0  0  0  0  0
  160.3570  210.6960  154.1560 N   0  0  0  0  0  1  0  0  0  0  0  0
  161.2440  207.2550  153.0390 C   0  0  0  0  0  0  0  0  0  0  0  0
  161.0580  208.6540  153.0500 C   0  0  0  0  0  3  0  0  0  0  0  0
  161.1650  200.9940  149.1940 C   0  0  0  0  0  1  0  0  0  0  0  0
  160.9930  202.4650  148.8860 C   0  0  0  0  0  2  0  0  0  0  0  0
  161.2020  207.8660  148.3160 C   0  0  0  0  0  2  0  0  0  0  0  0
  162.3810  208.6070  148.3720 O   0  0  0  0  0  0  0  0  0  0  0  0
  162.0030  209.7490  149.1500 C   0  0  0  0  0  2  0  0  0  0  0  0
  162.4750  210.9990  148.5490 C   0  0  0  0  0  2  0  0  0  0  0  0
  161.3640  211.9150  148.3370 N   0  0  0  0  0  2  0  0  0  0  0  0
  160.1100  213.6400  147.0740 N   0  0  0  0  0  1  0  0  0  0  0  0
  161.2730  212.8220  147.2490 C   0  0  0  0  0  0  0  0  0  0  0  0
  162.1850  212.8900  146.3450 O   0  0  0  0  0  0  0  0  0  0  0  0
  1 43  1  1  0  0  0
  1 26  1  0  0  0  0
  2  1  1  0  0  0  0
  3  2  1  0  0  0  0
  4  3  1  0  0  0  0
  5  9  1  6  0  0  0
  5  6  1  0  0  0  0
  5  4  1  0  0  0  0
  6  7  2  0  0  0  0
  6  8  1  0  0  0  0
 10  9  1  0  0  0  0
 11 17  2  0  0  0  0
 12 13  2  0  0  0  0
 12 21  1  0  0  0  0
 14 19  1  6  0  0  0
 14 21  1  0  0  0  0
 14 11  1  0  0  0  0
 15 24  1  0  0  0  0
 17 10  1  0  0  0  0
 18 15  1  0  0  0  0
 21 15  2  0  0  0  0
 22 16  1  6  0  0  0
 22 23  1  0  0  0  0
 22 12  1  0  0  0  0
 23 20  1  6  0  0  0
 23 14  1  0  0  0  0
 23 11  1  0  0  0  0
 24 25  1  0  0  0  0
 28 39  1  0  0  0  0
 29 27  1  0  0  0  0
 30 28  2  0  0  0  0
 31 26  1  6  0  0  0
 31 33  1  0  0  0  0
 31 32  1  0  0  0  0
 32 28  1  0  0  0  0
 32 27  1  0  0  0  0
 33 42  1  6  0  0  0
 33 29  1  0  0  0  0
 34 37  1  0  0  0  0
 35 34  2  0  0  0  0
 36 37  2  0  0  0  0
 38 35  1  0  0  0  0
 39 40  2  0  0  0  0
 39 36  1  0  0  0  0
 40 35  1  0  0  0  0
 42 41  1  0  0  0  0
 43 44  1  0  0  0  0
 44 45  1  0  0  0  0
 46 45  1  0  0  0  0
 47 46  1  0  0  0  0
 48 49  1  0  0  0  0
 49 47  1  0  0  0  0
 50 49  2  0  0  0  0
M  END
>  <MODEL>
1

>  <REMARK>
 VINA RESULT:      -6.1      0.000      0.000
  Name = 
  18 active torsions:
  status: ('A' for Active; 'I' for Inactive)
    1  A    between atoms: C_2  and  C_22
    2  A    between atoms: C_2  and  O_45
    3  A    between atoms: C_5  and  C_22
    4  A    between atoms: C_5  and  C_31
    5  A    between atoms: C_6  and  C_21
    6  A    between atoms: C_6  and  N_28
    7  A    between atoms: C_8  and  C_13
    8  A    between atoms: C_9  and  C_11
    9  A    between atoms: C_9  and  C_23
   10  A    between atoms: C_11  and  C_18
   11  A    between atoms: C_11  and  C_32
   12  A    between atoms: C_15  and  C_23
   13  A    between atoms: C_17  and  C_18
   14  A    between atoms: C_17  and  O_46
   15  A    between atoms: C_19  and  C_42
   16  A    between atoms: C_21  and  O_45
   17  A    between atoms: C_22  and  O_46
   18  A    between atoms: C_38  and  C_50
                            x       y       z     vdW  Elec       q    Type
                         _______ _______ _______ _____ _____    ______ ____

>  <TORSDO>
F 18

$$$$
=
 OpenBabel11072410433D

 50 53  0  0  1  0  0  0  0  0999 V2000
  161.1160  206.5350  148.4740 C   0  0  2  0  0  3  0  0  0  0  0  0
  161.4890  206.7430  147.2060 O   0  0  0  0  0  0  0  0  0  0  0  0
  160.4340  206.1450  146.4480 C   0  0  0  0  0  2  0  0  0  0  0  0
  160.6530  206.4090  145.0250 C   0  0  0  0  0  2  0  0  0  0  0  0
  161.3590  205.2760  144.3100 C   0  0  1  0  0  3  0  0  0  0  0  0
  160.8300  203.9040  144.6670 C   0  0  0  0  0  0  0  0  0  0  0  0
  161.4140  203.0730  145.6330 O   0  0  0  0  0  1  0  0  0  0  0  0
  159.6880  203.5560  144.1800 O   0  0  0  0  0  0  0  0  0  0  0  0
  161.2060  205.5000  142.8040 C   0  0  0  0  0  2  0  0  0  0  0  0
  161.9510  206.7840  142.2970 C   0  0  0  0  0  2  0  0  0  0  0  0
  161.9290  207.9790  140.1010 C   0  0  0  0  0  0  0  0  0  0  0  0
  159.5970  209.6690  139.0290 C   0  0  0  0  0  0  0  0  0  0  0  0
  158.3040  209.8510  139.2480 C   0  0  0  0  0  2  0  0  0  0  0  0
  161.8980  209.4670  139.6690 C   0  0  2  0  0  0  0  0  0  0  0  0
  160.6040  211.5300  140.3440 C   0  0  0  0  0  0  0  0  0  0  0  0
  159.7960  208.2410  137.0990 O   0  0  0  0  0  1  0  0  0  0  0  0
  161.8890  206.8730  140.8230 C   0  0  0  0  0  3  0  0  0  0  0  0
  159.4350  212.2710  140.2060 O   0  0  0  0  0  1  0  0  0  0  0  0
  163.2630  210.1200  139.4970 C   0  0  0  0  0  1  0  0  0  0  0  0
  162.5630  208.1230  137.7080 F   0  0  0  0  0  0  0  0  0  0  0  0
  160.6810  210.3450  139.7700 C   0  0  0  0  0  0  0  0  0  0  0  0
  160.1360  208.4210  138.4310 C   0  0  1  0  0  3  0  0  0  0  0  0
  161.6200  208.4990  138.6650 C   0  0  1  0  0  0  0  0  0  0  0  0
  161.7620  212.1400  141.0770 C   0  0  0  0  0  2  0  0  0  0  0  0
  161.6270  211.9880  142.4480 O   0  0  0  0  0  1  0  0  0  0  0  0
  162.0660  207.2080  149.5310 C   0  0  0  0  0  2  0  0  0  0  0  0
  161.8140  210.4920  151.2560 C   0  0  0  0  0  2  0  0  0  0  0  0
  162.2450  210.1570  148.7810 C   0  0  0  0  0  0  0  0  0  0  0  0
  161.6090  209.5340  152.4280 C   0  0  0  0  0  2  0  0  0  0  0  0
  163.0540  209.4290  148.1080 O   0  0  0  0  0  0  0  0  0  0  0  0
  161.3990  208.2880  150.4200 C   0  0  2  0  0  3  0  0  0  0  0  0
  161.7440  209.6520  150.0470 N   0  0  0  0  0  0  0  0  0  0  0  0
  161.9420  208.1840  151.8200 C   0  0  2  0  0  3  0  0  0  0  0  0
  161.4270  214.1040  147.3680 C   0  0  0  0  0  3  0  0  0  0  0  0
  160.4220  213.1320  147.3290 C   0  0  0  0  0  0  0  0  0  0  0  0
  162.9440  212.4820  148.2910 C   0  0  0  0  0  3  0  0  0  0  0  0
  162.7030  213.7700  147.8320 C   0  0  0  0  0  3  0  0  0  0  0  0
  159.1260  213.4690  146.8680 N   0  0  0  0  0  1  0  0  0  0  0  0
  161.9510  211.4910  148.2760 C   0  0  0  0  0  0  0  0  0  0  0  0
  160.6830  211.8380  147.7640 C   0  0  0  0  0  3  0  0  0  0  0  0
  160.8800  207.1820  153.9360 C   0  0  0  0  0  1  0  0  0  0  0  0
  161.6720  206.9250  152.6720 C   0  0  0  0  0  2  0  0  0  0  0  0
  160.7920  205.0660  148.7790 C   0  0  0  0  0  2  0  0  0  0  0  0
  161.5560  204.5200  149.8080 O   0  0  0  0  0  0  0  0  0  0  0  0
  160.5680  204.1230  150.7650 C   0  0  0  0  0  2  0  0  0  0  0  0
  160.8480  202.7970  151.3220 C   0  0  0  0  0  2  0  0  0  0  0  0
  161.4270  201.9290  150.3080 N   0  0  0  0  0  2  0  0  0  0  0  0
  161.3340  200.4840  148.2950 N   0  0  0  0  0  1  0  0  0  0  0  0
  160.6770  201.2660  149.3000 C   0  0  0  0  0  0  0  0  0  0  0  0
  159.4020  201.4010  149.2060 O   0  0  0  0  0  0  0  0  0  0  0  0
  1 43  1  1  0  0  0
  1 26  1  0  0  0  0
  2  1  1  0  0  0  0
  3  2  1  0  0  0  0
  4  3  1  0  0  0  0
  5  9  1  6  0  0  0
  5  6  1  0  0  0  0
  5  4  1  0  0  0  0
  6  7  1  0  0  0  0
  8  6  2  0  0  0  0
 10  9  1  0  0  0  0
 11 17  2  0  0  0  0
 12 13  2  0  0  0  0
 12 21  1  0  0  0  0
 14 19  1  6  0  0  0
 14 21  1  0  0  0  0
 14 11  1  0  0  0  0
 15 24  1  0  0  0  0
 17 10  1  0  0  0  0
 18 15  1  0  0  0  0
 21 15  2  0  0  0  0
 22 16  1  6  0  0  0
 22 23  1  0  0  0  0
 22 12  1  0  0  0  0
 23 20  1  6  0  0  0
 23 14  1  0  0  0  0
 23 11  1  0  0  0  0
 24 25  1  0  0  0  0
 27 29  1  0  0  0  0
 28 32  1  0  0  0  0
 30 28  2  0  0  0  0
 31 26  1  6  0  0  0
 31 33  1  0  0  0  0
 32 31  1  0  0  0  0
 32 27  1  0  0  0  0
 33 29  1  0  0  0  0
 33 42  1  1  0  0  0
 34 37  1  0  0  0  0
 35 34  2  0  0  0  0
 35 40  1  0  0  0  0
 37 36  2  0  0  0  0
 38 35  1  0  0  0  0
 39 36  1  0  0  0  0
 39 28  1  0  0  0  0
 40 39  2  0  0  0  0
 42 41  1  0  0  0  0
 43 44  1  0  0  0  0
 44 45  1  0  0  0  0
 45 46  1  0  0  0  0
 47 46  1  0  0  0  0
 48 49  1  0  0  0  0
 49 47  1  0  0  0  0
 50 49  2  0  0  0  0
M  END
>  <MODEL>
2

>  <REMARK>
 VINA RESULT:      -5.9      1.613      5.446
  Name = 
  18 active torsions:
  status: ('A' for Active; 'I' for Inactive)
    1  A    between atoms: C_2  and  C_22
    2  A    between atoms: C_2  and  O_45
    3  A    between atoms: C_5  and  C_22
    4  A    between atoms: C_5  and  C_31
    5  A    between atoms: C_6  and  C_21
    6  A    between atoms: C_6  and  N_28
    7  A    between atoms: C_8  and  C_13
    8  A    between atoms: C_9  and  C_11
    9  A    between atoms: C_9  and  C_23
   10  A    between atoms: C_11  and  C_18
   11  A    between atoms: C_11  and  C_32
   12  A    between atoms: C_15  and  C_23
   13  A    between atoms: C_17  and  C_18
   14  A    between atoms: C_17  and  O_46
   15  A    between atoms: C_19  and  C_42
   16  A    between atoms: C_21  and  O_45
   17  A    between atoms: C_22  and  O_46
   18  A    between atoms: C_38  and  C_50
                            x       y       z     vdW  Elec       q    Type
                         _______ _______ _______ _____ _____    ______ ____

>  <TORSDO>
F 18

$$$$
=
 OpenBabel11072410433D

 50 53  0  0  1  0  0  0  0  0999 V2000
  161.8620  209.1960  149.2210 C   0  0  2  0  0  3  0  0  0  0  0  0
  162.5830  210.1450  149.8300 O   0  0  0  0  0  0  0  0  0  0  0  0
  162.3110  211.3150  149.0550 C   0  0  0  0  0  2  0  0  0  0  0  0
  160.9870  211.8300  149.4080 C   0  0  0  0  0  2  0  0  0  0  0  0
  160.8530  213.3240  149.1990 C   0  0  1  0  0  3  0  0  0  0  0  0
  160.2160  213.7020  147.8790 C   0  0  0  0  0  0  0  0  0  0  0  0
  159.0310  214.4440  147.7720 O   0  0  0  0  0  1  0  0  0  0  0  0
  160.8890  213.4790  146.8030 O   0  0  0  0  0  0  0  0  0  0  0  0
  160.0120  213.8870  150.3460 C   0  0  0  0  0  2  0  0  0  0  0  0
  160.1760  213.0800  151.6800 C   0  0  0  0  0  2  0  0  0  0  0  0
  158.9380  213.1480  153.8520 C   0  0  0  0  0  0  0  0  0  0  0  0
  158.2930  210.7030  155.5980 C   0  0  0  0  0  0  0  0  0  0  0  0
  158.2370  209.3830  155.4990 C   0  0  0  0  0  2  0  0  0  0  0  0
  159.3090  212.8570  155.3290 C   0  0  2  0  0  0  0  0  0  0  0  0
  160.5630  211.0450  156.5660 C   0  0  0  0  0  0  0  0  0  0  0  0
  156.0330  211.5220  155.4470 O   0  0  0  0  0  1  0  0  0  0  0  0
  158.9800  213.2380  152.5340 C   0  0  0  0  0  3  0  0  0  0  0  0
  160.5190  209.7790  157.1390 O   0  0  0  0  0  1  0  0  0  0  0  0
  159.8360  214.0520  156.1110 C   0  0  0  0  0  1  0  0  0  0  0  0
  157.1830  214.1120  155.3130 F   0  0  0  0  0  0  0  0  0  0  0  0
  159.5180  211.4750  155.8850 C   0  0  0  0  0  0  0  0  0  0  0  0
  157.3150  211.5950  154.9250 C   0  0  1  0  0  3  0  0  0  0  0  0
  157.9240  212.9670  155.0210 C   0  0  1  0  0  0  0  0  0  0  0  0
  161.7680  211.9050  156.8090 C   0  0  0  0  0  2  0  0  0  0  0  0
  162.8960  211.1350  157.0510 O   0  0  0  0  0  1  0  0  0  0  0  0
  160.8280  208.4820  150.1660 C   0  0  0  0  0  2  0  0  0  0  0  0
  160.9560  205.9890  152.9230 C   0  0  0  0  0  2  0  0  0  0  0  0
  160.5920  205.4590  150.4710 C   0  0  0  0  0  0  0  0  0  0  0  0
  161.1580  207.2900  153.6990 C   0  0  0  0  0  2  0  0  0  0  0  0
  159.8180  205.9220  149.5640 O   0  0  0  0  0  0  0  0  0  0  0  0
  161.4460  207.7650  151.3920 C   0  0  2  0  0  3  0  0  0  0  0  0
  161.0760  206.3610  151.5010 N   0  0  0  0  0  0  0  0  0  0  0  0
  160.8730  208.3530  152.6540 C   0  0  2  0  0  3  0  0  0  0  0  0
  161.4610  201.2760  150.5060 C   0  0  0  0  0  3  0  0  0  0  0  0
  161.0760  201.8940  149.3120 C   0  0  0  0  0  0  0  0  0  0  0  0
  161.2390  203.3790  151.6520 C   0  0  0  0  0  3  0  0  0  0  0  0
  161.5210  202.0200  151.6880 C   0  0  0  0  0  3  0  0  0  0  0  0
  161.0220  201.1450  148.1100 N   0  0  0  0  0  1  0  0  0  0  0  0
  160.8650  204.0270  150.4650 C   0  0  0  0  0  0  0  0  0  0  0  0
  160.7680  203.2490  149.2920 C   0  0  0  0  0  3  0  0  0  0  0  0
  162.6150  210.1410  153.2680 C   0  0  0  0  0  1  0  0  0  0  0  0
  161.1550  209.8240  153.0280 C   0  0  0  0  0  2  0  0  0  0  0  0
  162.7140  208.2250  148.3910 C   0  0  0  0  0  2  0  0  0  0  0  0
  162.3920  206.8830  148.5830 O   0  0  0  0  0  0  0  0  0  0  0  0
  162.3400  206.3720  147.2460 C   0  0  0  0  0  2  0  0  0  0  0  0
  160.9620  206.2270  146.7700 C   0  0  0  0  0  2  0  0  0  0  0  0
  160.9070  206.3550  145.3210 N   0  0  0  0  0  2  0  0  0  0  0  0
  161.2850  205.5720  142.9990 N   0  0  0  0  0  1  0  0  0  0  0  0
  161.4430  205.4040  144.4130 C   0  0  0  0  0  0  0  0  0  0  0  0
  162.0180  204.3290  144.8200 O   0  0  0  0  0  0  0  0  0  0  0  0
  1 43  1  1  0  0  0
  1  2  1  0  0  0  0
  1 26  1  0  0  0  0
  3  4  1  0  0  0  0
  3  2  1  0  0  0  0
  5  4  1  1  0  0  0
  5  9  1  0  0  0  0
  6  5  1  0  0  0  0
  7  6  1  0  0  0  0
  8  6  2  0  0  0  0
  9 10  1  0  0  0  0
 10 17  1  0  0  0  0
 11 23  1  0  0  0  0
 11 14  1  0  0  0  0
 12 21  1  0  0  0  0
 13 12  2  0  0  0  0
 14 21  1  0  0  0  0
 14 19  1  1  0  0  0
 15 24  1  0  0  0  0
 15 18  1  0  0  0  0
 17 11  2  0  0  0  0
 21 15  2  0  0  0  0
 22 23  1  0  0  0  0
 22 16  1  1  0  0  0
 22 12  1  0  0  0  0
 23 20  1  1  0  0  0
 23 14  1  0  0  0  0
 24 25  1  0  0  0  0
 27 29  1  0  0  0  0
 28 32  1  0  0  0  0
 30 28  2  0  0  0  0
 31 26  1  6  0  0  0
 31 32  1  0  0  0  0
 31 33  1  0  0  0  0
 32 27  1  0  0  0  0
 33 42  1  1  0  0  0
 33 29  1  0  0  0  0
 34 37  1  0  0  0  0
 35 34  2  0  0  0  0
 36 37  2  0  0  0  0
 38 35  1  0  0  0  0
 39 28  1  0  0  0  0
 39 36  1  0  0  0  0
 40 35  1  0  0  0  0
 40 39  2  0  0  0  0
 42 41  1  0  0  0  0
 43 44  1  0  0  0  0
 45 44  1  0  0  0  0
 46 45  1  0  0  0  0
 47 46  1  0  0  0  0
 48 49  1  0  0  0  0
 49 50  2  0  0  0  0
 49 47  1  0  0  0  0
M  END
>  <MODEL>
3

>  <REMARK>
 VINA RESULT:      -5.4      4.969     10.990
  Name = 
  18 active torsions:
  status: ('A' for Active; 'I' for Inactive)
    1  A    between atoms: C_2  and  C_22
    2  A    between atoms: C_2  and  O_45
    3  A    between atoms: C_5  and  C_22
    4  A    between atoms: C_5  and  C_31
    5  A    between atoms: C_6  and  C_21
    6  A    between atoms: C_6  and  N_28
    7  A    between atoms: C_8  and  C_13
    8  A    between atoms: C_9  and  C_11
    9  A    between atoms: C_9  and  C_23
   10  A    between atoms: C_11  and  C_18
   11  A    between atoms: C_11  and  C_32
   12  A    between atoms: C_15  and  C_23
   13  A    between atoms: C_17  and  C_18
   14  A    between atoms: C_17  and  O_46
   15  A    between atoms: C_19  and  C_42
   16  A    between atoms: C_21  and  O_45
   17  A    between atoms: C_22  and  O_46
   18  A    between atoms: C_38  and  C_50
                            x       y       z     vdW  Elec       q    Type
                         _______ _______ _______ _____ _____    ______ ____

>  <TORSDO>
F 18

$$$$
=
 OpenBabel11072410433D

 50 53  0  0  1  0  0  0  0  0999 V2000
  161.6850  210.7790  149.1380 C   0  0  2  0  0  3  0  0  0  0  0  0
  162.3960  209.8230  148.5280 O   0  0  0  0  0  0  0  0  0  0  0  0
  161.6330  208.6380  148.7690 C   0  0  0  0  0  2  0  0  0  0  0  0
  162.5450  207.5180  149.0080 C   0  0  0  0  0  2  0  0  0  0  0  0
  161.9420  206.4320  149.8740 C   0  0  1  0  0  3  0  0  0  0  0  0
  161.8850  206.7840  151.3450 C   0  0  0  0  0  0  0  0  0  0  0  0
  160.7900  207.4140  151.9520 O   0  0  0  0  0  0  0  0  0  0  0  0
  162.8180  206.3260  152.1070 O   0  0  0  0  0  1  0  0  0  0  0  0
  160.5260  206.1540  149.3660 C   0  0  0  0  0  2  0  0  0  0  0  0
  159.9240  204.8180  149.9250 C   0  0  0  0  0  2  0  0  0  0  0  0
  161.3110  203.4950  148.3210 C   0  0  0  0  0  0  0  0  0  0  0  0
  160.2340  202.0170  145.8510 C   0  0  0  0  0  0  0  0  0  0  0  0
  159.0830  201.5760  145.3660 C   0  0  0  0  0  2  0  0  0  0  0  0
  161.6950  203.6470  146.8260 C   0  0  2  0  0  0  0  0  0  0  0  0
  160.4760  204.2040  144.6830 C   0  0  0  0  0  0  0  0  0  0  0  0
  161.3670  200.1230  146.8170 O   0  0  0  0  0  1  0  0  0  0  0  0
  160.7420  203.6620  149.5010 C   0  0  0  0  0  3  0  0  0  0  0  0
  159.6920  203.7400  143.6330 O   0  0  0  0  0  1  0  0  0  0  0  0
  162.9640  204.4470  146.5630 C   0  0  0  0  0  1  0  0  0  0  0  0
  163.2310  202.0010  147.8390 F   0  0  0  0  0  0  0  0  0  0  0  0
  160.7470  203.3910  145.6860 C   0  0  0  0  0  0  0  0  0  0  0  0
  160.8850  201.4050  147.0370 C   0  0  1  0  0  3  0  0  0  0  0  0
  161.9530  202.3870  147.4330 C   0  0  1  0  0  0  0  0  0  0  0  0
  161.0470  205.5890  144.6000 C   0  0  0  0  0  2  0  0  0  0  0  0
  160.3020  206.4880  145.3470 O   0  0  0  0  0  1  0  0  0  0  0  0
  161.7220  212.1650  148.3960 C   0  0  0  0  0  2  0  0  0  0  0  0
  159.5460  214.1970  146.1680 C   0  0  0  0  0  2  0  0  0  0  0  0
  161.6670  213.0020  145.4660 C   0  0  0  0  0  0  0  0  0  0  0  0
  158.8070  214.3350  147.4980 C   0  0  0  0  0  2  0  0  0  0  0  0
  162.8560  212.9430  145.9370 O   0  0  0  0  0  0  0  0  0  0  0  0
  160.3910  212.5820  147.7220 C   0  0  2  0  0  3  0  0  0  0  0  0
  160.5580  213.1480  146.3910 N   0  0  0  0  0  0  0  0  0  0  0  0
  159.7820  213.7250  148.4890 C   0  0  2  0  0  3  0  0  0  0  0  0
  161.1780  212.9480  141.2220 C   0  0  0  0  0  3  0  0  0  0  0  0
  162.3380  213.4980  141.7790 C   0  0  0  0  0  0  0  0  0  0  0  0
  160.3530  212.4790  143.4320 C   0  0  0  0  0  3  0  0  0  0  0  0
  160.1700  212.4560  142.0560 C   0  0  0  0  0  3  0  0  0  0  0  0
  163.3650  213.9900  140.9370 N   0  0  0  0  0  1  0  0  0  0  0  0
  161.5110  213.0110  144.0170 C   0  0  0  0  0  0  0  0  0  0  0  0
  162.4980  213.5420  143.1590 C   0  0  0  0  0  3  0  0  0  0  0  0
  160.0380  214.3540  150.9680 C   0  0  0  0  0  1  0  0  0  0  0  0
  159.3000  213.5230  149.9420 C   0  0  0  0  0  2  0  0  0  0  0  0
  161.9650  210.8760  150.6450 C   0  0  0  0  0  2  0  0  0  0  0  0
  160.9480  210.3560  151.4440 O   0  0  0  0  0  0  0  0  0  0  0  0
  161.0100  211.1790  152.6140 C   0  0  0  0  0  2  0  0  0  0  0  0
  161.2310  210.3880  153.8270 C   0  0  0  0  0  2  0  0  0  0  0  0
  160.6110  211.0310  154.9760 N   0  0  0  0  0  2  0  0  0  0  0  0
  159.2740  211.0530  157.0640 N   0  0  0  0  0  1  0  0  0  0  0  0
  159.7900  210.3600  155.9210 C   0  0  0  0  0  0  0  0  0  0  0  0
  159.5410  209.1020  155.8300 O   0  0  0  0  0  0  0  0  0  0  0  0
  1 26  1  6  0  0  0
  1 43  1  0  0  0  0
  2  3  1  0  0  0  0
  2  1  1  0  0  0  0
  3  4  1  0  0  0  0
  5  4  1  6  0  0  0
  5  6  1  0  0  0  0
  6  7  2  0  0  0  0
  6  8  1  0  0  0  0
  9  5  1  0  0  0  0
  9 10  1  0  0  0  0
 11 17  2  0  0  0  0
 12 22  1  0  0  0  0
 13 12  2  0  0  0  0
 14 19  1  6  0  0  0
 14 23  1  0  0  0  0
 14 11  1  0  0  0  0
 15 21  2  0  0  0  0
 17 10  1  0  0  0  0
 18 15  1  0  0  0  0
 21 12  1  0  0  0  0
 21 14  1  0  0  0  0
 22 16  1  6  0  0  0
 22 23  1  0  0  0  0
 23 20  1  1  0  0  0
 23 11  1  0  0  0  0
 24 15  1  0  0  0  0
 24 25  1  0  0  0  0
 27 32  1  0  0  0  0
 27 29  1  0  0  0  0
 28 30  2  0  0  0  0
 28 32  1  0  0  0  0
 29 33  1  0  0  0  0
 31 26  1  1  0  0  0
 31 33  1  0  0  0  0
 32 31  1  0  0  0  0
 33 42  1  1  0  0  0
 34 35  2  0  0  0  0
 34 37  1  0  0  0  0
 35 40  1  0  0  0  0
 36 39  1  0  0  0  0
 37 36  2  0  0  0  0
 38 35  1  0  0  0  0
 39 28  1  0  0  0  0
 40 39  2  0  0  0  0
 42 41  1  0  0  0  0
 43 44  1  0  0  0  0
 44 45  1  0  0  0  0
 45 46  1  0  0  0  0
 46 47  1  0  0  0  0
 47 49  1  0  0  0  0
 49 48  1  0  0  0  0
 50 49  2  0  0  0  0
M  END
>  <MODEL>
4

>  <REMARK>
 VINA RESULT:      -4.9      3.524      9.504
  Name = 
  18 active torsions:
  status: ('A' for Active; 'I' for Inactive)
    1  A    between atoms: C_2  and  C_22
    2  A    between atoms: C_2  and  O_45
    3  A    between atoms: C_5  and  C_22
    4  A    between atoms: C_5  and  C_31
    5  A    between atoms: C_6  and  C_21
    6  A    between atoms: C_6  and  N_28
    7  A    between atoms: C_8  and  C_13
    8  A    between atoms: C_9  and  C_11
    9  A    between atoms: C_9  and  C_23
   10  A    between atoms: C_11  and  C_18
   11  A    between atoms: C_11  and  C_32
   12  A    between atoms: C_15  and  C_23
   13  A    between atoms: C_17  and  C_18
   14  A    between atoms: C_17  and  O_46
   15  A    between atoms: C_19  and  C_42
   16  A    between atoms: C_21  and  O_45
   17  A    between atoms: C_22  and  O_46
   18  A    between atoms: C_38  and  C_50
                            x       y       z     vdW  Elec       q    Type
                         _______ _______ _______ _____ _____    ______ ____

>  <TORSDO>
F 18

$$$$
=
 OpenBabel11072410433D

 50 53  0  0  1  0  0  0  0  0999 V2000
  161.6470  212.9680  148.1700 C   0  0  2  0  0  3  0  0  0  0  0  0
  160.6030  212.9100  149.0050 O   0  0  0  0  0  0  0  0  0  0  0  0
  160.6970  214.1330  149.7380 C   0  0  0  0  0  2  0  0  0  0  0  0
  160.0370  213.9700  151.0350 C   0  0  0  0  0  2  0  0  0  0  0  0
  159.2610  212.6750  151.1500 C   0  0  1  0  0  3  0  0  0  0  0  0
  159.8720  211.6770  152.1090 C   0  0  0  0  0  0  0  0  0  0  0  0
  159.1530  210.6370  152.7130 O   0  0  0  0  0  1  0  0  0  0  0  0
  161.1550  211.6830  152.2420 O   0  0  0  0  0  0  0  0  0  0  0  0
  157.8420  213.0140  151.6110 C   0  0  0  0  0  2  0  0  0  0  0  0
  157.7240  214.4520  152.2250 C   0  0  0  0  0  2  0  0  0  0  0  0
  157.4140  213.8930  154.6420 C   0  0  0  0  0  0  0  0  0  0  0  0
  156.9660  211.0660  155.7610 C   0  0  0  0  0  0  0  0  0  0  0  0
  156.6050  209.8640  155.3390 C   0  0  0  0  0  2  0  0  0  0  0  0
  158.2330  213.1000  155.6920 C   0  0  2  0  0  0  0  0  0  0  0  0
  159.4510  210.8860  155.7550 C   0  0  0  0  0  0  0  0  0  0  0  0
  155.0310  212.0660  156.7900 O   0  0  0  0  0  1  0  0  0  0  0  0
  156.9860  214.4120  153.5050 C   0  0  0  0  0  3  0  0  0  0  0  0
  159.3590  209.5090  155.9260 O   0  0  0  0  0  1  0  0  0  0  0  0
  159.2460  213.9210  156.4780 C   0  0  0  0  0  1  0  0  0  0  0  0
  156.5590  214.4530  156.9010 F   0  0  0  0  0  0  0  0  0  0  0  0
  158.3420  211.5990  155.7120 C   0  0  0  0  0  0  0  0  0  0  0  0
  156.0160  212.2060  155.8240 C   0  0  1  0  0  3  0  0  0  0  0  0
  156.8870  213.4150  156.0280 C   0  0  1  0  0  0  0  0  0  0  0  0
  160.8110  211.5170  155.7000 C   0  0  0  0  0  2  0  0  0  0  0  0
  161.7220  210.6970  155.0530 O   0  0  0  0  0  1  0  0  0  0  0  0
  161.3400  213.7220  146.8250 C   0  0  0  0  0  2  0  0  0  0  0  0
  159.3050  213.2800  143.7440 C   0  0  0  0  0  2  0  0  0  0  0  0
  161.8250  213.5380  143.8210 C   0  0  0  0  0  0  0  0  0  0  0  0
  158.2150  213.2700  144.8140 C   0  0  0  0  0  2  0  0  0  0  0  0
  162.6200  214.3580  144.3970 O   0  0  0  0  0  0  0  0  0  0  0  0
  160.3090  213.0240  145.9020 C   0  0  2  0  0  3  0  0  0  0  0  0
  160.5780  213.1960  144.4820 N   0  0  0  0  0  0  0  0  0  0  0  0
  158.9680  213.6880  146.0650 C   0  0  2  0  0  3  0  0  0  0  0  0
  162.8420  212.2390  139.8800 C   0  0  0  0  0  3  0  0  0  0  0  0
  162.2240  211.3500  140.7650 C   0  0  0  0  0  0  0  0  0  0  0  0
  162.8140  213.9360  141.5850 C   0  0  0  0  0  3  0  0  0  0  0  0
  163.1590  213.5340  140.3010 C   0  0  0  0  0  3  0  0  0  0  0  0
  161.8940  210.0400  140.3390 N   0  0  0  0  0  1  0  0  0  0  0  0
  162.1810  213.0690  142.4880 C   0  0  0  0  0  0  0  0  0  0  0  0
  161.9100  211.7530  142.0570 C   0  0  0  0  0  3  0  0  0  0  0  0
  156.7760  214.0690  147.3520 C   0  0  0  0  0  1  0  0  0  0  0  0
  158.2190  213.6180  147.4130 C   0  0  0  0  0  2  0  0  0  0  0  0
  162.3460  211.6150  147.9760 C   0  0  0  0  0  2  0  0  0  0  0  0
  161.5030  210.5150  148.1270 O   0  0  0  0  0  0  0  0  0  0  0  0
  162.3260  209.5770  148.8300 C   0  0  0  0  0  2  0  0  0  0  0  0
  161.6500  209.0370  150.0130 C   0  0  0  0  0  2  0  0  0  0  0  0
  162.2620  207.7820  150.4210 N   0  0  0  0  0  2  0  0  0  0  0  0
  162.7420  205.9560  152.0290 N   0  0  0  0  0  1  0  0  0  0  0  0
  162.1690  207.2350  151.7280 C   0  0  0  0  0  0  0  0  0  0  0  0
  161.5090  207.8220  152.6630 O   0  0  0  0  0  0  0  0  0  0  0  0
  1 26  1  6  0  0  0
  1  2  1  0  0  0  0
  2  3  1  0  0  0  0
  3  4  1  0  0  0  0
  5  4  1  1  0  0  0
  5  9  1  0  0  0  0
  5  6  1  0  0  0  0
  6  8  2  0  0  0  0
  6  7  1  0  0  0  0
  9 10  1  0  0  0  0
 10 17  1  0  0  0  0
 11 14  1  0  0  0  0
 11 23  1  0  0  0  0
 12 22  1  0  0  0  0
 13 12  2  0  0  0  0
 14 21  1  0  0  0  0
 14 23  1  0  0  0  0
 14 19  1  1  0  0  0
 15 18  1  0  0  0  0
 17 11  2  0  0  0  0
 21 15  2  0  0  0  0
 21 12  1  0  0  0  0
 22 23  1  0  0  0  0
 22 16  1  1  0  0  0
 23 20  1  1  0  0  0
 24 15  1  0  0  0  0
 25 24  1  0  0  0  0
 27 32  1  0  0  0  0
 27 29  1  0  0  0  0
 28 30  2  0  0  0  0
 28 32  1  0  0  0  0
 29 33  1  0  0  0  0
 31 33  1  0  0  0  0
 31 26  1  1  0  0  0
 32 31  1  0  0  0  0
 33 42  1  1  0  0  0
 34 37  2  0  0  0  0
 34 35  1  0  0  0  0
 35 40  2  0  0  0  0
 36 39  2  0  0  0  0
 37 36  1  0  0  0  0
 38 35  1  0  0  0  0
 39 28  1  0  0  0  0
 40 39  1  0  0  0  0
 41 42  1  0  0  0  0
 43 44  1  0  0  0  0
 43  1  1  0  0  0  0
 44 45  1  0  0  0  0
 45 46  1  0  0  0  0
 46 47  1  0  0  0  0
 47 49  1  0  0  0  0
 49 48  1  0  0  0  0
 49 50  2  0  0  0  0
M  END
>  <MODEL>
5

>  <REMARK>
 VINA RESULT:      -4.6      5.167     12.960
  Name = 
  18 active torsions:
  status: ('A' for Active; 'I' for Inactive)
    1  A    between atoms: C_2  and  C_22
    2  A    between atoms: C_2  and  O_45
    3  A    between atoms: C_5  and  C_22
    4  A    between atoms: C_5  and  C_31
    5  A    between atoms: C_6  and  C_21
    6  A    between atoms: C_6  and  N_28
    7  A    between atoms: C_8  and  C_13
    8  A    between atoms: C_9  and  C_11
    9  A    between atoms: C_9  and  C_23
   10  A    between atoms: C_11  and  C_18
   11  A    between atoms: C_11  and  C_32
   12  A    between atoms: C_15  and  C_23
   13  A    between atoms: C_17  and  C_18
   14  A    between atoms: C_17  and  O_46
   15  A    between atoms: C_19  and  C_42
   16  A    between atoms: C_21  and  O_45
   17  A    between atoms: C_22  and  O_46
   18  A    between atoms: C_38  and  C_50
                            x       y       z     vdW  Elec       q    Type
                         _______ _______ _______ _____ _____    ______ ____

>  <TORSDO>
F 18

$$$$
=
 OpenBabel11072410433D

 50 53  0  0  1  0  0  0  0  0999 V2000
  161.3680  209.4300  151.3030 C   0  0  2  0  0  3  0  0  0  0  0  0
  162.2460  208.8320  150.4890 O   0  0  0  0  0  0  0  0  0  0  0  0
  162.2910  207.4900  150.9790 C   0  0  0  0  0  2  0  0  0  0  0  0
  161.1870  206.7260  150.3950 C   0  0  0  0  0  2  0  0  0  0  0  0
  161.4590  205.2380  150.3320 C   0  0  1  0  0  3  0  0  0  0  0  0
  161.3980  204.5480  151.6770 C   0  0  0  0  0  0  0  0  0  0  0  0
  162.0770  203.3570  151.9710 O   0  0  0  0  0  0  0  0  0  0  0  0
  160.8330  205.1780  152.6490 O   0  0  0  0  0  1  0  0  0  0  0  0
  160.4280  204.6090  149.3930 C   0  0  0  0  0  2  0  0  0  0  0  0
  159.9540  203.1910  149.8660 C   0  0  0  0  0  2  0  0  0  0  0  0
  160.9330  202.3600  147.7210 C   0  0  0  0  0  0  0  0  0  0  0  0
  159.9070  203.0750  144.9130 C   0  0  0  0  0  0  0  0  0  0  0  0
  158.8260  203.5760  144.3360 C   0  0  0  0  0  2  0  0  0  0  0  0
  161.6750  203.0220  146.5310 C   0  0  2  0  0  0  0  0  0  0  0  0
  161.3580  205.0900  145.1140 C   0  0  0  0  0  0  0  0  0  0  0  0
  159.8240  200.6850  144.6230 O   0  0  0  0  0  1  0  0  0  0  0  0
  160.2440  202.1740  148.8330 C   0  0  0  0  0  3  0  0  0  0  0  0
  160.7130  205.6730  144.0290 O   0  0  0  0  0  1  0  0  0  0  0  0
  163.1890  203.0900  146.6710 C   0  0  0  0  0  1  0  0  0  0  0  0
  162.0400  200.5840  146.3910 F   0  0  0  0  0  0  0  0  0  0  0  0
  161.0010  203.8790  145.4940 C   0  0  0  0  0  0  0  0  0  0  0  0
  159.9270  201.7260  145.5330 C   0  0  1  0  0  3  0  0  0  0  0  0
  161.1980  201.6960  146.3360 C   0  0  1  0  0  0  0  0  0  0  0  0
  162.4880  205.8320  145.7650 C   0  0  0  0  0  2  0  0  0  0  0  0
  162.0530  206.5430  146.8730 O   0  0  0  0  0  1  0  0  0  0  0  0
  161.5510  210.9900  151.3940 C   0  0  0  0  0  2  0  0  0  0  0  0
  159.8360  213.8400  149.7320 C   0  0  0  0  0  2  0  0  0  0  0  0
  161.5590  212.3260  148.6550 C   0  0  0  0  0  0  0  0  0  0  0  0
  159.2210  213.9080  151.1290 C   0  0  0  0  0  2  0  0  0  0  0  0
  162.7180  211.9070  149.0000 O   0  0  0  0  0  0  0  0  0  0  0  0
  160.3320  211.8210  150.9210 C   0  0  2  0  0  3  0  0  0  0  0  0
  160.5680  212.5610  149.6890 N   0  0  0  0  0  0  0  0  0  0  0  0
  160.0630  212.9190  151.9150 C   0  0  2  0  0  3  0  0  0  0  0  0
  160.8820  213.1390  144.5160 C   0  0  0  0  0  3  0  0  0  0  0  0
  162.0660  213.5710  145.1230 C   0  0  0  0  0  0  0  0  0  0  0  0
  160.1550  212.2220  146.6170 C   0  0  0  0  0  3  0  0  0  0  0  0
  159.9110  212.4800  145.2750 C   0  0  0  0  0  3  0  0  0  0  0  0
  163.0560  214.2330  144.3550 N   0  0  0  0  0  1  0  0  0  0  0  0
  161.3390  212.6310  147.2470 C   0  0  0  0  0  0  0  0  0  0  0  0
  162.2870  213.3340  146.4740 C   0  0  0  0  0  3  0  0  0  0  0  0
  158.6090  213.5410  153.9420 C   0  0  0  0  0  1  0  0  0  0  0  0
  159.6180  212.5790  153.3540 C   0  0  0  0  0  2  0  0  0  0  0  0
  161.2390  208.7410  152.6690 C   0  0  0  0  0  2  0  0  0  0  0  0
  161.3760  209.6050  153.7540 O   0  0  0  0  0  0  0  0  0  0  0  0
  161.0380  208.7730  154.8690 C   0  0  0  0  0  2  0  0  0  0  0  0
  161.7730  209.1540  156.0780 C   0  0  0  0  0  2  0  0  0  0  0  0
  161.6700  210.5870  156.3080 N   0  0  0  0  0  2  0  0  0  0  0  0
  160.4690  212.6590  156.9520 N   0  0  0  0  0  1  0  0  0  0  0  0
  160.4710  211.2530  156.6750 C   0  0  0  0  0  0  0  0  0  0  0  0
  159.3670  210.6160  156.8460 O   0  0  0  0  0  0  0  0  0  0  0  0
  1 26  1  1  0  0  0
  1 43  1  0  0  0  0
  2  3  1  0  0  0  0
  2  1  1  0  0  0  0
  4  3  1  0  0  0  0
  5  9  1  6  0  0  0
  5  4  1  0  0  0  0
  5  6  1  0  0  0  0
  6  7  2  0  0  0  0
  6  8  1  0  0  0  0
  9 10  1  0  0  0  0
 11 17  2  0  0  0  0
 12 21  1  0  0  0  0
 12 22  1  0  0  0  0
 13 12  2  0  0  0  0
 14 19  1  1  0  0  0
 14 11  1  0  0  0  0
 15 21  2  0  0  0  0
 15 24  1  0  0  0  0
 17 10  1  0  0  0  0
 18 15  1  0  0  0  0
 21 14  1  0  0  0  0
 22 16  1  6  0  0  0
 22 23  1  0  0  0  0
 23 20  1  6  0  0  0
 23 14  1  0  0  0  0
 23 11  1  0  0  0  0
 24 25  1  0  0  0  0
 27 29  1  0  0  0  0
 28 30  2  0  0  0  0
 28 32  1  0  0  0  0
 29 33  1  0  0  0  0
 31 26  1  1  0  0  0
 31 33  1  0  0  0  0
 32 27  1  0  0  0  0
 32 31  1  0  0  0  0
 33 42  1  1  0  0  0
 34 35  2  0  0  0  0
 34 37  1  0  0  0  0
 35 40  1  0  0  0  0
 36 39  1  0  0  0  0
 37 36  2  0  0  0  0
 38 35  1  0  0  0  0
 39 28  1  0  0  0  0
 40 39  2  0  0  0  0
 42 41  1  0  0  0  0
 43 44  1  0  0  0  0
 44 45  1  0  0  0  0
 45 46  1  0  0  0  0
 46 47  1  0  0  0  0
 47 49  1  0  0  0  0
 49 50  2  0  0  0  0
 49 48  1  0  0  0  0
M  END
>  <MODEL>
6

>  <REMARK>
 VINA RESULT:      -4.6      4.237      8.711
  Name = 
  18 active torsions:
  status: ('A' for Active; 'I' for Inactive)
    1  A    between atoms: C_2  and  C_22
    2  A    between atoms: C_2  and  O_45
    3  A    between atoms: C_5  and  C_22
    4  A    between atoms: C_5  and  C_31
    5  A    between atoms: C_6  and  C_21
    6  A    between atoms: C_6  and  N_28
    7  A    between atoms: C_8  and  C_13
    8  A    between atoms: C_9  and  C_11
    9  A    between atoms: C_9  and  C_23
   10  A    between atoms: C_11  and  C_18
   11  A    between atoms: C_11  and  C_32
   12  A    between atoms: C_15  and  C_23
   13  A    between atoms: C_17  and  C_18
   14  A    between atoms: C_17  and  O_46
   15  A    between atoms: C_19  and  C_42
   16  A    between atoms: C_21  and  O_45
   17  A    between atoms: C_22  and  O_46
   18  A    between atoms: C_38  and  C_50
                            x       y       z     vdW  Elec       q    Type
                         _______ _______ _______ _____ _____    ______ ____

>  <TORSDO>
F 18

$$$$
=
 OpenBabel11072410433D

 50 53  0  0  1  0  0  0  0  0999 V2000
  158.6780  213.6470  147.2710 C   0  0  2  0  0  3  0  0  0  0  0  0
  158.7340  212.7780  146.2540 O   0  0  0  0  0  0  0  0  0  0  0  0
  159.0530  213.6030  145.1310 C   0  0  0  0  0  2  0  0  0  0  0  0
  159.2190  212.7600  143.9460 C   0  0  0  0  0  2  0  0  0  0  0  0
  160.0930  213.3920  142.8830 C   0  0  1  0  0  3  0  0  0  0  0  0
  160.7740  212.3900  141.9760 C   0  0  0  0  0  0  0  0  0  0  0  0
  161.8070  212.7210  141.0880 O   0  0  0  0  0  0  0  0  0  0  0  0
  160.5070  211.1410  142.1540 O   0  0  0  0  0  1  0  0  0  0  0  0
  159.2170  214.3210  142.0410 C   0  0  0  0  0  2  0  0  0  0  0  0
  157.8150  213.7030  141.7040 C   0  0  0  0  0  2  0  0  0  0  0  0
  156.6670  213.0230  139.5900 C   0  0  0  0  0  0  0  0  0  0  0  0
  155.2870  210.3170  139.1170 C   0  0  0  0  0  0  0  0  0  0  0  0
  155.2590  209.0990  139.6350 C   0  0  0  0  0  2  0  0  0  0  0  0
  155.2000  212.7110  139.1960 C   0  0  2  0  0  0  0  0  0  0  0  0
  153.2970  211.3720  140.1820 C   0  0  0  0  0  0  0  0  0  0  0  0
  156.7120  210.2290  137.1760 O   0  0  0  0  0  1  0  0  0  0  0  0
  157.7580  213.2860  140.2870 C   0  0  0  0  0  3  0  0  0  0  0  0
  152.7050  210.1230  140.3320 O   0  0  0  0  0  1  0  0  0  0  0  0
  154.3910  213.9090  138.7180 C   0  0  0  0  0  1  0  0  0  0  0  0
  156.4860  213.0560  137.1170 F   0  0  0  0  0  0  0  0  0  0  0  0
  154.4740  211.4550  139.5910 C   0  0  0  0  0  0  0  0  0  0  0  0
  156.4700  210.8480  138.3930 C   0  0  1  0  0  3  0  0  0  0  0  0
  156.2110  212.3250  138.2730 C   0  0  1  0  0  0  0  0  0  0  0  0
  152.5400  212.5870  140.6310 C   0  0  0  0  0  2  0  0  0  0  0  0
  152.8510  212.9190  141.9410 O   0  0  0  0  0  1  0  0  0  0  0  0
  160.0530  213.8470  148.0080 C   0  0  0  0  0  2  0  0  0  0  0  0
  163.0450  211.7510  148.7010 C   0  0  0  0  0  2  0  0  0  0  0  0
  160.9980  211.9330  150.1840 C   0  0  0  0  0  0  0  0  0  0  0  0
  163.4460  212.3980  147.3760 C   0  0  0  0  0  2  0  0  0  0  0  0
  160.3210  212.9130  150.6520 O   0  0  0  0  0  0  0  0  0  0  0  0
  161.1250  212.7720  147.6990 C   0  0  2  0  0  3  0  0  0  0  0  0
  161.6180  212.0770  148.8790 N   0  0  0  0  0  0  0  0  0  0  0  0
  162.3650  213.4440  147.1730 C   0  0  2  0  0  3  0  0  0  0  0  0
  161.5620  208.5620  152.7470 C   0  0  0  0  0  3  0  0  0  0  0  0
  161.9750  208.4950  151.4120 C   0  0  0  0  0  0  0  0  0  0  0  0
  160.7640  210.8010  152.3740 C   0  0  0  0  0  3  0  0  0  0  0  0
  160.9320  209.7150  153.2240 C   0  0  0  0  0  3  0  0  0  0  0  0
  162.6210  207.3310  150.9280 N   0  0  0  0  0  1  0  0  0  0  0  0
  161.1820  210.7650  151.0350 C   0  0  0  0  0  0  0  0  0  0  0  0
  161.7760  209.5760  150.5620 C   0  0  0  0  0  3  0  0  0  0  0  0
  163.0570  213.4880  144.6970 C   0  0  0  0  0  1  0  0  0  0  0  0
  162.3350  214.1950  145.8240 C   0  0  0  0  0  2  0  0  0  0  0  0
  157.4980  213.3970  148.2200 C   0  0  0  0  0  2  0  0  0  0  0  0
  157.2900  214.4180  149.1460 O   0  0  0  0  0  0  0  0  0  0  0  0
  156.0210  214.0790  149.7150 C   0  0  0  0  0  2  0  0  0  0  0  0
  155.9390  214.4530  151.1300 C   0  0  0  0  0  2  0  0  0  0  0  0
  157.0910  213.9460  151.8590 N   0  0  0  0  0  2  0  0  0  0  0  0
  158.3160  213.2930  153.9130 N   0  0  0  0  0  1  0  0  0  0  0  0
  157.1720  213.8720  153.2750 C   0  0  0  0  0  0  0  0  0  0  0  0
  156.2010  214.2480  154.0290 O   0  0  0  0  0  0  0  0  0  0  0  0
  1 26  1  1  0  0  0
  1 43  1  0  0  0  0
  2  1  1  0  0  0  0
  3  2  1  0  0  0  0
  4  3  1  0  0  0  0
  5  9  1  6  0  0  0
  5  4  1  0  0  0  0
  6  8  1  0  0  0  0
  6  5  1  0  0  0  0
  7  6  2  0  0  0  0
 10  9  1  0  0  0  0
 11 17  2  0  0  0  0
 12 21  1  0  0  0  0
 12 13  2  0  0  0  0
 14 19  1  6  0  0  0
 14 11  1  0  0  0  0
 14 21  1  0  0  0  0
 15 18  1  0  0  0  0
 15 24  1  0  0  0  0
 17 10  1  0  0  0  0
 21 15  2  0  0  0  0
 22 16  1  6  0  0  0
 22 12  1  0  0  0  0
 23 20  1  6  0  0  0
 23 22  1  0  0  0  0
 23 14  1  0  0  0  0
 23 11  1  0  0  0  0
 24 25  1  0  0  0  0
 27 32  1  0  0  0  0
 28 30  2  0  0  0  0
 28 39  1  0  0  0  0
 29 27  1  0  0  0  0
 31 26  1  1  0  0  0
 31 32  1  0  0  0  0
 32 28  1  0  0  0  0
 33 42  1  6  0  0  0
 33 29  1  0  0  0  0
 33 31  1  0  0  0  0
 34 37  1  0  0  0  0
 35 34  2  0  0  0  0
 36 37  2  0  0  0  0
 38 35  1  0  0  0  0
 39 36  1  0  0  0  0
 40 39  2  0  0  0  0
 40 35  1  0  0  0  0
 41 42  1  0  0  0  0
 43 44  1  0  0  0  0
 44 45  1  0  0  0  0
 45 46  1  0  0  0  0
 46 47  1  0  0  0  0
 47 49  1  0  0  0  0
 49 48  1  0  0  0  0
 49 50  2  0  0  0  0
M  END
>  <MODEL>
7

>  <REMARK>
 VINA RESULT:      -4.5      4.689      7.541
  Name = 
  18 active torsions:
  status: ('A' for Active; 'I' for Inactive)
    1  A    between atoms: C_2  and  C_22
    2  A    between atoms: C_2  and  O_45
    3  A    between atoms: C_5  and  C_22
    4  A    between atoms: C_5  and  C_31
    5  A    between atoms: C_6  and  C_21
    6  A    between atoms: C_6  and  N_28
    7  A    between atoms: C_8  and  C_13
    8  A    between atoms: C_9  and  C_11
    9  A    between atoms: C_9  and  C_23
   10  A    between atoms: C_11  and  C_18
   11  A    between atoms: C_11  and  C_32
   12  A    between atoms: C_15  and  C_23
   13  A    between atoms: C_17  and  C_18
   14  A    between atoms: C_17  and  O_46
   15  A    between atoms: C_19  and  C_42
   16  A    between atoms: C_21  and  O_45
   17  A    between atoms: C_22  and  O_46
   18  A    between atoms: C_38  and  C_50
                            x       y       z     vdW  Elec       q    Type
                         _______ _______ _______ _____ _____    ______ ____

>  <TORSDO>
F 18

$$$$
=
 OpenBabel11072410433D

 50 53  0  0  1  0  0  0  0  0999 V2000
  161.8720  211.3700  148.9360 C   0  0  2  0  0  3  0  0  0  0  0  0
  161.1500  211.3370  147.8090 O   0  0  0  0  0  0  0  0  0  0  0  0
  161.0630  212.7130  147.4320 C   0  0  0  0  0  2  0  0  0  0  0  0
  161.2320  212.8270  145.9820 C   0  0  0  0  0  2  0  0  0  0  0  0
  160.0620  212.2660  145.2000 C   0  0  1  0  0  3  0  0  0  0  0  0
  158.7980  213.0890  145.3150 C   0  0  0  0  0  0  0  0  0  0  0  0
  157.5670  212.5680  145.7380 O   0  0  0  0  0  1  0  0  0  0  0  0
  158.9000  214.3670  145.1810 O   0  0  0  0  0  0  0  0  0  0  0  0
  160.4760  212.1780  143.7300 C   0  0  0  0  0  2  0  0  0  0  0  0
  159.4020  212.7720  142.7540 C   0  0  0  0  0  2  0  0  0  0  0  0
  160.2420  213.0520  140.4160 C   0  0  0  0  0  0  0  0  0  0  0  0
  162.7020  211.6350  139.2380 C   0  0  0  0  0  0  0  0  0  0  0  0
  163.7810  210.9860  139.6490 C   0  0  0  0  0  2  0  0  0  0  0  0
  160.3560  212.1240  139.1790 C   0  0  2  0  0  0  0  0  0  0  0  0
  161.1370  209.7600  138.7440 C   0  0  0  0  0  0  0  0  0  0  0  0
  163.3920  213.8720  138.6730 O   0  0  0  0  0  1  0  0  0  0  0  0
  160.0530  213.5000  141.6440 C   0  0  0  0  0  3  0  0  0  0  0  0
  162.2140  208.9110  138.5110 O   0  0  0  0  0  1  0  0  0  0  0  0
  159.1420  212.1190  138.2600 C   0  0  0  0  0  1  0  0  0  0  0  0
  160.6290  214.4530  138.4080 F   0  0  0  0  0  0  0  0  0  0  0  0
  161.3720  211.0220  139.0470 C   0  0  0  0  0  0  0  0  0  0  0  0
  162.5290  213.0960  139.4320 C   0  0  1  0  0  3  0  0  0  0  0  0
  161.0770  213.3500  139.1340 C   0  0  1  0  0  0  0  0  0  0  0  0
  159.7460  209.2250  138.5680 C   0  0  0  0  0  2  0  0  0  0  0  0
  159.7550  208.0010  137.9190 O   0  0  0  0  0  1  0  0  0  0  0  0
  162.5250  209.9890  149.3100 C   0  0  0  0  0  2  0  0  0  0  0  0
  161.1690  207.1060  151.2270 C   0  0  0  0  0  2  0  0  0  0  0  0
  161.7420  209.3790  152.1920 C   0  0  0  0  0  0  0  0  0  0  0  0
  161.2640  206.5030  149.8270 C   0  0  0  0  0  2  0  0  0  0  0  0
  162.7600  210.1500  152.1130 O   0  0  0  0  0  0  0  0  0  0  0  0
  161.5200  208.8540  149.6280 C   0  0  2  0  0  3  0  0  0  0  0  0
  161.4060  208.5500  151.0480 N   0  0  0  0  0  0  0  0  0  0  0  0
  162.0350  207.5600  149.0570 C   0  0  2  0  0  3  0  0  0  0  0  0
  159.6910  209.2720  155.9380 C   0  0  0  0  0  3  0  0  0  0  0  0
  160.5460  208.2220  155.5860 C   0  0  0  0  0  0  0  0  0  0  0  0
  160.1630  210.3450  153.8380 C   0  0  0  0  0  3  0  0  0  0  0  0
  159.4820  210.3290  155.0480 C   0  0  0  0  0  3  0  0  0  0  0  0
  160.7670  207.1530  156.4890 N   0  0  0  0  0  1  0  0  0  0  0  0
  161.0370  209.3130  153.4650 C   0  0  0  0  0  0  0  0  0  0  0  0
  161.2010  208.2340  154.3600 C   0  0  0  0  0  3  0  0  0  0  0  0
  161.1860  206.4100  146.9210 C   0  0  0  0  0  1  0  0  0  0  0  0
  162.1750  207.3800  147.5300 C   0  0  0  0  0  2  0  0  0  0  0  0
  161.1410  212.0460  150.1060 C   0  0  0  0  0  2  0  0  0  0  0  0
  161.1500  213.4380  150.0500 O   0  0  0  0  0  0  0  0  0  0  0  0
  160.1240  213.8020  150.9800 C   0  0  0  0  0  2  0  0  0  0  0  0
  159.3670  212.6350  151.4420 C   0  0  0  0  0  2  0  0  0  0  0  0
  158.0110  213.0180  151.8060 N   0  0  0  0  0  2  0  0  0  0  0  0
  156.2600  213.7820  153.3860 N   0  0  0  0  0  1  0  0  0  0  0  0
  157.6000  213.3460  153.1250 C   0  0  0  0  0  0  0  0  0  0  0  0
  158.4230  213.3390  154.1120 O   0  0  0  0  0  0  0  0  0  0  0  0
  1 26  1  1  0  0  0
  1 43  1  0  0  0  0
  2  1  1  0  0  0  0
  3  2  1  0  0  0  0
  4  3  1  0  0  0  0
  5  9  1  6  0  0  0
  5  6  1  0  0  0  0
  5  4  1  0  0  0  0
  6  7  1  0  0  0  0
  8  6  2  0  0  0  0
 10  9  1  0  0  0  0
 11 17  2  0  0  0  0
 12 22  1  0  0  0  0
 12 13  2  0  0  0  0
 14 19  1  6  0  0  0
 14 11  1  0  0  0  0
 15 21  2  0  0  0  0
 17 10  1  0  0  0  0
 18 15  1  0  0  0  0
 21 14  1  0  0  0  0
 21 12  1  0  0  0  0
 22 16  1  6  0  0  0
 23 20  1  6  0  0  0
 23 14  1  0  0  0  0
 23 22  1  0  0  0  0
 23 11  1  0  0  0  0
 24 15  1  0  0  0  0
 25 24  1  0  0  0  0
 28 39  1  0  0  0  0
 29 27  1  0  0  0  0
 30 28  2  0  0  0  0
 31 26  1  1  0  0  0
 31 32  1  0  0  0  0
 32 27  1  0  0  0  0
 32 28  1  0  0  0  0
 33 42  1  6  0  0  0
 33 31  1  0  0  0  0
 33 29  1  0  0  0  0
 35 34  1  0  0  0  0
 35 38  1  0  0  0  0
 36 37  1  0  0  0  0
 37 34  2  0  0  0  0
 39 36  2  0  0  0  0
 39 40  1  0  0  0  0
 40 35  2  0  0  0  0
 41 42  1  0  0  0  0
 44 43  1  0  0  0  0
 44 45  1  0  0  0  0
 45 46  1  0  0  0  0
 46 47  1  0  0  0  0
 47 49  1  0  0  0  0
 49 48  1  0  0  0  0
 49 50  2  0  0  0  0
M  END
>  <MODEL>
8

>  <REMARK>
 VINA RESULT:      -4.4      3.294      5.490
  Name = 
  18 active torsions:
  status: ('A' for Active; 'I' for Inactive)
    1  A    between atoms: C_2  and  C_22
    2  A    between atoms: C_2  and  O_45
    3  A    between atoms: C_5  and  C_22
    4  A    between atoms: C_5  and  C_31
    5  A    between atoms: C_6  and  C_21
    6  A    between atoms: C_6  and  N_28
    7  A    between atoms: C_8  and  C_13
    8  A    between atoms: C_9  and  C_11
    9  A    between atoms: C_9  and  C_23
   10  A    between atoms: C_11  and  C_18
   11  A    between atoms: C_11  and  C_32
   12  A    between atoms: C_15  and  C_23
   13  A    between atoms: C_17  and  C_18
   14  A    between atoms: C_17  and  O_46
   15  A    between atoms: C_19  and  C_42
   16  A    between atoms: C_21  and  O_45
   17  A    between atoms: C_22  and  O_46
   18  A    between atoms: C_38  and  C_50
                            x       y       z     vdW  Elec       q    Type
                         _______ _______ _______ _____ _____    ______ ____

>  <TORSDO>
F 18

$$$$
=
 OpenBabel11072410433D

 50 53  0  0  1  0  0  0  0  0999 V2000
  160.9990  210.8670  151.5310 C   0  0  2  0  0  3  0  0  0  0  0  0
  162.0560  210.4190  150.8420 O   0  0  0  0  0  0  0  0  0  0  0  0
  161.5880  209.1900  150.2820 C   0  0  0  0  0  2  0  0  0  0  0  0
  162.5860  208.1440  150.5130 C   0  0  0  0  0  2  0  0  0  0  0  0
  161.9760  206.7770  150.7420 C   0  0  1  0  0  3  0  0  0  0  0  0
  161.4730  206.5590  152.1520 C   0  0  0  0  0  0  0  0  0  0  0  0
  162.1320  205.7620  153.0980 O   0  0  0  0  0  1  0  0  0  0  0  0
  160.4820  207.2800  152.5530 O   0  0  0  0  0  0  0  0  0  0  0  0
  160.8150  206.6080  149.7600 C   0  0  0  0  0  2  0  0  0  0  0  0
  160.0490  205.2520  149.9440 C   0  0  0  0  0  2  0  0  0  0  0  0
  161.4100  203.8640  148.3720 C   0  0  0  0  0  0  0  0  0  0  0  0
  160.2700  202.0840  146.1410 C   0  0  0  0  0  0  0  0  0  0  0  0
  159.1210  201.5280  145.7870 C   0  0  0  0  0  2  0  0  0  0  0  0
  161.6800  203.8900  146.8450 C   0  0  2  0  0  0  0  0  0  0  0  0
  160.2820  204.1550  144.7570 C   0  0  0  0  0  0  0  0  0  0  0  0
  161.5930  200.3690  147.1950 O   0  0  0  0  0  1  0  0  0  0  0  0
  160.9120  204.1120  149.5710 C   0  0  0  0  0  3  0  0  0  0  0  0
  159.4610  203.5420  143.8170 O   0  0  0  0  0  1  0  0  0  0  0  0
  162.8700  204.7360  146.4130 C   0  0  0  0  0  1  0  0  0  0  0  0
  163.3900  202.4500  147.8920 F   0  0  0  0  0  0  0  0  0  0  0  0
  160.6760  203.4640  145.8090 C   0  0  0  0  0  0  0  0  0  0  0  0
  161.0410  201.6340  147.3270 C   0  0  1  0  0  3  0  0  0  0  0  0
  162.0640  202.7140  147.5480 C   0  0  1  0  0  0  0  0  0  0  0  0
  160.7500  205.5580  144.5000 C   0  0  0  0  0  2  0  0  0  0  0  0
  161.7050  205.5950  143.4960 O   0  0  0  0  0  1  0  0  0  0  0  0
  160.6550  212.3760  151.2490 C   0  0  0  0  0  2  0  0  0  0  0  0
  158.6140  214.0360  148.6210 C   0  0  0  0  0  2  0  0  0  0  0  0
  160.9200  213.0390  148.2860 C   0  0  0  0  0  0  0  0  0  0  0  0
  157.6900  214.1670  149.8300 C   0  0  0  0  0  2  0  0  0  0  0  0
  162.0330  213.1350  148.9110 O   0  0  0  0  0  0  0  0  0  0  0  0
  159.3940  212.6100  150.3790 C   0  0  2  0  0  3  0  0  0  0  0  0
  159.6860  213.1160  149.0460 N   0  0  0  0  0  0  0  0  0  0  0  0
  158.5760  213.7210  150.9800 C   0  0  2  0  0  3  0  0  0  0  0  0
  161.0120  212.7050  144.0280 C   0  0  0  0  0  3  0  0  0  0  0  0
  162.1200  213.2210  144.7060 C   0  0  0  0  0  0  0  0  0  0  0  0
  159.8610  212.4500  146.1250 C   0  0  0  0  0  3  0  0  0  0  0  0
  159.8660  212.3380  144.7410 C   0  0  0  0  0  3  0  0  0  0  0  0
  163.2850  213.5870  143.9880 N   0  0  0  0  0  1  0  0  0  0  0  0
  160.9640  212.9520  146.8320 C   0  0  0  0  0  0  0  0  0  0  0  0
  162.0930  213.3570  146.0890 C   0  0  0  0  0  3  0  0  0  0  0  0
  158.5660  214.3610  153.4690 C   0  0  0  0  0  1  0  0  0  0  0  0
  157.9220  213.5490  152.3670 C   0  0  0  0  0  2  0  0  0  0  0  0
  161.0510  210.5130  153.0230 C   0  0  0  0  0  2  0  0  0  0  0  0
  159.9140  210.8910  153.7350 O   0  0  0  0  0  0  0  0  0  0  0  0
  160.2430  210.5270  155.0800 C   0  0  0  0  0  2  0  0  0  0  0  0
  159.1230  210.7560  155.9970 C   0  0  0  0  0  2  0  0  0  0  0  0
  157.9670  211.2620  155.2750 N   0  0  0  0  0  2  0  0  0  0  0  0
  155.8080  212.4680  155.0890 N   0  0  0  0  0  1  0  0  0  0  0  0
  156.8760  211.9370  155.8830 C   0  0  0  0  0  0  0  0  0  0  0  0
  156.8410  212.1640  157.1480 O   0  0  0  0  0  0  0  0  0  0  0  0
  1 26  1  1  0  0  0
  1 43  1  0  0  0  0
  2  1  1  0  0  0  0
  3  4  1  0  0  0  0
  3  2  1  0  0  0  0
  4  5  1  0  0  0  0
  5  9  1  6  0  0  0
  5  6  1  0  0  0  0
  6  8  2  0  0  0  0
  6  7  1  0  0  0  0
  9 10  1  0  0  0  0
 11 17  2  0  0  0  0
 12 22  1  0  0  0  0
 13 12  2  0  0  0  0
 14 19  1  6  0  0  0
 14 23  1  0  0  0  0
 14 11  1  0  0  0  0
 15 21  2  0  0  0  0
 17 10  1  0  0  0  0
 18 15  1  0  0  0  0
 21 12  1  0  0  0  0
 21 14  1  0  0  0  0
 22 16  1  6  0  0  0
 22 23  1  0  0  0  0
 23 20  1  1  0  0  0
 23 11  1  0  0  0  0
 24 15  1  0  0  0  0
 25 24  1  0  0  0  0
 27 32  1  0  0  0  0
 27 29  1  0  0  0  0
 28 30  2  0  0  0  0
 28 32  1  0  0  0  0
 29 33  1  0  0  0  0
 31 33  1  0  0  0  0
 31 26  1  1  0  0  0
 32 31  1  0  0  0  0
 33 42  1  1  0  0  0
 34 35  2  0  0  0  0
 34 37  1  0  0  0  0
 35 40  1  0  0  0  0
 36 39  1  0  0  0  0
 37 36  2  0  0  0  0
 38 35  1  0  0  0  0
 39 28  1  0  0  0  0
 40 39  2  0  0  0  0
 42 41  1  0  0  0  0
 43 44  1  0  0  0  0
 44 45  1  0  0  0  0
 45 46  1  0  0  0  0
 47 49  1  0  0  0  0
 47 46  1  0  0  0  0
 48 49  1  0  0  0  0
 49 50  2  0  0  0  0
M  END
>  <MODEL>
9

>  <REMARK>
 VINA RESULT:      -4.1      4.116      9.249
  Name = 
  18 active torsions:
  status: ('A' for Active; 'I' for Inactive)
    1  A    between atoms: C_2  and  C_22
    2  A    between atoms: C_2  and  O_45
    3  A    between atoms: C_5  and  C_22
    4  A    between atoms: C_5  and  C_31
    5  A    between atoms: C_6  and  C_21
    6  A    between atoms: C_6  and  N_28
    7  A    between atoms: C_8  and  C_13
    8  A    between atoms: C_9  and  C_11
    9  A    between atoms: C_9  and  C_23
   10  A    between atoms: C_11  and  C_18
   11  A    between atoms: C_11  and  C_32
   12  A    between atoms: C_15  and  C_23
   13  A    between atoms: C_17  and  C_18
   14  A    between atoms: C_17  and  O_46
   15  A    between atoms: C_19  and  C_42
   16  A    between atoms: C_21  and  O_45
   17  A    between atoms: C_22  and  O_46
   18  A    between atoms: C_38  and  C_50
                            x       y       z     vdW  Elec       q    Type
                         _______ _______ _______ _____ _____    ______ ____

>  <TORSDO>
F 18

$$$$
