=
 OpenBabel11072412283D

 33 36  0  0  1  0  0  0  0  0999 V2000
  161.8170  205.4850  152.1670 C   0  0  0  0  0  2  0  0  0  0  0  0
  161.6740  209.9000  153.1900 C   0  0  0  0  0  2  0  0  0  0  0  0
  160.5920  208.8100  155.2710 C   0  0  0  0  0  0  0  0  0  0  0  0
  161.2110  205.1750  153.4190 O   0  0  0  0  0  0  0  0  0  0  0  0
  160.4120  206.4040  155.3460 N   0  0  0  0  0  0  0  0  0  0  0  0
  160.6730  211.0060  153.0710 C   0  0  0  0  0  3  0  0  0  0  0  0
  160.2520  210.0840  156.0100 C   0  0  0  0  0  2  0  0  0  0  0  0
  160.2230  207.6200  155.9290 C   0  0  0  0  0  3  0  0  0  0  0  0
  160.9480  206.3350  154.1060 C   0  0  0  0  0  0  0  0  0  0  0  0
  161.8650  207.0330  152.0790 C   0  0  2  0  0  3  0  0  0  0  0  0
  161.3050  207.4450  153.4040 C   0  0  0  0  0  0  0  0  0  0  0  0
  160.3000  211.7150  154.1400 C   0  0  0  0  0  0  0  0  0  0  0  0
  161.1470  208.7220  153.9560 C   0  0  0  0  0  0  0  0  0  0  0  0
  160.8690  211.3750  155.4870 C   0  0  0  0  0  2  0  0  0  0  0  0
  157.6510  214.1450  155.4460 C   0  0  0  0  0  2  0  0  0  0  0  0
  157.1220  213.6340  153.1010 C   0  0  0  0  0  0  0  0  0  0  0  0
  157.3040  211.2890  153.8900 C   0  0  0  0  0  1  0  0  0  0  0  0
  156.9670  214.4510  154.1450 C   0  0  0  0  0  3  0  0  0  0  0  0
  159.3200  212.8440  153.9640 C   0  0  2  0  0  3  0  0  0  0  0  0
  159.1030  213.6900  155.2380 C   0  0  0  0  0  2  0  0  0  0  0  0
  158.0330  212.4420  153.2120 C   0  0  2  0  0  3  0  0  0  0  0  0
  156.4200  213.9290  151.8510 C   0  0  0  0  0  3  0  0  0  0  0  0
  156.9810  213.7600  150.7360 O   0  0  0  0  0  0  0  0  0  0  0  0
  161.0120  207.4690  151.0450 O   0  0  0  0  0  0  0  0  0  0  0  0
  161.5400  207.0900  149.7850 C   0  0  1  0  0  3  0  0  0  0  0  0
  161.5710  205.0180  148.6020 F   0  0  0  0  0  0  0  0  0  0  0  0
  159.7920  205.4770  149.8880 F   0  0  0  0  0  0  0  0  0  0  0  0
  160.0860  206.5750  147.9400 F   0  0  0  0  0  0  0  0  0  0  0  0
  160.7290  206.0260  149.0350 C   0  0  0  0  0  0  0  0  0  0  0  0
  162.0570  208.2270  148.9450 C   0  0  0  0  0  0  0  0  0  0  0  0
  161.8530  209.5800  149.3500 N   0  0  0  0  0  2  0  0  0  0  0  0
  162.3310  210.6080  148.6100 O   0  0  0  0  0  1  0  0  0  0  0  0
  162.7010  207.9740  147.8920 O   0  0  0  0  0  0  0  0  0  0  0  0
  1  4  1  0  0  0  0
  2 13  1  0  0  0  0
  3  8  2  0  0  0  0
  3  7  1  0  0  0  0
  4  9  1  0  0  0  0
  5  8  1  0  0  0  0
  6  2  1  0  0  0  0
  6 12  2  0  0  0  0
  9  5  2  0  0  0  0
 10 24  1  6  0  0  0
 10  1  1  0  0  0  0
 10 11  1  0  0  0  0
 11 13  2  0  0  0  0
 11  9  1  0  0  0  0
 12 14  1  0  0  0  0
 13  3  1  0  0  0  0
 14  7  1  0  0  0  0
 16 21  1  0  0  0  0
 16 18  2  0  0  0  0
 18 15  1  0  0  0  0
 19 12  1  1  0  0  0
 19 20  1  0  0  0  0
 20 15  1  0  0  0  0
 21 17  1  1  0  0  0
 21 19  1  0  0  0  0
 22 16  1  0  0  0  0
 23 22  2  0  0  0  0
 25 30  1  6  0  0  0
 25 24  1  0  0  0  0
 26 29  1  0  0  0  0
 28 29  1  0  0  0  0
 29 25  1  0  0  0  0
 29 27  1  0  0  0  0
 30 31  1  0  0  0  0
 32 31  1  0  0  0  0
 33 30  2  0  0  0  0
M  END
>  <MODEL>
1

>  <REMARK>
 VINA RESULT:      -7.2      0.000      0.000
  Name = 
  6 active torsions:
  status: ('A' for Active; 'I' for Inactive)
    1  A    between atoms: C_8  and  C_22
    2  A    between atoms: C_16  and  C_25
    3  A    between atoms: C_17  and  O_30
    4  A    between atoms: C_20  and  C_23
    5  A    between atoms: C_25  and  C_28
    6  A    between atoms: C_25  and  O_30
                            x       y       z     vdW  Elec       q    Type
                         _______ _______ _______ _____ _____    ______ ____

>  <TORSDO>
F 6

$$$$
=
 OpenBabel11072412283D

 33 36  0  0  1  0  0  0  0  0999 V2000
  161.3890  202.7000  148.3010 C   0  0  0  0  0  2  0  0  0  0  0  0
  162.0960  206.3250  150.9300 C   0  0  0  0  0  2  0  0  0  0  0  0
  160.9730  204.6620  152.5630 C   0  0  0  0  0  0  0  0  0  0  0  0
  160.8190  202.0080  149.4080 O   0  0  0  0  0  0  0  0  0  0  0  0
  160.3750  202.4720  151.7420 N   0  0  0  0  0  0  0  0  0  0  0  0
  161.3000  207.5140  151.3690 C   0  0  0  0  0  3  0  0  0  0  0  0
  160.9120  205.5750  153.7670 C   0  0  0  0  0  2  0  0  0  0  0  0
  160.4420  203.3730  152.7620 C   0  0  0  0  0  3  0  0  0  0  0  0
  160.8100  202.8260  150.5110 C   0  0  0  0  0  0  0  0  0  0  0  0
  161.7050  204.1340  148.8010 C   0  0  2  0  0  3  0  0  0  0  0  0
  161.3120  204.0620  150.2430 C   0  0  0  0  0  0  0  0  0  0  0  0
  161.1270  207.7880  152.6650 C   0  0  0  0  0  0  0  0  0  0  0  0
  161.4180  205.0260  151.2540 C   0  0  0  0  0  0  0  0  0  0  0  0
  161.7120  206.8690  153.6980 C   0  0  0  0  0  2  0  0  0  0  0  0
  160.5900  211.5740  152.7640 C   0  0  0  0  0  2  0  0  0  0  0  0
  159.6720  210.6220  154.8350 C   0  0  0  0  0  0  0  0  0  0  0  0
  161.9160  209.5760  154.9890 C   0  0  0  0  0  1  0  0  0  0  0  0
  159.7080  211.6430  153.9760 C   0  0  0  0  0  3  0  0  0  0  0  0
  160.3530  209.0180  153.0570 C   0  0  2  0  0  3  0  0  0  0  0  0
  160.5180  210.2010  152.0780 C   0  0  0  0  0  2  0  0  0  0  0  0
  160.4700  209.3780  154.5530 C   0  0  2  0  0  3  0  0  0  0  0  0
  158.8320  210.7210  156.0300 C   0  0  0  0  0  3  0  0  0  0  0  0
  157.6210  211.0580  155.9450 O   0  0  0  0  0  0  0  0  0  0  0  0
  160.8790  205.0560  148.1280 O   0  0  0  0  0  0  0  0  0  0  0  0
  161.6400  205.8010  147.1920 C   0  0  1  0  0  3  0  0  0  0  0  0
  162.1170  206.1550  144.8800 F   0  0  0  0  0  0  0  0  0  0  0  0
  160.7420  204.4700  145.4330 F   0  0  0  0  0  0  0  0  0  0  0  0
  160.0300  206.6050  145.5960 F   0  0  0  0  0  0  0  0  0  0  0  0
  161.1160  205.7620  145.7500 C   0  0  0  0  0  0  0  0  0  0  0  0
  162.1060  207.1460  147.6790 C   0  0  0  0  0  0  0  0  0  0  0  0
  161.1660  208.1860  147.9470 N   0  0  0  0  0  2  0  0  0  0  0  0
  161.5750  209.3930  148.4040 O   0  0  0  0  0  1  0  0  0  0  0  0
  163.3350  207.3400  147.8780 O   0  0  0  0  0  0  0  0  0  0  0  0
  1 10  1  0  0  0  0
  1  4  1  0  0  0  0
  2 13  1  0  0  0  0
  2  6  1  0  0  0  0
  3  8  2  0  0  0  0
  3  7  1  0  0  0  0
  4  9  1  0  0  0  0
  5  8  1  0  0  0  0
  6 12  2  0  0  0  0
  9  5  2  0  0  0  0
 10 24  1  6  0  0  0
 10 11  1  0  0  0  0
 11  9  1  0  0  0  0
 11 13  2  0  0  0  0
 12 14  1  0  0  0  0
 13  3  1  0  0  0  0
 14  7  1  0  0  0  0
 15 18  1  0  0  0  0
 16 22  1  0  0  0  0
 18 16  2  0  0  0  0
 19 12  1  6  0  0  0
 19 21  1  0  0  0  0
 20 15  1  0  0  0  0
 20 19  1  0  0  0  0
 21 16  1  0  0  0  0
 21 17  1  6  0  0  0
 23 22  2  0  0  0  0
 25 30  1  1  0  0  0
 25 24  1  0  0  0  0
 26 29  1  0  0  0  0
 27 29  1  0  0  0  0
 28 29  1  0  0  0  0
 29 25  1  0  0  0  0
 30 33  2  0  0  0  0
 30 31  1  0  0  0  0
 31 32  1  0  0  0  0
M  END
>  <MODEL>
2

>  <REMARK>
 VINA RESULT:      -7.0      2.750      4.313
  Name = 
  6 active torsions:
  status: ('A' for Active; 'I' for Inactive)
    1  A    between atoms: C_8  and  C_22
    2  A    between atoms: C_16  and  C_25
    3  A    between atoms: C_17  and  O_30
    4  A    between atoms: C_20  and  C_23
    5  A    between atoms: C_25  and  C_28
    6  A    between atoms: C_25  and  O_30
                            x       y       z     vdW  Elec       q    Type
                         _______ _______ _______ _____ _____    ______ ____

>  <TORSDO>
F 6

$$$$
=
 OpenBabel11072412283D

 33 36  0  0  1  0  0  0  0  0999 V2000
  161.1780  203.1880  148.3150 C   0  0  0  0  0  2  0  0  0  0  0  0
  161.9380  206.8690  150.8510 C   0  0  0  0  0  2  0  0  0  0  0  0
  161.1540  205.1350  152.6040 C   0  0  0  0  0  0  0  0  0  0  0  0
  160.8040  202.4600  149.4820 O   0  0  0  0  0  0  0  0  0  0  0  0
  160.6220  202.9030  151.8560 N   0  0  0  0  0  0  0  0  0  0  0  0
  161.1180  207.9980  151.3900 C   0  0  0  0  0  3  0  0  0  0  0  0
  161.1780  206.0470  153.8100 C   0  0  0  0  0  2  0  0  0  0  0  0
  160.7500  203.8110  152.8630 C   0  0  0  0  0  3  0  0  0  0  0  0
  160.8720  203.2820  150.5810 C   0  0  0  0  0  0  0  0  0  0  0  0
  161.4460  204.6430  148.7770 C   0  0  2  0  0  3  0  0  0  0  0  0
  161.2440  204.5500  150.2570 C   0  0  0  0  0  0  0  0  0  0  0  0
  161.0890  208.2650  152.6990 C   0  0  0  0  0  0  0  0  0  0  0  0
  161.4040  205.5240  151.2510 C   0  0  0  0  0  0  0  0  0  0  0  0
  161.8660  207.3960  153.6470 C   0  0  0  0  0  2  0  0  0  0  0  0
  160.1340  211.9680  152.7010 C   0  0  0  0  0  2  0  0  0  0  0  0
  159.8340  211.1050  154.9830 C   0  0  0  0  0  0  0  0  0  0  0  0
  162.1640  210.3160  154.6630 C   0  0  0  0  0  1  0  0  0  0  0  0
  159.5480  212.0470  154.0810 C   0  0  0  0  0  3  0  0  0  0  0  0
  160.2810  209.4350  153.1910 C   0  0  2  0  0  3  0  0  0  0  0  0
  160.0750  210.5420  152.1330 C   0  0  0  0  0  2  0  0  0  0  0  0
  160.6910  209.9320  154.5930 C   0  0  2  0  0  3  0  0  0  0  0  0
  159.2810  211.2170  156.3340 C   0  0  0  0  0  3  0  0  0  0  0  0
  159.5870  210.3870  157.2300 O   0  0  0  0  0  0  0  0  0  0  0  0
  160.4760  205.4990  148.2180 O   0  0  0  0  0  0  0  0  0  0  0  0
  160.9530  206.0460  147.0000 C   0  0  1  0  0  3  0  0  0  0  0  0
  162.8500  206.5150  145.6290 F   0  0  0  0  0  0  0  0  0  0  0  0
  162.8140  207.3500  147.7110 F   0  0  0  0  0  0  0  0  0  0  0  0
  163.1480  205.1420  147.3890 F   0  0  0  0  0  0  0  0  0  0  0  0
  162.4710  206.2600  146.9340 C   0  0  0  0  0  0  0  0  0  0  0  0
  160.3220  205.4770  145.7580 C   0  0  0  0  0  0  0  0  0  0  0  0
  160.7320  204.2070  145.2520 N   0  0  0  0  0  2  0  0  0  0  0  0
  160.1560  203.6800  144.1460 O   0  0  0  0  0  1  0  0  0  0  0  0
  159.4040  206.1190  145.1820 O   0  0  0  0  0  0  0  0  0  0  0  0
  1 10  1  0  0  0  0
  1  4  1  0  0  0  0
  2 13  1  0  0  0  0
  2  6  1  0  0  0  0
  3  8  2  0  0  0  0
  3  7  1  0  0  0  0
  4  9  1  0  0  0  0
  5  8  1  0  0  0  0
  6 12  2  0  0  0  0
  9  5  2  0  0  0  0
 10 24  1  6  0  0  0
 10 11  1  0  0  0  0
 11  9  1  0  0  0  0
 11 13  2  0  0  0  0
 12 14  1  0  0  0  0
 13  3  1  0  0  0  0
 14  7  1  0  0  0  0
 15 18  1  0  0  0  0
 16 22  1  0  0  0  0
 18 16  2  0  0  0  0
 19 12  1  6  0  0  0
 19 21  1  0  0  0  0
 20 15  1  0  0  0  0
 20 19  1  0  0  0  0
 21 17  1  6  0  0  0
 21 16  1  0  0  0  0
 22 23  2  0  0  0  0
 25 30  1  6  0  0  0
 25 24  1  0  0  0  0
 26 29  1  0  0  0  0
 29 25  1  0  0  0  0
 29 28  1  0  0  0  0
 29 27  1  0  0  0  0
 31 30  1  0  0  0  0
 32 31  1  0  0  0  0
 33 30  2  0  0  0  0
M  END
>  <MODEL>
3

>  <REMARK>
 VINA RESULT:      -6.8      3.172      4.678
  Name = 
  6 active torsions:
  status: ('A' for Active; 'I' for Inactive)
    1  A    between atoms: C_8  and  C_22
    2  A    between atoms: C_16  and  C_25
    3  A    between atoms: C_17  and  O_30
    4  A    between atoms: C_20  and  C_23
    5  A    between atoms: C_25  and  C_28
    6  A    between atoms: C_25  and  O_30
                            x       y       z     vdW  Elec       q    Type
                         _______ _______ _______ _____ _____    ______ ____

>  <TORSDO>
F 6

$$$$
=
 OpenBabel11072412283D

 33 36  0  0  1  0  0  0  0  0999 V2000
  161.2000  203.6420  148.5830 C   0  0  0  0  0  2  0  0  0  0  0  0
  161.8640  207.1480  151.3800 C   0  0  0  0  0  2  0  0  0  0  0  0
  160.9990  205.3110  152.9830 C   0  0  0  0  0  0  0  0  0  0  0  0
  160.7730  202.8440  149.6840 O   0  0  0  0  0  0  0  0  0  0  0  0
  160.4910  203.1350  152.0700 N   0  0  0  0  0  0  0  0  0  0  0  0
  161.0260  208.2460  151.9560 C   0  0  0  0  0  3  0  0  0  0  0  0
  160.9740  206.1430  154.2450 C   0  0  0  0  0  2  0  0  0  0  0  0
  160.5790  203.9760  153.1380 C   0  0  0  0  0  3  0  0  0  0  0  0
  160.7970  203.5930  150.8350 C   0  0  0  0  0  0  0  0  0  0  0  0
  161.4540  205.0640  149.1490 C   0  0  2  0  0  3  0  0  0  0  0  0
  161.1870  204.8770  150.6090 C   0  0  0  0  0  0  0  0  0  0  0  0
  160.9410  208.4280  153.2760 C   0  0  0  0  0  0  0  0  0  0  0  0
  161.3080  205.7840  151.6700 C   0  0  0  0  0  0  0  0  0  0  0  0
  161.6730  207.4960  154.1990 C   0  0  0  0  0  2  0  0  0  0  0  0
  159.7930  212.0760  153.2680 C   0  0  0  0  0  2  0  0  0  0  0  0
  159.7390  211.2680  155.5880 C   0  0  0  0  0  0  0  0  0  0  0  0
  162.0710  210.5900  155.0840 C   0  0  0  0  0  1  0  0  0  0  0  0
  159.3260  212.1670  154.6910 C   0  0  0  0  0  3  0  0  0  0  0  0
  160.1180  209.5700  153.8070 C   0  0  2  0  0  3  0  0  0  0  0  0
  159.7610  210.6330  152.7440 C   0  0  0  0  0  2  0  0  0  0  0  0
  160.6210  210.1290  155.1550 C   0  0  2  0  0  3  0  0  0  0  0  0
  159.3010  211.3930  156.9800 C   0  0  0  0  0  3  0  0  0  0  0  0
  158.1130  211.7000  157.2610 O   0  0  0  0  0  0  0  0  0  0  0  0
  160.5120  205.9590  148.6040 O   0  0  0  0  0  0  0  0  0  0  0  0
  161.1280  206.7780  147.6240 C   0  0  1  0  0  3  0  0  0  0  0  0
  163.1330  207.0750  148.8850 F   0  0  0  0  0  0  0  0  0  0  0  0
  162.7930  208.3990  147.1070 F   0  0  0  0  0  0  0  0  0  0  0  0
  161.5850  208.7070  148.9870 F   0  0  0  0  0  0  0  0  0  0  0  0
  162.1730  207.7630  148.1640 C   0  0  0  0  0  0  0  0  0  0  0  0
  161.4960  206.0720  146.3470 C   0  0  0  0  0  0  0  0  0  0  0  0
  160.5160  205.8400  145.3370 N   0  0  0  0  0  2  0  0  0  0  0  0
  160.8430  205.2230  144.1780 O   0  0  0  0  0  1  0  0  0  0  0  0
  162.6900  205.7130  146.1620 O   0  0  0  0  0  0  0  0  0  0  0  0
  1 10  1  0  0  0  0
  1  4  1  0  0  0  0
  2 13  1  0  0  0  0
  2  6  1  0  0  0  0
  3  8  2  0  0  0  0
  3  7  1  0  0  0  0
  4  9  1  0  0  0  0
  5  8  1  0  0  0  0
  6 12  2  0  0  0  0
  9  5  2  0  0  0  0
 10 24  1  6  0  0  0
 10 11  1  0  0  0  0
 11  9  1  0  0  0  0
 11 13  2  0  0  0  0
 12 14  1  0  0  0  0
 13  3  1  0  0  0  0
 14  7  1  0  0  0  0
 15 18  1  0  0  0  0
 16 22  1  0  0  0  0
 18 16  2  0  0  0  0
 19 12  1  6  0  0  0
 19 21  1  0  0  0  0
 20 15  1  0  0  0  0
 20 19  1  0  0  0  0
 21 17  1  6  0  0  0
 21 16  1  0  0  0  0
 22 23  2  0  0  0  0
 25 30  1  6  0  0  0
 25 29  1  0  0  0  0
 25 24  1  0  0  0  0
 27 29  1  0  0  0  0
 29 26  1  0  0  0  0
 29 28  1  0  0  0  0
 31 30  1  0  0  0  0
 32 31  1  0  0  0  0
 33 30  2  0  0  0  0
M  END
>  <MODEL>
4

>  <REMARK>
 VINA RESULT:      -6.6      2.861      4.214
  Name = 
  6 active torsions:
  status: ('A' for Active; 'I' for Inactive)
    1  A    between atoms: C_8  and  C_22
    2  A    between atoms: C_16  and  C_25
    3  A    between atoms: C_17  and  O_30
    4  A    between atoms: C_20  and  C_23
    5  A    between atoms: C_25  and  C_28
    6  A    between atoms: C_25  and  O_30
                            x       y       z     vdW  Elec       q    Type
                         _______ _______ _______ _____ _____    ______ ____

>  <TORSDO>
F 6

$$$$
=
 OpenBabel11072412283D

 33 36  0  0  1  0  0  0  0  0999 V2000
  161.0450  210.7820  154.1000 C   0  0  0  0  0  2  0  0  0  0  0  0
  162.3910  207.6720  151.0880 C   0  0  0  0  0  2  0  0  0  0  0  0
  161.8200  209.6970  149.5820 C   0  0  0  0  0  0  0  0  0  0  0  0
  160.8310  211.7130  153.0430 O   0  0  0  0  0  0  0  0  0  0  0  0
  161.0620  211.7330  150.6330 N   0  0  0  0  0  0  0  0  0  0  0  0
  161.7280  206.6540  150.2150 C   0  0  0  0  0  3  0  0  0  0  0  0
  162.0850  209.0360  148.2490 C   0  0  0  0  0  2  0  0  0  0  0  0
  161.3980  211.0390  149.5110 C   0  0  0  0  0  3  0  0  0  0  0  0
  161.1190  211.1210  151.8380 C   0  0  0  0  0  0  0  0  0  0  0  0
  161.4580  209.4470  153.4260 C   0  0  2  0  0  3  0  0  0  0  0  0
  161.4950  209.8200  151.9780 C   0  0  0  0  0  0  0  0  0  0  0  0
  161.9270  206.6440  148.8930 C   0  0  0  0  0  0  0  0  0  0  0  0
  161.8640  209.0590  150.8610 C   0  0  0  0  0  0  0  0  0  0  0  0
  162.8040  207.6930  148.2710 C   0  0  0  0  0  2  0  0  0  0  0  0
  161.2100  202.9940  148.0060 C   0  0  0  0  0  2  0  0  0  0  0  0
  161.1830  204.3000  145.9250 C   0  0  0  0  0  0  0  0  0  0  0  0
  163.3920  205.0780  146.7430 C   0  0  0  0  0  1  0  0  0  0  0  0
  160.8310  203.1840  146.5670 C   0  0  0  0  0  3  0  0  0  0  0  0
  161.2700  205.5760  148.0620 C   0  0  2  0  0  3  0  0  0  0  0  0
  160.9840  204.2680  148.8330 C   0  0  0  0  0  2  0  0  0  0  0  0
  161.9030  205.3940  146.6660 C   0  0  2  0  0  3  0  0  0  0  0  0
  160.8340  204.4530  144.5110 C   0  0  0  0  0  3  0  0  0  0  0  0
  161.2540  205.4340  143.8430 O   0  0  0  0  0  0  0  0  0  0  0  0
  160.4530  208.4830  153.6430 O   0  0  0  0  0  0  0  0  0  0  0  0
  160.9160  207.4900  154.5420 C   0  0  1  0  0  3  0  0  0  0  0  0
  160.6540  206.3680  156.6320 F   0  0  0  0  0  0  0  0  0  0  0  0
  160.0560  208.5260  156.5050 F   0  0  0  0  0  0  0  0  0  0  0  0
  158.7850  206.9460  155.5170 F   0  0  0  0  0  0  0  0  0  0  0  0
  160.0800  207.3280  155.8190 C   0  0  0  0  0  0  0  0  0  0  0  0
  161.3700  206.2090  153.8950 C   0  0  0  0  0  0  0  0  0  0  0  0
  160.4280  205.3370  153.2710 N   0  0  0  0  0  2  0  0  0  0  0  0
  160.8310  204.1930  152.6710 O   0  0  0  0  0  1  0  0  0  0  0  0
  162.5980  205.9260  153.8800 O   0  0  0  0  0  0  0  0  0  0  0  0
  3 13  1  0  0  0  0
  4  1  1  0  0  0  0
  5  9  2  0  0  0  0
  6  2  1  0  0  0  0
  7 14  1  0  0  0  0
  7  3  1  0  0  0  0
  8  3  2  0  0  0  0
  8  5  1  0  0  0  0
  9 11  1  0  0  0  0
  9  4  1  0  0  0  0
 10 24  1  6  0  0  0
 10  1  1  0  0  0  0
 11 10  1  0  0  0  0
 12  6  2  0  0  0  0
 13  2  1  0  0  0  0
 13 11  2  0  0  0  0
 14 12  1  0  0  0  0
 15 20  1  0  0  0  0
 16 18  2  0  0  0  0
 16 21  1  0  0  0  0
 18 15  1  0  0  0  0
 19 20  1  0  0  0  0
 19 12  1  1  0  0  0
 21 17  1  1  0  0  0
 21 19  1  0  0  0  0
 22 16  1  0  0  0  0
 23 22  2  0  0  0  0
 25 24  1  6  0  0  0
 25 29  1  0  0  0  0
 28 29  1  0  0  0  0
 29 27  1  0  0  0  0
 29 26  1  0  0  0  0
 30 25  1  0  0  0  0
 31 30  1  0  0  0  0
 32 31  1  0  0  0  0
 33 30  2  0  0  0  0
M  END
>  <MODEL>
5

>  <REMARK>
 VINA RESULT:      -6.2      3.600      8.211
  Name = 
  6 active torsions:
  status: ('A' for Active; 'I' for Inactive)
    1  A    between atoms: C_8  and  C_22
    2  A    between atoms: C_16  and  C_25
    3  A    between atoms: C_17  and  O_30
    4  A    between atoms: C_20  and  C_23
    5  A    between atoms: C_25  and  C_28
    6  A    between atoms: C_25  and  O_30
                            x       y       z     vdW  Elec       q    Type
                         _______ _______ _______ _____ _____    ______ ____

>  <TORSDO>
F 6

$$$$
=
 OpenBabel11072412283D

 33 36  0  0  1  0  0  0  0  0999 V2000
  161.2060  204.1700  151.6950 C   0  0  0  0  0  2  0  0  0  0  0  0
  162.5850  207.9750  149.6540 C   0  0  0  0  0  2  0  0  0  0  0  0
  161.6490  208.8550  151.9000 C   0  0  0  0  0  0  0  0  0  0  0  0
  160.7880  204.9280  152.8270 O   0  0  0  0  0  0  0  0  0  0  0  0
  160.7780  207.2570  153.4860 N   0  0  0  0  0  0  0  0  0  0  0  0
  161.9560  209.0390  148.8110 C   0  0  0  0  0  3  0  0  0  0  0  0
  161.8540  210.3290  151.6370 C   0  0  0  0  0  2  0  0  0  0  0  0
  161.0770  208.5420  153.1480 C   0  0  0  0  0  3  0  0  0  0  0  0
  161.0200  206.2620  152.6010 C   0  0  0  0  0  0  0  0  0  0  0  0
  161.6960  205.1960  150.6410 C   0  0  2  0  0  3  0  0  0  0  0  0
  161.5490  206.4950  151.3700 C   0  0  0  0  0  0  0  0  0  0  0  0
  162.0240  210.3270  149.1610 C   0  0  0  0  0  0  0  0  0  0  0  0
  161.8890  207.7940  150.9710 C   0  0  0  0  0  0  0  0  0  0  0  0
  162.7140  210.7090  150.4390 C   0  0  0  0  0  2  0  0  0  0  0  0
  162.0650  213.6850  147.3300 C   0  0  0  0  0  2  0  0  0  0  0  0
  159.7390  213.1830  147.9450 C   0  0  0  0  0  0  0  0  0  0  0  0
  160.7240  212.8670  150.2000 C   0  0  0  0  0  1  0  0  0  0  0  0
  160.5840  213.8730  147.1760 C   0  0  0  0  0  3  0  0  0  0  0  0
  161.4100  211.3650  148.2610 C   0  0  2  0  0  3  0  0  0  0  0  0
  162.4430  212.2030  147.4750 C   0  0  0  0  0  2  0  0  0  0  0  0
  160.2730  212.1710  148.9220 C   0  0  2  0  0  3  0  0  0  0  0  0
  158.2990  213.4050  147.8040 C   0  0  0  0  0  3  0  0  0  0  0  0
  157.5520  212.5210  147.3080 O   0  0  0  0  0  0  0  0  0  0  0  0
  160.8290  205.1740  149.5290 O   0  0  0  0  0  0  0  0  0  0  0  0
  161.4480  204.5080  148.4420 C   0  0  1  0  0  3  0  0  0  0  0  0
  160.8210  202.7690  146.9320 F   0  0  0  0  0  0  0  0  0  0  0  0
  162.0790  202.2270  148.7090 F   0  0  0  0  0  0  0  0  0  0  0  0
  159.9020  202.7480  148.9870 F   0  0  0  0  0  0  0  0  0  0  0  0
  161.0490  203.0360  148.2700 C   0  0  0  0  0  0  0  0  0  0  0  0
  161.5380  205.3110  147.1720 C   0  0  0  0  0  0  0  0  0  0  0  0
  162.6280  205.1240  146.2710 N   0  0  0  0  0  2  0  0  0  0  0  0
  162.7060  205.8280  145.1180 O   0  0  0  0  0  1  0  0  0  0  0  0
  160.6230  206.1310  146.8950 O   0  0  0  0  0  0  0  0  0  0  0  0
  1  4  1  0  0  0  0
  2 13  1  0  0  0  0
  3  8  2  0  0  0  0
  6 12  2  0  0  0  0
  6  2  1  0  0  0  0
  7  3  1  0  0  0  0
  8  5  1  0  0  0  0
  9  4  1  0  0  0  0
  9  5  2  0  0  0  0
 10 24  1  6  0  0  0
 10 11  1  0  0  0  0
 10  1  1  0  0  0  0
 11  9  1  0  0  0  0
 12 14  1  0  0  0  0
 13 11  2  0  0  0  0
 13  3  1  0  0  0  0
 14  7  1  0  0  0  0
 15 20  1  0  0  0  0
 16 21  1  0  0  0  0
 18 15  1  0  0  0  0
 18 16  2  0  0  0  0
 19 21  1  0  0  0  0
 19 12  1  1  0  0  0
 20 19  1  0  0  0  0
 21 17  1  1  0  0  0
 22 16  1  0  0  0  0
 23 22  2  0  0  0  0
 25 30  1  6  0  0  0
 25 24  1  0  0  0  0
 26 29  1  0  0  0  0
 29 25  1  0  0  0  0
 29 27  1  0  0  0  0
 29 28  1  0  0  0  0
 31 30  1  0  0  0  0
 32 31  1  0  0  0  0
 33 30  2  0  0  0  0
M  END
>  <MODEL>
6

>  <REMARK>
 VINA RESULT:      -6.1      3.398      4.624
  Name = 
  6 active torsions:
  status: ('A' for Active; 'I' for Inactive)
    1  A    between atoms: C_8  and  C_22
    2  A    between atoms: C_16  and  C_25
    3  A    between atoms: C_17  and  O_30
    4  A    between atoms: C_20  and  C_23
    5  A    between atoms: C_25  and  C_28
    6  A    between atoms: C_25  and  O_30
                            x       y       z     vdW  Elec       q    Type
                         _______ _______ _______ _____ _____    ______ ____

>  <TORSDO>
F 6

$$$$
=
 OpenBabel11072412283D

 33 36  0  0  1  0  0  0  0  0999 V2000
  161.6370  205.2390  146.7890 C   0  0  0  0  0  2  0  0  0  0  0  0
  160.1870  206.6800  150.8360 C   0  0  0  0  0  2  0  0  0  0  0  0
  161.6580  208.6520  150.0360 C   0  0  0  0  0  0  0  0  0  0  0  0
  162.3530  206.4580  146.6110 O   0  0  0  0  0  0  0  0  0  0  0  0
  162.7080  208.4970  147.8680 N   0  0  0  0  0  0  0  0  0  0  0  0
  160.7100  206.6710  152.2370 C   0  0  0  0  0  3  0  0  0  0  0  0
  161.5310  209.5100  151.2740 C   0  0  0  0  0  2  0  0  0  0  0  0
  162.4570  209.1940  149.0110 C   0  0  0  0  0  3  0  0  0  0  0  0
  162.1950  207.2530  147.7190 C   0  0  0  0  0  0  0  0  0  0  0  0
  161.0220  205.2990  148.2110 C   0  0  2  0  0  3  0  0  0  0  0  0
  161.4350  206.6590  148.6790 C   0  0  0  0  0  0  0  0  0  0  0  0
  160.8310  207.8040  152.9350 C   0  0  0  0  0  0  0  0  0  0  0  0
  161.1320  207.3320  149.8700 C   0  0  0  0  0  0  0  0  0  0  0  0
  160.4690  209.1110  152.2900 C   0  0  0  0  0  2  0  0  0  0  0  0
  160.4110  206.9510  156.6390 C   0  0  0  0  0  2  0  0  0  0  0  0
  161.8540  208.9340  156.4760 C   0  0  0  0  0  0  0  0  0  0  0  0
  159.9970  209.7920  155.0730 C   0  0  0  0  0  1  0  0  0  0  0  0
  161.4280  207.8990  157.2040 C   0  0  0  0  0  3  0  0  0  0  0  0
  161.3250  207.7410  154.3550 C   0  0  2  0  0  3  0  0  0  0  0  0
  160.7150  206.5840  155.1790 C   0  0  0  0  0  2  0  0  0  0  0  0
  161.3590  209.1100  155.0660 C   0  0  2  0  0  3  0  0  0  0  0  0
  162.8200  209.8680  157.0560 C   0  0  0  0  0  3  0  0  0  0  0  0
  163.4270  210.7030  156.3350 O   0  0  0  0  0  0  0  0  0  0  0  0
  161.6240  204.3150  149.0220 O   0  0  0  0  0  0  0  0  0  0  0  0
  160.8340  203.1380  149.0250 C   0  0  1  0  0  3  0  0  0  0  0  0
  162.0610  202.6750  147.0300 F   0  0  0  0  0  0  0  0  0  0  0  0
  161.8570  201.0400  148.5520 F   0  0  0  0  0  0  0  0  0  0  0  0
  160.0800  201.6410  147.2990 F   0  0  0  0  0  0  0  0  0  0  0  0
  161.2070  202.1030  147.9550 C   0  0  0  0  0  0  0  0  0  0  0  0
  160.5270  202.5820  150.3890 C   0  0  0  0  0  0  0  0  0  0  0  0
  160.8350  203.3310  151.5640 N   0  0  0  0  0  2  0  0  0  0  0  0
  160.5450  202.8460  152.7940 O   0  0  0  0  0  1  0  0  0  0  0  0
  159.9670  201.4580  150.4870 O   0  0  0  0  0  0  0  0  0  0  0  0
  1 10  1  0  0  0  0
  2  6  1  0  0  0  0
  3  7  1  0  0  0  0
  4  1  1  0  0  0  0
  4  9  1  0  0  0  0
  5  8  1  0  0  0  0
  6 12  2  0  0  0  0
  7 14  1  0  0  0  0
  8  3  2  0  0  0  0
  9  5  2  0  0  0  0
  9 11  1  0  0  0  0
 10 11  1  0  0  0  0
 10 24  1  1  0  0  0
 11 13  2  0  0  0  0
 13  3  1  0  0  0  0
 13  2  1  0  0  0  0
 14 12  1  0  0  0  0
 15 18  1  0  0  0  0
 16 22  1  0  0  0  0
 16 18  2  0  0  0  0
 19 12  1  6  0  0  0
 19 21  1  0  0  0  0
 19 20  1  0  0  0  0
 20 15  1  0  0  0  0
 21 17  1  1  0  0  0
 21 16  1  0  0  0  0
 23 22  2  0  0  0  0
 25 24  1  1  0  0  0
 25 30  1  0  0  0  0
 26 29  1  0  0  0  0
 28 29  1  0  0  0  0
 29 27  1  0  0  0  0
 29 25  1  0  0  0  0
 30 33  2  0  0  0  0
 30 31  1  0  0  0  0
 31 32  1  0  0  0  0
M  END
>  <MODEL>
7

>  <REMARK>
 VINA RESULT:      -6.1      3.517      6.097
  Name = 
  6 active torsions:
  status: ('A' for Active; 'I' for Inactive)
    1  A    between atoms: C_8  and  C_22
    2  A    between atoms: C_16  and  C_25
    3  A    between atoms: C_17  and  O_30
    4  A    between atoms: C_20  and  C_23
    5  A    between atoms: C_25  and  C_28
    6  A    between atoms: C_25  and  O_30
                            x       y       z     vdW  Elec       q    Type
                         _______ _______ _______ _____ _____    ______ ____

>  <TORSDO>
F 6

$$$$
=
 OpenBabel11072412283D

 33 36  0  0  1  0  0  0  0  0999 V2000
  161.5940  205.6930  152.1580 C   0  0  0  0  0  2  0  0  0  0  0  0
  161.3180  210.1090  153.1480 C   0  0  0  0  0  2  0  0  0  0  0  0
  160.6340  208.9920  155.3800 C   0  0  0  0  0  0  0  0  0  0  0  0
  161.2050  205.3700  153.4900 O   0  0  0  0  0  0  0  0  0  0  0  0
  160.6260  206.5820  155.5040 N   0  0  0  0  0  0  0  0  0  0  0  0
  160.2400  211.1460  153.1710 C   0  0  0  0  0  3  0  0  0  0  0  0
  160.3270  210.2570  156.1490 C   0  0  0  0  0  2  0  0  0  0  0  0
  160.4480  207.7950  156.0970 C   0  0  0  0  0  3  0  0  0  0  0  0
  160.9720  206.5230  154.1970 C   0  0  0  0  0  0  0  0  0  0  0  0
  161.5270  207.2380  152.0480 C   0  0  2  0  0  3  0  0  0  0  0  0
  161.1460  207.6400  153.4390 C   0  0  0  0  0  0  0  0  0  0  0  0
  159.9850  211.8510  154.2770 C   0  0  0  0  0  0  0  0  0  0  0  0
  160.9900  208.9150  153.9970 C   0  0  0  0  0  0  0  0  0  0  0  0
  160.7720  211.5740  155.5260 C   0  0  0  0  0  2  0  0  0  0  0  0
  157.5700  214.2960  155.9570 C   0  0  0  0  0  2  0  0  0  0  0  0
  156.5300  213.5100  153.8730 C   0  0  0  0  0  0  0  0  0  0  0  0
  157.0530  211.2750  154.8140 C   0  0  0  0  0  1  0  0  0  0  0  0
  156.5760  214.4290  154.8410 C   0  0  0  0  0  3  0  0  0  0  0  0
  158.9180  212.9120  154.2410 C   0  0  2  0  0  3  0  0  0  0  0  0
  158.9580  213.8820  155.4430 C   0  0  0  0  0  2  0  0  0  0  0  0
  157.5190  212.3770  153.8710 C   0  0  2  0  0  3  0  0  0  0  0  0
  155.5290  213.6380  152.8120 C   0  0  0  0  0  3  0  0  0  0  0  0
  155.8260  214.1500  151.7000 O   0  0  0  0  0  0  0  0  0  0  0  0
  160.5020  207.6000  151.1520 O   0  0  0  0  0  0  0  0  0  0  0  0
  160.9990  207.6170  149.8240 C   0  0  1  0  0  3  0  0  0  0  0  0
  163.3670  207.5800  150.1250 F   0  0  0  0  0  0  0  0  0  0  0  0
  162.5470  208.5830  148.2940 F   0  0  0  0  0  0  0  0  0  0  0  0
  162.3230  209.5660  150.3120 F   0  0  0  0  0  0  0  0  0  0  0  0
  162.3310  208.3570  149.6390 C   0  0  0  0  0  0  0  0  0  0  0  0
  160.8680  206.3160  149.0790 C   0  0  0  0  0  0  0  0  0  0  0  0
  161.6460  206.0690  147.9090 N   0  0  0  0  0  2  0  0  0  0  0  0
  161.5490  204.8940  147.2440 O   0  0  0  0  0  1  0  0  0  0  0  0
  160.0850  205.4310  149.5150 O   0  0  0  0  0  0  0  0  0  0  0  0
  1  4  1  0  0  0  0
  2  6  1  0  0  0  0
  2 13  1  0  0  0  0
  3  8  2  0  0  0  0
  3  7  1  0  0  0  0
  4  9  1  0  0  0  0
  5  8  1  0  0  0  0
  6 12  2  0  0  0  0
  9  5  2  0  0  0  0
 10 24  1  6  0  0  0
 10  1  1  0  0  0  0
 10 11  1  0  0  0  0
 11 13  2  0  0  0  0
 11  9  1  0  0  0  0
 12 14  1  0  0  0  0
 13  3  1  0  0  0  0
 14  7  1  0  0  0  0
 16 18  2  0  0  0  0
 18 15  1  0  0  0  0
 19 12  1  1  0  0  0
 19 20  1  0  0  0  0
 20 15  1  0  0  0  0
 21 16  1  0  0  0  0
 21 19  1  0  0  0  0
 21 17  1  1  0  0  0
 22 16  1  0  0  0  0
 23 22  2  0  0  0  0
 25 30  1  1  0  0  0
 25 24  1  0  0  0  0
 27 29  1  0  0  0  0
 29 25  1  0  0  0  0
 29 26  1  0  0  0  0
 29 28  1  0  0  0  0
 30 33  2  0  0  0  0
 31 30  1  0  0  0  0
 32 31  1  0  0  0  0
M  END
>  <MODEL>
8

>  <REMARK>
 VINA RESULT:      -6.0      1.697      2.065
  Name = 
  6 active torsions:
  status: ('A' for Active; 'I' for Inactive)
    1  A    between atoms: C_8  and  C_22
    2  A    between atoms: C_16  and  C_25
    3  A    between atoms: C_17  and  O_30
    4  A    between atoms: C_20  and  C_23
    5  A    between atoms: C_25  and  C_28
    6  A    between atoms: C_25  and  O_30
                            x       y       z     vdW  Elec       q    Type
                         _______ _______ _______ _____ _____    ______ ____

>  <TORSDO>
F 6

$$$$
=
 OpenBabel11072412283D

 33 36  0  0  1  0  0  0  0  0999 V2000
  161.7310  204.7660  150.9750 C   0  0  0  0  0  2  0  0  0  0  0  0
  161.3520  209.1820  151.9280 C   0  0  0  0  0  2  0  0  0  0  0  0
  160.8280  208.0720  154.2060 C   0  0  0  0  0  0  0  0  0  0  0  0
  161.4250  204.4470  152.3290 O   0  0  0  0  0  0  0  0  0  0  0  0
  160.9110  205.6650  154.3570 N   0  0  0  0  0  0  0  0  0  0  0  0
  160.2410  210.1820  151.9970 C   0  0  0  0  0  3  0  0  0  0  0  0
  160.5180  209.3350  154.9760 C   0  0  0  0  0  2  0  0  0  0  0  0
  160.7220  206.8790  154.9450 C   0  0  0  0  0  3  0  0  0  0  0  0
  161.1900  205.6010  153.0350 C   0  0  0  0  0  0  0  0  0  0  0  0
  161.6040  206.3070  150.8510 C   0  0  2  0  0  3  0  0  0  0  0  0
  161.2840  206.7120  152.2550 C   0  0  0  0  0  0  0  0  0  0  0  0
  160.0210  210.8920  153.1070 C   0  0  0  0  0  0  0  0  0  0  0  0
  161.1120  207.9890  152.8060 C   0  0  0  0  0  0  0  0  0  0  0  0
  160.8830  210.6590  154.3160 C   0  0  0  0  0  2  0  0  0  0  0  0
  158.6690  214.4330  152.5950 C   0  0  0  0  0  2  0  0  0  0  0  0
  157.4020  213.3930  154.4260 C   0  0  0  0  0  0  0  0  0  0  0  0
  159.6680  212.9350  155.3260 C   0  0  0  0  0  1  0  0  0  0  0  0
  157.4710  214.3470  153.4940 C   0  0  0  0  0  3  0  0  0  0  0  0
  158.9170  211.9140  153.1160 C   0  0  2  0  0  3  0  0  0  0  0  0
  159.1070  213.0510  152.0870 C   0  0  0  0  0  2  0  0  0  0  0  0
  158.4980  212.3680  154.5310 C   0  0  2  0  0  3  0  0  0  0  0  0
  156.2410  213.3460  155.3170 C   0  0  0  0  0  3  0  0  0  0  0  0
  156.2530  212.6400  156.3600 O   0  0  0  0  0  0  0  0  0  0  0  0
  160.5200  206.6200  150.0070 O   0  0  0  0  0  0  0  0  0  0  0  0
  160.9960  207.0310  148.7360 C   0  0  1  0  0  3  0  0  0  0  0  0
  161.9870  209.2000  148.8370 F   0  0  0  0  0  0  0  0  0  0  0  0
  163.0310  207.5080  149.8750 F   0  0  0  0  0  0  0  0  0  0  0  0
  163.0430  207.6260  147.6230 F   0  0  0  0  0  0  0  0  0  0  0  0
  162.2910  207.8530  148.7610 C   0  0  0  0  0  0  0  0  0  0  0  0
  160.9100  205.9850  147.6570 C   0  0  0  0  0  0  0  0  0  0  0  0
  161.5990  204.7430  147.7940 N   0  0  0  0  0  2  0  0  0  0  0  0
  161.5120  203.7890  146.8370 O   0  0  0  0  0  1  0  0  0  0  0  0
  160.1970  206.2020  146.6410 O   0  0  0  0  0  0  0  0  0  0  0  0
  1  4  1  0  0  0  0
  2  6  1  0  0  0  0
  2 13  1  0  0  0  0
  3  8  2  0  0  0  0
  3  7  1  0  0  0  0
  4  9  1  0  0  0  0
  5  8  1  0  0  0  0
  6 12  2  0  0  0  0
  9  5  2  0  0  0  0
 10 24  1  6  0  0  0
 10  1  1  0  0  0  0
 10 11  1  0  0  0  0
 11 13  2  0  0  0  0
 11  9  1  0  0  0  0
 12 14  1  0  0  0  0
 13  3  1  0  0  0  0
 14  7  1  0  0  0  0
 15 18  1  0  0  0  0
 16 21  1  0  0  0  0
 16 22  1  0  0  0  0
 18 16  2  0  0  0  0
 19 12  1  1  0  0  0
 19 21  1  0  0  0  0
 20 15  1  0  0  0  0
 20 19  1  0  0  0  0
 21 17  1  6  0  0  0
 22 23  2  0  0  0  0
 25 30  1  6  0  0  0
 25 29  1  0  0  0  0
 25 24  1  0  0  0  0
 28 29  1  0  0  0  0
 29 26  1  0  0  0  0
 29 27  1  0  0  0  0
 30 31  1  0  0  0  0
 32 31  1  0  0  0  0
 33 30  2  0  0  0  0
M  END
>  <MODEL>
9

>  <REMARK>
 VINA RESULT:      -5.9      2.212      2.780
  Name = 
  6 active torsions:
  status: ('A' for Active; 'I' for Inactive)
    1  A    between atoms: C_8  and  C_22
    2  A    between atoms: C_16  and  C_25
    3  A    between atoms: C_17  and  O_30
    4  A    between atoms: C_20  and  C_23
    5  A    between atoms: C_25  and  C_28
    6  A    between atoms: C_25  and  O_30
                            x       y       z     vdW  Elec       q    Type
                         _______ _______ _______ _____ _____    ______ ____

>  <TORSDO>
F 6

$$$$
