=
 OpenBabel11072414583D

 39 45  0  0  1  0  0  0  0  0999 V2000
  162.5420  210.6800  148.2990 C   0  0  0  0  0  3  0  0  0  0  0  0
  161.1030  209.9790  150.7430 C   0  0  0  0  0  0  0  0  0  0  0  0
  160.8590  206.9460  148.7590 C   0  0  2  0  0  3  0  0  0  0  0  0
  161.4270  204.8880  151.1110 P   0  0  1  0  0  0  0  0  0  0  0  0
  160.4450  208.3240  153.9690 C   0  0  2  0  0  3  0  0  0  0  0  0
  162.0160  206.6020  151.1900 C   0  0  2  0  0  0  0  0  0  0  0  0
  162.6260  209.2750  148.8630 C   0  0  0  0  0  3  0  0  0  0  0  0
  160.8680  205.1800  147.0840 O   0  0  0  0  0  1  0  0  0  0  0  0
  163.4880  206.6080  150.8110 C   0  0  0  0  0  1  0  0  0  0  0  0
  161.2570  211.3450  150.2340 C   0  0  0  0  0  0  0  0  0  0  0  0
  161.9090  206.9940  152.5560 O   0  0  0  0  0  0  0  0  0  0  0  0
  161.6480  208.9610  150.0060 C   0  0  0  0  0  0  0  0  0  0  0  0
  160.7180  207.6280  152.6900 N   0  0  2  0  0  0  0  0  0  0  0  0
  161.4500  204.4000  149.3680 C   0  0  2  0  0  3  0  0  0  0  0  0
  161.0860  213.5120  149.6360 N   0  0  0  0  0  0  0  0  0  0  0  0
  160.8240  205.4530  148.4530 C   0  0  1  0  0  0  0  0  0  0  0  0
  160.4700  209.7800  151.9760 O   0  0  0  0  0  0  0  0  0  0  0  0
  162.4480  203.8840  152.0130 O   0  0  0  0  0  1  0  0  0  0  0  0
  161.7730  212.9920  148.6950 N   0  0  0  0  0  0  0  0  0  0  0  0
  161.9310  211.6190  149.0070 C   0  0  0  0  0  0  0  0  0  0  0  0
  161.2120  207.5040  150.1600 C   0  0  1  0  0  3  0  0  0  0  0  0
  160.0210  204.7970  151.6580 O   0  0  0  0  0  0  0  0  0  0  0  0
  161.1750  208.9990  152.9120 C   0  0  1  0  0  3  0  0  0  0  0  0
  160.7500  212.5100  150.6110 C   0  0  1  0  0  3  0  0  0  0  0  0
  159.5530  206.1520  148.8700 C   0  0  0  0  0  2  0  0  0  0  0  0
  159.8550  212.7240  151.7960 C   0  0  0  0  0  2  0  0  0  0  0  0
  156.6710  214.0010  150.0840 C   0  0  0  0  0  1  0  0  0  0  0  0
  157.8790  213.1940  150.4090 C   0  0  0  0  0  3  0  0  0  0  0  0
  158.6340  213.5200  151.4560 C   0  0  0  0  0  3  0  0  0  0  0  0
  161.3910  207.8700  155.0760 C   0  0  0  0  0  2  0  0  0  0  0  0
  160.8450  211.6650  157.2590 F   0  0  0  0  0  0  0  0  0  0  0  0
  161.1820  208.7140  156.3270 C   0  0  0  0  0  3  0  0  0  0  0  0
  160.0490  209.7020  156.1000 C   0  0  0  0  0  2  0  0  0  0  0  0
  162.1790  209.8660  156.3690 C   0  0  0  0  0  2  0  0  0  0  0  0
  161.0440  210.8440  156.1620 C   0  0  0  0  0  0  0  0  0  0  0  0
  161.1430  211.5350  154.9670 F   0  0  0  0  0  0  0  0  0  0  0  0
  160.7680  203.0540  149.1750 C   0  0  0  0  0  2  0  0  0  0  0  0
  161.4490  202.2680  148.0690 C   0  0  0  0  0  2  0  0  0  0  0  0
  161.1850  200.7900  148.2630 C   0  0  0  0  0  1  0  0  0  0  0  0
  1  7  2  0  0  0  0
  1 20  1  0  0  0  0
  2 17  1  0  0  0  0
  3 25  1  1  0  0  0
  3 21  1  0  0  0  0
  4  6  1  0  0  0  0
  4 22  2  1  0  0  0
  4 18  1  0  0  0  0
  5 30  1  1  0  0  0
  6  9  1  6  0  0  0
  6 11  1  0  0  0  0
  7 12  1  0  0  0  0
 10 24  1  0  0  0  0
 10  2  1  0  0  0  0
 12  2  2  0  0  0  0
 13 11  1  1  0  0  0
 13 23  1  0  0  0  0
 13  5  1  0  0  0  0
 14 37  1  1  0  0  0
 14  4  1  0  0  0  0
 15 24  1  0  0  0  0
 16  8  1  6  0  0  0
 16  3  1  0  0  0  0
 16 25  1  0  0  0  0
 16 14  1  0  0  0  0
 19 20  1  0  0  0  0
 19 15  2  0  0  0  0
 20 10  2  0  0  0  0
 21 12  1  6  0  0  0
 21  6  1  0  0  0  0
 23 17  1  6  0  0  0
 23  5  1  0  0  0  0
 24 26  1  6  0  0  0
 27 28  1  0  0  0  0
 28 29  2  0  0  0  0
 29 26  1  0  0  0  0
 30 32  1  0  0  0  0
 32 34  1  0  0  0  0
 33 35  1  0  0  0  0
 33 32  1  0  0  0  0
 35 34  1  0  0  0  0
 35 31  1  0  0  0  0
 36 35  1  0  0  0  0
 38 39  1  0  0  0  0
 38 37  1  0  0  0  0
M  END
>  <MODEL>
1

>  <REMARK>
 VINA RESULT:      -4.4      0.000      0.000
  Name = 
  6 active torsions:
  status: ('A' for Active; 'I' for Inactive)
    1  A    between atoms: C_1  and  C_31
    2  A    between atoms: C_1  and  C_36
    3  A    between atoms: C_7  and  C_35
    4  A    between atoms: C_14  and  C_35
    5  A    between atoms: C_19  and  C_38
    6  A    between atoms: C_20  and  C_38
                            x       y       z     vdW  Elec       q    Type
                         _______ _______ _______ _____ _____    ______ ____

>  <TORSDO>
F 6

$$$$
=
 OpenBabel11072414583D

 39 45  0  0  1  0  0  0  0  0999 V2000
  161.8980  210.1280  154.6370 C   0  0  0  0  0  3  0  0  0  0  0  0
  161.1170  208.6300  152.2520 C   0  0  0  0  0  0  0  0  0  0  0  0
  160.3540  212.0610  151.3390 C   0  0  2  0  0  3  0  0  0  0  0  0
  161.4810  211.9410  148.3720 P   0  0  1  0  0  0  0  0  0  0  0  0
  161.2830  207.3880  148.7870 C   0  0  2  0  0  3  0  0  0  0  0  0
  162.0860  210.8160  149.6600 C   0  0  2  0  0  0  0  0  0  0  0  0
  162.1100  210.7180  153.2550 C   0  0  0  0  0  3  0  0  0  0  0  0
  159.9250  214.4520  151.1800 O   0  0  0  0  0  1  0  0  0  0  0  0
  163.4130  211.3550  150.1660 C   0  0  0  0  0  1  0  0  0  0  0  0
  161.1490  208.0730  153.6080 C   0  0  0  0  0  0  0  0  0  0  0  0
  162.3310  209.5700  149.0130 O   0  0  0  0  0  0  0  0  0  0  0  0
  161.4500  209.9500  152.0990 C   0  0  0  0  0  0  0  0  0  0  0  0
  161.2170  208.8140  149.1830 N   0  0  2  0  0  0  0  0  0  0  0  0
  161.0590  213.5010  149.1870 C   0  0  2  0  0  3  0  0  0  0  0  0
  160.8510  206.9670  155.5500 N   0  0  0  0  0  0  0  0  0  0  0  0
  160.2310  213.2990  150.4560 C   0  0  1  0  0  0  0  0  0  0  0  0
  160.8150  207.7850  151.1780 O   0  0  0  0  0  0  0  0  0  0  0  0
  162.6890  212.1950  147.2130 O   0  0  0  0  0  0  0  0  0  0  0  0
  161.2740  208.1130  155.9170 N   0  0  0  0  0  0  0  0  0  0  0  0
  161.4940  208.8710  154.7400 C   0  0  2  0  0  3  0  0  0  0  0  0
  161.0550  210.7640  150.8670 C   0  0  1  0  0  3  0  0  0  0  0  0
  160.2580  211.3560  147.7030 O   0  0  0  0  0  1  0  0  0  0  0  0
  161.7270  207.8010  150.1050 C   0  0  1  0  0  3  0  0  0  0  0  0
  160.7640  206.9120  154.1150 C   0  0  0  0  0  0  0  0  0  0  0  0
  159.1120  212.2840  150.4700 C   0  0  0  0  0  2  0  0  0  0  0  0
  160.1990  205.7660  153.3280 C   0  0  0  0  0  2  0  0  0  0  0  0
  162.0170  203.0250  151.3580 C   0  0  0  0  0  1  0  0  0  0  0  0
  160.9440  203.8440  151.9860 C   0  0  0  0  0  3  0  0  0  0  0  0
  161.2630  204.9320  152.6850 C   0  0  0  0  0  3  0  0  0  0  0  0
  162.4730  207.1050  147.8780 C   0  0  0  0  0  2  0  0  0  0  0  0
  161.3300  203.4750  145.6480 F   0  0  0  0  0  0  0  0  0  0  0  0
  162.0210  206.3440  146.6380 C   0  0  0  0  0  3  0  0  0  0  0  0
  160.8630  205.4250  146.9910 C   0  0  0  0  0  2  0  0  0  0  0  0
  162.9120  205.1290  146.4010 C   0  0  0  0  0  2  0  0  0  0  0  0
  161.7490  204.2230  146.7350 C   0  0  0  0  0  0  0  0  0  0  0  0
  161.9690  203.4660  147.8720 F   0  0  0  0  0  0  0  0  0  0  0  0
  160.3390  214.4350  148.2250 C   0  0  0  0  0  2  0  0  0  0  0  0
  160.8790  214.2650  146.8170 C   0  0  0  0  0  2  0  0  0  0  0  0
  159.7270  214.2160  145.8360 C   0  0  0  0  0  1  0  0  0  0  0  0
  2 10  1  0  0  0  0
  3 25  1  6  0  0  0
  4 18  2  6  0  0  0
  4 14  1  0  0  0  0
  4  6  1  0  0  0  0
  5 30  1  6  0  0  0
  5 13  1  0  0  0  0
  5 23  1  0  0  0  0
  6  9  1  1  0  0  0
  6 21  1  0  0  0  0
  7  1  2  0  0  0  0
 10 24  2  0  0  0  0
 10 20  1  0  0  0  0
 11  6  1  0  0  0  0
 12  2  2  0  0  0  0
 12  7  1  0  0  0  0
 13 11  1  6  0  0  0
 13 23  1  0  0  0  0
 14 37  1  6  0  0  0
 14 16  1  0  0  0  0
 15 19  2  0  0  0  0
 16 25  1  0  0  0  0
 16  8  1  1  0  0  0
 16  3  1  0  0  0  0
 17  2  1  0  0  0  0
 20  1  1  1  0  0  0
 20 19  1  0  0  0  0
 21  3  1  0  0  0  0
 21 12  1  1  0  0  0
 22  4  1  0  0  0  0
 23 17  1  1  0  0  0
 24 15  1  0  0  0  0
 26 24  1  0  0  0  0
 27 28  1  0  0  0  0
 28 29  2  0  0  0  0
 29 26  1  0  0  0  0
 31 35  1  0  0  0  0
 32 33  1  0  0  0  0
 32 30  1  0  0  0  0
 34 32  1  0  0  0  0
 34 35  1  0  0  0  0
 35 33  1  0  0  0  0
 35 36  1  0  0  0  0
 38 37  1  0  0  0  0
 39 38  1  0  0  0  0
M  END
>  <MODEL>
2

>  <REMARK>
 VINA RESULT:      -3.3      3.836      8.281
  Name = 
  6 active torsions:
  status: ('A' for Active; 'I' for Inactive)
    1  A    between atoms: C_1  and  C_31
    2  A    between atoms: C_1  and  C_36
    3  A    between atoms: C_7  and  C_35
    4  A    between atoms: C_14  and  C_35
    5  A    between atoms: C_19  and  C_38
    6  A    between atoms: C_20  and  C_38
                            x       y       z     vdW  Elec       q    Type
                         _______ _______ _______ _____ _____    ______ ____

>  <TORSDO>
F 6

$$$$
=
 OpenBabel11072414583D

 39 45  0  0  1  0  0  0  0  0999 V2000
  161.0680  206.8390  154.8560 C   0  0  0  0  0  3  0  0  0  0  0  0
  160.4840  208.6310  152.6220 C   0  0  0  0  0  0  0  0  0  0  0  0
  158.3400  209.9020  155.2640 C   0  0  2  0  0  3  0  0  0  0  0  0
  158.8690  212.9920  154.7510 P   0  0  1  0  0  0  0  0  0  0  0  0
  160.4680  211.7430  150.6490 C   0  0  2  0  0  3  0  0  0  0  0  0
  160.0740  211.7300  154.2550 C   0  0  2  0  0  0  0  0  0  0  0  0
  160.7890  208.3090  155.1030 C   0  0  0  0  0  2  0  0  0  0  0  0
  157.0260  210.3620  157.2610 O   0  0  0  0  0  1  0  0  0  0  0  0
  161.1720  211.6950  155.3050 C   0  0  0  0  0  1  0  0  0  0  0  0
  160.9690  207.2550  152.4770 C   0  0  0  0  0  0  0  0  0  0  0  0
  160.6460  212.1880  153.0320 O   0  0  0  0  0  0  0  0  0  0  0  0
  160.2650  209.0960  153.8920 C   0  0  0  0  0  0  0  0  0  0  0  0
  159.9470  211.6020  152.0290 N   0  0  2  0  0  0  0  0  0  0  0  0
  158.0500  212.3830  156.2460 C   0  0  2  0  0  3  0  0  0  0  0  0
  161.4650  205.1400  151.8750 N   0  0  0  0  0  0  0  0  0  0  0  0
  157.6040  210.9260  156.1220 C   0  0  1  0  0  0  0  0  0  0  0  0
  160.3300  209.4220  151.4780 O   0  0  0  0  0  0  0  0  0  0  0  0
  159.6610  214.4530  155.0720 O   0  0  0  0  0  1  0  0  0  0  0  0
  161.4880  205.1050  153.1510 N   0  0  0  0  0  0  0  0  0  0  0  0
  161.1900  206.4130  153.6070 C   0  0  0  0  0  0  0  0  0  0  0  0
  159.3760  210.3050  154.1860 C   0  0  1  0  0  3  0  0  0  0  0  0
  157.8540  213.2010  153.6500 O   0  0  0  0  0  0  0  0  0  0  0  0
  160.9570  210.6820  151.5090 C   0  0  1  0  0  3  0  0  0  0  0  0
  161.1450  206.4680  151.4260 C   0  0  0  0  0  0  0  0  0  0  0  0
  156.9690  210.4390  154.8420 C   0  0  0  0  0  2  0  0  0  0  0  0
  160.9170  206.8640  149.9960 C   0  0  0  0  0  2  0  0  0  0  0  0
  161.5190  204.7090  146.8840 C   0  0  0  0  0  1  0  0  0  0  0  0
  161.4340  205.8760  147.8050 C   0  0  0  0  0  3  0  0  0  0  0  0
  161.0140  205.7030  149.0570 C   0  0  0  0  0  3  0  0  0  0  0  0
  161.4900  212.8680  150.5400 C   0  0  0  0  0  2  0  0  0  0  0  0
  161.2980  212.5980  146.1410 F   0  0  0  0  0  0  0  0  0  0  0  0
  161.4920  213.4450  149.1300 C   0  0  0  0  0  3  0  0  0  0  0  0
  160.3300  212.8700  148.3360 C   0  0  0  0  0  2  0  0  0  0  0  0
  162.4730  212.6880  148.2430 C   0  0  0  0  0  2  0  0  0  0  0  0
  161.3130  212.1350  147.4460 C   0  0  0  0  0  0  0  0  0  0  0  0
  161.2030  210.7590  147.5440 F   0  0  0  0  0  0  0  0  0  0  0  0
  156.8700  213.2710  156.6150 C   0  0  0  0  0  2  0  0  0  0  0  0
  155.6710  212.9500  155.7400 C   0  0  0  0  0  2  0  0  0  0  0  0
  154.9400  214.2290  155.3970 C   0  0  0  0  0  1  0  0  0  0  0  0
  1  7  1  0  0  0  0
  2 12  2  0  0  0  0
  3 25  1  6  0  0  0
  3 16  1  0  0  0  0
  4 22  2  6  0  0  0
  4 18  1  0  0  0  0
  4 14  1  0  0  0  0
  5 30  1  1  0  0  0
  5 23  1  0  0  0  0
  5 13  1  0  0  0  0
  6  4  1  0  0  0  0
  6  9  1  1  0  0  0
 10  2  1  0  0  0  0
 10 20  1  0  0  0  0
 11  6  1  0  0  0  0
 12  7  1  0  0  0  0
 13 11  1  1  0  0  0
 14 37  1  6  0  0  0
 15 19  2  0  0  0  0
 16 14  1  0  0  0  0
 16  8  1  1  0  0  0
 17  2  1  0  0  0  0
 19 20  1  0  0  0  0
 20  1  2  0  0  0  0
 21 12  1  1  0  0  0
 21  6  1  0  0  0  0
 21  3  1  0  0  0  0
 23 17  1  6  0  0  0
 23 13  1  0  0  0  0
 24 15  1  0  0  0  0
 24 10  2  0  0  0  0
 25 16  1  0  0  0  0
 26 24  1  0  0  0  0
 27 28  1  0  0  0  0
 28 29  2  0  0  0  0
 29 26  1  0  0  0  0
 31 35  1  0  0  0  0
 32 30  1  0  0  0  0
 33 32  1  0  0  0  0
 34 32  1  0  0  0  0
 35 36  1  0  0  0  0
 35 34  1  0  0  0  0
 35 33  1  0  0  0  0
 38 37  1  0  0  0  0
 39 38  1  0  0  0  0
M  END
>  <MODEL>
3

>  <REMARK>
 VINA RESULT:      -2.3      3.597      8.534
  Name = 
  6 active torsions:
  status: ('A' for Active; 'I' for Inactive)
    1  A    between atoms: C_1  and  C_31
    2  A    between atoms: C_1  and  C_36
    3  A    between atoms: C_7  and  C_35
    4  A    between atoms: C_14  and  C_35
    5  A    between atoms: C_19  and  C_38
    6  A    between atoms: C_20  and  C_38
                            x       y       z     vdW  Elec       q    Type
                         _______ _______ _______ _____ _____    ______ ____

>  <TORSDO>
F 6

$$$$
