=
 OpenBabel11072410363D

 54 60  0  0  1  0  0  0  0  0999 V2000
  161.2520  205.5270  148.4390 C   0  0  0  0  0  3  0  0  0  0  0  0
  160.4550  204.4470  150.4690 C   0  0  2  0  0  3  0  0  0  0  0  0
  162.3330  207.9220  149.4110 C   0  0  0  0  0  3  0  0  0  0  0  0
  161.1370  205.7580  149.7810 C   0  0  0  0  0  0  0  0  0  0  0  0
  162.1430  207.6910  148.0150 C   0  0  0  0  0  3  0  0  0  0  0  0
  161.8740  204.4210  152.5410 O   0  0  0  0  0  0  0  0  0  0  0  0
  161.5910  206.5070  147.5050 C   0  0  0  0  0  3  0  0  0  0  0  0
  161.1960  206.7680  152.9220 C   0  0  1  0  0  3  0  0  0  0  0  0
  160.9720  207.6240  151.6330 N   0  0  0  0  0  0  0  0  0  0  0  0
  160.5730  204.2000  151.9700 C   0  0  0  0  0  2  0  0  0  0  0  0
  162.2340  205.6660  152.9450 C   0  0  0  0  0  0  0  0  0  0  0  0
  161.4580  207.1330  150.3210 C   0  0  0  0  0  0  0  0  0  0  0  0
  163.2420  205.8290  153.6600 O   0  0  0  0  0  0  0  0  0  0  0  0
  161.1720  213.2600  149.9280 C   0  0  0  0  0  2  0  0  0  0  0  0
  161.5360  211.1230  148.9940 N   0  0  0  0  0  0  0  0  0  0  0  0
  160.9270  209.9660  151.1150 C   0  0  0  0  0  0  0  0  0  0  0  0
  160.6370  209.0340  152.0130 C   0  0  0  0  0  3  0  0  0  0  0  0
  161.4550  212.5240  148.6300 C   0  0  1  0  0  3  0  0  0  0  0  0
  160.8390  212.2760  150.8590 O   0  0  0  0  0  0  0  0  0  0  0  0
  161.0440  211.0160  150.3290 C   0  0  0  0  0  0  0  0  0  0  0  0
  162.3500  210.1680  148.2190 C   0  0  0  0  0  1  0  0  0  0  0  0
  160.3630  212.7230  147.7940 O   0  0  0  0  0  0  0  0  0  0  0  0
  162.0410  213.8250  144.2520 C   0  0  0  0  0  0  0  0  0  0  0  0
  160.5850  214.0050  144.4380 C   0  0  0  0  0  3  0  0  0  0  0  0
  162.2620  213.7850  146.7060 C   0  0  0  0  0  2  0  0  0  0  0  0
  162.7700  213.9260  142.6490 Cl  0  0  0  0  0  0  0  0  0  0  0  0
  160.0050  213.6990  145.6030 C   0  0  0  0  0  0  0  0  0  0  0  0
  162.8240  213.7110  145.3160 C   0  0  0  0  0  3  0  0  0  0  0  0
  160.8580  213.3220  146.7040 N   0  0  0  0  0  0  0  0  0  0  0  0
  155.8740  214.4440  146.2660 C   0  0  0  0  0  3  0  0  0  0  0  0
  156.7360  214.4410  147.3730 C   0  0  0  0  0  0  0  0  0  0  0  0
  157.7210  214.1400  144.7690 C   0  0  0  0  0  3  0  0  0  0  0  0
  158.1130  214.2770  147.1580 C   0  0  0  0  0  3  0  0  0  0  0  0
  158.6220  214.1680  145.8490 C   0  0  0  0  0  0  0  0  0  0  0  0
  156.3630  214.2740  144.9750 C   0  0  0  0  0  3  0  0  0  0  0  0
  156.1230  214.3960  148.7530 C   0  0  0  0  0  2  0  0  0  0  0  0
  157.4340  212.6180  149.6530 F   0  0  0  0  0  0  0  0  0  0  0  0
  156.7190  214.2400  151.2020 C   0  0  0  0  0  1  0  0  0  0  0  0
  157.1670  213.9610  149.7870 C   0  0  2  0  0  3  0  0  0  0  0  0
  160.7910  203.1270  149.7650 C   0  0  0  0  0  2  0  0  0  0  0  0
  160.2970  201.8530  150.1970 F   0  0  0  0  0  0  0  0  0  0  0  0
  160.4930  206.7000  155.3210 O   0  0  0  0  0  0  0  0  0  0  0  0
  160.7180  207.3870  154.3290 C   0  0  0  0  0  0  0  0  0  0  0  0
  160.5220  208.7110  154.5270 O   0  0  0  0  0  0  0  0  0  0  0  0
  156.4970  211.8860  155.0200 C   0  0  0  0  0  1  0  0  0  0  0  0
  159.6340  212.3130  157.1690 C   0  0  0  0  0  3  0  0  0  0  0  0
  159.7440  210.2030  155.9620 C   0  0  0  0  0  0  0  0  0  0  0  0
  157.8010  211.6130  155.7010 C   0  0  0  0  0  0  0  0  0  0  0  0
  158.3770  212.5170  156.6020 C   0  0  0  0  0  3  0  0  0  0  0  0
  161.9830  209.6440  156.3120 C   0  0  0  0  0  2  0  0  0  0  0  0
  160.3260  211.1580  156.8040 C   0  0  0  0  0  0  0  0  0  0  0  0
  160.5980  209.0550  155.8260 C   0  0  2  0  0  3  0  0  0  0  0  0
  158.4880  210.4500  155.4090 C   0  0  0  0  0  3  0  0  0  0  0  0
  161.6710  210.8470  157.1290 N   0  0  0  0  0  2  0  0  0  0  0  0
  1  4  1  0  0  0  0
  2 40  1  6  0  0  0
  2 10  1  0  0  0  0
  3 12  1  0  0  0  0
  4 12  2  0  0  0  0
  4  2  1  0  0  0  0
  5  3  2  0  0  0  0
  6 11  1  0  0  0  0
  7  5  1  0  0  0  0
  7  1  2  0  0  0  0
  8 11  1  0  0  0  0
  8 43  1  1  0  0  0
  9 17  1  0  0  0  0
  9  8  1  0  0  0  0
 10  6  1  0  0  0  0
 11 13  2  0  0  0  0
 12  9  1  0  0  0  0
 14 19  1  0  0  0  0
 15 20  1  0  0  0  0
 16 17  2  0  0  0  0
 18 22  1  6  0  0  0
 18 15  1  0  0  0  0
 18 14  1  0  0  0  0
 20 19  1  0  0  0  0
 20 16  2  0  0  0  0
 21 15  1  0  0  0  0
 23 24  1  0  0  0  0
 23 28  2  0  0  0  0
 24 27  2  0  0  0  0
 26 23  1  0  0  0  0
 27 34  1  0  0  0  0
 27 29  1  0  0  0  0
 28 25  1  0  0  0  0
 29 25  1  0  0  0  0
 29 22  1  0  0  0  0
 30 31  1  0  0  0  0
 31 36  1  0  0  0  0
 32 35  1  0  0  0  0
 32 34  2  0  0  0  0
 33 31  2  0  0  0  0
 34 33  1  0  0  0  0
 35 30  2  0  0  0  0
 36 39  1  0  0  0  0
 37 39  1  0  0  0  0
 39 38  1  1  0  0  0
 40 41  1  0  0  0  0
 43 44  1  0  0  0  0
 43 42  2  0  0  0  0
 45 48  1  0  0  0  0
 47 51  2  0  0  0  0
 48 49  1  0  0  0  0
 49 46  2  0  0  0  0
 50 54  1  0  0  0  0
 51 54  1  0  0  0  0
 51 46  1  0  0  0  0
 52 44  1  6  0  0  0
 52 47  1  0  0  0  0
 52 50  1  0  0  0  0
 53 48  2  0  0  0  0
 53 47  1  0  0  0  0
M  END
>  <MODEL>
1

>  <REMARK>
 VINA RESULT:      -5.9      0.000      0.000
  Name = 
  10 active torsions:
  status: ('A' for Active; 'I' for Inactive)
    1  A    between atoms: C_9  and  C_18
    2  A    between atoms: C_11  and  C_34
    3  A    between atoms: C_21  and  C_37
    4  A    between atoms: C_24  and  N_44
    5  A    between atoms: C_28  and  O_51
    6  A    between atoms: O_31  and  C_33
    7  A    between atoms: O_31  and  C_43
    8  A    between atoms: C_34  and  C_47
    9  A    between atoms: C_36  and  C_43
   10  A    between atoms: N_42  and  O_51
                            x       y       z     vdW  Elec       q    Type
                         _______ _______ _______ _____ _____    ______ ____

>  <TORSDO>
F 10

$$$$
=
 OpenBabel11072410363D

 54 60  0  0  1  0  0  0  0  0999 V2000
  159.0780  209.9220  156.8230 C   0  0  0  0  0  3  0  0  0  0  0  0
  157.2040  210.9260  155.6380 C   0  0  2  0  0  3  0  0  0  0  0  0
  161.2440  210.5270  155.1520 C   0  0  0  0  0  3  0  0  0  0  0  0
  158.7960  210.5810  155.6590 C   0  0  0  0  0  0  0  0  0  0  0  0
  161.3640  209.6140  156.2440 C   0  0  0  0  0  3  0  0  0  0  0  0
  157.4060  213.2240  154.6460 O   0  0  0  0  0  0  0  0  0  0  0  0
  160.2920  209.2850  157.0860 C   0  0  0  0  0  3  0  0  0  0  0  0
  158.6860  212.2080  152.7910 C   0  0  1  0  0  3  0  0  0  0  0  0
  159.5820  210.9860  153.1770 N   0  0  0  0  0  0  0  0  0  0  0  0
  156.6480  212.0040  154.7130 C   0  0  0  0  0  2  0  0  0  0  0  0
  158.4440  213.3300  153.7780 C   0  0  0  0  0  0  0  0  0  0  0  0
  159.8720  210.6980  154.6030 C   0  0  0  0  0  0  0  0  0  0  0  0
  158.9450  214.4440  153.5290 O   0  0  0  0  0  0  0  0  0  0  0  0
  162.4260  206.4430  150.7320 C   0  0  0  0  0  2  0  0  0  0  0  0
  161.0210  206.8510  152.5850 N   0  0  0  0  0  0  0  0  0  0  0  0
  160.7500  209.2570  151.9950 C   0  0  0  0  0  0  0  0  0  0  0  0
  160.3480  210.5210  151.9780 C   0  0  0  0  0  3  0  0  0  0  0  0
  161.6630  205.7720  151.8600 C   0  0  1  0  0  3  0  0  0  0  0  0
  161.9760  207.7630  150.7000 O   0  0  0  0  0  0  0  0  0  0  0  0
  161.1500  208.0210  151.7770 C   0  0  0  0  0  0  0  0  0  0  0  0
  160.7020  206.7370  154.0200 C   0  0  0  0  0  1  0  0  0  0  0  0
  160.6920  204.9640  151.2800 O   0  0  0  0  0  0  0  0  0  0  0  0
  161.4270  206.2620  147.4910 C   0  0  0  0  0  0  0  0  0  0  0  0
  161.6550  204.8360  147.8130 C   0  0  0  0  0  3  0  0  0  0  0  0
  159.9360  206.3770  149.4490 C   0  0  0  0  0  2  0  0  0  0  0  0
  162.0630  206.9680  146.0050 Cl  0  0  0  0  0  0  0  0  0  0  0  0
  161.3810  204.3630  149.0330 C   0  0  0  0  0  0  0  0  0  0  0  0
  160.6300  206.9850  148.2650 C   0  0  0  0  0  3  0  0  0  0  0  0
  160.7340  205.2470  149.9710 N   0  0  0  0  0  0  0  0  0  0  0  0
  160.6740  200.1840  149.3560 C   0  0  0  0  0  3  0  0  0  0  0  0
  161.4570  200.6470  148.2880 C   0  0  0  0  0  0  0  0  0  0  0  0
  160.5240  202.3980  150.2620 C   0  0  0  0  0  3  0  0  0  0  0  0
  161.7660  202.0140  148.2150 C   0  0  0  0  0  3  0  0  0  0  0  0
  161.3360  202.8960  149.2270 C   0  0  0  0  0  0  0  0  0  0  0  0
  160.1940  201.0590  150.3250 C   0  0  0  0  0  3  0  0  0  0  0  0
  161.7470  199.6920  147.1530 C   0  0  0  0  0  2  0  0  0  0  0  0
  160.9830  198.9900  145.0060 F   0  0  0  0  0  0  0  0  0  0  0  0
  160.6860  201.2730  145.4940 C   0  0  0  0  0  1  0  0  0  0  0  0
  160.7140  199.8630  146.0340 C   0  0  2  0  0  3  0  0  0  0  0  0
  156.5990  211.1660  157.0270 C   0  0  0  0  0  2  0  0  0  0  0  0
  155.3090  211.7540  157.2370 F   0  0  0  0  0  0  0  0  0  0  0  0
  157.3920  212.8700  150.7560 O   0  0  0  0  0  0  0  0  0  0  0  0
  158.4690  212.5170  151.2260 C   0  0  0  0  0  0  0  0  0  0  0  0
  159.4560  212.4090  150.3060 O   0  0  0  0  0  0  0  0  0  0  0  0
  157.1010  212.6690  145.7340 C   0  0  0  0  0  1  0  0  0  0  0  0
  160.4660  214.3900  146.3310 C   0  0  0  0  0  3  0  0  0  0  0  0
  159.5570  213.6010  148.4460 C   0  0  0  0  0  0  0  0  0  0  0  0
  158.2920  213.2630  146.4180 C   0  0  0  0  0  0  0  0  0  0  0  0
  159.3100  213.9160  145.7130 C   0  0  0  0  0  3  0  0  0  0  0  0
  161.4340  213.8370  149.8150 C   0  0  0  0  0  2  0  0  0  0  0  0
  160.5910  214.1880  147.7060 C   0  0  0  0  0  0  0  0  0  0  0  0
  159.8690  213.6050  149.8490 C   0  0  2  0  0  3  0  0  0  0  0  0
  158.4210  213.1330  147.7880 C   0  0  0  0  0  3  0  0  0  0  0  0
  161.7460  214.4370  148.4900 N   0  0  0  0  0  2  0  0  0  0  0  0
  1  7  1  0  0  0  0
  2  4  1  0  0  0  0
  2 40  1  1  0  0  0
  3  5  1  0  0  0  0
  4  1  2  0  0  0  0
  5  7  2  0  0  0  0
  6 10  1  0  0  0  0
  8 43  1  6  0  0  0
  8  9  1  0  0  0  0
  8 11  1  0  0  0  0
  9 12  1  0  0  0  0
 10  2  1  0  0  0  0
 11  6  1  0  0  0  0
 12  3  2  0  0  0  0
 12  4  1  0  0  0  0
 13 11  2  0  0  0  0
 14 18  1  0  0  0  0
 15 21  1  0  0  0  0
 17 16  2  0  0  0  0
 17  9  1  0  0  0  0
 18 22  1  6  0  0  0
 18 15  1  0  0  0  0
 19 14  1  0  0  0  0
 19 20  1  0  0  0  0
 20 16  2  0  0  0  0
 20 15  1  0  0  0  0
 23 24  1  0  0  0  0
 23 28  2  0  0  0  0
 24 27  2  0  0  0  0
 25 29  1  0  0  0  0
 26 23  1  0  0  0  0
 27 34  1  0  0  0  0
 27 29  1  0  0  0  0
 28 25  1  0  0  0  0
 29 22  1  0  0  0  0
 30 35  1  0  0  0  0
 31 30  2  0  0  0  0
 32 35  2  0  0  0  0
 33 31  1  0  0  0  0
 33 34  2  0  0  0  0
 34 32  1  0  0  0  0
 36 31  1  0  0  0  0
 37 39  1  0  0  0  0
 39 38  1  6  0  0  0
 39 36  1  0  0  0  0
 40 41  1  0  0  0  0
 42 43  2  0  0  0  0
 44 43  1  0  0  0  0
 45 48  1  0  0  0  0
 46 51  1  0  0  0  0
 47 52  1  0  0  0  0
 48 53  2  0  0  0  0
 49 46  2  0  0  0  0
 49 48  1  0  0  0  0
 50 52  1  0  0  0  0
 51 47  2  0  0  0  0
 51 54  1  0  0  0  0
 52 44  1  6  0  0  0
 53 47  1  0  0  0  0
 54 50  1  0  0  0  0
M  END
>  <MODEL>
2

>  <REMARK>
 VINA RESULT:      -4.6      2.805      9.695
  Name = 
  10 active torsions:
  status: ('A' for Active; 'I' for Inactive)
    1  A    between atoms: C_9  and  C_18
    2  A    between atoms: C_11  and  C_34
    3  A    between atoms: C_21  and  C_37
    4  A    between atoms: C_24  and  N_44
    5  A    between atoms: C_28  and  O_51
    6  A    between atoms: O_31  and  C_33
    7  A    between atoms: O_31  and  C_43
    8  A    between atoms: C_34  and  C_47
    9  A    between atoms: C_36  and  C_43
   10  A    between atoms: N_42  and  O_51
                            x       y       z     vdW  Elec       q    Type
                         _______ _______ _______ _____ _____    ______ ____

>  <TORSDO>
F 10

$$$$
=
 OpenBabel11072410363D

 54 60  0  0  1  0  0  0  0  0999 V2000
  160.6560  206.1400  154.7980 C   0  0  0  0  0  3  0  0  0  0  0  0
  159.4580  208.1110  155.5750 C   0  0  2  0  0  3  0  0  0  0  0  0
  162.3670  207.2000  152.8480 C   0  0  0  0  0  3  0  0  0  0  0  0
  160.5460  207.4770  154.5390 C   0  0  0  0  0  0  0  0  0  0  0  0
  162.1910  205.7920  153.0140 C   0  0  0  0  0  3  0  0  0  0  0  0
  160.6860  210.2540  156.0290 O   0  0  0  0  0  0  0  0  0  0  0  0
  161.3300  205.2380  153.9740 C   0  0  0  0  0  3  0  0  0  0  0  0
  160.7420  210.6300  153.5860 C   0  0  1  0  0  3  0  0  0  0  0  0
  160.8620  209.3430  152.7060 N   0  0  0  0  0  0  0  0  0  0  0  0
  159.4130  209.6120  155.8410 C   0  0  0  0  0  2  0  0  0  0  0  0
  161.3880  210.6920  154.9540 C   0  0  0  0  0  0  0  0  0  0  0  0
  161.2430  208.0510  153.3270 C   0  0  0  0  0  0  0  0  0  0  0  0
  162.3570  211.4620  155.1060 O   0  0  0  0  0  0  0  0  0  0  0  0
  161.8840  207.3670  147.2510 C   0  0  0  0  0  2  0  0  0  0  0  0
  161.5180  206.4780  149.4070 N   0  0  0  0  0  0  0  0  0  0  0  0
  161.2130  208.7380  150.4120 C   0  0  0  0  0  0  0  0  0  0  0  0
  160.9560  209.7240  151.2610 C   0  0  0  0  0  3  0  0  0  0  0  0
  161.6640  206.0770  148.0210 C   0  0  1  0  0  3  0  0  0  0  0  0
  161.5830  208.3990  148.1410 O   0  0  0  0  0  0  0  0  0  0  0  0
  161.3630  207.8970  149.4100 C   0  0  0  0  0  0  0  0  0  0  0  0
  161.8780  205.5750  150.5160 C   0  0  0  0  0  1  0  0  0  0  0  0
  160.4710  205.5250  147.5710 O   0  0  0  0  0  0  0  0  0  0  0  0
  161.5290  205.6470  143.6410 C   0  0  0  0  0  0  0  0  0  0  0  0
  161.5190  204.3410  144.3370 C   0  0  0  0  0  3  0  0  0  0  0  0
  160.0100  206.4920  145.3870 C   0  0  0  0  0  2  0  0  0  0  0  0
  162.3190  205.8330  142.0760 Cl  0  0  0  0  0  0  0  0  0  0  0  0
  161.1320  204.2540  145.6130 C   0  0  0  0  0  0  0  0  0  0  0  0
  160.8310  206.6570  144.1420 C   0  0  0  0  0  3  0  0  0  0  0  0
  160.6010  205.4390  146.2410 N   0  0  0  0  0  0  0  0  0  0  0  0
  160.8830  200.2480  147.0100 C   0  0  0  0  0  3  0  0  0  0  0  0
  161.1990  201.2570  147.9320 C   0  0  0  0  0  0  0  0  0  0  0  0
  160.5740  201.8710  145.2740 C   0  0  0  0  0  3  0  0  0  0  0  0
  161.2040  202.5920  147.5010 C   0  0  0  0  0  3  0  0  0  0  0  0
  160.8490  202.9140  146.1760 C   0  0  0  0  0  0  0  0  0  0  0  0
  160.5930  200.5530  145.6840 C   0  0  0  0  0  3  0  0  0  0  0  0
  161.7280  200.8430  149.2860 C   0  0  0  0  0  2  0  0  0  0  0  0
  159.4230  200.9840  149.8790 F   0  0  0  0  0  0  0  0  0  0  0  0
  160.8410  202.5370  150.9340 C   0  0  0  0  0  1  0  0  0  0  0  0
  160.6950  201.1420  150.3770 C   0  0  2  0  0  3  0  0  0  0  0  0
  159.4090  207.4070  156.9360 C   0  0  0  0  0  2  0  0  0  0  0  0
  158.9140  206.0750  157.1210 F   0  0  0  0  0  0  0  0  0  0  0  0
  160.8300  212.3070  151.7320 O   0  0  0  0  0  0  0  0  0  0  0  0
  160.4010  212.0180  152.8450 C   0  0  0  0  0  0  0  0  0  0  0  0
  159.6170  212.9760  153.3930 O   0  0  0  0  0  0  0  0  0  0  0  0
  156.6570  214.4530  149.4470 C   0  0  0  0  0  1  0  0  0  0  0  0
  155.2310  214.1280  152.9830 C   0  0  0  0  0  3  0  0  0  0  0  0
  157.4700  213.1790  152.9070 C   0  0  0  0  0  0  0  0  0  0  0  0
  156.5030  214.0840  150.8890 C   0  0  0  0  0  0  0  0  0  0  0  0
  155.3450  214.3850  151.6170 C   0  0  0  0  0  3  0  0  0  0  0  0
  157.8980  212.9510  155.1910 C   0  0  0  0  0  2  0  0  0  0  0  0
  156.3280  213.5540  153.6250 C   0  0  0  0  0  0  0  0  0  0  0  0
  158.4110  212.5080  153.7620 C   0  0  2  0  0  3  0  0  0  0  0  0
  157.5480  213.4610  151.5450 C   0  0  0  0  0  3  0  0  0  0  0  0
  156.4810  213.3700  155.0230 N   0  0  0  0  0  2  0  0  0  0  0  0
  2 10  1  0  0  0  0
  2 40  1  1  0  0  0
  3  5  2  0  0  0  0
  3 12  1  0  0  0  0
  4  1  1  0  0  0  0
  4  2  1  0  0  0  0
  5  7  1  0  0  0  0
  7  1  2  0  0  0  0
  8 43  1  6  0  0  0
  8 11  1  0  0  0  0
  9 12  1  0  0  0  0
  9  8  1  0  0  0  0
 10  6  1  0  0  0  0
 11 13  2  0  0  0  0
 11  6  1  0  0  0  0
 12  4  2  0  0  0  0
 14 18  1  0  0  0  0
 14 19  1  0  0  0  0
 15 20  1  0  0  0  0
 15 21  1  0  0  0  0
 16 17  2  0  0  0  0
 17  9  1  0  0  0  0
 18 22  1  6  0  0  0
 18 15  1  0  0  0  0
 19 20  1  0  0  0  0
 20 16  2  0  0  0  0
 23 28  2  0  0  0  0
 23 24  1  0  0  0  0
 24 27  2  0  0  0  0
 25 29  1  0  0  0  0
 26 23  1  0  0  0  0
 27 34  1  0  0  0  0
 27 29  1  0  0  0  0
 28 25  1  0  0  0  0
 29 22  1  0  0  0  0
 30 31  1  0  0  0  0
 31 36  1  0  0  0  0
 32 35  1  0  0  0  0
 32 34  2  0  0  0  0
 33 31  2  0  0  0  0
 34 33  1  0  0  0  0
 35 30  2  0  0  0  0
 36 39  1  0  0  0  0
 37 39  1  0  0  0  0
 39 38  1  6  0  0  0
 40 41  1  0  0  0  0
 42 43  2  0  0  0  0
 43 44  1  0  0  0  0
 45 48  1  0  0  0  0
 46 51  1  0  0  0  0
 47 51  2  0  0  0  0
 47 52  1  0  0  0  0
 48 53  2  0  0  0  0
 48 49  1  0  0  0  0
 49 46  2  0  0  0  0
 51 54  1  0  0  0  0
 52 44  1  6  0  0  0
 52 50  1  0  0  0  0
 53 47  1  0  0  0  0
 54 50  1  0  0  0  0
M  END
>  <MODEL>
3

>  <REMARK>
 VINA RESULT:      -3.3      3.660      7.922
  Name = 
  10 active torsions:
  status: ('A' for Active; 'I' for Inactive)
    1  A    between atoms: C_9  and  C_18
    2  A    between atoms: C_11  and  C_34
    3  A    between atoms: C_21  and  C_37
    4  A    between atoms: C_24  and  N_44
    5  A    between atoms: C_28  and  O_51
    6  A    between atoms: O_31  and  C_33
    7  A    between atoms: O_31  and  C_43
    8  A    between atoms: C_34  and  C_47
    9  A    between atoms: C_36  and  C_43
   10  A    between atoms: N_42  and  O_51
                            x       y       z     vdW  Elec       q    Type
                         _______ _______ _______ _____ _____    ______ ____

>  <TORSDO>
F 10

$$$$
=
 OpenBabel11072410363D

 54 60  0  0  1  0  0  0  0  0999 V2000
  159.1380  210.7110  156.2770 C   0  0  0  0  0  3  0  0  0  0  0  0
  157.7850  211.4280  154.3840 C   0  0  2  0  0  3  0  0  0  0  0  0
  161.7470  210.9820  155.2920 C   0  0  0  0  0  3  0  0  0  0  0  0
  159.2700  211.1120  154.9760 C   0  0  0  0  0  0  0  0  0  0  0  0
  161.4700  210.3160  156.5250 C   0  0  0  0  0  3  0  0  0  0  0  0
  158.4120  213.4730  153.0690 O   0  0  0  0  0  0  0  0  0  0  0  0
  160.1720  210.1560  157.0320 C   0  0  0  0  0  3  0  0  0  0  0  0
  160.1500  212.1100  151.9570 C   0  0  1  0  0  3  0  0  0  0  0  0
  160.8120  211.0050  152.8430 N   0  0  0  0  0  0  0  0  0  0  0  0
  157.6060  212.2850  153.1350 C   0  0  0  0  0  2  0  0  0  0  0  0
  159.6740  213.4090  152.5720 C   0  0  0  0  0  0  0  0  0  0  0  0
  160.6260  211.0210  154.3140 C   0  0  0  0  0  0  0  0  0  0  0  0
  160.2880  214.4530  152.2780 O   0  0  0  0  0  0  0  0  0  0  0  0
  163.0050  205.7730  151.2540 C   0  0  0  0  0  2  0  0  0  0  0  0
  161.0700  206.6270  152.3030 N   0  0  0  0  0  0  0  0  0  0  0  0
  161.8390  208.9850  152.0580 C   0  0  0  0  0  0  0  0  0  0  0  0
  161.8870  210.3100  152.0660 C   0  0  0  0  0  3  0  0  0  0  0  0
  161.6330  205.3960  151.7830 C   0  0  1  0  0  3  0  0  0  0  0  0
  163.0370  207.1680  151.2370 O   0  0  0  0  0  0  0  0  0  0  0  0
  161.9110  207.6870  151.8460 C   0  0  0  0  0  0  0  0  0  0  0  0
  160.0790  206.6250  153.3950 C   0  0  0  0  0  1  0  0  0  0  0  0
  160.8770  204.9630  150.7020 O   0  0  0  0  0  0  0  0  0  0  0  0
  161.1060  200.9060  150.4380 C   0  0  0  0  0  0  0  0  0  0  0  0
  161.1820  201.7070  149.1960 C   0  0  0  0  0  3  0  0  0  0  0  0
  161.7780  202.9250  151.6790 C   0  0  0  0  0  2  0  0  0  0  0  0
  160.8270  199.1660  150.3780 Cl  0  0  0  0  0  0  0  0  0  0  0  0
  161.1570  203.0420  149.2460 C   0  0  0  0  0  0  0  0  0  0  0  0
  161.3740  201.4820  151.6020 C   0  0  0  0  0  3  0  0  0  0  0  0
  161.1930  203.6710  150.5440 N   0  0  0  0  0  0  0  0  0  0  0  0
  161.6250  205.2510  145.6450 C   0  0  0  0  0  3  0  0  0  0  0  0
  161.7280  205.9360  146.8650 C   0  0  0  0  0  0  0  0  0  0  0  0
  161.3980  203.1570  146.7890 C   0  0  0  0  0  3  0  0  0  0  0  0
  161.6570  205.2050  148.0610 C   0  0  0  0  0  3  0  0  0  0  0  0
  161.5340  203.8020  148.0320 C   0  0  0  0  0  0  0  0  0  0  0  0
  161.4400  203.8720  145.6100 C   0  0  0  0  0  3  0  0  0  0  0  0
  161.6930  207.4460  146.8380 C   0  0  0  0  0  2  0  0  0  0  0  0
  160.7840  207.7080  149.0270 F   0  0  0  0  0  0  0  0  0  0  0  0
  162.0870  209.5050  148.2460 C   0  0  0  0  0  1  0  0  0  0  0  0
  161.8780  208.0100  148.2510 C   0  0  2  0  0  3  0  0  0  0  0  0
  156.7910  211.9430  155.4330 C   0  0  0  0  0  2  0  0  0  0  0  0
  157.0360  213.0890  156.2580 F   0  0  0  0  0  0  0  0  0  0  0  0
  161.4640  211.5920  149.8930 O   0  0  0  0  0  0  0  0  0  0  0  0
  160.4490  212.0860  150.3760 C   0  0  0  0  0  0  0  0  0  0  0  0
  159.6080  212.6120  149.4550 O   0  0  0  0  0  0  0  0  0  0  0  0
  156.1720  213.4080  145.7030 C   0  0  0  0  0  1  0  0  0  0  0  0
  159.8730  214.2440  145.2110 C   0  0  0  0  0  3  0  0  0  0  0  0
  159.4500  213.7250  147.5510 C   0  0  0  0  0  0  0  0  0  0  0  0
  157.6140  213.6940  145.9830 C   0  0  0  0  0  0  0  0  0  0  0  0
  158.5110  214.0670  144.9750 C   0  0  0  0  0  3  0  0  0  0  0  0
  161.6400  213.4990  148.3260 C   0  0  0  0  0  2  0  0  0  0  0  0
  160.3350  214.0300  146.5100 C   0  0  0  0  0  0  0  0  0  0  0  0
  160.1430  213.6640  148.8080 C   0  0  2  0  0  3  0  0  0  0  0  0
  158.0960  213.5480  147.2700 C   0  0  0  0  0  3  0  0  0  0  0  0
  161.6920  213.9910  146.9230 N   0  0  0  0  0  2  0  0  0  0  0  0
  1  7  1  0  0  0  0
  2  4  1  0  0  0  0
  2 40  1  1  0  0  0
  3  5  1  0  0  0  0
  4  1  2  0  0  0  0
  5  7  2  0  0  0  0
  6 10  1  0  0  0  0
  8 43  1  6  0  0  0
  8 11  1  0  0  0  0
  8  9  1  0  0  0  0
  9 12  1  0  0  0  0
 10  2  1  0  0  0  0
 11  6  1  0  0  0  0
 12  4  1  0  0  0  0
 12  3  2  0  0  0  0
 13 11  2  0  0  0  0
 14 18  1  0  0  0  0
 15 21  1  0  0  0  0
 16 17  2  0  0  0  0
 17  9  1  0  0  0  0
 18 22  1  6  0  0  0
 18 15  1  0  0  0  0
 19 14  1  0  0  0  0
 19 20  1  0  0  0  0
 20 16  2  0  0  0  0
 20 15  1  0  0  0  0
 23 28  2  0  0  0  0
 24 27  2  0  0  0  0
 24 23  1  0  0  0  0
 26 23  1  0  0  0  0
 27 29  1  0  0  0  0
 28 25  1  0  0  0  0
 29 22  1  0  0  0  0
 29 25  1  0  0  0  0
 30 31  1  0  0  0  0
 31 33  2  0  0  0  0
 32 34  2  0  0  0  0
 34 33  1  0  0  0  0
 34 27  1  0  0  0  0
 35 30  2  0  0  0  0
 35 32  1  0  0  0  0
 36 31  1  0  0  0  0
 36 39  1  0  0  0  0
 39 38  1  6  0  0  0
 39 37  1  0  0  0  0
 40 41  1  0  0  0  0
 42 43  2  0  0  0  0
 44 43  1  0  0  0  0
 45 48  1  0  0  0  0
 46 51  1  0  0  0  0
 47 52  1  0  0  0  0
 48 53  2  0  0  0  0
 49 46  2  0  0  0  0
 49 48  1  0  0  0  0
 50 52  1  0  0  0  0
 51 54  1  0  0  0  0
 51 47  2  0  0  0  0
 52 44  1  1  0  0  0
 53 47  1  0  0  0  0
 54 50  1  0  0  0  0
M  END
>  <MODEL>
4

>  <REMARK>
 VINA RESULT:      -3.3      3.167      9.414
  Name = 
  10 active torsions:
  status: ('A' for Active; 'I' for Inactive)
    1  A    between atoms: C_9  and  C_18
    2  A    between atoms: C_11  and  C_34
    3  A    between atoms: C_21  and  C_37
    4  A    between atoms: C_24  and  N_44
    5  A    between atoms: C_28  and  O_51
    6  A    between atoms: O_31  and  C_33
    7  A    between atoms: O_31  and  C_43
    8  A    between atoms: C_34  and  C_47
    9  A    between atoms: C_36  and  C_43
   10  A    between atoms: N_42  and  O_51
                            x       y       z     vdW  Elec       q    Type
                         _______ _______ _______ _____ _____    ______ ____

>  <TORSDO>
F 10

$$$$
