=
 OpenBabel11072413283D

 41 44  0  0  1  0  0  0  0  0999 V2000
  160.9390  205.5770  153.0480 O   0  0  0  0  0  0  0  0  0  0  0  0
  161.0240  207.3070  154.6540 C   0  0  0  0  0  0  0  0  0  0  0  0
  161.4110  208.3780  153.6440 C   0  0  1  0  0  3  0  0  0  0  0  0
  161.5650  206.3900  152.0880 C   0  0  0  0  0  2  0  0  0  0  0  0
  161.4890  205.9290  154.2930 C   0  0  0  0  0  2  0  0  0  0  0  0
  159.9160  207.3990  155.3960 C   0  0  0  0  0  2  0  0  0  0  0  0
  161.0990  207.8500  152.2210 C   0  0  2  0  0  3  0  0  0  0  0  0
  158.9280  212.1150  154.7230 C   0  0  0  0  0  0  0  0  0  0  0  0
  159.2920  211.1020  152.4530 C   0  0  0  0  0  2  0  0  0  0  0  0
  157.9480  211.5760  155.2190 O   0  0  0  0  0  0  0  0  0  0  0  0
  159.7240  213.2140  156.6620 O   0  0  0  0  0  1  0  0  0  0  0  0
  160.7180  210.6290  152.6830 C   0  0  0  0  0  2  0  0  0  0  0  0
  159.0000  212.3750  153.2460 C   0  0  1  0  0  3  0  0  0  0  0  0
  160.8110  209.7760  153.9420 C   0  0  2  0  0  3  0  0  0  0  0  0
  160.1190  212.4460  155.5650 C   0  0  1  0  0  3  0  0  0  0  0  0
  160.8110  211.1750  156.0460 C   0  0  0  0  0  2  0  0  0  0  0  0
  161.6650  210.5360  154.9540 C   0  0  0  0  0  2  0  0  0  0  0  0
  157.8090  213.1900  152.7040 C   0  0  2  0  0  3  0  0  0  0  0  0
  156.8570  213.3700  150.3720 O   0  0  0  0  0  0  0  0  0  0  0  0
  158.9890  214.0740  150.8200 O   0  0  0  0  0  1  0  0  0  0  0  0
  157.9120  213.5790  151.2540 C   0  0  0  0  0  0  0  0  0  0  0  0
  157.5450  214.4320  153.5620 C   0  0  0  0  0  2  0  0  0  0  0  0
  156.1580  214.4410  154.2130 C   0  0  0  0  0  3  0  0  0  0  0  0
  156.2350  214.3300  155.7260 C   0  0  0  0  0  1  0  0  0  0  0  0
  155.2610  213.3550  153.6420 C   0  0  0  0  0  1  0  0  0  0  0  0
  161.7850  208.6440  151.2090 N   0  0  0  0  0  2  0  0  0  0  0  0
  162.2530  209.2070  148.9150 C   0  0  0  0  0  2  0  0  0  0  0  0
  161.6480  208.4230  149.8000 C   0  0  0  0  0  0  0  0  0  0  0  0
  160.7880  207.3020  149.3180 C   0  0  0  0  0  2  0  0  0  0  0  0
  160.8860  202.7180  149.7400 C   0  0  0  0  0  3  0  0  0  0  0  0
  161.4220  202.9150  147.2650 C   0  0  0  0  0  3  0  0  0  0  0  0
  161.3950  204.2450  147.4010 C   0  0  0  0  0  0  0  0  0  0  0  0
  162.0610  205.2100  146.4890 C   0  0  2  0  0  0  0  0  0  0  0  0
  161.3230  205.3260  145.1690 C   0  0  0  0  0  1  0  0  0  0  0  0
  163.3920  204.8440  146.2690 O   0  0  0  0  0  1  0  0  0  0  0  0
  161.6320  206.1940  148.7010 C   0  0  1  0  0  3  0  0  0  0  0  0
  160.8750  204.0520  149.8460 C   0  0  0  0  0  3  0  0  0  0  0  0
  160.8470  200.8440  148.2770 O   0  0  0  0  0  0  0  0  0  0  0  0
  160.8320  204.9150  148.6060 C   0  0  2  0  0  3  0  0  0  0  0  0
  161.0030  202.0880  148.4100 C   0  0  0  0  0  0  0  0  0  0  0  0
  162.0100  206.5320  147.2500 C   0  0  0  0  0  2  0  0  0  0  0  0
  1  5  1  0  0  0  0
  2  6  2  0  0  0  0
  3 14  1  0  0  0  0
  3  2  1  1  0  0  0
  4  7  1  0  0  0  0
  4  1  1  0  0  0  0
  5  2  1  0  0  0  0
  7 26  1  6  0  0  0
  7  3  1  0  0  0  0
  8 10  2  0  0  0  0
  8 15  1  0  0  0  0
  9 12  1  0  0  0  0
  9 13  1  0  0  0  0
 13 18  1  6  0  0  0
 13  8  1  0  0  0  0
 14 12  1  6  0  0  0
 14 17  1  0  0  0  0
 15 16  1  0  0  0  0
 15 11  1  1  0  0  0
 17 16  1  0  0  0  0
 18 22  1  1  0  0  0
 19 21  2  0  0  0  0
 20 21  1  0  0  0  0
 21 18  1  0  0  0  0
 22 23  1  0  0  0  0
 23 24  1  0  0  0  0
 25 23  1  0  0  0  0
 27 28  2  0  0  0  0
 28 26  1  0  0  0  0
 29 28  1  0  0  0  0
 30 37  2  0  0  0  0
 31 32  2  0  0  0  0
 31 40  1  0  0  0  0
 32 39  1  0  0  0  0
 33 34  1  6  0  0  0
 33 41  1  0  0  0  0
 33 32  1  0  0  0  0
 35 33  1  0  0  0  0
 36 29  1  6  0  0  0
 38 40  2  0  0  0  0
 39 36  1  0  0  0  0
 39 37  1  1  0  0  0
 40 30  1  0  0  0  0
 41 36  1  0  0  0  0
M  END
>  <MODEL>
1

>  <REMARK>
 VINA RESULT:      -9.3      0.000      0.000
  Name = 
  9 active torsions:
  status: ('A' for Active; 'I' for Inactive)
    1  A    between atoms: N_1  and  C_40
    2  A    between atoms: N_1  and  C_41
    3  A    between atoms: C_3  and  C_12
    4  A    between atoms: C_3  and  C_27
    5  A    between atoms: C_13  and  C_29
    6  A    between atoms: C_22  and  C_30
    7  A    between atoms: C_27  and  C_28
    8  A    between atoms: C_27  and  C_37
    9  A    between atoms: C_29  and  C_41
                            x       y       z     vdW  Elec       q    Type
                         _______ _______ _______ _____ _____    ______ ____

>  <TORSDO>
F 9

$$$$
=
 OpenBabel11072413283D

 41 44  0  0  1  0  0  0  0  0999 V2000
  161.2270  209.5230  155.4710 O   0  0  0  0  0  0  0  0  0  0  0  0
  160.8320  207.5520  154.2320 C   0  0  0  0  0  0  0  0  0  0  0  0
  160.5180  208.2920  152.9400 C   0  0  1  0  0  3  0  0  0  0  0  0
  160.6870  210.3180  154.4460 C   0  0  0  0  0  2  0  0  0  0  0  0
  160.4990  208.3210  155.4740 C   0  0  0  0  0  2  0  0  0  0  0  0
  161.8250  206.6610  154.3160 C   0  0  0  0  0  2  0  0  0  0  0  0
  161.0450  209.7440  153.0640 C   0  0  2  0  0  3  0  0  0  0  0  0
  161.1450  206.2310  148.8590 C   0  0  0  0  0  0  0  0  0  0  0  0
  160.5570  205.1650  151.0560 C   0  0  0  0  0  2  0  0  0  0  0  0
  160.1000  206.5460  148.3060 O   0  0  0  0  0  0  0  0  0  0  0  0
  162.6370  207.4160  147.4550 O   0  0  0  0  0  1  0  0  0  0  0  0
  161.3550  206.1070  151.9430 C   0  0  0  0  0  2  0  0  0  0  0  0
  161.2310  204.9880  149.6960 C   0  0  1  0  0  3  0  0  0  0  0  0
  160.9920  207.5590  151.6580 C   0  0  2  0  0  3  0  0  0  0  0  0
  162.3400  207.1280  148.7880 C   0  0  1  0  0  3  0  0  0  0  0  0
  162.0890  208.4230  149.5540 C   0  0  0  0  0  2  0  0  0  0  0  0
  162.2240  208.2360  151.0630 C   0  0  0  0  0  2  0  0  0  0  0  0
  160.8030  203.7100  148.9490 C   0  0  2  0  0  3  0  0  0  0  0  0
  161.2300  202.3240  151.0150 O   0  0  0  0  0  1  0  0  0  0  0  0
  159.6810  201.6620  149.4650 O   0  0  0  0  0  0  0  0  0  0  0  0
  160.5330  202.5190  149.8280 C   0  0  0  0  0  0  0  0  0  0  0  0
  161.8120  203.3360  147.8580 C   0  0  0  0  0  2  0  0  0  0  0  0
  161.3700  203.7480  146.4490 C   0  0  0  0  0  3  0  0  0  0  0  0
  160.8320  202.5730  145.6510 C   0  0  0  0  0  1  0  0  0  0  0  0
  162.4870  204.4440  145.6890 C   0  0  0  0  0  1  0  0  0  0  0  0
  160.4520  210.6020  152.0450 N   0  0  0  0  0  2  0  0  0  0  0  0
  158.7450  211.6980  153.3430 C   0  0  0  0  0  2  0  0  0  0  0  0
  159.6190  211.7290  152.3430 C   0  0  0  0  0  0  0  0  0  0  0  0
  159.7210  212.9550  151.4980 C   0  0  0  0  0  2  0  0  0  0  0  0
  157.0770  213.5570  147.7770 C   0  0  0  0  0  3  0  0  0  0  0  0
  159.3610  213.8740  146.7140 C   0  0  0  0  0  3  0  0  0  0  0  0
  159.9130  213.6100  147.9030 C   0  0  0  0  0  0  0  0  0  0  0  0
  161.3040  213.1330  148.1120 C   0  0  2  0  0  0  0  0  0  0  0  0
  162.3120  214.2440  147.8870 C   0  0  0  0  0  1  0  0  0  0  0  0
  161.5850  212.0480  147.2760 O   0  0  0  0  0  1  0  0  0  0  0  0
  159.8580  212.5900  150.0250 C   0  0  1  0  0  3  0  0  0  0  0  0
  157.6590  213.2870  148.9510 C   0  0  0  0  0  3  0  0  0  0  0  0
  157.3480  214.4350  145.5850 O   0  0  0  0  0  0  0  0  0  0  0  0
  159.1230  213.5940  149.1650 C   0  0  2  0  0  3  0  0  0  0  0  0
  157.8970  214.0190  146.6400 C   0  0  0  0  0  0  0  0  0  0  0  0
  161.3230  212.6780  149.5690 C   0  0  0  0  0  2  0  0  0  0  0  0
  1  5  1  0  0  0  0
  2  6  2  0  0  0  0
  2  5  1  0  0  0  0
  3  7  1  0  0  0  0
  3  2  1  1  0  0  0
  4  1  1  0  0  0  0
  7 26  1  6  0  0  0
  7  4  1  0  0  0  0
  8 13  1  0  0  0  0
  9 12  1  0  0  0  0
 10  8  2  0  0  0  0
 13 18  1  6  0  0  0
 13  9  1  0  0  0  0
 14 17  1  1  0  0  0
 14 12  1  0  0  0  0
 14  3  1  0  0  0  0
 15 11  1  6  0  0  0
 15  8  1  0  0  0  0
 15 16  1  0  0  0  0
 16 17  1  0  0  0  0
 18 22  1  6  0  0  0
 18 21  1  0  0  0  0
 20 21  2  0  0  0  0
 21 19  1  0  0  0  0
 23 22  1  0  0  0  0
 24 23  1  0  0  0  0
 25 23  1  0  0  0  0
 26 28  1  0  0  0  0
 28 27  2  0  0  0  0
 29 28  1  0  0  0  0
 30 37  2  0  0  0  0
 31 32  2  0  0  0  0
 32 33  1  0  0  0  0
 32 39  1  0  0  0  0
 33 34  1  6  0  0  0
 33 41  1  0  0  0  0
 35 33  1  0  0  0  0
 36 29  1  1  0  0  0
 38 40  2  0  0  0  0
 39 37  1  6  0  0  0
 39 36  1  0  0  0  0
 40 31  1  0  0  0  0
 40 30  1  0  0  0  0
 41 36  1  0  0  0  0
M  END
>  <MODEL>
2

>  <REMARK>
 VINA RESULT:      -8.1      2.615      8.967
  Name = 
  9 active torsions:
  status: ('A' for Active; 'I' for Inactive)
    1  A    between atoms: N_1  and  C_40
    2  A    between atoms: N_1  and  C_41
    3  A    between atoms: C_3  and  C_12
    4  A    between atoms: C_3  and  C_27
    5  A    between atoms: C_13  and  C_29
    6  A    between atoms: C_22  and  C_30
    7  A    between atoms: C_27  and  C_28
    8  A    between atoms: C_27  and  C_37
    9  A    between atoms: C_29  and  C_41
                            x       y       z     vdW  Elec       q    Type
                         _______ _______ _______ _____ _____    ______ ____

>  <TORSDO>
F 9

$$$$
=
 OpenBabel11072413283D

 41 44  0  0  1  0  0  0  0  0999 V2000
  161.3580  209.8390  155.2850 O   0  0  0  0  0  0  0  0  0  0  0  0
  160.8620  207.8450  154.1210 C   0  0  0  0  0  0  0  0  0  0  0  0
  160.5870  208.5500  152.8010 C   0  0  1  0  0  3  0  0  0  0  0  0
  160.8600  210.6200  154.2290 C   0  0  0  0  0  2  0  0  0  0  0  0
  160.5690  208.6760  155.3320 C   0  0  0  0  0  2  0  0  0  0  0  0
  161.8090  206.9080  154.2420 C   0  0  0  0  0  2  0  0  0  0  0  0
  161.1880  209.9770  152.8710 C   0  0  2  0  0  3  0  0  0  0  0  0
  161.0840  206.2270  148.8450 C   0  0  0  0  0  0  0  0  0  0  0  0
  160.6580  205.3000  151.1400 C   0  0  0  0  0  2  0  0  0  0  0  0
  160.0000  206.4610  148.3300 O   0  0  0  0  0  0  0  0  0  0  0  0
  162.4500  207.3630  147.2820 O   0  0  0  0  0  1  0  0  0  0  0  0
  161.4610  206.3320  151.9140 C   0  0  0  0  0  2  0  0  0  0  0  0
  161.2660  205.0510  149.7610 C   0  0  1  0  0  3  0  0  0  0  0  0
  161.0230  207.7450  151.5490 C   0  0  2  0  0  3  0  0  0  0  0  0
  162.2360  207.1610  148.6460 C   0  0  1  0  0  3  0  0  0  0  0  0
  161.9720  208.4970  149.3320 C   0  0  0  0  0  2  0  0  0  0  0  0
  162.1930  208.4230  150.8410 C   0  0  0  0  0  2  0  0  0  0  0  0
  160.8530  203.7070  149.1290 C   0  0  2  0  0  3  0  0  0  0  0  0
  160.0110  201.4230  149.8000 O   0  0  0  0  0  0  0  0  0  0  0  0
  161.3780  202.6190  151.1930 O   0  0  0  0  0  1  0  0  0  0  0  0
  160.7720  202.5510  150.0890 C   0  0  0  0  0  0  0  0  0  0  0  0
  161.7580  203.3440  147.9470 C   0  0  0  0  0  2  0  0  0  0  0  0
  161.0020  203.1930  146.6220 C   0  0  0  0  0  3  0  0  0  0  0  0
  160.8380  201.7380  146.2190 C   0  0  0  0  0  1  0  0  0  0  0  0
  161.6600  203.9860  145.5050 C   0  0  0  0  0  1  0  0  0  0  0  0
  160.6410  210.8240  151.8190 N   0  0  0  0  0  2  0  0  0  0  0  0
  158.4710  211.6510  152.4590 C   0  0  0  0  0  2  0  0  0  0  0  0
  159.7150  211.8910  152.0600 C   0  0  0  0  0  0  0  0  0  0  0  0
  160.1530  213.3000  151.8370 C   0  0  0  0  0  2  0  0  0  0  0  0
  162.0180  213.4220  147.6290 C   0  0  0  0  0  3  0  0  0  0  0  0
  159.6020  212.9640  146.9940 C   0  0  0  0  0  3  0  0  0  0  0  0
  159.2850  213.0300  148.2920 C   0  0  0  0  0  0  0  0  0  0  0  0
  157.9300  213.3180  148.8270 C   0  0  2  0  0  0  0  0  0  0  0  0
  157.0020  212.1300  148.6570 C   0  0  0  0  0  1  0  0  0  0  0  0
  157.3860  214.4490  148.2110 O   0  0  0  0  0  1  0  0  0  0  0  0
  159.6840  213.8080  150.4790 C   0  0  1  0  0  3  0  0  0  0  0  0
  161.6680  213.4920  148.9180 C   0  0  0  0  0  3  0  0  0  0  0  0
  161.3820  212.7670  145.4340 O   0  0  0  0  0  0  0  0  0  0  0  0
  160.3130  212.9960  149.3690 C   0  0  2  0  0  3  0  0  0  0  0  0
  161.0260  212.9980  146.6200 C   0  0  0  0  0  0  0  0  0  0  0  0
  158.1700  213.6040  150.3070 C   0  0  0  0  0  2  0  0  0  0  0  0
  1  5  1  0  0  0  0
  2  6  2  0  0  0  0
  2  5  1  0  0  0  0
  3  7  1  0  0  0  0
  3  2  1  1  0  0  0
  4  1  1  0  0  0  0
  7 26  1  6  0  0  0
  7  4  1  0  0  0  0
  8 13  1  0  0  0  0
  9 12  1  0  0  0  0
 10  8  2  0  0  0  0
 13 18  1  6  0  0  0
 13  9  1  0  0  0  0
 14 17  1  1  0  0  0
 14 12  1  0  0  0  0
 14  3  1  0  0  0  0
 15 11  1  6  0  0  0
 15  8  1  0  0  0  0
 15 16  1  0  0  0  0
 16 17  1  0  0  0  0
 18 22  1  6  0  0  0
 18 21  1  0  0  0  0
 19 21  2  0  0  0  0
 21 20  1  0  0  0  0
 23 22  1  0  0  0  0
 24 23  1  0  0  0  0
 25 23  1  0  0  0  0
 26 28  1  0  0  0  0
 28 27  2  0  0  0  0
 29 28  1  0  0  0  0
 30 37  2  0  0  0  0
 31 32  2  0  0  0  0
 32 33  1  0  0  0  0
 32 39  1  0  0  0  0
 33 34  1  6  0  0  0
 33 41  1  0  0  0  0
 35 33  1  0  0  0  0
 36 29  1  1  0  0  0
 38 40  2  0  0  0  0
 39 37  1  6  0  0  0
 39 36  1  0  0  0  0
 40 31  1  0  0  0  0
 40 30  1  0  0  0  0
 41 36  1  0  0  0  0
M  END
>  <MODEL>
3

>  <REMARK>
 VINA RESULT:      -7.4      2.492      8.967
  Name = 
  9 active torsions:
  status: ('A' for Active; 'I' for Inactive)
    1  A    between atoms: N_1  and  C_40
    2  A    between atoms: N_1  and  C_41
    3  A    between atoms: C_3  and  C_12
    4  A    between atoms: C_3  and  C_27
    5  A    between atoms: C_13  and  C_29
    6  A    between atoms: C_22  and  C_30
    7  A    between atoms: C_27  and  C_28
    8  A    between atoms: C_27  and  C_37
    9  A    between atoms: C_29  and  C_41
                            x       y       z     vdW  Elec       q    Type
                         _______ _______ _______ _____ _____    ______ ____

>  <TORSDO>
F 9

$$$$
=
 OpenBabel11072413283D

 41 44  0  0  1  0  0  0  0  0999 V2000
  160.8930  208.6670  156.1050 O   0  0  0  0  0  0  0  0  0  0  0  0
  160.7590  206.7960  154.6710 C   0  0  0  0  0  0  0  0  0  0  0  0
  160.2970  207.6090  153.4690 C   0  0  1  0  0  3  0  0  0  0  0  0
  160.2080  209.4710  155.1790 C   0  0  0  0  0  2  0  0  0  0  0  0
  160.3540  207.3730  155.9920 C   0  0  0  0  0  2  0  0  0  0  0  0
  161.8770  206.0630  154.6440 C   0  0  0  0  0  2  0  0  0  0  0  0
  160.6040  209.1030  153.7380 C   0  0  2  0  0  3  0  0  0  0  0  0
  161.1210  206.2110  149.1490 C   0  0  0  0  0  0  0  0  0  0  0  0
  160.4930  204.8080  151.1350 C   0  0  0  0  0  2  0  0  0  0  0  0
  160.0870  206.5820  148.6110 O   0  0  0  0  0  0  0  0  0  0  0  0
  162.6240  207.6330  147.9980 O   0  0  0  0  0  1  0  0  0  0  0  0
  161.2320  205.6220  152.1840 C   0  0  0  0  0  2  0  0  0  0  0  0
  161.2160  204.8580  149.7900 C   0  0  1  0  0  3  0  0  0  0  0  0
  160.8350  207.0910  152.1100 C   0  0  2  0  0  3  0  0  0  0  0  0
  162.2910  207.1370  149.2600 C   0  0  1  0  0  3  0  0  0  0  0  0
  161.9760  208.2930  150.2040 C   0  0  0  0  0  2  0  0  0  0  0  0
  162.0660  207.8810  151.6710 C   0  0  0  0  0  2  0  0  0  0  0  0
  160.8520  203.6980  148.8420 C   0  0  2  0  0  3  0  0  0  0  0  0
  161.4050  201.8360  150.4540 O   0  0  0  0  0  1  0  0  0  0  0  0
  159.4790  201.7770  149.2190 O   0  0  0  0  0  0  0  0  0  0  0  0
  160.5360  202.3940  149.5230 C   0  0  0  0  0  0  0  0  0  0  0  0
  161.9360  203.4840  147.7790 C   0  0  0  0  0  2  0  0  0  0  0  0
  161.5960  204.1170  146.4250 C   0  0  0  0  0  3  0  0  0  0  0  0
  161.1900  203.0790  145.3930 C   0  0  0  0  0  1  0  0  0  0  0  0
  162.7380  204.9730  145.9010 C   0  0  0  0  0  1  0  0  0  0  0  0
  159.8580  209.9600  152.8260 N   0  0  0  0  0  2  0  0  0  0  0  0
  160.1470  211.9520  151.5030 C   0  0  0  0  0  2  0  0  0  0  0  0
  160.0870  211.3700  152.6950 C   0  0  0  0  0  0  0  0  0  0  0  0
  160.2820  212.1930  153.9240 C   0  0  0  0  0  2  0  0  0  0  0  0
  157.1070  214.4530  151.4730 C   0  0  0  0  0  3  0  0  0  0  0  0
  155.6080  213.4480  153.2590 C   0  0  0  0  0  3  0  0  0  0  0  0
  156.6990  212.9300  153.8330 C   0  0  0  0  0  0  0  0  0  0  0  0
  156.8010  212.5190  155.2570 C   0  0  2  0  0  0  0  0  0  0  0  0
  156.0470  211.2290  155.5180 C   0  0  0  0  0  1  0  0  0  0  0  0
  156.3330  213.5320  156.0980 O   0  0  0  0  0  1  0  0  0  0  0  0
  159.0120  212.9580  154.2750 C   0  0  1  0  0  3  0  0  0  0  0  0
  158.1800  213.9300  152.0750 C   0  0  0  0  0  3  0  0  0  0  0  0
  154.7370  214.4520  151.2900 O   0  0  0  0  0  0  0  0  0  0  0  0
  158.0150  212.8700  153.1400 C   0  0  2  0  0  3  0  0  0  0  0  0
  155.7530  214.1040  151.9480 C   0  0  0  0  0  0  0  0  0  0  0  0
  158.2980  212.3190  155.4760 C   0  0  0  0  0  2  0  0  0  0  0  0
  2  5  1  0  0  0  0
  3  7  1  0  0  0  0
  3  2  1  1  0  0  0
  4  1  1  0  0  0  0
  5  1  1  0  0  0  0
  6  2  2  0  0  0  0
  7 26  1  6  0  0  0
  7  4  1  0  0  0  0
  8 15  1  0  0  0  0
  8 13  1  0  0  0  0
  9 12  1  0  0  0  0
 10  8  2  0  0  0  0
 13 18  1  6  0  0  0
 13  9  1  0  0  0  0
 14 17  1  1  0  0  0
 14 12  1  0  0  0  0
 14  3  1  0  0  0  0
 15 11  1  6  0  0  0
 15 16  1  0  0  0  0
 16 17  1  0  0  0  0
 18 22  1  6  0  0  0
 18 21  1  0  0  0  0
 20 21  2  0  0  0  0
 21 19  1  0  0  0  0
 23 22  1  0  0  0  0
 24 23  1  0  0  0  0
 25 23  1  0  0  0  0
 27 28  2  0  0  0  0
 28 26  1  0  0  0  0
 28 29  1  0  0  0  0
 30 40  1  0  0  0  0
 30 37  2  0  0  0  0
 31 32  2  0  0  0  0
 32 33  1  0  0  0  0
 33 41  1  0  0  0  0
 33 34  1  1  0  0  0
 33 35  1  0  0  0  0
 36 29  1  6  0  0  0
 36 41  1  0  0  0  0
 38 40  2  0  0  0  0
 39 37  1  6  0  0  0
 39 32  1  0  0  0  0
 39 36  1  0  0  0  0
 40 31  1  0  0  0  0
M  END
>  <MODEL>
4

>  <REMARK>
 VINA RESULT:      -6.8      1.803      9.761
  Name = 
  9 active torsions:
  status: ('A' for Active; 'I' for Inactive)
    1  A    between atoms: N_1  and  C_40
    2  A    between atoms: N_1  and  C_41
    3  A    between atoms: C_3  and  C_12
    4  A    between atoms: C_3  and  C_27
    5  A    between atoms: C_13  and  C_29
    6  A    between atoms: C_22  and  C_30
    7  A    between atoms: C_27  and  C_28
    8  A    between atoms: C_27  and  C_37
    9  A    between atoms: C_29  and  C_41
                            x       y       z     vdW  Elec       q    Type
                         _______ _______ _______ _____ _____    ______ ____

>  <TORSDO>
F 9

$$$$
=
 OpenBabel11072413283D

 41 44  0  0  1  0  0  0  0  0999 V2000
  162.0920  213.2190  148.8660 O   0  0  0  0  0  0  0  0  0  0  0  0
  160.1760  213.1410  150.2430 C   0  0  0  0  0  0  0  0  0  0  0  0
  160.4750  211.7460  150.7740 C   0  0  1  0  0  3  0  0  0  0  0  0
  162.3230  211.8450  149.0490 C   0  0  0  0  0  2  0  0  0  0  0  0
  160.6980  213.3960  148.8630 C   0  0  0  0  0  2  0  0  0  0  0  0
  160.0590  214.1980  151.0540 C   0  0  0  0  0  2  0  0  0  0  0  0
  161.9600  211.4160  150.4820 C   0  0  2  0  0  3  0  0  0  0  0  0
  159.6790  211.7980  155.3190 C   0  0  0  0  0  0  0  0  0  0  0  0
  161.4820  210.5660  154.0780 C   0  0  0  0  0  2  0  0  0  0  0  0
  160.1070  212.9110  155.5910 O   0  0  0  0  0  0  0  0  0  0  0  0
  157.4030  212.1770  155.8450 O   0  0  0  0  0  1  0  0  0  0  0  0
  160.6760  210.2580  152.8270 C   0  0  0  0  0  2  0  0  0  0  0  0
  160.5860  210.6020  155.3160 C   0  0  1  0  0  3  0  0  0  0  0  0
  160.0610  211.5280  152.2520 C   0  0  2  0  0  3  0  0  0  0  0  0
  158.2560  211.6160  154.8940 C   0  0  1  0  0  3  0  0  0  0  0  0
  158.0120  212.2630  153.5340 C   0  0  0  0  0  2  0  0  0  0  0  0
  158.5450  211.4100  152.3860 C   0  0  0  0  0  2  0  0  0  0  0  0
  161.3440  210.3980  156.6420 C   0  0  2  0  0  3  0  0  0  0  0  0
  163.8440  210.6950  156.4620 O   0  0  0  0  0  0  0  0  0  0  0  0
  162.5220  212.3860  157.2580 O   0  0  0  0  0  1  0  0  0  0  0  0
  162.5980  211.2160  156.7920 C   0  0  0  0  0  0  0  0  0  0  0  0
  161.6530  208.9170  156.8860 C   0  0  0  0  0  2  0  0  0  0  0  0
  160.6290  207.9660  156.2560 C   0  0  0  0  0  3  0  0  0  0  0  0
  160.0860  206.9630  157.2580 C   0  0  0  0  0  1  0  0  0  0  0  0
  161.1960  207.2540  155.0390 C   0  0  0  0  0  1  0  0  0  0  0  0
  162.2110  209.9860  150.6080 N   0  0  0  0  0  2  0  0  0  0  0  0
  161.9530  209.2540  148.3280 C   0  0  0  0  0  2  0  0  0  0  0  0
  161.8100  209.0200  149.6280 C   0  0  0  0  0  0  0  0  0  0  0  0
  161.1980  207.7360  150.0780 C   0  0  0  0  0  2  0  0  0  0  0  0
  160.9280  203.1650  150.5650 C   0  0  0  0  0  3  0  0  0  0  0  0
  161.1070  203.2990  148.0360 C   0  0  0  0  0  3  0  0  0  0  0  0
  161.2250  204.6260  148.1490 C   0  0  0  0  0  0  0  0  0  0  0  0
  161.8350  205.5190  147.1310 C   0  0  2  0  0  0  0  0  0  0  0  0
  160.9230  205.6990  145.9320 C   0  0  0  0  0  1  0  0  0  0  0  0
  163.0780  205.0280  146.7240 O   0  0  0  0  0  1  0  0  0  0  0  0
  161.8340  206.5500  149.3640 C   0  0  1  0  0  3  0  0  0  0  0  0
  161.0580  204.4940  150.6470 C   0  0  0  0  0  3  0  0  0  0  0  0
  160.4970  201.2970  149.1600 O   0  0  0  0  0  0  0  0  0  0  0  0
  160.9120  205.3520  149.4110 C   0  0  2  0  0  3  0  0  0  0  0  0
  160.7870  202.5200  149.2450 C   0  0  0  0  0  0  0  0  0  0  0  0
  162.0220  206.8440  147.8670 C   0  0  0  0  0  2  0  0  0  0  0  0
  1  4  1  0  0  0  0
  2  6  2  0  0  0  0
  3  2  1  1  0  0  0
  3 14  1  0  0  0  0
  4  7  1  0  0  0  0
  5  1  1  0  0  0  0
  5  2  1  0  0  0  0
  7 26  1  6  0  0  0
  7  3  1  0  0  0  0
  8 10  2  0  0  0  0
  9 13  1  0  0  0  0
 12  9  1  0  0  0  0
 13  8  1  0  0  0  0
 13 18  1  1  0  0  0
 14 17  1  6  0  0  0
 14 12  1  0  0  0  0
 15  8  1  0  0  0  0
 15 11  1  1  0  0  0
 16 15  1  0  0  0  0
 17 16  1  0  0  0  0
 18 21  1  0  0  0  0
 18 22  1  6  0  0  0
 19 21  2  0  0  0  0
 21 20  1  0  0  0  0
 23 22  1  0  0  0  0
 23 24  1  0  0  0  0
 25 23  1  0  0  0  0
 27 28  2  0  0  0  0
 28 29  1  0  0  0  0
 28 26  1  0  0  0  0
 30 37  2  0  0  0  0
 31 32  2  0  0  0  0
 31 40  1  0  0  0  0
 32 39  1  0  0  0  0
 33 34  1  6  0  0  0
 33 41  1  0  0  0  0
 33 32  1  0  0  0  0
 35 33  1  0  0  0  0
 36 39  1  0  0  0  0
 36 29  1  1  0  0  0
 38 40  2  0  0  0  0
 39 37  1  1  0  0  0
 40 30  1  0  0  0  0
 41 36  1  0  0  0  0
M  END
>  <MODEL>
5

>  <REMARK>
 VINA RESULT:      -6.7      1.959      4.845
  Name = 
  9 active torsions:
  status: ('A' for Active; 'I' for Inactive)
    1  A    between atoms: N_1  and  C_40
    2  A    between atoms: N_1  and  C_41
    3  A    between atoms: C_3  and  C_12
    4  A    between atoms: C_3  and  C_27
    5  A    between atoms: C_13  and  C_29
    6  A    between atoms: C_22  and  C_30
    7  A    between atoms: C_27  and  C_28
    8  A    between atoms: C_27  and  C_37
    9  A    between atoms: C_29  and  C_41
                            x       y       z     vdW  Elec       q    Type
                         _______ _______ _______ _____ _____    ______ ____

>  <TORSDO>
F 9

$$$$
