=
 OpenBabel11072413233D

 44 50  0  0  1  0  0  0  0  0999 V2000
  159.5610  213.7500  147.9330 C   0  0  0  0  0  2  0  0  0  0  0  0
  159.6750  212.3800  151.9850 C   0  0  1  0  0  3  0  0  0  0  0  0
  162.5180  210.6800  149.8530 C   0  0  0  0  0  0  0  0  0  0  0  0
  159.5390  210.2590  153.0080 O   0  0  0  0  0  0  0  0  0  0  0  0
  160.5370  211.4790  148.4600 C   0  0  0  0  0  2  0  0  0  0  0  0
  160.4970  207.2300  147.3540 C   0  0  0  0  0  2  0  0  0  0  0  0
  161.1310  207.5760  151.6080 C   0  0  1  0  0  3  0  0  0  0  0  0
  161.0740  205.1140  151.2040 O   0  0  0  0  0  1  0  0  0  0  0  0
  162.7670  206.3220  152.8180 O   0  0  0  0  0  1  0  0  0  0  0  0
  159.1960  213.2150  153.1460 C   0  0  0  0  0  2  0  0  0  0  0  0
  161.7090  210.7930  152.2590 C   0  0  0  0  0  2  0  0  0  0  0  0
  160.4150  208.7100  147.6920 C   0  0  0  0  0  2  0  0  0  0  0  0
  158.3580  214.1820  149.7630 C   0  0  0  0  0  2  0  0  0  0  0  0
  162.0300  209.8980  151.0520 C   0  0  1  0  0  3  0  0  0  0  0  0
  158.0000  214.3930  152.4710 S   0  0  0  0  0  0  0  0  0  0  0  0
  160.5010  206.3840  148.6220 C   0  0  0  0  0  2  0  0  0  0  0  0
  158.4170  213.3530  148.6380 O   0  0  0  0  0  0  0  0  0  0  0  0
  163.5430  211.3320  149.9760 O   0  0  0  0  0  0  0  0  0  0  0  0
  161.8130  209.3110  147.8160 C   0  0  0  0  0  2  0  0  0  0  0  0
  160.2500  211.0820  152.4530 C   0  0  0  0  0  0  0  0  0  0  0  0
  157.8260  213.3980  150.9560 C   0  0  2  0  0  3  0  0  0  0  0  0
  160.9860  208.8270  150.7400 C   0  0  0  0  0  2  0  0  0  0  0  0
  161.5230  206.3670  150.7650 C   0  0  1  0  0  0  0  0  0  0  0  0
  161.7670  206.5380  149.3290 N   0  0  0  0  0  0  0  0  0  0  0  0
  161.8440  210.6850  148.5010 C   0  0  2  0  0  3  0  0  0  0  0  0
  160.8080  212.9780  148.3770 C   0  0  2  0  0  3  0  0  0  0  0  0
  158.5440  212.1360  151.1050 N   0  0  0  0  0  2  0  0  0  0  0  0
  162.5670  207.0370  151.6360 C   0  0  1  0  0  3  0  0  0  0  0  0
  162.5820  205.5310  148.9200 O   0  0  0  0  0  0  0  0  0  0  0  0
  160.5660  204.1810  145.1530 O   0  0  0  0  0  1  0  0  0  0  0  0
  163.4350  204.7420  146.8390 C   0  0  0  0  0  2  0  0  0  0  0  0
  161.3940  203.6010  146.1230 C   0  0  1  0  0  0  0  0  0  0  0  0
  162.2530  205.3230  147.5760 C   0  0  1  0  0  3  0  0  0  0  0  0
  162.8470  203.8610  145.7530 C   0  0  0  0  0  2  0  0  0  0  0  0
  161.1630  204.2840  147.4580 C   0  0  0  0  0  2  0  0  0  0  0  0
  159.9580  201.8230  146.8770 O   0  0  0  0  0  0  0  0  0  0  0  0
  161.1650  202.0890  146.2660 C   0  0  2  0  0  3  0  0  0  0  0  0
  161.1060  201.6480  147.7050 C   0  0  0  0  0  0  0  0  0  0  0  0
  160.7730  200.2630  148.2810 C   0  0  0  0  0  2  0  0  0  0  0  0
  162.0000  200.4140  147.4890 C   0  0  0  0  0  2  0  0  0  0  0  0
  161.2520  213.4560  149.6110 O   0  0  0  0  0  0  0  0  0  0  0  0
  162.1650  214.3920  149.3090 O   0  0  0  0  0  0  0  0  0  0  0  0
  163.0460  214.2150  148.2620 N   0  0  0  0  0  0  0  0  0  0  0  0
  162.7040  214.4530  147.0370 C   0  0  0  0  0  2  0  0  0  0  0  0
  1 26  1  0  0  0  0
  1 17  1  0  0  0  0
  2 20  1  0  0  0  0
  2 10  1  1  0  0  0
  3 18  2  0  0  0  0
  3 14  1  0  0  0  0
  5 25  1  0  0  0  0
  6 12  1  0  0  0  0
  6 16  1  0  0  0  0
  7 22  1  6  0  0  0
  7 28  1  0  0  0  0
 11 20  1  0  0  0  0
 12 19  1  0  0  0  0
 14 22  1  6  0  0  0
 14 11  1  0  0  0  0
 15 10  1  0  0  0  0
 16 24  1  0  0  0  0
 17 13  1  0  0  0  0
 20  4  2  0  0  0  0
 21 13  1  6  0  0  0
 21 27  1  0  0  0  0
 21 15  1  0  0  0  0
 23  8  1  1  0  0  0
 23  7  1  0  0  0  0
 23 28  1  0  0  0  0
 24 23  1  0  0  0  0
 25 19  1  1  0  0  0
 25  3  1  0  0  0  0
 26  5  1  0  0  0  0
 26 41  1  1  0  0  0
 27  2  1  0  0  0  0
 28  9  1  1  0  0  0
 29 24  1  0  0  0  0
 31 33  1  0  0  0  0
 32 30  1  6  0  0  0
 32 37  1  0  0  0  0
 32 35  1  0  0  0  0
 33 29  1  1  0  0  0
 34 32  1  0  0  0  0
 34 31  1  0  0  0  0
 35 33  1  0  0  0  0
 36 38  1  0  0  0  0
 37 36  1  1  0  0  0
 37 38  1  0  0  0  0
 38 39  1  0  0  0  0
 40 38  1  0  0  0  0
 40 39  1  0  0  0  0
 42 41  1  0  0  0  0
 43 42  1  0  0  0  0
 44 43  2  0  0  0  0
M  END
>  <MODEL>
1

>  <REMARK>
 VINA RESULT:       2.7      0.000      0.000
  Name = 
  6 active torsions:
  status: ('A' for Active; 'I' for Inactive)
    1  A    between atoms: O_9  and  C_29
    2  A    between atoms: O_9  and  N_37
    3  A    between atoms: C_11  and  C_25
    4  A    between atoms: N_20  and  O_40
    5  A    between atoms: O_33  and  C_39
    6  A    between atoms: O_33  and  O_40
                            x       y       z     vdW  Elec       q    Type
                         _______ _______ _______ _____ _____    ______ ____

>  <TORSDO>
F 6

$$$$
=
 OpenBabel11072413233D

 44 50  0  0  1  0  0  0  0  0999 V2000
  158.8730  213.9060  152.9300 C   0  0  0  0  0  2  0  0  0  0  0  0
  158.4030  210.5820  155.5830 C   0  0  1  0  0  3  0  0  0  0  0  0
  161.8140  210.3390  153.6270 C   0  0  0  0  0  0  0  0  0  0  0  0
  158.3770  208.2400  155.2970 O   0  0  0  0  0  0  0  0  0  0  0  0
  160.0440  211.7230  152.4220 C   0  0  0  0  0  2  0  0  0  0  0  0
  160.8200  208.7270  149.3090 C   0  0  0  0  0  2  0  0  0  0  0  0
  160.5720  206.7530  153.1380 C   0  0  1  0  0  3  0  0  0  0  0  0
  160.9440  204.8900  151.5210 O   0  0  0  0  0  1  0  0  0  0  0  0
  162.1080  205.0760  153.8750 O   0  0  0  0  0  1  0  0  0  0  0  0
  157.5970  210.6570  156.8550 C   0  0  0  0  0  2  0  0  0  0  0  0
  160.5520  209.1320  155.4720 C   0  0  0  0  0  2  0  0  0  0  0  0
  160.4660  209.7940  150.3320 C   0  0  0  0  0  2  0  0  0  0  0  0
  157.2940  213.2690  154.3720 C   0  0  0  0  0  2  0  0  0  0  0  0
  161.2210  209.0290  154.0930 C   0  0  1  0  0  3  0  0  0  0  0  0
  156.3980  211.9920  156.6230 S   0  0  0  0  0  0  0  0  0  0  0  0
  160.7020  207.3340  149.9160 C   0  0  0  0  0  2  0  0  0  0  0  0
  157.6830  213.1730  153.0320 O   0  0  0  0  0  0  0  0  0  0  0  0
  162.6930  210.8420  154.3080 O   0  0  0  0  0  0  0  0  0  0  0  0
  161.7140  210.2600  151.0770 C   0  0  0  0  0  2  0  0  0  0  0  0
  159.0570  209.2450  155.4340 C   0  0  0  0  0  0  0  0  0  0  0  0
  156.6600  211.9590  154.8220 C   0  0  2  0  0  3  0  0  0  0  0  0
  160.4190  208.2720  153.0360 C   0  0  0  0  0  2  0  0  0  0  0  0
  161.2860  206.1910  151.9130 C   0  0  1  0  0  0  0  0  0  0  0  0
  161.7740  207.1080  150.8780 N   0  0  0  0  0  0  0  0  0  0  0  0
  161.4170  211.0550  152.3570 C   0  0  2  0  0  3  0  0  0  0  0  0
  160.1090  213.0390  153.1930 C   0  0  2  0  0  3  0  0  0  0  0  0
  157.5080  210.8270  154.4630 N   0  0  0  0  0  2  0  0  0  0  0  0
  162.0380  206.3090  153.2240 C   0  0  1  0  0  3  0  0  0  0  0  0
  162.7860  206.4910  150.2150 O   0  0  0  0  0  0  0  0  0  0  0  0
  160.7460  205.2850  146.4130 O   0  0  0  0  0  1  0  0  0  0  0  0
  163.5550  206.3300  147.9640 C   0  0  0  0  0  2  0  0  0  0  0  0
  161.8080  204.8040  147.1900 C   0  0  1  0  0  0  0  0  0  0  0  0
  162.3610  206.4280  148.8840 C   0  0  1  0  0  3  0  0  0  0  0  0
  163.0870  205.5150  146.7730 C   0  0  0  0  0  2  0  0  0  0  0  0
  161.5720  205.1630  148.6450 C   0  0  0  0  0  2  0  0  0  0  0  0
  161.8400  202.8800  145.7460 O   0  0  0  0  0  0  0  0  0  0  0  0
  161.9990  203.2860  147.0530 C   0  0  2  0  0  3  0  0  0  0  0  0
  160.7430  202.5850  146.6080 C   0  0  0  0  0  0  0  0  0  0  0  0
  160.5370  201.1080  146.2330 C   0  0  0  0  0  2  0  0  0  0  0  0
  160.8790  201.4370  147.6230 C   0  0  0  0  0  2  0  0  0  0  0  0
  160.2360  212.7900  154.5600 O   0  0  0  0  0  0  0  0  0  0  0  0
  159.8730  213.9370  155.1540 O   0  0  0  0  0  0  0  0  0  0  0  0
  160.0740  214.1330  156.5050 N   0  0  0  0  0  0  0  0  0  0  0  0
  160.5740  213.2090  157.2600 C   0  0  0  0  0  2  0  0  0  0  0  0
  1 17  1  0  0  0  0
  1 26  1  0  0  0  0
  2 10  1  1  0  0  0
  3 14  1  0  0  0  0
  3 18  2  0  0  0  0
  4 20  2  0  0  0  0
  5 26  1  0  0  0  0
  6 16  1  0  0  0  0
  6 12  1  0  0  0  0
  7 22  1  6  0  0  0
  7 28  1  0  0  0  0
 12 19  1  0  0  0  0
 14 22  1  6  0  0  0
 14 11  1  0  0  0  0
 15 10  1  0  0  0  0
 16 24  1  0  0  0  0
 17 13  1  0  0  0  0
 20 11  1  0  0  0  0
 20  2  1  0  0  0  0
 21 13  1  1  0  0  0
 21 15  1  0  0  0  0
 23  8  1  6  0  0  0
 23  7  1  0  0  0  0
 23 28  1  0  0  0  0
 24 23  1  0  0  0  0
 25 19  1  6  0  0  0
 25  5  1  0  0  0  0
 25  3  1  0  0  0  0
 26 41  1  1  0  0  0
 27 21  1  0  0  0  0
 27  2  1  0  0  0  0
 28  9  1  1  0  0  0
 29 24  1  0  0  0  0
 31 33  1  0  0  0  0
 32 30  1  6  0  0  0
 32 35  1  0  0  0  0
 33 29  1  1  0  0  0
 34 32  1  0  0  0  0
 34 31  1  0  0  0  0
 35 33  1  0  0  0  0
 36 38  1  0  0  0  0
 37 36  1  6  0  0  0
 37 32  1  0  0  0  0
 38 37  1  0  0  0  0
 38 40  1  0  0  0  0
 39 38  1  0  0  0  0
 39 40  1  0  0  0  0
 41 42  1  0  0  0  0
 42 43  1  0  0  0  0
 43 44  2  0  0  0  0
M  END
>  <MODEL>
2

>  <REMARK>
 VINA RESULT:       2.8      2.860      3.834
  Name = 
  6 active torsions:
  status: ('A' for Active; 'I' for Inactive)
    1  A    between atoms: O_9  and  C_29
    2  A    between atoms: O_9  and  N_37
    3  A    between atoms: C_11  and  C_25
    4  A    between atoms: N_20  and  O_40
    5  A    between atoms: O_33  and  C_39
    6  A    between atoms: O_33  and  O_40
                            x       y       z     vdW  Elec       q    Type
                         _______ _______ _______ _____ _____    ______ ____

>  <TORSDO>
F 6

$$$$
=
 OpenBabel11072413233D

 44 51  0  0  1  0  0  0  0  0999 V2000
  160.2350  212.6070  147.5110 C   0  0  0  0  0  2  0  0  0  0  0  0
  159.2680  212.4130  151.6740 C   0  0  1  0  0  3  0  0  0  0  0  0
  162.4540  210.2390  150.8750 C   0  0  0  0  0  0  0  0  0  0  0  0
  158.7680  210.6560  153.1660 O   0  0  0  0  0  0  0  0  0  0  0  0
  160.9260  210.5870  148.8640 C   0  0  0  0  0  2  0  0  0  0  0  0
  160.9310  206.1980  148.9810 C   0  0  0  0  0  2  0  0  0  0  0  0
  160.5100  207.7180  152.9980 C   0  0  1  0  0  3  0  0  0  0  0  0
  160.4220  205.2400  153.2780 O   0  0  0  0  0  1  0  0  0  0  0  0
  161.7250  206.8760  154.8760 O   0  0  0  0  0  1  0  0  0  0  0  0
  158.5620  213.5290  152.4040 C   0  0  0  0  0  2  0  0  0  0  0  0
  161.0820  210.9990  152.8740 C   0  0  0  0  0  2  0  0  0  0  0  0
  160.8480  207.7120  148.8730 C   0  0  0  0  0  2  0  0  0  0  0  0
  158.6410  213.5070  148.7880 C   0  0  0  0  0  2  0  0  0  0  0  0
  161.6420  209.8110  152.0770 C   0  0  1  0  0  3  0  0  0  0  0  0
  157.6360  214.4530  151.1540 S   0  0  0  0  0  0  0  0  0  0  0  0
  160.5760  205.7360  150.3900 C   0  0  2  0  0  3  0  0  0  0  0  0
  158.9320  212.4010  147.9830 O   0  0  0  0  0  0  0  0  0  0  0  0
  163.4500  210.9170  151.0720 O   0  0  0  0  0  0  0  0  0  0  0  0
  162.2030  208.3480  149.1780 C   0  0  0  0  0  2  0  0  0  0  0  0
  159.6380  211.3050  152.6070 C   0  0  0  0  0  0  0  0  0  0  0  0
  157.7890  213.0750  149.9740 C   0  0  2  0  0  3  0  0  0  0  0  0
  160.6520  208.6770  151.8160 C   0  0  0  0  0  2  0  0  0  0  0  0
  161.0320  206.3300  152.6430 C   0  0  1  0  0  0  0  0  0  0  0  0
  161.6330  206.1010  151.3250 N   0  0  1  0  0  0  0  0  0  0  0  0
  162.1360  209.8580  149.4480 C   0  0  2  0  0  3  0  0  0  0  0  0
  161.2890  212.0090  148.4480 C   0  0  2  0  0  3  0  0  0  0  0  0
  158.3790  211.9150  150.6370 N   0  0  0  0  0  2  0  0  0  0  0  0
  161.8630  207.2320  153.5330 C   0  0  1  0  0  3  0  0  0  0  0  0
  162.4680  205.0340  151.4250 O   0  0  0  0  0  0  0  0  0  0  0  0
  160.8840  200.8780  150.8900 O   0  0  0  0  0  1  0  0  0  0  0  0
  160.4340  204.2000  150.5030 C   0  0  2  0  0  3  0  0  0  0  0  0
  161.2490  201.9390  150.0510 C   0  0  1  0  0  0  0  0  0  0  0  0
  161.6310  203.9150  151.3790 C   0  0  1  0  0  3  0  0  0  0  0  0
  160.0570  202.8680  149.8810 C   0  0  0  0  0  2  0  0  0  0  0  0
  162.3390  202.7570  150.7170 C   0  0  0  0  0  2  0  0  0  0  0  0
  161.6790  202.4830  147.7470 O   0  0  0  0  0  0  0  0  0  0  0  0
  161.7270  201.4620  148.6710 C   0  0  2  0  0  3  0  0  0  0  0  0
  160.6380  201.5160  147.6330 C   0  0  0  0  0  0  0  0  0  0  0  0
  160.7250  201.2510  146.1210 C   0  0  0  0  0  2  0  0  0  0  0  0
  160.9650  200.1330  147.0430 C   0  0  0  0  0  2  0  0  0  0  0  0
  161.4390  212.8170  149.5760 O   0  0  0  0  0  0  0  0  0  0  0  0
  161.6300  214.0540  149.0910 O   0  0  0  0  0  0  0  0  0  0  0  0
  162.4300  214.2690  147.9880 N   0  0  0  0  0  0  0  0  0  0  0  0
  163.7060  214.4510  148.0960 C   0  0  0  0  0  2  0  0  0  0  0  0
  1 17  1  0  0  0  0
  1 26  1  0  0  0  0
  2 10  1  1  0  0  0
  2 20  1  0  0  0  0
  3 18  2  0  0  0  0
  3 14  1  0  0  0  0
  7 22  1  6  0  0  0
  7 28  1  0  0  0  0
 12  6  1  0  0  0  0
 12 19  1  0  0  0  0
 14 22  1  6  0  0  0
 14 11  1  0  0  0  0
 15 10  1  0  0  0  0
 16  6  1  6  0  0  0
 16 31  1  0  0  0  0
 16 24  1  0  0  0  0
 17 13  1  0  0  0  0
 19 25  1  0  0  0  0
 20 11  1  0  0  0  0
 20  4  2  0  0  0  0
 21 13  1  6  0  0  0
 21 27  1  0  0  0  0
 21 15  1  0  0  0  0
 23  7  1  0  0  0  0
 23  8  1  1  0  0  0
 23 28  1  0  0  0  0
 24 29  1  1  0  0  0
 24 23  1  0  0  0  0
 25  5  1  1  0  0  0
 25  3  1  0  0  0  0
 26  5  1  0  0  0  0
 26 41  1  1  0  0  0
 27  2  1  0  0  0  0
 28  9  1  1  0  0  0
 31 34  1  6  0  0  0
 31 33  1  0  0  0  0
 32 35  1  0  0  0  0
 32 30  1  1  0  0  0
 33 35  1  6  0  0  0
 33 29  1  0  0  0  0
 34 32  1  0  0  0  0
 37 36  1  6  0  0  0
 37 32  1  0  0  0  0
 38 36  1  0  0  0  0
 38 37  1  0  0  0  0
 39 40  1  0  0  0  0
 39 38  1  0  0  0  0
 40 38  1  0  0  0  0
 42 41  1  0  0  0  0
 43 44  2  0  0  0  0
 43 42  1  0  0  0  0
M  END
>  <MODEL>
3

>  <REMARK>
 VINA RESULT:       2.8      1.627      2.277
  Name = 
  6 active torsions:
  status: ('A' for Active; 'I' for Inactive)
    1  A    between atoms: O_9  and  C_29
    2  A    between atoms: O_9  and  N_37
    3  A    between atoms: C_11  and  C_25
    4  A    between atoms: N_20  and  O_40
    5  A    between atoms: O_33  and  C_39
    6  A    between atoms: O_33  and  O_40
                            x       y       z     vdW  Elec       q    Type
                         _______ _______ _______ _____ _____    ______ ____

>  <TORSDO>
F 6

$$$$
=
 OpenBabel11072413233D

 44 50  0  0  1  0  0  0  0  0999 V2000
  161.2090  211.3190  152.1080 C   0  0  0  0  0  2  0  0  0  0  0  0
  160.3370  208.0280  154.6980 C   0  0  1  0  0  3  0  0  0  0  0  0
  162.9550  206.9860  151.9450 C   0  0  0  0  0  0  0  0  0  0  0  0
  159.5100  205.8440  154.3620 O   0  0  0  0  0  0  0  0  0  0  0  0
  161.4840  208.9530  151.2610 C   0  0  0  0  0  2  0  0  0  0  0  0
  160.5430  206.2060  147.9690 C   0  0  0  0  0  2  0  0  0  0  0  0
  160.5700  204.0050  151.6800 C   0  0  1  0  0  3  0  0  0  0  0  0
  159.9560  202.2960  149.9700 O   0  0  0  0  0  1  0  0  0  0  0  0
  161.6250  201.8790  151.9620 O   0  0  0  0  0  1  0  0  0  0  0  0
  159.9090  208.2060  156.1340 C   0  0  0  0  0  2  0  0  0  0  0  0
  161.8340  206.0230  154.0120 C   0  0  0  0  0  2  0  0  0  0  0  0
  160.7870  207.2170  149.0780 C   0  0  0  0  0  2  0  0  0  0  0  0
  159.8840  211.0350  153.8810 C   0  0  0  0  0  2  0  0  0  0  0  0
  162.1030  205.8700  152.5070 C   0  0  1  0  0  3  0  0  0  0  0  0
  159.1720  209.8540  156.2480 S   0  0  0  0  0  0  0  0  0  0  0  0
  160.1350  204.8560  148.5470 C   0  0  0  0  0  2  0  0  0  0  0  0
  159.9060  210.9680  152.4840 O   0  0  0  0  0  0  0  0  0  0  0  0
  164.0790  207.1290  152.3990 O   0  0  0  0  0  0  0  0  0  0  0  0
  162.2540  207.2080  149.5000 C   0  0  0  0  0  2  0  0  0  0  0  0
  160.4840  206.5800  154.3530 C   0  0  0  0  0  0  0  0  0  0  0  0
  158.9900  209.9330  154.4380 C   0  0  2  0  0  3  0  0  0  0  0  0
  160.8840  205.5020  151.6630 C   0  0  0  0  0  2  0  0  0  0  0  0
  160.7700  203.3870  150.3010 C   0  0  1  0  0  0  0  0  0  0  0  0
  161.2710  204.2210  149.2030 N   0  0  0  0  0  0  0  0  0  0  0  0
  162.5230  207.9160  150.8360 C   0  0  2  0  0  3  0  0  0  0  0  0
  162.1340  210.1010  152.0290 C   0  0  2  0  0  3  0  0  0  0  0  0
  159.3340  208.6440  153.8460 N   0  0  0  0  0  2  0  0  0  0  0  0
  161.8000  203.1380  151.3840 C   0  0  1  0  0  3  0  0  0  0  0  0
  161.8580  203.4030  148.2910 O   0  0  0  0  0  0  0  0  0  0  0  0
  158.8730  201.7070  145.4130 O   0  0  0  0  0  1  0  0  0  0  0  0
  161.4630  203.7960  145.9730 C   0  0  0  0  0  2  0  0  0  0  0  0
  160.2680  201.7060  145.5440 C   0  0  1  0  0  0  0  0  0  0  0  0
  160.9100  203.2600  147.2720 C   0  0  1  0  0  3  0  0  0  0  0  0
  160.8270  202.9570  144.8810 C   0  0  0  0  0  2  0  0  0  0  0  0
  160.6370  201.7980  147.0120 C   0  0  0  0  0  2  0  0  0  0  0  0
  159.9690  199.6180  144.3850 O   0  0  0  0  0  0  0  0  0  0  0  0
  160.9180  200.4620  144.9200 C   0  0  2  0  0  3  0  0  0  0  0  0
  160.5270  199.1910  145.6260 C   0  0  0  0  0  0  0  0  0  0  0  0
  160.8490  197.7360  145.2520 C   0  0  0  0  0  2  0  0  0  0  0  0
  161.9550  198.6190  145.6440 C   0  0  0  0  0  2  0  0  0  0  0  0
  162.4870  209.6830  153.3130 O   0  0  0  0  0  0  0  0  0  0  0  0
  163.0880  210.7460  153.8680 O   0  0  0  0  0  0  0  0  0  0  0  0
  163.5470  210.7050  155.1690 N   0  0  0  0  0  0  0  0  0  0  0  0
  162.7360  210.6350  156.1740 C   0  0  0  0  0  2  0  0  0  0  0  0
  1 17  1  0  0  0  0
  2 10  1  1  0  0  0
  3 18  2  0  0  0  0
  3 14  1  0  0  0  0
  5 26  1  0  0  0  0
  6 16  1  0  0  0  0
  6 12  1  0  0  0  0
  7 22  1  6  0  0  0
 10 15  1  0  0  0  0
 11 20  1  0  0  0  0
 12 19  1  0  0  0  0
 14 22  1  6  0  0  0
 14 11  1  0  0  0  0
 16 24  1  0  0  0  0
 17 13  1  0  0  0  0
 20  4  2  0  0  0  0
 20  2  1  0  0  0  0
 21 13  1  6  0  0  0
 21 15  1  0  0  0  0
 23  8  1  6  0  0  0
 23 28  1  0  0  0  0
 23  7  1  0  0  0  0
 24 23  1  0  0  0  0
 25 19  1  6  0  0  0
 25  5  1  0  0  0  0
 25  3  1  0  0  0  0
 26  1  1  0  0  0  0
 26 41  1  1  0  0  0
 27 21  1  0  0  0  0
 27  2  1  0  0  0  0
 28  7  1  0  0  0  0
 28  9  1  1  0  0  0
 29 24  1  0  0  0  0
 31 33  1  0  0  0  0
 32 30  1  6  0  0  0
 32 35  1  0  0  0  0
 33 29  1  1  0  0  0
 34 32  1  0  0  0  0
 34 31  1  0  0  0  0
 35 33  1  0  0  0  0
 36 38  1  0  0  0  0
 37 36  1  6  0  0  0
 37 32  1  0  0  0  0
 37 38  1  0  0  0  0
 38 40  1  0  0  0  0
 39 38  1  0  0  0  0
 39 40  1  0  0  0  0
 41 42  1  0  0  0  0
 42 43  1  0  0  0  0
 43 44  2  0  0  0  0
M  END
>  <MODEL>
4

>  <REMARK>
 VINA RESULT:       3.2      3.151      4.327
  Name = 
  6 active torsions:
  status: ('A' for Active; 'I' for Inactive)
    1  A    between atoms: O_9  and  C_29
    2  A    between atoms: O_9  and  N_37
    3  A    between atoms: C_11  and  C_25
    4  A    between atoms: N_20  and  O_40
    5  A    between atoms: O_33  and  C_39
    6  A    between atoms: O_33  and  O_40
                            x       y       z     vdW  Elec       q    Type
                         _______ _______ _______ _____ _____    ______ ____

>  <TORSDO>
F 6

$$$$
