=
 OpenBabel11072414213D

 56 61  0  0  1  0  0  0  0  0999 V2000
  161.0470  206.4910  155.8760 C   0  0  0  0  0  2  0  0  0  0  0  0
  162.7920  207.5940  150.4680 C   0  0  2  0  0  3  0  0  0  0  0  0
  159.8710  206.1260  152.4260 C   0  0  0  0  0  3  0  0  0  0  0  0
  161.3650  209.0150  155.4650 C   0  0  2  0  0  3  0  0  0  0  0  0
  161.7830  207.5840  155.0820 C   0  0  2  0  0  0  0  0  0  0  0  0
  161.4110  211.8070  150.4240 C   0  0  0  0  0  2  0  0  0  0  0  0
  160.2180  211.4590  152.5690 C   0  0  0  0  0  3  0  0  0  0  0  0
  158.3940  211.9670  155.0180 C   0  0  0  0  0  2  0  0  0  0  0  0
  160.2160  212.6140  156.2460 O   0  0  0  0  0  0  0  0  0  0  0  0
  161.7870  209.4620  156.8550 C   0  0  0  0  0  2  0  0  0  0  0  0
  159.6300  210.4400  156.2740 C   0  0  2  0  0  3  0  0  0  0  0  0
  159.7390  211.6210  155.4430 N   0  0  1  0  0  0  0  0  0  0  0  0
  160.7790  210.5440  157.2380 C   0  0  2  0  0  3  0  0  0  0  0  0
  162.3370  205.2180  151.0090 C   0  0  0  0  0  2  0  0  0  0  0  0
  161.4290  207.3580  153.7360 O   0  0  0  0  0  0  0  0  0  0  0  0
  161.6710  209.6110  151.6090 C   0  0  0  0  0  2  0  0  0  0  0  0
  158.4300  212.7980  153.7390 C   0  0  1  0  0  3  0  0  0  0  0  0
  160.7180  210.7830  151.3240 C   0  0  2  0  0  3  0  0  0  0  0  0
  161.8690  211.1500  149.1240 C   0  0  0  0  0  2  0  0  0  0  0  0
  161.8550  206.4670  150.9000 C   0  0  0  0  0  0  0  0  0  0  0  0
  159.0130  212.0420  152.5710 C   0  0  0  0  0  3  0  0  0  0  0  0
  159.8710  209.2150  155.4330 C   0  0  0  0  0  2  0  0  0  0  0  0
  162.7830  209.9610  149.4200 C   0  0  0  0  0  2  0  0  0  0  0  0
  160.0270  205.8470  154.9220 C   0  0  2  0  0  3  0  0  0  0  0  0
  162.0380  208.9380  150.2770 C   0  0  1  0  0  3  0  0  0  0  0  0
  161.2200  211.9940  157.0210 C   0  0  1  0  0  3  0  0  0  0  0  0
  160.3850  206.7270  151.1380 C   0  0  0  0  0  2  0  0  0  0  0  0
  163.1630  207.4370  155.2340 O   0  0  0  0  0  1  0  0  0  0  0  0
  160.3970  206.4540  153.6080 C   0  0  0  0  0  0  0  0  0  0  0  0
  158.6150  206.7160  156.8240 C   0  0  0  0  0  1  0  0  0  0  0  0
  158.6290  206.2500  155.3710 C   0  0  0  0  0  2  0  0  0  0  0  0
  157.0290  213.2650  153.3300 C   0  0  0  0  0  2  0  0  0  0  0  0
  157.0470  214.4140  152.4220 N   0  0  0  0  0  2  0  0  0  0  0  0
  157.3010  214.3340  151.0150 C   0  0  0  0  0  0  0  0  0  0  0  0
  158.7280  214.4500  150.5310 C   0  0  0  0  0  2  0  0  0  0  0  0
  156.5160  214.0370  148.6490 C   0  0  0  0  0  2  0  0  0  0  0  0
  157.9170  214.4450  148.2040 C   0  0  0  0  0  2  0  0  0  0  0  0
  158.9270  213.8370  149.1550 C   0  0  0  0  0  2  0  0  0  0  0  0
  156.2650  214.1990  150.1390 C   0  0  0  0  0  0  0  0  0  0  0  0
  154.5460  213.9000  151.7560 O   0  0  0  0  0  1  0  0  0  0  0  0
  153.8110  214.4350  149.6690 O   0  0  0  0  0  0  0  0  0  0  0  0
  154.8440  214.1690  150.5630 C   0  0  0  0  0  0  0  0  0  0  0  0
  163.7200  207.1060  148.9610 S   0  0  0  0  0  0  0  0  0  0  0  0
  162.2900  207.3330  147.8470 C   0  0  0  0  0  2  0  0  0  0  0  0
  162.3080  206.3330  146.6910 C   0  0  0  0  0  2  0  0  0  0  0  0
  162.4790  204.9060  147.1960 C   0  0  0  0  0  2  0  0  0  0  0  0
  161.1040  204.2840  147.4360 C   0  0  2  0  0  3  0  0  0  0  0  0
  160.1750  205.2910  147.7000 O   0  0  0  0  0  1  0  0  0  0  0  0
  161.1310  203.3050  148.6070 C   0  0  0  0  0  2  0  0  0  0  0  0
  160.0090  201.2340  148.9730 O   0  0  0  0  0  0  0  0  0  0  0  0
  160.7150  201.9250  148.1880 C   0  0  0  0  0  0  0  0  0  0  0  0
  161.0640  201.4010  146.9390 O   0  0  0  0  0  0  0  0  0  0  0  0
  161.5030  200.0560  146.7760 C   0  0  0  0  0  1  0  0  0  0  0  0
  162.5830  212.1720  156.3520 C   0  0  0  0  0  2  0  0  0  0  0  0
  165.0530  212.0290  156.6620 C   0  0  0  0  0  1  0  0  0  0  0  0
  163.7050  211.6850  157.2610 C   0  0  0  0  0  2  0  0  0  0  0  0
  2 43  1  6  0  0  0
  2 20  1  0  0  0  0
  3 29  2  0  0  0  0
  4 22  1  1  0  0  0
  4 10  1  0  0  0  0
  5 28  1  1  0  0  0
  5  4  1  0  0  0  0
  5  1  1  0  0  0  0
  7 21  2  0  0  0  0
  9 26  1  0  0  0  0
 11 22  1  6  0  0  0
 11 13  1  0  0  0  0
 12  8  1  1  0  0  0
 12  9  1  0  0  0  0
 12 11  1  0  0  0  0
 13 10  1  6  0  0  0
 15  5  1  0  0  0  0
 17 32  1  6  0  0  0
 17  8  1  0  0  0  0
 18  6  1  6  0  0  0
 18 16  1  0  0  0  0
 18  7  1  0  0  0  0
 19 23  1  0  0  0  0
 19  6  1  0  0  0  0
 20 14  2  0  0  0  0
 20 27  1  0  0  0  0
 21 17  1  0  0  0  0
 24 31  1  1  0  0  0
 24  1  1  0  0  0  0
 25 23  1  6  0  0  0
 25  2  1  0  0  0  0
 25 16  1  0  0  0  0
 26 54  1  6  0  0  0
 26 13  1  0  0  0  0
 27  3  1  0  0  0  0
 29 15  1  0  0  0  0
 29 24  1  0  0  0  0
 31 30  1  0  0  0  0
 33 32  1  0  0  0  0
 34 33  1  0  0  0  0
 35 34  1  0  0  0  0
 36 39  1  0  0  0  0
 37 36  1  0  0  0  0
 37 38  1  0  0  0  0
 38 35  1  0  0  0  0
 39 42  1  0  0  0  0
 39 34  2  0  0  0  0
 41 42  2  0  0  0  0
 42 40  1  0  0  0  0
 44 43  1  0  0  0  0
 45 46  1  0  0  0  0
 45 44  1  0  0  0  0
 46 47  1  0  0  0  0
 47 48  1  1  0  0  0
 47 49  1  0  0  0  0
 51 49  1  0  0  0  0
 51 50  2  0  0  0  0
 52 51  1  0  0  0  0
 53 52  1  0  0  0  0
 54 56  1  0  0  0  0
 55 56  1  0  0  0  0
M  END
>  <MODEL>
1

>  <REMARK>
 VINA RESULT:       5.5      0.000      0.000
  Name = 
  15 active torsions:
  status: ('A' for Active; 'I' for Inactive)
    1  A    between atoms: C_3  and  S_16
    2  A    between atoms: C_4  and  N_38
    3  A    between atoms: C_5  and  C_8
    4  A    between atoms: C_5  and  O_27
    5  A    between atoms: C_7  and  C_30
    6  A    between atoms: C_7  and  N_38
    7  A    between atoms: C_8  and  C_12
    8  A    between atoms: C_12  and  C_35
    9  A    between atoms: S_16  and  C_34
   10  A    between atoms: C_21  and  C_46
   11  A    between atoms: C_34  and  C_49
   12  A    between atoms: C_35  and  C_49
   13  A    between atoms: C_37  and  C_43
   14  A    between atoms: C_43  and  C_51
   15  A    between atoms: C_50  and  C_56
                            x       y       z     vdW  Elec       q    Type
                         _______ _______ _______ _____ _____    ______ ____

>  <TORSDO>
F 15

$$$$
=
 OpenBabel11072414213D

 56 61  0  0  1  0  0  0  0  0999 V2000
  159.3470  214.0410  149.0620 C   0  0  0  0  0  2  0  0  0  0  0  0
  160.0450  212.7010  154.6500 C   0  0  2  0  0  3  0  0  0  0  0  0
  157.4710  212.5680  151.8440 C   0  0  0  0  0  3  0  0  0  0  0  0
  161.1810  212.2620  149.4020 C   0  0  2  0  0  3  0  0  0  0  0  0
  160.4150  213.4550  150.0020 C   0  0  2  0  0  0  0  0  0  0  0  0
  161.9240  208.7540  153.9120 C   0  0  0  0  0  2  0  0  0  0  0  0
  161.3580  208.9120  151.5040 C   0  0  0  0  0  3  0  0  0  0  0  0
  161.0020  208.1470  148.5250 C   0  0  0  0  0  2  0  0  0  0  0  0
  162.9990  209.1520  148.0250 O   0  0  0  0  0  0  0  0  0  0  0  0
  162.1030  212.6040  148.2440 C   0  0  0  0  0  2  0  0  0  0  0  0
  161.1250  210.3940  147.9180 C   0  0  2  0  0  3  0  0  0  0  0  0
  161.8060  209.3500  148.6540 N   0  0  1  0  0  0  0  0  0  0  0  0
  162.2230  211.3070  147.4460 C   0  0  2  0  0  3  0  0  0  0  0  0
  158.2450  214.3240  154.1290 C   0  0  0  0  0  2  0  0  0  0  0  0
  159.6990  213.0060  151.1310 O   0  0  0  0  0  0  0  0  0  0  0  0
  160.8960  210.8730  153.0500 C   0  0  0  0  0  2  0  0  0  0  0  0
  161.2910  207.1810  149.6710 C   0  0  1  0  0  3  0  0  0  0  0  0
  160.9570  209.3460  152.8850 C   0  0  2  0  0  3  0  0  0  0  0  0
  161.4940  209.1310  155.3280 C   0  0  0  0  0  2  0  0  0  0  0  0
  158.7290  213.0810  153.9730 C   0  0  0  0  0  0  0  0  0  0  0  0
  160.9120  207.7470  151.0170 C   0  0  0  0  0  3  0  0  0  0  0  0
  160.2670  211.1920  148.8630 C   0  0  0  0  0  2  0  0  0  0  0  0
  161.3960  210.6500  155.4680 C   0  0  0  0  0  2  0  0  0  0  0  0
  157.9760  213.6050  149.6070 C   0  0  2  0  0  3  0  0  0  0  0  0
  160.3840  211.1980  154.4620 C   0  0  1  0  0  3  0  0  0  0  0  0
  163.4610  210.4490  147.7190 C   0  0  1  0  0  3  0  0  0  0  0  0
  157.9360  212.0610  153.1900 C   0  0  0  0  0  2  0  0  0  0  0  0
  161.3140  214.4520  150.3840 O   0  0  0  0  0  1  0  0  0  0  0  0
  158.3370  212.9990  150.9240 C   0  0  0  0  0  0  0  0  0  0  0  0
  156.6670  213.2630  147.4770 C   0  0  0  0  0  1  0  0  0  0  0  0
  157.3780  212.5860  148.6460 C   0  0  0  0  0  2  0  0  0  0  0  0
  160.5340  205.8600  149.4990 C   0  0  0  0  0  2  0  0  0  0  0  0
  161.4200  204.7010  149.3690 N   0  0  0  0  0  2  0  0  0  0  0  0
  161.1140  203.5250  148.6120 C   0  0  0  0  0  0  0  0  0  0  0  0
  160.5610  202.3200  149.3400 C   0  0  0  0  0  2  0  0  0  0  0  0
  160.9750  202.2800  146.4370 C   0  0  0  0  0  2  0  0  0  0  0  0
  160.7000  201.0200  147.2510 C   0  0  0  0  0  2  0  0  0  0  0  0
  159.8030  201.3800  148.4180 C   0  0  0  0  0  2  0  0  0  0  0  0
  161.3610  203.4900  147.2720 C   0  0  0  0  0  0  0  0  0  0  0  0
  162.9720  205.2220  147.0200 O   0  0  0  0  0  1  0  0  0  0  0  0
  161.5000  205.0280  145.2940 O   0  0  0  0  0  0  0  0  0  0  0  0
  161.9820  204.6150  146.5320 C   0  0  0  0  0  0  0  0  0  0  0  0
  160.0100  213.1810  156.4220 S   0  0  0  0  0  0  0  0  0  0  0  0
  158.1860  213.2520  156.5020 C   0  0  0  0  0  2  0  0  0  0  0  0
  157.6050  212.0450  157.2380 C   0  0  0  0  0  2  0  0  0  0  0  0
  156.9990  211.0410  156.2650 C   0  0  0  0  0  2  0  0  0  0  0  0
  155.4760  211.0710  156.3870 C   0  0  2  0  0  3  0  0  0  0  0  0
  154.9070  211.1680  155.1170 O   0  0  0  0  0  1  0  0  0  0  0  0
  155.0070  212.2490  157.2380 C   0  0  0  0  0  2  0  0  0  0  0  0
  154.0480  214.4040  156.9000 O   0  0  0  0  0  0  0  0  0  0  0  0
  154.7190  213.4600  156.4000 C   0  0  0  0  0  0  0  0  0  0  0  0
  155.2000  213.5790  155.0920 O   0  0  0  0  0  0  0  0  0  0  0  0
  154.5970  214.4460  154.1370 C   0  0  0  0  0  1  0  0  0  0  0  0
  164.3760  210.9560  148.8340 C   0  0  0  0  0  2  0  0  0  0  0  0
  164.2330  213.2820  147.9480 C   0  0  0  0  0  1  0  0  0  0  0  0
  165.1710  212.1730  148.3780 C   0  0  0  0  0  2  0  0  0  0  0  0
  1 24  1  0  0  0  0
  1  5  1  0  0  0  0
  2 43  1  1  0  0  0
  3 27  1  0  0  0  0
  4 10  1  6  0  0  0
  4  5  1  0  0  0  0
  5 28  1  1  0  0  0
  5 15  1  0  0  0  0
  6 19  1  0  0  0  0
  8 17  1  0  0  0  0
  9 12  1  0  0  0  0
 11 12  1  0  0  0  0
 11 22  1  1  0  0  0
 12  8  1  6  0  0  0
 13 26  1  0  0  0  0
 13 11  1  0  0  0  0
 13 10  1  1  0  0  0
 17 32  1  6  0  0  0
 17 21  1  0  0  0  0
 18  7  1  6  0  0  0
 18 16  1  0  0  0  0
 18  6  1  0  0  0  0
 19 23  1  0  0  0  0
 20 14  2  0  0  0  0
 20  2  1  0  0  0  0
 21  7  2  0  0  0  0
 22  4  1  0  0  0  0
 24 31  1  6  0  0  0
 24 29  1  0  0  0  0
 25 16  1  6  0  0  0
 25  2  1  0  0  0  0
 25 23  1  0  0  0  0
 26  9  1  0  0  0  0
 26 54  1  1  0  0  0
 27 20  1  0  0  0  0
 29 15  1  0  0  0  0
 29  3  2  0  0  0  0
 30 31  1  0  0  0  0
 33 32  1  0  0  0  0
 34 35  1  0  0  0  0
 34 33  1  0  0  0  0
 36 37  1  0  0  0  0
 36 39  1  0  0  0  0
 37 38  1  0  0  0  0
 38 35  1  0  0  0  0
 39 34  2  0  0  0  0
 41 42  2  0  0  0  0
 42 40  1  0  0  0  0
 42 39  1  0  0  0  0
 43 44  1  0  0  0  0
 44 45  1  0  0  0  0
 46 47  1  0  0  0  0
 46 45  1  0  0  0  0
 47 48  1  6  0  0  0
 47 49  1  0  0  0  0
 51 50  2  0  0  0  0
 51 49  1  0  0  0  0
 52 51  1  0  0  0  0
 53 52  1  0  0  0  0
 55 56  1  0  0  0  0
 56 54  1  0  0  0  0
M  END
>  <MODEL>
2

>  <REMARK>
 VINA RESULT:       5.7      3.339     10.167
  Name = 
  15 active torsions:
  status: ('A' for Active; 'I' for Inactive)
    1  A    between atoms: C_3  and  S_16
    2  A    between atoms: C_4  and  N_38
    3  A    between atoms: C_5  and  C_8
    4  A    between atoms: C_5  and  O_27
    5  A    between atoms: C_7  and  C_30
    6  A    between atoms: C_7  and  N_38
    7  A    between atoms: C_8  and  C_12
    8  A    between atoms: C_12  and  C_35
    9  A    between atoms: S_16  and  C_34
   10  A    between atoms: C_21  and  C_46
   11  A    between atoms: C_34  and  C_49
   12  A    between atoms: C_35  and  C_49
   13  A    between atoms: C_37  and  C_43
   14  A    between atoms: C_43  and  C_51
   15  A    between atoms: C_50  and  C_56
                            x       y       z     vdW  Elec       q    Type
                         _______ _______ _______ _____ _____    ______ ____

>  <TORSDO>
F 15

$$$$
=
 OpenBabel11072414213D

 56 61  0  0  1  0  0  0  0  0999 V2000
  161.9290  204.8140  152.3250 C   0  0  0  0  0  2  0  0  0  0  0  0
  162.4590  209.5360  149.0180 C   0  0  2  0  0  3  0  0  0  0  0  0
  160.1660  206.5540  149.6260 C   0  0  0  0  0  3  0  0  0  0  0  0
  161.8570  206.9780  153.7220 C   0  0  2  0  0  3  0  0  0  0  0  0
  162.3630  206.2850  152.4440 C   0  0  2  0  0  0  0  0  0  0  0  0
  160.6010  212.3100  151.9340 C   0  0  0  0  0  2  0  0  0  0  0  0
  159.8920  210.3940  153.3360 C   0  0  0  0  0  3  0  0  0  0  0  0
  158.5230  208.7590  155.5810 C   0  0  0  0  0  2  0  0  0  0  0  0
  160.4560  208.8190  156.8090 O   0  0  0  0  0  0  0  0  0  0  0  0
  162.4810  206.4830  155.0160 C   0  0  0  0  0  2  0  0  0  0  0  0
  160.1510  207.1010  155.3860 C   0  0  2  0  0  3  0  0  0  0  0  0
  159.9570  208.5230  155.5760 N   0  0  1  0  0  0  0  0  0  0  0  0
  161.4430  206.7950  156.0930 C   0  0  2  0  0  3  0  0  0  0  0  0
  162.4050  207.3630  147.8250 C   0  0  0  0  0  2  0  0  0  0  0  0
  161.7870  206.9260  151.3280 O   0  0  0  0  0  0  0  0  0  0  0  0
  161.3450  210.0030  151.2910 C   0  0  0  0  0  2  0  0  0  0  0  0
  158.2140  210.2060  155.2100 C   0  0  1  0  0  3  0  0  0  0  0  0
  160.2200  210.8290  151.9370 C   0  0  2  0  0  3  0  0  0  0  0  0
  160.8760  212.7870  150.5100 C   0  0  0  0  0  2  0  0  0  0  0  0
  161.7650  208.2330  148.6240 C   0  0  0  0  0  0  0  0  0  0  0  0
  158.6480  210.5510  153.8070 C   0  0  0  0  0  3  0  0  0  0  0  0
  160.3720  206.8180  153.9250 C   0  0  0  0  0  2  0  0  0  0  0  0
  161.9660  211.9320  149.8630 C   0  0  0  0  0  2  0  0  0  0  0  0
  160.8290  204.7510  151.2520 C   0  0  2  0  0  3  0  0  0  0  0  0
  161.5270  210.4680  149.8370 C   0  0  1  0  0  3  0  0  0  0  0  0
  161.6560  208.0820  156.8940 C   0  0  1  0  0  3  0  0  0  0  0  0
  160.3470  207.9450  149.0630 C   0  0  0  0  0  2  0  0  0  0  0  0
  163.7540  206.3810  152.3720 O   0  0  0  0  0  1  0  0  0  0  0  0
  160.8660  206.1320  150.6810 C   0  0  0  0  0  0  0  0  0  0  0  0
  159.2300  202.9440  151.9860 C   0  0  0  0  0  1  0  0  0  0  0  0
  159.5050  204.4440  151.9380 C   0  0  0  0  0  2  0  0  0  0  0  0
  156.7140  210.5060  155.3130 C   0  0  0  0  0  2  0  0  0  0  0  0
  156.3970  211.5180  156.3230 N   0  0  0  0  0  2  0  0  0  0  0  0
  155.3930  212.5280  156.1750 C   0  0  0  0  0  0  0  0  0  0  0  0
  154.3300  212.6540  157.2430 C   0  0  0  0  0  2  0  0  0  0  0  0
  154.3710  214.4500  154.9240 C   0  0  0  0  0  2  0  0  0  0  0  0
  153.1770  214.3420  155.8670 C   0  0  0  0  0  2  0  0  0  0  0  0
  153.6830  214.0280  157.2600 C   0  0  0  0  0  2  0  0  0  0  0  0
  155.3810  213.3240  155.0670 C   0  0  0  0  0  0  0  0  0  0  0  0
  155.9520  212.8340  152.8100 O   0  0  0  0  0  0  0  0  0  0  0  0
  157.7090  213.4180  154.1360 O   0  0  0  0  0  1  0  0  0  0  0  0
  156.3510  213.1780  153.9540 C   0  0  0  0  0  0  0  0  0  0  0  0
  163.1330  210.3730  147.5300 S   0  0  0  0  0  0  0  0  0  0  0  0
  162.0930  211.8600  147.7340 C   0  0  0  0  0  2  0  0  0  0  0  0
  161.2100  212.1070  146.5110 C   0  0  0  0  0  2  0  0  0  0  0  0
  161.0210  213.5970  146.2550 C   0  0  0  0  0  2  0  0  0  0  0  0
  161.2010  213.8830  144.7640 C   0  0  2  0  0  3  0  0  0  0  0  0
  159.9870  214.3020  144.2200 O   0  0  0  0  0  1  0  0  0  0  0  0
  161.6890  212.6460  144.0140 C   0  0  0  0  0  2  0  0  0  0  0  0
  161.6790  214.0340  142.0760 O   0  0  0  0  0  0  0  0  0  0  0  0
  161.6730  212.8570  142.5270 C   0  0  0  0  0  0  0  0  0  0  0  0
  161.6830  211.7810  141.6340 O   0  0  0  0  0  0  0  0  0  0  0  0
  160.5280  211.3960  140.8950 C   0  0  0  0  0  1  0  0  0  0  0  0
  162.8350  208.9460  156.4440 C   0  0  0  0  0  2  0  0  0  0  0  0
  163.8160  211.2210  156.7290 C   0  0  0  0  0  1  0  0  0  0  0  0
  162.5290  210.4270  156.6320 C   0  0  0  0  0  2  0  0  0  0  0  0
  1  5  1  0  0  0  0
  2 43  1  6  0  0  0
  2 25  1  0  0  0  0
  3 29  2  0  0  0  0
  4 22  1  1  0  0  0
  4 10  1  0  0  0  0
  5 28  1  6  0  0  0
  5  4  1  0  0  0  0
  6 18  1  0  0  0  0
  7 21  2  0  0  0  0
  9 26  1  0  0  0  0
 11 22  1  6  0  0  0
 11 12  1  0  0  0  0
 11 13  1  0  0  0  0
 12  8  1  1  0  0  0
 12  9  1  0  0  0  0
 13 10  1  6  0  0  0
 13 26  1  0  0  0  0
 14 20  2  0  0  0  0
 15  5  1  0  0  0  0
 17 32  1  6  0  0  0
 17  8  1  0  0  0  0
 18 16  1  1  0  0  0
 18  7  1  0  0  0  0
 19  6  1  0  0  0  0
 20  2  1  0  0  0  0
 20 27  1  0  0  0  0
 21 17  1  0  0  0  0
 23 19  1  0  0  0  0
 24 31  1  1  0  0  0
 24  1  1  0  0  0  0
 25 23  1  1  0  0  0
 25 16  1  0  0  0  0
 26 54  1  6  0  0  0
 27  3  1  0  0  0  0
 29 24  1  0  0  0  0
 29 15  1  0  0  0  0
 31 30  1  0  0  0  0
 32 33  1  0  0  0  0
 34 33  1  0  0  0  0
 34 35  1  0  0  0  0
 35 38  1  0  0  0  0
 36 39  1  0  0  0  0
 36 37  1  0  0  0  0
 37 38  1  0  0  0  0
 39 34  2  0  0  0  0
 40 42  2  0  0  0  0
 42 41  1  0  0  0  0
 42 39  1  0  0  0  0
 43 44  1  0  0  0  0
 45 44  1  0  0  0  0
 46 45  1  0  0  0  0
 47 48  1  6  0  0  0
 47 46  1  0  0  0  0
 49 47  1  0  0  0  0
 50 51  2  0  0  0  0
 51 49  1  0  0  0  0
 52 51  1  0  0  0  0
 53 52  1  0  0  0  0
 54 56  1  0  0  0  0
 56 55  1  0  0  0  0
M  END
>  <MODEL>
3

>  <REMARK>
 VINA RESULT:       7.8      3.493      5.776
  Name = 
  15 active torsions:
  status: ('A' for Active; 'I' for Inactive)
    1  A    between atoms: C_3  and  S_16
    2  A    between atoms: C_4  and  N_38
    3  A    between atoms: C_5  and  C_8
    4  A    between atoms: C_5  and  O_27
    5  A    between atoms: C_7  and  C_30
    6  A    between atoms: C_7  and  N_38
    7  A    between atoms: C_8  and  C_12
    8  A    between atoms: C_12  and  C_35
    9  A    between atoms: S_16  and  C_34
   10  A    between atoms: C_21  and  C_46
   11  A    between atoms: C_34  and  C_49
   12  A    between atoms: C_35  and  C_49
   13  A    between atoms: C_37  and  C_43
   14  A    between atoms: C_43  and  C_51
   15  A    between atoms: C_50  and  C_56
                            x       y       z     vdW  Elec       q    Type
                         _______ _______ _______ _____ _____    ______ ____

>  <TORSDO>
F 15

$$$$
