=
 OpenBabel11072413303D

 36 39  0  0  1  0  0  0  0  0999 V2000
  160.7770  211.2840  152.7900 C   0  0  2  0  0  3  0  0  0  0  0  0
  162.3770  208.4520  151.0140 C   0  0  0  0  0  2  0  0  0  0  0  0
  162.0460  209.8900  151.1910 C   0  0  0  0  0  2  0  0  0  0  0  0
  161.0750  209.9980  152.0750 C   0  0  1  0  0  3  0  0  0  0  0  0
  161.4110  209.9010  154.6750 O   0  0  0  0  0  0  0  0  0  0  0  0
  160.7870  208.7280  154.1990 C   0  0  0  0  0  2  0  0  0  0  0  0
  161.7240  207.7390  152.1190 N   0  0  0  0  0  0  0  0  0  0  0  0
  160.7360  208.6730  152.6590 C   0  0  2  0  0  3  0  0  0  0  0  0
  160.5920  210.9810  154.2830 C   0  0  0  0  0  2  0  0  0  0  0  0
  159.5140  211.9590  152.2640 C   0  0  0  0  0  2  0  0  0  0  0  0
  159.8150  213.1800  151.4050 C   0  0  0  0  0  2  0  0  0  0  0  0
  158.5420  213.6870  150.7410 C   0  0  0  0  0  2  0  0  0  0  0  0
  159.5250  212.4800  145.2160 C   0  0  0  0  0  1  0  0  0  0  0  0
  157.9120  212.9840  147.0100 C   0  0  0  0  0  0  0  0  0  0  0  0
  159.1820  212.7550  146.6440 C   0  0  0  0  0  0  0  0  0  0  0  0
  157.5600  213.1800  148.4720 C   0  0  1  0  0  3  0  0  0  0  0  0
  158.7370  213.8050  149.2370 C   0  0  2  0  0  3  0  0  0  0  0  0
  160.0130  213.1970  148.8600 N   0  0  0  0  0  0  0  0  0  0  0  0
  160.2530  212.7510  147.6610 C   0  0  0  0  0  0  0  0  0  0  0  0
  156.9020  212.9780  146.0490 O   0  0  0  0  0  1  0  0  0  0  0  0
  156.3330  214.0740  148.6340 C   0  0  0  0  0  2  0  0  0  0  0  0
  155.5460  213.6370  149.6990 O   0  0  0  0  0  1  0  0  0  0  0  0
  162.5660  212.1510  148.2810 C   0  0  0  0  0  1  0  0  0  0  0  0
  161.5160  212.2530  147.3290 O   0  0  0  0  0  0  0  0  0  0  0  0
  161.0310  206.5580  151.5930 C   0  0  0  0  0  2  0  0  0  0  0  0
  161.1450  206.4610  150.1710 O   0  0  0  0  0  0  0  0  0  0  0  0
  161.0850  202.7610  148.1450 C   0  0  0  0  0  0  0  0  0  0  0  0
  160.7270  202.8560  149.4990 C   0  0  0  0  0  3  0  0  0  0  0  0
  161.4780  203.9330  147.4610 C   0  0  0  0  0  0  0  0  0  0  0  0
  161.1380  205.2420  149.4840 C   0  0  0  0  0  0  0  0  0  0  0  0
  161.5020  205.1580  148.1330 C   0  0  0  0  0  3  0  0  0  0  0  0
  160.7540  204.0840  150.1620 C   0  0  0  0  0  3  0  0  0  0  0  0
  161.8440  203.9000  146.1200 O   0  0  0  0  0  1  0  0  0  0  0  0
  160.5250  201.2920  146.2000 O   0  0  0  0  0  0  0  0  0  0  0  0
  161.0360  201.4360  147.4840 C   0  0  0  0  0  0  0  0  0  0  0  0
  161.4620  200.4150  148.0870 O   0  0  0  0  0  1  0  0  0  0  0  0
  1 10  1  6  0  0  0
  1  9  1  0  0  0  0
  2  3  1  0  0  0  0
  2  7  1  0  0  0  0
  4  3  1  1  0  0  0
  4  8  1  0  0  0  0
  4  1  1  0  0  0  0
  6  5  1  0  0  0  0
  7  8  1  0  0  0  0
  8  6  1  1  0  0  0
  9  5  1  0  0  0  0
 11 10  1  0  0  0  0
 12 11  1  0  0  0  0
 13 15  1  0  0  0  0
 14 16  1  0  0  0  0
 15 14  2  0  0  0  0
 15 19  1  0  0  0  0
 16 21  1  6  0  0  0
 16 17  1  0  0  0  0
 17 12  1  1  0  0  0
 18 17  1  0  0  0  0
 19 18  2  0  0  0  0
 20 14  1  0  0  0  0
 21 22  1  0  0  0  0
 24 19  1  0  0  0  0
 24 23  1  0  0  0  0
 25  7  1  0  0  0  0
 26 25  1  0  0  0  0
 27 28  1  0  0  0  0
 28 32  2  0  0  0  0
 29 31  1  0  0  0  0
 29 27  2  0  0  0  0
 30 32  1  0  0  0  0
 30 26  1  0  0  0  0
 31 30  2  0  0  0  0
 33 29  1  0  0  0  0
 34 35  2  0  0  0  0
 35 36  1  0  0  0  0
 35 27  1  0  0  0  0
M  END
>  <MODEL>
1

>  <REMARK>
 VINA RESULT:      -8.4      0.000      0.000
  Name = 
  10 active torsions:
  status: ('A' for Active; 'I' for Inactive)
    1  A    between atoms: C_1  and  C_12
    2  A    between atoms: C_3  and  C_14
    3  A    between atoms: C_6  and  C_17
    4  A    between atoms: C_12  and  C_28
    5  A    between atoms: C_16  and  O_18
    6  A    between atoms: O_18  and  C_30
    7  A    between atoms: O_21  and  C_29
    8  A    between atoms: N_23  and  C_30
    9  A    between atoms: C_24  and  C_33
   10  A    between atoms: C_28  and  C_33
                            x       y       z     vdW  Elec       q    Type
                         _______ _______ _______ _____ _____    ______ ____

>  <TORSDO>
F 10

$$$$
=
 OpenBabel11072413303D

 36 39  0  0  1  0  0  0  0  0999 V2000
  161.2400  207.4970  151.7320 C   0  0  2  0  0  3  0  0  0  0  0  0
  160.0530  210.6560  153.2660 C   0  0  0  0  0  2  0  0  0  0  0  0
  160.2550  209.7320  152.1190 C   0  0  0  0  0  2  0  0  0  0  0  0
  161.1170  208.7990  152.4720 C   0  0  1  0  0  3  0  0  0  0  0  0
  160.5160  206.6770  153.8930 O   0  0  0  0  0  0  0  0  0  0  0  0
  161.2720  207.5980  154.6490 C   0  0  0  0  0  2  0  0  0  0  0  0
  160.6360  209.9930  154.4390 N   0  0  0  0  0  0  0  0  0  0  0  0
  161.4900  208.9310  153.9050 C   0  0  2  0  0  3  0  0  0  0  0  0
  161.2890  206.3570  152.7570 C   0  0  0  0  0  2  0  0  0  0  0  0
  162.4980  207.4400  150.8710 C   0  0  0  0  0  2  0  0  0  0  0  0
  162.2120  207.6900  149.3960 C   0  0  0  0  0  2  0  0  0  0  0  0
  161.0470  206.8280  148.9290 C   0  0  0  0  0  2  0  0  0  0  0  0
  161.2360  201.1680  147.9960 C   0  0  0  0  0  1  0  0  0  0  0  0
  161.1540  203.4540  147.0810 C   0  0  0  0  0  0  0  0  0  0  0  0
  161.1430  202.6500  148.1540 C   0  0  0  0  0  0  0  0  0  0  0  0
  160.9760  204.9510  147.2430 C   0  0  1  0  0  3  0  0  0  0  0  0
  161.5250  205.4210  148.5990 C   0  0  2  0  0  3  0  0  0  0  0  0
  161.1500  204.5110  149.6820 N   0  0  0  0  0  0  0  0  0  0  0  0
  161.0150  203.2280  149.5070 C   0  0  0  0  0  0  0  0  0  0  0  0
  161.2660  202.9040  145.8050 O   0  0  0  0  0  1  0  0  0  0  0  0
  161.6820  205.7200  146.1290 C   0  0  0  0  0  2  0  0  0  0  0  0
  160.7510  206.3480  145.3030 O   0  0  0  0  0  1  0  0  0  0  0  0
  161.2810  202.6120  151.8830 C   0  0  0  0  0  1  0  0  0  0  0  0
  160.7340  202.3910  150.5900 O   0  0  0  0  0  0  0  0  0  0  0  0
  161.4670  210.9520  155.1750 C   0  0  0  0  0  2  0  0  0  0  0  0
  160.7800  211.4990  156.3030 O   0  0  0  0  0  0  0  0  0  0  0  0
  157.0110  213.3690  155.9850 C   0  0  0  0  0  0  0  0  0  0  0  0
  158.1780  213.9980  155.5230 C   0  0  0  0  0  3  0  0  0  0  0  0
  157.1160  212.0880  156.5720 C   0  0  0  0  0  0  0  0  0  0  0  0
  159.5220  212.1060  156.2120 C   0  0  0  0  0  0  0  0  0  0  0  0
  158.3640  211.4700  156.6810 C   0  0  0  0  0  3  0  0  0  0  0  0
  159.4210  213.3730  155.6360 C   0  0  0  0  0  3  0  0  0  0  0  0
  155.9950  211.4160  157.0470 O   0  0  0  0  0  1  0  0  0  0  0  0
  154.9740  214.4530  156.9510 O   0  0  0  0  0  1  0  0  0  0  0  0
  155.7150  214.0700  155.8380 C   0  0  0  0  0  0  0  0  0  0  0  0
  155.2650  214.3300  154.6900 O   0  0  0  0  0  0  0  0  0  0  0  0
  1 10  1  1  0  0  0
  1  4  1  0  0  0  0
  1  9  1  0  0  0  0
  2  7  1  0  0  0  0
  3  2  1  0  0  0  0
  4  3  1  1  0  0  0
  4  8  1  0  0  0  0
  5  6  1  0  0  0  0
  7 25  1  0  0  0  0
  8  7  1  0  0  0  0
  8  6  1  1  0  0  0
  9  5  1  0  0  0  0
 11 10  1  0  0  0  0
 12 11  1  0  0  0  0
 13 15  1  0  0  0  0
 14 16  1  0  0  0  0
 14 15  2  0  0  0  0
 15 19  1  0  0  0  0
 16 21  1  6  0  0  0
 16 17  1  0  0  0  0
 17 12  1  1  0  0  0
 17 18  1  0  0  0  0
 19 18  2  0  0  0  0
 19 24  1  0  0  0  0
 20 14  1  0  0  0  0
 22 21  1  0  0  0  0
 24 23  1  0  0  0  0
 25 26  1  0  0  0  0
 27 29  1  0  0  0  0
 28 32  1  0  0  0  0
 28 27  2  0  0  0  0
 29 31  2  0  0  0  0
 29 33  1  0  0  0  0
 30 26  1  0  0  0  0
 30 31  1  0  0  0  0
 32 30  2  0  0  0  0
 35 27  1  0  0  0  0
 35 34  1  0  0  0  0
 36 35  2  0  0  0  0
M  END
>  <MODEL>
2

>  <REMARK>
 VINA RESULT:      -7.7      3.886      9.796
  Name = 
  10 active torsions:
  status: ('A' for Active; 'I' for Inactive)
    1  A    between atoms: C_1  and  C_12
    2  A    between atoms: C_3  and  C_14
    3  A    between atoms: C_6  and  C_17
    4  A    between atoms: C_12  and  C_28
    5  A    between atoms: C_16  and  O_18
    6  A    between atoms: O_18  and  C_30
    7  A    between atoms: O_21  and  C_29
    8  A    between atoms: N_23  and  C_30
    9  A    between atoms: C_24  and  C_33
   10  A    between atoms: C_28  and  C_33
                            x       y       z     vdW  Elec       q    Type
                         _______ _______ _______ _____ _____    ______ ____

>  <TORSDO>
F 10

$$$$
=
 OpenBabel11072413303D

 36 39  0  0  1  0  0  0  0  0999 V2000
  160.6440  210.6860  153.2900 C   0  0  2  0  0  3  0  0  0  0  0  0
  162.3050  208.2090  151.0890 C   0  0  0  0  0  2  0  0  0  0  0  0
  161.8730  209.5850  151.4490 C   0  0  0  0  0  2  0  0  0  0  0  0
  160.9810  209.5110  152.4160 C   0  0  1  0  0  3  0  0  0  0  0  0
  161.5610  209.1820  154.9540 O   0  0  0  0  0  0  0  0  0  0  0  0
  160.9960  208.0110  154.4050 C   0  0  0  0  0  2  0  0  0  0  0  0
  161.8180  207.3300  152.1580 N   0  0  0  0  0  0  0  0  0  0  0  0
  160.8090  208.1090  152.8770 C   0  0  2  0  0  3  0  0  0  0  0  0
  160.6220  210.2160  154.7500 C   0  0  0  0  0  2  0  0  0  0  0  0
  159.2860  211.2900  152.9460 C   0  0  0  0  0  2  0  0  0  0  0  0
  159.4040  212.6130  152.2000 C   0  0  0  0  0  2  0  0  0  0  0  0
  158.2600  213.5410  152.5850 C   0  0  0  0  0  2  0  0  0  0  0  0
  156.1170  214.4030  147.3300 C   0  0  0  0  0  1  0  0  0  0  0  0
  155.7240  214.0980  149.7430 C   0  0  0  0  0  0  0  0  0  0  0  0
  156.5910  214.1370  148.7210 C   0  0  0  0  0  0  0  0  0  0  0  0
  156.2010  213.7450  151.1390 C   0  0  1  0  0  3  0  0  0  0  0  0
  157.6580  214.1860  151.3440 C   0  0  2  0  0  3  0  0  0  0  0  0
  158.4890  213.8760  150.1800 N   0  0  0  0  0  0  0  0  0  0  0  0
  158.0280  213.8940  148.9630 C   0  0  0  0  0  0  0  0  0  0  0  0
  154.3680  214.3180  149.5100 O   0  0  0  0  0  1  0  0  0  0  0  0
  155.3290  214.4010  152.2070 C   0  0  0  0  0  2  0  0  0  0  0  0
  154.6590  213.4330  152.9530 O   0  0  0  0  0  1  0  0  0  0  0  0
  160.0110  212.8130  147.9660 C   0  0  0  0  0  1  0  0  0  0  0  0
  158.8810  213.6690  147.8790 O   0  0  0  0  0  0  0  0  0  0  0  0
  161.1810  206.1500  151.5650 C   0  0  0  0  0  2  0  0  0  0  0  0
  161.2980  206.1400  150.1400 O   0  0  0  0  0  0  0  0  0  0  0  0
  161.0700  202.5860  147.8780 C   0  0  0  0  0  0  0  0  0  0  0  0
  160.7140  202.6090  149.2350 C   0  0  0  0  0  3  0  0  0  0  0  0
  161.5190  203.7800  147.2720 C   0  0  0  0  0  0  0  0  0  0  0  0
  161.2350  204.9690  149.3750 C   0  0  0  0  0  0  0  0  0  0  0  0
  161.5990  204.9570  148.0210 C   0  0  0  0  0  3  0  0  0  0  0  0
  160.7960  203.7890  149.9770 C   0  0  0  0  0  3  0  0  0  0  0  0
  161.8870  203.8170  145.9310 O   0  0  0  0  0  1  0  0  0  0  0  0
  161.5900  200.1560  147.5870 O   0  0  0  0  0  1  0  0  0  0  0  0
  160.9610  201.3110  147.1330 C   0  0  0  0  0  0  0  0  0  0  0  0
  160.2910  201.2580  146.0670 O   0  0  0  0  0  0  0  0  0  0  0  0
  1 10  1  6  0  0  0
  1  9  1  0  0  0  0
  2  3  1  0  0  0  0
  2  7  1  0  0  0  0
  4  3  1  1  0  0  0
  4  8  1  0  0  0  0
  4  1  1  0  0  0  0
  6  5  1  0  0  0  0
  7  8  1  0  0  0  0
  8  6  1  1  0  0  0
  9  5  1  0  0  0  0
 11 12  1  0  0  0  0
 11 10  1  0  0  0  0
 13 15  1  0  0  0  0
 14 16  1  0  0  0  0
 15 19  1  0  0  0  0
 15 14  2  0  0  0  0
 16 17  1  0  0  0  0
 16 21  1  1  0  0  0
 17 12  1  1  0  0  0
 18 17  1  0  0  0  0
 19 18  2  0  0  0  0
 20 14  1  0  0  0  0
 21 22  1  0  0  0  0
 24 23  1  0  0  0  0
 24 19  1  0  0  0  0
 25  7  1  0  0  0  0
 26 25  1  0  0  0  0
 27 28  1  0  0  0  0
 28 32  2  0  0  0  0
 29 27  2  0  0  0  0
 29 31  1  0  0  0  0
 30 32  1  0  0  0  0
 30 26  1  0  0  0  0
 31 30  2  0  0  0  0
 33 29  1  0  0  0  0
 35 34  1  0  0  0  0
 35 27  1  0  0  0  0
 36 35  2  0  0  0  0
M  END
>  <MODEL>
3

>  <REMARK>
 VINA RESULT:      -7.7      1.292      2.085
  Name = 
  10 active torsions:
  status: ('A' for Active; 'I' for Inactive)
    1  A    between atoms: C_1  and  C_12
    2  A    between atoms: C_3  and  C_14
    3  A    between atoms: C_6  and  C_17
    4  A    between atoms: C_12  and  C_28
    5  A    between atoms: C_16  and  O_18
    6  A    between atoms: O_18  and  C_30
    7  A    between atoms: O_21  and  C_29
    8  A    between atoms: N_23  and  C_30
    9  A    between atoms: C_24  and  C_33
   10  A    between atoms: C_28  and  C_33
                            x       y       z     vdW  Elec       q    Type
                         _______ _______ _______ _____ _____    ______ ____

>  <TORSDO>
F 10

$$$$
=
 OpenBabel11072413303D

 36 39  0  0  1  0  0  0  0  0999 V2000
  162.1640  208.3720  150.3130 C   0  0  2  0  0  3  0  0  0  0  0  0
  161.8820  206.3210  153.3870 C   0  0  0  0  0  2  0  0  0  0  0  0
  162.2310  206.5270  151.9570 C   0  0  0  0  0  2  0  0  0  0  0  0
  161.6910  207.6570  151.5460 C   0  0  1  0  0  3  0  0  0  0  0  0
  162.7010  210.0380  151.9890 O   0  0  0  0  0  0  0  0  0  0  0  0
  161.5450  209.8210  152.7700 C   0  0  0  0  0  2  0  0  0  0  0  0
  161.3500  207.6000  153.8710 N   0  0  0  0  0  0  0  0  0  0  0  0
  161.0300  208.3710  152.6690 C   0  0  2  0  0  3  0  0  0  0  0  0
  162.3150  209.8630  150.6430 C   0  0  0  0  0  2  0  0  0  0  0  0
  161.1900  208.2210  149.1490 C   0  0  0  0  0  2  0  0  0  0  0  0
  160.8000  206.7710  148.8940 C   0  0  0  0  0  2  0  0  0  0  0  0
  161.4600  206.2620  147.6200 C   0  0  0  0  0  2  0  0  0  0  0  0
  160.9580  200.6050  148.4540 C   0  0  0  0  0  1  0  0  0  0  0  0
  161.1040  202.5000  146.8860 C   0  0  0  0  0  0  0  0  0  0  0  0
  161.0420  202.0660  148.1530 C   0  0  0  0  0  0  0  0  0  0  0  0
  161.1060  203.9870  146.5850 C   0  0  1  0  0  3  0  0  0  0  0  0
  161.7580  204.7740  147.7330 C   0  0  2  0  0  3  0  0  0  0  0  0
  161.3230  204.2860  149.0420 N   0  0  0  0  0  0  0  0  0  0  0  0
  161.0350  203.0360  149.2660 C   0  0  0  0  0  0  0  0  0  0  0  0
  161.1020  201.5810  145.8380 O   0  0  0  0  0  1  0  0  0  0  0  0
  161.8520  204.2910  145.2880 C   0  0  0  0  0  2  0  0  0  0  0  0
  160.9970  204.8830  144.3600 O   0  0  0  0  0  1  0  0  0  0  0  0
  161.4220  203.0260  151.7050 C   0  0  0  0  0  1  0  0  0  0  0  0
  160.7020  202.6060  150.5540 O   0  0  0  0  0  0  0  0  0  0  0  0
  160.1170  207.3570  154.6280 C   0  0  0  0  0  2  0  0  0  0  0  0
  160.1230  208.0290  155.8900 O   0  0  0  0  0  0  0  0  0  0  0  0
  159.6540  212.2010  156.2960 C   0  0  0  0  0  0  0  0  0  0  0  0
  160.8180  211.5540  156.7360 C   0  0  0  0  0  3  0  0  0  0  0  0
  158.6240  211.4290  155.7140 C   0  0  0  0  0  0  0  0  0  0  0  0
  159.9470  209.4110  156.0220 C   0  0  0  0  0  0  0  0  0  0  0  0
  158.7770  210.0470  155.5830 C   0  0  0  0  0  3  0  0  0  0  0  0
  160.9630  210.1720  156.6010 C   0  0  0  0  0  3  0  0  0  0  0  0
  157.4480  212.0160  155.2600 O   0  0  0  0  0  1  0  0  0  0  0  0
  158.3660  214.3420  156.1730 O   0  0  0  0  0  0  0  0  0  0  0  0
  159.5490  213.6700  156.4570 C   0  0  0  0  0  0  0  0  0  0  0  0
  160.5430  214.3330  156.8570 O   0  0  0  0  0  1  0  0  0  0  0  0
  1 10  1  6  0  0  0
  1  9  1  0  0  0  0
  1  4  1  0  0  0  0
  2  7  1  0  0  0  0
  3  2  1  0  0  0  0
  4  3  1  1  0  0  0
  4  8  1  0  0  0  0
  5  6  1  0  0  0  0
  7 25  1  0  0  0  0
  8  6  1  1  0  0  0
  8  7  1  0  0  0  0
  9  5  1  0  0  0  0
 11 10  1  0  0  0  0
 12 11  1  0  0  0  0
 14 15  2  0  0  0  0
 15 13  1  0  0  0  0
 15 19  1  0  0  0  0
 16 21  1  6  0  0  0
 16 14  1  0  0  0  0
 16 17  1  0  0  0  0
 17 12  1  6  0  0  0
 17 18  1  0  0  0  0
 18 19  2  0  0  0  0
 19 24  1  0  0  0  0
 20 14  1  0  0  0  0
 22 21  1  0  0  0  0
 24 23  1  0  0  0  0
 25 26  1  0  0  0  0
 26 30  1  0  0  0  0
 27 35  1  0  0  0  0
 27 28  1  0  0  0  0
 29 27  2  0  0  0  0
 30 32  1  0  0  0  0
 31 29  1  0  0  0  0
 31 30  2  0  0  0  0
 32 28  2  0  0  0  0
 33 29  1  0  0  0  0
 34 35  2  0  0  0  0
 35 36  1  0  0  0  0
M  END
>  <MODEL>
4

>  <REMARK>
 VINA RESULT:      -7.7      3.998      9.504
  Name = 
  10 active torsions:
  status: ('A' for Active; 'I' for Inactive)
    1  A    between atoms: C_1  and  C_12
    2  A    between atoms: C_3  and  C_14
    3  A    between atoms: C_6  and  C_17
    4  A    between atoms: C_12  and  C_28
    5  A    between atoms: C_16  and  O_18
    6  A    between atoms: O_18  and  C_30
    7  A    between atoms: O_21  and  C_29
    8  A    between atoms: N_23  and  C_30
    9  A    between atoms: C_24  and  C_33
   10  A    between atoms: C_28  and  C_33
                            x       y       z     vdW  Elec       q    Type
                         _______ _______ _______ _____ _____    ______ ____

>  <TORSDO>
F 10

$$$$
=
 OpenBabel11072413303D

 36 39  0  0  1  0  0  0  0  0999 V2000
  161.6010  207.4190  150.1980 C   0  0  2  0  0  3  0  0  0  0  0  0
  161.5180  206.9880  153.8790 C   0  0  0  0  0  2  0  0  0  0  0  0
  161.6770  206.4890  152.4880 C   0  0  0  0  0  2  0  0  0  0  0  0
  161.2280  207.4050  151.6530 C   0  0  1  0  0  3  0  0  0  0  0  0
  162.5810  209.5210  150.8960 O   0  0  0  0  0  0  0  0  0  0  0  0
  161.5350  209.8740  151.7760 C   0  0  0  0  0  2  0  0  0  0  0  0
  161.2260  208.4220  153.7720 N   0  0  0  0  0  0  0  0  0  0  0  0
  160.8330  208.6400  152.3790 C   0  0  2  0  0  3  0  0  0  0  0  0
  161.9840  208.8520  149.8070 C   0  0  0  0  0  2  0  0  0  0  0  0
  160.4560  206.9530  149.3040 C   0  0  0  0  0  2  0  0  0  0  0  0
  160.8430  206.9040  147.8320 C   0  0  0  0  0  2  0  0  0  0  0  0
  162.2330  206.3050  147.6700 C   0  0  0  0  0  2  0  0  0  0  0  0
  160.3990  200.9120  148.3760 C   0  0  0  0  0  1  0  0  0  0  0  0
  161.0290  202.7420  146.8510 C   0  0  0  0  0  0  0  0  0  0  0  0
  160.8310  202.3160  148.1080 C   0  0  0  0  0  0  0  0  0  0  0  0
  161.3870  204.1910  146.5810 C   0  0  1  0  0  3  0  0  0  0  0  0
  162.1720  204.7870  147.7600 C   0  0  2  0  0  3  0  0  0  0  0  0
  161.5980  204.3960  149.0480 N   0  0  0  0  0  0  0  0  0  0  0  0
  161.0190  203.2460  149.2400 C   0  0  0  0  0  0  0  0  0  0  0  0
  160.8420  201.8640  145.7850 O   0  0  0  0  0  1  0  0  0  0  0  0
  162.2200  204.3300  145.3090 C   0  0  0  0  0  2  0  0  0  0  0  0
  161.5610  205.1320  144.3790 O   0  0  0  0  0  1  0  0  0  0  0  0
  161.4190  202.8150  151.6370 C   0  0  0  0  0  1  0  0  0  0  0  0
  160.5580  202.8880  150.5090 O   0  0  0  0  0  0  0  0  0  0  0  0
  160.0970  208.7540  154.6470 C   0  0  0  0  0  2  0  0  0  0  0  0
  160.0910  210.1370  155.0100 O   0  0  0  0  0  0  0  0  0  0  0  0
  156.7670  212.6610  154.3970 C   0  0  0  0  0  0  0  0  0  0  0  0
  156.7000  211.5710  155.2780 C   0  0  0  0  0  3  0  0  0  0  0  0
  157.9740  212.9030  153.7030 C   0  0  0  0  0  0  0  0  0  0  0  0
  158.9970  210.9820  154.7890 C   0  0  0  0  0  0  0  0  0  0  0  0
  159.0740  212.0650  153.9030 C   0  0  0  0  0  3  0  0  0  0  0  0
  157.8040  210.7390  155.4720 C   0  0  0  0  0  3  0  0  0  0  0  0
  158.0980  213.9680  152.8180 O   0  0  0  0  0  1  0  0  0  0  0  0
  155.1220  214.3380  155.2600 O   0  0  0  0  0  1  0  0  0  0  0  0
  155.5710  213.5180  154.2300 C   0  0  0  0  0  0  0  0  0  0  0  0
  154.9390  213.5130  153.1390 O   0  0  0  0  0  0  0  0  0  0  0  0
  1 10  1  6  0  0  0
  1  4  1  0  0  0  0
  3  2  1  0  0  0  0
  4  8  1  0  0  0  0
  4  3  1  1  0  0  0
  5  6  1  0  0  0  0
  7  2  1  0  0  0  0
  7 25  1  0  0  0  0
  8  6  1  6  0  0  0
  8  7  1  0  0  0  0
  9  1  1  0  0  0  0
  9  5  1  0  0  0  0
 11 10  1  0  0  0  0
 12 11  1  0  0  0  0
 14 15  2  0  0  0  0
 15 13  1  0  0  0  0
 15 19  1  0  0  0  0
 16 21  1  6  0  0  0
 16 14  1  0  0  0  0
 16 17  1  0  0  0  0
 17 12  1  6  0  0  0
 17 18  1  0  0  0  0
 18 19  2  0  0  0  0
 19 24  1  0  0  0  0
 20 14  1  0  0  0  0
 22 21  1  0  0  0  0
 24 23  1  0  0  0  0
 25 26  1  0  0  0  0
 27 28  1  0  0  0  0
 28 32  2  0  0  0  0
 29 31  1  0  0  0  0
 29 27  2  0  0  0  0
 30 26  1  0  0  0  0
 30 32  1  0  0  0  0
 31 30  2  0  0  0  0
 33 29  1  0  0  0  0
 35 27  1  0  0  0  0
 35 34  1  0  0  0  0
 36 35  2  0  0  0  0
M  END
>  <MODEL>
5

>  <REMARK>
 VINA RESULT:      -7.6      3.454      9.474
  Name = 
  10 active torsions:
  status: ('A' for Active; 'I' for Inactive)
    1  A    between atoms: C_1  and  C_12
    2  A    between atoms: C_3  and  C_14
    3  A    between atoms: C_6  and  C_17
    4  A    between atoms: C_12  and  C_28
    5  A    between atoms: C_16  and  O_18
    6  A    between atoms: O_18  and  C_30
    7  A    between atoms: O_21  and  C_29
    8  A    between atoms: N_23  and  C_30
    9  A    between atoms: C_24  and  C_33
   10  A    between atoms: C_28  and  C_33
                            x       y       z     vdW  Elec       q    Type
                         _______ _______ _______ _____ _____    ______ ____

>  <TORSDO>
F 10

$$$$
=
 OpenBabel11072413303D

 36 39  0  0  1  0  0  0  0  0999 V2000
  161.3400  206.8880  152.3960 C   0  0  2  0  0  3  0  0  0  0  0  0
  160.1540  210.3570  152.9400 C   0  0  0  0  0  2  0  0  0  0  0  0
  160.4620  209.1780  152.0890 C   0  0  0  0  0  2  0  0  0  0  0  0
  161.1960  208.3320  152.7830 C   0  0  1  0  0  3  0  0  0  0  0  0
  160.2480  206.6340  154.5430 O   0  0  0  0  0  0  0  0  0  0  0  0
  160.9430  207.6870  155.1760 C   0  0  0  0  0  2  0  0  0  0  0  0
  160.5090  209.9790  154.3130 N   0  0  0  0  0  0  0  0  0  0  0  0
  161.3590  208.7940  154.1860 C   0  0  2  0  0  3  0  0  0  0  0  0
  161.1580  206.0270  153.6530 C   0  0  0  0  0  2  0  0  0  0  0  0
  162.7060  206.5870  151.7870 C   0  0  0  0  0  2  0  0  0  0  0  0
  162.6110  206.0820  150.3530 C   0  0  0  0  0  2  0  0  0  0  0  0
  161.2130  206.3190  149.8000 C   0  0  0  0  0  2  0  0  0  0  0  0
  161.1050  201.7070  146.3850 C   0  0  0  0  0  1  0  0  0  0  0  0
  161.0570  202.6460  148.6630 C   0  0  0  0  0  0  0  0  0  0  0  0
  161.1710  202.8520  147.3420 C   0  0  0  0  0  0  0  0  0  0  0  0
  161.2070  203.8010  149.6340 C   0  0  1  0  0  3  0  0  0  0  0  0
  160.7500  205.1180  148.9890 C   0  0  2  0  0  3  0  0  0  0  0  0
  161.2290  205.2440  147.6120 N   0  0  0  0  0  0  0  0  0  0  0  0
  161.3850  204.2180  146.8250 C   0  0  0  0  0  0  0  0  0  0  0  0
  160.8640  201.3530  149.1480 O   0  0  0  0  0  1  0  0  0  0  0  0
  160.3990  203.5650  150.9070 C   0  0  0  0  0  2  0  0  0  0  0  0
  161.2130  203.0470  151.9140 O   0  0  0  0  0  1  0  0  0  0  0  0
  161.2530  205.4520  144.6910 C   0  0  0  0  0  1  0  0  0  0  0  0
  161.7680  204.3990  145.4930 O   0  0  0  0  0  0  0  0  0  0  0  0
  161.2840  211.0610  154.9290 C   0  0  0  0  0  2  0  0  0  0  0  0
  160.5610  211.7010  155.9840 O   0  0  0  0  0  0  0  0  0  0  0  0
  156.7060  213.3370  155.4690 C   0  0  0  0  0  0  0  0  0  0  0  0
  157.8480  214.1530  155.4800 C   0  0  0  0  0  3  0  0  0  0  0  0
  156.8640  211.9430  155.6420 C   0  0  0  0  0  0  0  0  0  0  0  0
  159.2740  212.2260  155.8210 C   0  0  0  0  0  0  0  0  0  0  0  0
  158.1400  211.4020  155.8170 C   0  0  0  0  0  3  0  0  0  0  0  0
  159.1190  213.6030  155.6550 C   0  0  0  0  0  3  0  0  0  0  0  0
  155.7700  211.0850  155.6410 O   0  0  0  0  0  1  0  0  0  0  0  0
  154.8000  214.0480  154.0140 O   0  0  0  0  0  0  0  0  0  0  0  0
  155.3800  213.9660  155.2750 C   0  0  0  0  0  0  0  0  0  0  0  0
  154.7560  214.4400  156.2620 O   0  0  0  0  0  1  0  0  0  0  0  0
  1 10  1  1  0  0  0
  1  4  1  0  0  0  0
  1  9  1  0  0  0  0
  2  7  1  0  0  0  0
  3  2  1  0  0  0  0
  4  3  1  1  0  0  0
  4  8  1  0  0  0  0
  5  6  1  0  0  0  0
  7 25  1  0  0  0  0
  8  7  1  0  0  0  0
  8  6  1  1  0  0  0
  9  5  1  0  0  0  0
 11 10  1  0  0  0  0
 12 11  1  0  0  0  0
 13 15  1  0  0  0  0
 14 20  1  0  0  0  0
 14 16  1  0  0  0  0
 15 14  2  0  0  0  0
 16 21  1  1  0  0  0
 17 16  1  0  0  0  0
 17 12  1  1  0  0  0
 18 17  1  0  0  0  0
 19 15  1  0  0  0  0
 19 18  2  0  0  0  0
 21 22  1  0  0  0  0
 23 24  1  0  0  0  0
 24 19  1  0  0  0  0
 25 26  1  0  0  0  0
 27 28  2  0  0  0  0
 27 29  1  0  0  0  0
 28 32  1  0  0  0  0
 29 31  2  0  0  0  0
 30 26  1  0  0  0  0
 31 30  1  0  0  0  0
 32 30  2  0  0  0  0
 33 29  1  0  0  0  0
 34 35  2  0  0  0  0
 35 27  1  0  0  0  0
 35 36  1  0  0  0  0
M  END
>  <MODEL>
6

>  <REMARK>
 VINA RESULT:      -7.5      4.078      9.727
  Name = 
  10 active torsions:
  status: ('A' for Active; 'I' for Inactive)
    1  A    between atoms: C_1  and  C_12
    2  A    between atoms: C_3  and  C_14
    3  A    between atoms: C_6  and  C_17
    4  A    between atoms: C_12  and  C_28
    5  A    between atoms: C_16  and  O_18
    6  A    between atoms: O_18  and  C_30
    7  A    between atoms: O_21  and  C_29
    8  A    between atoms: N_23  and  C_30
    9  A    between atoms: C_24  and  C_33
   10  A    between atoms: C_28  and  C_33
                            x       y       z     vdW  Elec       q    Type
                         _______ _______ _______ _____ _____    ______ ____

>  <TORSDO>
F 10

$$$$
=
 OpenBabel11072413303D

 36 39  0  0  1  0  0  0  0  0999 V2000
  160.9620  206.8510  153.1390 C   0  0  2  0  0  3  0  0  0  0  0  0
  160.2510  210.4880  153.0980 C   0  0  0  0  0  2  0  0  0  0  0  0
  160.4550  209.1690  152.4450 C   0  0  0  0  0  2  0  0  0  0  0  0
  160.9980  208.3420  153.3160 C   0  0  1  0  0  3  0  0  0  0  0  0
  159.6700  207.0560  155.1780 O   0  0  0  0  0  0  0  0  0  0  0  0
  160.4560  208.0880  155.7340 C   0  0  0  0  0  2  0  0  0  0  0  0
  160.4330  210.2690  154.5380 N   0  0  0  0  0  0  0  0  0  0  0  0
  161.1090  208.9760  154.6550 C   0  0  2  0  0  3  0  0  0  0  0  0
  160.5530  206.2120  154.4730 C   0  0  0  0  0  2  0  0  0  0  0  0
  162.3160  206.2870  152.7180 C   0  0  0  0  0  2  0  0  0  0  0  0
  162.1880  205.0970  151.7750 C   0  0  0  0  0  2  0  0  0  0  0  0
  161.0340  205.3100  150.8070 C   0  0  0  0  0  2  0  0  0  0  0  0
  161.2750  203.8560  145.2590 C   0  0  0  0  0  1  0  0  0  0  0  0
  160.9450  205.5990  146.9700 C   0  0  0  0  0  0  0  0  0  0  0  0
  161.1540  204.3060  146.6780 C   0  0  0  0  0  0  0  0  0  0  0  0
  160.7390  206.0360  148.4080 C   0  0  1  0  0  3  0  0  0  0  0  0
  161.5000  205.1130  149.3710 C   0  0  2  0  0  3  0  0  0  0  0  0
  161.3580  203.7040  149.0000 N   0  0  0  0  0  0  0  0  0  0  0  0
  161.2440  203.3100  147.7650 C   0  0  0  0  0  0  0  0  0  0  0  0
  160.8510  206.5350  145.9400 O   0  0  0  0  0  1  0  0  0  0  0  0
  161.2080  207.4730  148.6240 C   0  0  0  0  0  2  0  0  0  0  0  0
  162.5920  207.5170  148.7840 O   0  0  0  0  0  1  0  0  0  0  0  0
  160.9070  200.9590  148.4360 C   0  0  0  0  0  1  0  0  0  0  0  0
  161.1920  201.9480  147.4570 O   0  0  0  0  0  0  0  0  0  0  0  0
  161.3020  211.3170  155.0830 C   0  0  0  0  0  2  0  0  0  0  0  0
  160.6510  212.0720  156.1070 O   0  0  0  0  0  0  0  0  0  0  0  0
  156.7090  213.5240  155.7230 C   0  0  0  0  0  0  0  0  0  0  0  0
  157.8050  214.2620  155.2520 C   0  0  0  0  0  3  0  0  0  0  0  0
  156.9430  212.2760  156.3430 C   0  0  0  0  0  0  0  0  0  0  0  0
  159.3370  212.5400  155.9950 C   0  0  0  0  0  0  0  0  0  0  0  0
  158.2490  211.7970  156.4740 C   0  0  0  0  0  3  0  0  0  0  0  0
  159.1070  213.7750  155.3870 C   0  0  0  0  0  3  0  0  0  0  0  0
  155.8960  211.5020  156.8300 O   0  0  0  0  0  1  0  0  0  0  0  0
  154.7730  214.2050  154.2920 O   0  0  0  0  0  0  0  0  0  0  0  0
  155.3470  214.0810  155.5520 C   0  0  0  0  0  0  0  0  0  0  0  0
  154.6870  214.4530  156.5590 O   0  0  0  0  0  1  0  0  0  0  0  0
  1 10  1  1  0  0  0
  1  4  1  0  0  0  0
  1  9  1  0  0  0  0
  2  7  1  0  0  0  0
  3  2  1  0  0  0  0
  4  3  1  1  0  0  0
  4  8  1  0  0  0  0
  5  6  1  0  0  0  0
  7  8  1  0  0  0  0
  7 25  1  0  0  0  0
  8  6  1  1  0  0  0
  9  5  1  0  0  0  0
 11 10  1  0  0  0  0
 12 11  1  0  0  0  0
 13 15  1  0  0  0  0
 14 16  1  0  0  0  0
 15 14  2  0  0  0  0
 15 19  1  0  0  0  0
 16 21  1  6  0  0  0
 16 17  1  0  0  0  0
 17 12  1  1  0  0  0
 18 17  1  0  0  0  0
 19 18  2  0  0  0  0
 20 14  1  0  0  0  0
 21 22  1  0  0  0  0
 24 19  1  0  0  0  0
 24 23  1  0  0  0  0
 25 26  1  0  0  0  0
 27 29  1  0  0  0  0
 28 32  1  0  0  0  0
 28 27  2  0  0  0  0
 29 31  2  0  0  0  0
 29 33  1  0  0  0  0
 30 26  1  0  0  0  0
 30 31  1  0  0  0  0
 32 30  2  0  0  0  0
 34 35  2  0  0  0  0
 35 27  1  0  0  0  0
 35 36  1  0  0  0  0
M  END
>  <MODEL>
7

>  <REMARK>
 VINA RESULT:      -7.5      3.820      9.577
  Name = 
  10 active torsions:
  status: ('A' for Active; 'I' for Inactive)
    1  A    between atoms: C_1  and  C_12
    2  A    between atoms: C_3  and  C_14
    3  A    between atoms: C_6  and  C_17
    4  A    between atoms: C_12  and  C_28
    5  A    between atoms: C_16  and  O_18
    6  A    between atoms: O_18  and  C_30
    7  A    between atoms: O_21  and  C_29
    8  A    between atoms: N_23  and  C_30
    9  A    between atoms: C_24  and  C_33
   10  A    between atoms: C_28  and  C_33
                            x       y       z     vdW  Elec       q    Type
                         _______ _______ _______ _____ _____    ______ ____

>  <TORSDO>
F 10

$$$$
=
 OpenBabel11072413303D

 36 39  0  0  1  0  0  0  0  0999 V2000
  161.8000  208.0210  151.6260 C   0  0  2  0  0  3  0  0  0  0  0  0
  160.9270  207.3310  155.1620 C   0  0  0  0  0  2  0  0  0  0  0  0
  161.3480  206.9250  153.7950 C   0  0  0  0  0  2  0  0  0  0  0  0
  161.1300  207.9270  152.9670 C   0  0  1  0  0  3  0  0  0  0  0  0
  162.7170  209.9970  152.6860 O   0  0  0  0  0  0  0  0  0  0  0  0
  161.5290  210.3540  153.3600 C   0  0  0  0  0  2  0  0  0  0  0  0
  160.7370  208.7860  155.1200 N   0  0  0  0  0  0  0  0  0  0  0  0
  160.6550  209.1300  153.7000 C   0  0  2  0  0  3  0  0  0  0  0  0
  162.3280  209.4500  151.4450 C   0  0  0  0  0  2  0  0  0  0  0  0
  160.8450  207.7000  150.4810 C   0  0  0  0  0  2  0  0  0  0  0  0
  161.5540  207.0830  149.2810 C   0  0  0  0  0  2  0  0  0  0  0  0
  161.9520  205.6450  149.5840 C   0  0  0  0  0  2  0  0  0  0  0  0
  160.5310  201.5480  145.8230 C   0  0  0  0  0  1  0  0  0  0  0  0
  160.8210  202.2500  148.1680 C   0  0  0  0  0  0  0  0  0  0  0  0
  160.9260  202.5450  146.8630 C   0  0  0  0  0  0  0  0  0  0  0  0
  161.3010  203.2350  149.2170 C   0  0  1  0  0  3  0  0  0  0  0  0
  161.1650  204.6790  148.7110 C   0  0  2  0  0  3  0  0  0  0  0  0
  161.6000  204.8110  147.3200 N   0  0  0  0  0  0  0  0  0  0  0  0
  161.4570  203.8580  146.4450 C   0  0  0  0  0  0  0  0  0  0  0  0
  160.3280  201.0060  148.5590 O   0  0  0  0  0  1  0  0  0  0  0  0
  160.5160  203.0880  150.5180 C   0  0  0  0  0  2  0  0  0  0  0  0
  161.3220  202.5440  151.5170 O   0  0  0  0  0  1  0  0  0  0  0  0
  161.2080  205.0640  144.3050 C   0  0  0  0  0  1  0  0  0  0  0  0
  161.8150  204.0630  145.1100 O   0  0  0  0  0  0  0  0  0  0  0  0
  159.4680  209.1290  155.7700 C   0  0  0  0  0  2  0  0  0  0  0  0
  159.3770  210.5250  156.0640 O   0  0  0  0  0  0  0  0  0  0  0  0
  156.4710  213.0320  154.3130 C   0  0  0  0  0  0  0  0  0  0  0  0
  157.5000  212.4640  153.5460 C   0  0  0  0  0  3  0  0  0  0  0  0
  156.4230  212.7570  155.6980 C   0  0  0  0  0  0  0  0  0  0  0  0
  158.4080  211.3640  155.5020 C   0  0  0  0  0  0  0  0  0  0  0  0
  157.3880  211.9300  156.2800 C   0  0  0  0  0  3  0  0  0  0  0  0
  158.4600  211.6390  154.1350 C   0  0  0  0  0  3  0  0  0  0  0  0
  155.4280  213.2920  156.5080 O   0  0  0  0  0  1  0  0  0  0  0  0
  155.6520  214.3140  152.3270 O   0  0  0  0  0  0  0  0  0  0  0  0
  155.4740  213.8970  153.6420 C   0  0  0  0  0  0  0  0  0  0  0  0
  154.4430  214.2700  154.2630 O   0  0  0  0  0  1  0  0  0  0  0  0
  1 10  1  6  0  0  0
  1  4  1  0  0  0  0
  3  2  1  0  0  0  0
  4  8  1  0  0  0  0
  4  3  1  1  0  0  0
  5  6  1  0  0  0  0
  7  2  1  0  0  0  0
  7 25  1  0  0  0  0
  8  6  1  1  0  0  0
  8  7  1  0  0  0  0
  9  1  1  0  0  0  0
  9  5  1  0  0  0  0
 11 12  1  0  0  0  0
 11 10  1  0  0  0  0
 13 15  1  0  0  0  0
 14 20  1  0  0  0  0
 14 16  1  0  0  0  0
 15 14  2  0  0  0  0
 16 21  1  1  0  0  0
 17 16  1  0  0  0  0
 17 12  1  1  0  0  0
 18 17  1  0  0  0  0
 19 15  1  0  0  0  0
 19 18  2  0  0  0  0
 21 22  1  0  0  0  0
 23 24  1  0  0  0  0
 24 19  1  0  0  0  0
 25 26  1  0  0  0  0
 27 29  1  0  0  0  0
 28 32  1  0  0  0  0
 28 27  2  0  0  0  0
 29 31  2  0  0  0  0
 29 33  1  0  0  0  0
 30 26  1  0  0  0  0
 30 31  1  0  0  0  0
 32 30  2  0  0  0  0
 34 35  2  0  0  0  0
 35 36  1  0  0  0  0
 35 27  1  0  0  0  0
M  END
>  <MODEL>
8

>  <REMARK>
 VINA RESULT:      -7.3      3.675      9.644
  Name = 
  10 active torsions:
  status: ('A' for Active; 'I' for Inactive)
    1  A    between atoms: C_1  and  C_12
    2  A    between atoms: C_3  and  C_14
    3  A    between atoms: C_6  and  C_17
    4  A    between atoms: C_12  and  C_28
    5  A    between atoms: C_16  and  O_18
    6  A    between atoms: O_18  and  C_30
    7  A    between atoms: O_21  and  C_29
    8  A    between atoms: N_23  and  C_30
    9  A    between atoms: C_24  and  C_33
   10  A    between atoms: C_28  and  C_33
                            x       y       z     vdW  Elec       q    Type
                         _______ _______ _______ _____ _____    ______ ____

>  <TORSDO>
F 10

$$$$
=
 OpenBabel11072413303D

 36 39  0  0  1  0  0  0  0  0999 V2000
  161.1910  208.7550  153.4210 C   0  0  2  0  0  3  0  0  0  0  0  0
  162.5070  208.9720  149.9630 C   0  0  0  0  0  2  0  0  0  0  0  0
  162.2190  209.5290  151.3110 C   0  0  0  0  0  2  0  0  0  0  0  0
  161.3760  208.7290  151.9310 C   0  0  1  0  0  3  0  0  0  0  0  0
  162.0540  206.5080  153.1520 O   0  0  0  0  0  0  0  0  0  0  0  0
  161.3590  206.2380  151.9530 C   0  0  0  0  0  2  0  0  0  0  0  0
  162.0000  207.5940  149.9690 N   0  0  0  0  0  0  0  0  0  0  0  0
  161.1030  207.5120  151.1220 C   0  0  2  0  0  3  0  0  0  0  0  0
  161.2030  207.3110  153.9390 C   0  0  0  0  0  2  0  0  0  0  0  0
  159.8760  209.4140  153.8280 C   0  0  0  0  0  2  0  0  0  0  0  0
  159.6400  210.7410  153.1180 C   0  0  0  0  0  2  0  0  0  0  0  0
  159.9810  211.9030  154.0410 C   0  0  0  0  0  2  0  0  0  0  0  0
  154.8880  214.4530  153.3300 C   0  0  0  0  0  1  0  0  0  0  0  0
  156.3350  212.9690  154.6620 C   0  0  0  0  0  0  0  0  0  0  0  0
  156.1680  213.7200  153.5630 C   0  0  0  0  0  0  0  0  0  0  0  0
  157.6050  212.1620  154.8520 C   0  0  1  0  0  3  0  0  0  0  0  0
  158.7950  212.8490  154.1660 C   0  0  2  0  0  3  0  0  0  0  0  0
  158.4370  213.3610  152.8430 N   0  0  0  0  0  0  0  0  0  0  0  0
  157.2480  213.8090  152.5600 C   0  0  0  0  0  0  0  0  0  0  0  0
  155.3100  212.8800  155.6030 O   0  0  0  0  0  1  0  0  0  0  0  0
  157.9280  211.9730  156.3330 C   0  0  0  0  0  2  0  0  0  0  0  0
  158.2060  213.2000  156.9330 O   0  0  0  0  0  1  0  0  0  0  0  0
  156.9310  213.5770  150.1230 C   0  0  0  0  0  1  0  0  0  0  0  0
  156.9790  214.3630  151.3060 O   0  0  0  0  0  0  0  0  0  0  0  0
  161.2300  207.3550  148.7440 C   0  0  0  0  0  2  0  0  0  0  0  0
  161.9800  206.6170  147.7770 O   0  0  0  0  0  0  0  0  0  0  0  0
  161.1050  202.6490  146.6420 C   0  0  0  0  0  0  0  0  0  0  0  0
  161.6020  203.5780  145.7160 C   0  0  0  0  0  3  0  0  0  0  0  0
  160.8910  203.0650  147.9760 C   0  0  0  0  0  0  0  0  0  0  0  0
  161.6780  205.2990  147.4180 C   0  0  0  0  0  0  0  0  0  0  0  0
  161.1760  204.3800  148.3510 C   0  0  0  0  0  3  0  0  0  0  0  0
  161.8850  204.8900  146.0990 C   0  0  0  0  0  3  0  0  0  0  0  0
  160.3990  202.1890  148.9370 O   0  0  0  0  0  1  0  0  0  0  0  0
  159.8020  201.0000  145.2850 O   0  0  0  0  0  0  0  0  0  0  0  0
  160.8250  201.2680  146.1880 C   0  0  0  0  0  0  0  0  0  0  0  0
  161.5180  200.3090  146.6220 O   0  0  0  0  0  1  0  0  0  0  0  0
  1 10  1  6  0  0  0
  1  9  1  0  0  0  0
  2  7  1  0  0  0  0
  2  3  1  0  0  0  0
  4  3  1  1  0  0  0
  4  1  1  0  0  0  0
  5  9  1  0  0  0  0
  6  5  1  0  0  0  0
  7  8  1  0  0  0  0
  8  4  1  0  0  0  0
  8  6  1  1  0  0  0
 11 10  1  0  0  0  0
 11 12  1  0  0  0  0
 13 15  1  0  0  0  0
 14 16  1  0  0  0  0
 14 20  1  0  0  0  0
 15 14  2  0  0  0  0
 16 21  1  1  0  0  0
 17 12  1  6  0  0  0
 17 16  1  0  0  0  0
 18 17  1  0  0  0  0
 19 18  2  0  0  0  0
 19 15  1  0  0  0  0
 21 22  1  0  0  0  0
 23 24  1  0  0  0  0
 24 19  1  0  0  0  0
 25  7  1  0  0  0  0
 26 25  1  0  0  0  0
 27 29  1  0  0  0  0
 28 32  1  0  0  0  0
 28 27  2  0  0  0  0
 29 31  2  0  0  0  0
 29 33  1  0  0  0  0
 30 26  1  0  0  0  0
 30 31  1  0  0  0  0
 32 30  2  0  0  0  0
 34 35  2  0  0  0  0
 35 36  1  0  0  0  0
 35 27  1  0  0  0  0
M  END
>  <MODEL>
9

>  <REMARK>
 VINA RESULT:      -7.2      2.684      4.704
  Name = 
  10 active torsions:
  status: ('A' for Active; 'I' for Inactive)
    1  A    between atoms: C_1  and  C_12
    2  A    between atoms: C_3  and  C_14
    3  A    between atoms: C_6  and  C_17
    4  A    between atoms: C_12  and  C_28
    5  A    between atoms: C_16  and  O_18
    6  A    between atoms: O_18  and  C_30
    7  A    between atoms: O_21  and  C_29
    8  A    between atoms: N_23  and  C_30
    9  A    between atoms: C_24  and  C_33
   10  A    between atoms: C_28  and  C_33
                            x       y       z     vdW  Elec       q    Type
                         _______ _______ _______ _____ _____    ______ ____

>  <TORSDO>
F 10

$$$$
