=
 OpenBabel11072412533D

 41 45  0  0  1  0  0  0  0  0999 V2000
  160.4560  208.7520  153.5000 N   0  0  0  0  0  2  0  0  0  0  0  0
  160.8710  208.2640  154.6110 C   0  0  0  0  0  0  0  0  0  0  0  0
  161.0290  209.1710  155.8100 C   0  0  1  0  0  0  0  0  0  0  0  0
  160.0000  208.9590  156.7320 O   0  0  0  0  0  1  0  0  0  0  0  0
  162.2320  208.8720  156.4250 F   0  0  0  0  0  0  0  0  0  0  0  0
  161.0540  210.6430  155.3770 C   0  0  2  0  0  3  0  0  0  0  0  0
  162.3450  211.1480  155.3720 F   0  0  0  0  0  0  0  0  0  0  0  0
  160.0820  211.5470  156.1490 C   0  0  0  0  0  2  0  0  0  0  0  0
  159.7130  213.9310  155.7450 C   0  0  0  0  0  2  0  0  0  0  0  0
  159.5220  212.6790  155.3320 C   0  0  0  0  0  0  0  0  0  0  0  0
  158.5320  213.7250  153.2590 C   0  0  0  0  0  0  0  0  0  0  0  0
  157.9970  213.8130  151.8210 C   0  0  0  0  0  2  0  0  0  0  0  0
  157.5200  212.6650  153.7350 C   0  0  1  0  0  3  0  0  0  0  0  0
  159.4310  213.5720  152.0220 C   0  0  0  0  0  2  0  0  0  0  0  0
  158.9850  212.4200  153.9420 C   0  0  2  0  0  3  0  0  0  0  0  0
  156.3520  214.3020  155.0180 O   0  0  0  0  0  0  0  0  0  0  0  0
  156.7260  213.1410  154.9410 C   0  0  0  0  0  0  0  0  0  0  0  0
  156.3340  212.1970  156.0430 C   0  0  0  0  0  2  0  0  0  0  0  0
  154.9550  210.1480  155.9670 C   0  0  0  0  0  2  0  0  0  0  0  0
  155.2380  210.5690  154.5420 C   0  0  0  0  0  2  0  0  0  0  0  0
  156.3020  210.7410  155.6060 C   0  0  0  0  0  3  0  0  0  0  0  0
  161.3380  206.8380  154.6490 C   0  0  0  0  0  2  0  0  0  0  0  0
  162.3800  205.5380  151.1550 C   0  0  1  0  0  3  0  0  0  0  0  0
  160.5440  204.0650  152.1080 C   0  0  0  0  0  2  0  0  0  0  0  0
  162.4760  206.2550  152.5150 C   0  0  0  0  0  2  0  0  0  0  0  0
  161.8410  204.1060  151.3010 C   0  0  0  0  0  2  0  0  0  0  0  0
  161.1660  206.1720  153.2950 C   0  0  1  0  0  3  0  0  0  0  0  0
  160.7530  204.7140  153.4700 C   0  0  0  0  0  2  0  0  0  0  0  0
  160.3440  205.7990  149.6900 C   0  0  0  0  0  1  0  0  0  0  0  0
  162.0160  208.8390  149.4660 C   0  0  0  0  0  2  0  0  0  0  0  0
  162.1670  207.0400  147.7610 C   0  0  2  0  0  3  0  0  0  0  0  0
  161.7330  206.3540  150.0120 C   0  0  2  0  0  0  0  0  0  0  0  0
  162.5920  206.2610  148.8770 O   0  0  0  0  0  0  0  0  0  0  0  0
  161.5340  208.3950  148.1040 C   0  0  0  0  0  2  0  0  0  0  0  0
  161.5870  207.8100  150.5030 C   0  0  0  0  0  2  0  0  0  0  0  0
  160.4000  206.6670  146.2520 O   0  0  0  0  0  0  0  0  0  0  0  0
  161.4210  206.2120  146.7430 C   0  0  0  0  0  0  0  0  0  0  0  0
  161.0460  204.0450  144.9320 O   0  0  0  0  0  0  0  0  0  0  0  0
  163.4170  204.5830  145.8930 O   0  0  0  0  0  1  0  0  0  0  0  0
  161.7200  203.4830  147.5480 O   0  0  0  0  0  1  0  0  0  0  0  0
  161.9510  204.5590  146.2640 P   0  0  0  0  0  0  0  0  0  0  0  0
  1  2  2  0  0  0  0
  2 22  1  0  0  0  0
  2  3  1  0  0  0  0
  3  5  1  1  0  0  0
  3  4  1  0  0  0  0
  6  7  1  1  0  0  0
  6  3  1  0  0  0  0
  6  8  1  0  0  0  0
 10  9  2  0  0  0  0
 10  8  1  0  0  0  0
 11 13  1  0  0  0  0
 11 15  1  0  0  0  0
 12 14  1  0  0  0  0
 12 11  1  0  0  0  0
 13 15  1  0  0  0  0
 13 17  1  1  0  0  0
 14 11  1  0  0  0  0
 15 10  1  1  0  0  0
 17 16  2  0  0  0  0
 17 18  1  0  0  0  0
 20 21  1  0  0  0  0
 20 19  1  0  0  0  0
 21 19  1  0  0  0  0
 21 18  1  0  0  0  0
 23 26  1  1  0  0  0
 23 25  1  0  0  0  0
 24 28  1  0  0  0  0
 25 27  1  0  0  0  0
 26 24  1  0  0  0  0
 27 28  1  0  0  0  0
 27 22  1  1  0  0  0
 30 35  1  0  0  0  0
 31 37  1  1  0  0  0
 31 34  1  0  0  0  0
 31 33  1  0  0  0  0
 32 29  1  6  0  0  0
 32 35  1  0  0  0  0
 32 23  1  0  0  0  0
 33 32  1  0  0  0  0
 34 30  1  0  0  0  0
 36 37  2  0  0  0  0
 38 41  2  0  0  0  0
 39 41  1  0  0  0  0
 41 37  1  0  0  0  0
 41 40  1  0  0  0  0
M  END
>  <MODEL>
1

>  <REMARK>
 VINA RESULT:      -6.5      0.000      0.000
  Name = 
  13 active torsions:
  status: ('A' for Active; 'I' for Inactive)
    1  A    between atoms: C_4  and  C_24
    2  A    between atoms: C_6  and  C_16
    3  A    between atoms: C_6  and  C_34
    4  A    between atoms: C_10  and  C_30
    5  A    between atoms: C_16  and  C_27
    6  A    between atoms: C_19  and  C_32
    7  A    between atoms: C_19  and  C_34
    8  A    between atoms: C_20  and  C_21
    9  A    between atoms: C_20  and  C_25
   10  A    between atoms: C_21  and  C_29
   11  A    between atoms: C_27  and  C_36
   12  A    between atoms: C_30  and  P_40
   13  A    between atoms: C_36  and  C_37
                            x       y       z     vdW  Elec       q    Type
                         _______ _______ _______ _____ _____    ______ ____

>  <TORSDO>
F 13

$$$$
=
 OpenBabel11072412533D

 41 45  0  0  1  0  0  0  0  0999 V2000
  160.8410  208.9450  153.4540 N   0  0  0  0  0  2  0  0  0  0  0  0
  160.8510  208.2080  154.5030 C   0  0  0  0  0  0  0  0  0  0  0  0
  160.3260  208.7620  155.8070 C   0  0  1  0  0  0  0  0  0  0  0  0
  159.0040  208.3600  156.0220 O   0  0  0  0  0  1  0  0  0  0  0  0
  161.1050  208.2610  156.8370 F   0  0  0  0  0  0  0  0  0  0  0  0
  160.4210  210.2930  155.8240 C   0  0  2  0  0  3  0  0  0  0  0  0
  161.7000  210.7180  156.1440 F   0  0  0  0  0  0  0  0  0  0  0  0
  159.3500  210.9860  156.6790 C   0  0  0  0  0  2  0  0  0  0  0  0
  159.7210  213.1900  155.6850 C   0  0  0  0  0  2  0  0  0  0  0  0
  158.8420  212.2750  156.0950 C   0  0  0  0  0  0  0  0  0  0  0  0
  156.8150  211.1310  155.1180 C   0  0  0  0  0  0  0  0  0  0  0  0
  155.3490  210.9340  154.7030 C   0  0  0  0  0  2  0  0  0  0  0  0
  157.0440  212.4010  154.2760 C   0  0  1  0  0  3  0  0  0  0  0  0
  155.6760  210.9570  156.1340 C   0  0  0  0  0  2  0  0  0  0  0  0
  157.3810  212.4240  155.7370 C   0  0  2  0  0  3  0  0  0  0  0  0
  158.6220  211.1250  153.0230 O   0  0  0  0  0  0  0  0  0  0  0  0
  158.2040  212.2370  153.3070 C   0  0  0  0  0  0  0  0  0  0  0  0
  158.8350  213.4230  152.6330 C   0  0  0  0  0  2  0  0  0  0  0  0
  158.6570  214.4490  150.3910 C   0  0  0  0  0  2  0  0  0  0  0  0
  157.7120  213.2690  150.4360 C   0  0  0  0  0  2  0  0  0  0  0  0
  157.9010  214.1340  151.6660 C   0  0  0  0  0  3  0  0  0  0  0  0
  161.5270  206.8690  154.4440 C   0  0  0  0  0  2  0  0  0  0  0  0
  162.3100  205.4050  150.9470 C   0  0  1  0  0  3  0  0  0  0  0  0
  160.4410  204.0760  152.0360 C   0  0  0  0  0  2  0  0  0  0  0  0
  162.5180  206.1540  152.2760 C   0  0  0  0  0  2  0  0  0  0  0  0
  161.6950  204.0130  151.1660 C   0  0  0  0  0  2  0  0  0  0  0  0
  161.2460  206.1750  153.1220 C   0  0  1  0  0  3  0  0  0  0  0  0
  160.7570  204.7500  153.3650 C   0  0  0  0  0  2  0  0  0  0  0  0
  160.2600  205.6770  149.5040 C   0  0  0  0  0  1  0  0  0  0  0  0
  161.9460  208.7080  149.2620 C   0  0  0  0  0  2  0  0  0  0  0  0
  162.0690  206.9090  147.5560 C   0  0  2  0  0  3  0  0  0  0  0  0
  161.6550  206.2240  149.8110 C   0  0  2  0  0  0  0  0  0  0  0  0
  162.5010  206.1270  148.6670 O   0  0  0  0  0  0  0  0  0  0  0  0
  161.4470  208.2670  147.9060 C   0  0  0  0  0  2  0  0  0  0  0  0
  161.5230  207.6810  150.3030 C   0  0  0  0  0  2  0  0  0  0  0  0
  160.3020  206.5590  146.0420 O   0  0  0  0  0  0  0  0  0  0  0  0
  161.3070  206.0850  146.5460 C   0  0  0  0  0  0  0  0  0  0  0  0
  160.8340  203.8720  144.8140 O   0  0  0  0  0  0  0  0  0  0  0  0
  163.2470  204.4030  145.6680 O   0  0  0  0  0  1  0  0  0  0  0  0
  161.6000  203.3760  147.4180 O   0  0  0  0  0  1  0  0  0  0  0  0
  161.7970  204.4120  146.0950 P   0  0  0  0  0  0  0  0  0  0  0  0
  1  2  2  0  0  0  0
  2  3  1  0  0  0  0
  3  6  1  0  0  0  0
  3  4  1  1  0  0  0
  3  5  1  0  0  0  0
  6  7  1  1  0  0  0
  6  8  1  0  0  0  0
  9 10  2  0  0  0  0
 10  8  1  0  0  0  0
 11 15  1  0  0  0  0
 11 14  1  0  0  0  0
 12 11  1  0  0  0  0
 12 14  1  0  0  0  0
 13 17  1  6  0  0  0
 13 11  1  0  0  0  0
 13 15  1  0  0  0  0
 15 10  1  6  0  0  0
 16 17  2  0  0  0  0
 18 17  1  0  0  0  0
 19 20  1  0  0  0  0
 19 21  1  0  0  0  0
 20 21  1  0  0  0  0
 21 18  1  0  0  0  0
 22  2  1  0  0  0  0
 23 26  1  1  0  0  0
 23 25  1  0  0  0  0
 24 28  1  0  0  0  0
 25 27  1  0  0  0  0
 26 24  1  0  0  0  0
 27 28  1  0  0  0  0
 27 22  1  1  0  0  0
 30 35  1  0  0  0  0
 31 37  1  1  0  0  0
 31 34  1  0  0  0  0
 31 33  1  0  0  0  0
 32 29  1  6  0  0  0
 32 35  1  0  0  0  0
 32 23  1  0  0  0  0
 33 32  1  0  0  0  0
 34 30  1  0  0  0  0
 36 37  2  0  0  0  0
 38 41  2  0  0  0  0
 39 41  1  0  0  0  0
 41 37  1  0  0  0  0
 41 40  1  0  0  0  0
M  END
>  <MODEL>
2

>  <REMARK>
 VINA RESULT:      -6.4      0.985      2.513
  Name = 
  13 active torsions:
  status: ('A' for Active; 'I' for Inactive)
    1  A    between atoms: C_4  and  C_24
    2  A    between atoms: C_6  and  C_16
    3  A    between atoms: C_6  and  C_34
    4  A    between atoms: C_10  and  C_30
    5  A    between atoms: C_16  and  C_27
    6  A    between atoms: C_19  and  C_32
    7  A    between atoms: C_19  and  C_34
    8  A    between atoms: C_20  and  C_21
    9  A    between atoms: C_20  and  C_25
   10  A    between atoms: C_21  and  C_29
   11  A    between atoms: C_27  and  C_36
   12  A    between atoms: C_30  and  P_40
   13  A    between atoms: C_36  and  C_37
                            x       y       z     vdW  Elec       q    Type
                         _______ _______ _______ _____ _____    ______ ____

>  <TORSDO>
F 13

$$$$
=
 OpenBabel11072412533D

 41 45  0  0  1  0  0  0  0  0999 V2000
  159.5110  209.9130  152.0360 N   0  0  0  0  0  2  0  0  0  0  0  0
  160.5830  209.8760  152.7410 C   0  0  0  0  0  0  0  0  0  0  0  0
  161.9280  209.8990  152.0530 C   0  0  1  0  0  0  0  0  0  0  0  0
  161.9110  210.7690  150.9590 O   0  0  0  0  0  1  0  0  0  0  0  0
  162.8700  210.3560  152.9570 F   0  0  0  0  0  0  0  0  0  0  0  0
  162.3290  208.4890  151.5990 C   0  0  2  0  0  3  0  0  0  0  0  0
  162.5030  208.4300  150.2250 F   0  0  0  0  0  0  0  0  0  0  0  0
  161.4120  207.3720  152.1150 C   0  0  0  0  0  2  0  0  0  0  0  0
  163.1230  205.6590  151.7660 C   0  0  0  0  0  2  0  0  0  0  0  0
  161.8340  205.9910  151.6930 C   0  0  0  0  0  0  0  0  0  0  0  0
  161.3580  203.7780  150.5770 C   0  0  0  0  0  0  0  0  0  0  0  0
  160.5770  202.5110  150.1950 C   0  0  0  0  0  2  0  0  0  0  0  0
  160.3160  204.7720  150.0300 C   0  0  1  0  0  3  0  0  0  0  0  0
  161.0450  202.6560  151.5790 C   0  0  0  0  0  2  0  0  0  0  0  0
  160.7950  204.9210  151.4430 C   0  0  2  0  0  3  0  0  0  0  0  0
  160.4780  206.8450  148.8630 O   0  0  0  0  0  0  0  0  0  0  0  0
  160.9170  205.7130  148.9980 C   0  0  0  0  0  0  0  0  0  0  0  0
  162.0920  205.3040  148.1550 C   0  0  0  0  0  2  0  0  0  0  0  0
  161.2250  205.3870  145.8420 C   0  0  0  0  0  2  0  0  0  0  0  0
  162.6230  204.8130  145.7920 C   0  0  0  0  0  2  0  0  0  0  0  0
  161.7050  204.4670  146.9460 C   0  0  0  0  0  3  0  0  0  0  0  0
  160.4710  209.6550  154.2210 C   0  0  0  0  0  2  0  0  0  0  0  0
  158.2640  211.5230  156.7950 C   0  0  1  0  0  3  0  0  0  0  0  0
  160.2210  212.9900  156.1160 C   0  0  0  0  0  2  0  0  0  0  0  0
  158.9050  210.3540  156.0250 C   0  0  0  0  0  2  0  0  0  0  0  0
  159.3140  212.5440  157.2610 C   0  0  0  0  0  2  0  0  0  0  0  0
  159.8190  210.8450  154.9030 C   0  0  1  0  0  3  0  0  0  0  0  0
  160.8830  211.7800  155.4680 C   0  0  0  0  0  2  0  0  0  0  0  0
  156.4220  211.1860  155.1050 C   0  0  0  0  0  1  0  0  0  0  0  0
  155.2880  213.7310  157.1840 C   0  0  0  0  0  2  0  0  0  0  0  0
  156.3260  214.1110  154.9600 C   0  0  2  0  0  3  0  0  0  0  0  0
  157.0070  212.1460  156.1430 C   0  0  2  0  0  0  0  0  0  0  0  0
  157.4030  213.3730  155.5330 O   0  0  0  0  0  0  0  0  0  0  0  0
  155.0030  214.0600  155.7370 C   0  0  0  0  0  2  0  0  0  0  0  0
  155.9650  212.3700  157.2590 C   0  0  0  0  0  2  0  0  0  0  0  0
  155.1050  213.7910  152.9740 O   0  0  0  0  0  0  0  0  0  0  0  0
  156.2150  213.8890  153.4720 C   0  0  0  0  0  0  0  0  0  0  0  0
  158.9890  214.4530  153.1460 O   0  0  0  0  0  1  0  0  0  0  0  0
  157.9580  212.2460  152.1970 O   0  0  0  0  0  1  0  0  0  0  0  0
  157.3680  214.4430  150.9130 O   0  0  0  0  0  0  0  0  0  0  0  0
  157.6590  213.7120  152.4100 P   0  0  0  0  0  0  0  0  0  0  0  0
  1  2  2  0  0  0  0
  2 22  1  0  0  0  0
  3  4  1  6  0  0  0
  3  2  1  0  0  0  0
  3  5  1  0  0  0  0
  6  7  1  6  0  0  0
  6  3  1  0  0  0  0
  6  8  1  0  0  0  0
 10  9  2  0  0  0  0
 10  8  1  0  0  0  0
 11 15  1  0  0  0  0
 11 14  1  0  0  0  0
 12 11  1  0  0  0  0
 12 14  1  0  0  0  0
 13 17  1  6  0  0  0
 13 11  1  0  0  0  0
 13 15  1  0  0  0  0
 15 10  1  6  0  0  0
 16 17  2  0  0  0  0
 18 17  1  0  0  0  0
 19 21  1  0  0  0  0
 20 19  1  0  0  0  0
 20 21  1  0  0  0  0
 21 18  1  0  0  0  0
 23 25  1  6  0  0  0
 23 26  1  0  0  0  0
 24 26  1  0  0  0  0
 27 22  1  1  0  0  0
 27 28  1  0  0  0  0
 27 25  1  0  0  0  0
 28 24  1  0  0  0  0
 30 35  1  0  0  0  0
 31 37  1  6  0  0  0
 31 33  1  0  0  0  0
 31 34  1  0  0  0  0
 32 29  1  6  0  0  0
 32 23  1  0  0  0  0
 32 35  1  0  0  0  0
 33 32  1  0  0  0  0
 34 30  1  0  0  0  0
 36 37  2  0  0  0  0
 39 41  1  0  0  0  0
 40 41  2  0  0  0  0
 41 38  1  0  0  0  0
 41 37  1  0  0  0  0
M  END
>  <MODEL>
3

>  <REMARK>
 VINA RESULT:      -6.2      2.957      9.563
  Name = 
  13 active torsions:
  status: ('A' for Active; 'I' for Inactive)
    1  A    between atoms: C_4  and  C_24
    2  A    between atoms: C_6  and  C_16
    3  A    between atoms: C_6  and  C_34
    4  A    between atoms: C_10  and  C_30
    5  A    between atoms: C_16  and  C_27
    6  A    between atoms: C_19  and  C_32
    7  A    between atoms: C_19  and  C_34
    8  A    between atoms: C_20  and  C_21
    9  A    between atoms: C_20  and  C_25
   10  A    between atoms: C_21  and  C_29
   11  A    between atoms: C_27  and  C_36
   12  A    between atoms: C_30  and  P_40
   13  A    between atoms: C_36  and  C_37
                            x       y       z     vdW  Elec       q    Type
                         _______ _______ _______ _____ _____    ______ ____

>  <TORSDO>
F 13

$$$$
=
 OpenBabel11072412533D

 41 45  0  0  1  0  0  0  0  0999 V2000
  160.7790  208.3860  151.7950 N   0  0  0  0  0  2  0  0  0  0  0  0
  160.9490  207.4390  152.6420 C   0  0  0  0  0  0  0  0  0  0  0  0
  161.5800  206.1420  152.1910 C   0  0  1  0  0  0  0  0  0  0  0  0
  162.9510  206.3050  151.9740 O   0  0  0  0  0  1  0  0  0  0  0  0
  161.4080  205.2030  153.1940 F   0  0  0  0  0  0  0  0  0  0  0  0
  160.9030  205.6230  150.9150 C   0  0  2  0  0  3  0  0  0  0  0  0
  160.1010  204.5240  151.1780 F   0  0  0  0  0  0  0  0  0  0  0  0
  161.8630  205.3730  149.7440 C   0  0  0  0  0  2  0  0  0  0  0  0
  160.0530  206.1770  148.3090 C   0  0  0  0  0  2  0  0  0  0  0  0
  161.2440  205.5840  148.3900 C   0  0  0  0  0  0  0  0  0  0  0  0
  161.1710  205.0430  145.9260 C   0  0  0  0  0  0  0  0  0  0  0  0
  161.6890  204.8330  144.4950 C   0  0  0  0  0  2  0  0  0  0  0  0
  162.0780  203.9810  146.5760 C   0  0  1  0  0  3  0  0  0  0  0  0
  161.6770  206.1950  145.0440 C   0  0  0  0  0  2  0  0  0  0  0  0
  162.0640  205.3710  147.1380 C   0  0  2  0  0  3  0  0  0  0  0  0
  160.4760  202.2210  146.7300 O   0  0  0  0  0  0  0  0  0  0  0  0
  161.2740  202.9300  147.3240 C   0  0  0  0  0  0  0  0  0  0  0  0
  161.4720  202.6930  148.7950 C   0  0  0  0  0  2  0  0  0  0  0  0
  160.8720  201.2860  150.7360 C   0  0  0  0  0  2  0  0  0  0  0  0
  159.6840  201.3150  149.8000 C   0  0  0  0  0  2  0  0  0  0  0  0
  161.0890  201.2890  149.2370 C   0  0  0  0  0  3  0  0  0  0  0  0
  160.3760  207.5860  154.0210 C   0  0  0  0  0  2  0  0  0  0  0  0
  159.8670  210.5930  156.4050 C   0  0  1  0  0  3  0  0  0  0  0  0
  161.7540  211.0930  154.7810 C   0  0  0  0  0  2  0  0  0  0  0  0
  159.8370  209.1440  155.8860 C   0  0  0  0  0  2  0  0  0  0  0  0
  161.2490  211.2400  156.2150 C   0  0  0  0  0  2  0  0  0  0  0  0
  160.3700  209.0410  154.4570 C   0  0  1  0  0  3  0  0  0  0  0  0
  161.7770  209.6240  154.3800 C   0  0  0  0  0  2  0  0  0  0  0  0
  157.6250  210.6420  155.2510 C   0  0  0  0  0  1  0  0  0  0  0  0
  157.7340  213.5570  157.1420 C   0  0  0  0  0  2  0  0  0  0  0  0
  158.2170  213.4600  154.7080 C   0  0  2  0  0  3  0  0  0  0  0  0
  158.6780  211.4830  155.9750 C   0  0  2  0  0  0  0  0  0  0  0  0
  159.1900  212.5020  155.1190 O   0  0  0  0  0  0  0  0  0  0  0  0
  157.1720  213.8350  155.7670 C   0  0  0  0  0  2  0  0  0  0  0  0
  158.0500  212.0730  157.2560 C   0  0  0  0  0  2  0  0  0  0  0  0
  156.4620  213.0780  153.1870 O   0  0  0  0  0  0  0  0  0  0  0  0
  157.6710  213.1590  153.3330 C   0  0  0  0  0  0  0  0  0  0  0  0
  160.0130  213.9750  151.9300 O   0  0  0  0  0  1  0  0  0  0  0  0
  159.2970  211.4610  151.9770 O   0  0  0  0  0  1  0  0  0  0  0  0
  157.8570  213.0460  150.4800 O   0  0  0  0  0  0  0  0  0  0  0  0
  158.7380  212.8640  151.9120 P   0  0  0  0  0  0  0  0  0  0  0  0
  1  2  2  0  0  0  0
  2 22  1  0  0  0  0
  3  4  1  6  0  0  0
  3  2  1  0  0  0  0
  3  5  1  0  0  0  0
  6  7  1  1  0  0  0
  6  3  1  0  0  0  0
  8  6  1  0  0  0  0
  9 10  2  0  0  0  0
 10  8  1  0  0  0  0
 11 13  1  0  0  0  0
 11 15  1  0  0  0  0
 12 14  1  0  0  0  0
 12 11  1  0  0  0  0
 13 15  1  0  0  0  0
 13 17  1  1  0  0  0
 14 11  1  0  0  0  0
 15 10  1  1  0  0  0
 16 17  2  0  0  0  0
 17 18  1  0  0  0  0
 18 21  1  0  0  0  0
 20 19  1  0  0  0  0
 21 20  1  0  0  0  0
 21 19  1  0  0  0  0
 23 25  1  6  0  0  0
 24 26  1  0  0  0  0
 26 23  1  0  0  0  0
 27 22  1  1  0  0  0
 27 25  1  0  0  0  0
 28 27  1  0  0  0  0
 28 24  1  0  0  0  0
 30 35  1  0  0  0  0
 31 37  1  6  0  0  0
 31 33  1  0  0  0  0
 31 34  1  0  0  0  0
 32 29  1  6  0  0  0
 32 23  1  0  0  0  0
 32 35  1  0  0  0  0
 33 32  1  0  0  0  0
 34 30  1  0  0  0  0
 36 37  2  0  0  0  0
 40 41  2  0  0  0  0
 41 38  1  0  0  0  0
 41 39  1  0  0  0  0
 41 37  1  0  0  0  0
M  END
>  <MODEL>
4

>  <REMARK>
 VINA RESULT:      -6.1      3.139      9.512
  Name = 
  13 active torsions:
  status: ('A' for Active; 'I' for Inactive)
    1  A    between atoms: C_4  and  C_24
    2  A    between atoms: C_6  and  C_16
    3  A    between atoms: C_6  and  C_34
    4  A    between atoms: C_10  and  C_30
    5  A    between atoms: C_16  and  C_27
    6  A    between atoms: C_19  and  C_32
    7  A    between atoms: C_19  and  C_34
    8  A    between atoms: C_20  and  C_21
    9  A    between atoms: C_20  and  C_25
   10  A    between atoms: C_21  and  C_29
   11  A    between atoms: C_27  and  C_36
   12  A    between atoms: C_30  and  P_40
   13  A    between atoms: C_36  and  C_37
                            x       y       z     vdW  Elec       q    Type
                         _______ _______ _______ _____ _____    ______ ____

>  <TORSDO>
F 13

$$$$
=
 OpenBabel11072412533D

 41 45  0  0  1  0  0  0  0  0999 V2000
  161.9590  207.5910  153.2230 N   0  0  0  0  0  2  0  0  0  0  0  0
  161.5390  208.4570  152.3750 C   0  0  0  0  0  0  0  0  0  0  0  0
  161.9560  209.9020  152.5180 C   0  0  1  0  0  0  0  0  0  0  0  0
  162.7230  210.0860  153.6730 O   0  0  0  0  0  1  0  0  0  0  0  0
  162.7310  210.2410  151.4230 F   0  0  0  0  0  0  0  0  0  0  0  0
  160.7270  210.8210  152.5500 C   0  0  2  0  0  3  0  0  0  0  0  0
  160.6870  211.6510  151.4410 F   0  0  0  0  0  0  0  0  0  0  0  0
  160.5500  211.5980  153.8610 C   0  0  0  0  0  2  0  0  0  0  0  0
  159.0130  213.4890  153.6510 C   0  0  0  0  0  2  0  0  0  0  0  0
  159.1910  212.2220  154.0230 C   0  0  0  0  0  0  0  0  0  0  0  0
  157.0990  212.0160  155.4210 C   0  0  0  0  0  0  0  0  0  0  0  0
  155.7750  211.4260  155.9280 C   0  0  0  0  0  2  0  0  0  0  0  0
  157.9510  210.7690  155.7280 C   0  0  1  0  0  3  0  0  0  0  0  0
  155.8140  212.0030  154.5790 C   0  0  0  0  0  2  0  0  0  0  0  0
  157.9930  211.3590  154.3510 C   0  0  2  0  0  3  0  0  0  0  0  0
  159.3290  212.2430  157.0000 O   0  0  0  0  0  0  0  0  0  0  0  0
  159.1160  211.0920  156.6500 C   0  0  0  0  0  0  0  0  0  0  0  0
  160.0050  210.0110  157.1970 C   0  0  0  0  0  2  0  0  0  0  0  0
  161.4050  208.0160  156.7860 C   0  0  0  0  0  2  0  0  0  0  0  0
  159.9700  207.6450  156.4840 C   0  0  0  0  0  2  0  0  0  0  0  0
  160.4820  209.0280  156.1390 C   0  0  0  0  0  3  0  0  0  0  0  0
  160.5200  208.0390  151.3550 C   0  0  0  0  0  2  0  0  0  0  0  0
  160.6300  205.6260  148.3300 C   0  0  1  0  0  3  0  0  0  0  0  0
  162.6680  207.1400  148.2960 C   0  0  0  0  0  2  0  0  0  0  0  0
  160.0520  206.4710  149.4800 C   0  0  0  0  0  2  0  0  0  0  0  0
  161.6020  206.4370  147.4580 C   0  0  0  0  0  2  0  0  0  0  0  0
  161.1500  207.1720  150.2780 C   0  0  1  0  0  3  0  0  0  0  0  0
  162.0100  208.0230  149.3490 C   0  0  0  0  0  2  0  0  0  0  0  0
  162.4220  203.8910  147.9540 C   0  0  0  0  0  1  0  0  0  0  0  0
  160.9400  203.0220  150.9770 C   0  0  0  0  0  2  0  0  0  0  0  0
  160.4030  201.9450  148.8040 C   0  0  2  0  0  3  0  0  0  0  0  0
  161.1410  204.2200  148.7240 C   0  0  2  0  0  0  0  0  0  0  0  0
  160.1090  203.2860  148.4140 O   0  0  0  0  0  0  0  0  0  0  0  0
  161.1700  201.7950  150.1250 C   0  0  0  0  0  2  0  0  0  0  0  0
  161.4580  204.2450  150.2340 C   0  0  0  0  0  2  0  0  0  0  0  0
  161.7630  200.2650  147.8750 O   0  0  0  0  0  0  0  0  0  0  0  0
  160.9220  201.1210  147.6520 C   0  0  0  0  0  0  0  0  0  0  0  0
  160.7580  200.0200  145.0290 O   0  0  0  0  0  0  0  0  0  0  0  0
  158.8910  201.6180  145.9220 O   0  0  0  0  0  1  0  0  0  0  0  0
  161.1700  202.7350  145.3030 O   0  0  0  0  0  1  0  0  0  0  0  0
  160.3850  201.3860  145.9530 P   0  0  0  0  0  0  0  0  0  0  0  0
  2  3  1  0  0  0  0
  2  1  2  0  0  0  0
  3  5  1  6  0  0  0
  3  6  1  0  0  0  0
  3  4  1  0  0  0  0
  6  7  1  6  0  0  0
  6  8  1  0  0  0  0
  8 10  1  0  0  0  0
  9 10  2  0  0  0  0
 11 13  1  0  0  0  0
 11 12  1  0  0  0  0
 13 17  1  1  0  0  0
 14 11  1  0  0  0  0
 14 12  1  0  0  0  0
 15 10  1  1  0  0  0
 15 11  1  0  0  0  0
 15 13  1  0  0  0  0
 17 16  2  0  0  0  0
 17 18  1  0  0  0  0
 20 19  1  0  0  0  0
 21 20  1  0  0  0  0
 21 19  1  0  0  0  0
 21 18  1  0  0  0  0
 22  2  1  0  0  0  0
 23 26  1  1  0  0  0
 23 32  1  0  0  0  0
 23 25  1  0  0  0  0
 24 28  1  0  0  0  0
 25 27  1  0  0  0  0
 26 24  1  0  0  0  0
 27 22  1  1  0  0  0
 28 27  1  0  0  0  0
 31 37  1  6  0  0  0
 31 34  1  0  0  0  0
 32 29  1  6  0  0  0
 32 35  1  0  0  0  0
 33 32  1  0  0  0  0
 33 31  1  0  0  0  0
 34 30  1  0  0  0  0
 35 30  1  0  0  0  0
 37 36  2  0  0  0  0
 38 41  2  0  0  0  0
 39 41  1  0  0  0  0
 40 41  1  0  0  0  0
 41 37  1  0  0  0  0
M  END
>  <MODEL>
5

>  <REMARK>
 VINA RESULT:      -6.0      2.388      4.281
  Name = 
  13 active torsions:
  status: ('A' for Active; 'I' for Inactive)
    1  A    between atoms: C_4  and  C_24
    2  A    between atoms: C_6  and  C_16
    3  A    between atoms: C_6  and  C_34
    4  A    between atoms: C_10  and  C_30
    5  A    between atoms: C_16  and  C_27
    6  A    between atoms: C_19  and  C_32
    7  A    between atoms: C_19  and  C_34
    8  A    between atoms: C_20  and  C_21
    9  A    between atoms: C_20  and  C_25
   10  A    between atoms: C_21  and  C_29
   11  A    between atoms: C_27  and  C_36
   12  A    between atoms: C_30  and  P_40
   13  A    between atoms: C_36  and  C_37
                            x       y       z     vdW  Elec       q    Type
                         _______ _______ _______ _____ _____    ______ ____

>  <TORSDO>
F 13

$$$$
=
 OpenBabel11072412533D

 41 45  0  0  1  0  0  0  0  0999 V2000
  162.8850  206.0120  152.4870 N   0  0  0  0  0  2  0  0  0  0  0  0
  161.9280  206.8500  152.6500 C   0  0  0  0  0  0  0  0  0  0  0  0
  161.8070  208.0330  151.7170 C   0  0  1  0  0  0  0  0  0  0  0  0
  160.4710  208.4180  151.5730 O   0  0  0  0  0  1  0  0  0  0  0  0
  162.5080  209.0930  152.2670 F   0  0  0  0  0  0  0  0  0  0  0  0
  162.4120  207.7070  150.3460 C   0  0  2  0  0  3  0  0  0  0  0  0
  161.9420  208.5680  149.3670 F   0  0  0  0  0  0  0  0  0  0  0  0
  162.2850  206.2340  149.9300 C   0  0  0  0  0  2  0  0  0  0  0  0
  160.3130  206.6130  148.5340 C   0  0  0  0  0  2  0  0  0  0  0  0
  160.9130  205.8520  149.4480 C   0  0  0  0  0  0  0  0  0  0  0  0
  161.4380  203.5030  150.2090 C   0  0  0  0  0  0  0  0  0  0  0  0
  161.1780  202.0630  150.6780 C   0  0  0  0  0  2  0  0  0  0  0  0
  160.6870  203.3670  148.8720 C   0  0  1  0  0  3  0  0  0  0  0  0
  160.8340  203.1680  151.5820 C   0  0  0  0  0  2  0  0  0  0  0  0
  160.3370  204.4970  149.7930 C   0  0  2  0  0  3  0  0  0  0  0  0
  162.7930  203.7170  147.8080 O   0  0  0  0  0  0  0  0  0  0  0  0
  161.5770  203.7000  147.6850 C   0  0  0  0  0  0  0  0  0  0  0  0
  161.0000  203.9640  146.3230 C   0  0  0  0  0  2  0  0  0  0  0  0
  161.4680  205.0500  144.1520 C   0  0  0  0  0  2  0  0  0  0  0  0
  160.4700  205.9100  144.8940 C   0  0  0  0  0  2  0  0  0  0  0  0
  161.5740  205.2050  145.6550 C   0  0  0  0  0  3  0  0  0  0  0  0
  161.0450  206.7200  153.8570 C   0  0  0  0  0  2  0  0  0  0  0  0
  159.5840  209.6080  155.9790 C   0  0  1  0  0  3  0  0  0  0  0  0
  161.9590  209.1090  156.7260 C   0  0  0  0  0  2  0  0  0  0  0  0
  159.6280  208.3550  155.0850 C   0  0  0  0  0  2  0  0  0  0  0  0
  160.5490  209.4940  157.1710 C   0  0  0  0  0  2  0  0  0  0  0  0
  161.0570  207.9950  154.6820 C   0  0  1  0  0  3  0  0  0  0  0  0
  161.9210  207.8130  155.9260 C   0  0  0  0  0  2  0  0  0  0  0  0
  159.7730  212.1100  156.2410 C   0  0  0  0  0  1  0  0  0  0  0  0
  160.6170  211.4800  152.9280 C   0  0  0  0  0  2  0  0  0  0  0  0
  158.3790  212.2590  153.6690 C   0  0  2  0  0  3  0  0  0  0  0  0
  159.6390  210.9630  155.2370 C   0  0  2  0  0  0  0  0  0  0  0  0
  158.4350  211.0890  154.4820 O   0  0  0  0  0  0  0  0  0  0  0  0
  159.7060  212.6820  153.0260 C   0  0  0  0  0  2  0  0  0  0  0  0
  160.8870  210.9480  154.3280 C   0  0  0  0  0  2  0  0  0  0  0  0
  158.1550  214.4210  154.5710 O   0  0  0  0  0  0  0  0  0  0  0  0
  157.5910  213.3670  154.3240 C   0  0  0  0  0  0  0  0  0  0  0  0
  155.5780  214.0480  156.2230 O   0  0  0  0  0  1  0  0  0  0  0  0
  154.9710  213.7010  153.7040 O   0  0  0  0  0  0  0  0  0  0  0  0
  155.5180  211.5420  155.0700 O   0  0  0  0  0  1  0  0  0  0  0  0
  155.8660  213.1750  154.8030 P   0  0  0  0  0  0  0  0  0  0  0  0
  1  2  2  0  0  0  0
  2 22  1  0  0  0  0
  3  4  1  6  0  0  0
  3  5  1  0  0  0  0
  3  2  1  0  0  0  0
  6  7  1  6  0  0  0
  6  3  1  0  0  0  0
  8  6  1  0  0  0  0
  9 10  2  0  0  0  0
 10  8  1  0  0  0  0
 11 12  1  0  0  0  0
 11 14  1  0  0  0  0
 12 14  1  0  0  0  0
 13 17  1  6  0  0  0
 13 15  1  0  0  0  0
 13 11  1  0  0  0  0
 15 10  1  6  0  0  0
 15 11  1  0  0  0  0
 17 16  2  0  0  0  0
 18 17  1  0  0  0  0
 19 20  1  0  0  0  0
 19 21  1  0  0  0  0
 20 21  1  0  0  0  0
 21 18  1  0  0  0  0
 23 25  1  6  0  0  0
 23 26  1  0  0  0  0
 24 26  1  0  0  0  0
 27 22  1  1  0  0  0
 27 25  1  0  0  0  0
 27 28  1  0  0  0  0
 28 24  1  0  0  0  0
 30 34  1  0  0  0  0
 30 35  1  0  0  0  0
 31 37  1  1  0  0  0
 31 33  1  0  0  0  0
 32 23  1  0  0  0  0
 32 29  1  1  0  0  0
 33 32  1  0  0  0  0
 34 31  1  0  0  0  0
 35 32  1  0  0  0  0
 37 36  2  0  0  0  0
 37 41  1  0  0  0  0
 39 41  2  0  0  0  0
 41 40  1  0  0  0  0
 41 38  1  0  0  0  0
M  END
>  <MODEL>
6

>  <REMARK>
 VINA RESULT:      -6.0      3.053      9.532
  Name = 
  13 active torsions:
  status: ('A' for Active; 'I' for Inactive)
    1  A    between atoms: C_4  and  C_24
    2  A    between atoms: C_6  and  C_16
    3  A    between atoms: C_6  and  C_34
    4  A    between atoms: C_10  and  C_30
    5  A    between atoms: C_16  and  C_27
    6  A    between atoms: C_19  and  C_32
    7  A    between atoms: C_19  and  C_34
    8  A    between atoms: C_20  and  C_21
    9  A    between atoms: C_20  and  C_25
   10  A    between atoms: C_21  and  C_29
   11  A    between atoms: C_27  and  C_36
   12  A    between atoms: C_30  and  P_40
   13  A    between atoms: C_36  and  C_37
                            x       y       z     vdW  Elec       q    Type
                         _______ _______ _______ _____ _____    ______ ____

>  <TORSDO>
F 13

$$$$
=
 OpenBabel11072412533D

 41 45  0  0  1  0  0  0  0  0999 V2000
  161.3440  207.7870  152.4410 N   0  0  0  0  0  2  0  0  0  0  0  0
  161.3100  206.7140  153.1430 C   0  0  0  0  0  0  0  0  0  0  0  0
  161.5910  205.3840  152.4830 C   0  0  1  0  0  0  0  0  0  0  0  0
  162.9670  205.1740  152.3520 O   0  0  0  0  0  1  0  0  0  0  0  0
  161.0740  204.3830  153.2880 F   0  0  0  0  0  0  0  0  0  0  0  0
  160.9120  205.3060  151.1100 C   0  0  2  0  0  3  0  0  0  0  0  0
  160.0420  204.2290  151.0350 F   0  0  0  0  0  0  0  0  0  0  0  0
  161.8820  205.3500  149.9200 C   0  0  0  0  0  2  0  0  0  0  0  0
  160.0860  206.3840  148.6200 C   0  0  0  0  0  2  0  0  0  0  0  0
  161.2270  205.6940  148.6110 C   0  0  0  0  0  0  0  0  0  0  0  0
  161.0360  205.0290  146.1830 C   0  0  0  0  0  0  0  0  0  0  0  0
  161.4720  204.7980  144.7280 C   0  0  0  0  0  2  0  0  0  0  0  0
  162.0830  204.0880  146.8090 C   0  0  1  0  0  3  0  0  0  0  0  0
  161.3680  206.1780  145.2190 C   0  0  0  0  0  2  0  0  0  0  0  0
  161.9750  205.4970  147.3120 C   0  0  2  0  0  3  0  0  0  0  0  0
  161.9930  202.5930  148.6650 O   0  0  0  0  0  0  0  0  0  0  0  0
  161.4360  203.0050  147.6580 C   0  0  0  0  0  0  0  0  0  0  0  0
  160.0820  202.4490  147.3210 C   0  0  0  0  0  2  0  0  0  0  0  0
  159.3220  201.1810  145.3400 C   0  0  0  0  0  2  0  0  0  0  0  0
  160.8290  201.2830  145.2740 C   0  0  0  0  0  2  0  0  0  0  0  0
  160.1420  201.1050  146.6120 C   0  0  0  0  0  3  0  0  0  0  0  0
  160.8410  206.7920  154.5670 C   0  0  0  0  0  2  0  0  0  0  0  0
  159.6250  210.1110  156.1450 C   0  0  1  0  0  3  0  0  0  0  0  0
  162.0490  209.6950  156.7790 C   0  0  0  0  0  2  0  0  0  0  0  0
  159.5680  208.6980  155.5360 C   0  0  0  0  0  2  0  0  0  0  0  0
  160.6910  210.2140  157.2480 C   0  0  0  0  0  2  0  0  0  0  0  0
  160.9480  208.2110  155.1000 C   0  0  1  0  0  3  0  0  0  0  0  0
  161.9170  208.2630  156.2760 C   0  0  0  0  0  2  0  0  0  0  0  0
  159.6940  212.6170  155.8690 C   0  0  0  0  0  1  0  0  0  0  0  0
  160.6440  211.3390  152.7780 C   0  0  0  0  0  2  0  0  0  0  0  0
  158.3560  212.1470  153.3050 C   0  0  2  0  0  3  0  0  0  0  0  0
  159.6360  211.2780  155.1310 C   0  0  2  0  0  0  0  0  0  0  0  0
  158.4460  211.1810  154.3500 O   0  0  0  0  0  0  0  0  0  0  0  0
  159.6780  212.4880  152.6050 C   0  0  0  0  0  2  0  0  0  0  0  0
  160.9040  211.1300  154.2630 C   0  0  0  0  0  2  0  0  0  0  0  0
  157.9160  214.4530  153.4600 O   0  0  0  0  0  0  0  0  0  0  0  0
  157.5050  213.3290  153.6980 C   0  0  0  0  0  0  0  0  0  0  0  0
  156.0560  213.7970  156.1080 O   0  0  0  0  0  1  0  0  0  0  0  0
  154.8490  213.8780  153.7900 O   0  0  0  0  0  0  0  0  0  0  0  0
  155.5190  211.5090  154.6620 O   0  0  0  0  0  1  0  0  0  0  0  0
  155.9290  213.1450  154.5520 P   0  0  0  0  0  0  0  0  0  0  0  0
  1  2  2  0  0  0  0
  2 22  1  0  0  0  0
  3  4  1  6  0  0  0
  3  2  1  0  0  0  0
  3  5  1  0  0  0  0
  6  7  1  1  0  0  0
  6  3  1  0  0  0  0
  8  6  1  0  0  0  0
 10  9  2  0  0  0  0
 10  8  1  0  0  0  0
 11 13  1  0  0  0  0
 11 15  1  0  0  0  0
 12 14  1  0  0  0  0
 12 11  1  0  0  0  0
 13 15  1  0  0  0  0
 13 17  1  1  0  0  0
 14 11  1  0  0  0  0
 15 10  1  1  0  0  0
 17 16  2  0  0  0  0
 18 17  1  0  0  0  0
 19 21  1  0  0  0  0
 20 19  1  0  0  0  0
 20 21  1  0  0  0  0
 21 18  1  0  0  0  0
 23 25  1  6  0  0  0
 23 26  1  0  0  0  0
 24 26  1  0  0  0  0
 27 22  1  1  0  0  0
 27 25  1  0  0  0  0
 27 28  1  0  0  0  0
 28 24  1  0  0  0  0
 30 35  1  0  0  0  0
 31 37  1  1  0  0  0
 31 33  1  0  0  0  0
 32 29  1  1  0  0  0
 32 23  1  0  0  0  0
 33 32  1  0  0  0  0
 34 30  1  0  0  0  0
 34 31  1  0  0  0  0
 35 32  1  0  0  0  0
 36 37  2  0  0  0  0
 37 41  1  0  0  0  0
 39 41  2  0  0  0  0
 41 40  1  0  0  0  0
 41 38  1  0  0  0  0
M  END
>  <MODEL>
7

>  <REMARK>
 VINA RESULT:      -5.8      3.415      9.812
  Name = 
  13 active torsions:
  status: ('A' for Active; 'I' for Inactive)
    1  A    between atoms: C_4  and  C_24
    2  A    between atoms: C_6  and  C_16
    3  A    between atoms: C_6  and  C_34
    4  A    between atoms: C_10  and  C_30
    5  A    between atoms: C_16  and  C_27
    6  A    between atoms: C_19  and  C_32
    7  A    between atoms: C_19  and  C_34
    8  A    between atoms: C_20  and  C_21
    9  A    between atoms: C_20  and  C_25
   10  A    between atoms: C_21  and  C_29
   11  A    between atoms: C_27  and  C_36
   12  A    between atoms: C_30  and  P_40
   13  A    between atoms: C_36  and  C_37
                            x       y       z     vdW  Elec       q    Type
                         _______ _______ _______ _____ _____    ______ ____

>  <TORSDO>
F 13

$$$$
=
 OpenBabel11072412533D

 41 45  0  0  1  0  0  0  0  0999 V2000
  159.0760  207.2270  155.7120 N   0  0  0  0  0  2  0  0  0  0  0  0
  159.8450  208.2520  155.6470 C   0  0  0  0  0  0  0  0  0  0  0  0
  160.7850  208.4030  154.4740 C   0  0  1  0  0  0  0  0  0  0  0  0
  160.3100  209.3660  153.5780 O   0  0  0  0  0  1  0  0  0  0  0  0
  162.0130  208.8250  154.9530 F   0  0  0  0  0  0  0  0  0  0  0  0
  160.9760  207.0620  153.7540 C   0  0  2  0  0  3  0  0  0  0  0  0
  161.9480  206.2910  154.3700 F   0  0  0  0  0  0  0  0  0  0  0  0
  161.2050  207.1810  152.2410 C   0  0  0  0  0  2  0  0  0  0  0  0
  163.0350  205.8160  151.3630 C   0  0  0  0  0  2  0  0  0  0  0  0
  161.7280  205.9240  151.6010 C   0  0  0  0  0  0  0  0  0  0  0  0
  161.4830  203.6250  150.5890 C   0  0  0  0  0  0  0  0  0  0  0  0
  160.8640  202.2460  150.3120 C   0  0  0  0  0  2  0  0  0  0  0  0
  160.2640  204.4390  150.1160 C   0  0  1  0  0  3  0  0  0  0  0  0
  161.4250  202.5080  151.6430 C   0  0  0  0  0  2  0  0  0  0  0  0
  160.8380  204.7080  151.4750 C   0  0  2  0  0  3  0  0  0  0  0  0
  160.3900  206.6080  149.1320 O   0  0  0  0  0  0  0  0  0  0  0  0
  160.6300  205.4160  149.0100 C   0  0  0  0  0  0  0  0  0  0  0  0
  161.3380  204.9610  147.7650 C   0  0  0  0  0  2  0  0  0  0  0  0
  161.8630  205.5290  145.4170 C   0  0  0  0  0  2  0  0  0  0  0  0
  160.5600  206.2080  145.7780 C   0  0  0  0  0  2  0  0  0  0  0  0
  161.6660  206.0970  146.8080 C   0  0  0  0  0  3  0  0  0  0  0  0
  159.9020  209.1930  156.8150 C   0  0  0  0  0  2  0  0  0  0  0  0
  157.8420  212.4550  156.5080 C   0  0  1  0  0  3  0  0  0  0  0  0
  160.3220  213.0000  156.4950 C   0  0  0  0  0  2  0  0  0  0  0  0
  158.1900  210.9970  156.8610 C   0  0  0  0  0  2  0  0  0  0  0  0
  158.9360  213.4310  156.9710 C   0  0  0  0  0  2  0  0  0  0  0  0
  159.5900  210.6160  156.3850 C   0  0  1  0  0  3  0  0  0  0  0  0
  160.6200  211.5810  156.9630 C   0  0  0  0  0  2  0  0  0  0  0  0
  157.9400  211.6530  154.1190 C   0  0  0  0  0  1  0  0  0  0  0  0
  155.0790  213.6210  154.2970 C   0  0  0  0  0  2  0  0  0  0  0  0
  157.2570  214.4100  153.4000 C   0  0  2  0  0  3  0  0  0  0  0  0
  157.3380  212.6940  155.0660 C   0  0  2  0  0  0  0  0  0  0  0  0
  157.7300  214.0110  154.6850 O   0  0  0  0  0  0  0  0  0  0  0  0
  155.8510  213.9170  153.0320 C   0  0  0  0  0  2  0  0  0  0  0  0
  155.8030  212.5320  155.0750 C   0  0  0  0  0  2  0  0  0  0  0  0
  159.4780  214.4280  152.6230 O   0  0  0  0  0  0  0  0  0  0  0  0
  158.3080  214.2380  152.3310 C   0  0  0  0  0  0  0  0  0  0  0  0
  156.3750  214.4450  150.2470 O   0  0  0  0  0  1  0  0  0  0  0  0
  158.9300  214.4000  149.6950 O   0  0  0  0  0  0  0  0  0  0  0  0
  157.8690  212.1340  150.4430 O   0  0  0  0  0  1  0  0  0  0  0  0
  157.8970  213.8140  150.6290 P   0  0  0  0  0  0  0  0  0  0  0  0
  2  1  2  0  0  0  0
  2 22  1  0  0  0  0
  3  4  1  6  0  0  0
  3  5  1  0  0  0  0
  3  2  1  0  0  0  0
  6  7  1  1  0  0  0
  6  3  1  0  0  0  0
  8  6  1  0  0  0  0
  9 10  2  0  0  0  0
 10  8  1  0  0  0  0
 11 15  1  0  0  0  0
 11 14  1  0  0  0  0
 12 11  1  0  0  0  0
 12 14  1  0  0  0  0
 13 17  1  6  0  0  0
 13 11  1  0  0  0  0
 13 15  1  0  0  0  0
 15 10  1  6  0  0  0
 17 16  2  0  0  0  0
 18 17  1  0  0  0  0
 19 20  1  0  0  0  0
 19 21  1  0  0  0  0
 20 21  1  0  0  0  0
 21 18  1  0  0  0  0
 23 25  1  6  0  0  0
 23 26  1  0  0  0  0
 24 28  1  0  0  0  0
 24 26  1  0  0  0  0
 27 22  1  1  0  0  0
 27 25  1  0  0  0  0
 27 28  1  0  0  0  0
 30 35  1  0  0  0  0
 31 37  1  6  0  0  0
 31 33  1  0  0  0  0
 32 29  1  6  0  0  0
 32 35  1  0  0  0  0
 32 23  1  0  0  0  0
 33 32  1  0  0  0  0
 34 31  1  0  0  0  0
 34 30  1  0  0  0  0
 37 36  2  0  0  0  0
 38 41  1  0  0  0  0
 39 41  2  0  0  0  0
 40 41  1  0  0  0  0
 41 37  1  0  0  0  0
M  END
>  <MODEL>
8

>  <REMARK>
 VINA RESULT:      -5.5      2.784      9.159
  Name = 
  13 active torsions:
  status: ('A' for Active; 'I' for Inactive)
    1  A    between atoms: C_4  and  C_24
    2  A    between atoms: C_6  and  C_16
    3  A    between atoms: C_6  and  C_34
    4  A    between atoms: C_10  and  C_30
    5  A    between atoms: C_16  and  C_27
    6  A    between atoms: C_19  and  C_32
    7  A    between atoms: C_19  and  C_34
    8  A    between atoms: C_20  and  C_21
    9  A    between atoms: C_20  and  C_25
   10  A    between atoms: C_21  and  C_29
   11  A    between atoms: C_27  and  C_36
   12  A    between atoms: C_30  and  P_40
   13  A    between atoms: C_36  and  C_37
                            x       y       z     vdW  Elec       q    Type
                         _______ _______ _______ _____ _____    ______ ____

>  <TORSDO>
F 13

$$$$
=
 OpenBabel11072412533D

 41 45  0  0  1  0  0  0  0  0999 V2000
  162.7870  206.4500  152.2160 N   0  0  0  0  0  2  0  0  0  0  0  0
  161.7900  205.7810  152.6680 C   0  0  0  0  0  0  0  0  0  0  0  0
  161.3080  204.5630  151.9150 C   0  0  1  0  0  0  0  0  0  0  0  0
  162.3510  203.6520  151.7230 O   0  0  0  0  0  1  0  0  0  0  0  0
  160.3260  203.9460  152.6700 F   0  0  0  0  0  0  0  0  0  0  0  0
  160.7030  204.9650  150.5630 C   0  0  2  0  0  3  0  0  0  0  0  0
  159.5980  204.1900  150.2520 F   0  0  0  0  0  0  0  0  0  0  0  0
  161.7130  205.0220  149.4080 C   0  0  0  0  0  2  0  0  0  0  0  0
  160.1800  206.4970  148.2020 C   0  0  0  0  0  2  0  0  0  0  0  0
  161.1520  205.5880  148.1330 C   0  0  0  0  0  0  0  0  0  0  0  0
  160.8520  204.9310  145.7150 C   0  0  0  0  0  0  0  0  0  0  0  0
  161.2320  204.6640  144.2500 C   0  0  0  0  0  2  0  0  0  0  0  0
  161.8440  203.9190  146.3180 C   0  0  1  0  0  3  0  0  0  0  0  0
  161.2400  206.0500  144.7360 C   0  0  0  0  0  2  0  0  0  0  0  0
  161.8510  205.3340  146.8160 C   0  0  2  0  0  3  0  0  0  0  0  0
  160.0800  202.4000  146.8370 O   0  0  0  0  0  0  0  0  0  0  0  0
  161.1430  202.8880  147.1890 C   0  0  0  0  0  0  0  0  0  0  0  0
  161.7560  202.4010  148.4720 C   0  0  0  0  0  2  0  0  0  0  0  0
  161.0170  201.2260  150.5170 C   0  0  0  0  0  2  0  0  0  0  0  0
  159.7930  201.4970  149.6710 C   0  0  0  0  0  2  0  0  0  0  0  0
  161.1050  201.1340  149.0070 C   0  0  0  0  0  3  0  0  0  0  0  0
  161.0320  206.3160  153.8470 C   0  0  0  0  0  2  0  0  0  0  0  0
  161.6230  210.1060  154.3680 C   0  0  1  0  0  3  0  0  0  0  0  0
  160.5700  209.7050  152.0920 C   0  0  0  0  0  2  0  0  0  0  0  0
  161.7960  208.5850  154.5290 C   0  0  0  0  0  2  0  0  0  0  0  0
  161.5850  210.5240  152.8880 C   0  0  0  0  0  2  0  0  0  0  0  0
  160.7750  207.8070  153.7000 C   0  0  1  0  0  3  0  0  0  0  0  0
  160.8680  208.2180  152.2340 C   0  0  0  0  0  2  0  0  0  0  0  0
  159.3100  209.8290  155.3330 C   0  0  0  0  0  1  0  0  0  0  0  0
  160.8040  212.3070  157.2610 C   0  0  0  0  0  2  0  0  0  0  0  0
  159.2280  212.7580  155.3960 C   0  0  2  0  0  3  0  0  0  0  0  0
  160.5260  210.7530  155.2450 C   0  0  2  0  0  0  0  0  0  0  0  0
  160.1750  211.9990  154.6460 O   0  0  0  0  0  0  0  0  0  0  0  0
  159.3810  212.6830  156.9210 C   0  0  0  0  0  2  0  0  0  0  0  0
  161.1120  210.9420  156.6600 C   0  0  0  0  0  2  0  0  0  0  0  0
  157.6670  212.2400  153.7130 O   0  0  0  0  0  0  0  0  0  0  0  0
  157.8230  212.5850  154.8730 C   0  0  0  0  0  0  0  0  0  0  0  0
  156.6140  214.3390  156.7670 O   0  0  0  0  0  1  0  0  0  0  0  0
  155.1590  213.0890  154.9900 O   0  0  0  0  0  0  0  0  0  0  0  0
  156.0960  211.6340  156.9470 O   0  0  0  0  0  1  0  0  0  0  0  0
  156.3680  212.9190  155.8820 P   0  0  0  0  0  0  0  0  0  0  0  0
  1  2  2  0  0  0  0
  2 22  1  0  0  0  0
  3  4  1  6  0  0  0
  3  2  1  0  0  0  0
  3  5  1  0  0  0  0
  6  7  1  6  0  0  0
  6  3  1  0  0  0  0
  8  6  1  0  0  0  0
 10  9  2  0  0  0  0
 10  8  1  0  0  0  0
 11 13  1  0  0  0  0
 11 15  1  0  0  0  0
 12 14  1  0  0  0  0
 12 11  1  0  0  0  0
 13 15  1  0  0  0  0
 13 17  1  1  0  0  0
 14 11  1  0  0  0  0
 15 10  1  1  0  0  0
 16 17  2  0  0  0  0
 17 18  1  0  0  0  0
 18 21  1  0  0  0  0
 20 19  1  0  0  0  0
 21 20  1  0  0  0  0
 21 19  1  0  0  0  0
 23 26  1  6  0  0  0
 23 25  1  0  0  0  0
 23 32  1  0  0  0  0
 24 28  1  0  0  0  0
 24 26  1  0  0  0  0
 27 22  1  6  0  0  0
 27 25  1  0  0  0  0
 28 27  1  0  0  0  0
 31 37  1  1  0  0  0
 31 34  1  0  0  0  0
 32 29  1  1  0  0  0
 32 35  1  0  0  0  0
 33 32  1  0  0  0  0
 33 31  1  0  0  0  0
 34 30  1  0  0  0  0
 35 30  1  0  0  0  0
 36 37  2  0  0  0  0
 37 41  1  0  0  0  0
 39 41  2  0  0  0  0
 41 38  1  0  0  0  0
 41 40  1  0  0  0  0
M  END
>  <MODEL>
9

>  <REMARK>
 VINA RESULT:      -5.5      3.496      9.878
  Name = 
  13 active torsions:
  status: ('A' for Active; 'I' for Inactive)
    1  A    between atoms: C_4  and  C_24
    2  A    between atoms: C_6  and  C_16
    3  A    between atoms: C_6  and  C_34
    4  A    between atoms: C_10  and  C_30
    5  A    between atoms: C_16  and  C_27
    6  A    between atoms: C_19  and  C_32
    7  A    between atoms: C_19  and  C_34
    8  A    between atoms: C_20  and  C_21
    9  A    between atoms: C_20  and  C_25
   10  A    between atoms: C_21  and  C_29
   11  A    between atoms: C_27  and  C_36
   12  A    between atoms: C_30  and  P_40
   13  A    between atoms: C_36  and  C_37
                            x       y       z     vdW  Elec       q    Type
                         _______ _______ _______ _____ _____    ______ ____

>  <TORSDO>
F 13

$$$$
