=
 OpenBabel11072414493D

 45 50  0  0  1  0  0  0  0  0999 V2000
  160.7670  212.7000  150.5560 N   0  0  0  0  0  1  0  0  0  0  0  0
  160.8230  210.4500  151.5470 C   0  0  0  0  0  0  0  0  0  0  0  0
  161.2290  209.1100  151.4660 C   0  0  0  0  0  0  0  0  0  0  0  0
  161.1730  211.3340  150.5120 C   0  0  0  0  0  0  0  0  0  0  0  0
  161.9000  210.8860  149.4510 N   0  0  0  0  0  0  0  0  0  0  0  0
  161.9750  208.6810  150.3590 C   0  0  0  0  0  3  0  0  0  0  0  0
  162.3030  209.5920  149.3530 C   0  0  0  0  0  3  0  0  0  0  0  0
  160.8820  208.2240  152.4920 O   0  0  0  0  0  0  0  0  0  0  0  0
  161.8160  207.7570  153.4650 C   0  0  1  0  0  3  0  0  0  0  0  0
  161.1640  206.8330  154.4820 C   0  0  0  0  0  0  0  0  0  0  0  0
  160.0590  207.3850  156.1510 C   0  0  0  0  0  2  0  0  0  0  0  0
  161.5590  207.1560  155.8830 C   0  0  0  0  0  2  0  0  0  0  0  0
  159.6960  207.0450  154.6970 C   0  0  0  0  0  2  0  0  0  0  0  0
  161.9880  206.2300  153.3670 C   0  0  1  0  0  3  0  0  0  0  0  0
  161.1390  205.6670  152.4070 O   0  0  0  0  0  0  0  0  0  0  0  0
  161.9930  205.0190  151.5110 C   0  0  0  0  0  2  0  0  0  0  0  0
  161.0300  202.6890  150.7600 C   0  0  2  0  0  3  0  0  0  0  0  0
  159.8890  203.6500  151.0730 C   0  0  0  0  0  2  0  0  0  0  0  0
  161.6720  202.2770  151.9990 N   0  0  0  0  0  1  0  0  0  0  0  0
  161.1900  204.1890  150.5170 C   0  0  1  0  0  0  0  0  0  0  0  0
  160.5660  206.3050  147.4310 C   0  0  0  0  0  3  0  0  0  0  0  0
  161.1190  204.6240  149.0860 C   0  0  0  0  0  0  0  0  0  0  0  0
  160.9770  205.4460  146.4070 C   0  0  0  0  0  0  0  0  0  0  0  0
  161.4380  204.1630  146.7270 C   0  0  0  0  0  3  0  0  0  0  0  0
  160.6320  205.8950  148.7650 C   0  0  0  0  0  3  0  0  0  0  0  0
  161.5060  203.7530  148.0600 C   0  0  0  0  0  3  0  0  0  0  0  0
  160.9120  205.9120  145.0170 C   0  0  0  0  0  3  0  0  0  0  0  0
  161.4520  205.2440  144.0550 N   0  0  0  0  0  2  0  0  0  0  0  0
  159.9750  210.9050  152.6910 C   0  0  0  0  0  2  0  0  0  0  0  0
  160.8070  211.5840  153.6790 N   0  0  0  0  0  2  0  0  0  0  0  0
  160.9020  210.7970  154.9110 C   0  0  1  0  0  3  0  0  0  0  0  0
  162.3510  210.7090  155.3800 C   0  0  0  0  0  1  0  0  0  0  0  0
  159.9580  211.3020  156.0160 C   0  0  1  0  0  3  0  0  0  0  0  0
  160.4620  210.9560  157.2610 F   0  0  0  0  0  0  0  0  0  0  0  0
  159.7940  212.8150  155.9610 C   0  0  2  0  0  3  0  0  0  0  0  0
  160.4880  213.4030  157.0010 F   0  0  0  0  0  0  0  0  0  0  0  0
  158.3850  213.1800  156.0530 N   0  0  0  0  0  2  0  0  0  0  0  0
  157.9350  213.5030  154.7610 N   0  0  0  0  0  0  0  0  0  0  0  0
  155.4080  210.9940  154.8740 C   0  0  0  0  0  3  0  0  0  0  0  0
  156.0810  209.9990  155.4960 F   0  0  0  0  0  0  0  0  0  0  0  0
  156.6090  213.2440  154.3270 C   0  0  0  0  0  0  0  0  0  0  0  0
  158.0080  214.4040  152.6540 C   0  0  0  0  0  2  0  0  0  0  0  0
  156.0080  212.1180  154.6040 C   0  0  0  0  0  0  0  0  0  0  0  0
  158.6590  214.3990  153.9660 N   0  0  0  0  0  2  0  0  0  0  0  0
  156.2110  214.1280  152.8500 S   0  0  0  0  0  0  0  0  0  0  0  0
  2 29  1  0  0  0  0
  3  2  1  0  0  0  0
  3  8  1  0  0  0  0
  4  1  1  0  0  0  0
  4  2  2  0  0  0  0
  5  4  1  0  0  0  0
  6  3  2  0  0  0  0
  7  5  2  0  0  0  0
  7  6  1  0  0  0  0
  9  8  1  6  0  0  0
  9 10  1  0  0  0  0
 10 13  1  0  0  0  0
 10 12  1  0  0  0  0
 12 11  1  0  0  0  0
 13 11  1  0  0  0  0
 14 15  1  6  0  0  0
 14  9  1  0  0  0  0
 14 10  1  0  0  0  0
 16 15  1  0  0  0  0
 17 18  1  0  0  0  0
 17 19  1  1  0  0  0
 20 17  1  0  0  0  0
 20 18  1  0  0  0  0
 20 16  1  1  0  0  0
 21 25  1  0  0  0  0
 22 20  1  0  0  0  0
 23 24  1  0  0  0  0
 23 21  2  0  0  0  0
 24 26  2  0  0  0  0
 25 22  2  0  0  0  0
 26 22  1  0  0  0  0
 27 23  1  0  0  0  0
 28 27  2  0  0  0  0
 29 30  1  0  0  0  0
 30 31  1  0  0  0  0
 31 32  1  1  0  0  0
 31 33  1  0  0  0  0
 33 34  1  1  0  0  0
 35 33  1  0  0  0  0
 35 37  1  0  0  0  0
 35 36  1  1  0  0  0
 38 37  1  0  0  0  0
 39 40  1  0  0  0  0
 41 43  2  0  0  0  0
 41 38  1  0  0  0  0
 42 45  1  0  0  0  0
 42 44  1  0  0  0  0
 43 39  2  0  0  0  0
 44 38  1  0  0  0  0
 45 41  1  0  0  0  0
M  END
>  <MODEL>
1

>  <REMARK>
 VINA RESULT:      -6.3      0.000      0.000
  Name = 
  14 active torsions:
  status: ('A' for Active; 'I' for Inactive)
    1  A    between atoms: N_1  and  N_3
    2  A    between atoms: C_2  and  C_31
    3  A    between atoms: N_3  and  C_5
    4  A    between atoms: O_4  and  C_7
    5  A    between atoms: O_4  and  C_33
    6  A    between atoms: C_5  and  C_13
    7  A    between atoms: C_12  and  N_19
    8  A    between atoms: C_12  and  C_23
    9  A    between atoms: C_13  and  C_21
   10  A    between atoms: C_18  and  C_28
   11  A    between atoms: N_19  and  C_21
   12  A    between atoms: O_24  and  C_40
   13  A    between atoms: O_24  and  C_41
   14  A    between atoms: C_28  and  C_40
                            x       y       z     vdW  Elec       q    Type
                         _______ _______ _______ _____ _____    ______ ____

>  <TORSDO>
F 14

$$$$
=
 OpenBabel11072414493D

 45 50  0  0  1  0  0  0  0  0999 V2000
  162.7400  205.4220  151.5910 N   0  0  0  0  0  1  0  0  0  0  0  0
  161.5370  207.4930  152.1450 C   0  0  0  0  0  0  0  0  0  0  0  0
  160.7530  208.2240  153.0510 C   0  0  0  0  0  0  0  0  0  0  0  0
  161.9530  206.1970  152.4910 C   0  0  0  0  0  0  0  0  0  0  0  0
  161.5960  205.6670  153.6950 N   0  0  0  0  0  0  0  0  0  0  0  0
  160.4030  207.6480  154.2810 C   0  0  0  0  0  3  0  0  0  0  0  0
  160.8380  206.3570  154.5860 C   0  0  0  0  0  3  0  0  0  0  0  0
  160.3350  209.5160  152.7100 O   0  0  0  0  0  0  0  0  0  0  0  0
  159.7660  210.4210  153.6550 C   0  0  1  0  0  3  0  0  0  0  0  0
  160.8200  211.3170  154.2890 C   0  0  0  0  0  0  0  0  0  0  0  0
  162.0890  210.8400  155.8620 C   0  0  0  0  0  2  0  0  0  0  0  0
  160.6660  211.4220  155.7680 C   0  0  0  0  0  2  0  0  0  0  0  0
  162.2060  210.7480  154.3330 C   0  0  0  0  0  2  0  0  0  0  0  0
  159.9470  211.8790  153.1900 C   0  0  1  0  0  3  0  0  0  0  0  0
  160.6830  211.9630  152.0020 O   0  0  0  0  0  0  0  0  0  0  0  0
  159.7260  211.9120  150.9860 C   0  0  0  0  0  2  0  0  0  0  0  0
  158.5830  214.1960  150.3560 C   0  0  2  0  0  3  0  0  0  0  0  0
  159.9290  214.4520  151.0220 C   0  0  0  0  0  2  0  0  0  0  0  0
  157.6270  213.7340  151.3510 N   0  0  0  0  0  1  0  0  0  0  0  0
  159.7350  213.2080  150.1830 C   0  0  1  0  0  0  0  0  0  0  0  0
  162.3800  213.7550  147.5200 C   0  0  0  0  0  3  0  0  0  0  0  0
  160.4240  213.2430  148.8540 C   0  0  0  0  0  0  0  0  0  0  0  0
  161.7210  213.3180  146.3670 C   0  0  0  0  0  0  0  0  0  0  0  0
  160.3990  212.8640  146.4590 C   0  0  0  0  0  3  0  0  0  0  0  0
  161.7330  213.7230  148.7580 C   0  0  0  0  0  3  0  0  0  0  0  0
  159.7530  212.8290  147.6960 C   0  0  0  0  0  3  0  0  0  0  0  0
  162.4330  213.3490  145.0850 C   0  0  0  0  0  3  0  0  0  0  0  0
  161.9980  212.7050  144.0550 N   0  0  0  0  0  2  0  0  0  0  0  0
  161.8640  208.0720  150.8070 C   0  0  0  0  0  2  0  0  0  0  0  0
  161.0930  207.3880  149.7730 N   0  0  0  0  0  2  0  0  0  0  0  0
  161.3770  207.9510  148.4510 C   0  0  1  0  0  3  0  0  0  0  0  0
  162.0010  209.3370  148.5810 C   0  0  0  0  0  1  0  0  0  0  0  0
  162.2180  207.0110  147.5700 C   0  0  1  0  0  3  0  0  0  0  0  0
  163.1700  206.3660  148.3440 F   0  0  0  0  0  0  0  0  0  0  0  0
  161.3500  205.9600  146.8900 C   0  0  2  0  0  3  0  0  0  0  0  0
  160.1930  205.7620  147.6180 F   0  0  0  0  0  0  0  0  0  0  0  0
  162.0710  204.6980  146.7750 N   0  0  0  0  0  2  0  0  0  0  0  0
  161.4840  203.7810  147.6630 N   0  0  0  0  0  0  0  0  0  0  0  0
  160.0350  201.9230  144.9910 C   0  0  0  0  0  3  0  0  0  0  0  0
  159.6530  202.9320  144.1730 F   0  0  0  0  0  0  0  0  0  0  0  0
  161.1580  202.4520  147.2850 C   0  0  0  0  0  0  0  0  0  0  0  0
  160.7040  202.9630  149.6590 C   0  0  0  0  0  2  0  0  0  0  0  0
  160.5980  202.1890  146.1350 C   0  0  0  0  0  0  0  0  0  0  0  0
  161.5130  204.0180  149.0430 N   0  0  0  0  0  2  0  0  0  0  0  0
  160.8480  201.4210  148.6850 S   0  0  0  0  0  0  0  0  0  0  0  0
  1  4  1  0  0  0  0
  2  4  2  0  0  0  0
  2  3  1  0  0  0  0
  3  6  2  0  0  0  0
  4  5  1  0  0  0  0
  5  7  2  0  0  0  0
  6  7  1  0  0  0  0
  8  3  1  0  0  0  0
  9  8  1  6  0  0  0
  9 10  1  0  0  0  0
 10 13  1  0  0  0  0
 10 12  1  0  0  0  0
 12 11  1  0  0  0  0
 13 11  1  0  0  0  0
 14 15  1  6  0  0  0
 14  9  1  0  0  0  0
 14 10  1  0  0  0  0
 16 15  1  0  0  0  0
 17 18  1  0  0  0  0
 17 19  1  1  0  0  0
 20 17  1  0  0  0  0
 20 16  1  1  0  0  0
 20 18  1  0  0  0  0
 21 25  1  0  0  0  0
 22 20  1  0  0  0  0
 23 24  1  0  0  0  0
 23 21  2  0  0  0  0
 24 26  2  0  0  0  0
 25 22  2  0  0  0  0
 26 22  1  0  0  0  0
 27 23  1  0  0  0  0
 28 27  2  0  0  0  0
 29  2  1  0  0  0  0
 30 29  1  0  0  0  0
 31 32  1  1  0  0  0
 31 30  1  0  0  0  0
 33 34  1  1  0  0  0
 33 31  1  0  0  0  0
 35 33  1  0  0  0  0
 35 36  1  1  0  0  0
 37 35  1  0  0  0  0
 37 38  1  0  0  0  0
 38 44  1  0  0  0  0
 39 43  2  0  0  0  0
 40 39  1  0  0  0  0
 41 38  1  0  0  0  0
 41 45  1  0  0  0  0
 43 41  2  0  0  0  0
 44 42  1  0  0  0  0
 45 42  1  0  0  0  0
M  END
>  <MODEL>
2

>  <REMARK>
 VINA RESULT:      -5.8      4.481      9.019
  Name = 
  14 active torsions:
  status: ('A' for Active; 'I' for Inactive)
    1  A    between atoms: N_1  and  N_3
    2  A    between atoms: C_2  and  C_31
    3  A    between atoms: N_3  and  C_5
    4  A    between atoms: O_4  and  C_7
    5  A    between atoms: O_4  and  C_33
    6  A    between atoms: C_5  and  C_13
    7  A    between atoms: C_12  and  N_19
    8  A    between atoms: C_12  and  C_23
    9  A    between atoms: C_13  and  C_21
   10  A    between atoms: C_18  and  C_28
   11  A    between atoms: N_19  and  C_21
   12  A    between atoms: O_24  and  C_40
   13  A    between atoms: O_24  and  C_41
   14  A    between atoms: C_28  and  C_40
                            x       y       z     vdW  Elec       q    Type
                         _______ _______ _______ _____ _____    ______ ____

>  <TORSDO>
F 14

$$$$
=
 OpenBabel11072414493D

 45 50  0  0  1  0  0  0  0  0999 V2000
  162.0400  210.4270  152.5130 N   0  0  0  0  0  1  0  0  0  0  0  0
  162.0230  208.9540  150.5440 C   0  0  0  0  0  0  0  0  0  0  0  0
  162.0230  208.8100  149.1490 C   0  0  0  0  0  0  0  0  0  0  0  0
  162.0510  210.2440  151.0990 C   0  0  0  0  0  0  0  0  0  0  0  0
  162.0820  211.3350  150.2840 N   0  0  0  0  0  0  0  0  0  0  0  0
  162.0540  209.9540  148.3380 C   0  0  0  0  0  3  0  0  0  0  0  0
  162.0820  211.2180  148.9300 C   0  0  0  0  0  3  0  0  0  0  0  0
  161.9930  207.5270  148.5900 O   0  0  0  0  0  0  0  0  0  0  0  0
  160.9410  207.0760  147.7390 C   0  0  1  0  0  3  0  0  0  0  0  0
  161.2960  205.7730  147.0370 C   0  0  0  0  0  0  0  0  0  0  0  0
  162.4580  205.5440  145.3320 C   0  0  0  0  0  2  0  0  0  0  0  0
  160.9600  205.7960  145.5850 C   0  0  0  0  0  2  0  0  0  0  0  0
  162.7620  205.5280  146.8380 C   0  0  0  0  0  2  0  0  0  0  0  0
  160.3760  205.7320  148.2360 C   0  0  1  0  0  3  0  0  0  0  0  0
  161.0740  205.2480  149.3480 O   0  0  0  0  0  0  0  0  0  0  0  0
  160.1910  204.3600  149.9660 C   0  0  0  0  0  2  0  0  0  0  0  0
  161.8830  202.7430  151.1670 C   0  0  2  0  0  3  0  0  0  0  0  0
  160.4570  202.2430  151.3600 C   0  0  0  0  0  2  0  0  0  0  0  0
  162.0960  203.9320  151.9780 N   0  0  0  0  0  1  0  0  0  0  0  0
  160.8260  202.9790  150.0900 C   0  0  1  0  0  0  0  0  0  0  0  0
  161.5210  199.9890  147.8620 C   0  0  0  0  0  3  0  0  0  0  0  0
  160.9310  202.1090  148.8760 C   0  0  0  0  0  0  0  0  0  0  0  0
  161.1380  200.4710  146.6070 C   0  0  0  0  0  0  0  0  0  0  0  0
  160.6720  201.7870  146.4870 C   0  0  0  0  0  3  0  0  0  0  0  0
  161.4240  200.8050  148.9920 C   0  0  0  0  0  3  0  0  0  0  0  0
  160.5720  202.6020  147.6160 C   0  0  0  0  0  3  0  0  0  0  0  0
  161.2360  199.5850  145.4430 C   0  0  0  0  0  3  0  0  0  0  0  0
  161.1600  198.3020  145.5610 N   0  0  0  0  0  2  0  0  0  0  0  0
  161.9280  207.7440  151.4180 C   0  0  0  0  0  2  0  0  0  0  0  0
  160.7280  207.8280  152.2450 N   0  0  0  0  0  2  0  0  0  0  0  0
  160.8250  206.9270  153.3970 C   0  0  1  0  0  3  0  0  0  0  0  0
  162.2830  206.6010  153.7020 C   0  0  0  0  0  1  0  0  0  0  0  0
  160.0710  207.4540  154.6300 C   0  0  1  0  0  3  0  0  0  0  0  0
  160.4470  206.7350  155.7550 F   0  0  0  0  0  0  0  0  0  0  0  0
  160.3630  208.9290  154.8740 C   0  0  2  0  0  3  0  0  0  0  0  0
  161.5380  209.0650  155.5880 F   0  0  0  0  0  0  0  0  0  0  0  0
  159.2720  209.5500  155.6160 N   0  0  0  0  0  2  0  0  0  0  0  0
  159.0930  210.8510  155.1160 N   0  0  0  0  0  0  0  0  0  0  0  0
  155.5560  210.6460  155.4870 C   0  0  0  0  0  3  0  0  0  0  0  0
  155.3440  209.3680  155.0950 F   0  0  0  0  0  0  0  0  0  0  0  0
  157.9640  211.6470  155.4430 C   0  0  0  0  0  0  0  0  0  0  0  0
  159.6230  212.7910  154.0150 C   0  0  0  0  0  2  0  0  0  0  0  0
  156.7590  211.1430  155.4670 C   0  0  0  0  0  0  0  0  0  0  0  0
  160.1730  211.5470  154.5590 N   0  0  0  0  0  2  0  0  0  0  0  0
  158.2120  213.3480  155.0370 S   0  0  0  0  0  0  0  0  0  0  0  0
  2  4  1  0  0  0  0
  2 29  1  0  0  0  0
  3  2  2  0  0  0  0
  4  1  1  0  0  0  0
  5  4  2  0  0  0  0
  6  7  2  0  0  0  0
  6  3  1  0  0  0  0
  7  5  1  0  0  0  0
  8  3  1  0  0  0  0
  9 14  1  0  0  0  0
  9  8  1  1  0  0  0
 10  9  1  0  0  0  0
 10 14  1  0  0  0  0
 11 12  1  0  0  0  0
 11 13  1  0  0  0  0
 12 10  1  0  0  0  0
 13 10  1  0  0  0  0
 14 15  1  1  0  0  0
 15 16  1  0  0  0  0
 17 18  1  0  0  0  0
 17 19  1  1  0  0  0
 20 16  1  6  0  0  0
 20 17  1  0  0  0  0
 20 18  1  0  0  0  0
 21 25  1  0  0  0  0
 22 25  2  0  0  0  0
 22 20  1  0  0  0  0
 23 21  2  0  0  0  0
 24 23  1  0  0  0  0
 24 26  2  0  0  0  0
 26 22  1  0  0  0  0
 27 28  2  0  0  0  0
 27 23  1  0  0  0  0
 29 30  1  0  0  0  0
 30 31  1  0  0  0  0
 31 32  1  1  0  0  0
 31 33  1  0  0  0  0
 33 35  1  0  0  0  0
 33 34  1  1  0  0  0
 35 36  1  1  0  0  0
 35 37  1  0  0  0  0
 38 41  1  0  0  0  0
 38 37  1  0  0  0  0
 40 39  1  0  0  0  0
 41 43  2  0  0  0  0
 42 44  1  0  0  0  0
 42 45  1  0  0  0  0
 43 39  2  0  0  0  0
 44 38  1  0  0  0  0
 45 41  1  0  0  0  0
M  END
>  <MODEL>
3

>  <REMARK>
 VINA RESULT:      -5.7      2.416      4.480
  Name = 
  14 active torsions:
  status: ('A' for Active; 'I' for Inactive)
    1  A    between atoms: N_1  and  N_3
    2  A    between atoms: C_2  and  C_31
    3  A    between atoms: N_3  and  C_5
    4  A    between atoms: O_4  and  C_7
    5  A    between atoms: O_4  and  C_33
    6  A    between atoms: C_5  and  C_13
    7  A    between atoms: C_12  and  N_19
    8  A    between atoms: C_12  and  C_23
    9  A    between atoms: C_13  and  C_21
   10  A    between atoms: C_18  and  C_28
   11  A    between atoms: N_19  and  C_21
   12  A    between atoms: O_24  and  C_40
   13  A    between atoms: O_24  and  C_41
   14  A    between atoms: C_28  and  C_40
                            x       y       z     vdW  Elec       q    Type
                         _______ _______ _______ _____ _____    ______ ____

>  <TORSDO>
F 14

$$$$
=
 OpenBabel11072414493D

 45 50  0  0  1  0  0  0  0  0999 V2000
  160.1510  213.8560  147.0240 N   0  0  0  0  0  1  0  0  0  0  0  0
  159.4990  213.3480  149.3390 C   0  0  0  0  0  0  0  0  0  0  0  0
  158.5120  213.3340  150.3360 C   0  0  0  0  0  0  0  0  0  0  0  0
  159.1700  213.8170  148.0570 C   0  0  0  0  0  0  0  0  0  0  0  0
  157.9040  214.2480  147.7940 N   0  0  0  0  0  0  0  0  0  0  0  0
  157.2190  213.7860  150.0320 C   0  0  0  0  0  3  0  0  0  0  0  0
  156.9340  214.2430  148.7450 C   0  0  0  0  0  3  0  0  0  0  0  0
  158.8340  212.8690  151.6160 O   0  0  0  0  0  0  0  0  0  0  0  0
  158.9810  213.7340  152.7420 C   0  0  1  0  0  3  0  0  0  0  0  0
  158.1000  213.3070  153.9060 C   0  0  0  0  0  0  0  0  0  0  0  0
  156.0780  213.7050  154.1600 C   0  0  0  0  0  2  0  0  0  0  0  0
  157.3740  214.4530  154.5240 C   0  0  0  0  0  2  0  0  0  0  0  0
  156.8640  212.5440  153.5320 C   0  0  0  0  0  2  0  0  0  0  0  0
  159.5730  212.9710  153.9410 C   0  0  1  0  0  3  0  0  0  0  0  0
  159.7530  211.6110  153.6620 O   0  0  0  0  0  0  0  0  0  0  0  0
  160.8390  211.2250  154.4500 C   0  0  0  0  0  2  0  0  0  0  0  0
  160.6020  209.9010  156.7120 C   0  0  2  0  0  3  0  0  0  0  0  0
  159.2540  209.9720  156.0040 C   0  0  0  0  0  2  0  0  0  0  0  0
  160.9370  211.2090  157.2530 N   0  0  0  0  0  1  0  0  0  0  0  0
  160.5270  209.9270  155.1860 C   0  0  1  0  0  0  0  0  0  0  0  0
  160.7570  206.1950  154.5400 C   0  0  0  0  0  3  0  0  0  0  0  0
  160.7790  208.6180  154.5030 C   0  0  0  0  0  0  0  0  0  0  0  0
  161.2530  206.1610  153.2340 C   0  0  0  0  0  0  0  0  0  0  0  0
  161.5340  207.3630  152.5710 C   0  0  0  0  0  3  0  0  0  0  0  0
  160.5250  207.4180  155.1750 C   0  0  0  0  0  3  0  0  0  0  0  0
  161.3010  208.5850  153.2030 C   0  0  0  0  0  3  0  0  0  0  0  0
  161.4700  204.8620  152.5880 C   0  0  0  0  0  3  0  0  0  0  0  0
  160.5950  203.9160  152.6610 N   0  0  0  0  0  2  0  0  0  0  0  0
  160.8950  212.9270  149.6680 C   0  0  0  0  0  2  0  0  0  0  0  0
  160.9710  211.4690  149.7120 N   0  0  0  0  0  2  0  0  0  0  0  0
  161.7780  210.9550  148.6020 C   0  0  1  0  0  3  0  0  0  0  0  0
  162.8280  211.9790  148.1840 C   0  0  0  0  0  1  0  0  0  0  0  0
  162.3900  209.5750  148.8990 C   0  0  1  0  0  3  0  0  0  0  0  0
  162.5070  209.3960  150.2690 F   0  0  0  0  0  0  0  0  0  0  0  0
  161.5330  208.4520  148.3310 C   0  0  2  0  0  3  0  0  0  0  0  0
  160.7910  207.8690  149.3410 F   0  0  0  0  0  0  0  0  0  0  0  0
  162.3710  207.4380  147.7000 N   0  0  0  0  0  2  0  0  0  0  0  0
  161.8270  206.1780  147.9990 N   0  0  0  0  0  0  0  0  0  0  0  0
  161.2690  205.4570  144.5550 C   0  0  0  0  0  3  0  0  0  0  0  0
  160.8490  206.6670  144.1190 F   0  0  0  0  0  0  0  0  0  0  0  0
  161.8410  205.1000  147.0750 C   0  0  0  0  0  0  0  0  0  0  0  0
  160.8800  204.5260  149.2770 C   0  0  0  0  0  2  0  0  0  0  0  0
  161.5570  205.2810  145.8140 C   0  0  0  0  0  0  0  0  0  0  0  0
  161.5620  205.8210  149.3270 N   0  0  0  0  0  2  0  0  0  0  0  0
  161.4940  203.5540  147.8550 S   0  0  0  0  0  0  0  0  0  0  0  0
  1  4  1  0  0  0  0
  2 29  1  0  0  0  0
  2  3  1  0  0  0  0
  3  8  1  0  0  0  0
  4  2  2  0  0  0  0
  5  4  1  0  0  0  0
  5  7  2  0  0  0  0
  6  3  2  0  0  0  0
  7  6  1  0  0  0  0
  9  8  1  6  0  0  0
  9 10  1  0  0  0  0
  9 14  1  0  0  0  0
 10 14  1  0  0  0  0
 10 12  1  0  0  0  0
 11 12  1  0  0  0  0
 13 10  1  0  0  0  0
 13 11  1  0  0  0  0
 14 15  1  6  0  0  0
 15 16  1  0  0  0  0
 17 19  1  1  0  0  0
 18 17  1  0  0  0  0
 20 16  1  6  0  0  0
 20 18  1  0  0  0  0
 20 17  1  0  0  0  0
 21 25  1  0  0  0  0
 22 25  2  0  0  0  0
 22 20  1  0  0  0  0
 23 21  2  0  0  0  0
 24 26  2  0  0  0  0
 24 23  1  0  0  0  0
 26 22  1  0  0  0  0
 27 28  2  0  0  0  0
 27 23  1  0  0  0  0
 29 30  1  0  0  0  0
 31 32  1  1  0  0  0
 31 33  1  0  0  0  0
 31 30  1  0  0  0  0
 33 34  1  1  0  0  0
 35 33  1  0  0  0  0
 35 36  1  1  0  0  0
 37 38  1  0  0  0  0
 37 35  1  0  0  0  0
 38 44  1  0  0  0  0
 39 43  2  0  0  0  0
 40 39  1  0  0  0  0
 41 45  1  0  0  0  0
 41 38  1  0  0  0  0
 42 44  1  0  0  0  0
 43 41  2  0  0  0  0
 45 42  1  0  0  0  0
M  END
>  <MODEL>
4

>  <REMARK>
 VINA RESULT:      -5.6      3.920      8.205
  Name = 
  14 active torsions:
  status: ('A' for Active; 'I' for Inactive)
    1  A    between atoms: N_1  and  N_3
    2  A    between atoms: C_2  and  C_31
    3  A    between atoms: N_3  and  C_5
    4  A    between atoms: O_4  and  C_7
    5  A    between atoms: O_4  and  C_33
    6  A    between atoms: C_5  and  C_13
    7  A    between atoms: C_12  and  N_19
    8  A    between atoms: C_12  and  C_23
    9  A    between atoms: C_13  and  C_21
   10  A    between atoms: C_18  and  C_28
   11  A    between atoms: N_19  and  C_21
   12  A    between atoms: O_24  and  C_40
   13  A    between atoms: O_24  and  C_41
   14  A    between atoms: C_28  and  C_40
                            x       y       z     vdW  Elec       q    Type
                         _______ _______ _______ _____ _____    ______ ____

>  <TORSDO>
F 14

$$$$
=
 OpenBabel11072414493D

 45 50  0  0  1  0  0  0  0  0999 V2000
  160.3610  211.2590  153.4470 N   0  0  0  0  0  1  0  0  0  0  0  0
  160.7250  208.9990  152.5480 C   0  0  0  0  0  0  0  0  0  0  0  0
  160.8890  207.6250  152.7770 C   0  0  0  0  0  0  0  0  0  0  0  0
  160.5190  209.8550  153.6430 C   0  0  0  0  0  0  0  0  0  0  0  0
  160.4780  209.3470  154.9060 N   0  0  0  0  0  0  0  0  0  0  0  0
  160.8420  207.1350  154.0900 C   0  0  0  0  0  3  0  0  0  0  0  0
  160.6340  208.0190  155.1490 C   0  0  0  0  0  3  0  0  0  0  0  0
  161.0960  206.7670  151.6910 O   0  0  0  0  0  0  0  0  0  0  0  0
  162.0780  205.7320  151.6950 C   0  0  1  0  0  3  0  0  0  0  0  0
  161.5240  204.4190  151.1610 C   0  0  0  0  0  0  0  0  0  0  0  0
  160.3870  203.0250  152.1980 C   0  0  0  0  0  2  0  0  0  0  0  0
  161.8990  203.2530  152.0100 C   0  0  0  0  0  2  0  0  0  0  0  0
  160.0440  204.2350  151.3160 C   0  0  0  0  0  2  0  0  0  0  0  0
  162.3890  205.2700  150.2590 C   0  0  1  0  0  3  0  0  0  0  0  0
  161.5880  205.9190  149.3130 O   0  0  0  0  0  0  0  0  0  0  0  0
  162.3690  205.9680  148.1570 C   0  0  0  0  0  2  0  0  0  0  0  0
  160.5440  206.1410  146.2700 C   0  0  2  0  0  3  0  0  0  0  0  0
  161.9240  205.9730  145.6470 C   0  0  0  0  0  2  0  0  0  0  0  0
  160.4200  207.4800  146.8250 N   0  0  0  0  0  1  0  0  0  0  0  0
  161.6250  205.3340  146.9860 C   0  0  1  0  0  0  0  0  0  0  0  0
  161.0760  201.8180  145.6720 C   0  0  0  0  0  3  0  0  0  0  0  0
  161.4610  203.8470  146.9400 C   0  0  0  0  0  0  0  0  0  0  0  0
  161.1460  201.0600  146.8440 C   0  0  0  0  0  0  0  0  0  0  0  0
  161.3520  201.7050  148.0710 C   0  0  0  0  0  3  0  0  0  0  0  0
  161.2280  203.2060  145.7190 C   0  0  0  0  0  3  0  0  0  0  0  0
  161.5060  203.0910  148.1190 C   0  0  0  0  0  3  0  0  0  0  0  0
  161.0000  199.6030  146.7600 C   0  0  0  0  0  3  0  0  0  0  0  0
  161.3100  198.9530  145.6890 N   0  0  0  0  0  2  0  0  0  0  0  0
  160.8350  209.5410  151.1590 C   0  0  0  0  0  2  0  0  0  0  0  0
  162.1170  210.2210  150.9970 N   0  0  0  0  0  2  0  0  0  0  0  0
  162.3280  210.6090  149.6000 C   0  0  1  0  0  3  0  0  0  0  0  0
  162.3050  209.3830  148.6930 C   0  0  0  0  0  1  0  0  0  0  0  0
  161.3550  211.7040  149.1310 C   0  0  1  0  0  3  0  0  0  0  0  0
  161.1200  212.6000  150.1620 F   0  0  0  0  0  0  0  0  0  0  0  0
  161.9100  212.4690  147.9370 C   0  0  2  0  0  3  0  0  0  0  0  0
  163.1590  212.9760  148.2420 F   0  0  0  0  0  0  0  0  0  0  0  0
  161.0190  213.5650  147.5730 N   0  0  0  0  0  2  0  0  0  0  0  0
  160.5010  213.2960  146.2950 N   0  0  0  0  0  0  0  0  0  0  0  0
  157.1530  213.2880  147.5120 C   0  0  0  0  0  3  0  0  0  0  0  0
  157.3260  212.6500  148.6930 F   0  0  0  0  0  0  0  0  0  0  0  0
  159.1810  213.6550  145.9140 C   0  0  0  0  0  0  0  0  0  0  0  0
  160.5070  212.6240  144.1020 C   0  0  0  0  0  2  0  0  0  0  0  0
  158.1670  213.4730  146.7170 C   0  0  0  0  0  0  0  0  0  0  0  0
  161.3620  212.9810  145.2370 N   0  0  0  0  0  2  0  0  0  0  0  0
  158.9560  213.5920  144.1630 S   0  0  0  0  0  0  0  0  0  0  0  0
  1  4  1  0  0  0  0
  2  3  2  0  0  0  0
  2  4  1  0  0  0  0
  3  6  1  0  0  0  0
  4  5  2  0  0  0  0
  5  7  1  0  0  0  0
  6  7  2  0  0  0  0
  8  3  1  0  0  0  0
  9  8  1  6  0  0  0
 10 13  1  0  0  0  0
 10  9  1  0  0  0  0
 10 12  1  0  0  0  0
 12 11  1  0  0  0  0
 13 11  1  0  0  0  0
 14 15  1  6  0  0  0
 14 10  1  0  0  0  0
 14  9  1  0  0  0  0
 16 15  1  0  0  0  0
 17 19  1  1  0  0  0
 17 20  1  0  0  0  0
 18 17  1  0  0  0  0
 18 20  1  0  0  0  0
 20 16  1  1  0  0  0
 21 25  2  0  0  0  0
 21 23  1  0  0  0  0
 22 20  1  0  0  0  0
 22 26  2  0  0  0  0
 23 24  2  0  0  0  0
 24 26  1  0  0  0  0
 25 22  1  0  0  0  0
 27 23  1  0  0  0  0
 28 27  2  0  0  0  0
 29  2  1  0  0  0  0
 30 29  1  0  0  0  0
 31 32  1  6  0  0  0
 31 30  1  0  0  0  0
 33 31  1  0  0  0  0
 33 34  1  1  0  0  0
 35 36  1  1  0  0  0
 35 33  1  0  0  0  0
 37 35  1  0  0  0  0
 38 37  1  0  0  0  0
 39 40  1  0  0  0  0
 41 38  1  0  0  0  0
 41 43  2  0  0  0  0
 42 45  1  0  0  0  0
 42 44  1  0  0  0  0
 43 39  2  0  0  0  0
 44 38  1  0  0  0  0
 45 41  1  0  0  0  0
M  END
>  <MODEL>
5

>  <REMARK>
 VINA RESULT:      -5.0      3.650      5.935
  Name = 
  14 active torsions:
  status: ('A' for Active; 'I' for Inactive)
    1  A    between atoms: N_1  and  N_3
    2  A    between atoms: C_2  and  C_31
    3  A    between atoms: N_3  and  C_5
    4  A    between atoms: O_4  and  C_7
    5  A    between atoms: O_4  and  C_33
    6  A    between atoms: C_5  and  C_13
    7  A    between atoms: C_12  and  N_19
    8  A    between atoms: C_12  and  C_23
    9  A    between atoms: C_13  and  C_21
   10  A    between atoms: C_18  and  C_28
   11  A    between atoms: N_19  and  C_21
   12  A    between atoms: O_24  and  C_40
   13  A    between atoms: O_24  and  C_41
   14  A    between atoms: C_28  and  C_40
                            x       y       z     vdW  Elec       q    Type
                         _______ _______ _______ _____ _____    ______ ____

>  <TORSDO>
F 14

$$$$
=
 OpenBabel11072414493D

 45 50  0  0  1  0  0  0  0  0999 V2000
  161.2120  206.8190  154.3540 N   0  0  0  0  0  1  0  0  0  0  0  0
  160.4700  208.9840  153.4530 C   0  0  0  0  0  0  0  0  0  0  0  0
  160.0020  210.2860  153.6830 C   0  0  0  0  0  0  0  0  0  0  0  0
  160.7460  208.1520  154.5510 C   0  0  0  0  0  0  0  0  0  0  0  0
  160.5600  208.6150  155.8190 N   0  0  0  0  0  0  0  0  0  0  0  0
  159.8210  210.7300  155.0010 C   0  0  0  0  0  3  0  0  0  0  0  0
  160.1070  209.8720  156.0630 C   0  0  0  0  0  3  0  0  0  0  0  0
  159.7240  211.1190  152.5930 O   0  0  0  0  0  0  0  0  0  0  0  0
  158.4310  211.6680  152.3460 C   0  0  1  0  0  3  0  0  0  0  0  0
  158.3700  213.1520  152.6790 C   0  0  0  0  0  0  0  0  0  0  0  0
  158.1170  214.0060  154.5540 C   0  0  0  0  0  2  0  0  0  0  0  0
  157.1530  213.5120  153.4600 C   0  0  0  0  0  2  0  0  0  0  0  0
  159.3460  213.6190  153.7170 C   0  0  0  0  0  2  0  0  0  0  0  0
  158.4940  212.7310  151.2320 C   0  0  1  0  0  3  0  0  0  0  0  0
  159.8030  212.9500  150.7890 O   0  0  0  0  0  0  0  0  0  0  0  0
  159.7190  214.0810  149.9740 C   0  0  0  0  0  2  0  0  0  0  0  0
  161.2570  213.7470  147.8650 C   0  0  2  0  0  3  0  0  0  0  0  0
  160.6520  212.4140  148.2870 C   0  0  0  0  0  2  0  0  0  0  0  0
  162.2760  214.1440  148.8250 N   0  0  0  0  0  1  0  0  0  0  0  0
  159.8720  213.6920  148.5080 C   0  0  1  0  0  0  0  0  0  0  0  0
  156.3720  214.3750  147.2140 C   0  0  0  0  0  3  0  0  0  0  0  0
  158.7170  213.8830  147.5740 C   0  0  0  0  0  0  0  0  0  0  0  0
  156.5450  214.2360  145.8340 C   0  0  0  0  0  0  0  0  0  0  0  0
  157.8070  213.8970  145.3270 C   0  0  0  0  0  3  0  0  0  0  0  0
  157.4510  214.1940  148.0820 C   0  0  0  0  0  3  0  0  0  0  0  0
  158.8860  213.7180  146.1940 C   0  0  0  0  0  3  0  0  0  0  0  0
  155.3960  214.4490  144.9460 C   0  0  0  0  0  3  0  0  0  0  0  0
  154.1850  214.2590  145.3510 N   0  0  0  0  0  2  0  0  0  0  0  0
  160.6090  208.4780  152.0530 C   0  0  0  0  0  2  0  0  0  0  0  0
  161.5830  209.2910  151.3310 N   0  0  0  0  0  2  0  0  0  0  0  0
  162.3660  208.4680  150.4060 C   0  0  1  0  0  3  0  0  0  0  0  0
  162.6060  207.0820  150.9930 C   0  0  0  0  0  1  0  0  0  0  0  0
  161.7540  208.4100  148.9950 C   0  0  1  0  0  3  0  0  0  0  0  0
  162.1560  209.5140  148.2600 F   0  0  0  0  0  0  0  0  0  0  0  0
  162.1820  207.1490  148.2540 C   0  0  2  0  0  3  0  0  0  0  0  0
  162.9850  207.4840  147.1800 F   0  0  0  0  0  0  0  0  0  0  0  0
  161.0160  206.4160  147.7770 N   0  0  0  0  0  2  0  0  0  0  0  0
  160.8270  205.3060  148.6180 N   0  0  0  0  0  0  0  0  0  0  0  0
  161.3730  203.0200  145.9400 C   0  0  0  0  0  3  0  0  0  0  0  0
  160.7230  203.6590  144.9400 F   0  0  0  0  0  0  0  0  0  0  0  0
  161.3930  204.0340  148.3440 C   0  0  0  0  0  0  0  0  0  0  0  0
  160.1470  204.1440  150.4740 C   0  0  0  0  0  2  0  0  0  0  0  0
  161.3840  203.5290  147.1390 C   0  0  0  0  0  0  0  0  0  0  0  0
  160.3680  205.4850  149.9280 N   0  0  0  0  0  2  0  0  0  0  0  0
  161.3560  202.9730  149.7550 S   0  0  0  0  0  0  0  0  0  0  0  0
  1  4  1  0  0  0  0
  2  3  2  0  0  0  0
  2  4  1  0  0  0  0
  3  6  1  0  0  0  0
  4  5  2  0  0  0  0
  5  7  1  0  0  0  0
  6  7  2  0  0  0  0
  8  3  1  0  0  0  0
  9  8  1  1  0  0  0
  9 10  1  0  0  0  0
 10 12  1  0  0  0  0
 10 13  1  0  0  0  0
 12 11  1  0  0  0  0
 13 11  1  0  0  0  0
 14 15  1  1  0  0  0
 14  9  1  0  0  0  0
 14 10  1  0  0  0  0
 16 15  1  0  0  0  0
 17 18  1  0  0  0  0
 17 20  1  0  0  0  0
 17 19  1  1  0  0  0
 18 20  1  0  0  0  0
 20 16  1  1  0  0  0
 21 25  1  0  0  0  0
 22 25  2  0  0  0  0
 22 20  1  0  0  0  0
 23 21  2  0  0  0  0
 24 23  1  0  0  0  0
 24 26  2  0  0  0  0
 26 22  1  0  0  0  0
 27 28  2  0  0  0  0
 27 23  1  0  0  0  0
 29  2  1  0  0  0  0
 30 29  1  0  0  0  0
 31 32  1  1  0  0  0
 31 30  1  0  0  0  0
 33 34  1  6  0  0  0
 33 31  1  0  0  0  0
 35 36  1  6  0  0  0
 35 33  1  0  0  0  0
 37 35  1  0  0  0  0
 37 38  1  0  0  0  0
 38 44  1  0  0  0  0
 39 43  2  0  0  0  0
 40 39  1  0  0  0  0
 41 38  1  0  0  0  0
 41 45  1  0  0  0  0
 43 41  2  0  0  0  0
 44 42  1  0  0  0  0
 45 42  1  0  0  0  0
M  END
>  <MODEL>
6

>  <REMARK>
 VINA RESULT:      -4.7      4.938      9.031
  Name = 
  14 active torsions:
  status: ('A' for Active; 'I' for Inactive)
    1  A    between atoms: N_1  and  N_3
    2  A    between atoms: C_2  and  C_31
    3  A    between atoms: N_3  and  C_5
    4  A    between atoms: O_4  and  C_7
    5  A    between atoms: O_4  and  C_33
    6  A    between atoms: C_5  and  C_13
    7  A    between atoms: C_12  and  N_19
    8  A    between atoms: C_12  and  C_23
    9  A    between atoms: C_13  and  C_21
   10  A    between atoms: C_18  and  C_28
   11  A    between atoms: N_19  and  C_21
   12  A    between atoms: O_24  and  C_40
   13  A    between atoms: O_24  and  C_41
   14  A    between atoms: C_28  and  C_40
                            x       y       z     vdW  Elec       q    Type
                         _______ _______ _______ _____ _____    ______ ____

>  <TORSDO>
F 14

$$$$
=
 OpenBabel11072414493D

 45 50  0  0  1  0  0  0  0  0999 V2000
  162.0330  212.2390  149.1130 N   0  0  0  0  0  1  0  0  0  0  0  0
  161.5420  210.3940  150.6620 C   0  0  0  0  0  0  0  0  0  0  0  0
  161.5240  209.0160  150.9250 C   0  0  0  0  0  0  0  0  0  0  0  0
  162.0120  210.8460  149.4180 C   0  0  0  0  0  0  0  0  0  0  0  0
  162.4440  209.9510  148.4870 N   0  0  0  0  0  0  0  0  0  0  0  0
  161.9750  208.1210  149.9430 C   0  0  0  0  0  3  0  0  0  0  0  0
  162.4340  208.6120  148.7210 C   0  0  0  0  0  3  0  0  0  0  0  0
  161.0550  208.5580  152.1620 O   0  0  0  0  0  0  0  0  0  0  0  0
  161.9210  208.1000  153.1990 C   0  0  1  0  0  3  0  0  0  0  0  0
  161.1800  207.2650  154.2320 C   0  0  0  0  0  0  0  0  0  0  0  0
  160.0340  207.9610  155.8170 C   0  0  0  0  0  2  0  0  0  0  0  0
  161.5290  207.6440  155.6310 C   0  0  0  0  0  2  0  0  0  0  0  0
  159.7160  207.5620  154.3690 C   0  0  0  0  0  2  0  0  0  0  0  0
  162.0180  206.5630  153.1890 C   0  0  1  0  0  3  0  0  0  0  0  0
  161.1830  205.9910  152.2220 O   0  0  0  0  0  0  0  0  0  0  0  0
  162.0240  205.1720  151.4640 C   0  0  0  0  0  2  0  0  0  0  0  0
  161.0660  202.8050  150.8270 C   0  0  2  0  0  3  0  0  0  0  0  0
  159.9240  203.7660  151.1310 C   0  0  0  0  0  2  0  0  0  0  0  0
  161.7430  202.4470  152.0640 N   0  0  0  0  0  1  0  0  0  0  0  0
  161.2050  204.2960  150.5230 C   0  0  1  0  0  0  0  0  0  0  0  0
  160.3040  206.1940  147.3640 C   0  0  0  0  0  3  0  0  0  0  0  0
  161.0940  204.6750  149.0790 C   0  0  0  0  0  0  0  0  0  0  0  0
  160.8770  205.3900  146.3740 C   0  0  0  0  0  0  0  0  0  0  0  0
  161.5410  204.2120  146.7410 C   0  0  0  0  0  3  0  0  0  0  0  0
  160.4070  205.8360  148.7110 C   0  0  0  0  0  3  0  0  0  0  0  0
  161.6460  203.8550  148.0860 C   0  0  0  0  0  3  0  0  0  0  0  0
  160.7660  205.8010  144.9700 C   0  0  0  0  0  3  0  0  0  0  0  0
  161.3740  205.1620  144.0280 N   0  0  0  0  0  2  0  0  0  0  0  0
  161.0060  211.3530  151.6760 C   0  0  0  0  0  2  0  0  0  0  0  0
  159.6760  211.8010  151.2740 N   0  0  0  0  0  2  0  0  0  0  0  0
  159.5370  213.2480  151.4510 C   0  0  1  0  0  3  0  0  0  0  0  0
  160.2710  213.9970  150.3440 C   0  0  0  0  0  1  0  0  0  0  0  0
  158.0710  213.6950  151.5880 C   0  0  1  0  0  3  0  0  0  0  0  0
  157.2960  213.0700  150.6240 F   0  0  0  0  0  0  0  0  0  0  0  0
  157.5110  213.3510  152.9630 C   0  0  2  0  0  3  0  0  0  0  0  0
  157.8740  214.3220  153.8760 F   0  0  0  0  0  0  0  0  0  0  0  0
  158.0100  212.0560  153.4090 N   0  0  0  0  0  2  0  0  0  0  0  0
  157.4360  211.7780  154.6610 N   0  0  0  0  0  0  0  0  0  0  0  0
  160.6290  211.5950  156.2310 C   0  0  0  0  0  3  0  0  0  0  0  0
  161.3340  210.9520  155.2710 F   0  0  0  0  0  0  0  0  0  0  0  0
  158.0890  212.0770  155.8860 C   0  0  0  0  0  0  0  0  0  0  0  0
  155.8230  211.1320  156.1580 C   0  0  0  0  0  2  0  0  0  0  0  0
  159.3610  211.8380  156.0550 C   0  0  0  0  0  0  0  0  0  0  0  0
  156.0640  211.5160  154.7650 N   0  0  0  0  0  2  0  0  0  0  0  0
  156.9800  212.0240  157.2590 S   0  0  0  0  0  0  0  0  0  0  0  0
  1  4  1  0  0  0  0
  2  3  1  0  0  0  0
  2 29  1  0  0  0  0
  3  8  1  0  0  0  0
  4  2  2  0  0  0  0
  5  7  2  0  0  0  0
  5  4  1  0  0  0  0
  6  3  2  0  0  0  0
  7  6  1  0  0  0  0
  9  8  1  6  0  0  0
  9 10  1  0  0  0  0
 10 13  1  0  0  0  0
 10 12  1  0  0  0  0
 12 11  1  0  0  0  0
 13 11  1  0  0  0  0
 14 15  1  6  0  0  0
 14  9  1  0  0  0  0
 14 10  1  0  0  0  0
 16 15  1  0  0  0  0
 17 18  1  0  0  0  0
 17 19  1  1  0  0  0
 20 17  1  0  0  0  0
 20 18  1  0  0  0  0
 20 16  1  1  0  0  0
 21 25  1  0  0  0  0
 22 20  1  0  0  0  0
 23 24  1  0  0  0  0
 23 21  2  0  0  0  0
 24 26  2  0  0  0  0
 25 22  2  0  0  0  0
 26 22  1  0  0  0  0
 27 23  1  0  0  0  0
 28 27  2  0  0  0  0
 30 31  1  0  0  0  0
 30 29  1  0  0  0  0
 31 32  1  6  0  0  0
 31 33  1  0  0  0  0
 33 34  1  6  0  0  0
 33 35  1  0  0  0  0
 35 37  1  0  0  0  0
 35 36  1  1  0  0  0
 37 38  1  0  0  0  0
 38 44  1  0  0  0  0
 38 41  1  0  0  0  0
 40 39  1  0  0  0  0
 41 43  2  0  0  0  0
 41 45  1  0  0  0  0
 42 45  1  0  0  0  0
 43 39  2  0  0  0  0
 44 42  1  0  0  0  0
M  END
>  <MODEL>
7

>  <REMARK>
 VINA RESULT:      -4.6      1.722      2.829
  Name = 
  14 active torsions:
  status: ('A' for Active; 'I' for Inactive)
    1  A    between atoms: N_1  and  N_3
    2  A    between atoms: C_2  and  C_31
    3  A    between atoms: N_3  and  C_5
    4  A    between atoms: O_4  and  C_7
    5  A    between atoms: O_4  and  C_33
    6  A    between atoms: C_5  and  C_13
    7  A    between atoms: C_12  and  N_19
    8  A    between atoms: C_12  and  C_23
    9  A    between atoms: C_13  and  C_21
   10  A    between atoms: C_18  and  C_28
   11  A    between atoms: N_19  and  C_21
   12  A    between atoms: O_24  and  C_40
   13  A    between atoms: O_24  and  C_41
   14  A    between atoms: C_28  and  C_40
                            x       y       z     vdW  Elec       q    Type
                         _______ _______ _______ _____ _____    ______ ____

>  <TORSDO>
F 14

$$$$
=
 OpenBabel11072414493D

 45 50  0  0  1  0  0  0  0  0999 V2000
  162.3000  211.5210  147.9040 N   0  0  0  0  0  1  0  0  0  0  0  0
  161.2990  211.5250  150.1500 C   0  0  0  0  0  0  0  0  0  0  0  0
  160.5350  212.1810  151.1260 C   0  0  0  0  0  0  0  0  0  0  0  0
  161.5190  212.1550  148.9140 C   0  0  0  0  0  0  0  0  0  0  0  0
  160.9890  213.3870  148.6750 N   0  0  0  0  0  0  0  0  0  0  0  0
  160.0050  213.4500  150.8480 C   0  0  0  0  0  3  0  0  0  0  0  0
  160.2460  214.0410  149.6070 C   0  0  0  0  0  3  0  0  0  0  0  0
  160.3140  211.5590  152.3600 O   0  0  0  0  0  0  0  0  0  0  0  0
  160.2270  212.2800  153.5880 C   0  0  1  0  0  3  0  0  0  0  0  0
  158.8780  212.0880  154.2660 C   0  0  0  0  0  0  0  0  0  0  0  0
  157.1040  213.0750  153.8300 C   0  0  0  0  0  2  0  0  0  0  0  0
  158.2980  213.3690  154.7580 C   0  0  0  0  0  2  0  0  0  0  0  0
  157.7380  211.7610  153.3490 C   0  0  0  0  0  2  0  0  0  0  0  0
  160.0720  211.3140  154.7780 C   0  0  1  0  0  3  0  0  0  0  0  0
  159.9810  209.9810  154.3620 O   0  0  0  0  0  0  0  0  0  0  0  0
  159.7190  209.2600  155.5300 C   0  0  0  0  0  2  0  0  0  0  0  0
  161.9740  208.5380  156.6780 C   0  0  2  0  0  3  0  0  0  0  0  0
  160.8330  207.6560  157.1680 C   0  0  0  0  0  2  0  0  0  0  0  0
  161.8440  209.8670  157.2560 N   0  0  0  0  0  1  0  0  0  0  0  0
  160.7990  208.2080  155.7590 C   0  0  1  0  0  0  0  0  0  0  0  0
  162.3160  206.5130  152.7240 C   0  0  0  0  0  3  0  0  0  0  0  0
  161.0770  207.1980  154.6900 C   0  0  0  0  0  0  0  0  0  0  0  0
  161.6000  205.3130  152.6790 C   0  0  0  0  0  0  0  0  0  0  0  0
  160.6030  205.0690  153.6320 C   0  0  0  0  0  3  0  0  0  0  0  0
  162.0530  207.4540  153.7220 C   0  0  0  0  0  3  0  0  0  0  0  0
  160.3410  206.0080  154.6310 C   0  0  0  0  0  3  0  0  0  0  0  0
  161.9120  204.3370  151.6290 C   0  0  0  0  0  3  0  0  0  0  0  0
  161.5790  203.0950  151.7400 N   0  0  0  0  0  2  0  0  0  0  0  0
  161.9200  210.2000  150.4570 C   0  0  0  0  0  2  0  0  0  0  0  0
  162.1340  209.4580  149.2180 N   0  0  0  0  0  2  0  0  0  0  0  0
  161.7720  208.0490  149.3850 C   0  0  1  0  0  3  0  0  0  0  0  0
  160.7470  207.8870  150.5020 C   0  0  0  0  0  1  0  0  0  0  0  0
  161.3160  207.3910  148.0710 C   0  0  1  0  0  3  0  0  0  0  0  0
  162.3720  207.3450  147.1740 F   0  0  0  0  0  0  0  0  0  0  0  0
  160.8130  205.9710  148.3040 C   0  0  2  0  0  3  0  0  0  0  0  0
  160.2710  205.8660  149.5700 F   0  0  0  0  0  0  0  0  0  0  0  0
  161.9040  205.0130  148.1640 N   0  0  0  0  0  2  0  0  0  0  0  0
  161.3680  203.8160  147.6610 N   0  0  0  0  0  0  0  0  0  0  0  0
  160.8520  205.2490  144.4400 C   0  0  0  0  0  3  0  0  0  0  0  0
  160.4260  206.4850  144.7900 F   0  0  0  0  0  0  0  0  0  0  0  0
  161.4000  203.4840  146.2810 C   0  0  0  0  0  0  0  0  0  0  0  0
  160.4220  201.7280  147.7160 C   0  0  0  0  0  2  0  0  0  0  0  0
  161.1280  204.3700  145.3610 C   0  0  0  0  0  0  0  0  0  0  0  0
  161.0920  202.7490  148.5250 N   0  0  0  0  0  2  0  0  0  0  0  0
  161.0590  201.7740  146.0020 S   0  0  0  0  0  0  0  0  0  0  0  0
  1  4  1  0  0  0  0
  2 29  1  0  0  0  0
  2  3  1  0  0  0  0
  3  8  1  0  0  0  0
  4  2  2  0  0  0  0
  5  4  1  0  0  0  0
  5  7  2  0  0  0  0
  6  3  2  0  0  0  0
  7  6  1  0  0  0  0
  9  8  1  6  0  0  0
  9 10  1  0  0  0  0
  9 14  1  0  0  0  0
 10 12  1  0  0  0  0
 10 14  1  0  0  0  0
 11 12  1  0  0  0  0
 13 11  1  0  0  0  0
 13 10  1  0  0  0  0
 14 15  1  6  0  0  0
 15 16  1  0  0  0  0
 17 18  1  0  0  0  0
 17 19  1  1  0  0  0
 20 16  1  6  0  0  0
 20 17  1  0  0  0  0
 20 18  1  0  0  0  0
 21 25  1  0  0  0  0
 22 20  1  0  0  0  0
 23 21  2  0  0  0  0
 23 24  1  0  0  0  0
 24 26  2  0  0  0  0
 25 22  2  0  0  0  0
 26 22  1  0  0  0  0
 27 28  2  0  0  0  0
 27 23  1  0  0  0  0
 30 31  1  0  0  0  0
 30 29  1  0  0  0  0
 31 32  1  1  0  0  0
 33 34  1  6  0  0  0
 33 35  1  0  0  0  0
 33 31  1  0  0  0  0
 35 36  1  1  0  0  0
 37 35  1  0  0  0  0
 38 37  1  0  0  0  0
 38 44  1  0  0  0  0
 39 40  1  0  0  0  0
 39 43  2  0  0  0  0
 41 38  1  0  0  0  0
 42 44  1  0  0  0  0
 43 41  2  0  0  0  0
 45 41  1  0  0  0  0
 45 42  1  0  0  0  0
M  END
>  <MODEL>
8

>  <REMARK>
 VINA RESULT:      -4.6      4.000      8.238
  Name = 
  14 active torsions:
  status: ('A' for Active; 'I' for Inactive)
    1  A    between atoms: N_1  and  N_3
    2  A    between atoms: C_2  and  C_31
    3  A    between atoms: N_3  and  C_5
    4  A    between atoms: O_4  and  C_7
    5  A    between atoms: O_4  and  C_33
    6  A    between atoms: C_5  and  C_13
    7  A    between atoms: C_12  and  N_19
    8  A    between atoms: C_12  and  C_23
    9  A    between atoms: C_13  and  C_21
   10  A    between atoms: C_18  and  C_28
   11  A    between atoms: N_19  and  C_21
   12  A    between atoms: O_24  and  C_40
   13  A    between atoms: O_24  and  C_41
   14  A    between atoms: C_28  and  C_40
                            x       y       z     vdW  Elec       q    Type
                         _______ _______ _______ _____ _____    ______ ____

>  <TORSDO>
F 14

$$$$
=
 OpenBabel11072414493D

 45 50  0  0  1  0  0  0  0  0999 V2000
  162.8050  205.9270  151.8600 N   0  0  0  0  0  1  0  0  0  0  0  0
  161.7210  208.1250  152.0560 C   0  0  0  0  0  0  0  0  0  0  0  0
  160.8890  208.9970  152.7740 C   0  0  0  0  0  0  0  0  0  0  0  0
  161.9740  206.8420  152.5700 C   0  0  0  0  0  0  0  0  0  0  0  0
  161.4150  206.4600  153.7530 N   0  0  0  0  0  0  0  0  0  0  0  0
  160.3300  208.5710  153.9880 C   0  0  0  0  0  3  0  0  0  0  0  0
  160.6070  207.2890  154.4640 C   0  0  0  0  0  3  0  0  0  0  0  0
  160.6320  210.2750  152.2670 O   0  0  0  0  0  0  0  0  0  0  0  0
  159.3190  210.8270  152.1810 C   0  0  1  0  0  3  0  0  0  0  0  0
  159.2380  212.2060  152.8190 C   0  0  0  0  0  0  0  0  0  0  0  0
  159.0370  212.6430  154.8380 C   0  0  0  0  0  2  0  0  0  0  0  0
  158.0430  212.3610  153.6950 C   0  0  0  0  0  2  0  0  0  0  0  0
  160.2410  212.4740  153.9000 C   0  0  0  0  0  2  0  0  0  0  0  0
  159.3180  212.0990  151.3130 C   0  0  1  0  0  3  0  0  0  0  0  0
  160.6050  212.4440  150.8840 O   0  0  0  0  0  0  0  0  0  0  0  0
  160.4300  213.6030  150.1250 C   0  0  0  0  0  2  0  0  0  0  0  0
  161.5840  213.2410  147.7880 C   0  0  2  0  0  3  0  0  0  0  0  0
  160.9620  211.9370  148.2700 C   0  0  0  0  0  2  0  0  0  0  0  0
  162.7690  213.5370  148.5790 N   0  0  0  0  0  1  0  0  0  0  0  0
  160.3190  213.2550  148.6440 C   0  0  1  0  0  0  0  0  0  0  0  0
  157.9010  214.2400  145.8930 C   0  0  0  0  0  3  0  0  0  0  0  0
  159.0470  213.5530  147.9140 C   0  0  0  0  0  0  0  0  0  0  0  0
  156.6670  214.1200  146.5400 C   0  0  0  0  0  0  0  0  0  0  0  0
  156.6290  213.7370  147.8870 C   0  0  0  0  0  3  0  0  0  0  0  0
  159.0860  213.9630  146.5780 C   0  0  0  0  0  3  0  0  0  0  0  0
  157.8130  213.4580  148.5710 C   0  0  0  0  0  3  0  0  0  0  0  0
  155.4390  214.4020  145.7890 C   0  0  0  0  0  3  0  0  0  0  0  0
  155.3360  214.1260  144.5320 N   0  0  0  0  0  2  0  0  0  0  0  0
  162.2730  208.5440  150.7320 C   0  0  0  0  0  2  0  0  0  0  0  0
  161.2950  208.2710  149.6830 N   0  0  0  0  0  2  0  0  0  0  0  0
  161.2580  206.8420  149.3620 C   0  0  1  0  0  3  0  0  0  0  0  0
  159.9430  206.2230  149.8240 C   0  0  0  0  0  1  0  0  0  0  0  0
  161.5520  206.5560  147.8800 C   0  0  1  0  0  3  0  0  0  0  0  0
  162.3480  207.5610  147.3530 F   0  0  0  0  0  0  0  0  0  0  0  0
  162.2680  205.2230  147.7010 C   0  0  2  0  0  3  0  0  0  0  0  0
  163.4710  205.4180  147.0500 F   0  0  0  0  0  0  0  0  0  0  0  0
  161.4450  204.3000  146.9290 N   0  0  0  0  0  2  0  0  0  0  0  0
  161.1670  203.1850  147.7380 N   0  0  0  0  0  0  0  0  0  0  0  0
  159.9680  201.3040  144.9610 C   0  0  0  0  0  3  0  0  0  0  0  0
  159.2920  202.2660  144.2900 F   0  0  0  0  0  0  0  0  0  0  0  0
  161.1300  201.8610  147.2290 C   0  0  0  0  0  0  0  0  0  0  0  0
  160.7740  202.0110  149.6690 C   0  0  0  0  0  2  0  0  0  0  0  0
  160.5500  201.5840  146.0920 C   0  0  0  0  0  0  0  0  0  0  0  0
  161.2580  203.2860  149.1320 N   0  0  0  0  0  2  0  0  0  0  0  0
  161.1900  200.6530  148.5160 S   0  0  0  0  0  0  0  0  0  0  0  0
  1  4  1  0  0  0  0
  2  4  2  0  0  0  0
  2  3  1  0  0  0  0
  3  6  2  0  0  0  0
  4  5  1  0  0  0  0
  5  7  2  0  0  0  0
  6  7  1  0  0  0  0
  8  3  1  0  0  0  0
  9  8  1  1  0  0  0
  9 10  1  0  0  0  0
 10 12  1  0  0  0  0
 10 13  1  0  0  0  0
 12 11  1  0  0  0  0
 13 11  1  0  0  0  0
 14 15  1  1  0  0  0
 14  9  1  0  0  0  0
 14 10  1  0  0  0  0
 16 15  1  0  0  0  0
 17 18  1  0  0  0  0
 17 19  1  1  0  0  0
 17 20  1  0  0  0  0
 18 20  1  0  0  0  0
 20 16  1  1  0  0  0
 21 23  2  0  0  0  0
 21 25  1  0  0  0  0
 22 26  1  0  0  0  0
 22 20  1  0  0  0  0
 23 24  1  0  0  0  0
 24 26  2  0  0  0  0
 25 22  2  0  0  0  0
 27 23  1  0  0  0  0
 28 27  2  0  0  0  0
 29  2  1  0  0  0  0
 30 29  1  0  0  0  0
 31 30  1  0  0  0  0
 31 32  1  6  0  0  0
 33 34  1  1  0  0  0
 33 31  1  0  0  0  0
 35 36  1  6  0  0  0
 35 33  1  0  0  0  0
 37 35  1  0  0  0  0
 37 38  1  0  0  0  0
 38 44  1  0  0  0  0
 39 43  2  0  0  0  0
 40 39  1  0  0  0  0
 41 38  1  0  0  0  0
 41 45  1  0  0  0  0
 43 41  2  0  0  0  0
 44 42  1  0  0  0  0
 45 42  1  0  0  0  0
M  END
>  <MODEL>
9

>  <REMARK>
 VINA RESULT:      -4.6      5.088      9.490
  Name = 
  14 active torsions:
  status: ('A' for Active; 'I' for Inactive)
    1  A    between atoms: N_1  and  N_3
    2  A    between atoms: C_2  and  C_31
    3  A    between atoms: N_3  and  C_5
    4  A    between atoms: O_4  and  C_7
    5  A    between atoms: O_4  and  C_33
    6  A    between atoms: C_5  and  C_13
    7  A    between atoms: C_12  and  N_19
    8  A    between atoms: C_12  and  C_23
    9  A    between atoms: C_13  and  C_21
   10  A    between atoms: C_18  and  C_28
   11  A    between atoms: N_19  and  C_21
   12  A    between atoms: O_24  and  C_40
   13  A    between atoms: O_24  and  C_41
   14  A    between atoms: C_28  and  C_40
                            x       y       z     vdW  Elec       q    Type
                         _______ _______ _______ _____ _____    ______ ____

>  <TORSDO>
F 14

$$$$
