=
 OpenBabel11072415033D

 39 46  0  0  1  0  0  0  0  0999 V2000
  161.1740  206.9190  156.9780 C   0  0  0  0  0  3  0  0  0  0  0  0
  160.8720  208.5090  151.2380 C   0  0  2  0  0  3  0  0  0  0  0  0
  161.0480  210.7620  152.8720 C   0  0  0  0  0  2  0  0  0  0  0  0
  158.4520  213.5430  150.3650 C   0  0  0  0  0  2  0  0  0  0  0  0
  157.5250  211.3220  154.6210 C   0  0  0  0  0  0  0  0  0  0  0  0
  161.3090  210.4780  150.1010 C   0  0  2  0  0  3  0  0  0  0  0  0
  157.5740  213.8870  152.7200 C   0  0  0  0  0  0  0  0  0  0  0  0
  158.7320  209.8200  156.5480 C   0  0  1  0  0  3  0  0  0  0  0  0
  160.1790  211.4340  151.9080 C   0  0  1  0  0  0  0  0  0  0  0  0
  159.9340  211.9480  154.9930 O   0  0  0  0  0  0  0  0  0  0  0  0
  159.0600  210.6620  151.5710 O   0  0  0  0  0  1  0  0  0  0  0  0
  158.8550  213.2900  153.2760 C   0  0  2  0  0  3  0  0  0  0  0  0
  156.4860  211.8580  155.3840 O   0  0  0  0  0  1  0  0  0  0  0  0
  159.9660  212.9240  152.2350 C   0  0  2  0  0  3  0  0  0  0  0  0
  162.2050  207.9680  153.4630 C   0  0  0  0  0  2  0  0  0  0  0  0
  161.5550  207.9450  154.8140 C   0  0  0  0  0  0  0  0  0  0  0  0
  157.0200  211.0600  153.3480 O   0  0  0  0  0  1  0  0  0  0  0  0
  161.1860  207.5380  152.4080 C   0  0  2  0  0  3  0  0  0  0  0  0
  160.5630  208.8780  155.1080 C   0  0  0  0  0  3  0  0  0  0  0  0
  158.5950  212.2460  156.9060 O   0  0  0  0  0  0  0  0  0  0  0  0
  158.6860  212.3640  154.5070 C   0  0  1  0  0  0  0  0  0  0  0  0
  161.6130  210.9640  151.4610 C   0  0  2  0  0  0  0  0  0  0  0  0
  156.7080  214.4530  153.5590 C   0  0  0  0  0  2  0  0  0  0  0  0
  160.8380  207.6270  150.0770 N   0  0  0  0  0  0  0  0  0  0  0  0
  161.2400  206.4490  150.4070 C   0  0  0  0  0  0  0  0  0  0  0  0
  161.9080  209.5400  151.0280 N   0  0  1  0  0  0  0  0  0  0  0  0
  157.3990  214.1900  151.2550 C   0  0  0  0  0  2  0  0  0  0  0  0
  161.5710  206.2940  151.7730 N   0  0  0  0  0  2  0  0  0  0  0  0
  159.8490  208.8390  156.3120 C   0  0  0  0  0  0  0  0  0  0  0  0
  159.8390  213.7390  150.9530 C   0  0  0  0  0  2  0  0  0  0  0  0
  160.1660  207.8540  157.2550 C   0  0  0  0  0  3  0  0  0  0  0  0
  161.8610  206.9570  155.7550 C   0  0  0  0  0  3  0  0  0  0  0  0
  159.2850  211.0730  157.2610 C   0  0  0  0  0  2  0  0  0  0  0  0
  159.2390  212.8720  155.8060 C   0  0  2  0  0  3  0  0  0  0  0  0
  162.3670  210.9820  149.1420 C   0  0  0  0  0  1  0  0  0  0  0  0
  157.9310  209.9660  155.2210 C   0  0  0  0  0  2  0  0  0  0  0  0
  161.3900  205.3500  149.4110 C   0  0  0  0  0  2  0  0  0  0  0  0
  160.9220  204.0290  149.9980 C   0  0  0  0  0  2  0  0  0  0  0  0
  160.9130  203.0430  149.0100 O   0  0  0  0  0  1  0  0  0  0  0  0
  1 31  1  0  0  0  0
  2 24  1  6  0  0  0
  2 18  1  0  0  0  0
  4 30  1  0  0  0  0
  4 27  1  0  0  0  0
  5 36  1  0  0  0  0
  5 13  1  0  0  0  0
  6 35  1  6  0  0  0
  6 26  1  0  0  0  0
  6 22  1  0  0  0  0
  7 23  2  0  0  0  0
  8 36  1  6  0  0  0
  8 33  1  0  0  0  0
  9 11  1  6  0  0  0
  9 14  1  0  0  0  0
  9  3  1  0  0  0  0
 10 34  1  0  0  0  0
 12  7  1  6  0  0  0
 12 21  1  0  0  0  0
 14 30  1  6  0  0  0
 14 12  1  0  0  0  0
 15 16  1  0  0  0  0
 16 19  2  0  0  0  0
 16 32  1  0  0  0  0
 17  5  1  0  0  0  0
 18 15  1  6  0  0  0
 19 29  1  0  0  0  0
 20 33  1  0  0  0  0
 21  5  1  0  0  0  0
 21 10  1  6  0  0  0
 21 34  1  0  0  0  0
 22  9  1  0  0  0  0
 22  3  1  1  0  0  0
 24 25  2  0  0  0  0
 25 28  1  0  0  0  0
 26  2  1  0  0  0  0
 26 22  1  0  0  0  0
 27  7  1  0  0  0  0
 28 18  1  0  0  0  0
 29  8  1  0  0  0  0
 29 31  2  0  0  0  0
 32  1  2  0  0  0  0
 34 20  1  0  0  0  0
 37 38  1  0  0  0  0
 37 25  1  0  0  0  0
 39 38  1  0  0  0  0
M  END
>  <MODEL>
1

>  <REMARK>
 VINA RESULT:      -1.1      0.000      0.000
  Name = 
  2 active torsions:
  status: ('A' for Active; 'I' for Inactive)
    1  A    between atoms: C_12  and  C_28
    2  A    between atoms: C_26  and  C_28
                            x       y       z     vdW  Elec       q    Type
                         _______ _______ _______ _____ _____    ______ ____

>  <TORSDO>
F 2

$$$$
=
 OpenBabel11072415033D

 39 46  0  0  1  0  0  0  0  0999 V2000
  161.1210  206.0710  156.0740 C   0  0  0  0  0  3  0  0  0  0  0  0
  160.8790  208.4680  150.6190 C   0  0  2  0  0  3  0  0  0  0  0  0
  161.3460  210.4380  152.5360 C   0  0  0  0  0  2  0  0  0  0  0  0
  159.0310  213.8090  150.5280 C   0  0  0  0  0  2  0  0  0  0  0  0
  157.9480  211.1340  154.4730 C   0  0  0  0  0  0  0  0  0  0  0  0
  161.5130  210.5160  149.7450 C   0  0  2  0  0  3  0  0  0  0  0  0
  158.2480  213.9170  152.9380 C   0  0  0  0  0  0  0  0  0  0  0  0
  159.0170  209.2550  156.1330 C   0  0  1  0  0  3  0  0  0  0  0  0
  160.5390  211.3290  151.7050 C   0  0  1  0  0  0  0  0  0  0  0  0
  160.4200  211.4330  154.8370 O   0  0  0  0  0  0  0  0  0  0  0  0
  159.3330  210.7400  151.3080 O   0  0  0  0  0  1  0  0  0  0  0  0
  159.4650  213.1110  153.3600 C   0  0  2  0  0  3  0  0  0  0  0  0
  156.9930  211.6690  155.3400 O   0  0  0  0  0  1  0  0  0  0  0  0
  160.5040  212.7740  152.2390 C   0  0  2  0  0  3  0  0  0  0  0  0
  162.1890  207.4800  152.6980 C   0  0  0  0  0  2  0  0  0  0  0  0
  161.5700  207.3400  154.0570 C   0  0  0  0  0  0  0  0  0  0  0  0
  157.3890  211.1080  153.1960 O   0  0  0  0  0  1  0  0  0  0  0  0
  161.1060  207.3150  151.6330 C   0  0  2  0  0  3  0  0  0  0  0  0
  160.6970  208.3270  154.5110 C   0  0  0  0  0  3  0  0  0  0  0  0
  159.1650  211.6070  156.8220 O   0  0  0  0  0  0  0  0  0  0  0  0
  159.2170  212.0480  154.4600 C   0  0  1  0  0  0  0  0  0  0  0  0
  161.9000  210.7720  151.1460 C   0  0  2  0  0  0  0  0  0  0  0  0
  157.4700  214.4530  153.8780 C   0  0  0  0  0  2  0  0  0  0  0  0
  160.7200  207.7650  149.3500 N   0  0  0  0  0  0  0  0  0  0  0  0
  160.9920  206.5160  149.5020 C   0  0  0  0  0  0  0  0  0  0  0  0
  162.0210  209.3980  150.5130 N   0  0  1  0  0  0  0  0  0  0  0  0
  158.0780  214.4380  151.5350 C   0  0  0  0  0  2  0  0  0  0  0  0
  161.3320  206.1370  150.8220 N   0  0  0  0  0  2  0  0  0  0  0  0
  160.0090  208.1990  155.7240 C   0  0  0  0  0  0  0  0  0  0  0  0
  160.4430  213.7690  151.0850 C   0  0  0  0  0  2  0  0  0  0  0  0
  160.2320  207.0640  156.5130 C   0  0  0  0  0  3  0  0  0  0  0  0
  161.7820  206.2040  154.8430 C   0  0  0  0  0  3  0  0  0  0  0  0
  159.7240  210.3280  156.9880 C   0  0  0  0  0  2  0  0  0  0  0  0
  159.8520  212.3060  155.7940 C   0  0  2  0  0  3  0  0  0  0  0  0
  162.6020  211.0290  148.8240 C   0  0  0  0  0  1  0  0  0  0  0  0
  158.2100  209.6710  154.8680 C   0  0  0  0  0  2  0  0  0  0  0  0
  160.9950  205.5560  148.3620 C   0  0  0  0  0  2  0  0  0  0  0  0
  161.4750  206.2360  147.0910 C   0  0  0  0  0  2  0  0  0  0  0  0
  160.4380  206.2940  146.1590 O   0  0  0  0  0  1  0  0  0  0  0  0
  1 31  1  0  0  0  0
  2 24  1  6  0  0  0
  2 18  1  0  0  0  0
  4 30  1  0  0  0  0
  4 27  1  0  0  0  0
  5 36  1  0  0  0  0
  5 13  1  0  0  0  0
  6 35  1  6  0  0  0
  6 26  1  0  0  0  0
  6 22  1  0  0  0  0
  7 23  2  0  0  0  0
  8 36  1  6  0  0  0
  8 33  1  0  0  0  0
  9 11  1  6  0  0  0
  9 14  1  0  0  0  0
  9  3  1  0  0  0  0
 10 34  1  0  0  0  0
 12  7  1  6  0  0  0
 12 21  1  0  0  0  0
 14 30  1  6  0  0  0
 14 12  1  0  0  0  0
 15 16  1  0  0  0  0
 16 19  2  0  0  0  0
 16 32  1  0  0  0  0
 17  5  1  0  0  0  0
 18 15  1  6  0  0  0
 19 29  1  0  0  0  0
 20 33  1  0  0  0  0
 21  5  1  0  0  0  0
 21 10  1  6  0  0  0
 21 34  1  0  0  0  0
 22  9  1  0  0  0  0
 22  3  1  1  0  0  0
 24 25  2  0  0  0  0
 25 28  1  0  0  0  0
 26  2  1  0  0  0  0
 26 22  1  0  0  0  0
 27  7  1  0  0  0  0
 28 18  1  0  0  0  0
 29  8  1  0  0  0  0
 29 31  2  0  0  0  0
 32  1  2  0  0  0  0
 34 20  1  0  0  0  0
 37 25  1  0  0  0  0
 38 37  1  0  0  0  0
 39 38  1  0  0  0  0
M  END
>  <MODEL>
2

>  <REMARK>
 VINA RESULT:       1.1      1.093      1.179
  Name = 
  2 active torsions:
  status: ('A' for Active; 'I' for Inactive)
    1  A    between atoms: C_12  and  C_28
    2  A    between atoms: C_26  and  C_28
                            x       y       z     vdW  Elec       q    Type
                         _______ _______ _______ _____ _____    ______ ____

>  <TORSDO>
F 2

$$$$
=
 OpenBabel11072415033D

 39 46  0  0  1  0  0  0  0  0999 V2000
  160.5420  206.9210  157.2610 C   0  0  0  0  0  3  0  0  0  0  0  0
  160.8790  207.2160  151.3140 C   0  0  2  0  0  3  0  0  0  0  0  0
  161.6650  209.6320  152.4620 C   0  0  0  0  0  2  0  0  0  0  0  0
  160.0720  212.4010  149.2130 C   0  0  0  0  0  2  0  0  0  0  0  0
  158.4160  211.5340  153.7300 C   0  0  0  0  0  0  0  0  0  0  0  0
  161.9070  208.6790  149.8430 C   0  0  2  0  0  3  0  0  0  0  0  0
  159.2690  213.4930  151.3580 C   0  0  0  0  0  0  0  0  0  0  0  0
  159.0740  210.2200  156.0260 C   0  0  1  0  0  3  0  0  0  0  0  0
  161.0590  210.2900  151.3060 C   0  0  1  0  0  0  0  0  0  0  0  0
  160.8910  211.5240  154.1840 O   0  0  0  0  0  0  0  0  0  0  0  0
  159.7730  209.8090  151.0330 O   0  0  0  0  0  1  0  0  0  0  0  0
  160.3020  212.6980  152.1380 C   0  0  2  0  0  3  0  0  0  0  0  0
  157.5590  212.4950  154.2700 O   0  0  0  0  0  1  0  0  0  0  0  0
  161.2840  211.8140  151.3000 C   0  0  2  0  0  3  0  0  0  0  0  0
  161.9320  206.8300  153.7140 C   0  0  0  0  0  2  0  0  0  0  0  0
  161.2670  207.2910  154.9760 C   0  0  0  0  0  0  0  0  0  0  0  0
  157.8910  211.1480  152.4980 O   0  0  0  0  0  1  0  0  0  0  0  0
  160.8620  206.4810  152.6810 C   0  0  2  0  0  3  0  0  0  0  0  0
  160.5850  208.5060  154.9820 C   0  0  0  0  0  3  0  0  0  0  0  0
  159.6460  212.6030  155.8660 O   0  0  0  0  0  0  0  0  0  0  0  0
  159.8340  212.1560  153.5120 C   0  0  1  0  0  0  0  0  0  0  0  0
  162.3030  209.3490  151.0970 C   0  0  2  0  0  0  0  0  0  0  0  0
  158.5850  214.4510  151.9810 C   0  0  0  0  0  2  0  0  0  0  0  0
  160.6200  206.1440  150.3590 N   0  0  0  0  0  0  0  0  0  0  0  0
  160.6480  205.0050  150.9580 C   0  0  0  0  0  0  0  0  0  0  0  0
  162.1780  207.8410  150.9930 N   0  0  1  0  0  0  0  0  0  0  0  0
  159.2320  213.4990  149.8520 C   0  0  0  0  0  2  0  0  0  0  0  0
  160.8810  205.0700  152.3520 N   0  0  0  0  0  2  0  0  0  0  0  0
  159.8590  208.9380  156.0980 C   0  0  0  0  0  0  0  0  0  0  0  0
  161.4380  212.3260  149.8720 C   0  0  0  0  0  2  0  0  0  0  0  0
  159.8460  208.1390  157.2470 C   0  0  0  0  0  3  0  0  0  0  0  0
  161.2430  206.4920  156.1240 C   0  0  0  0  0  3  0  0  0  0  0  0
  159.9500  211.3930  156.5150 C   0  0  0  0  0  2  0  0  0  0  0  0
  160.4760  212.7630  154.7240 C   0  0  2  0  0  3  0  0  0  0  0  0
  163.0940  208.6390  148.9010 C   0  0  0  0  0  1  0  0  0  0  0  0
  158.3880  210.2870  154.6290 C   0  0  0  0  0  2  0  0  0  0  0  0
  160.4960  203.7150  150.2260 C   0  0  0  0  0  2  0  0  0  0  0  0
  161.3170  202.6230  150.8910 C   0  0  0  0  0  2  0  0  0  0  0  0
  161.2690  202.7670  152.2790 O   0  0  0  0  0  1  0  0  0  0  0  0
  2 24  1  6  0  0  0
  2 18  1  0  0  0  0
  4 27  1  0  0  0  0
  4 30  1  0  0  0  0
  5 13  1  0  0  0  0
  5 36  1  0  0  0  0
  6 35  1  6  0  0  0
  6 26  1  0  0  0  0
  6 22  1  0  0  0  0
  7 23  2  0  0  0  0
  8 36  1  6  0  0  0
  8 29  1  0  0  0  0
  8 33  1  0  0  0  0
  9 11  1  6  0  0  0
  9  3  1  0  0  0  0
 10 34  1  0  0  0  0
 12  7  1  6  0  0  0
 12 21  1  0  0  0  0
 14 30  1  6  0  0  0
 14  9  1  0  0  0  0
 14 12  1  0  0  0  0
 15 16  1  0  0  0  0
 16 19  2  0  0  0  0
 16 32  1  0  0  0  0
 17  5  1  0  0  0  0
 18 15  1  1  0  0  0
 19 29  1  0  0  0  0
 20 33  1  0  0  0  0
 21  5  1  0  0  0  0
 21 10  1  6  0  0  0
 21 34  1  0  0  0  0
 22  9  1  0  0  0  0
 22  3  1  1  0  0  0
 24 25  2  0  0  0  0
 25 28  1  0  0  0  0
 26 22  1  0  0  0  0
 26  2  1  0  0  0  0
 27  7  1  0  0  0  0
 28 18  1  0  0  0  0
 29 31  2  0  0  0  0
 31  1  1  0  0  0  0
 32  1  2  0  0  0  0
 34 20  1  0  0  0  0
 37 38  1  0  0  0  0
 37 25  1  0  0  0  0
 38 39  1  0  0  0  0
M  END
>  <MODEL>
3

>  <REMARK>
 VINA RESULT:       1.6      1.378      1.650
  Name = 
  2 active torsions:
  status: ('A' for Active; 'I' for Inactive)
    1  A    between atoms: C_12  and  C_28
    2  A    between atoms: C_26  and  C_28
                            x       y       z     vdW  Elec       q    Type
                         _______ _______ _______ _____ _____    ______ ____

>  <TORSDO>
F 2

$$$$
