=
 OpenBabel11072411323D

 52 56  0  0  1  0  0  0  0  0999 V2000
  161.5890  208.7000  154.8500 C   0  0  1  0  0  3  0  0  0  0  0  0
  160.9000  211.7290  149.9380 C   0  0  0  0  0  0  0  0  0  0  0  0
  159.8420  205.3330  154.1540 C   0  0  0  0  0  3  0  0  0  0  0  0
  161.6380  208.6940  147.6960 C   0  0  0  0  0  2  0  0  0  0  0  0
  161.4250  207.2930  154.2900 C   0  0  2  0  0  3  0  0  0  0  0  0
  161.4360  204.8430  152.3450 C   0  0  0  0  0  0  0  0  0  0  0  0
  162.3320  206.9520  153.3520 C   0  0  0  0  0  2  0  0  0  0  0  0
  160.1220  212.9970  149.8370 C   0  0  0  0  0  1  0  0  0  0  0  0
  162.1790  205.9480  152.2880 C   0  0  0  0  0  3  0  0  0  0  0  0
  162.7230  209.9760  153.1030 C   0  0  0  0  0  2  0  0  0  0  0  0
  160.9960  210.8430  148.7570 C   0  0  0  0  0  3  0  0  0  0  0  0
  161.3530  209.7120  153.7070 C   0  0  1  0  0  0  0  0  0  0  0  0
  161.8420  206.1880  147.4760 C   0  0  1  0  0  3  0  0  0  0  0  0
  161.2910  204.2170  148.6810 C   0  0  0  0  0  2  0  0  0  0  0  0
  160.1110  206.6100  154.4420 C   0  0  0  0  0  3  0  0  0  0  0  0
  161.4260  211.3250  151.0940 C   0  0  0  0  0  3  0  0  0  0  0  0
  161.5560  209.6350  148.8430 C   0  0  0  0  0  3  0  0  0  0  0  0
  160.4130  209.3430  152.7370 O   0  0  0  0  0  1  0  0  0  0  0  0
  160.7610  204.8780  149.9440 C   0  0  0  0  0  2  0  0  0  0  0  0
  161.1510  204.1360  151.1370 N   0  0  0  0  0  2  0  0  0  0  0  0
  161.8990  211.1460  153.6170 C   0  0  2  0  0  3  0  0  0  0  0  0
  162.3930  205.0010  148.1280 N   0  0  0  0  0  2  0  0  0  0  0  0
  161.3040  211.9850  152.4430 C   0  0  0  0  0  2  0  0  0  0  0  0
  160.8620  204.3680  153.6360 C   0  0  0  0  0  2  0  0  0  0  0  0
  162.3620  207.4410  148.1740 C   0  0  0  0  0  2  0  0  0  0  0  0
  162.2200  206.1980  146.0010 C   0  0  0  0  0  2  0  0  0  0  0  0
  161.2440  201.9830  145.7240 C   0  0  0  0  0  2  0  0  0  0  0  0
  160.7940  204.3110  145.0960 C   0  0  0  0  0  0  0  0  0  0  0  0
  159.6290  202.4060  143.9230 C   0  0  0  0  0  2  0  0  0  0  0  0
  161.4430  203.4350  145.8080 N   0  0  0  0  0  0  0  0  0  0  0  0
  159.8520  201.6390  145.2140 C   0  0  1  0  0  3  0  0  0  0  0  0
  159.6530  203.9080  144.2040 C   0  0  0  0  0  2  0  0  0  0  0  0
  161.1010  205.7030  145.2130 N   0  0  0  0  0  2  0  0  0  0  0  0
  159.7710  200.1540  144.9380 C   0  0  0  0  0  1  0  0  0  0  0  0
  160.7180  209.0050  156.0870 C   0  0  2  0  0  3  0  0  0  0  0  0
  159.6300  210.0020  155.7680 C   0  0  0  0  0  0  0  0  0  0  0  0
  158.1090  208.1780  155.3000 O   0  0  0  0  0  1  0  0  0  0  0  0
  158.3730  209.5400  155.3720 C   0  0  0  0  0  0  0  0  0  0  0  0
  159.1770  213.7010  155.4690 C   0  0  0  0  0  1  0  0  0  0  0  0
  157.6180  211.8210  155.1090 C   0  0  0  0  0  0  0  0  0  0  0  0
  157.3720  210.4460  155.0470 C   0  0  0  0  0  3  0  0  0  0  0  0
  159.8600  211.3930  155.8070 C   0  0  0  0  0  0  0  0  0  0  0  0
  160.9990  211.8260  156.1410 O   0  0  0  0  0  0  0  0  0  0  0  0
  158.8650  212.2740  155.4740 N   0  0  0  0  0  0  0  0  0  0  0  0
  156.4990  212.7320  154.7610 C   0  0  0  0  0  0  0  0  0  0  0  0
  156.1420  212.9580  153.3900 N   0  0  0  0  0  2  0  0  0  0  0  0
  155.0990  213.8270  152.9340 C   0  0  0  0  0  0  0  0  0  0  0  0
  154.3710  214.4530  153.7540 O   0  0  0  0  0  1  0  0  0  0  0  0
  155.8870  213.3400  155.6820 O   0  0  0  0  0  0  0  0  0  0  0  0
  154.8840  213.9820  151.5650 O   0  0  0  0  0  0  0  0  0  0  0  0
  162.9150  209.4310  156.9360 O   0  0  0  0  0  1  0  0  0  0  0  0
  161.5600  209.4990  157.2610 C   0  0  0  0  0  2  0  0  0  0  0  0
  1 35  1  1  0  0  0
  2 16  2  0  0  0  0
  3 15  2  0  0  0  0
  4 25  1  0  0  0  0
  4 17  1  0  0  0  0
  5  7  1  6  0  0  0
  5 15  1  0  0  0  0
  5  1  1  0  0  0  0
  6 24  1  0  0  0  0
  8  2  1  0  0  0  0
  9  6  2  0  0  0  0
  9  7  1  0  0  0  0
 10 21  1  0  0  0  0
 10 12  1  0  0  0  0
 11 17  2  0  0  0  0
 11  2  1  0  0  0  0
 12 18  1  6  0  0  0
 12  1  1  0  0  0  0
 13 26  1  6  0  0  0
 13 22  1  0  0  0  0
 13 25  1  0  0  0  0
 14 19  1  0  0  0  0
 16 23  1  0  0  0  0
 19 20  1  0  0  0  0
 20  6  1  0  0  0  0
 21 23  1  6  0  0  0
 21 12  1  0  0  0  0
 22 14  1  0  0  0  0
 24  3  1  0  0  0  0
 27 30  1  0  0  0  0
 28 33  1  0  0  0  0
 28 30  2  0  0  0  0
 29 32  1  0  0  0  0
 29 31  1  0  0  0  0
 31 34  1  6  0  0  0
 31 27  1  0  0  0  0
 32 28  1  0  0  0  0
 33 26  1  0  0  0  0
 35 52  1  1  0  0  0
 36 42  1  0  0  0  0
 36 35  1  0  0  0  0
 37 38  1  0  0  0  0
 38 36  2  0  0  0  0
 39 44  1  0  0  0  0
 40 44  1  0  0  0  0
 41 40  2  0  0  0  0
 41 38  1  0  0  0  0
 42 43  2  0  0  0  0
 44 42  1  0  0  0  0
 45 40  1  0  0  0  0
 45 49  2  0  0  0  0
 46 45  1  0  0  0  0
 47 46  1  0  0  0  0
 47 48  1  0  0  0  0
 50 47  2  0  0  0  0
 51 52  1  0  0  0  0
M  END
>  <MODEL>
1

>  <REMARK>
 VINA RESULT:       3.5      0.000      0.000
  Name = 
  6 active torsions:
  status: ('A' for Active; 'I' for Inactive)
    1  A    between atoms: C_1  and  C_43
    2  A    between atoms: C_2  and  C_43
    3  A    between atoms: C_8  and  C_26
    4  A    between atoms: C_29  and  C_35
    5  A    between atoms: C_35  and  N_46
    6  A    between atoms: C_39  and  C_43
                            x       y       z     vdW  Elec       q    Type
                         _______ _______ _______ _____ _____    ______ ____

>  <TORSDO>
F 6

$$$$
=
 OpenBabel11072411323D

 52 56  0  0  1  0  0  0  0  0999 V2000
  161.1320  205.8910  150.7610 C   0  0  1  0  0  3  0  0  0  0  0  0
  162.2180  211.1210  148.4710 C   0  0  0  0  0  0  0  0  0  0  0  0
  161.9160  206.3060  154.5150 C   0  0  0  0  0  3  0  0  0  0  0  0
  160.5790  212.9950  151.4010 C   0  0  0  0  0  2  0  0  0  0  0  0
  160.8940  206.3070  152.2070 C   0  0  2  0  0  3  0  0  0  0  0  0
  160.1260  207.9790  154.7360 C   0  0  0  0  0  0  0  0  0  0  0  0
  159.8670  207.1610  152.3860 C   0  0  0  0  0  2  0  0  0  0  0  0
  163.2820  211.3900  147.4630 C   0  0  0  0  0  1  0  0  0  0  0  0
  159.6850  208.1190  153.4870 C   0  0  0  0  0  3  0  0  0  0  0  0
  160.2370  207.7100  149.3980 C   0  0  0  0  0  2  0  0  0  0  0  0
  161.8170  212.1960  149.4050 C   0  0  0  0  0  3  0  0  0  0  0  0
  161.5350  207.1430  149.9520 C   0  0  1  0  0  0  0  0  0  0  0  0
  159.7320  212.9400  153.7780 C   0  0  1  0  0  3  0  0  0  0  0  0
  159.8490  211.5590  155.7070 C   0  0  0  0  0  2  0  0  0  0  0  0
  162.0000  206.1420  153.1910 C   0  0  0  0  0  3  0  0  0  0  0  0
  161.6890  209.9060  148.6190 C   0  0  0  0  0  3  0  0  0  0  0  0
  160.9770  211.9580  150.4140 C   0  0  0  0  0  3  0  0  0  0  0  0
  162.2800  208.1110  150.6390 O   0  0  0  0  0  1  0  0  0  0  0  0
  160.6170  210.3980  155.0940 C   0  0  0  0  0  2  0  0  0  0  0  0
  160.1370  209.1170  155.6000 N   0  0  0  0  0  2  0  0  0  0  0  0
  161.3650  207.3600  148.4410 C   0  0  2  0  0  3  0  0  0  0  0  0
  158.9460  212.1420  154.7180 N   0  0  0  0  0  2  0  0  0  0  0  0
  162.0690  208.6410  147.8940 C   0  0  0  0  0  2  0  0  0  0  0  0
  160.6500  206.6720  155.2250 C   0  0  0  0  0  2  0  0  0  0  0  0
  159.5960  212.3550  152.3750 C   0  0  0  0  0  2  0  0  0  0  0  0
  159.2660  214.3900  153.8040 C   0  0  0  0  0  2  0  0  0  0  0  0
  156.0470  213.9800  156.6790 C   0  0  0  0  0  2  0  0  0  0  0  0
  156.7990  214.2880  154.3640 C   0  0  0  0  0  0  0  0  0  0  0  0
  154.3760  213.8170  154.8860 C   0  0  0  0  0  2  0  0  0  0  0  0
  157.0580  214.2030  155.6380 N   0  0  0  0  0  0  0  0  0  0  0  0
  154.6710  214.4530  156.2330 C   0  0  1  0  0  3  0  0  0  0  0  0
  155.3860  214.3070  153.8500 C   0  0  0  0  0  2  0  0  0  0  0  0
  157.8630  214.4520  153.4240 N   0  0  0  0  0  2  0  0  0  0  0  0
  153.6340  214.0070  157.2400 C   0  0  0  0  0  1  0  0  0  0  0  0
  162.1360  204.7330  150.5810 C   0  0  2  0  0  3  0  0  0  0  0  0
  161.6820  203.7650  149.5150 C   0  0  0  0  0  0  0  0  0  0  0  0
  163.0390  204.9360  147.8880 O   0  0  0  0  0  1  0  0  0  0  0  0
  162.1450  203.9220  148.2070 C   0  0  0  0  0  0  0  0  0  0  0  0
  159.3310  200.8860  149.1190 C   0  0  0  0  0  1  0  0  0  0  0  0
  160.8110  202.0310  147.5080 C   0  0  0  0  0  0  0  0  0  0  0  0
  161.7130  203.0570  147.2100 C   0  0  0  0  0  3  0  0  0  0  0  0
  160.7590  202.7340  149.7890 C   0  0  0  0  0  0  0  0  0  0  0  0
  160.3140  202.5940  150.9630 O   0  0  0  0  0  0  0  0  0  0  0  0
  160.3360  201.8950  148.7930 N   0  0  0  0  0  0  0  0  0  0  0  0
  160.4020  201.1360  146.3980 C   0  0  0  0  0  0  0  0  0  0  0  0
  161.1170  199.9180  146.1420 N   0  0  0  0  0  2  0  0  0  0  0  0
  160.8290  198.9890  145.0920 C   0  0  0  0  0  0  0  0  0  0  0  0
  159.8580  199.1770  144.3070 O   0  0  0  0  0  0  0  0  0  0  0  0
  159.4430  201.4730  145.6520 O   0  0  0  0  0  0  0  0  0  0  0  0
  161.6320  197.8600  144.9350 O   0  0  0  0  0  1  0  0  0  0  0  0
  163.1650  202.8620  151.6630 O   0  0  0  0  0  1  0  0  0  0  0  0
  162.3860  203.9950  151.8940 C   0  0  0  0  0  2  0  0  0  0  0  0
  1 35  1  1  0  0  0
  1  5  1  0  0  0  0
  2 16  2  0  0  0  0
  2 11  1  0  0  0  0
  3 24  1  0  0  0  0
  4 25  1  0  0  0  0
  5  7  1  6  0  0  0
  5 15  1  0  0  0  0
  6 24  1  0  0  0  0
  6 20  1  0  0  0  0
  7  9  1  0  0  0  0
  8  2  1  0  0  0  0
  9  6  2  0  0  0  0
 10 12  1  0  0  0  0
 11 17  2  0  0  0  0
 12 18  1  1  0  0  0
 12  1  1  0  0  0  0
 13 26  1  6  0  0  0
 13 22  1  0  0  0  0
 15  3  2  0  0  0  0
 17  4  1  0  0  0  0
 19 20  1  0  0  0  0
 19 14  1  0  0  0  0
 21 23  1  1  0  0  0
 21 10  1  0  0  0  0
 21 12  1  0  0  0  0
 22 14  1  0  0  0  0
 23 16  1  0  0  0  0
 25 13  1  0  0  0  0
 28 30  2  0  0  0  0
 29 31  1  0  0  0  0
 30 27  1  0  0  0  0
 31 27  1  0  0  0  0
 31 34  1  1  0  0  0
 32 28  1  0  0  0  0
 32 29  1  0  0  0  0
 33 26  1  0  0  0  0
 33 28  1  0  0  0  0
 35 52  1  1  0  0  0
 36 42  1  0  0  0  0
 36 35  1  0  0  0  0
 37 38  1  0  0  0  0
 38 36  2  0  0  0  0
 40 44  1  0  0  0  0
 41 40  2  0  0  0  0
 41 38  1  0  0  0  0
 42 43  2  0  0  0  0
 44 39  1  0  0  0  0
 44 42  1  0  0  0  0
 45 40  1  0  0  0  0
 46 45  1  0  0  0  0
 47 46  1  0  0  0  0
 48 47  2  0  0  0  0
 49 45  2  0  0  0  0
 50 47  1  0  0  0  0
 51 52  1  0  0  0  0
M  END
>  <MODEL>
2

>  <REMARK>
 VINA RESULT:       5.6      3.961     10.760
  Name = 
  6 active torsions:
  status: ('A' for Active; 'I' for Inactive)
    1  A    between atoms: C_1  and  C_43
    2  A    between atoms: C_2  and  C_43
    3  A    between atoms: C_8  and  C_26
    4  A    between atoms: C_29  and  C_35
    5  A    between atoms: C_35  and  N_46
    6  A    between atoms: C_39  and  C_43
                            x       y       z     vdW  Elec       q    Type
                         _______ _______ _______ _____ _____    ______ ____

>  <TORSDO>
F 6

$$$$
=
 OpenBabel11072411323D

 52 56  0  0  1  0  0  0  0  0999 V2000
  160.8310  204.5620  148.4380 C   0  0  1  0  0  3  0  0  0  0  0  0
  162.2860  210.1720  148.8760 C   0  0  0  0  0  0  0  0  0  0  0  0
  162.2010  202.9610  151.6690 C   0  0  0  0  0  3  0  0  0  0  0  0
  161.3660  210.3540  152.6040 C   0  0  0  0  0  2  0  0  0  0  0  0
  160.8650  204.1900  149.9150 C   0  0  2  0  0  3  0  0  0  0  0  0
  160.7120  204.3650  153.0340 C   0  0  0  0  0  0  0  0  0  0  0  0
  160.0030  204.8780  150.6900 C   0  0  0  0  0  2  0  0  0  0  0  0
  163.2200  210.8710  147.9470 C   0  0  0  0  0  1  0  0  0  0  0  0
  160.1180  205.1440  152.1320 C   0  0  0  0  0  3  0  0  0  0  0  0
  160.0080  206.8610  148.3600 C   0  0  0  0  0  2  0  0  0  0  0  0
  162.1780  210.6340  150.2770 C   0  0  0  0  0  3  0  0  0  0  0  0
  161.2810  206.0330  148.2950 C   0  0  1  0  0  0  0  0  0  0  0  0
  160.8740  209.1290  154.7550 C   0  0  1  0  0  3  0  0  0  0  0  0
  161.0780  206.9510  155.6820 C   0  0  0  0  0  2  0  0  0  0  0  0
  162.0690  203.4940  150.4500 C   0  0  0  0  0  3  0  0  0  0  0  0
  161.6210  209.0780  148.5030 C   0  0  0  0  0  3  0  0  0  0  0  0
  161.4690  209.9520  151.1770 C   0  0  0  0  0  3  0  0  0  0  0  0
  162.2460  206.4770  149.2090 O   0  0  0  0  0  1  0  0  0  0  0  0
  161.5800  206.2340  154.4390 C   0  0  0  0  0  2  0  0  0  0  0  0
  161.0060  204.8990  154.3260 N   0  0  0  0  0  2  0  0  0  0  0  0
  160.9250  207.0000  147.1550 C   0  0  2  0  0  3  0  0  0  0  0  0
  160.1300  207.9990  155.3100 N   0  0  0  0  0  2  0  0  0  0  0  0
  161.7130  208.3470  147.1890 C   0  0  0  0  0  2  0  0  0  0  0  0
  161.1160  202.9700  152.6990 C   0  0  0  0  0  2  0  0  0  0  0  0
  160.4560  209.3510  153.3040 C   0  0  0  0  0  2  0  0  0  0  0  0
  160.6220  210.3800  155.5860 C   0  0  0  0  0  2  0  0  0  0  0  0
  157.7590  213.2290  154.0100 C   0  0  0  0  0  2  0  0  0  0  0  0
  158.2900  211.3630  155.5120 C   0  0  0  0  0  0  0  0  0  0  0  0
  156.0910  212.5860  155.6940 C   0  0  0  0  0  2  0  0  0  0  0  0
  158.6270  212.1770  154.5530 N   0  0  0  0  0  0  0  0  0  0  0  0
  156.2880  212.9040  154.2230 C   0  0  1  0  0  3  0  0  0  0  0  0
  156.8930  211.3390  156.0660 C   0  0  0  0  0  2  0  0  0  0  0  0
  159.2300  210.4070  156.0080 N   0  0  0  0  0  2  0  0  0  0  0  0
  155.4480  214.1050  153.8490 C   0  0  0  0  0  1  0  0  0  0  0  0
  161.6280  203.6150  147.5170 C   0  0  2  0  0  3  0  0  0  0  0  0
  161.7290  204.1620  146.1140 C   0  0  0  0  0  0  0  0  0  0  0  0
  163.8820  205.1290  146.6550 O   0  0  0  0  0  1  0  0  0  0  0  0
  162.8510  204.9110  145.7500 C   0  0  0  0  0  0  0  0  0  0  0  0
  159.6740  204.3640  142.9970 C   0  0  0  0  0  1  0  0  0  0  0  0
  161.9160  205.2410  143.5460 C   0  0  0  0  0  0  0  0  0  0  0  0
  162.9440  205.4450  144.4710 C   0  0  0  0  0  3  0  0  0  0  0  0
  160.6970  203.9840  145.1690 C   0  0  0  0  0  0  0  0  0  0  0  0
  159.6660  203.3290  145.4900 O   0  0  0  0  0  0  0  0  0  0  0  0
  160.7990  204.5250  143.9140 N   0  0  0  0  0  0  0  0  0  0  0  0
  162.0870  205.8280  142.1940 C   0  0  0  0  0  0  0  0  0  0  0  0
  161.5810  207.1380  141.8980 N   0  0  0  0  0  2  0  0  0  0  0  0
  161.6680  207.7980  140.6300 C   0  0  0  0  0  0  0  0  0  0  0  0
  162.2540  207.2520  139.6540 O   0  0  0  0  0  0  0  0  0  0  0  0
  162.6460  205.1490  141.2900 O   0  0  0  0  0  0  0  0  0  0  0  0
  161.0980  209.0600  140.4730 O   0  0  0  0  0  1  0  0  0  0  0  0
  161.7840  201.3590  148.3000 O   0  0  0  0  0  1  0  0  0  0  0  0
  161.0280  202.2120  147.4960 C   0  0  0  0  0  2  0  0  0  0  0  0
  1 35  1  6  0  0  0
  1  5  1  0  0  0  0
  2 11  1  0  0  0  0
  3 24  1  0  0  0  0
  4 25  1  0  0  0  0
  5 15  1  1  0  0  0
  5  7  1  0  0  0  0
  6 20  1  0  0  0  0
  7  9  1  0  0  0  0
  8  2  1  0  0  0  0
  9  6  2  0  0  0  0
 11 17  2  0  0  0  0
 12 10  1  0  0  0  0
 12  1  1  0  0  0  0
 12 18  1  1  0  0  0
 13 22  1  0  0  0  0
 13 26  1  1  0  0  0
 15  3  2  0  0  0  0
 16  2  2  0  0  0  0
 17  4  1  0  0  0  0
 19 14  1  0  0  0  0
 20 19  1  0  0  0  0
 21 23  1  1  0  0  0
 21 12  1  0  0  0  0
 21 10  1  0  0  0  0
 22 14  1  0  0  0  0
 23 16  1  0  0  0  0
 24  6  1  0  0  0  0
 25 13  1  0  0  0  0
 26 33  1  0  0  0  0
 27 31  1  0  0  0  0
 27 30  1  0  0  0  0
 28 33  1  0  0  0  0
 28 32  1  0  0  0  0
 29 32  1  0  0  0  0
 30 28  2  0  0  0  0
 31 34  1  1  0  0  0
 31 29  1  0  0  0  0
 35 52  1  6  0  0  0
 36 35  1  0  0  0  0
 38 36  2  0  0  0  0
 38 37  1  0  0  0  0
 39 44  1  0  0  0  0
 40 44  1  0  0  0  0
 40 41  2  0  0  0  0
 41 38  1  0  0  0  0
 42 43  2  0  0  0  0
 42 36  1  0  0  0  0
 44 42  1  0  0  0  0
 45 40  1  0  0  0  0
 46 45  1  0  0  0  0
 47 46  1  0  0  0  0
 48 47  2  0  0  0  0
 49 45  2  0  0  0  0
 50 47  1  0  0  0  0
 52 51  1  0  0  0  0
M  END
>  <MODEL>
3

>  <REMARK>
 VINA RESULT:       6.0      4.188     10.622
  Name = 
  6 active torsions:
  status: ('A' for Active; 'I' for Inactive)
    1  A    between atoms: C_1  and  C_43
    2  A    between atoms: C_2  and  C_43
    3  A    between atoms: C_8  and  C_26
    4  A    between atoms: C_29  and  C_35
    5  A    between atoms: C_35  and  N_46
    6  A    between atoms: C_39  and  C_43
                            x       y       z     vdW  Elec       q    Type
                         _______ _______ _______ _____ _____    ______ ____

>  <TORSDO>
F 6

$$$$
