=
 OpenBabel11072410163D

 37 40  0  0  1  0  0  0  0  0999 V2000
  161.6530  206.8250  153.9950 C   0  0  1  0  0  3  0  0  0  0  0  0
  160.9240  205.5740  153.5280 C   0  0  0  0  0  2  0  0  0  0  0  0
  161.9280  206.2400  152.6010 C   0  0  1  0  0  3  0  0  0  0  0  0
  160.3460  208.5910  152.8660 O   0  0  0  0  0  0  0  0  0  0  0  0
  160.5170  210.3400  155.2920 C   0  0  2  0  0  3  0  0  0  0  0  0
  159.6720  210.6760  154.0520 C   0  0  2  0  0  3  0  0  0  0  0  0
  162.6430  209.7950  157.2480 C   0  0  0  0  0  2  0  0  0  0  0  0
  162.0180  208.7340  156.3740 C   0  0  0  0  0  0  0  0  0  0  0  0
  161.3400  211.4440  155.7770 N   0  0  0  0  0  2  0  0  0  0  0  0
  162.9830  212.1640  157.2610 O   0  0  0  0  0  0  0  0  0  0  0  0
  159.4740  207.5650  154.8400 C   0  0  0  0  0  1  0  0  0  0  0  0
  162.3410  211.1990  156.7740 C   0  0  0  0  0  0  0  0  0  0  0  0
  161.4190  209.1380  155.0470 C   0  0  1  0  0  3  0  0  0  0  0  0
  160.7360  208.0710  154.1460 C   0  0  1  0  0  0  0  0  0  0  0  0
  161.4350  210.5890  152.4040 O   0  0  0  0  0  1  0  0  0  0  0  0
  162.0230  207.5720  156.7440 O   0  0  0  0  0  0  0  0  0  0  0  0
  160.2210  210.0100  152.7850 C   0  0  1  0  0  3  0  0  0  0  0  0
  159.4100  212.1660  153.8440 C   0  0  0  0  0  2  0  0  0  0  0  0
  157.7320  213.7600  154.4010 O   0  0  0  0  0  0  0  0  0  0  0  0
  157.2690  211.5910  154.9890 O   0  0  0  0  0  1  0  0  0  0  0  0
  158.0950  212.5540  154.4260 C   0  0  0  0  0  0  0  0  0  0  0  0
  160.7490  205.8180  150.4360 C   0  0  0  0  0  2  0  0  0  0  0  0
  161.4700  206.0880  149.1130 C   0  0  2  0  0  3  0  0  0  0  0  0
  161.2020  206.8950  151.4370 C   0  0  2  0  0  3  0  0  0  0  0  0
  162.1140  207.7700  150.7200 N   0  0  0  0  0  2  0  0  0  0  0  0
  162.2550  207.3040  149.3970 C   0  0  0  0  0  0  0  0  0  0  0  0
  163.0060  207.8690  148.5600 O   0  0  0  0  0  0  0  0  0  0  0  0
  160.4830  206.2880  147.9590 C   0  0  0  0  0  2  0  0  0  0  0  0
  161.0660  205.9240  146.6730 N   0  0  0  0  0  2  0  0  0  0  0  0
  160.6630  204.5550  146.3840 C   0  0  2  0  0  3  0  0  0  0  0  0
  160.9930  201.5270  148.2820 C   0  0  0  0  0  0  0  0  0  0  0  0
  161.3480  202.5610  147.5740 C   0  0  0  0  0  0  0  0  0  0  0  0
  161.7000  203.6020  146.8720 C   0  0  0  0  0  3  0  0  0  0  0  0
  161.5290  200.2780  148.0040 O   0  0  0  0  0  1  0  0  0  0  0  0
  160.0220  201.6880  149.3950 C   0  0  0  0  0  1  0  0  0  0  0  0
  161.6900  205.6290  144.2320 C   0  0  0  0  0  1  0  0  0  0  0  0
  160.4520  204.3530  144.5940 S   0  0  0  0  0  0  0  0  0  0  0  0
  1  2  1  1  0  0  0
  1 14  1  0  0  0  0
  3  2  1  1  0  0  0
  3  1  1  0  0  0  0
  4 14  1  0  0  0  0
  5  9  1  6  0  0  0
  6 18  1  6  0  0  0
  6  5  1  0  0  0  0
  8 16  2  0  0  0  0
  8  7  1  0  0  0  0
  9 12  1  0  0  0  0
 12  7  1  0  0  0  0
 12 10  2  0  0  0  0
 13  5  1  0  0  0  0
 13  8  1  1  0  0  0
 14 11  1  1  0  0  0
 14 13  1  0  0  0  0
 17 15  1  1  0  0  0
 17  4  1  0  0  0  0
 17  6  1  0  0  0  0
 18 21  1  0  0  0  0
 19 21  2  0  0  0  0
 21 20  1  0  0  0  0
 23 28  1  6  0  0  0
 23 26  1  0  0  0  0
 23 22  1  0  0  0  0
 24 22  1  6  0  0  0
 24  3  1  0  0  0  0
 25 24  1  0  0  0  0
 26 25  1  0  0  0  0
 27 26  2  0  0  0  0
 29 28  1  0  0  0  0
 30 29  1  0  0  0  0
 30 33  1  6  0  0  0
 31 35  1  0  0  0  0
 32 31  2  0  0  0  0
 33 32  2  0  0  0  0
 34 31  1  0  0  0  0
 36 37  1  0  0  0  0
 37 30  1  0  0  0  0
M  END
>  <MODEL>
1

>  <REMARK>
 VINA RESULT:      -7.0      0.000      0.000
  Name = 
  9 active torsions:
  status: ('A' for Active; 'I' for Inactive)
    1  A    between atoms: C_4  and  C_34
    2  A    between atoms: C_7  and  C_13
    3  A    between atoms: C_8  and  C_30
    4  A    between atoms: N_9  and  C_13
    5  A    between atoms: N_9  and  C_30
    6  A    between atoms: C_10  and  C_29
    7  A    between atoms: C_15  and  C_16
    8  A    between atoms: C_15  and  C_27
    9  A    between atoms: S_17  and  C_30
                            x       y       z     vdW  Elec       q    Type
                         _______ _______ _______ _____ _____    ______ ____

>  <TORSDO>
F 9

$$$$
=
 OpenBabel11072410163D

 37 40  0  0  1  0  0  0  0  0999 V2000
  161.1340  210.7710  153.8340 C   0  0  1  0  0  3  0  0  0  0  0  0
  161.0450  209.3330  154.3210 C   0  0  0  0  0  2  0  0  0  0  0  0
  161.7990  209.6380  153.0370 C   0  0  1  0  0  3  0  0  0  0  0  0
  159.9360  212.1310  152.1560 O   0  0  0  0  0  0  0  0  0  0  0  0
  157.7350  212.6950  154.1080 C   0  0  2  0  0  3  0  0  0  0  0  0
  157.6930  213.1090  152.6280 C   0  0  2  0  0  3  0  0  0  0  0  0
  158.3000  212.3550  156.9730 C   0  0  0  0  0  2  0  0  0  0  0  0
  158.9870  211.5650  155.8850 C   0  0  0  0  0  0  0  0  0  0  0  0
  157.3560  213.7520  155.0400 N   0  0  0  0  0  2  0  0  0  0  0  0
  157.1630  214.4410  157.2560 O   0  0  0  0  0  0  0  0  0  0  0  0
  158.9050  210.1560  153.0220 C   0  0  0  0  0  1  0  0  0  0  0  0
  157.5750  213.5720  156.4460 C   0  0  0  0  0  0  0  0  0  0  0  0
  159.1080  212.1700  154.5060 C   0  0  1  0  0  3  0  0  0  0  0  0
  159.7770  211.3630  153.3580 C   0  0  1  0  0  0  0  0  0  0  0  0
  159.7310  214.4040  152.5790 O   0  0  0  0  0  1  0  0  0  0  0  0
  159.4480  210.4650  156.1410 O   0  0  0  0  0  0  0  0  0  0  0  0
  159.0990  213.2810  152.0400 C   0  0  1  0  0  3  0  0  0  0  0  0
  156.8000  214.3100  152.3270 C   0  0  0  0  0  2  0  0  0  0  0  0
  154.7730  214.3260  151.0790 O   0  0  0  0  0  1  0  0  0  0  0  0
  156.6280  213.5960  149.9430 O   0  0  0  0  0  0  0  0  0  0  0  0
  156.0080  214.0780  151.0870 C   0  0  0  0  0  0  0  0  0  0  0  0
  161.2710  207.5960  151.6950 C   0  0  0  0  0  2  0  0  0  0  0  0
  161.9610  207.3730  150.3470 C   0  0  2  0  0  3  0  0  0  0  0  0
  161.0240  209.1070  151.8420 C   0  0  2  0  0  3  0  0  0  0  0  0
  161.5130  209.7280  150.6240 N   0  0  0  0  0  2  0  0  0  0  0  0
  162.0400  208.7320  149.7780 C   0  0  0  0  0  0  0  0  0  0  0  0
  162.5510  208.9970  148.6590 O   0  0  0  0  0  0  0  0  0  0  0  0
  161.1690  206.4130  149.4550 C   0  0  0  0  0  2  0  0  0  0  0  0
  161.8320  206.1820  148.1770 N   0  0  0  0  0  2  0  0  0  0  0  0
  160.9820  205.2920  147.3990 C   0  0  2  0  0  3  0  0  0  0  0  0
  160.7580  202.6500  149.8170 C   0  0  0  0  0  0  0  0  0  0  0  0
  161.0740  203.2590  148.7100 C   0  0  0  0  0  0  0  0  0  0  0  0
  161.3960  203.8760  147.6080 C   0  0  0  0  0  3  0  0  0  0  0  0
  160.2510  201.3590  149.7790 O   0  0  0  0  0  1  0  0  0  0  0  0
  160.9510  203.3340  151.1220 C   0  0  0  0  0  1  0  0  0  0  0  0
  161.7590  204.0630  145.2250 C   0  0  0  0  0  1  0  0  0  0  0  0
  161.1200  205.7090  145.6390 S   0  0  0  0  0  0  0  0  0  0  0  0
  1  2  1  1  0  0  0
  3  1  1  0  0  0  0
  3  2  1  1  0  0  0
  4 14  1  0  0  0  0
  5 13  1  0  0  0  0
  5  9  1  1  0  0  0
  6 18  1  1  0  0  0
  6  5  1  0  0  0  0
  8 16  2  0  0  0  0
  8  7  1  0  0  0  0
  9 12  1  0  0  0  0
 12  7  1  0  0  0  0
 12 10  2  0  0  0  0
 13  8  1  1  0  0  0
 14 11  1  6  0  0  0
 14  1  1  0  0  0  0
 14 13  1  0  0  0  0
 17  4  1  0  0  0  0
 17 15  1  1  0  0  0
 17  6  1  0  0  0  0
 19 21  1  0  0  0  0
 20 21  2  0  0  0  0
 21 18  1  0  0  0  0
 23 28  1  6  0  0  0
 23 22  1  0  0  0  0
 24 22  1  6  0  0  0
 24  3  1  0  0  0  0
 25 24  1  0  0  0  0
 26 23  1  0  0  0  0
 26 25  1  0  0  0  0
 27 26  2  0  0  0  0
 29 28  1  0  0  0  0
 30 33  1  6  0  0  0
 30 29  1  0  0  0  0
 31 35  1  0  0  0  0
 32 31  2  0  0  0  0
 33 32  2  0  0  0  0
 34 31  1  0  0  0  0
 36 37  1  0  0  0  0
 37 30  1  0  0  0  0
M  END
>  <MODEL>
2

>  <REMARK>
 VINA RESULT:      -5.5      2.275      3.421
  Name = 
  9 active torsions:
  status: ('A' for Active; 'I' for Inactive)
    1  A    between atoms: C_4  and  C_34
    2  A    between atoms: C_7  and  C_13
    3  A    between atoms: C_8  and  C_30
    4  A    between atoms: N_9  and  C_13
    5  A    between atoms: N_9  and  C_30
    6  A    between atoms: C_10  and  C_29
    7  A    between atoms: C_15  and  C_16
    8  A    between atoms: C_15  and  C_27
    9  A    between atoms: S_17  and  C_30
                            x       y       z     vdW  Elec       q    Type
                         _______ _______ _______ _____ _____    ______ ____

>  <TORSDO>
F 9

$$$$
=
 OpenBabel11072410163D

 37 40  0  0  1  0  0  0  0  0999 V2000
  162.0170  210.4900  152.5980 C   0  0  1  0  0  3  0  0  0  0  0  0
  162.0430  209.0610  153.1180 C   0  0  0  0  0  2  0  0  0  0  0  0
  162.4920  209.3430  151.6930 C   0  0  1  0  0  3  0  0  0  0  0  0
  160.4510  211.7590  151.1710 O   0  0  0  0  0  0  0  0  0  0  0  0
  158.7920  212.4920  153.5550 C   0  0  2  0  0  3  0  0  0  0  0  0
  158.3930  212.8090  152.1040 C   0  0  2  0  0  3  0  0  0  0  0  0
  160.0340  212.3310  156.2130 C   0  0  0  0  0  2  0  0  0  0  0  0
  160.4350  211.4590  155.0480 C   0  0  0  0  0  0  0  0  0  0  0  0
  158.6530  213.6160  154.4760 N   0  0  0  0  0  2  0  0  0  0  0  0
  159.0050  214.4530  156.6200 O   0  0  0  0  0  0  0  0  0  0  0  0
  159.6560  209.8660  152.3930 C   0  0  0  0  0  1  0  0  0  0  0  0
  159.2070  213.5250  155.7960 C   0  0  0  0  0  0  0  0  0  0  0  0
  160.2190  211.9690  153.6430 C   0  0  1  0  0  3  0  0  0  0  0  0
  160.5870  211.0750  152.4260 C   0  0  1  0  0  0  0  0  0  0  0  0
  160.3610  214.0590  151.4740 O   0  0  0  0  0  1  0  0  0  0  0  0
  160.9410  210.3690  155.2600 O   0  0  0  0  0  0  0  0  0  0  0  0
  159.6140  212.9150  151.1830 C   0  0  1  0  0  3  0  0  0  0  0  0
  157.4560  214.0050  151.9460 C   0  0  0  0  0  2  0  0  0  0  0  0
  156.8730  213.3670  149.7280 O   0  0  0  0  0  0  0  0  0  0  0  0
  155.1170  213.9610  151.0800 O   0  0  0  0  0  1  0  0  0  0  0  0
  156.4720  213.7610  150.8550 C   0  0  0  0  0  0  0  0  0  0  0  0
  161.1850  207.3150  151.0360 C   0  0  0  0  0  2  0  0  0  0  0  0
  161.6270  206.4850  149.8280 C   0  0  2  0  0  3  0  0  0  0  0  0
  161.4710  208.7910  150.7110 C   0  0  2  0  0  3  0  0  0  0  0  0
  162.0190  208.8210  149.3660 N   0  0  0  0  0  2  0  0  0  0  0  0
  162.0990  207.5030  148.8710 C   0  0  0  0  0  0  0  0  0  0  0  0
  162.5580  207.2380  147.7300 O   0  0  0  0  0  0  0  0  0  0  0  0
  160.4780  205.6450  149.2640 C   0  0  0  0  0  2  0  0  0  0  0  0
  160.1440  204.5230  150.1340 N   0  0  0  0  0  2  0  0  0  0  0  0
  161.0940  203.4550  149.8530 C   0  0  2  0  0  3  0  0  0  0  0  0
  160.9600  201.7180  146.7160 C   0  0  0  0  0  0  0  0  0  0  0  0
  160.6830  202.0110  147.9540 C   0  0  0  0  0  0  0  0  0  0  0  0
  160.4010  202.3150  149.1900 C   0  0  0  0  0  3  0  0  0  0  0  0
  161.1670  200.3960  146.3450 O   0  0  0  0  0  1  0  0  0  0  0  0
  161.0460  202.7970  145.6980 C   0  0  0  0  0  1  0  0  0  0  0  0
  160.7540  203.9470  152.3990 C   0  0  0  0  0  1  0  0  0  0  0  0
  161.8420  202.8890  151.4050 S   0  0  0  0  0  0  0  0  0  0  0  0
  1  2  1  1  0  0  0
  3  1  1  0  0  0  0
  3  2  1  1  0  0  0
  4 17  1  0  0  0  0
  4 14  1  0  0  0  0
  5 13  1  0  0  0  0
  5  9  1  1  0  0  0
  6 18  1  1  0  0  0
  6  5  1  0  0  0  0
  8 16  2  0  0  0  0
  8  7  1  0  0  0  0
  9 12  1  0  0  0  0
 12  7  1  0  0  0  0
 12 10  2  0  0  0  0
 13  8  1  1  0  0  0
 14 11  1  6  0  0  0
 14  1  1  0  0  0  0
 14 13  1  0  0  0  0
 17 15  1  1  0  0  0
 17  6  1  0  0  0  0
 19 21  2  0  0  0  0
 21 20  1  0  0  0  0
 21 18  1  0  0  0  0
 23 28  1  6  0  0  0
 23 22  1  0  0  0  0
 24 22  1  1  0  0  0
 24  3  1  0  0  0  0
 25 24  1  0  0  0  0
 26 25  1  0  0  0  0
 26 23  1  0  0  0  0
 27 26  2  0  0  0  0
 28 29  1  0  0  0  0
 30 33  1  1  0  0  0
 30 29  1  0  0  0  0
 30 37  1  0  0  0  0
 31 32  2  0  0  0  0
 32 33  2  0  0  0  0
 34 31  1  0  0  0  0
 35 31  1  0  0  0  0
 37 36  1  0  0  0  0
M  END
>  <MODEL>
3

>  <REMARK>
 VINA RESULT:      -5.3      2.576      3.648
  Name = 
  9 active torsions:
  status: ('A' for Active; 'I' for Inactive)
    1  A    between atoms: C_4  and  C_34
    2  A    between atoms: C_7  and  C_13
    3  A    between atoms: C_8  and  C_30
    4  A    between atoms: N_9  and  C_13
    5  A    between atoms: N_9  and  C_30
    6  A    between atoms: C_10  and  C_29
    7  A    between atoms: C_15  and  C_16
    8  A    between atoms: C_15  and  C_27
    9  A    between atoms: S_17  and  C_30
                            x       y       z     vdW  Elec       q    Type
                         _______ _______ _______ _____ _____    ______ ____

>  <TORSDO>
F 9

$$$$
=
 OpenBabel11072410163D

 37 40  0  0  1  0  0  0  0  0999 V2000
  161.7270  208.2620  154.3860 C   0  0  1  0  0  3  0  0  0  0  0  0
  161.4560  206.7660  154.3430 C   0  0  0  0  0  2  0  0  0  0  0  0
  162.1520  207.4300  153.1660 C   0  0  1  0  0  3  0  0  0  0  0  0
  160.0310  209.3560  152.9620 O   0  0  0  0  0  0  0  0  0  0  0  0
  159.3950  211.3150  155.1370 C   0  0  2  0  0  3  0  0  0  0  0  0
  158.6080  211.2130  153.8210 C   0  0  2  0  0  3  0  0  0  0  0  0
  161.3860  211.7280  157.2590 C   0  0  0  0  0  2  0  0  0  0  0  0
  161.2260  210.4310  156.5040 C   0  0  0  0  0  0  0  0  0  0  0  0
  159.7640  212.6760  155.5130 N   0  0  0  0  0  2  0  0  0  0  0  0
  160.9370  214.0610  156.9720 O   0  0  0  0  0  0  0  0  0  0  0  0
  159.3570  208.3200  155.0070 C   0  0  0  0  0  1  0  0  0  0  0  0
  160.6920  212.8900  156.5860 C   0  0  0  0  0  0  0  0  0  0  0  0
  160.6570  210.4640  155.1040 C   0  0  1  0  0  3  0  0  0  0  0  0
  160.4450  209.1390  154.3200 C   0  0  1  0  0  0  0  0  0  0  0  0
  160.4510  211.5400  152.2950 O   0  0  0  0  0  1  0  0  0  0  0  0
  161.5730  209.3850  157.0270 O   0  0  0  0  0  0  0  0  0  0  0  0
  159.4610  210.6350  152.6860 C   0  0  1  0  0  3  0  0  0  0  0  0
  157.8970  212.4970  153.4010 C   0  0  0  0  0  2  0  0  0  0  0  0
  155.7330  213.4620  153.6270 O   0  0  0  0  0  0  0  0  0  0  0  0
  156.1400  211.6270  154.9430 O   0  0  0  0  0  1  0  0  0  0  0  0
  156.5330  212.5610  153.9940 C   0  0  0  0  0  0  0  0  0  0  0  0
  161.1150  206.0600  151.3490 C   0  0  0  0  0  2  0  0  0  0  0  0
  161.6710  206.1420  149.9250 C   0  0  2  0  0  3  0  0  0  0  0  0
  161.2190  207.4660  151.9660 C   0  0  2  0  0  3  0  0  0  0  0  0
  161.7740  208.3290  150.9390 N   0  0  0  0  0  2  0  0  0  0  0  0
  162.0220  207.5670  149.7800 C   0  0  0  0  0  0  0  0  0  0  0  0
  162.5240  208.0650  148.7380 O   0  0  0  0  0  0  0  0  0  0  0  0
  160.6410  205.6870  148.8870 C   0  0  0  0  0  2  0  0  0  0  0  0
  160.0770  204.3820  149.2110 N   0  0  0  0  0  2  0  0  0  0  0  0
  161.1580  203.4090  149.1350 C   0  0  2  0  0  3  0  0  0  0  0  0
  162.5320  204.6160  146.0470 C   0  0  0  0  0  0  0  0  0  0  0  0
  161.9560  203.8000  146.8830 C   0  0  0  0  0  0  0  0  0  0  0  0
  161.3710  202.9900  147.7210 C   0  0  0  0  0  3  0  0  0  0  0  0
  163.5250  204.1520  145.1960 O   0  0  0  0  0  1  0  0  0  0  0  0
  162.1190  206.0430  145.9980 C   0  0  0  0  0  1  0  0  0  0  0  0
  161.6300  202.6050  151.5780 C   0  0  0  0  0  1  0  0  0  0  0  0
  160.7360  201.9580  150.1390 S   0  0  0  0  0  0  0  0  0  0  0  0
  1  2  1  1  0  0  0
  3  2  1  1  0  0  0
  3  1  1  0  0  0  0
  4 14  1  0  0  0  0
  5  9  1  6  0  0  0
  6 18  1  6  0  0  0
  6  5  1  0  0  0  0
  8 16  2  0  0  0  0
  8  7  1  0  0  0  0
  9 12  1  0  0  0  0
 12 10  2  0  0  0  0
 12  7  1  0  0  0  0
 13  5  1  0  0  0  0
 13  8  1  1  0  0  0
 14  1  1  0  0  0  0
 14 11  1  1  0  0  0
 14 13  1  0  0  0  0
 17 15  1  1  0  0  0
 17  4  1  0  0  0  0
 17  6  1  0  0  0  0
 18 21  1  0  0  0  0
 19 21  2  0  0  0  0
 21 20  1  0  0  0  0
 23 28  1  6  0  0  0
 23 22  1  0  0  0  0
 24 22  1  6  0  0  0
 24  3  1  0  0  0  0
 25 24  1  0  0  0  0
 26 23  1  0  0  0  0
 26 25  1  0  0  0  0
 27 26  2  0  0  0  0
 28 29  1  0  0  0  0
 30 33  1  6  0  0  0
 30 29  1  0  0  0  0
 30 37  1  0  0  0  0
 31 32  2  0  0  0  0
 32 33  2  0  0  0  0
 34 31  1  0  0  0  0
 35 31  1  0  0  0  0
 37 36  1  0  0  0  0
M  END
>  <MODEL>
4

>  <REMARK>
 VINA RESULT:      -5.1      1.936      2.674
  Name = 
  9 active torsions:
  status: ('A' for Active; 'I' for Inactive)
    1  A    between atoms: C_4  and  C_34
    2  A    between atoms: C_7  and  C_13
    3  A    between atoms: C_8  and  C_30
    4  A    between atoms: N_9  and  C_13
    5  A    between atoms: N_9  and  C_30
    6  A    between atoms: C_10  and  C_29
    7  A    between atoms: C_15  and  C_16
    8  A    between atoms: C_15  and  C_27
    9  A    between atoms: S_17  and  C_30
                            x       y       z     vdW  Elec       q    Type
                         _______ _______ _______ _____ _____    ______ ____

>  <TORSDO>
F 9

$$$$
=
 OpenBabel11072410163D

 37 40  0  0  1  0  0  0  0  0999 V2000
  160.4330  205.0890  152.0650 C   0  0  1  0  0  3  0  0  0  0  0  0
  161.2960  204.9840  153.3130 C   0  0  0  0  0  2  0  0  0  0  0  0
  160.4000  206.1980  153.1290 C   0  0  1  0  0  3  0  0  0  0  0  0
  160.9820  206.5860  150.1790 O   0  0  0  0  0  0  0  0  0  0  0  0
  161.8090  204.2490  148.4980 C   0  0  2  0  0  3  0  0  0  0  0  0
  161.9850  205.7150  148.0710 C   0  0  2  0  0  3  0  0  0  0  0  0
  160.8270  201.5820  149.2490 C   0  0  0  0  0  2  0  0  0  0  0  0
  161.0570  202.6990  150.2390 C   0  0  0  0  0  0  0  0  0  0  0  0
  161.2260  203.3890  147.4730 N   0  0  0  0  0  2  0  0  0  0  0  0
  160.3820  201.2920  146.9150 O   0  0  0  0  0  0  0  0  0  0  0  0
  162.7090  205.2660  151.1720 C   0  0  0  0  0  1  0  0  0  0  0  0
  160.7960  202.0650  147.8170 C   0  0  0  0  0  0  0  0  0  0  0  0
  160.9700  204.1300  149.7630 C   0  0  1  0  0  3  0  0  0  0  0  0
  161.2410  205.2960  150.7530 C   0  0  1  0  0  0  0  0  0  0  0  0
  159.6800  206.4060  148.2650 O   0  0  0  0  0  1  0  0  0  0  0  0
  161.2910  202.4270  151.4050 O   0  0  0  0  0  0  0  0  0  0  0  0
  160.9690  206.6380  148.7530 C   0  0  1  0  0  3  0  0  0  0  0  0
  162.0330  205.9390  146.5610 C   0  0  0  0  0  2  0  0  0  0  0  0
  162.4630  204.2630  144.9260 O   0  0  0  0  0  0  0  0  0  0  0  0
  164.1910  204.7010  146.3700 O   0  0  0  0  0  1  0  0  0  0  0  0
  162.9010  204.9210  145.9060 C   0  0  0  0  0  0  0  0  0  0  0  0
  161.5370  208.1680  154.1660 C   0  0  0  0  0  2  0  0  0  0  0  0
  160.8970  209.5550  154.0650 C   0  0  2  0  0  3  0  0  0  0  0  0
  161.2460  207.4290  152.8490 C   0  0  2  0  0  3  0  0  0  0  0  0
  160.5050  208.3540  152.0100 N   0  0  0  0  0  2  0  0  0  0  0  0
  160.3160  209.5620  152.7100 C   0  0  0  0  0  0  0  0  0  0  0  0
  159.6840  210.5350  152.2200 O   0  0  0  0  0  0  0  0  0  0  0  0
  161.9260  210.6710  154.2640 C   0  0  0  0  0  2  0  0  0  0  0  0
  161.6410  211.4720  155.4490 N   0  0  0  0  0  2  0  0  0  0  0  0
  160.1960  211.4770  155.6360 C   0  0  2  0  0  3  0  0  0  0  0  0
  158.6470  213.7400  153.3210 C   0  0  0  0  0  0  0  0  0  0  0  0
  159.1560  213.3060  154.4390 C   0  0  0  0  0  0  0  0  0  0  0  0
  159.6740  212.8700  155.5530 C   0  0  0  0  0  3  0  0  0  0  0  0
  157.4540  214.4490  153.3300 O   0  0  0  0  0  1  0  0  0  0  0  0
  159.3490  213.4850  152.0370 C   0  0  0  0  0  1  0  0  0  0  0  0
  158.1220  211.4760  157.2280 C   0  0  0  0  0  1  0  0  0  0  0  0
  159.7950  210.7760  157.2600 S   0  0  0  0  0  0  0  0  0  0  0  0
  1  3  1  0  0  0  0
  1  2  1  1  0  0  0
  3  2  1  1  0  0  0
  4 14  1  0  0  0  0
  5  9  1  6  0  0  0
  5 13  1  0  0  0  0
  6 18  1  6  0  0  0
  6  5  1  0  0  0  0
  6 17  1  0  0  0  0
  7  8  1  0  0  0  0
  8 16  2  0  0  0  0
  9 12  1  0  0  0  0
 10 12  2  0  0  0  0
 12  7  1  0  0  0  0
 13  8  1  1  0  0  0
 13 14  1  0  0  0  0
 14 11  1  1  0  0  0
 14  1  1  0  0  0  0
 17 15  1  6  0  0  0
 17  4  1  0  0  0  0
 19 21  2  0  0  0  0
 21 20  1  0  0  0  0
 21 18  1  0  0  0  0
 23 22  1  0  0  0  0
 23 28  1  6  0  0  0
 24  3  1  0  0  0  0
 24 22  1  1  0  0  0
 25 26  1  0  0  0  0
 25 24  1  0  0  0  0
 26 23  1  0  0  0  0
 27 26  2  0  0  0  0
 28 29  1  0  0  0  0
 29 30  1  0  0  0  0
 30 33  1  1  0  0  0
 30 37  1  0  0  0  0
 31 34  1  0  0  0  0
 31 32  2  0  0  0  0
 32 33  2  0  0  0  0
 35 31  1  0  0  0  0
 36 37  1  0  0  0  0
M  END
>  <MODEL>
5

>  <REMARK>
 VINA RESULT:      -4.9      3.211      9.732
  Name = 
  9 active torsions:
  status: ('A' for Active; 'I' for Inactive)
    1  A    between atoms: C_4  and  C_34
    2  A    between atoms: C_7  and  C_13
    3  A    between atoms: C_8  and  C_30
    4  A    between atoms: N_9  and  C_13
    5  A    between atoms: N_9  and  C_30
    6  A    between atoms: C_10  and  C_29
    7  A    between atoms: C_15  and  C_16
    8  A    between atoms: C_15  and  C_27
    9  A    between atoms: S_17  and  C_30
                            x       y       z     vdW  Elec       q    Type
                         _______ _______ _______ _____ _____    ______ ____

>  <TORSDO>
F 9

$$$$
=
 OpenBabel11072410163D

 37 40  0  0  1  0  0  0  0  0999 V2000
  162.6400  209.0590  151.3890 C   0  0  1  0  0  3  0  0  0  0  0  0
  161.8970  210.3790  151.2580 C   0  0  0  0  0  2  0  0  0  0  0  0
  162.4640  209.9760  152.6090 C   0  0  1  0  0  3  0  0  0  0  0  0
  161.9120  206.8870  152.3120 O   0  0  0  0  0  0  0  0  0  0  0  0
  161.0440  205.9660  149.5960 C   0  0  2  0  0  3  0  0  0  0  0  0
  160.7910  205.1740  150.8900 C   0  0  2  0  0  3  0  0  0  0  0  0
  162.1630  207.3300  147.2450 C   0  0  0  0  0  2  0  0  0  0  0  0
  161.9660  207.9970  148.5850 C   0  0  0  0  0  0  0  0  0  0  0  0
  161.5810  205.1690  148.4980 N   0  0  0  0  0  2  0  0  0  0  0  0
  162.4510  205.1340  146.3390 O   0  0  0  0  0  0  0  0  0  0  0  0
  160.3030  208.3270  151.2890 C   0  0  0  0  0  1  0  0  0  0  0  0
  162.0770  205.8230  147.3220 C   0  0  0  0  0  0  0  0  0  0  0  0
  161.9740  207.1480  149.8340 C   0  0  1  0  0  3  0  0  0  0  0  0
  161.7350  207.8050  151.2220 C   0  0  1  0  0  0  0  0  0  0  0  0
  163.0810  204.9980  151.6350 O   0  0  0  0  0  1  0  0  0  0  0  0
  161.8240  209.2080  148.6370 O   0  0  0  0  0  0  0  0  0  0  0  0
  161.8230  205.5030  151.9750 C   0  0  1  0  0  3  0  0  0  0  0  0
  160.6300  203.6690  150.6950 C   0  0  0  0  0  2  0  0  0  0  0  0
  160.3550  203.2040  153.0130 O   0  0  0  0  0  1  0  0  0  0  0  0
  161.9560  201.9610  151.9400 O   0  0  0  0  0  0  0  0  0  0  0  0
  160.9700  202.9370  151.9470 C   0  0  0  0  0  0  0  0  0  0  0  0
  160.4720  210.8720  153.8270 C   0  0  0  0  0  2  0  0  0  0  0  0
  160.5750  211.1910  155.3200 C   0  0  2  0  0  3  0  0  0  0  0  0
  161.3320  209.6240  153.5610 C   0  0  2  0  0  3  0  0  0  0  0  0
  161.8790  209.2170  154.8440 N   0  0  0  0  0  2  0  0  0  0  0  0
  161.4380  210.1120  155.8390 C   0  0  0  0  0  0  0  0  0  0  0  0
  161.7800  210.0030  157.0450 O   0  0  0  0  0  0  0  0  0  0  0  0
  159.2000  211.2100  155.9930 C   0  0  0  0  0  2  0  0  0  0  0  0
  158.4620  212.4310  155.6910 N   0  0  0  0  0  2  0  0  0  0  0  0
  157.2690  212.0470  154.9470 C   0  0  2  0  0  3  0  0  0  0  0  0
  157.9690  213.5230  151.7510 C   0  0  0  0  0  0  0  0  0  0  0  0
  157.3950  213.3440  152.9070 C   0  0  0  0  0  0  0  0  0  0  0  0
  156.8300  213.1680  154.0690 C   0  0  0  0  0  3  0  0  0  0  0  0
  157.1980  213.7750  150.6250 O   0  0  0  0  0  1  0  0  0  0  0  0
  159.4490  213.4660  151.6410 C   0  0  0  0  0  1  0  0  0  0  0  0
  155.2990  210.3290  155.0220 C   0  0  0  0  0  1  0  0  0  0  0  0
  155.9400  211.6320  156.1090 S   0  0  0  0  0  0  0  0  0  0  0  0
  1  2  1  6  0  0  0
  1  3  1  0  0  0  0
  3  2  1  6  0  0  0
  3 24  1  0  0  0  0
  5  9  1  6  0  0  0
  5 13  1  0  0  0  0
  5  6  1  0  0  0  0
  6 18  1  6  0  0  0
  6 17  1  0  0  0  0
  7 12  1  0  0  0  0
  7  8  1  0  0  0  0
  8 16  2  0  0  0  0
 10 12  2  0  0  0  0
 12  9  1  0  0  0  0
 13  8  1  6  0  0  0
 13 14  1  0  0  0  0
 14 11  1  1  0  0  0
 14  1  1  0  0  0  0
 14  4  1  0  0  0  0
 17 15  1  6  0  0  0
 17  4  1  0  0  0  0
 18 21  1  0  0  0  0
 20 21  2  0  0  0  0
 21 19  1  0  0  0  0
 22 23  1  0  0  0  0
 23 26  1  0  0  0  0
 23 28  1  1  0  0  0
 24 22  1  1  0  0  0
 24 25  1  0  0  0  0
 25 26  1  0  0  0  0
 26 27  2  0  0  0  0
 29 28  1  0  0  0  0
 30 33  1  6  0  0  0
 30 29  1  0  0  0  0
 30 37  1  0  0  0  0
 31 32  2  0  0  0  0
 32 33  2  0  0  0  0
 34 31  1  0  0  0  0
 35 31  1  0  0  0  0
 36 37  1  0  0  0  0
M  END
>  <MODEL>
6

>  <REMARK>
 VINA RESULT:      -4.9      3.373      9.259
  Name = 
  9 active torsions:
  status: ('A' for Active; 'I' for Inactive)
    1  A    between atoms: C_4  and  C_34
    2  A    between atoms: C_7  and  C_13
    3  A    between atoms: C_8  and  C_30
    4  A    between atoms: N_9  and  C_13
    5  A    between atoms: N_9  and  C_30
    6  A    between atoms: C_10  and  C_29
    7  A    between atoms: C_15  and  C_16
    8  A    between atoms: C_15  and  C_27
    9  A    between atoms: S_17  and  C_30
                            x       y       z     vdW  Elec       q    Type
                         _______ _______ _______ _____ _____    ______ ____

>  <TORSDO>
F 9

$$$$
=
 OpenBabel11072410163D

 37 40  0  0  1  0  0  0  0  0999 V2000
  160.4080  204.8650  151.7580 C   0  0  1  0  0  3  0  0  0  0  0  0
  161.2580  204.7720  153.0160 C   0  0  0  0  0  2  0  0  0  0  0  0
  160.3750  205.9900  152.8040 C   0  0  1  0  0  3  0  0  0  0  0  0
  161.0090  206.3390  149.8690 O   0  0  0  0  0  0  0  0  0  0  0  0
  161.7850  203.9720  148.2040 C   0  0  2  0  0  3  0  0  0  0  0  0
  162.0020  205.4320  147.7720 C   0  0  2  0  0  3  0  0  0  0  0  0
  160.7270  201.3360  148.9590 C   0  0  0  0  0  2  0  0  0  0  0  0
  160.9800  202.4500  149.9460 C   0  0  0  0  0  0  0  0  0  0  0  0
  161.1850  203.1240  147.1790 N   0  0  0  0  0  2  0  0  0  0  0  0
  160.2890  201.0480  146.6240 O   0  0  0  0  0  0  0  0  0  0  0  0
  162.6930  204.9770  150.8790 C   0  0  0  0  0  1  0  0  0  0  0  0
  160.7180  201.8130  147.5250 C   0  0  0  0  0  0  0  0  0  0  0  0
  160.9340  203.8810  149.4630 C   0  0  1  0  0  3  0  0  0  0  0  0
  161.2300  205.0450  150.4510 C   0  0  1  0  0  0  0  0  0  0  0  0
  159.7150  206.1850  147.9480 O   0  0  0  0  0  1  0  0  0  0  0  0
  161.1990  202.1780  151.1160 O   0  0  0  0  0  0  0  0  0  0  0  0
  161.0060  206.3840  148.4430 C   0  0  1  0  0  3  0  0  0  0  0  0
  162.0660  205.6470  146.2620 C   0  0  0  0  0  2  0  0  0  0  0  0
  162.8250  204.2000  144.5310 O   0  0  0  0  0  0  0  0  0  0  0  0
  164.2750  204.4880  146.2850 O   0  0  0  0  0  1  0  0  0  0  0  0
  163.0700  204.7380  145.6430 C   0  0  0  0  0  0  0  0  0  0  0  0
  161.6230  207.8970  153.8340 C   0  0  0  0  0  2  0  0  0  0  0  0
  161.0140  209.3010  153.8170 C   0  0  2  0  0  3  0  0  0  0  0  0
  161.2350  207.2100  152.5140 C   0  0  2  0  0  3  0  0  0  0  0  0
  160.4690  208.1790  151.7510 N   0  0  0  0  0  2  0  0  0  0  0  0
  160.3540  209.3680  152.4990 C   0  0  0  0  0  0  0  0  0  0  0  0
  159.7200  210.3710  152.0800 O   0  0  0  0  0  0  0  0  0  0  0  0
  162.0820  210.3850  153.9890 C   0  0  0  0  0  2  0  0  0  0  0  0
  161.9190  211.1190  155.2380 N   0  0  0  0  0  2  0  0  0  0  0  0
  161.1530  210.2730  156.1440 C   0  0  2  0  0  3  0  0  0  0  0  0
  157.8600  211.6900  155.9780 C   0  0  0  0  0  0  0  0  0  0  0  0
  159.0310  211.3940  156.4640 C   0  0  0  0  0  0  0  0  0  0  0  0
  160.2090  211.1030  156.9430 C   0  0  0  0  0  3  0  0  0  0  0  0
  156.7280  211.5760  156.7740 O   0  0  0  0  0  1  0  0  0  0  0  0
  157.7360  212.1580  154.5740 C   0  0  0  0  0  1  0  0  0  0  0  0
  163.4870  210.7600  157.2180 C   0  0  0  0  0  1  0  0  0  0  0  0
  162.2860  209.4020  157.2600 S   0  0  0  0  0  0  0  0  0  0  0  0
  1  3  1  0  0  0  0
  1  2  1  1  0  0  0
  3  2  1  1  0  0  0
  4 14  1  0  0  0  0
  5  9  1  6  0  0  0
  5 13  1  0  0  0  0
  6 18  1  6  0  0  0
  6  5  1  0  0  0  0
  6 17  1  0  0  0  0
  7  8  1  0  0  0  0
  8 16  2  0  0  0  0
  9 12  1  0  0  0  0
 10 12  2  0  0  0  0
 12  7  1  0  0  0  0
 13  8  1  1  0  0  0
 13 14  1  0  0  0  0
 14 11  1  1  0  0  0
 14  1  1  0  0  0  0
 17 15  1  6  0  0  0
 17  4  1  0  0  0  0
 19 21  2  0  0  0  0
 21 18  1  0  0  0  0
 21 20  1  0  0  0  0
 23 22  1  0  0  0  0
 23 28  1  6  0  0  0
 24  3  1  0  0  0  0
 24 22  1  1  0  0  0
 25 26  1  0  0  0  0
 25 24  1  0  0  0  0
 26 23  1  0  0  0  0
 27 26  2  0  0  0  0
 28 29  1  0  0  0  0
 29 30  1  0  0  0  0
 30 33  1  1  0  0  0
 30 37  1  0  0  0  0
 31 32  2  0  0  0  0
 31 34  1  0  0  0  0
 32 33  2  0  0  0  0
 35 31  1  0  0  0  0
 36 37  1  0  0  0  0
M  END
>  <MODEL>
7

>  <REMARK>
 VINA RESULT:      -4.8      3.105      9.770
  Name = 
  9 active torsions:
  status: ('A' for Active; 'I' for Inactive)
    1  A    between atoms: C_4  and  C_34
    2  A    between atoms: C_7  and  C_13
    3  A    between atoms: C_8  and  C_30
    4  A    between atoms: N_9  and  C_13
    5  A    between atoms: N_9  and  C_30
    6  A    between atoms: C_10  and  C_29
    7  A    between atoms: C_15  and  C_16
    8  A    between atoms: C_15  and  C_27
    9  A    between atoms: S_17  and  C_30
                            x       y       z     vdW  Elec       q    Type
                         _______ _______ _______ _____ _____    ______ ____

>  <TORSDO>
F 9

$$$$
=
 OpenBabel11072410163D

 37 40  0  0  1  0  0  0  0  0999 V2000
  161.2210  205.9840  152.4620 C   0  0  1  0  0  3  0  0  0  0  0  0
  162.1050  206.9770  153.1980 C   0  0  0  0  0  2  0  0  0  0  0  0
  160.6600  207.3440  152.9050 C   0  0  1  0  0  3  0  0  0  0  0  0
  161.2070  206.8530  150.1500 O   0  0  0  0  0  0  0  0  0  0  0  0
  161.5370  204.0850  149.0530 C   0  0  2  0  0  3  0  0  0  0  0  0
  161.5790  205.3580  148.1910 C   0  0  2  0  0  3  0  0  0  0  0  0
  160.8180  201.8150  150.7750 C   0  0  0  0  0  2  0  0  0  0  0  0
  161.3140  203.1400  151.3010 C   0  0  0  0  0  0  0  0  0  0  0  0
  160.6920  203.0230  148.5160 N   0  0  0  0  0  2  0  0  0  0  0  0
  159.7340  200.9250  148.8360 O   0  0  0  0  0  0  0  0  0  0  0  0
  163.1500  205.7310  150.9720 C   0  0  0  0  0  1  0  0  0  0  0  0
  160.3820  201.8830  149.3300 C   0  0  0  0  0  0  0  0  0  0  0  0
  161.0900  204.3860  150.4760 C   0  0  1  0  0  3  0  0  0  0  0  0
  161.6240  205.7570  150.9770 C   0  0  1  0  0  0  0  0  0  0  0  0
  159.4190  206.2520  148.7970 O   0  0  0  0  0  1  0  0  0  0  0  0
  161.8690  203.1850  152.3870 O   0  0  0  0  0  0  0  0  0  0  0  0
  160.7920  206.5090  148.8290 C   0  0  1  0  0  3  0  0  0  0  0  0
  161.1970  205.1510  146.7270 C   0  0  0  0  0  2  0  0  0  0  0  0
  163.4860  204.7030  146.2480 O   0  0  0  0  0  1  0  0  0  0  0  0
  162.3350  205.8280  144.6130 O   0  0  0  0  0  0  0  0  0  0  0  0
  162.4040  205.2140  145.8560 C   0  0  0  0  0  0  0  0  0  0  0  0
  162.0350  208.8910  151.5010 C   0  0  0  0  0  2  0  0  0  0  0  0
  162.1470  210.3680  151.8860 C   0  0  2  0  0  3  0  0  0  0  0  0
  160.6080  208.4320  151.8440 C   0  0  2  0  0  3  0  0  0  0  0  0
  159.9130  209.5950  152.3680 N   0  0  0  0  0  2  0  0  0  0  0  0
  160.7970  210.6920  152.3820 C   0  0  0  0  0  0  0  0  0  0  0  0
  160.4570  211.8270  152.8090 O   0  0  0  0  0  0  0  0  0  0  0  0
  162.5520  211.2360  150.6910 C   0  0  0  0  0  2  0  0  0  0  0  0
  161.5790  211.1640  149.6080 N   0  0  0  0  0  2  0  0  0  0  0  0
  161.6820  212.4010  148.8460 C   0  0  2  0  0  3  0  0  0  0  0  0
  158.4740  213.5930  149.9260 C   0  0  0  0  0  0  0  0  0  0  0  0
  159.7660  213.5570  149.7700 C   0  0  0  0  0  0  0  0  0  0  0  0
  161.0590  213.5220  149.6040 C   0  0  0  0  0  3  0  0  0  0  0  0
  157.9320  213.8880  151.1690 O   0  0  0  0  0  1  0  0  0  0  0  0
  157.5790  213.3290  148.7700 C   0  0  0  0  0  1  0  0  0  0  0  0
  161.9920  213.3180  146.4170 C   0  0  0  0  0  1  0  0  0  0  0  0
  160.8340  212.2020  147.2550 S   0  0  0  0  0  0  0  0  0  0  0  0
  1  3  1  0  0  0  0
  1  2  1  1  0  0  0
  3  2  1  1  0  0  0
  4 14  1  0  0  0  0
  5  9  1  6  0  0  0
  5 13  1  0  0  0  0
  6 18  1  6  0  0  0
  6 17  1  0  0  0  0
  6  5  1  0  0  0  0
  7  8  1  0  0  0  0
  8 16  2  0  0  0  0
  9 12  1  0  0  0  0
 10 12  2  0  0  0  0
 12  7  1  0  0  0  0
 13 14  1  0  0  0  0
 13  8  1  1  0  0  0
 14 11  1  6  0  0  0
 14  1  1  0  0  0  0
 17 15  1  1  0  0  0
 17  4  1  0  0  0  0
 20 21  2  0  0  0  0
 21 19  1  0  0  0  0
 21 18  1  0  0  0  0
 22 23  1  0  0  0  0
 23 28  1  6  0  0  0
 23 26  1  0  0  0  0
 24 22  1  1  0  0  0
 24 25  1  0  0  0  0
 24  3  1  0  0  0  0
 25 26  1  0  0  0  0
 26 27  2  0  0  0  0
 29 28  1  0  0  0  0
 30 33  1  1  0  0  0
 30 29  1  0  0  0  0
 31 34  1  0  0  0  0
 32 31  2  0  0  0  0
 33 32  2  0  0  0  0
 35 31  1  0  0  0  0
 36 37  1  0  0  0  0
 37 30  1  0  0  0  0
M  END
>  <MODEL>
8

>  <REMARK>
 VINA RESULT:      -4.4      3.379      8.590
  Name = 
  9 active torsions:
  status: ('A' for Active; 'I' for Inactive)
    1  A    between atoms: C_4  and  C_34
    2  A    between atoms: C_7  and  C_13
    3  A    between atoms: C_8  and  C_30
    4  A    between atoms: N_9  and  C_13
    5  A    between atoms: N_9  and  C_30
    6  A    between atoms: C_10  and  C_29
    7  A    between atoms: C_15  and  C_16
    8  A    between atoms: C_15  and  C_27
    9  A    between atoms: S_17  and  C_30
                            x       y       z     vdW  Elec       q    Type
                         _______ _______ _______ _____ _____    ______ ____

>  <TORSDO>
F 9

$$$$
=
 OpenBabel11072410163D

 37 40  0  0  1  0  0  0  0  0999 V2000
  162.1620  210.3170  153.0750 C   0  0  1  0  0  3  0  0  0  0  0  0
  162.5350  208.8640  153.3250 C   0  0  0  0  0  2  0  0  0  0  0  0
  162.6120  209.4190  151.9120 C   0  0  1  0  0  3  0  0  0  0  0  0
  160.0310  211.0270  152.0470 O   0  0  0  0  0  0  0  0  0  0  0  0
  158.9920  211.9330  154.7070 C   0  0  2  0  0  3  0  0  0  0  0  0
  158.1460  211.9000  153.4240 C   0  0  2  0  0  3  0  0  0  0  0  0
  160.9340  212.4800  156.8430 C   0  0  0  0  0  2  0  0  0  0  0  0
  161.1640  211.4750  155.7410 C   0  0  0  0  0  0  0  0  0  0  0  0
  158.8870  213.1760  155.4650 N   0  0  0  0  0  2  0  0  0  0  0  0
  159.6440  214.4530  157.2590 O   0  0  0  0  0  0  0  0  0  0  0  0
  160.0200  209.3020  153.7010 C   0  0  0  0  0  1  0  0  0  0  0  0
  159.7940  213.4270  156.5470 C   0  0  0  0  0  0  0  0  0  0  0  0
  160.4620  211.6670  154.4170 C   0  0  1  0  0  3  0  0  0  0  0  0
  160.6520  210.6260  153.2780 C   0  0  1  0  0  0  0  0  0  0  0  0
  159.5550  213.2990  152.0500 O   0  0  0  0  0  1  0  0  0  0  0  0
  161.9240  210.5390  155.9300 O   0  0  0  0  0  0  0  0  0  0  0  0
  159.0100  212.0180  152.1630 C   0  0  1  0  0  3  0  0  0  0  0  0
  156.9760  212.8810  153.4050 C   0  0  0  0  0  2  0  0  0  0  0  0
  155.5010  213.4170  155.1950 O   0  0  0  0  0  1  0  0  0  0  0  0
  155.5500  211.2070  154.5830 O   0  0  0  0  0  0  0  0  0  0  0  0
  155.9720  212.5220  154.4440 C   0  0  0  0  0  0  0  0  0  0  0  0
  161.7290  207.2990  150.9220 C   0  0  0  0  0  2  0  0  0  0  0  0
  161.9590  207.0000  149.4390 C   0  0  2  0  0  3  0  0  0  0  0  0
  161.5080  208.8160  151.0580 C   0  0  2  0  0  3  0  0  0  0  0  0
  161.5710  209.3660  149.7150 N   0  0  0  0  0  2  0  0  0  0  0  0
  161.8220  208.3230  148.8010 C   0  0  0  0  0  0  0  0  0  0  0  0
  161.9450  208.5240  147.5640 O   0  0  0  0  0  0  0  0  0  0  0  0
  160.9460  205.9870  148.9000 C   0  0  0  0  0  2  0  0  0  0  0  0
  160.9710  205.9100  147.4440 N   0  0  0  0  0  2  0  0  0  0  0  0
  160.8260  204.5070  147.0790 C   0  0  2  0  0  3  0  0  0  0  0  0
  160.8960  201.4930  149.0260 C   0  0  0  0  0  0  0  0  0  0  0  0
  161.3310  202.5780  148.4510 C   0  0  0  0  0  0  0  0  0  0  0  0
  161.7610  203.6690  147.8810 C   0  0  0  0  0  3  0  0  0  0  0  0
  161.6350  200.3210  148.9470 O   0  0  0  0  0  1  0  0  0  0  0  0
  159.6140  201.5140  149.7760 C   0  0  0  0  0  1  0  0  0  0  0  0
  160.4780  205.9190  144.9060 C   0  0  0  0  0  1  0  0  0  0  0  0
  161.1910  204.3020  145.3140 S   0  0  0  0  0  0  0  0  0  0  0  0
  1 14  1  0  0  0  0
  1  2  1  1  0  0  0
  3  1  1  0  0  0  0
  3  2  1  1  0  0  0
  4 17  1  0  0  0  0
  4 14  1  0  0  0  0
  5  9  1  6  0  0  0
  6 18  1  1  0  0  0
  6  5  1  0  0  0  0
  8 16  2  0  0  0  0
  8  7  1  0  0  0  0
  9 12  1  0  0  0  0
 12  7  1  0  0  0  0
 12 10  2  0  0  0  0
 13  5  1  0  0  0  0
 13  8  1  1  0  0  0
 14 11  1  1  0  0  0
 14 13  1  0  0  0  0
 17 15  1  1  0  0  0
 17  6  1  0  0  0  0
 18 21  1  0  0  0  0
 21 20  2  0  0  0  0
 21 19  1  0  0  0  0
 23 28  1  6  0  0  0
 23 22  1  0  0  0  0
 24 22  1  6  0  0  0
 24  3  1  0  0  0  0
 25 24  1  0  0  0  0
 26 23  1  0  0  0  0
 26 25  1  0  0  0  0
 27 26  2  0  0  0  0
 29 28  1  0  0  0  0
 30 29  1  0  0  0  0
 30 33  1  1  0  0  0
 31 35  1  0  0  0  0
 32 31  2  0  0  0  0
 33 32  2  0  0  0  0
 34 31  1  0  0  0  0
 36 37  1  0  0  0  0
 37 30  1  0  0  0  0
M  END
>  <MODEL>
9

>  <REMARK>
 VINA RESULT:      -4.3      1.774      2.333
  Name = 
  9 active torsions:
  status: ('A' for Active; 'I' for Inactive)
    1  A    between atoms: C_4  and  C_34
    2  A    between atoms: C_7  and  C_13
    3  A    between atoms: C_8  and  C_30
    4  A    between atoms: N_9  and  C_13
    5  A    between atoms: N_9  and  C_30
    6  A    between atoms: C_10  and  C_29
    7  A    between atoms: C_15  and  C_16
    8  A    between atoms: C_15  and  C_27
    9  A    between atoms: S_17  and  C_30
                            x       y       z     vdW  Elec       q    Type
                         _______ _______ _______ _____ _____    ______ ____

>  <TORSDO>
F 9

$$$$
