=
 OpenBabel11072410273D

 32 35  0  0  1  0  0  0  0  0999 V2000
  162.2270  207.3780  148.9030 C   0  0  1  0  0  3  0  0  0  0  0  0
  163.1030  206.8990  151.0340 O   0  0  0  0  0  1  0  0  0  0  0  0
  161.3950  208.5550  150.7160 C   0  0  1  0  0  3  0  0  0  0  0  0
  162.0030  209.4560  149.8340 O   0  0  0  0  0  0  0  0  0  0  0  0
  162.0530  208.8040  148.6360 N   0  0  0  0  0  2  0  0  0  0  0  0
  161.9130  207.1840  150.3580 C   0  0  1  0  0  3  0  0  0  0  0  0
  160.3690  209.4560  152.7780 C   0  0  1  0  0  3  0  0  0  0  0  0
  161.6580  208.9550  152.1630 C   0  0  1  0  0  3  0  0  0  0  0  0
  160.8640  208.0600  153.0930 C   0  0  0  0  0  2  0  0  0  0  0  0
  159.3590  213.9770  156.9470 C   0  0  0  0  0  2  0  0  0  0  0  0
  157.6160  212.5130  154.0560 C   0  0  0  0  0  2  0  0  0  0  0  0
  157.5070  211.8760  156.3760 O   0  0  0  0  0  0  0  0  0  0  0  0
  157.8550  214.1880  157.0710 C   0  0  0  0  0  2  0  0  0  0  0  0
  156.7430  212.0210  155.2110 C   0  0  0  0  0  2  0  0  0  0  0  0
  160.2270  212.2410  155.4420 C   0  0  0  0  0  0  0  0  0  0  0  0
  158.6490  211.5370  153.7150 N   0  0  0  0  0  0  0  0  0  0  0  0
  161.1060  211.8200  156.2430 O   0  0  0  0  0  0  0  0  0  0  0  0
  157.0800  212.8780  157.2610 C   0  0  0  0  0  2  0  0  0  0  0  0
  160.6830  210.3450  153.8860 N   0  0  0  0  0  2  0  0  0  0  0  0
  159.6460  213.4920  155.6440 O   0  0  0  0  0  0  0  0  0  0  0  0
  159.8050  211.3920  154.3080 C   0  0  0  0  0  0  0  0  0  0  0  0
  161.7420  206.5440  146.7070 O   0  0  0  0  0  1  0  0  0  0  0  0
  161.2780  206.5640  148.0230 C   0  0  1  0  0  3  0  0  0  0  0  0
  160.4550  204.8680  149.5660 N   0  0  0  0  0  0  0  0  0  0  0  0
  161.1640  203.2040  151.1880 C   0  0  0  0  0  1  0  0  0  0  0  0
  161.1480  205.1610  148.5220 C   0  0  0  0  0  0  0  0  0  0  0  0
  161.8110  204.0620  147.9240 N   0  0  0  0  0  2  0  0  0  0  0  0
  160.5430  203.4380  149.8250 C   0  0  2  0  0  3  0  0  0  0  0  0
  161.4770  202.8990  148.7300 C   0  0  1  0  0  3  0  0  0  0  0  0
  160.8580  202.1950  146.4700 N   0  0  0  0  0  1  0  0  0  0  0  0
  161.4680  200.4490  148.0490 C   0  0  0  0  0  1  0  0  0  0  0  0
  160.8220  201.8140  147.8710 C   0  0  1  0  0  3  0  0  0  0  0  0
  1 23  1  6  0  0  0
  1  6  1  0  0  0  0
  3  4  1  6  0  0  0
  3  8  1  0  0  0  0
  5  1  1  0  0  0  0
  5  4  1  0  0  0  0
  6  3  1  0  0  0  0
  6  2  1  1  0  0  0
  7  9  1  0  0  0  0
  7 19  1  1  0  0  0
  8  7  1  0  0  0  0
  8  9  1  1  0  0  0
 10 13  1  0  0  0  0
 11 14  1  0  0  0  0
 12 18  1  0  0  0  0
 13 18  1  0  0  0  0
 14 12  1  0  0  0  0
 15 20  1  0  0  0  0
 15 17  2  0  0  0  0
 16 11  1  0  0  0  0
 16 21  2  0  0  0  0
 19 21  1  0  0  0  0
 20 10  1  0  0  0  0
 21 15  1  0  0  0  0
 23 22  1  6  0  0  0
 23 26  1  0  0  0  0
 24 28  1  0  0  0  0
 26 24  2  0  0  0  0
 27 26  1  0  0  0  0
 27 29  1  0  0  0  0
 28 25  1  1  0  0  0
 29 32  1  6  0  0  0
 29 28  1  0  0  0  0
 30 32  1  0  0  0  0
 32 31  1  6  0  0  0
M  END
>  <MODEL>
1

>  <REMARK>
 VINA RESULT:      -8.2      0.000      0.000
  Name = 
  5 active torsions:
  status: ('A' for Active; 'I' for Inactive)
    1  A    between atoms: C_1  and  C_25
    2  A    between atoms: C_13  and  N_22
    3  A    between atoms: C_14  and  C_15
    4  A    between atoms: C_16  and  C_25
    5  A    between atoms: C_27  and  C_31
                            x       y       z     vdW  Elec       q    Type
                         _______ _______ _______ _____ _____    ______ ____

>  <TORSDO>
F 5

$$$$
=
 OpenBabel11072410273D

 32 35  0  0  1  0  0  0  0  0999 V2000
  160.5030  204.2330  150.0880 C   0  0  1  0  0  3  0  0  0  0  0  0
  159.7850  206.1930  149.0030 O   0  0  0  0  0  1  0  0  0  0  0  0
  161.4900  206.2400  150.6920 C   0  0  1  0  0  3  0  0  0  0  0  0
  160.8310  205.7090  151.8060 O   0  0  0  0  0  0  0  0  0  0  0  0
  160.6790  204.3800  151.5310 N   0  0  0  0  0  2  0  0  0  0  0  0
  160.9240  205.5390  149.4810 C   0  0  1  0  0  3  0  0  0  0  0  0
  161.6850  208.3210  152.0130 C   0  0  1  0  0  3  0  0  0  0  0  0
  161.3450  207.7560  150.6500 C   0  0  1  0  0  3  0  0  0  0  0  0
  162.6930  208.4060  150.8860 C   0  0  0  0  0  2  0  0  0  0  0  0
  158.7240  212.8950  155.0390 C   0  0  0  0  0  2  0  0  0  0  0  0
  159.9040  209.4850  155.7580 C   0  0  0  0  0  2  0  0  0  0  0  0
  161.0670  211.5780  156.0130 O   0  0  0  0  0  0  0  0  0  0  0  0
  158.9770  212.7240  156.5320 C   0  0  0  0  0  2  0  0  0  0  0  0
  160.8750  210.3180  156.5950 C   0  0  0  0  0  2  0  0  0  0  0  0
  159.7490  211.3350  153.4420 C   0  0  0  0  0  0  0  0  0  0  0  0
  160.4450  209.2110  154.4280 N   0  0  0  0  0  0  0  0  0  0  0  0
  160.0820  212.2220  152.6090 O   0  0  0  0  0  0  0  0  0  0  0  0
  160.4580  212.5100  156.8680 C   0  0  0  0  0  2  0  0  0  0  0  0
  161.0270  209.6080  152.1720 N   0  0  0  0  0  2  0  0  0  0  0  0
  158.7930  211.6210  154.4160 O   0  0  0  0  0  0  0  0  0  0  0  0
  160.3940  210.0060  153.3920 C   0  0  0  0  0  0  0  0  0  0  0  0
  161.0270  201.8960  150.2240 O   0  0  0  0  0  1  0  0  0  0  0  0
  161.3690  203.0830  149.5730 C   0  0  1  0  0  3  0  0  0  0  0  0
  160.3540  202.0790  147.5990 N   0  0  0  0  0  0  0  0  0  0  0  0
  160.8310  200.7190  145.6440 C   0  0  0  0  0  1  0  0  0  0  0  0
  161.2070  202.9030  148.0990 C   0  0  0  0  0  0  0  0  0  0  0  0
  162.0060  203.5790  147.1450 N   0  0  0  0  0  2  0  0  0  0  0  0
  160.4500  202.0980  146.1470 C   0  0  2  0  0  3  0  0  0  0  0  0
  161.5810  203.0920  145.8420 C   0  0  1  0  0  3  0  0  0  0  0  0
  159.7940  203.9990  144.4370 N   0  0  0  0  0  1  0  0  0  0  0  0
  161.1570  205.5930  145.6690 C   0  0  0  0  0  1  0  0  0  0  0  0
  161.1280  204.2520  144.9510 C   0  0  1  0  0  3  0  0  0  0  0  0
  1 23  1  6  0  0  0
  1  5  1  0  0  0  0
  3  4  1  1  0  0  0
  5  4  1  0  0  0  0
  6  2  1  1  0  0  0
  6  1  1  0  0  0  0
  6  3  1  0  0  0  0
  7 19  1  6  0  0  0
  8  3  1  0  0  0  0
  8  9  1  6  0  0  0
  8  7  1  0  0  0  0
  9  7  1  0  0  0  0
 10 13  1  0  0  0  0
 11 14  1  0  0  0  0
 12 14  1  0  0  0  0
 12 18  1  0  0  0  0
 13 18  1  0  0  0  0
 15 20  1  0  0  0  0
 16 11  1  0  0  0  0
 17 15  2  0  0  0  0
 19 21  1  0  0  0  0
 20 10  1  0  0  0  0
 21 15  1  0  0  0  0
 21 16  2  0  0  0  0
 23 22  1  1  0  0  0
 24 26  2  0  0  0  0
 26 23  1  0  0  0  0
 27 26  1  0  0  0  0
 28 25  1  1  0  0  0
 28 24  1  0  0  0  0
 29 32  1  6  0  0  0
 29 28  1  0  0  0  0
 29 27  1  0  0  0  0
 30 32  1  0  0  0  0
 32 31  1  1  0  0  0
M  END
>  <MODEL>
2

>  <REMARK>
 VINA RESULT:      -7.6      2.130      3.541
  Name = 
  5 active torsions:
  status: ('A' for Active; 'I' for Inactive)
    1  A    between atoms: C_1  and  C_25
    2  A    between atoms: C_13  and  N_22
    3  A    between atoms: C_14  and  C_15
    4  A    between atoms: C_16  and  C_25
    5  A    between atoms: C_27  and  C_31
                            x       y       z     vdW  Elec       q    Type
                         _______ _______ _______ _____ _____    ______ ____

>  <TORSDO>
F 5

$$$$
=
 OpenBabel11072410273D

 32 35  0  0  1  0  0  0  0  0999 V2000
  160.0740  209.3930  154.7230 C   0  0  1  0  0  3  0  0  0  0  0  0
  160.5570  207.0960  154.5550 O   0  0  0  0  0  1  0  0  0  0  0  0
  161.5040  208.6970  153.0380 C   0  0  1  0  0  3  0  0  0  0  0  0
  160.3700  209.2750  152.4570 O   0  0  0  0  0  0  0  0  0  0  0  0
  159.8170  210.0440  153.4400 N   0  0  0  0  0  2  0  0  0  0  0  0
  161.1360  208.3650  154.4630 C   0  0  1  0  0  3  0  0  0  0  0  0
  161.0630  207.3220  151.0310 C   0  0  1  0  0  3  0  0  0  0  0  0
  161.9740  207.4960  152.2270 C   0  0  1  0  0  3  0  0  0  0  0  0
  162.4290  207.9520  150.8550 C   0  0  0  0  0  2  0  0  0  0  0  0
  161.0590  202.6020  146.9610 C   0  0  0  0  0  2  0  0  0  0  0  0
  160.6210  206.2550  146.8810 C   0  0  0  0  0  2  0  0  0  0  0  0
  162.6440  204.9640  146.6790 O   0  0  0  0  0  0  0  0  0  0  0  0
  161.4300  203.1520  145.5880 C   0  0  0  0  0  2  0  0  0  0  0  0
  161.9830  206.1030  146.2020 C   0  0  0  0  0  2  0  0  0  0  0  0
  160.9870  204.1090  148.8990 C   0  0  0  0  0  0  0  0  0  0  0  0
  160.7620  206.4720  148.3200 N   0  0  0  0  0  0  0  0  0  0  0  0
  161.5600  203.3100  149.6900 O   0  0  0  0  0  0  0  0  0  0  0  0
  162.6750  204.0470  145.6190 C   0  0  0  0  0  2  0  0  0  0  0  0
  161.1090  205.9350  150.5950 N   0  0  0  0  0  2  0  0  0  0  0  0
  160.4340  203.6320  147.7110 O   0  0  0  0  0  0  0  0  0  0  0  0
  160.9270  205.5480  149.2300 C   0  0  0  0  0  0  0  0  0  0  0  0
  161.7120  211.0490  155.2940 O   0  0  0  0  0  1  0  0  0  0  0  0
  160.5470  210.4270  155.7450 C   0  0  1  0  0  3  0  0  0  0  0  0
  159.7110  212.7140  155.7870 N   0  0  0  0  0  0  0  0  0  0  0  0
  158.8620  214.4490  157.2600 C   0  0  0  0  0  1  0  0  0  0  0  0
  159.4980  211.4620  155.9920 C   0  0  0  0  0  0  0  0  0  0  0  0
  158.2180  211.1560  156.5140 N   0  0  0  0  0  2  0  0  0  0  0  0
  158.5240  213.4760  156.1470 C   0  0  2  0  0  3  0  0  0  0  0  0
  157.5260  212.4270  156.6600 C   0  0  1  0  0  3  0  0  0  0  0  0
  156.1610  213.5600  154.9730 N   0  0  0  0  0  1  0  0  0  0  0  0
  155.9990  211.1360  155.0880 C   0  0  0  0  0  1  0  0  0  0  0  0
  156.2120  212.4210  155.8730 C   0  0  1  0  0  3  0  0  0  0  0  0
  1 23  1  1  0  0  0
  3  4  1  6  0  0  0
  3  6  1  0  0  0  0
  4  5  1  0  0  0  0
  5  1  1  0  0  0  0
  6  2  1  6  0  0  0
  6  1  1  0  0  0  0
  7 19  1  6  0  0  0
  7  8  1  0  0  0  0
  8  9  1  6  0  0  0
  8  3  1  0  0  0  0
  9  7  1  0  0  0  0
 10 20  1  0  0  0  0
 11 16  1  0  0  0  0
 13 18  1  0  0  0  0
 13 10  1  0  0  0  0
 14 12  1  0  0  0  0
 14 11  1  0  0  0  0
 15 21  1  0  0  0  0
 15 17  2  0  0  0  0
 16 21  2  0  0  0  0
 18 12  1  0  0  0  0
 20 15  1  0  0  0  0
 21 19  1  0  0  0  0
 23 22  1  6  0  0  0
 23 26  1  0  0  0  0
 24 26  2  0  0  0  0
 24 28  1  0  0  0  0
 26 27  1  0  0  0  0
 27 29  1  0  0  0  0
 28 29  1  0  0  0  0
 28 25  1  1  0  0  0
 29 32  1  6  0  0  0
 30 32  1  0  0  0  0
 32 31  1  6  0  0  0
M  END
>  <MODEL>
3

>  <REMARK>
 VINA RESULT:      -7.6      2.141     10.364
  Name = 
  5 active torsions:
  status: ('A' for Active; 'I' for Inactive)
    1  A    between atoms: C_1  and  C_25
    2  A    between atoms: C_13  and  N_22
    3  A    between atoms: C_14  and  C_15
    4  A    between atoms: C_16  and  C_25
    5  A    between atoms: C_27  and  C_31
                            x       y       z     vdW  Elec       q    Type
                         _______ _______ _______ _____ _____    ______ ____

>  <TORSDO>
F 5

$$$$
=
 OpenBabel11072410273D

 32 35  0  0  1  0  0  0  0  0999 V2000
  161.2060  207.4510  149.2180 C   0  0  1  0  0  3  0  0  0  0  0  0
  162.0750  208.7680  150.9630 O   0  0  0  0  0  1  0  0  0  0  0  0
  161.8290  206.3910  151.1810 C   0  0  1  0  0  3  0  0  0  0  0  0
  160.4560  206.2060  150.9850 O   0  0  0  0  0  0  0  0  0  0  0  0
  160.2510  206.4360  149.6560 N   0  0  0  0  0  2  0  0  0  0  0  0
  162.2390  207.5470  150.3020 C   0  0  1  0  0  3  0  0  0  0  0  0
  160.8480  206.8450  153.4050 C   0  0  1  0  0  3  0  0  0  0  0  0
  162.1420  206.5970  152.6580 C   0  0  1  0  0  3  0  0  0  0  0  0
  161.5140  205.4860  153.4740 C   0  0  0  0  0  2  0  0  0  0  0  0
  161.0700  211.8220  157.1500 C   0  0  0  0  0  2  0  0  0  0  0  0
  160.1650  211.0900  153.6590 C   0  0  0  0  0  2  0  0  0  0  0  0
  158.7750  211.0600  155.6250 O   0  0  0  0  0  0  0  0  0  0  0  0
  160.0810  212.8590  156.6290 C   0  0  0  0  0  2  0  0  0  0  0  0
  158.7950  211.3930  154.2650 C   0  0  0  0  0  2  0  0  0  0  0  0
  161.2840  209.6580  156.0070 C   0  0  0  0  0  0  0  0  0  0  0  0
  160.4650  209.6600  153.7050 N   0  0  0  0  0  0  0  0  0  0  0  0
  161.3330  208.9710  157.0630 O   0  0  0  0  0  0  0  0  0  0  0  0
  158.6970  212.2690  156.3320 C   0  0  0  0  0  2  0  0  0  0  0  0
  161.1360  207.5880  154.6220 N   0  0  0  0  0  2  0  0  0  0  0  0
  161.5200  211.0310  156.0600 O   0  0  0  0  0  0  0  0  0  0  0  0
  160.9550  209.0030  154.7230 C   0  0  0  0  0  0  0  0  0  0  0  0
  163.1980  207.3520  147.8860 O   0  0  0  0  0  1  0  0  0  0  0  0
  161.8400  207.0310  147.8910 C   0  0  1  0  0  3  0  0  0  0  0  0
  162.2710  204.9570  146.6890 N   0  0  0  0  0  0  0  0  0  0  0  0
  161.2060  203.2040  145.3880 C   0  0  0  0  0  1  0  0  0  0  0  0
  161.6780  205.5640  147.6560 C   0  0  0  0  0  0  0  0  0  0  0  0
  160.8270  204.7450  148.4370 N   0  0  0  0  0  2  0  0  0  0  0  0
  161.8960  203.5500  146.6930 C   0  0  2  0  0  3  0  0  0  0  0  0
  160.9040  203.4130  147.8580 C   0  0  1  0  0  3  0  0  0  0  0  0
  160.6130  202.5800  150.1410 N   0  0  0  0  0  1  0  0  0  0  0  0
  161.2060  200.9540  148.4320 C   0  0  0  0  0  1  0  0  0  0  0  0
  161.3540  202.3920  148.9060 C   0  0  1  0  0  3  0  0  0  0  0  0
  1 23  1  6  0  0  0
  1  5  1  0  0  0  0
  1  6  1  0  0  0  0
  3  4  1  1  0  0  0
  3  8  1  0  0  0  0
  5  4  1  0  0  0  0
  6  2  1  1  0  0  0
  6  3  1  0  0  0  0
  7  9  1  0  0  0  0
  7 19  1  1  0  0  0
  8  7  1  0  0  0  0
  8  9  1  1  0  0  0
 11 16  1  0  0  0  0
 11 14  1  0  0  0  0
 12 18  1  0  0  0  0
 13 10  1  0  0  0  0
 14 12  1  0  0  0  0
 15 20  1  0  0  0  0
 15 17  2  0  0  0  0
 16 21  2  0  0  0  0
 18 13  1  0  0  0  0
 19 21  1  0  0  0  0
 20 10  1  0  0  0  0
 21 15  1  0  0  0  0
 23 22  1  1  0  0  0
 24 28  1  0  0  0  0
 24 26  2  0  0  0  0
 26 23  1  0  0  0  0
 26 27  1  0  0  0  0
 28 25  1  6  0  0  0
 28 29  1  0  0  0  0
 29 27  1  0  0  0  0
 29 32  1  1  0  0  0
 32 31  1  6  0  0  0
 32 30  1  0  0  0  0
M  END
>  <MODEL>
4

>  <REMARK>
 VINA RESULT:      -7.0      1.778      2.634
  Name = 
  5 active torsions:
  status: ('A' for Active; 'I' for Inactive)
    1  A    between atoms: C_1  and  C_25
    2  A    between atoms: C_13  and  N_22
    3  A    between atoms: C_14  and  C_15
    4  A    between atoms: C_16  and  C_25
    5  A    between atoms: C_27  and  C_31
                            x       y       z     vdW  Elec       q    Type
                         _______ _______ _______ _____ _____    ______ ____

>  <TORSDO>
F 5

$$$$
=
 OpenBabel11072410273D

 32 35  0  0  1  0  0  0  0  0999 V2000
  160.6010  204.1620  150.3920 C   0  0  1  0  0  3  0  0  0  0  0  0
  159.5820  205.9980  149.3310 O   0  0  0  0  0  1  0  0  0  0  0  0
  161.4210  206.2800  150.8470 C   0  0  1  0  0  3  0  0  0  0  0  0
  160.9280  205.7230  152.0320 O   0  0  0  0  0  0  0  0  0  0  0  0
  160.8930  204.3780  151.8070 N   0  0  0  0  0  2  0  0  0  0  0  0
  160.8240  205.4830  149.7140 C   0  0  1  0  0  3  0  0  0  0  0  0
  161.9950  208.5010  151.7710 C   0  0  1  0  0  3  0  0  0  0  0  0
  161.1120  207.7710  150.7810 C   0  0  1  0  0  3  0  0  0  0  0  0
  162.3330  208.5250  150.2950 C   0  0  0  0  0  2  0  0  0  0  0  0
  159.0820  212.5470  155.5110 C   0  0  0  0  0  2  0  0  0  0  0  0
  160.1950  209.0420  155.6470 C   0  0  0  0  0  2  0  0  0  0  0  0
  161.3910  211.0390  156.2640 O   0  0  0  0  0  0  0  0  0  0  0  0
  159.3160  212.1190  156.9560 C   0  0  0  0  0  2  0  0  0  0  0  0
  161.1700  209.7020  156.6210 C   0  0  0  0  0  2  0  0  0  0  0  0
  160.0970  211.2630  153.6800 C   0  0  0  0  0  0  0  0  0  0  0  0
  160.7450  208.9890  154.2930 N   0  0  0  0  0  0  0  0  0  0  0  0
  160.4540  212.2730  153.0130 O   0  0  0  0  0  0  0  0  0  0  0  0
  160.7900  211.8220  157.2610 C   0  0  0  0  0  2  0  0  0  0  0  0
  161.3580  209.7550  152.1430 N   0  0  0  0  0  2  0  0  0  0  0  0
  159.1360  211.3980  154.6800 O   0  0  0  0  0  0  0  0  0  0  0  0
  160.7190  209.9500  153.4080 C   0  0  0  0  0  0  0  0  0  0  0  0
  161.2790  201.8620  150.4370 O   0  0  0  0  0  1  0  0  0  0  0  0
  161.5330  203.0900  149.8260 C   0  0  1  0  0  3  0  0  0  0  0  0
  162.0330  203.6640  147.5120 N   0  0  0  0  0  0  0  0  0  0  0  0
  161.0610  204.5640  145.4760 C   0  0  0  0  0  1  0  0  0  0  0  0
  161.3630  202.9520  148.3480 C   0  0  0  0  0  0  0  0  0  0  0  0
  160.4220  202.0730  147.7560 N   0  0  0  0  0  2  0  0  0  0  0  0
  161.6290  203.3320  146.1530 C   0  0  2  0  0  3  0  0  0  0  0  0
  160.5250  202.2770  146.3200 C   0  0  1  0  0  3  0  0  0  0  0  0
  161.2060  199.9400  146.5800 N   0  0  0  0  0  1  0  0  0  0  0  0
  159.7060  200.4630  144.7370 C   0  0  0  0  0  1  0  0  0  0  0  0
  160.8490  200.9600  145.6090 C   0  0  1  0  0  3  0  0  0  0  0  0
  1 23  1  6  0  0  0
  1  5  1  0  0  0  0
  3  4  1  1  0  0  0
  5  4  1  0  0  0  0
  6  2  1  1  0  0  0
  6  1  1  0  0  0  0
  6  3  1  0  0  0  0
  7 19  1  6  0  0  0
  8  9  1  6  0  0  0
  8  3  1  0  0  0  0
  8  7  1  0  0  0  0
  9  7  1  0  0  0  0
 10 13  1  0  0  0  0
 11 14  1  0  0  0  0
 12 14  1  0  0  0  0
 12 18  1  0  0  0  0
 13 18  1  0  0  0  0
 15 20  1  0  0  0  0
 16 11  1  0  0  0  0
 17 15  2  0  0  0  0
 19 21  1  0  0  0  0
 20 10  1  0  0  0  0
 21 15  1  0  0  0  0
 21 16  2  0  0  0  0
 23 22  1  1  0  0  0
 24 26  2  0  0  0  0
 26 23  1  0  0  0  0
 27 26  1  0  0  0  0
 28 25  1  1  0  0  0
 28 29  1  0  0  0  0
 28 24  1  0  0  0  0
 29 32  1  6  0  0  0
 29 27  1  0  0  0  0
 32 31  1  1  0  0  0
 32 30  1  0  0  0  0
M  END
>  <MODEL>
5

>  <REMARK>
 VINA RESULT:      -6.8      2.181      3.496
  Name = 
  5 active torsions:
  status: ('A' for Active; 'I' for Inactive)
    1  A    between atoms: C_1  and  C_25
    2  A    between atoms: C_13  and  N_22
    3  A    between atoms: C_14  and  C_15
    4  A    between atoms: C_16  and  C_25
    5  A    between atoms: C_27  and  C_31
                            x       y       z     vdW  Elec       q    Type
                         _______ _______ _______ _____ _____    ______ ____

>  <TORSDO>
F 5

$$$$
=
 OpenBabel11072410273D

 32 35  0  0  1  0  0  0  0  0999 V2000
  161.7720  205.3900  150.6700 C   0  0  1  0  0  3  0  0  0  0  0  0
  163.3150  205.9470  152.3560 O   0  0  0  0  0  1  0  0  0  0  0  0
  160.9930  206.5260  152.5330 C   0  0  1  0  0  3  0  0  0  0  0  0
  160.7890  207.3230  151.4010 O   0  0  0  0  0  0  0  0  0  0  0  0
  160.8320  206.4610  150.3440 N   0  0  0  0  0  2  0  0  0  0  0  0
  162.0130  205.4830  152.1490 C   0  0  1  0  0  3  0  0  0  0  0  0
  160.2010  208.1680  154.2040 C   0  0  1  0  0  3  0  0  0  0  0  0
  161.4020  207.3790  153.7280 C   0  0  1  0  0  3  0  0  0  0  0  0
  160.6410  206.9320  154.9600 C   0  0  0  0  0  2  0  0  0  0  0  0
  159.8490  213.9520  156.4990 C   0  0  0  0  0  2  0  0  0  0  0  0
  157.8020  211.7410  154.3860 C   0  0  0  0  0  2  0  0  0  0  0  0
  157.7950  211.9840  156.7820 O   0  0  0  0  0  0  0  0  0  0  0  0
  158.3780  214.3440  156.5880 C   0  0  0  0  0  2  0  0  0  0  0  0
  156.9700  211.7830  155.6680 C   0  0  0  0  0  2  0  0  0  0  0  0
  160.4680  211.7170  155.6920 C   0  0  0  0  0  0  0  0  0  0  0  0
  158.7260  210.6080  154.3850 N   0  0  0  0  0  0  0  0  0  0  0  0
  161.3600  211.5210  156.5620 O   0  0  0  0  0  0  0  0  0  0  0  0
  157.5130  213.2720  157.2600 C   0  0  0  0  0  2  0  0  0  0  0  0
  160.6610  209.3560  154.9080 N   0  0  0  0  0  2  0  0  0  0  0  0
  160.0070  213.0100  155.4500 O   0  0  0  0  0  0  0  0  0  0  0  0
  159.9030  210.5680  154.9530 C   0  0  0  0  0  0  0  0  0  0  0  0
  159.8430  203.9650  150.7320 O   0  0  0  0  0  1  0  0  0  0  0  0
  161.1670  204.0360  150.2970 C   0  0  1  0  0  3  0  0  0  0  0  0
  160.4470  202.9650  148.2310 N   0  0  0  0  0  0  0  0  0  0  0  0
  161.2030  201.5560  146.4030 C   0  0  0  0  0  1  0  0  0  0  0  0
  161.2150  203.8130  148.8200 C   0  0  0  0  0  0  0  0  0  0  0  0
  162.1350  204.4710  147.9670 N   0  0  0  0  0  2  0  0  0  0  0  0
  160.7450  202.9440  146.8060 C   0  0  2  0  0  3  0  0  0  0  0  0
  161.9000  203.9420  146.6330 C   0  0  1  0  0  3  0  0  0  0  0  0
  160.8350  204.5480  144.5150 N   0  0  0  0  0  1  0  0  0  0  0  0
  160.7800  206.2000  146.2990 C   0  0  0  0  0  1  0  0  0  0  0  0
  161.5690  205.0710  145.6540 C   0  0  1  0  0  3  0  0  0  0  0  0
  1 23  1  1  0  0  0
  1  6  1  0  0  0  0
  3  4  1  6  0  0  0
  3  8  1  0  0  0  0
  5  1  1  0  0  0  0
  5  4  1  0  0  0  0
  6  2  1  6  0  0  0
  6  3  1  0  0  0  0
  7 19  1  1  0  0  0
  7  9  1  0  0  0  0
  8  7  1  0  0  0  0
  8  9  1  1  0  0  0
 10 13  1  0  0  0  0
 11 14  1  0  0  0  0
 12 18  1  0  0  0  0
 13 18  1  0  0  0  0
 14 12  1  0  0  0  0
 15 17  2  0  0  0  0
 16 11  1  0  0  0  0
 16 21  2  0  0  0  0
 19 21  1  0  0  0  0
 20 15  1  0  0  0  0
 20 10  1  0  0  0  0
 21 15  1  0  0  0  0
 23 22  1  6  0  0  0
 24 26  2  0  0  0  0
 26 23  1  0  0  0  0
 27 26  1  0  0  0  0
 28 25  1  1  0  0  0
 28 24  1  0  0  0  0
 29 32  1  6  0  0  0
 29 28  1  0  0  0  0
 29 27  1  0  0  0  0
 30 32  1  0  0  0  0
 32 31  1  1  0  0  0
M  END
>  <MODEL>
6

>  <REMARK>
 VINA RESULT:      -6.6      1.796      2.574
  Name = 
  5 active torsions:
  status: ('A' for Active; 'I' for Inactive)
    1  A    between atoms: C_1  and  C_25
    2  A    between atoms: C_13  and  N_22
    3  A    between atoms: C_14  and  C_15
    4  A    between atoms: C_16  and  C_25
    5  A    between atoms: C_27  and  C_31
                            x       y       z     vdW  Elec       q    Type
                         _______ _______ _______ _____ _____    ______ ____

>  <TORSDO>
F 5

$$$$
=
 OpenBabel11072410273D

 32 35  0  0  1  0  0  0  0  0999 V2000
  162.2360  211.2030  148.7950 C   0  0  1  0  0  3  0  0  0  0  0  0
  163.9160  212.2040  147.4870 O   0  0  0  0  0  1  0  0  0  0  0  0
  161.6300  212.9230  147.3660 C   0  0  1  0  0  3  0  0  0  0  0  0
  160.9630  211.7560  146.9760 O   0  0  0  0  0  0  0  0  0  0  0  0
  160.9920  210.9440  148.0730 N   0  0  0  0  0  2  0  0  0  0  0  0
  162.7770  212.4910  148.2450 C   0  0  1  0  0  3  0  0  0  0  0  0
  161.3640  213.1810  144.9210 C   0  0  1  0  0  3  0  0  0  0  0  0
  162.0570  213.7330  146.1490 C   0  0  1  0  0  3  0  0  0  0  0  0
  160.8570  214.4530  145.5660 C   0  0  0  0  0  2  0  0  0  0  0  0
  163.1590  212.8380  138.9620 C   0  0  0  0  0  2  0  0  0  0  0  0
  160.8280  211.0770  141.2000 C   0  0  0  0  0  2  0  0  0  0  0  0
  160.4340  213.0050  139.8120 O   0  0  0  0  0  0  0  0  0  0  0  0
  162.0340  212.1950  138.1580 C   0  0  0  0  0  2  0  0  0  0  0  0
  159.8570  211.8190  140.2820 C   0  0  0  0  0  2  0  0  0  0  0  0
  162.8690  213.2270  141.3700 C   0  0  0  0  0  0  0  0  0  0  0  0
  161.1290  211.8560  142.4010 N   0  0  0  0  0  0  0  0  0  0  0  0
  163.3790  214.3800  141.3650 O   0  0  0  0  0  0  0  0  0  0  0  0
  160.6630  212.8220  138.4400 C   0  0  0  0  0  2  0  0  0  0  0  0
  162.1480  213.5140  143.7410 N   0  0  0  0  0  2  0  0  0  0  0  0
  163.0940  212.3640  140.2980 O   0  0  0  0  0  0  0  0  0  0  0  0
  162.0190  212.8080  142.5040 C   0  0  0  0  0  0  0  0  0  0  0  0
  160.8180  212.1090  150.5050 O   0  0  0  0  0  1  0  0  0  0  0  0
  161.9510  211.3230  150.2930 C   0  0  1  0  0  3  0  0  0  0  0  0
  162.3270  208.9220  150.4660 N   0  0  0  0  0  0  0  0  0  0  0  0
  161.2180  206.7650  150.3380 C   0  0  0  0  0  1  0  0  0  0  0  0
  161.7440  209.9790  150.9120 C   0  0  0  0  0  0  0  0  0  0  0  0
  160.8600  209.7540  151.9960 N   0  0  0  0  0  2  0  0  0  0  0  0
  161.9070  207.7670  151.2440 C   0  0  2  0  0  3  0  0  0  0  0  0
  160.8990  208.3250  152.2610 C   0  0  1  0  0  3  0  0  0  0  0  0
  160.9620  209.1900  154.5490 N   0  0  0  0  0  1  0  0  0  0  0  0
  160.6770  206.7900  154.2760 C   0  0  0  0  0  1  0  0  0  0  0  0
  161.3060  208.0540  153.7120 C   0  0  1  0  0  3  0  0  0  0  0  0
  1 23  1  1  0  0  0
  3  4  1  6  0  0  0
  3  6  1  0  0  0  0
  4  5  1  0  0  0  0
  5  1  1  0  0  0  0
  6  2  1  6  0  0  0
  6  1  1  0  0  0  0
  7 19  1  6  0  0  0
  7  9  1  0  0  0  0
  7  8  1  0  0  0  0
  8  9  1  1  0  0  0
  8  3  1  0  0  0  0
 10 20  1  0  0  0  0
 11 16  1  0  0  0  0
 12 14  1  0  0  0  0
 13 18  1  0  0  0  0
 13 10  1  0  0  0  0
 14 11  1  0  0  0  0
 15 21  1  0  0  0  0
 16 21  2  0  0  0  0
 17 15  2  0  0  0  0
 18 12  1  0  0  0  0
 20 15  1  0  0  0  0
 21 19  1  0  0  0  0
 23 22  1  6  0  0  0
 23 26  1  0  0  0  0
 24 26  2  0  0  0  0
 24 28  1  0  0  0  0
 26 27  1  0  0  0  0
 27 29  1  0  0  0  0
 28 25  1  6  0  0  0
 28 29  1  0  0  0  0
 29 32  1  1  0  0  0
 32 31  1  1  0  0  0
 32 30  1  0  0  0  0
M  END
>  <MODEL>
7

>  <REMARK>
 VINA RESULT:      -6.3      6.511     10.835
  Name = 
  5 active torsions:
  status: ('A' for Active; 'I' for Inactive)
    1  A    between atoms: C_1  and  C_25
    2  A    between atoms: C_13  and  N_22
    3  A    between atoms: C_14  and  C_15
    4  A    between atoms: C_16  and  C_25
    5  A    between atoms: C_27  and  C_31
                            x       y       z     vdW  Elec       q    Type
                         _______ _______ _______ _____ _____    ______ ____

>  <TORSDO>
F 5

$$$$
=
 OpenBabel11072410273D

 32 35  0  0  1  0  0  0  0  0999 V2000
  160.0090  211.9920  155.7210 C   0  0  1  0  0  3  0  0  0  0  0  0
  159.0860  210.4170  154.2350 O   0  0  0  0  0  1  0  0  0  0  0  0
  160.1520  209.7480  156.2790 C   0  0  1  0  0  3  0  0  0  0  0  0
  161.4460  210.2590  156.1310 O   0  0  0  0  0  0  0  0  0  0  0  0
  161.3130  211.6110  156.2590 N   0  0  0  0  0  2  0  0  0  0  0  0
  159.2230  210.7190  155.5940 C   0  0  1  0  0  3  0  0  0  0  0  0
  161.4650  207.8250  155.4480 C   0  0  1  0  0  3  0  0  0  0  0  0
  160.0660  208.3260  155.7380 C   0  0  1  0  0  3  0  0  0  0  0  0
  160.7430  207.3710  156.7000 C   0  0  0  0  0  2  0  0  0  0  0  0
  161.0030  205.4200  149.7170 C   0  0  0  0  0  2  0  0  0  0  0  0
  160.8330  208.7430  151.2880 C   0  0  0  0  0  2  0  0  0  0  0  0
  162.7490  207.5710  150.4200 O   0  0  0  0  0  0  0  0  0  0  0  0
  161.3760  206.5030  148.7110 C   0  0  0  0  0  2  0  0  0  0  0  0
  162.1610  208.8370  150.5350 C   0  0  0  0  0  2  0  0  0  0  0  0
  161.0950  205.9070  152.1230 C   0  0  0  0  0  0  0  0  0  0  0  0
  161.0290  208.2890  152.6630 N   0  0  0  0  0  0  0  0  0  0  0  0
  161.6290  204.8100  152.4440 O   0  0  0  0  0  0  0  0  0  0  0  0
  162.6840  207.2220  149.0630 C   0  0  0  0  0  2  0  0  0  0  0  0
  161.3970  206.7770  154.4420 N   0  0  0  0  0  2  0  0  0  0  0  0
  160.4770  206.0400  150.8810 O   0  0  0  0  0  0  0  0  0  0  0  0
  161.1510  207.0490  153.0590 C   0  0  0  0  0  0  0  0  0  0  0  0
  160.1200  214.0970  156.8640 O   0  0  0  0  0  1  0  0  0  0  0  0
  159.3190  212.9700  156.6720 C   0  0  1  0  0  3  0  0  0  0  0  0
  157.1750  214.1150  156.8260 N   0  0  0  0  0  0  0  0  0  0  0  0
  154.7720  213.7570  156.8150 C   0  0  0  0  0  1  0  0  0  0  0  0
  157.9890  213.3940  156.1390 C   0  0  0  0  0  0  0  0  0  0  0  0
  157.5020  212.9980  154.8700 N   0  0  0  0  0  2  0  0  0  0  0  0
  155.9550  214.3370  156.0630 C   0  0  2  0  0  3  0  0  0  0  0  0
  156.1670  213.5620  154.7540 C   0  0  1  0  0  3  0  0  0  0  0  0
  157.1570  214.1740  152.6010 N   0  0  0  0  0  1  0  0  0  0  0  0
  154.7350  214.2990  152.7850 C   0  0  0  0  0  1  0  0  0  0  0  0
  156.0620  214.4530  153.5120 C   0  0  1  0  0  3  0  0  0  0  0  0
  1  5  1  0  0  0  0
  1 23  1  1  0  0  0
  3  4  1  6  0  0  0
  4  5  1  0  0  0  0
  6  2  1  6  0  0  0
  6  1  1  0  0  0  0
  6  3  1  0  0  0  0
  7 19  1  6  0  0  0
  7  8  1  0  0  0  0
  7  9  1  0  0  0  0
  8  3  1  0  0  0  0
  8  9  1  1  0  0  0
 10 20  1  0  0  0  0
 11 16  1  0  0  0  0
 12 14  1  0  0  0  0
 13 18  1  0  0  0  0
 13 10  1  0  0  0  0
 14 11  1  0  0  0  0
 15 17  2  0  0  0  0
 15 21  1  0  0  0  0
 16 21  2  0  0  0  0
 18 12  1  0  0  0  0
 20 15  1  0  0  0  0
 21 19  1  0  0  0  0
 23 22  1  6  0  0  0
 26 23  1  0  0  0  0
 26 24  2  0  0  0  0
 27 26  1  0  0  0  0
 28 25  1  1  0  0  0
 28 24  1  0  0  0  0
 29 32  1  6  0  0  0
 29 27  1  0  0  0  0
 29 28  1  0  0  0  0
 30 32  1  0  0  0  0
 32 31  1  6  0  0  0
M  END
>  <MODEL>
8

>  <REMARK>
 VINA RESULT:      -6.2      3.006      9.821
  Name = 
  5 active torsions:
  status: ('A' for Active; 'I' for Inactive)
    1  A    between atoms: C_1  and  C_25
    2  A    between atoms: C_13  and  N_22
    3  A    between atoms: C_14  and  C_15
    4  A    between atoms: C_16  and  C_25
    5  A    between atoms: C_27  and  C_31
                            x       y       z     vdW  Elec       q    Type
                         _______ _______ _______ _____ _____    ______ ____

>  <TORSDO>
F 5

$$$$
=
 OpenBabel11072410273D

 32 35  0  0  1  0  0  0  0  0999 V2000
  161.2780  207.5320  148.8620 C   0  0  1  0  0  3  0  0  0  0  0  0
  162.2450  208.9460  150.4760 O   0  0  0  0  0  1  0  0  0  0  0  0
  161.7910  206.6340  150.9360 C   0  0  1  0  0  3  0  0  0  0  0  0
  160.4090  206.5490  150.7370 O   0  0  0  0  0  0  0  0  0  0  0  0
  160.2350  206.6540  149.3870 N   0  0  0  0  0  2  0  0  0  0  0  0
  162.3070  207.6530  149.9490 C   0  0  1  0  0  3  0  0  0  0  0  0
  160.8450  206.8310  153.2120 C   0  0  1  0  0  3  0  0  0  0  0  0
  162.1080  206.9680  152.3880 C   0  0  1  0  0  3  0  0  0  0  0  0
  161.8950  205.7410  153.2530 C   0  0  0  0  0  2  0  0  0  0  0  0
  160.5750  212.0670  156.5830 C   0  0  0  0  0  2  0  0  0  0  0  0
  160.1820  211.0850  153.0580 C   0  0  0  0  0  2  0  0  0  0  0  0
  158.5190  211.1990  154.7960 O   0  0  0  0  0  0  0  0  0  0  0  0
  159.6860  213.0640  155.8490 C   0  0  0  0  0  2  0  0  0  0  0  0
  158.7410  211.4330  153.4330 C   0  0  0  0  0  2  0  0  0  0  0  0
  160.9290  209.8260  155.6410 C   0  0  0  0  0  0  0  0  0  0  0  0
  160.4550  209.6610  153.2500 N   0  0  0  0  0  0  0  0  0  0  0  0
  160.8150  209.2170  156.7400 O   0  0  0  0  0  0  0  0  0  0  0  0
  158.3530  212.4560  155.3960 C   0  0  0  0  0  2  0  0  0  0  0  0
  160.9600  207.6610  154.4010 N   0  0  0  0  0  2  0  0  0  0  0  0
  161.1700  211.1990  155.6300 O   0  0  0  0  0  0  0  0  0  0  0  0
  160.7830  209.0800  154.3740 C   0  0  0  0  0  0  0  0  0  0  0  0
  163.2610  207.1510  147.5670 O   0  0  0  0  0  1  0  0  0  0  0  0
  161.8840  206.9220  147.5980 C   0  0  1  0  0  3  0  0  0  0  0  0
  160.7900  204.8680  148.3140 N   0  0  0  0  0  0  0  0  0  0  0  0
  161.2030  202.6750  149.2750 C   0  0  0  0  0  1  0  0  0  0  0  0
  161.6250  205.4520  147.5300 C   0  0  0  0  0  0  0  0  0  0  0  0
  162.3090  204.5870  146.6410 N   0  0  0  0  0  2  0  0  0  0  0  0
  160.7770  203.4390  148.0360 C   0  0  2  0  0  3  0  0  0  0  0  0
  161.8190  203.2470  146.9240 C   0  0  1  0  0  3  0  0  0  0  0  0
  160.4620  201.4260  146.0110 N   0  0  0  0  0  1  0  0  0  0  0  0
  160.3660  203.5680  144.8610 C   0  0  0  0  0  1  0  0  0  0  0  0
  161.2320  202.6080  145.6630 C   0  0  1  0  0  3  0  0  0  0  0  0
  1 23  1  6  0  0  0
  1  5  1  0  0  0  0
  1  6  1  0  0  0  0
  3  4  1  1  0  0  0
  3  8  1  0  0  0  0
  5  4  1  0  0  0  0
  6  2  1  1  0  0  0
  6  3  1  0  0  0  0
  7  9  1  0  0  0  0
  7 19  1  1  0  0  0
  8  7  1  0  0  0  0
  8  9  1  1  0  0  0
 11 16  1  0  0  0  0
 11 14  1  0  0  0  0
 12 18  1  0  0  0  0
 13 10  1  0  0  0  0
 14 12  1  0  0  0  0
 15 17  2  0  0  0  0
 16 21  2  0  0  0  0
 18 13  1  0  0  0  0
 20 15  1  0  0  0  0
 20 10  1  0  0  0  0
 21 19  1  0  0  0  0
 21 15  1  0  0  0  0
 23 22  1  1  0  0  0
 26 23  1  0  0  0  0
 26 24  2  0  0  0  0
 27 29  1  0  0  0  0
 27 26  1  0  0  0  0
 28 24  1  0  0  0  0
 28 25  1  1  0  0  0
 29 32  1  6  0  0  0
 29 28  1  0  0  0  0
 32 31  1  1  0  0  0
 32 30  1  0  0  0  0
M  END
>  <MODEL>
9

>  <REMARK>
 VINA RESULT:      -6.2      1.726      2.346
  Name = 
  5 active torsions:
  status: ('A' for Active; 'I' for Inactive)
    1  A    between atoms: C_1  and  C_25
    2  A    between atoms: C_13  and  N_22
    3  A    between atoms: C_14  and  C_15
    4  A    between atoms: C_16  and  C_25
    5  A    between atoms: C_27  and  C_31
                            x       y       z     vdW  Elec       q    Type
                         _______ _______ _______ _____ _____    ______ ____

>  <TORSDO>
F 5

$$$$
