=
 OpenBabel11072409563D

 48 50  0  0  1  0  0  0  0  0999 V2000
  161.7790  207.9300  151.6890 C   0  0  1  0  0  3  0  0  0  0  0  0
  160.4520  207.8600  152.1420 O   0  0  0  0  0  1  0  0  0  0  0  0
  163.1890  206.0410  151.9840 O   0  0  0  0  0  0  0  0  0  0  0  0
  162.2750  206.5540  151.3510 C   0  0  0  0  0  0  0  0  0  0  0  0
  161.6280  205.7870  150.2430 C   0  0  0  0  0  2  0  0  0  0  0  0
  160.4110  205.0300  150.7560 C   0  0  0  0  0  2  0  0  0  0  0  0
  161.1280  203.8170  152.6430 O   0  0  0  0  0  0  0  0  0  0  0  0
  160.8100  203.7660  151.4650 C   0  0  0  0  0  0  0  0  0  0  0  0
  160.6950  202.4140  150.8240 C   0  0  0  0  0  2  0  0  0  0  0  0
  160.0920  202.3930  149.4130 C   0  0  0  0  0  2  0  0  0  0  0  0
  160.9470  201.7210  148.3090 C   0  0  2  0  0  0  0  0  0  0  0  0
  161.6450  200.6920  148.9500 O   0  0  0  0  0  1  0  0  0  0  0  0
  161.9860  202.6940  147.6850 C   0  0  0  0  0  2  0  0  0  0  0  0
  161.4210  204.0780  147.3440 C   0  0  0  0  0  2  0  0  0  0  0  0
  162.0990  205.7900  145.5990 C   0  0  1  0  0  3  0  0  0  0  0  0
  162.3900  204.8730  146.5310 C   0  0  2  0  0  3  0  0  0  0  0  0
  162.3460  204.8410  145.1140 O   0  0  0  0  0  0  0  0  0  0  0  0
  160.4940  206.2620  145.1170 F   0  0  0  0  0  0  0  0  0  0  0  0
  161.1450  205.2930  144.3730 C   0  0  0  0  0  0  0  0  0  0  0  0
  161.5190  205.8390  143.1630 F   0  0  0  0  0  0  0  0  0  0  0  0
  160.2650  204.2430  144.1520 F   0  0  0  0  0  0  0  0  0  0  0  0
  160.1150  201.1060  147.3270 O   0  0  0  0  0  0  0  0  0  0  0  0
  160.7420  200.7650  146.0850 C   0  0  0  0  0  3  0  0  0  0  0  0
  161.3080  199.3550  145.9490 C   0  0  0  0  0  1  0  0  0  0  0  0
  159.9620  201.2070  144.8600 C   0  0  0  0  0  1  0  0  0  0  0  0
  161.9490  208.8780  150.5000 C   0  0  0  0  0  2  0  0  0  0  0  0
  161.8840  210.2780  150.9030 N   0  0  0  0  0  2  0  0  0  0  0  0
  160.7300  210.4440  151.6030 O   0  0  0  0  0  0  0  0  0  0  0  0
  160.7580  211.7830  152.0010 C   0  0  0  0  0  2  0  0  0  0  0  0
  160.5510  211.8910  153.4370 N   0  0  0  0  0  2  0  0  0  0  0  0
  156.8250  213.3000  155.5940 C   0  0  0  0  0  3  0  0  0  0  0  0
  157.2900  213.6470  153.2210 C   0  0  0  0  0  3  0  0  0  0  0  0
  154.7350  213.5030  153.9700 Cl  0  0  0  0  0  0  0  0  0  0  0  0
  158.0380  213.0480  156.0790 C   0  0  0  0  0  3  0  0  0  0  0  0
  158.6010  213.4200  153.1370 C   0  0  0  0  0  3  0  0  0  0  0  0
  159.1940  212.4440  155.3640 C   0  0  0  0  0  0  0  0  0  0  0  0
  159.4070  212.5440  154.0220 C   0  0  0  0  0  0  0  0  0  0  0  0
  156.4110  212.9640  154.2020 C   0  0  2  0  0  3  0  0  0  0  0  0
  160.8300  212.5980  157.0880 O   0  0  0  0  0  0  0  0  0  0  0  0
  160.2320  211.8600  156.2610 C   0  0  0  0  0  0  0  0  0  0  0  0
  159.0390  207.3930  156.4680 C   0  0  0  0  0  1  0  0  0  0  0  0
  160.4400  210.3980  156.3220 C   0  0  0  0  0  0  0  0  0  0  0  0
  162.0370  207.0980  154.8670 O   0  0  0  0  0  1  0  0  0  0  0  0
  161.6420  209.8500  156.9950 C   0  0  0  0  0  3  0  0  0  0  0  0
  159.9300  208.1180  155.4910 C   0  0  1  0  0  3  0  0  0  0  0  0
  159.6700  209.5980  155.5730 C   0  0  0  0  0  3  0  0  0  0  0  0
  161.3350  207.8110  155.7760 N   0  0  0  0  0  0  0  0  0  0  0  0
  162.0580  208.6100  156.7220 C   0  0  0  0  0  3  0  0  0  0  0  0
  1  2  1  6  0  0  0
  4  1  1  0  0  0  0
  4  3  2  0  0  0  0
  5  6  1  0  0  0  0
  5  4  1  0  0  0  0
  6  8  1  0  0  0  0
  8  7  2  0  0  0  0
  9  8  1  0  0  0  0
 10  9  1  0  0  0  0
 11 12  1  1  0  0  0
 11 10  1  0  0  0  0
 13 11  1  0  0  0  0
 14 13  1  0  0  0  0
 15 19  1  1  0  0  0
 15 16  1  0  0  0  0
 16 14  1  1  0  0  0
 17 15  1  0  0  0  0
 17 16  1  0  0  0  0
 19 18  1  0  0  0  0
 20 19  1  0  0  0  0
 21 19  1  0  0  0  0
 22 11  1  0  0  0  0
 23 22  1  0  0  0  0
 24 23  1  0  0  0  0
 25 23  1  0  0  0  0
 26 27  1  0  0  0  0
 26  1  1  0  0  0  0
 27 28  1  0  0  0  0
 28 29  1  0  0  0  0
 29 30  1  0  0  0  0
 30 37  1  0  0  0  0
 31 34  2  0  0  0  0
 32 38  1  0  0  0  0
 35 32  2  0  0  0  0
 35 37  1  0  0  0  0
 36 34  1  0  0  0  0
 36 40  1  0  0  0  0
 37 36  2  0  0  0  0
 38 33  1  6  0  0  0
 38 31  1  0  0  0  0
 40 42  1  0  0  0  0
 40 39  2  0  0  0  0
 42 44  1  0  0  0  0
 43 47  1  0  0  0  0
 45 46  1  0  0  0  0
 45 47  1  0  0  0  0
 45 41  1  1  0  0  0
 46 42  2  0  0  0  0
 47 48  1  0  0  0  0
 48 44  2  0  0  0  0
M  END
>  <MODEL>
1

>  <REMARK>
 VINA RESULT:      -6.1      0.000      0.000
  Name = 
  22 active torsions:
  status: ('A' for Active; 'I' for Inactive)
    1  A    between atoms: O_3  and  C_12
    2  A    between atoms: O_3  and  C_14
    3  A    between atoms: C_4  and  C_33
    4  A    between atoms: C_4  and  C_37
    5  A    between atoms: C_5  and  C_25
    6  A    between atoms: O_7  and  C_9
    7  A    between atoms: O_7  and  N_32
    8  A    between atoms: C_8  and  C_22
    9  A    between atoms: C_8  and  C_42
   10  A    between atoms: C_9  and  N_48
   11  A    between atoms: C_12  and  C_24
   12  A    between atoms: C_12  and  C_42
   13  A    between atoms: C_13  and  C_34
   14  A    between atoms: C_13  and  C_37
   15  A    between atoms: C_15  and  O_45
   16  A    between atoms: C_19  and  C_33
   17  A    between atoms: C_19  and  C_36
   18  A    between atoms: C_22  and  O_45
   19  A    between atoms: C_24  and  C_36
   20  A    between atoms: C_25  and  C_31
   21  A    between atoms: N_32  and  C_34
   22  A    between atoms: C_35  and  N_48
                            x       y       z     vdW  Elec       q    Type
                         _______ _______ _______ _____ _____    ______ ____

>  <TORSDO>
F 22

$$$$
=
 OpenBabel11072409563D

 48 49  0  0  1  0  0  0  0  0999 V2000
  160.8680  213.0820  146.2970 C   0  0  1  0  0  3  0  0  0  0  0  0
  160.0270  213.9150  147.0520 O   0  0  0  0  0  1  0  0  0  0  0  0
  161.5490  213.9380  144.1880 O   0  0  0  0  0  0  0  0  0  0  0  0
  160.6820  213.3620  144.8340 C   0  0  0  0  0  0  0  0  0  0  0  0
  159.4340  212.9090  144.1470 C   0  0  0  0  0  2  0  0  0  0  0  0
  159.7500  212.3900  142.7520 C   0  0  0  0  0  2  0  0  0  0  0  0
  158.1930  213.9390  141.9010 O   0  0  0  0  0  0  0  0  0  0  0  0
  159.2210  213.3140  141.6900 C   0  0  0  0  0  0  0  0  0  0  0  0
  159.9820  213.6130  140.4320 C   0  0  0  0  0  2  0  0  0  0  0  0
  159.3060  213.1790  139.1250 C   0  0  0  0  0  2  0  0  0  0  0  0
  159.7810  211.8350  138.5180 C   0  0  2  0  0  0  0  0  0  0  0  0
  160.6820  212.1790  137.5040 O   0  0  0  0  0  1  0  0  0  0  0  0
  158.6180  211.0260  137.8780 C   0  0  0  0  0  2  0  0  0  0  0  0
  157.2270  211.4320  138.3760 C   0  0  0  0  0  2  0  0  0  0  0  0
  156.0590  209.1810  138.2780 C   0  0  0  0  0  2  0  0  0  0  0  0
  156.4930  210.2610  138.9430 C   0  0  2  0  0  3  0  0  0  0  0  0
  155.2290  209.8770  138.4280 O   0  0  0  0  0  0  0  0  0  0  0  0
  153.5290  211.4230  138.0160 F   0  0  0  0  0  0  0  0  0  0  0  0
  153.9760  210.4870  138.9330 C   0  0  0  0  0  3  0  0  0  0  0  0
  153.0090  209.5150  139.0820 F   0  0  0  0  0  0  0  0  0  0  0  0
  154.1800  211.1240  140.1480 F   0  0  0  0  0  0  0  0  0  0  0  0
  160.5120  211.0750  139.4780 O   0  0  0  0  0  0  0  0  0  0  0  0
  161.7310  210.4760  139.0230 C   0  0  0  0  0  3  0  0  0  0  0  0
  163.0320  211.2070  139.3370 C   0  0  0  0  0  1  0  0  0  0  0  0
  161.8170  208.9830  139.2820 C   0  0  0  0  0  1  0  0  0  0  0  0
  162.3400  213.2100  146.6950 C   0  0  0  0  0  2  0  0  0  0  0  0
  162.6370  212.4940  147.9290 N   0  0  0  0  0  2  0  0  0  0  0  0
  161.7270  211.4910  148.0440 O   0  0  0  0  0  0  0  0  0  0  0  0
  162.4590  210.4190  148.5580 C   0  0  0  0  0  2  0  0  0  0  0  0
  161.5660  209.3530  148.9890 N   0  0  0  0  0  2  0  0  0  0  0  0
  161.0750  207.2410  152.9670 C   0  0  0  0  0  3  0  0  0  0  0  0
  161.8520  209.5400  152.6840 C   0  0  0  0  0  3  0  0  0  0  0  0
  160.5930  208.9330  154.9550 Cl  0  0  0  0  0  0  0  0  0  0  0  0
  161.2860  206.7280  151.7580 C   0  0  0  0  0  3  0  0  0  0  0  0
  162.1900  209.5840  151.3950 C   0  0  0  0  0  3  0  0  0  0  0  0
  161.2920  207.4460  150.4550 C   0  0  0  0  0  0  0  0  0  0  0  0
  161.6230  208.7580  150.3010 C   0  0  0  0  0  0  0  0  0  0  0  0
  160.7620  208.6790  153.2060 C   0  0  2  0  0  3  0  0  0  0  0  0
  161.0140  207.0740  148.1190 O   0  0  0  0  0  0  0  0  0  0  0  0
  161.0840  206.5660  149.2690 C   0  0  0  0  0  0  0  0  0  0  0  0
  161.6890  202.5010  151.3990 C   0  0  0  0  0  1  0  0  0  0  0  0
  161.1420  205.0950  149.4030 C   0  0  0  0  0  0  0  0  0  0  0  0
  159.4690  201.5460  148.9920 O   0  0  0  0  0  1  0  0  0  0  0  0
  161.5460  204.2640  148.2430 C   0  0  0  0  0  3  0  0  0  0  0  0
  160.5160  203.0190  150.6050 C   0  0  1  0  0  3  0  0  0  0  0  0
  160.6090  204.5160  150.4860 C   0  0  0  0  0  3  0  0  0  0  0  0
  160.4890  202.3840  149.2850 N   0  0  0  0  0  0  0  0  0  0  0  0
  161.2250  202.9680  148.2020 C   0  0  0  0  0  3  0  0  0  0  0  0
  1 26  1  0  0  0  0
  1  2  1  1  0  0  0
  3  4  2  0  0  0  0
  4  1  1  0  0  0  0
  5  4  1  0  0  0  0
  6  5  1  0  0  0  0
  8  7  2  0  0  0  0
  8  6  1  0  0  0  0
  9  8  1  0  0  0  0
 10  9  1  0  0  0  0
 11 12  1  6  0  0  0
 11 10  1  0  0  0  0
 11 22  1  0  0  0  0
 13 14  1  0  0  0  0
 13 11  1  0  0  0  0
 15 17  1  0  0  0  0
 15 16  1  0  0  0  0
 16 14  1  6  0  0  0
 17 16  1  0  0  0  0
 18 19  1  0  0  0  0
 19 20  1  0  0  0  0
 19 21  1  0  0  0  0
 23 25  1  0  0  0  0
 23 24  1  0  0  0  0
 23 22  1  0  0  0  0
 26 27  1  0  0  0  0
 27 28  1  0  0  0  0
 28 29  1  0  0  0  0
 29 30  1  0  0  0  0
 30 37  1  0  0  0  0
 31 38  1  0  0  0  0
 32 38  1  0  0  0  0
 34 31  2  0  0  0  0
 35 32  2  0  0  0  0
 36 34  1  0  0  0  0
 37 36  2  0  0  0  0
 37 35  1  0  0  0  0
 38 33  1  1  0  0  0
 39 40  2  0  0  0  0
 40 42  1  0  0  0  0
 40 36  1  0  0  0  0
 42 46  2  0  0  0  0
 43 47  1  0  0  0  0
 44 42  1  0  0  0  0
 45 41  1  1  0  0  0
 46 45  1  0  0  0  0
 47 45  1  0  0  0  0
 48 44  2  0  0  0  0
 48 47  1  0  0  0  0
M  END
>  <MODEL>
2

>  <REMARK>
 VINA RESULT:      -5.9      6.767     10.052
  Name = 
  22 active torsions:
  status: ('A' for Active; 'I' for Inactive)
    1  A    between atoms: O_3  and  C_12
    2  A    between atoms: O_3  and  C_14
    3  A    between atoms: C_4  and  C_33
    4  A    between atoms: C_4  and  C_37
    5  A    between atoms: C_5  and  C_25
    6  A    between atoms: O_7  and  C_9
    7  A    between atoms: O_7  and  N_32
    8  A    between atoms: C_8  and  C_22
    9  A    between atoms: C_8  and  C_42
   10  A    between atoms: C_9  and  N_48
   11  A    between atoms: C_12  and  C_24
   12  A    between atoms: C_12  and  C_42
   13  A    between atoms: C_13  and  C_34
   14  A    between atoms: C_13  and  C_37
   15  A    between atoms: C_15  and  O_45
   16  A    between atoms: C_19  and  C_33
   17  A    between atoms: C_19  and  C_36
   18  A    between atoms: C_22  and  O_45
   19  A    between atoms: C_24  and  C_36
   20  A    between atoms: C_25  and  C_31
   21  A    between atoms: N_32  and  C_34
   22  A    between atoms: C_35  and  N_48
                            x       y       z     vdW  Elec       q    Type
                         _______ _______ _______ _____ _____    ______ ____

>  <TORSDO>
F 22

$$$$
=
 OpenBabel11072409563D

 48 50  0  0  1  0  0  0  0  0999 V2000
  161.9090  207.8370  148.4700 C   0  0  1  0  0  3  0  0  0  0  0  0
  163.1600  207.2310  148.2690 O   0  0  0  0  0  1  0  0  0  0  0  0
  160.1150  206.3210  148.8300 O   0  0  0  0  0  0  0  0  0  0  0  0
  160.8170  206.9120  148.0180 C   0  0  0  0  0  0  0  0  0  0  0  0
  160.5620  206.7280  146.5560 C   0  0  0  0  0  2  0  0  0  0  0  0
  161.8300  206.2800  145.8440 C   0  0  0  0  0  2  0  0  0  0  0  0
  161.6040  204.1380  144.8930 O   0  0  0  0  0  0  0  0  0  0  0  0
  161.9700  204.7840  145.8630 C   0  0  0  0  0  0  0  0  0  0  0  0
  162.6780  204.0560  146.9680 C   0  0  0  0  0  2  0  0  0  0  0  0
  162.3540  202.5610  147.0960 C   0  0  0  0  0  2  0  0  0  0  0  0
  161.1530  202.1920  148.0010 C   0  0  2  0  0  0  0  0  0  0  0  0
  160.4820  203.3950  148.2420 O   0  0  0  0  0  1  0  0  0  0  0  0
  161.5960  201.6040  149.3700 C   0  0  0  0  0  2  0  0  0  0  0  0
  160.5850  201.8210  150.5010 C   0  0  0  0  0  2  0  0  0  0  0  0
  160.9040  203.8940  151.9280 C   0  0  2  0  0  3  0  0  0  0  0  0
  161.1810  202.6220  151.6130 C   0  0  2  0  0  3  0  0  0  0  0  0
  161.8320  203.8540  151.3510 O   0  0  0  0  0  0  0  0  0  0  0  0
  161.1880  204.6730  153.4410 F   0  0  0  0  0  0  0  0  0  0  0  0
  161.5430  205.0620  152.1610 C   0  0  0  0  0  0  0  0  0  0  0  0
  162.6690  205.8560  152.2340 F   0  0  0  0  0  0  0  0  0  0  0  0
  160.4970  205.7940  151.6170 F   0  0  0  0  0  0  0  0  0  0  0  0
  160.2390  201.3420  147.3110 O   0  0  0  0  0  0  0  0  0  0  0  0
  160.6640  200.8570  146.0320 C   0  0  0  0  0  3  0  0  0  0  0  0
  161.1590  199.4170  145.9560 C   0  0  0  0  0  1  0  0  0  0  0  0
  159.7240  201.2160  144.8950 C   0  0  0  0  0  1  0  0  0  0  0  0
  161.6900  208.2710  149.9220 C   0  0  0  0  0  2  0  0  0  0  0  0
  161.9670  209.6890  150.1160 N   0  0  0  0  0  2  0  0  0  0  0  0
  162.3150  209.8590  151.4190 O   0  0  0  0  0  0  0  0  0  0  0  0
  161.2760  210.6220  151.9560 C   0  0  0  0  0  2  0  0  0  0  0  0
  161.4690  210.8090  153.3860 N   0  0  0  0  0  2  0  0  0  0  0  0
  159.8000  208.6470  157.0000 C   0  0  0  0  0  3  0  0  0  0  0  0
  160.6300  207.5630  154.9750 C   0  0  0  0  0  3  0  0  0  0  0  0
  160.7950  206.2000  157.2600 Cl  0  0  0  0  0  0  0  0  0  0  0  0
  159.5680  209.8860  156.5750 C   0  0  0  0  0  3  0  0  0  0  0  0
  160.6490  208.5590  154.0890 C   0  0  0  0  0  3  0  0  0  0  0  0
  160.2500  210.6090  155.4690 C   0  0  0  0  0  0  0  0  0  0  0  0
  160.8100  210.0040  154.3830 C   0  0  0  0  0  0  0  0  0  0  0  0
  160.8580  207.7660  156.4270 C   0  0  2  0  0  3  0  0  0  0  0  0
  161.0440  212.7800  156.0410 O   0  0  0  0  0  0  0  0  0  0  0  0
  160.1190  212.0930  155.5330 C   0  0  0  0  0  0  0  0  0  0  0  0
  157.7640  213.8790  151.9710 C   0  0  0  0  0  1  0  0  0  0  0  0
  159.0060  212.7820  154.8460 C   0  0  0  0  0  0  0  0  0  0  0  0
  155.1600  213.1200  154.0390 O   0  0  0  0  0  1  0  0  0  0  0  0
  158.2340  213.8290  155.5580 C   0  0  0  0  0  3  0  0  0  0  0  0
  157.3400  212.8740  153.0120 C   0  0  1  0  0  3  0  0  0  0  0  0
  158.5580  212.2960  153.6820 C   0  0  0  0  0  3  0  0  0  0  0  0
  156.4530  213.5120  153.9890 N   0  0  0  0  0  0  0  0  0  0  0  0
  157.0130  214.1660  155.1350 C   0  0  0  0  0  3  0  0  0  0  0  0
  1  2  1  1  0  0  0
  1 26  1  0  0  0  0
  4  1  1  0  0  0  0
  4  3  2  0  0  0  0
  5  4  1  0  0  0  0
  6  8  1  0  0  0  0
  6  5  1  0  0  0  0
  7  8  2  0  0  0  0
  8  9  1  0  0  0  0
  9 10  1  0  0  0  0
 10 11  1  0  0  0  0
 11 12  1  1  0  0  0
 11 13  1  0  0  0  0
 13 14  1  0  0  0  0
 15 19  1  1  0  0  0
 16 14  1  6  0  0  0
 16 15  1  0  0  0  0
 17 16  1  0  0  0  0
 17 15  1  0  0  0  0
 19 20  1  0  0  0  0
 19 18  1  0  0  0  0
 21 19  1  0  0  0  0
 22 11  1  0  0  0  0
 23 22  1  0  0  0  0
 24 23  1  0  0  0  0
 25 23  1  0  0  0  0
 26 27  1  0  0  0  0
 27 28  1  0  0  0  0
 28 29  1  0  0  0  0
 29 30  1  0  0  0  0
 30 37  1  0  0  0  0
 32 38  1  0  0  0  0
 34 31  2  0  0  0  0
 35 37  1  0  0  0  0
 35 32  2  0  0  0  0
 36 40  1  0  0  0  0
 36 34  1  0  0  0  0
 37 36  2  0  0  0  0
 38 31  1  0  0  0  0
 38 33  1  1  0  0  0
 40 39  2  0  0  0  0
 42 40  1  0  0  0  0
 42 44  1  0  0  0  0
 45 41  1  6  0  0  0
 45 46  1  0  0  0  0
 45 47  1  0  0  0  0
 46 42  2  0  0  0  0
 47 43  1  0  0  0  0
 47 48  1  0  0  0  0
 48 44  2  0  0  0  0
M  END
>  <MODEL>
3

>  <REMARK>
 VINA RESULT:      -5.7      2.974      5.228
  Name = 
  22 active torsions:
  status: ('A' for Active; 'I' for Inactive)
    1  A    between atoms: O_3  and  C_12
    2  A    between atoms: O_3  and  C_14
    3  A    between atoms: C_4  and  C_33
    4  A    between atoms: C_4  and  C_37
    5  A    between atoms: C_5  and  C_25
    6  A    between atoms: O_7  and  C_9
    7  A    between atoms: O_7  and  N_32
    8  A    between atoms: C_8  and  C_22
    9  A    between atoms: C_8  and  C_42
   10  A    between atoms: C_9  and  N_48
   11  A    between atoms: C_12  and  C_24
   12  A    between atoms: C_12  and  C_42
   13  A    between atoms: C_13  and  C_34
   14  A    between atoms: C_13  and  C_37
   15  A    between atoms: C_15  and  O_45
   16  A    between atoms: C_19  and  C_33
   17  A    between atoms: C_19  and  C_36
   18  A    between atoms: C_22  and  O_45
   19  A    between atoms: C_24  and  C_36
   20  A    between atoms: C_25  and  C_31
   21  A    between atoms: N_32  and  C_34
   22  A    between atoms: C_35  and  N_48
                            x       y       z     vdW  Elec       q    Type
                         _______ _______ _______ _____ _____    ______ ____

>  <TORSDO>
F 22

$$$$
=
 OpenBabel11072409563D

 48 50  0  0  1  0  0  0  0  0999 V2000
  160.8740  204.9250  144.9160 C   0  0  1  0  0  3  0  0  0  0  0  0
  159.8280  204.2960  144.2220 O   0  0  0  0  0  1  0  0  0  0  0  0
  162.9860  205.8070  144.2760 O   0  0  0  0  0  0  0  0  0  0  0  0
  161.8410  205.5300  143.9400 C   0  0  0  0  0  0  0  0  0  0  0  0
  161.4100  205.7760  142.5290 C   0  0  0  0  0  2  0  0  0  0  0  0
  162.3790  206.7190  141.8310 C   0  0  0  0  0  2  0  0  0  0  0  0
  162.4850  205.8860  139.6310 O   0  0  0  0  0  0  0  0  0  0  0  0
  162.1050  206.7930  140.3550 C   0  0  0  0  0  0  0  0  0  0  0  0
  161.2540  207.8690  139.7480 C   0  0  0  0  0  3  0  0  0  0  0  0
  161.6810  209.3110  140.0530 C   0  0  0  0  0  3  0  0  0  0  0  0
  160.9110  210.4290  139.3080 C   0  0  2  0  0  0  0  0  0  0  0  0
  160.7760  209.9790  137.9910 O   0  0  0  0  0  1  0  0  0  0  0  0
  161.6910  211.7740  139.2820 C   0  0  0  0  0  2  0  0  0  0  0  0
  162.7180  211.9230  140.4100 C   0  0  0  0  0  2  0  0  0  0  0  0
  162.7950  213.0640  142.6750 C   0  0  2  0  0  3  0  0  0  0  0  0
  162.1840  212.7690  141.5190 C   0  0  2  0  0  3  0  0  0  0  0  0
  162.0770  212.2560  142.8370 O   0  0  0  0  0  0  0  0  0  0  0  0
  161.5490  212.7100  145.0650 F   0  0  0  0  0  0  0  0  0  0  0  0
  162.3630  213.1050  144.0180 C   0  0  0  0  0  0  0  0  0  0  0  0
  163.6810  212.9520  144.3960 F   0  0  0  0  0  0  0  0  0  0  0  0
  162.1140  214.4440  143.7470 F   0  0  0  0  0  0  0  0  0  0  0  0
  159.5920  210.5740  139.8320 O   0  0  0  0  0  0  0  0  0  0  0  0
  158.5630  210.8870  138.8870 C   0  0  0  0  0  3  0  0  0  0  0  0
  157.3980  209.9100  138.7690 C   0  0  0  0  0  1  0  0  0  0  0  0
  158.1130  212.3360  138.9250 C   0  0  0  0  0  1  0  0  0  0  0  0
  160.3760  205.9740  145.9130 C   0  0  0  0  0  2  0  0  0  0  0  0
  161.3690  206.2650  146.9400 N   0  0  0  0  0  2  0  0  0  0  0  0
  161.3500  207.6080  147.1520 O   0  0  0  0  0  0  0  0  0  0  0  0
  162.1730  207.7930  148.2640 C   0  0  0  0  0  2  0  0  0  0  0  0
  161.3740  208.0490  149.4530 N   0  0  0  0  0  2  0  0  0  0  0  0
  161.3040  205.0890  152.8810 C   0  0  0  0  0  3  0  0  0  0  0  0
  160.6350  204.5940  150.5840 C   0  0  0  0  0  3  0  0  0  0  0  0
  161.5830  202.5810  152.0540 Cl  0  0  0  0  0  0  0  0  0  0  0  0
  161.2320  206.4160  152.9090 C   0  0  0  0  0  3  0  0  0  0  0  0
  160.4620  205.8050  150.0560 C   0  0  0  0  0  3  0  0  0  0  0  0
  161.4080  207.3600  151.7740 C   0  0  0  0  0  0  0  0  0  0  0  0
  161.1360  207.0590  150.4730 C   0  0  0  0  0  0  0  0  0  0  0  0
  161.6270  204.3100  151.6510 C   0  0  2  0  0  3  0  0  0  0  0  0
  162.6090  209.4040  151.5460 O   0  0  0  0  0  0  0  0  0  0  0  0
  161.7370  208.7560  152.1820 C   0  0  0  0  0  0  0  0  0  0  0  0
  159.7730  209.4540  156.3150 C   0  0  0  0  0  1  0  0  0  0  0  0
  160.9270  209.4540  153.2040 C   0  0  0  0  0  0  0  0  0  0  0  0
  160.0950  212.6940  155.2940 O   0  0  0  0  0  1  0  0  0  0  0  0
  159.7600  210.2690  152.7900 C   0  0  0  0  0  3  0  0  0  0  0  0
  160.6730  210.3500  155.5010 C   0  0  1  0  0  3  0  0  0  0  0  0
  161.3880  209.5340  154.4580 C   0  0  0  0  0  3  0  0  0  0  0  0
  159.8850  211.4220  154.8860 N   0  0  0  0  0  0  0  0  0  0  0  0
  159.2740  211.2080  153.6060 C   0  0  0  0  0  3  0  0  0  0  0  0
  1  2  1  6  0  0  0
  1 26  1  0  0  0  0
  4  3  2  0  0  0  0
  4  1  1  0  0  0  0
  5  4  1  0  0  0  0
  6  5  1  0  0  0  0
  7  8  2  0  0  0  0
  8  6  1  0  0  0  0
  9 10  2  0  0  0  0
  9  8  1  0  0  0  0
 11 12  1  6  0  0  0
 11 22  1  0  0  0  0
 11 10  1  0  0  0  0
 13 11  1  0  0  0  0
 13 14  1  0  0  0  0
 15 17  1  0  0  0  0
 15 19  1  1  0  0  0
 16 14  1  6  0  0  0
 16 15  1  0  0  0  0
 16 17  1  0  0  0  0
 19 20  1  0  0  0  0
 19 18  1  0  0  0  0
 21 19  1  0  0  0  0
 23 25  1  0  0  0  0
 23 22  1  0  0  0  0
 24 23  1  0  0  0  0
 26 27  1  0  0  0  0
 27 28  1  0  0  0  0
 28 29  1  0  0  0  0
 29 30  1  0  0  0  0
 30 37  1  0  0  0  0
 31 34  2  0  0  0  0
 32 38  1  0  0  0  0
 35 37  1  0  0  0  0
 35 32  2  0  0  0  0
 36 40  1  0  0  0  0
 36 34  1  0  0  0  0
 37 36  2  0  0  0  0
 38 33  1  1  0  0  0
 38 31  1  0  0  0  0
 39 40  2  0  0  0  0
 40 42  1  0  0  0  0
 42 46  2  0  0  0  0
 44 42  1  0  0  0  0
 44 48  2  0  0  0  0
 45 41  1  6  0  0  0
 46 45  1  0  0  0  0
 47 43  1  0  0  0  0
 47 45  1  0  0  0  0
 48 47  1  0  0  0  0
M  END
>  <MODEL>
4

>  <REMARK>
 VINA RESULT:      -5.6      5.356      8.892
  Name = 
  22 active torsions:
  status: ('A' for Active; 'I' for Inactive)
    1  A    between atoms: O_3  and  C_12
    2  A    between atoms: O_3  and  C_14
    3  A    between atoms: C_4  and  C_33
    4  A    between atoms: C_4  and  C_37
    5  A    between atoms: C_5  and  C_25
    6  A    between atoms: O_7  and  C_9
    7  A    between atoms: O_7  and  N_32
    8  A    between atoms: C_8  and  C_22
    9  A    between atoms: C_8  and  C_42
   10  A    between atoms: C_9  and  N_48
   11  A    between atoms: C_12  and  C_24
   12  A    between atoms: C_12  and  C_42
   13  A    between atoms: C_13  and  C_34
   14  A    between atoms: C_13  and  C_37
   15  A    between atoms: C_15  and  O_45
   16  A    between atoms: C_19  and  C_33
   17  A    between atoms: C_19  and  C_36
   18  A    between atoms: C_22  and  O_45
   19  A    between atoms: C_24  and  C_36
   20  A    between atoms: C_25  and  C_31
   21  A    between atoms: N_32  and  C_34
   22  A    between atoms: C_35  and  N_48
                            x       y       z     vdW  Elec       q    Type
                         _______ _______ _______ _____ _____    ______ ____

>  <TORSDO>
F 22

$$$$
=
 OpenBabel11072409563D

 48 49  0  0  1  0  0  0  0  0999 V2000
  160.4360  212.7710  146.0180 C   0  0  1  0  0  3  0  0  0  0  0  0
  159.7600  213.8440  146.6220 O   0  0  0  0  0  1  0  0  0  0  0  0
  160.8410  214.0380  144.0500 O   0  0  0  0  0  0  0  0  0  0  0  0
  160.4820  212.9710  144.5320 C   0  0  0  0  0  0  0  0  0  0  0  0
  160.1120  211.8420  143.6230 C   0  0  0  0  0  2  0  0  0  0  0  0
  160.7760  212.0100  142.2640 C   0  0  0  0  0  2  0  0  0  0  0  0
  158.7630  212.0200  141.0420 O   0  0  0  0  0  0  0  0  0  0  0  0
  159.8230  212.5880  141.2550 C   0  0  0  0  0  0  0  0  0  0  0  0
  160.0530  213.9180  140.6010 C   0  0  0  0  0  2  0  0  0  0  0  0
  159.7770  213.9770  139.0930 C   0  0  0  0  0  2  0  0  0  0  0  0
  160.9560  213.6000  138.1620 C   0  0  2  0  0  0  0  0  0  0  0  0
  160.8460  214.4480  137.0550 O   0  0  0  0  0  1  0  0  0  0  0  0
  160.8710  212.1320  137.6570 C   0  0  0  0  0  2  0  0  0  0  0  0
  159.4770  211.5080  137.7820 C   0  0  0  0  0  2  0  0  0  0  0  0
  159.4360  209.1880  138.8080 C   0  0  0  0  0  2  0  0  0  0  0  0
  159.5480  210.0160  137.7600 C   0  0  2  0  0  3  0  0  0  0  0  0
  160.4920  209.3230  138.5600 O   0  0  0  0  0  0  0  0  0  0  0  0
  162.0310  207.6100  138.9430 F   0  0  0  0  0  0  0  0  0  0  0  0
  161.4920  208.4130  137.9530 C   0  0  0  0  0  3  0  0  0  0  0  0
  160.8830  207.6090  137.0120 F   0  0  0  0  0  0  0  0  0  0  0  0
  162.5220  209.1250  137.3540 F   0  0  0  0  0  0  0  0  0  0  0  0
  162.2060  213.8930  138.7820 O   0  0  0  0  0  0  0  0  0  0  0  0
  163.3780  213.4250  138.1040 C   0  0  0  0  0  3  0  0  0  0  0  0
  164.4600  214.4510  137.7840 C   0  0  0  0  0  1  0  0  0  0  0  0
  163.9410  212.1330  138.6690 C   0  0  0  0  0  1  0  0  0  0  0  0
  161.8430  212.5660  146.5850 C   0  0  0  0  0  2  0  0  0  0  0  0
  161.8260  212.3680  148.0300 N   0  0  0  0  0  2  0  0  0  0  0  0
  161.1460  211.2160  148.2720 O   0  0  0  0  0  0  0  0  0  0  0  0
  162.0670  210.4060  148.9400 C   0  0  0  0  0  2  0  0  0  0  0  0
  161.5950  209.0300  148.9860 N   0  0  0  0  0  2  0  0  0  0  0  0
  161.6140  205.9380  152.2960 C   0  0  0  0  0  3  0  0  0  0  0  0
  161.5590  208.3570  152.6340 C   0  0  0  0  0  3  0  0  0  0  0  0
  160.4460  206.8230  154.5100 Cl  0  0  0  0  0  0  0  0  0  0  0  0
  162.0670  205.8430  151.0490 C   0  0  0  0  0  3  0  0  0  0  0  0
  161.9430  208.8320  151.4500 C   0  0  0  0  0  3  0  0  0  0  0  0
  161.9070  206.8300  149.9480 C   0  0  0  0  0  0  0  0  0  0  0  0
  161.7710  208.1730  150.1320 C   0  0  0  0  0  0  0  0  0  0  0  0
  160.8050  207.0890  152.7920 C   0  0  2  0  0  3  0  0  0  0  0  0
  162.8570  206.8390  147.7640 O   0  0  0  0  0  0  0  0  0  0  0  0
  162.0950  206.2610  148.5830 C   0  0  0  0  0  0  0  0  0  0  0  0
  160.4390  202.9140  145.8470 C   0  0  0  0  0  1  0  0  0  0  0  0
  161.5450  204.9320  148.2380 C   0  0  0  0  0  0  0  0  0  0  0  0
  161.7790  200.9960  148.3300 O   0  0  0  0  0  1  0  0  0  0  0  0
  160.6990  204.2070  149.2160 C   0  0  0  0  0  3  0  0  0  0  0  0
  161.5810  202.8910  146.8330 C   0  0  1  0  0  3  0  0  0  0  0  0
  162.0030  204.2990  147.1510 C   0  0  0  0  0  3  0  0  0  0  0  0
  161.1770  202.1730  148.0450 N   0  0  0  0  0  0  0  0  0  0  0  0
  160.5340  202.8860  149.1100 C   0  0  0  0  0  3  0  0  0  0  0  0
  1 26  1  0  0  0  0
  1  2  1  1  0  0  0
  3  4  2  0  0  0  0
  4  1  1  0  0  0  0
  5  4  1  0  0  0  0
  6  5  1  0  0  0  0
  7  8  2  0  0  0  0
  8  6  1  0  0  0  0
  9  8  1  0  0  0  0
 10  9  1  0  0  0  0
 11 12  1  6  0  0  0
 11 22  1  0  0  0  0
 11 10  1  0  0  0  0
 13 14  1  0  0  0  0
 13 11  1  0  0  0  0
 16 14  1  1  0  0  0
 16 17  1  0  0  0  0
 16 15  1  0  0  0  0
 17 15  1  0  0  0  0
 19 18  1  0  0  0  0
 20 19  1  0  0  0  0
 21 19  1  0  0  0  0
 23 25  1  0  0  0  0
 23 22  1  0  0  0  0
 24 23  1  0  0  0  0
 26 27  1  0  0  0  0
 27 28  1  0  0  0  0
 28 29  1  0  0  0  0
 29 30  1  0  0  0  0
 30 37  1  0  0  0  0
 31 38  1  0  0  0  0
 32 38  1  0  0  0  0
 34 31  2  0  0  0  0
 35 32  2  0  0  0  0
 36 37  2  0  0  0  0
 36 34  1  0  0  0  0
 37 35  1  0  0  0  0
 38 33  1  1  0  0  0
 39 40  2  0  0  0  0
 40 36  1  0  0  0  0
 42 40  1  0  0  0  0
 42 44  1  0  0  0  0
 45 41  1  6  0  0  0
 45 46  1  0  0  0  0
 45 47  1  0  0  0  0
 46 42  2  0  0  0  0
 47 43  1  0  0  0  0
 47 48  1  0  0  0  0
 48 44  2  0  0  0  0
M  END
>  <MODEL>
5

>  <REMARK>
 VINA RESULT:      -5.5      6.659     10.563
  Name = 
  22 active torsions:
  status: ('A' for Active; 'I' for Inactive)
    1  A    between atoms: O_3  and  C_12
    2  A    between atoms: O_3  and  C_14
    3  A    between atoms: C_4  and  C_33
    4  A    between atoms: C_4  and  C_37
    5  A    between atoms: C_5  and  C_25
    6  A    between atoms: O_7  and  C_9
    7  A    between atoms: O_7  and  N_32
    8  A    between atoms: C_8  and  C_22
    9  A    between atoms: C_8  and  C_42
   10  A    between atoms: C_9  and  N_48
   11  A    between atoms: C_12  and  C_24
   12  A    between atoms: C_12  and  C_42
   13  A    between atoms: C_13  and  C_34
   14  A    between atoms: C_13  and  C_37
   15  A    between atoms: C_15  and  O_45
   16  A    between atoms: C_19  and  C_33
   17  A    between atoms: C_19  and  C_36
   18  A    between atoms: C_22  and  O_45
   19  A    between atoms: C_24  and  C_36
   20  A    between atoms: C_25  and  C_31
   21  A    between atoms: N_32  and  C_34
   22  A    between atoms: C_35  and  N_48
                            x       y       z     vdW  Elec       q    Type
                         _______ _______ _______ _____ _____    ______ ____

>  <TORSDO>
F 22

$$$$
=
 OpenBabel11072409563D

 48 50  0  0  1  0  0  0  0  0999 V2000
  162.3240  208.2990  150.5770 C   0  0  1  0  0  3  0  0  0  0  0  0
  162.7990  207.0900  151.1090 O   0  0  0  0  0  1  0  0  0  0  0  0
  162.3270  208.9430  148.2900 O   0  0  0  0  0  0  0  0  0  0  0  0
  161.9810  208.1180  149.1280 C   0  0  0  0  0  0  0  0  0  0  0  0
  161.2280  206.9020  148.6920 C   0  0  0  0  0  2  0  0  0  0  0  0
  162.0130  206.1360  147.6380 C   0  0  0  0  0  2  0  0  0  0  0  0
  160.1550  206.0880  146.1920 O   0  0  0  0  0  0  0  0  0  0  0  0
  161.0990  205.4640  146.6520 C   0  0  0  0  0  0  0  0  0  0  0  0
  161.3800  204.1000  146.0950 C   0  0  0  0  0  2  0  0  0  0  0  0
  161.9630  203.0820  147.0840 C   0  0  0  0  0  2  0  0  0  0  0  0
  161.2170  201.7290  147.1990 C   0  0  2  0  0  0  0  0  0  0  0  0
  159.8700  202.0220  146.9630 O   0  0  0  0  0  1  0  0  0  0  0  0
  161.3340  201.1030  148.6170 C   0  0  0  0  0  2  0  0  0  0  0  0
  160.0900  201.2960  149.4910 C   0  0  0  0  0  2  0  0  0  0  0  0
  161.2020  203.3060  150.5680 C   0  0  2  0  0  3  0  0  0  0  0  0
  160.1170  202.6170  150.1880 C   0  0  2  0  0  3  0  0  0  0  0  0
  160.7900  202.7700  151.4270 O   0  0  0  0  0  0  0  0  0  0  0  0
  160.5510  204.1480  153.2960 F   0  0  0  0  0  0  0  0  0  0  0  0
  161.0430  204.1120  152.0030 C   0  0  0  0  0  0  0  0  0  0  0  0
  162.3990  204.3590  152.0370 F   0  0  0  0  0  0  0  0  0  0  0  0
  160.4120  205.1040  151.2640 F   0  0  0  0  0  0  0  0  0  0  0  0
  161.6310  200.8320  146.1710 O   0  0  0  0  0  0  0  0  0  0  0  0
  160.6120  200.0010  145.6030 C   0  0  0  0  0  3  0  0  0  0  0  0
  159.9310  200.4970  144.3310 C   0  0  0  0  0  1  0  0  0  0  0  0
  160.9820  198.5310  145.5370 C   0  0  0  0  0  1  0  0  0  0  0  0
  161.1290  208.8570  151.3550 C   0  0  0  0  0  2  0  0  0  0  0  0
  161.2360  210.2970  151.5610 N   0  0  0  0  0  2  0  0  0  0  0  0
  160.6530  210.5790  152.7560 O   0  0  0  0  0  0  0  0  0  0  0  0
  159.9140  211.7390  152.5130 C   0  0  0  0  0  2  0  0  0  0  0  0
  160.0780  212.6850  153.6070 N   0  0  0  0  0  2  0  0  0  0  0  0
  156.5510  213.8500  156.2010 C   0  0  0  0  0  3  0  0  0  0  0  0
  156.6900  214.1870  153.7850 C   0  0  0  0  0  3  0  0  0  0  0  0
  154.2660  213.8650  154.8490 Cl  0  0  0  0  0  0  0  0  0  0  0  0
  157.8300  213.6990  156.5320 C   0  0  0  0  0  3  0  0  0  0  0  0
  157.9930  214.0570  153.5400 C   0  0  0  0  0  3  0  0  0  0  0  0
  158.9310  213.1700  155.6840 C   0  0  0  0  0  0  0  0  0  0  0  0
  158.9680  213.2600  154.3250 C   0  0  0  0  0  0  0  0  0  0  0  0
  155.9940  213.4580  154.8740 C   0  0  2  0  0  3  0  0  0  0  0  0
  160.6950  213.4520  157.2600 O   0  0  0  0  0  0  0  0  0  0  0  0
  160.1150  212.6830  156.4490 C   0  0  0  0  0  0  0  0  0  0  0  0
  159.7460  208.1400  157.2580 C   0  0  0  0  0  1  0  0  0  0  0  0
  160.5040  211.2570  156.4080 C   0  0  0  0  0  0  0  0  0  0  0  0
  161.5600  208.0490  154.3690 O   0  0  0  0  0  1  0  0  0  0  0  0
  161.9390  210.8840  156.3900 C   0  0  0  0  0  3  0  0  0  0  0  0
  159.9350  208.8860  155.9610 C   0  0  1  0  0  3  0  0  0  0  0  0
  159.5700  210.3330  156.1520 C   0  0  0  0  0  3  0  0  0  0  0  0
  161.3210  208.7460  155.5030 N   0  0  0  0  0  0  0  0  0  0  0  0
  162.3130  209.6780  155.9530 C   0  0  0  0  0  3  0  0  0  0  0  0
  1  2  1  1  0  0  0
  1 26  1  0  0  0  0
  3  4  2  0  0  0  0
  4  1  1  0  0  0  0
  5  4  1  0  0  0  0
  6  5  1  0  0  0  0
  7  8  2  0  0  0  0
  8  6  1  0  0  0  0
  9  8  1  0  0  0  0
  9 10  1  0  0  0  0
 10 11  1  0  0  0  0
 11 12  1  6  0  0  0
 11 13  1  0  0  0  0
 13 14  1  0  0  0  0
 15 17  1  0  0  0  0
 15 19  1  1  0  0  0
 16 14  1  6  0  0  0
 16 15  1  0  0  0  0
 16 17  1  0  0  0  0
 19 20  1  0  0  0  0
 19 18  1  0  0  0  0
 21 19  1  0  0  0  0
 22 11  1  0  0  0  0
 23 22  1  0  0  0  0
 24 23  1  0  0  0  0
 25 23  1  0  0  0  0
 26 27  1  0  0  0  0
 27 28  1  0  0  0  0
 29 28  1  0  0  0  0
 29 30  1  0  0  0  0
 30 37  1  0  0  0  0
 31 34  2  0  0  0  0
 32 38  1  0  0  0  0
 35 32  2  0  0  0  0
 35 37  1  0  0  0  0
 36 40  1  0  0  0  0
 36 34  1  0  0  0  0
 37 36  2  0  0  0  0
 38 33  1  1  0  0  0
 38 31  1  0  0  0  0
 40 39  2  0  0  0  0
 42 40  1  0  0  0  0
 43 47  1  0  0  0  0
 44 42  1  0  0  0  0
 45 46  1  0  0  0  0
 45 41  1  1  0  0  0
 46 42  2  0  0  0  0
 47 48  1  0  0  0  0
 47 45  1  0  0  0  0
 48 44  2  0  0  0  0
M  END
>  <MODEL>
6

>  <REMARK>
 VINA RESULT:      -5.4      2.249      3.541
  Name = 
  22 active torsions:
  status: ('A' for Active; 'I' for Inactive)
    1  A    between atoms: O_3  and  C_12
    2  A    between atoms: O_3  and  C_14
    3  A    between atoms: C_4  and  C_33
    4  A    between atoms: C_4  and  C_37
    5  A    between atoms: C_5  and  C_25
    6  A    between atoms: O_7  and  C_9
    7  A    between atoms: O_7  and  N_32
    8  A    between atoms: C_8  and  C_22
    9  A    between atoms: C_8  and  C_42
   10  A    between atoms: C_9  and  N_48
   11  A    between atoms: C_12  and  C_24
   12  A    between atoms: C_12  and  C_42
   13  A    between atoms: C_13  and  C_34
   14  A    between atoms: C_13  and  C_37
   15  A    between atoms: C_15  and  O_45
   16  A    between atoms: C_19  and  C_33
   17  A    between atoms: C_19  and  C_36
   18  A    between atoms: C_22  and  O_45
   19  A    between atoms: C_24  and  C_36
   20  A    between atoms: C_25  and  C_31
   21  A    between atoms: N_32  and  C_34
   22  A    between atoms: C_35  and  N_48
                            x       y       z     vdW  Elec       q    Type
                         _______ _______ _______ _____ _____    ______ ____

>  <TORSDO>
F 22

$$$$
=
 OpenBabel11072409563D

 48 50  0  0  1  0  0  0  0  0999 V2000
  161.9980  206.5500  146.6130 C   0  0  1  0  0  3  0  0  0  0  0  0
  162.9110  205.6960  147.2530 O   0  0  0  0  0  1  0  0  0  0  0  0
  159.9340  206.1580  145.5030 O   0  0  0  0  0  0  0  0  0  0  0  0
  161.0580  205.7450  145.7640 C   0  0  0  0  0  0  0  0  0  0  0  0
  161.5060  204.4330  145.2050 C   0  0  0  0  0  2  0  0  0  0  0  0
  160.3080  203.5480  144.8910 C   0  0  0  0  0  2  0  0  0  0  0  0
  160.0180  201.2130  144.8080 O   0  0  0  0  0  0  0  0  0  0  0  0
  160.5030  202.1540  145.4170 C   0  0  0  0  0  0  0  0  0  0  0  0
  161.3960  201.8520  146.5850 C   0  0  0  0  0  2  0  0  0  0  0  0
  160.7230  201.1600  147.7770 C   0  0  0  0  0  2  0  0  0  0  0  0
  160.6110  201.9890  149.0810 C   0  0  2  0  0  0  0  0  0  0  0  0
  159.2410  202.1150  149.3290 O   0  0  0  0  0  1  0  0  0  0  0  0
  161.2090  203.4160  148.9330 C   0  0  0  0  0  2  0  0  0  0  0  0
  160.4170  204.5050  149.6650 C   0  0  0  0  0  2  0  0  0  0  0  0
  161.4260  205.4880  151.7750 C   0  0  2  0  0  3  0  0  0  0  0  0
  161.3230  205.4040  150.4410 C   0  0  2  0  0  3  0  0  0  0  0  0
  160.8010  206.3040  151.4040 O   0  0  0  0  0  0  0  0  0  0  0  0
  160.7250  205.7910  153.6800 F   0  0  0  0  0  0  0  0  0  0  0  0
  161.4520  206.4800  152.7240 C   0  0  0  0  0  0  0  0  0  0  0  0
  162.7320  205.9680  152.6860 F   0  0  0  0  0  0  0  0  0  0  0  0
  161.5010  207.8180  153.0880 F   0  0  0  0  0  0  0  0  0  0  0  0
  161.1670  201.2760  150.1850 O   0  0  0  0  0  0  0  0  0  0  0  0
  161.4660  202.0470  151.3540 C   0  0  0  0  0  3  0  0  0  0  0  0
  160.3590  202.2100  152.3900 C   0  0  0  0  0  1  0  0  0  0  0  0
  162.8120  201.7220  151.9770 C   0  0  0  0  0  1  0  0  0  0  0  0
  161.2250  207.4320  147.5970 C   0  0  0  0  0  2  0  0  0  0  0  0
  162.1140  208.1360  148.5140 N   0  0  0  0  0  2  0  0  0  0  0  0
  161.3670  208.5290  149.5800 O   0  0  0  0  0  0  0  0  0  0  0  0
  162.2260  209.3420  150.3220 C   0  0  0  0  0  2  0  0  0  0  0  0
  161.4660  210.1990  151.2190 N   0  0  0  0  0  2  0  0  0  0  0  0
  159.3930  214.1230  150.3090 C   0  0  0  0  0  3  0  0  0  0  0  0
  160.8440  212.9100  148.7630 C   0  0  0  0  0  3  0  0  0  0  0  0
  158.9290  214.4410  147.7150 Cl  0  0  0  0  0  0  0  0  0  0  0  0
  159.7470  213.6070  151.4820 C   0  0  0  0  0  3  0  0  0  0  0  0
  161.4970  212.0680  149.5640 C   0  0  0  0  0  3  0  0  0  0  0  0
  160.2910  212.2490  151.7500 C   0  0  0  0  0  0  0  0  0  0  0  0
  161.0140  211.5190  150.8550 C   0  0  0  0  0  0  0  0  0  0  0  0
  159.4570  213.3660  149.0260 C   0  0  2  0  0  3  0  0  0  0  0  0
  161.1260  211.2690  153.7540 O   0  0  0  0  0  0  0  0  0  0  0  0
  160.1470  211.7980  153.1640 C   0  0  0  0  0  0  0  0  0  0  0  0
  155.7190  212.9490  153.8640 C   0  0  0  0  0  1  0  0  0  0  0  0
  158.9330  212.1290  153.9410 C   0  0  0  0  0  0  0  0  0  0  0  0
  156.3160  211.2390  156.7550 O   0  0  0  0  0  1  0  0  0  0  0  0
  159.0580  212.8140  155.2500 C   0  0  0  0  0  3  0  0  0  0  0  0
  156.5210  211.7930  154.4050 C   0  0  1  0  0  3  0  0  0  0  0  0
  157.7590  211.6020  153.5710 C   0  0  0  0  0  3  0  0  0  0  0  0
  156.8630  212.0370  155.8100 N   0  0  0  0  0  0  0  0  0  0  0  0
  158.0580  212.7600  156.1340 C   0  0  0  0  0  3  0  0  0  0  0  0
  1  2  1  1  0  0  0
  1 26  1  0  0  0  0
  3  4  2  0  0  0  0
  4  1  1  0  0  0  0
  5  4  1  0  0  0  0
  6  5  1  0  0  0  0
  6  8  1  0  0  0  0
  7  8  2  0  0  0  0
  8  9  1  0  0  0  0
  9 10  1  0  0  0  0
 10 11  1  0  0  0  0
 11 12  1  1  0  0  0
 11 22  1  0  0  0  0
 13 11  1  0  0  0  0
 13 14  1  0  0  0  0
 15 19  1  6  0  0  0
 16 14  1  1  0  0  0
 16 17  1  0  0  0  0
 16 15  1  0  0  0  0
 17 15  1  0  0  0  0
 19 21  1  0  0  0  0
 19 18  1  0  0  0  0
 20 19  1  0  0  0  0
 22 23  1  0  0  0  0
 23 25  1  0  0  0  0
 23 24  1  0  0  0  0
 26 27  1  0  0  0  0
 27 28  1  0  0  0  0
 28 29  1  0  0  0  0
 29 30  1  0  0  0  0
 31 34  2  0  0  0  0
 32 38  1  0  0  0  0
 32 35  2  0  0  0  0
 34 36  1  0  0  0  0
 35 37  1  0  0  0  0
 36 40  1  0  0  0  0
 37 30  1  0  0  0  0
 37 36  2  0  0  0  0
 38 33  1  6  0  0  0
 38 31  1  0  0  0  0
 40 39  2  0  0  0  0
 40 42  1  0  0  0  0
 42 44  1  0  0  0  0
 44 48  2  0  0  0  0
 45 41  1  6  0  0  0
 45 47  1  0  0  0  0
 46 42  2  0  0  0  0
 46 45  1  0  0  0  0
 47 48  1  0  0  0  0
 47 43  1  0  0  0  0
M  END
>  <MODEL>
7

>  <REMARK>
 VINA RESULT:      -5.3      3.323      5.575
  Name = 
  22 active torsions:
  status: ('A' for Active; 'I' for Inactive)
    1  A    between atoms: O_3  and  C_12
    2  A    between atoms: O_3  and  C_14
    3  A    between atoms: C_4  and  C_33
    4  A    between atoms: C_4  and  C_37
    5  A    between atoms: C_5  and  C_25
    6  A    between atoms: O_7  and  C_9
    7  A    between atoms: O_7  and  N_32
    8  A    between atoms: C_8  and  C_22
    9  A    between atoms: C_8  and  C_42
   10  A    between atoms: C_9  and  N_48
   11  A    between atoms: C_12  and  C_24
   12  A    between atoms: C_12  and  C_42
   13  A    between atoms: C_13  and  C_34
   14  A    between atoms: C_13  and  C_37
   15  A    between atoms: C_15  and  O_45
   16  A    between atoms: C_19  and  C_33
   17  A    between atoms: C_19  and  C_36
   18  A    between atoms: C_22  and  O_45
   19  A    between atoms: C_24  and  C_36
   20  A    between atoms: C_25  and  C_31
   21  A    between atoms: N_32  and  C_34
   22  A    between atoms: C_35  and  N_48
                            x       y       z     vdW  Elec       q    Type
                         _______ _______ _______ _____ _____    ______ ____

>  <TORSDO>
F 22

$$$$
=
 OpenBabel11072409563D

 48 50  0  0  1  0  0  0  0  0999 V2000
  159.8040  212.7960  146.9760 C   0  0  1  0  0  3  0  0  0  0  0  0
  158.7780  213.6780  147.3510 O   0  0  0  0  0  1  0  0  0  0  0  0
  159.8530  211.6890  144.8740 O   0  0  0  0  0  0  0  0  0  0  0  0
  159.9170  212.7520  145.4800 C   0  0  0  0  0  0  0  0  0  0  0  0
  160.0820  214.0250  144.7130 C   0  0  0  0  0  2  0  0  0  0  0  0
  158.7580  214.4530  144.0960 C   0  0  0  0  0  2  0  0  0  0  0  0
  157.6720  214.3170  142.0120 O   0  0  0  0  0  0  0  0  0  0  0  0
  158.7110  214.1390  142.6270 C   0  0  0  0  0  0  0  0  0  0  0  0
  159.9330  213.7510  141.8480 C   0  0  0  0  0  2  0  0  0  0  0  0
  159.7660  213.7060  140.3230 C   0  0  0  0  0  2  0  0  0  0  0  0
  159.6670  212.2980  139.6830 C   0  0  2  0  0  0  0  0  0  0  0  0
  160.2040  212.4320  138.3980 O   0  0  0  0  0  1  0  0  0  0  0  0
  158.1980  211.8090  139.5440 C   0  0  0  0  0  2  0  0  0  0  0  0
  157.9890  210.7640  138.4420 C   0  0  0  0  0  2  0  0  0  0  0  0
  155.8850  209.4170  137.9990 C   0  0  2  0  0  3  0  0  0  0  0  0
  156.8850  209.8200  138.7940 C   0  0  2  0  0  3  0  0  0  0  0  0
  155.5280  210.2090  138.6630 O   0  0  0  0  0  0  0  0  0  0  0  0
  154.0870  208.6900  139.6950 F   0  0  0  0  0  0  0  0  0  0  0  0
  154.4570  209.2040  138.4640 C   0  0  0  0  0  0  0  0  0  0  0  0
  153.3580  209.8000  137.8830 F   0  0  0  0  0  0  0  0  0  0  0  0
  154.8910  208.1570  137.6630 F   0  0  0  0  0  0  0  0  0  0  0  0
  160.4910  211.3650  140.3790 O   0  0  0  0  0  0  0  0  0  0  0  0
  161.4270  210.6260  139.5860 C   0  0  0  0  0  3  0  0  0  0  0  0
  162.9070  210.7930  139.9110 C   0  0  0  0  0  1  0  0  0  0  0  0
  161.0330  209.1780  139.3590 C   0  0  0  0  0  1  0  0  0  0  0  0
  161.1490  213.1500  147.6140 C   0  0  0  0  0  2  0  0  0  0  0  0
  161.0040  213.5460  149.0100 N   0  0  0  0  0  2  0  0  0  0  0  0
  160.5030  212.4770  149.6840 O   0  0  0  0  0  0  0  0  0  0  0  0
  161.6320  211.8300  150.1920 C   0  0  0  0  0  2  0  0  0  0  0  0
  161.6040  210.4150  149.8520 N   0  0  0  0  0  2  0  0  0  0  0  0
  161.8160  206.7580  152.5170 C   0  0  0  0  0  3  0  0  0  0  0  0
  161.6380  209.0620  153.3070 C   0  0  0  0  0  3  0  0  0  0  0  0
  160.6250  207.1440  154.8570 Cl  0  0  0  0  0  0  0  0  0  0  0  0
  162.2620  206.9260  151.2750 C   0  0  0  0  0  3  0  0  0  0  0  0
  161.9850  209.7740  152.2350 C   0  0  0  0  0  3  0  0  0  0  0  0
  162.0400  208.0930  150.3810 C   0  0  0  0  0  0  0  0  0  0  0  0
  161.8350  209.3680  150.8150 C   0  0  0  0  0  0  0  0  0  0  0  0
  160.9530  207.7490  153.2210 C   0  0  2  0  0  3  0  0  0  0  0  0
  162.9830  208.5550  148.2420 O   0  0  0  0  0  0  0  0  0  0  0  0
  162.2440  207.8040  148.9320 C   0  0  0  0  0  0  0  0  0  0  0  0
  161.0540  204.8640  145.5610 C   0  0  0  0  0  1  0  0  0  0  0  0
  161.7420  206.5470  148.3370 C   0  0  0  0  0  0  0  0  0  0  0  0
  161.8830  202.6200  147.9920 O   0  0  0  0  0  1  0  0  0  0  0  0
  160.7190  205.7470  149.0530 C   0  0  0  0  0  3  0  0  0  0  0  0
  161.9960  204.6810  146.7240 C   0  0  1  0  0  3  0  0  0  0  0  0
  162.3790  206.0260  147.2800 C   0  0  0  0  0  3  0  0  0  0  0  0
  161.3650  203.8450  147.7490 N   0  0  0  0  0  0  0  0  0  0  0  0
  160.5520  204.4550  148.7610 C   0  0  0  0  0  3  0  0  0  0  0  0
  1  2  1  6  0  0  0
  1 26  1  0  0  0  0
  3  4  2  0  0  0  0
  4  1  1  0  0  0  0
  5  4  1  0  0  0  0
  6  5  1  0  0  0  0
  7  8  2  0  0  0  0
  8  6  1  0  0  0  0
  9  8  1  0  0  0  0
 10  9  1  0  0  0  0
 11 12  1  6  0  0  0
 11 10  1  0  0  0  0
 11 22  1  0  0  0  0
 13 11  1  0  0  0  0
 14 13  1  0  0  0  0
 15 19  1  1  0  0  0
 15 17  1  0  0  0  0
 15 16  1  0  0  0  0
 16 14  1  6  0  0  0
 17 16  1  0  0  0  0
 19 18  1  0  0  0  0
 20 19  1  0  0  0  0
 21 19  1  0  0  0  0
 23 24  1  0  0  0  0
 23 22  1  0  0  0  0
 25 23  1  0  0  0  0
 26 27  1  0  0  0  0
 27 28  1  0  0  0  0
 28 29  1  0  0  0  0
 30 29  1  0  0  0  0
 30 37  1  0  0  0  0
 31 38  1  0  0  0  0
 34 31  2  0  0  0  0
 35 32  2  0  0  0  0
 36 37  2  0  0  0  0
 36 34  1  0  0  0  0
 37 35  1  0  0  0  0
 38 32  1  0  0  0  0
 38 33  1  1  0  0  0
 39 40  2  0  0  0  0
 40 36  1  0  0  0  0
 42 40  1  0  0  0  0
 42 44  1  0  0  0  0
 45 41  1  6  0  0  0
 45 46  1  0  0  0  0
 45 47  1  0  0  0  0
 46 42  2  0  0  0  0
 47 43  1  0  0  0  0
 47 48  1  0  0  0  0
 48 44  2  0  0  0  0
M  END
>  <MODEL>
8

>  <REMARK>
 VINA RESULT:      -5.3      6.555      9.937
  Name = 
  22 active torsions:
  status: ('A' for Active; 'I' for Inactive)
    1  A    between atoms: O_3  and  C_12
    2  A    between atoms: O_3  and  C_14
    3  A    between atoms: C_4  and  C_33
    4  A    between atoms: C_4  and  C_37
    5  A    between atoms: C_5  and  C_25
    6  A    between atoms: O_7  and  C_9
    7  A    between atoms: O_7  and  N_32
    8  A    between atoms: C_8  and  C_22
    9  A    between atoms: C_8  and  C_42
   10  A    between atoms: C_9  and  N_48
   11  A    between atoms: C_12  and  C_24
   12  A    between atoms: C_12  and  C_42
   13  A    between atoms: C_13  and  C_34
   14  A    between atoms: C_13  and  C_37
   15  A    between atoms: C_15  and  O_45
   16  A    between atoms: C_19  and  C_33
   17  A    between atoms: C_19  and  C_36
   18  A    between atoms: C_22  and  O_45
   19  A    between atoms: C_24  and  C_36
   20  A    between atoms: C_25  and  C_31
   21  A    between atoms: N_32  and  C_34
   22  A    between atoms: C_35  and  N_48
                            x       y       z     vdW  Elec       q    Type
                         _______ _______ _______ _____ _____    ______ ____

>  <TORSDO>
F 22

$$$$
=
 OpenBabel11072409563D

 48 50  0  0  1  0  0  0  0  0999 V2000
  161.8930  211.5870  148.0850 C   0  0  1  0  0  3  0  0  0  0  0  0
  160.7770  211.3020  147.2830 O   0  0  0  0  0  1  0  0  0  0  0  0
  162.0480  213.9410  148.3740 O   0  0  0  0  0  0  0  0  0  0  0  0
  161.6700  212.8690  148.8320 C   0  0  0  0  0  0  0  0  0  0  0  0
  160.9500  212.8450  150.1430 C   0  0  0  0  0  2  0  0  0  0  0  0
  159.5090  213.3000  149.9710 C   0  0  0  0  0  2  0  0  0  0  0  0
  157.9270  214.4060  151.3200 O   0  0  0  0  0  0  0  0  0  0  0  0
  158.8790  213.6410  151.2920 C   0  0  0  0  0  0  0  0  0  0  0  0
  159.2800  212.9680  152.5720 C   0  0  0  0  0  2  0  0  0  0  0  0
  158.2270  212.0430  153.1970 C   0  0  0  0  0  2  0  0  0  0  0  0
  157.6420  212.4890  154.5600 C   0  0  2  0  0  0  0  0  0  0  0  0
  157.6390  213.8870  154.5280 O   0  0  0  0  0  1  0  0  0  0  0  0
  158.5180  212.0350  155.7620 C   0  0  0  0  0  2  0  0  0  0  0  0
  159.7060  212.9590  156.0540 C   0  0  0  0  0  2  0  0  0  0  0  0
  161.6380  211.5190  156.8470 C   0  0  1  0  0  3  0  0  0  0  0  0
  160.6200  212.3600  157.0720 C   0  0  2  0  0  3  0  0  0  0  0  0
  160.7640  210.9530  157.1810 O   0  0  0  0  0  0  0  0  0  0  0  0
  162.9840  210.2360  157.1120 F   0  0  0  0  0  0  0  0  0  0  0  0
  161.7940  210.2250  156.4040 C   0  0  0  0  0  0  0  0  0  0  0  0
  161.4010  208.9160  156.2170 F   0  0  0  0  0  0  0  0  0  0  0  0
  162.0110  210.8220  155.1700 F   0  0  0  0  0  0  0  0  0  0  0  0
  156.2830  212.0760  154.6890 O   0  0  0  0  0  0  0  0  0  0  0  0
  155.9870  211.1880  155.7730 C   0  0  0  0  0  3  0  0  0  0  0  0
  155.4760  211.8080  157.0690 C   0  0  0  0  0  1  0  0  0  0  0  0
  155.2040  209.9540  155.3620 C   0  0  0  0  0  1  0  0  0  0  0  0
  162.2370  210.4480  149.0470 C   0  0  0  0  0  2  0  0  0  0  0  0
  161.8730  209.1450  148.5030 N   0  0  0  0  0  2  0  0  0  0  0  0
  162.7530  208.2380  149.0030 O   0  0  0  0  0  0  0  0  0  0  0  0
  162.5770  207.1080  148.2000 C   0  0  0  0  0  2  0  0  0  0  0  0
  162.4370  205.9160  149.0230 N   0  0  0  0  0  2  0  0  0  0  0  0
  160.4060  201.9600  148.1580 C   0  0  0  0  0  3  0  0  0  0  0  0
  160.8300  203.7110  146.5080 C   0  0  0  0  0  3  0  0  0  0  0  0
  160.7220  201.1940  145.6360 Cl  0  0  0  0  0  0  0  0  0  0  0  0
  160.4950  202.6320  149.3020 C   0  0  0  0  0  3  0  0  0  0  0  0
  161.0760  204.7810  147.2650 C   0  0  0  0  0  3  0  0  0  0  0  0
  161.2970  203.8530  149.5790 C   0  0  0  0  0  0  0  0  0  0  0  0
  161.6290  204.7850  148.6410 C   0  0  0  0  0  0  0  0  0  0  0  0
  161.1650  202.3280  146.9280 C   0  0  2  0  0  3  0  0  0  0  0  0
  162.2520  203.2620  151.6790 O   0  0  0  0  0  0  0  0  0  0  0  0
  161.5700  204.0940  151.0250 C   0  0  0  0  0  0  0  0  0  0  0  0
  160.4390  206.9900  154.4540 C   0  0  0  0  0  1  0  0  0  0  0  0
  161.2090  205.3820  151.6550 C   0  0  0  0  0  0  0  0  0  0  0  0
  161.9590  209.1940  152.3400 O   0  0  0  0  0  1  0  0  0  0  0  0
  160.4430  206.3920  150.8860 C   0  0  0  0  0  3  0  0  0  0  0  0
  161.5490  207.0720  153.4370 C   0  0  1  0  0  3  0  0  0  0  0  0
  161.7730  205.7170  152.8230 C   0  0  0  0  0  3  0  0  0  0  0  0
  161.2140  208.0680  152.4140 N   0  0  0  0  0  0  0  0  0  0  0  0
  160.4560  207.6730  151.2620 C   0  0  0  0  0  3  0  0  0  0  0  0
  1  2  1  1  0  0  0
  1  4  1  0  0  0  0
  1 26  1  0  0  0  0
  3  4  2  0  0  0  0
  4  5  1  0  0  0  0
  6  5  1  0  0  0  0
  6  8  1  0  0  0  0
  8  7  2  0  0  0  0
  8  9  1  0  0  0  0
  9 10  1  0  0  0  0
 10 11  1  0  0  0  0
 11 12  1  1  0  0  0
 11 22  1  0  0  0  0
 11 13  1  0  0  0  0
 13 14  1  0  0  0  0
 15 19  1  6  0  0  0
 15 16  1  0  0  0  0
 15 17  1  0  0  0  0
 16 14  1  6  0  0  0
 16 17  1  0  0  0  0
 19 18  1  0  0  0  0
 20 19  1  0  0  0  0
 21 19  1  0  0  0  0
 22 23  1  0  0  0  0
 23 24  1  0  0  0  0
 25 23  1  0  0  0  0
 27 28  1  0  0  0  0
 27 26  1  0  0  0  0
 29 28  1  0  0  0  0
 29 30  1  0  0  0  0
 31 34  2  0  0  0  0
 32 38  1  0  0  0  0
 32 35  2  0  0  0  0
 34 36  1  0  0  0  0
 35 37  1  0  0  0  0
 36 40  1  0  0  0  0
 37 30  1  0  0  0  0
 37 36  2  0  0  0  0
 38 33  1  6  0  0  0
 38 31  1  0  0  0  0
 40 42  1  0  0  0  0
 40 39  2  0  0  0  0
 42 46  2  0  0  0  0
 43 47  1  0  0  0  0
 44 48  2  0  0  0  0
 44 42  1  0  0  0  0
 45 41  1  1  0  0  0
 46 45  1  0  0  0  0
 47 45  1  0  0  0  0
 48 47  1  0  0  0  0
M  END
>  <MODEL>
9

>  <REMARK>
 VINA RESULT:      -4.9      4.479     10.617
  Name = 
  22 active torsions:
  status: ('A' for Active; 'I' for Inactive)
    1  A    between atoms: O_3  and  C_12
    2  A    between atoms: O_3  and  C_14
    3  A    between atoms: C_4  and  C_33
    4  A    between atoms: C_4  and  C_37
    5  A    between atoms: C_5  and  C_25
    6  A    between atoms: O_7  and  C_9
    7  A    between atoms: O_7  and  N_32
    8  A    between atoms: C_8  and  C_22
    9  A    between atoms: C_8  and  C_42
   10  A    between atoms: C_9  and  N_48
   11  A    between atoms: C_12  and  C_24
   12  A    between atoms: C_12  and  C_42
   13  A    between atoms: C_13  and  C_34
   14  A    between atoms: C_13  and  C_37
   15  A    between atoms: C_15  and  O_45
   16  A    between atoms: C_19  and  C_33
   17  A    between atoms: C_19  and  C_36
   18  A    between atoms: C_22  and  O_45
   19  A    between atoms: C_24  and  C_36
   20  A    between atoms: C_25  and  C_31
   21  A    between atoms: N_32  and  C_34
   22  A    between atoms: C_35  and  N_48
                            x       y       z     vdW  Elec       q    Type
                         _______ _______ _______ _____ _____    ______ ____

>  <TORSDO>
F 22

$$$$
