=
 OpenBabel11072414173D

 34 37  0  0  1  0  0  0  0  0999 V2000
  161.5530  206.6210  151.4810 C   0  0  0  0  0  2  0  0  0  0  0  0
  161.9600  207.9640  152.0560 C   0  0  0  0  0  2  0  0  0  0  0  0
  159.8460  211.4110  155.7030 C   0  0  2  0  0  3  0  0  0  0  0  0
  161.2980  207.9900  156.4560 C   0  0  0  0  0  2  0  0  0  0  0  0
  160.5950  210.0910  155.5420 C   0  0  2  0  0  0  0  0  0  0  0  0
  160.8310  210.5260  152.2250 S   0  0  0  0  0  0  0  0  0  0  0  0
  158.5360  211.1850  156.3000 N   0  0  0  0  0  1  0  0  0  0  0  0
  159.7150  212.1150  154.3030 C   0  0  1  0  0  3  0  0  0  0  0  0
  159.7500  209.2940  154.7220 O   0  0  0  0  0  0  0  0  0  0  0  0
  160.7480  208.6920  152.6140 C   0  0  2  0  0  3  0  0  0  0  0  0
  160.8680  209.2420  156.7450 C   0  0  0  0  0  2  0  0  0  0  0  0
  161.4940  207.5710  154.9930 C   0  0  0  0  0  2  0  0  0  0  0  0
  161.9880  210.4640  154.9810 C   0  0  0  0  0  1  0  0  0  0  0  0
  159.3390  211.2230  153.0810 C   0  0  0  0  0  2  0  0  0  0  0  0
  160.4430  208.2740  154.0760 C   0  0  1  0  0  3  0  0  0  0  0  0
  159.2170  214.3150  155.1080 O   0  0  0  0  0  1  0  0  0  0  0  0
  158.8890  213.3600  154.3560 C   0  0  0  0  0  0  0  0  0  0  0  0
  157.7620  213.4710  153.5540 O   0  0  0  0  0  0  0  0  0  0  0  0
  160.8770  206.8190  150.2760 O   0  0  0  0  0  0  0  0  0  0  0  0
  161.7560  206.3600  149.2920 C   0  0  1  0  0  3  0  0  0  0  0  0
  161.9700  204.7340  146.2510 C   0  0  2  0  0  3  0  0  0  0  0  0
  161.0440  205.3520  148.3810 C   0  0  1  0  0  3  0  0  0  0  0  0
  161.5030  201.3120  150.4850 O   0  0  0  0  0  1  0  0  0  0  0  0
  160.5360  202.0260  149.7780 C   0  0  2  0  0  3  0  0  0  0  0  0
  161.4940  203.2780  146.4030 C   0  0  0  0  0  2  0  0  0  0  0  0
  163.3270  204.8390  146.5600 O   0  0  0  0  0  1  0  0  0  0  0  0
  161.2040  205.6830  146.9930 O   0  0  0  0  0  0  0  0  0  0  0  0
  161.4070  203.9690  148.7060 N   0  0  2  0  0  0  0  0  0  0  0  0
  160.7000  201.7560  148.2920 C   0  0  0  0  0  2  0  0  0  0  0  0
  160.7570  203.1440  147.7160 C   0  0  2  0  0  3  0  0  0  0  0  0
  160.7850  203.5230  149.9430 C   0  0  0  0  0  2  0  0  0  0  0  0
  162.3240  207.5360  148.5090 C   0  0  0  0  0  2  0  0  0  0  0  0
  161.4130  208.5920  148.5090 O   0  0  0  0  0  0  0  0  0  0  0  0
  162.1960  209.7290  148.7040 C   0  0  0  0  0  1  0  0  0  0  0  0
  1  2  1  0  0  0  0
  3  7  1  6  0  0  0
  4 11  1  0  0  0  0
  5 13  1  6  0  0  0
  5  3  1  0  0  0  0
  5 11  1  0  0  0  0
  6 10  1  0  0  0  0
  6 14  1  0  0  0  0
  8 17  1  1  0  0  0
  8  3  1  0  0  0  0
  9  5  1  0  0  0  0
 10  2  1  1  0  0  0
 10 15  1  0  0  0  0
 12  4  1  0  0  0  0
 14  8  1  0  0  0  0
 15  9  1  0  0  0  0
 15 12  1  1  0  0  0
 17 16  1  0  0  0  0
 18 17  2  0  0  0  0
 19  1  1  0  0  0  0
 20 32  1  6  0  0  0
 20 19  1  0  0  0  0
 21 25  1  0  0  0  0
 21 26  1  1  0  0  0
 21 27  1  0  0  0  0
 22 28  1  0  0  0  0
 22 20  1  1  0  0  0
 24 31  1  0  0  0  0
 24 23  1  1  0  0  0
 27 22  1  0  0  0  0
 28 31  1  1  0  0  0
 29 24  1  0  0  0  0
 30 25  1  6  0  0  0
 30 29  1  0  0  0  0
 30 28  1  0  0  0  0
 33 32  1  0  0  0  0
 33 34  1  0  0  0  0
M  END
>  <MODEL>
1

>  <REMARK>
 VINA RESULT:      -7.4      0.000      0.000
  Name = 
  8 active torsions:
  status: ('A' for Active; 'I' for Inactive)
    1  A    between atoms: C_4  and  C_5
    2  A    between atoms: C_5  and  C_24
    3  A    between atoms: C_5  and  O_33
    4  A    between atoms: C_13  and  C_20
    5  A    between atoms: O_19  and  C_24
    6  A    between atoms: C_21  and  C_30
    7  A    between atoms: C_27  and  C_30
    8  A    between atoms: C_27  and  O_33
                            x       y       z     vdW  Elec       q    Type
                         _______ _______ _______ _____ _____    ______ ____

>  <TORSDO>
F 8

$$$$
=
 OpenBabel11072414173D

 34 37  0  0  1  0  0  0  0  0999 V2000
  161.4610  209.7440  151.4060 C   0  0  0  0  0  2  0  0  0  0  0  0
  161.8330  208.3500  151.8710 C   0  0  0  0  0  2  0  0  0  0  0  0
  160.9770  204.6390  147.9790 C   0  0  2  0  0  3  0  0  0  0  0  0
  160.9400  203.9930  151.7160 C   0  0  0  0  0  2  0  0  0  0  0  0
  160.9520  204.8740  149.4870 C   0  0  2  0  0  0  0  0  0  0  0  0
  161.6560  208.1280  149.0810 S   0  0  0  0  0  0  0  0  0  0  0  0
  161.9850  203.6420  147.6360 N   0  0  0  0  0  1  0  0  0  0  0  0
  161.2520  205.9980  147.2390 C   0  0  1  0  0  3  0  0  0  0  0  0
  162.2700  205.2970  149.8090 O   0  0  0  0  0  0  0  0  0  0  0  0
  162.3700  207.5290  150.7090 C   0  0  2  0  0  3  0  0  0  0  0  0
  160.6830  203.7280  150.4130 C   0  0  0  0  0  2  0  0  0  0  0  0
  161.4290  205.3880  152.1270 C   0  0  0  0  0  2  0  0  0  0  0  0
  159.8000  205.8770  149.7350 C   0  0  0  0  0  1  0  0  0  0  0  0
  162.3450  206.9350  147.8360 C   0  0  0  0  0  2  0  0  0  0  0  0
  162.3240  206.0070  151.0060 C   0  0  1  0  0  3  0  0  0  0  0  0
  160.4010  205.6920  145.0210 O   0  0  0  0  0  0  0  0  0  0  0  0
  161.4100  205.8310  145.7620 C   0  0  0  0  0  0  0  0  0  0  0  0
  162.6790  205.8520  145.2010 O   0  0  0  0  0  1  0  0  0  0  0  0
  161.7200  210.6580  152.4280 O   0  0  0  0  0  0  0  0  0  0  0  0
  160.4600  211.0250  152.9100 C   0  0  1  0  0  3  0  0  0  0  0  0
  158.6290  212.0570  155.6530 C   0  0  2  0  0  3  0  0  0  0  0  0
  160.5070  211.1770  154.4360 C   0  0  1  0  0  3  0  0  0  0  0  0
  160.3930  206.9020  156.0680 O   0  0  0  0  0  1  0  0  0  0  0  0
  161.0380  208.1100  156.3280 C   0  0  2  0  0  3  0  0  0  0  0  0
  158.8770  211.1020  156.8340 C   0  0  0  0  0  2  0  0  0  0  0  0
  157.5970  211.5770  154.8450 O   0  0  0  0  0  1  0  0  0  0  0  0
  159.7930  212.3420  154.8760 O   0  0  0  0  0  0  0  0  0  0  0  0
  160.1080  209.9440  155.1230 N   0  0  2  0  0  0  0  0  0  0  0  0
  160.1780  208.9480  157.2600 C   0  0  0  0  0  2  0  0  0  0  0  0
  160.0950  210.2600  156.5300 C   0  0  2  0  0  3  0  0  0  0  0  0
  161.1400  208.9220  155.0400 C   0  0  0  0  0  2  0  0  0  0  0  0
  159.9860  212.2970  152.2220 C   0  0  0  0  0  2  0  0  0  0  0  0
  158.6560  212.1550  151.8240 O   0  0  0  0  0  0  0  0  0  0  0  0
  158.1160  213.4340  151.9480 C   0  0  0  0  0  1  0  0  0  0  0  0
  1  2  1  0  0  0  0
  1 19  1  0  0  0  0
  3  7  1  1  0  0  0
  3  5  1  0  0  0  0
  4 12  1  0  0  0  0
  5 13  1  1  0  0  0
  5  9  1  0  0  0  0
  5 11  1  0  0  0  0
  6 10  1  0  0  0  0
  8 17  1  6  0  0  0
  8 14  1  0  0  0  0
  8  3  1  0  0  0  0
  9 15  1  0  0  0  0
 10 15  1  0  0  0  0
 10  2  1  1  0  0  0
 11  4  1  0  0  0  0
 14  6  1  0  0  0  0
 15 12  1  1  0  0  0
 16 17  2  0  0  0  0
 18 17  1  0  0  0  0
 19 20  1  0  0  0  0
 20 32  1  6  0  0  0
 21 26  1  6  0  0  0
 21 25  1  0  0  0  0
 22 20  1  6  0  0  0
 22 27  1  0  0  0  0
 22 28  1  0  0  0  0
 24 23  1  6  0  0  0
 24 29  1  0  0  0  0
 27 21  1  0  0  0  0
 28 31  1  1  0  0  0
 28 30  1  0  0  0  0
 30 25  1  1  0  0  0
 30 29  1  0  0  0  0
 31 24  1  0  0  0  0
 33 34  1  0  0  0  0
 33 32  1  0  0  0  0
M  END
>  <MODEL>
2

>  <REMARK>
 VINA RESULT:      -7.0      2.004      8.686
  Name = 
  8 active torsions:
  status: ('A' for Active; 'I' for Inactive)
    1  A    between atoms: C_4  and  C_5
    2  A    between atoms: C_5  and  C_24
    3  A    between atoms: C_5  and  O_33
    4  A    between atoms: C_13  and  C_20
    5  A    between atoms: O_19  and  C_24
    6  A    between atoms: C_21  and  C_30
    7  A    between atoms: C_27  and  C_30
    8  A    between atoms: C_27  and  O_33
                            x       y       z     vdW  Elec       q    Type
                         _______ _______ _______ _____ _____    ______ ____

>  <TORSDO>
F 8

$$$$
=
 OpenBabel11072414173D

 34 37  0  0  1  0  0  0  0  0999 V2000
  161.4180  209.8110  151.6760 C   0  0  0  0  0  2  0  0  0  0  0  0
  161.8680  208.4360  152.1280 C   0  0  0  0  0  2  0  0  0  0  0  0
  160.9930  204.8050  148.1640 C   0  0  2  0  0  3  0  0  0  0  0  0
  160.9650  204.0850  151.8870 C   0  0  0  0  0  2  0  0  0  0  0  0
  160.9720  205.0100  149.6770 C   0  0  2  0  0  0  0  0  0  0  0  0
  161.6830  208.2700  149.3340 S   0  0  0  0  0  0  0  0  0  0  0  0
  161.9980  203.8140  147.7980 N   0  0  0  0  0  1  0  0  0  0  0  0
  161.2690  206.1790  147.4510 C   0  0  1  0  0  3  0  0  0  0  0  0
  162.2920  205.4230  150.0030 O   0  0  0  0  0  0  0  0  0  0  0  0
  162.3990  207.6370  150.9480 C   0  0  2  0  0  3  0  0  0  0  0  0
  160.7030  203.8460  150.5800 C   0  0  0  0  0  2  0  0  0  0  0  0
  161.4580  205.4700  152.3240 C   0  0  0  0  0  2  0  0  0  0  0  0
  159.8240  206.0110  149.9480 C   0  0  0  0  0  1  0  0  0  0  0  0
  162.3660  207.1010  148.0640 C   0  0  0  0  0  2  0  0  0  0  0  0
  162.3510  206.1090  151.2140 C   0  0  1  0  0  3  0  0  0  0  0  0
  162.5550  205.8410  145.4590 O   0  0  0  0  0  1  0  0  0  0  0  0
  161.4220  206.0410  145.9700 C   0  0  0  0  0  0  0  0  0  0  0  0
  160.3010  206.1150  145.1550 O   0  0  0  0  0  0  0  0  0  0  0  0
  161.3040  210.6490  152.7850 O   0  0  0  0  0  0  0  0  0  0  0  0
  159.9550  211.0120  152.8250 C   0  0  1  0  0  3  0  0  0  0  0  0
  160.4840  210.7910  156.2320 C   0  0  2  0  0  3  0  0  0  0  0  0
  159.3240  210.5430  154.1410 C   0  0  1  0  0  3  0  0  0  0  0  0
  155.9070  213.4830  154.9430 O   0  0  0  0  0  1  0  0  0  0  0  0
  156.1650  212.1160  155.0420 C   0  0  2  0  0  3  0  0  0  0  0  0
  159.1790  211.1030  156.9840 C   0  0  0  0  0  2  0  0  0  0  0  0
  161.1840  211.9680  155.9590 O   0  0  0  0  0  1  0  0  0  0  0  0
  160.3070  210.0170  155.0450 O   0  0  0  0  0  0  0  0  0  0  0  0
  158.4650  211.5730  154.7350 N   0  0  2  0  0  0  0  0  0  0  0  0
  156.8030  211.8230  156.3900 C   0  0  0  0  0  2  0  0  0  0  0  0
  158.0290  211.0430  156.0040 C   0  0  2  0  0  3  0  0  0  0  0  0
  157.2130  211.7160  154.0080 C   0  0  0  0  0  2  0  0  0  0  0  0
  159.8110  212.5140  152.6250 C   0  0  0  0  0  2  0  0  0  0  0  0
  159.1010  212.7730  151.4520 O   0  0  0  0  0  0  0  0  0  0  0  0
  160.0370  213.3490  150.5950 C   0  0  0  0  0  1  0  0  0  0  0  0
  1  2  1  0  0  0  0
  1 19  1  0  0  0  0
  3  7  1  1  0  0  0
  3  5  1  0  0  0  0
  4 12  1  0  0  0  0
  5 13  1  1  0  0  0
  5  9  1  0  0  0  0
  5 11  1  0  0  0  0
  6 10  1  0  0  0  0
  8 17  1  6  0  0  0
  8 14  1  0  0  0  0
  8  3  1  0  0  0  0
  9 15  1  0  0  0  0
 10 15  1  0  0  0  0
 10  2  1  1  0  0  0
 11  4  1  0  0  0  0
 14  6  1  0  0  0  0
 15 12  1  1  0  0  0
 16 17  1  0  0  0  0
 18 17  2  0  0  0  0
 19 20  1  0  0  0  0
 20 32  1  1  0  0  0
 21 26  1  6  0  0  0
 21 25  1  0  0  0  0
 22 20  1  6  0  0  0
 22 28  1  0  0  0  0
 22 27  1  0  0  0  0
 24 23  1  1  0  0  0
 24 29  1  0  0  0  0
 27 21  1  0  0  0  0
 28 31  1  6  0  0  0
 28 30  1  0  0  0  0
 30 29  1  1  0  0  0
 30 25  1  0  0  0  0
 31 24  1  0  0  0  0
 33 32  1  0  0  0  0
 34 33  1  0  0  0  0
M  END
>  <MODEL>
3

>  <REMARK>
 VINA RESULT:      -6.6      2.130      9.019
  Name = 
  8 active torsions:
  status: ('A' for Active; 'I' for Inactive)
    1  A    between atoms: C_4  and  C_5
    2  A    between atoms: C_5  and  C_24
    3  A    between atoms: C_5  and  O_33
    4  A    between atoms: C_13  and  C_20
    5  A    between atoms: O_19  and  C_24
    6  A    between atoms: C_21  and  C_30
    7  A    between atoms: C_27  and  C_30
    8  A    between atoms: C_27  and  O_33
                            x       y       z     vdW  Elec       q    Type
                         _______ _______ _______ _____ _____    ______ ____

>  <TORSDO>
F 8

$$$$
=
 OpenBabel11072414173D

 34 37  0  0  1  0  0  0  0  0999 V2000
  161.0480  209.6160  151.9490 C   0  0  0  0  0  2  0  0  0  0  0  0
  161.6280  208.2790  152.3670 C   0  0  0  0  0  2  0  0  0  0  0  0
  161.0020  204.7720  148.2480 C   0  0  2  0  0  3  0  0  0  0  0  0
  160.9580  203.9010  151.9390 C   0  0  0  0  0  2  0  0  0  0  0  0
  160.9490  204.9140  149.7670 C   0  0  2  0  0  0  0  0  0  0  0  0
  161.4920  208.2180  149.5660 S   0  0  0  0  0  0  0  0  0  0  0  0
  162.0630  203.8500  147.8600 N   0  0  0  0  0  1  0  0  0  0  0  0
  161.2150  206.1860  147.5940 C   0  0  1  0  0  3  0  0  0  0  0  0
  162.2400  205.3820  150.1320 O   0  0  0  0  0  0  0  0  0  0  0  0
  162.2170  207.5580  151.1650 C   0  0  2  0  0  3  0  0  0  0  0  0
  160.7280  203.7020  150.6180 C   0  0  0  0  0  2  0  0  0  0  0  0
  161.3720  205.2910  152.4390 C   0  0  0  0  0  2  0  0  0  0  0  0
  159.7450  205.8420  150.0590 C   0  0  0  0  0  1  0  0  0  0  0  0
  162.2540  207.1380  148.2620 C   0  0  0  0  0  2  0  0  0  0  0  0
  162.2460  206.0200  151.3690 C   0  0  1  0  0  3  0  0  0  0  0  0
  162.5390  205.9330  145.6150 O   0  0  0  0  0  1  0  0  0  0  0  0
  161.3970  206.1170  146.1130 C   0  0  0  0  0  0  0  0  0  0  0  0
  160.2930  206.2370  145.2800 O   0  0  0  0  0  0  0  0  0  0  0  0
  160.0770  210.0090  152.8710 O   0  0  0  0  0  0  0  0  0  0  0  0
  160.6910  211.0020  153.6390 C   0  0  1  0  0  3  0  0  0  0  0  0
  158.8300  213.4260  152.0270 C   0  0  2  0  0  3  0  0  0  0  0  0
  159.7170  212.1640  153.8700 C   0  0  1  0  0  3  0  0  0  0  0  0
  155.8170  210.1970  155.2440 O   0  0  0  0  0  1  0  0  0  0  0  0
  156.5950  211.3150  155.5450 C   0  0  2  0  0  3  0  0  0  0  0  0
  157.4620  213.5780  152.7150 C   0  0  0  0  0  2  0  0  0  0  0  0
  158.7840  212.4140  151.0670 O   0  0  0  0  0  1  0  0  0  0  0  0
  159.9210  213.2260  152.9260 O   0  0  0  0  0  0  0  0  0  0  0  0
  158.3260  211.7050  153.9530 N   0  0  2  0  0  0  0  0  0  0  0  0
  156.1970  212.4620  154.6310 C   0  0  0  0  0  2  0  0  0  0  0  0
  157.5200  212.8970  154.0640 C   0  0  2  0  0  3  0  0  0  0  0  0
  158.0560  211.0260  155.2110 C   0  0  0  0  0  2  0  0  0  0  0  0
  161.1990  210.4130  154.9470 C   0  0  0  0  0  2  0  0  0  0  0  0
  162.5200  210.8070  155.1650 O   0  0  0  0  0  0  0  0  0  0  0  0
  162.7660  210.4800  156.4970 C   0  0  0  0  0  1  0  0  0  0  0  0
  1  2  1  0  0  0  0
  1 19  1  0  0  0  0
  3  7  1  1  0  0  0
  3  5  1  0  0  0  0
  4 12  1  0  0  0  0
  5 13  1  1  0  0  0
  5  9  1  0  0  0  0
  5 11  1  0  0  0  0
  6 10  1  0  0  0  0
  8 17  1  6  0  0  0
  8  3  1  0  0  0  0
  8 14  1  0  0  0  0
  9 15  1  0  0  0  0
 10 15  1  0  0  0  0
 10  2  1  1  0  0  0
 11  4  1  0  0  0  0
 14  6  1  0  0  0  0
 15 12  1  1  0  0  0
 16 17  1  0  0  0  0
 18 17  2  0  0  0  0
 19 20  1  0  0  0  0
 20 32  1  1  0  0  0
 21 26  1  6  0  0  0
 21 25  1  0  0  0  0
 21 27  1  0  0  0  0
 22 20  1  6  0  0  0
 22 28  1  0  0  0  0
 24 23  1  6  0  0  0
 27 22  1  0  0  0  0
 28 30  1  0  0  0  0
 28 31  1  1  0  0  0
 29 24  1  0  0  0  0
 30 25  1  6  0  0  0
 30 29  1  0  0  0  0
 31 24  1  0  0  0  0
 32 33  1  0  0  0  0
 33 34  1  0  0  0  0
M  END
>  <MODEL>
4

>  <REMARK>
 VINA RESULT:      -6.5      2.073      8.847
  Name = 
  8 active torsions:
  status: ('A' for Active; 'I' for Inactive)
    1  A    between atoms: C_4  and  C_5
    2  A    between atoms: C_5  and  C_24
    3  A    between atoms: C_5  and  O_33
    4  A    between atoms: C_13  and  C_20
    5  A    between atoms: O_19  and  C_24
    6  A    between atoms: C_21  and  C_30
    7  A    between atoms: C_27  and  C_30
    8  A    between atoms: C_27  and  O_33
                            x       y       z     vdW  Elec       q    Type
                         _______ _______ _______ _____ _____    ______ ____

>  <TORSDO>
F 8

$$$$
=
 OpenBabel11072414173D

 34 37  0  0  1  0  0  0  0  0999 V2000
  160.9850  209.0060  152.2750 C   0  0  0  0  0  2  0  0  0  0  0  0
  161.5850  207.6470  152.5770 C   0  0  0  0  0  2  0  0  0  0  0  0
  160.9270  204.5440  148.1510 C   0  0  2  0  0  3  0  0  0  0  0  0
  160.8610  203.3360  151.7450 C   0  0  0  0  0  2  0  0  0  0  0  0
  160.8710  204.5460  149.6760 C   0  0  2  0  0  0  0  0  0  0  0  0
  161.4570  207.8460  149.7820 S   0  0  0  0  0  0  0  0  0  0  0  0
  161.9770  203.6480  147.6810 N   0  0  0  0  0  1  0  0  0  0  0  0
  161.1610  206.0090  147.6310 C   0  0  1  0  0  3  0  0  0  0  0  0
  162.1670  204.9610  150.0850 O   0  0  0  0  0  0  0  0  0  0  0  0
  162.1690  207.0320  151.3150 C   0  0  2  0  0  3  0  0  0  0  0  0
  160.6330  203.2630  150.4110 C   0  0  0  0  0  2  0  0  0  0  0  0
  161.2910  204.6690  152.3720 C   0  0  0  0  0  2  0  0  0  0  0  0
  159.6790  205.4580  150.0500 C   0  0  0  0  0  1  0  0  0  0  0  0
  162.2090  206.8820  148.3850 C   0  0  0  0  0  2  0  0  0  0  0  0
  162.1770  205.4820  151.3760 C   0  0  1  0  0  3  0  0  0  0  0  0
  162.4910  205.9530  145.6410 O   0  0  0  0  0  1  0  0  0  0  0  0
  161.3460  206.0750  146.1500 C   0  0  0  0  0  0  0  0  0  0  0  0
  160.2420  206.2520  145.3270 O   0  0  0  0  0  0  0  0  0  0  0  0
  161.9110  210.0020  152.5860 O   0  0  0  0  0  0  0  0  0  0  0  0
  161.3310  210.7180  153.6360 C   0  0  1  0  0  3  0  0  0  0  0  0
  158.3990  211.9410  154.9960 C   0  0  2  0  0  3  0  0  0  0  0  0
  159.8490  210.9780  153.3380 C   0  0  1  0  0  3  0  0  0  0  0  0
  159.8220  214.4520  150.3570 O   0  0  0  0  0  1  0  0  0  0  0  0
  159.1550  213.2470  150.5740 C   0  0  2  0  0  3  0  0  0  0  0  0
  157.6280  212.7460  153.9360 C   0  0  0  0  0  2  0  0  0  0  0  0
  159.3240  212.7550  155.6520 O   0  0  0  0  0  1  0  0  0  0  0  0
  159.0270  210.7600  154.4950 O   0  0  0  0  0  0  0  0  0  0  0  0
  159.6390  212.2810  152.6990 N   0  0  2  0  0  0  0  0  0  0  0  0
  157.9880  213.4840  151.5180 C   0  0  0  0  0  2  0  0  0  0  0  0
  158.2100  212.4370  152.5750 C   0  0  2  0  0  3  0  0  0  0  0  0
  160.0750  212.2790  151.3110 C   0  0  0  0  0  2  0  0  0  0  0  0
  161.5280  209.9730  154.9490 C   0  0  0  0  0  2  0  0  0  0  0  0
  162.1540  210.8040  155.8780 O   0  0  0  0  0  0  0  0  0  0  0  0
  162.3550  209.9920  156.9930 C   0  0  0  0  0  1  0  0  0  0  0  0
  1  2  1  0  0  0  0
  1 19  1  0  0  0  0
  3  7  1  1  0  0  0
  3  5  1  0  0  0  0
  4 12  1  0  0  0  0
  5 13  1  1  0  0  0
  5  9  1  0  0  0  0
  5 11  1  0  0  0  0
  6 10  1  0  0  0  0
  8 17  1  6  0  0  0
  8  3  1  0  0  0  0
  8 14  1  0  0  0  0
  9 15  1  0  0  0  0
 10 15  1  0  0  0  0
 10  2  1  1  0  0  0
 11  4  1  0  0  0  0
 14  6  1  0  0  0  0
 15 12  1  1  0  0  0
 16 17  1  0  0  0  0
 18 17  2  0  0  0  0
 19 20  1  0  0  0  0
 20 32  1  1  0  0  0
 21 26  1  6  0  0  0
 22 20  1  1  0  0  0
 22 27  1  0  0  0  0
 24 23  1  1  0  0  0
 24 31  1  0  0  0  0
 24 29  1  0  0  0  0
 25 21  1  0  0  0  0
 27 21  1  0  0  0  0
 28 31  1  6  0  0  0
 28 22  1  0  0  0  0
 30 29  1  6  0  0  0
 30 28  1  0  0  0  0
 30 25  1  0  0  0  0
 32 33  1  0  0  0  0
 33 34  1  0  0  0  0
M  END
>  <MODEL>
5

>  <REMARK>
 VINA RESULT:      -6.5      2.048      8.966
  Name = 
  8 active torsions:
  status: ('A' for Active; 'I' for Inactive)
    1  A    between atoms: C_4  and  C_5
    2  A    between atoms: C_5  and  C_24
    3  A    between atoms: C_5  and  O_33
    4  A    between atoms: C_13  and  C_20
    5  A    between atoms: O_19  and  C_24
    6  A    between atoms: C_21  and  C_30
    7  A    between atoms: C_27  and  C_30
    8  A    between atoms: C_27  and  O_33
                            x       y       z     vdW  Elec       q    Type
                         _______ _______ _______ _____ _____    ______ ____

>  <TORSDO>
F 8

$$$$
=
 OpenBabel11072414173D

 34 37  0  0  1  0  0  0  0  0999 V2000
  161.5810  207.3430  150.3590 C   0  0  0  0  0  2  0  0  0  0  0  0
  161.9880  208.1930  151.5460 C   0  0  0  0  0  2  0  0  0  0  0  0
  159.8220  211.1410  155.5800 C   0  0  2  0  0  3  0  0  0  0  0  0
  161.3000  207.6640  155.9110 C   0  0  0  0  0  2  0  0  0  0  0  0
  160.5830  209.8570  155.2610 C   0  0  2  0  0  0  0  0  0  0  0  0
  160.8350  210.7050  152.0260 S   0  0  0  0  0  0  0  0  0  0  0  0
  158.5110  210.8310  156.1360 N   0  0  0  0  0  1  0  0  0  0  0  0
  159.6920  212.0130  154.2780 C   0  0  1  0  0  3  0  0  0  0  0  0
  159.7510  209.1620  154.3430 O   0  0  0  0  0  0  0  0  0  0  0  0
  160.7660  208.8360  152.1830 C   0  0  2  0  0  3  0  0  0  0  0  0
  160.8570  208.8670  156.3510 C   0  0  0  0  0  2  0  0  0  0  0  0
  161.5090  207.4330  154.4080 C   0  0  0  0  0  2  0  0  0  0  0  0
  161.9760  210.3090  154.7610 C   0  0  0  0  0  1  0  0  0  0  0  0
  159.3320  211.2770  152.9520 C   0  0  0  0  0  2  0  0  0  0  0  0
  160.4570  208.2360  153.5790 C   0  0  1  0  0  3  0  0  0  0  0  0
  157.7110  213.3210  153.9630 O   0  0  0  0  0  0  0  0  0  0  0  0
  158.8550  213.2340  154.4810 C   0  0  0  0  0  0  0  0  0  0  0  0
  159.3370  214.2740  155.2650 O   0  0  0  0  0  1  0  0  0  0  0  0
  161.9700  206.0210  150.5800 O   0  0  0  0  0  0  0  0  0  0  0  0
  161.0100  205.2490  149.9210 C   0  0  1  0  0  3  0  0  0  0  0  0
  161.0490  202.1380  148.4190 C   0  0  2  0  0  3  0  0  0  0  0  0
  161.6710  204.4270  148.8080 C   0  0  1  0  0  3  0  0  0  0  0  0
  160.0800  206.2050  144.9020 O   0  0  0  0  0  1  0  0  0  0  0  0
  161.2770  205.7180  145.4250 C   0  0  2  0  0  3  0  0  0  0  0  0
  161.2050  202.2950  146.8960 C   0  0  0  0  0  2  0  0  0  0  0  0
  159.7030  202.2090  148.7820 O   0  0  0  0  0  1  0  0  0  0  0  0
  161.8330  203.0510  149.1870 O   0  0  0  0  0  0  0  0  0  0  0  0
  161.0000  204.6100  147.5170 N   0  0  2  0  0  0  0  0  0  0  0  0
  161.3380  204.2130  145.2170 C   0  0  0  0  0  2  0  0  0  0  0  0
  161.6510  203.7090  146.5980 C   0  0  2  0  0  3  0  0  0  0  0  0
  161.2900  205.9130  146.9380 C   0  0  0  0  0  2  0  0  0  0  0  0
  160.2710  204.3700  150.9200 C   0  0  0  0  0  2  0  0  0  0  0  0
  161.0220  204.2400  152.0880 O   0  0  0  0  0  0  0  0  0  0  0  0
  161.2010  202.8660  152.2380 C   0  0  0  0  0  1  0  0  0  0  0  0
  1 19  1  0  0  0  0
  1  2  1  0  0  0  0
  3  7  1  6  0  0  0
  4 11  1  0  0  0  0
  5 13  1  6  0  0  0
  5  3  1  0  0  0  0
  5 11  1  0  0  0  0
  6 10  1  0  0  0  0
  6 14  1  0  0  0  0
  8 17  1  1  0  0  0
  8  3  1  0  0  0  0
  9  5  1  0  0  0  0
 10  2  1  1  0  0  0
 10 15  1  0  0  0  0
 12  4  1  0  0  0  0
 14  8  1  0  0  0  0
 15  9  1  0  0  0  0
 15 12  1  1  0  0  0
 16 17  2  0  0  0  0
 17 18  1  0  0  0  0
 20 19  1  0  0  0  0
 20 32  1  1  0  0  0
 21 26  1  6  0  0  0
 21 27  1  0  0  0  0
 22 27  1  0  0  0  0
 22 20  1  1  0  0  0
 24 23  1  1  0  0  0
 24 31  1  0  0  0  0
 25 21  1  0  0  0  0
 28 31  1  6  0  0  0
 28 22  1  0  0  0  0
 29 24  1  0  0  0  0
 30 29  1  6  0  0  0
 30 25  1  0  0  0  0
 30 28  1  0  0  0  0
 32 33  1  0  0  0  0
 33 34  1  0  0  0  0
M  END
>  <MODEL>
6

>  <REMARK>
 VINA RESULT:      -6.2      1.400      3.016
  Name = 
  8 active torsions:
  status: ('A' for Active; 'I' for Inactive)
    1  A    between atoms: C_4  and  C_5
    2  A    between atoms: C_5  and  C_24
    3  A    between atoms: C_5  and  O_33
    4  A    between atoms: C_13  and  C_20
    5  A    between atoms: O_19  and  C_24
    6  A    between atoms: C_21  and  C_30
    7  A    between atoms: C_27  and  C_30
    8  A    between atoms: C_27  and  O_33
                            x       y       z     vdW  Elec       q    Type
                         _______ _______ _______ _____ _____    ______ ____

>  <TORSDO>
F 8

$$$$
=
 OpenBabel11072414173D

 34 37  0  0  1  0  0  0  0  0999 V2000
  161.2010  207.9750  150.4770 C   0  0  0  0  0  2  0  0  0  0  0  0
  161.6620  208.3250  151.8780 C   0  0  0  0  0  2  0  0  0  0  0  0
  160.1390  211.5180  156.0190 C   0  0  2  0  0  3  0  0  0  0  0  0
  161.5430  208.0080  156.3160 C   0  0  0  0  0  2  0  0  0  0  0  0
  160.8130  210.1950  155.6630 C   0  0  2  0  0  0  0  0  0  0  0  0
  160.6590  210.8950  152.3870 S   0  0  0  0  0  0  0  0  0  0  0  0
  158.9040  211.2790  156.7560 N   0  0  0  0  0  1  0  0  0  0  0  0
  159.8640  212.3380  154.7060 C   0  0  1  0  0  3  0  0  0  0  0  0
  159.8450  209.4920  154.8960 O   0  0  0  0  0  0  0  0  0  0  0  0
  160.5550  209.0390  152.6390 C   0  0  2  0  0  3  0  0  0  0  0  0
  161.1990  209.2430  156.7530 C   0  0  0  0  0  2  0  0  0  0  0  0
  161.5440  207.7060  154.8110 C   0  0  0  0  0  2  0  0  0  0  0  0
  162.1400  210.5750  154.9640 C   0  0  0  0  0  1  0  0  0  0  0  0
  159.3090  211.5600  153.4740 C   0  0  0  0  0  2  0  0  0  0  0  0
  160.4160  208.5100  154.0900 C   0  0  1  0  0  3  0  0  0  0  0  0
  159.5200  214.4480  155.7840 O   0  0  0  0  0  1  0  0  0  0  0  0
  159.0980  213.5960  154.9590 C   0  0  0  0  0  0  0  0  0  0  0  0
  157.9220  213.8350  154.2620 O   0  0  0  0  0  0  0  0  0  0  0  0
  161.9540  206.9040  149.9950 O   0  0  0  0  0  0  0  0  0  0  0  0
  161.1150  205.7930  150.1120 C   0  0  1  0  0  3  0  0  0  0  0  0
  162.1260  205.7540  146.8080 C   0  0  2  0  0  3  0  0  0  0  0  0
  160.7550  205.2590  148.7200 C   0  0  1  0  0  3  0  0  0  0  0  0
  161.5370  200.7530  148.9290 O   0  0  0  0  0  1  0  0  0  0  0  0
  160.5970  201.6340  148.3960 C   0  0  2  0  0  3  0  0  0  0  0  0
  161.8890  204.3580  146.2060 C   0  0  0  0  0  2  0  0  0  0  0  0
  163.3700  205.8110  147.4370 O   0  0  0  0  0  1  0  0  0  0  0  0
  161.0910  206.1980  147.6860 O   0  0  0  0  0  0  0  0  0  0  0  0
  161.2900  203.9130  148.4930 N   0  0  2  0  0  0  0  0  0  0  0  0
  161.0580  202.0850  147.0190 C   0  0  0  0  0  2  0  0  0  0  0  0
  160.9720  203.5830  147.1250 C   0  0  2  0  0  3  0  0  0  0  0  0
  160.5520  202.9060  149.2390 C   0  0  0  0  0  2  0  0  0  0  0  0
  161.7710  204.7300  150.9800 C   0  0  0  0  0  2  0  0  0  0  0  0
  161.3650  204.8810  152.3060 O   0  0  0  0  0  0  0  0  0  0  0  0
  160.8630  203.6300  152.6630 C   0  0  0  0  0  1  0  0  0  0  0  0
  1  2  1  0  0  0  0
  3  7  1  6  0  0  0
  4 11  1  0  0  0  0
  5 13  1  6  0  0  0
  5  3  1  0  0  0  0
  5 11  1  0  0  0  0
  6 10  1  0  0  0  0
  6 14  1  0  0  0  0
  8 17  1  1  0  0  0
  8  3  1  0  0  0  0
  9  5  1  0  0  0  0
 10  2  1  1  0  0  0
 10 15  1  0  0  0  0
 12  4  1  0  0  0  0
 14  8  1  0  0  0  0
 15 12  1  1  0  0  0
 15  9  1  0  0  0  0
 17 16  1  0  0  0  0
 18 17  2  0  0  0  0
 19 20  1  0  0  0  0
 19  1  1  0  0  0  0
 20 32  1  1  0  0  0
 21 26  1  1  0  0  0
 21 27  1  0  0  0  0
 22 20  1  1  0  0  0
 24 23  1  1  0  0  0
 24 31  1  0  0  0  0
 25 21  1  0  0  0  0
 27 22  1  0  0  0  0
 28 22  1  0  0  0  0
 28 31  1  1  0  0  0
 29 30  1  0  0  0  0
 29 24  1  0  0  0  0
 30 25  1  6  0  0  0
 30 28  1  0  0  0  0
 32 33  1  0  0  0  0
 33 34  1  0  0  0  0
M  END
>  <MODEL>
7

>  <REMARK>
 VINA RESULT:      -6.0      1.067      1.880
  Name = 
  8 active torsions:
  status: ('A' for Active; 'I' for Inactive)
    1  A    between atoms: C_4  and  C_5
    2  A    between atoms: C_5  and  C_24
    3  A    between atoms: C_5  and  O_33
    4  A    between atoms: C_13  and  C_20
    5  A    between atoms: O_19  and  C_24
    6  A    between atoms: C_21  and  C_30
    7  A    between atoms: C_27  and  C_30
    8  A    between atoms: C_27  and  O_33
                            x       y       z     vdW  Elec       q    Type
                         _______ _______ _______ _____ _____    ______ ____

>  <TORSDO>
F 8

$$$$
=
 OpenBabel11072414173D

 34 37  0  0  1  0  0  0  0  0999 V2000
  161.8740  209.5540  152.0930 C   0  0  0  0  0  2  0  0  0  0  0  0
  161.7060  208.0580  152.2780 C   0  0  0  0  0  2  0  0  0  0  0  0
  160.9370  204.5830  148.1560 C   0  0  2  0  0  3  0  0  0  0  0  0
  160.8290  203.7170  151.8470 C   0  0  0  0  0  2  0  0  0  0  0  0
  160.8820  204.7290  149.6750 C   0  0  2  0  0  0  0  0  0  0  0  0
  161.5840  208.0020  149.4760 S   0  0  0  0  0  0  0  0  0  0  0  0
  161.9540  203.6110  147.7750 N   0  0  0  0  0  1  0  0  0  0  0  0
  161.2220  205.9850  147.5040 C   0  0  1  0  0  3  0  0  0  0  0  0
  162.1910  205.1340  150.0470 O   0  0  0  0  0  0  0  0  0  0  0  0
  162.2670  207.3090  151.0800 C   0  0  2  0  0  3  0  0  0  0  0  0
  160.5980  203.5290  150.5250 C   0  0  0  0  0  2  0  0  0  0  0  0
  161.3060  205.0860  152.3490 C   0  0  0  0  0  2  0  0  0  0  0  0
  159.7220  205.7130  149.9590 C   0  0  0  0  0  1  0  0  0  0  0  0
  162.3010  206.8870  148.1770 C   0  0  0  0  0  2  0  0  0  0  0  0
  162.2200  205.7720  151.2840 C   0  0  1  0  0  3  0  0  0  0  0  0
  160.4160  205.9300  145.2490 O   0  0  0  0  0  0  0  0  0  0  0  0
  161.4090  205.9060  146.0230 C   0  0  0  0  0  0  0  0  0  0  0  0
  162.6910  205.8280  145.4970 O   0  0  0  0  0  1  0  0  0  0  0  0
  160.7830  210.2160  152.6560 O   0  0  0  0  0  0  0  0  0  0  0  0
  160.4000  211.1580  151.6970 C   0  0  1  0  0  3  0  0  0  0  0  0
  158.7110  214.1140  151.1070 C   0  0  2  0  0  3  0  0  0  0  0  0
  159.7990  212.3910  152.3820 C   0  0  1  0  0  3  0  0  0  0  0  0
  156.1300  210.8360  154.6360 O   0  0  0  0  0  1  0  0  0  0  0  0
  157.1780  211.7360  154.8260 C   0  0  2  0  0  3  0  0  0  0  0  0
  157.6590  214.3420  152.2080 C   0  0  0  0  0  2  0  0  0  0  0  0
  158.1820  213.3290  150.0810 O   0  0  0  0  0  1  0  0  0  0  0  0
  159.9450  213.5710  151.5780 O   0  0  0  0  0  0  0  0  0  0  0  0
  158.4260  212.1510  152.8380 N   0  0  2  0  0  0  0  0  0  0  0  0
  156.7870  213.0880  154.2530 C   0  0  0  0  0  2  0  0  0  0  0  0
  157.9540  213.4100  153.3610 C   0  0  2  0  0  3  0  0  0  0  0  0
  158.3880  211.2910  154.0100 C   0  0  0  0  0  2  0  0  0  0  0  0
  161.5860  211.5160  150.8120 C   0  0  0  0  0  2  0  0  0  0  0  0
  161.1450  211.8100  149.5220 O   0  0  0  0  0  0  0  0  0  0  0  0
  162.2670  211.6160  148.7170 C   0  0  0  0  0  1  0  0  0  0  0  0
  1  2  1  0  0  0  0
  1 19  1  0  0  0  0
  3  7  1  1  0  0  0
  3  5  1  0  0  0  0
  4 12  1  0  0  0  0
  5 13  1  1  0  0  0
  5  9  1  0  0  0  0
  5 11  1  0  0  0  0
  6 10  1  0  0  0  0
  8 17  1  6  0  0  0
  8  3  1  0  0  0  0
  8 14  1  0  0  0  0
  9 15  1  0  0  0  0
 10 15  1  0  0  0  0
 10  2  1  1  0  0  0
 11  4  1  0  0  0  0
 14  6  1  0  0  0  0
 15 12  1  1  0  0  0
 16 17  2  0  0  0  0
 18 17  1  0  0  0  0
 20 32  1  1  0  0  0
 20 19  1  0  0  0  0
 21 26  1  6  0  0  0
 21 27  1  0  0  0  0
 21 25  1  0  0  0  0
 22 20  1  6  0  0  0
 22 28  1  0  0  0  0
 24 23  1  6  0  0  0
 27 22  1  0  0  0  0
 28 30  1  0  0  0  0
 28 31  1  1  0  0  0
 29 24  1  0  0  0  0
 30 25  1  6  0  0  0
 30 29  1  0  0  0  0
 31 24  1  0  0  0  0
 33 32  1  0  0  0  0
 34 33  1  0  0  0  0
M  END
>  <MODEL>
8

>  <REMARK>
 VINA RESULT:      -5.9      2.434      8.700
  Name = 
  8 active torsions:
  status: ('A' for Active; 'I' for Inactive)
    1  A    between atoms: C_4  and  C_5
    2  A    between atoms: C_5  and  C_24
    3  A    between atoms: C_5  and  O_33
    4  A    between atoms: C_13  and  C_20
    5  A    between atoms: O_19  and  C_24
    6  A    between atoms: C_21  and  C_30
    7  A    between atoms: C_27  and  C_30
    8  A    between atoms: C_27  and  O_33
                            x       y       z     vdW  Elec       q    Type
                         _______ _______ _______ _____ _____    ______ ____

>  <TORSDO>
F 8

$$$$
=
 OpenBabel11072414173D

 34 37  0  0  1  0  0  0  0  0999 V2000
  161.5360  208.0400  150.4490 C   0  0  0  0  0  2  0  0  0  0  0  0
  161.9210  208.6050  151.8020 C   0  0  0  0  0  2  0  0  0  0  0  0
  159.8390  211.4910  155.9240 C   0  0  2  0  0  3  0  0  0  0  0  0
  161.3890  208.0400  156.1840 C   0  0  0  0  0  2  0  0  0  0  0  0
  160.6120  210.2230  155.5720 C   0  0  2  0  0  0  0  0  0  0  0  0
  160.7390  211.0930  152.3360 S   0  0  0  0  0  0  0  0  0  0  0  0
  158.5520  211.1540  156.5220 N   0  0  0  0  0  1  0  0  0  0  0  0
  159.6490  212.3680  154.6330 C   0  0  1  0  0  3  0  0  0  0  0  0
  159.7610  209.5180  154.6780 O   0  0  0  0  0  0  0  0  0  0  0  0
  160.7090  209.2230  152.4830 C   0  0  2  0  0  3  0  0  0  0  0  0
  160.9400  209.2320  156.6460 C   0  0  0  0  0  2  0  0  0  0  0  0
  161.5510  207.8210  154.6740 C   0  0  0  0  0  2  0  0  0  0  0  0
  161.9780  210.7020  155.0280 C   0  0  0  0  0  1  0  0  0  0  0  0
  159.2580  211.6330  153.3150 C   0  0  0  0  0  2  0  0  0  0  0  0
  160.4580  208.6090  153.8850 C   0  0  1  0  0  3  0  0  0  0  0  0
  157.9780  213.9610  153.9980 O   0  0  0  0  0  0  0  0  0  0  0  0
  158.7980  213.5720  154.8710 C   0  0  0  0  0  0  0  0  0  0  0  0
  158.8980  214.2560  156.0750 O   0  0  0  0  0  1  0  0  0  0  0  0
  162.5590  207.2140  149.9830 O   0  0  0  0  0  0  0  0  0  0  0  0
  161.9050  206.1300  149.3920 C   0  0  1  0  0  3  0  0  0  0  0  0
  161.2180  204.7520  152.4850 C   0  0  2  0  0  3  0  0  0  0  0  0
  162.0940  204.8730  150.2500 C   0  0  1  0  0  3  0  0  0  0  0  0
  159.4060  201.7030  148.3290 O   0  0  0  0  0  1  0  0  0  0  0  0
  160.6720  201.8000  148.9050 C   0  0  2  0  0  3  0  0  0  0  0  0
  160.8620  203.2630  152.3260 C   0  0  0  0  0  2  0  0  0  0  0  0
  160.0820  205.5460  152.3210 O   0  0  0  0  0  1  0  0  0  0  0  0
  162.2770  205.1960  151.6360 O   0  0  0  0  0  0  0  0  0  0  0  0
  161.0400  203.8810  150.0070 N   0  0  2  0  0  0  0  0  0  0  0  0
  160.5550  201.6070  150.4080 C   0  0  0  0  0  2  0  0  0  0  0  0
  161.2790  202.8100  150.9450 C   0  0  2  0  0  3  0  0  0  0  0  0
  161.2090  203.2170  148.7240 C   0  0  0  0  0  2  0  0  0  0  0  0
  160.4350  206.4600  149.1760 C   0  0  0  0  0  2  0  0  0  0  0  0
  160.0820  206.2120  147.8490 O   0  0  0  0  0  0  0  0  0  0  0  0
  161.2090  206.5740  147.1130 C   0  0  0  0  0  1  0  0  0  0  0  0
  1  2  1  0  0  0  0
  3  7  1  6  0  0  0
  4 11  1  0  0  0  0
  5 13  1  6  0  0  0
  5  3  1  0  0  0  0
  5 11  1  0  0  0  0
  6 10  1  0  0  0  0
  6 14  1  0  0  0  0
  8 17  1  1  0  0  0
  8  3  1  0  0  0  0
  9  5  1  0  0  0  0
 10  2  1  1  0  0  0
 10 15  1  0  0  0  0
 12  4  1  0  0  0  0
 14  8  1  0  0  0  0
 15 12  1  1  0  0  0
 15  9  1  0  0  0  0
 16 17  2  0  0  0  0
 17 18  1  0  0  0  0
 19  1  1  0  0  0  0
 20 32  1  1  0  0  0
 20 19  1  0  0  0  0
 21 26  1  6  0  0  0
 22 20  1  6  0  0  0
 22 27  1  0  0  0  0
 24 23  1  6  0  0  0
 24 29  1  0  0  0  0
 25 21  1  0  0  0  0
 27 21  1  0  0  0  0
 28 31  1  6  0  0  0
 28 22  1  0  0  0  0
 28 30  1  0  0  0  0
 30 29  1  6  0  0  0
 30 25  1  0  0  0  0
 31 24  1  0  0  0  0
 33 32  1  0  0  0  0
 34 33  1  0  0  0  0
M  END
>  <MODEL>
9

>  <REMARK>
 VINA RESULT:      -5.5      1.421      2.557
  Name = 
  8 active torsions:
  status: ('A' for Active; 'I' for Inactive)
    1  A    between atoms: C_4  and  C_5
    2  A    between atoms: C_5  and  C_24
    3  A    between atoms: C_5  and  O_33
    4  A    between atoms: C_13  and  C_20
    5  A    between atoms: O_19  and  C_24
    6  A    between atoms: C_21  and  C_30
    7  A    between atoms: C_27  and  C_30
    8  A    between atoms: C_27  and  O_33
                            x       y       z     vdW  Elec       q    Type
                         _______ _______ _______ _____ _____    ______ ____

>  <TORSDO>
F 8

$$$$
