=
 OpenBabel11072414313D

 36 39  0  0  1  0  0  0  0  0999 V2000
  161.6350  209.8840  154.4380 C   0  0  0  0  0  3  0  0  0  0  0  0
  161.2010  210.2390  155.6540 C   0  0  0  0  0  0  0  0  0  0  0  0
  160.8190  210.5530  152.2280 C   0  0  0  0  0  0  0  0  0  0  0  0
  161.7100  207.9540  151.5820 C   0  0  0  0  0  0  0  0  0  0  0  0
  161.9920  209.1090  150.7220 C   0  0  0  0  0  3  0  0  0  0  0  0
  162.0640  206.6710  151.1590 C   0  0  0  0  0  3  0  0  0  0  0  0
  161.7500  205.5580  151.9460 C   0  0  0  0  0  0  0  0  0  0  0  0
  161.5670  210.2960  151.0320 N   0  0  0  0  0  0  0  0  0  0  0  0
  160.7280  207.0160  153.5920 C   0  0  0  0  0  3  0  0  0  0  0  0
  161.0800  205.7320  153.1620 C   0  0  0  0  0  3  0  0  0  0  0  0
  160.2690  211.6730  152.3850 O   0  0  0  0  0  0  0  0  0  0  0  0
  160.7140  209.5140  153.3140 C   0  0  1  0  0  3  0  0  0  0  0  0
  161.0440  208.1350  152.8090 C   0  0  0  0  0  0  0  0  0  0  0  0
  162.1570  204.1910  151.5090 C   0  0  0  0  0  2  0  0  0  0  0  0
  160.3700  202.9890  152.5100 O   0  0  0  0  0  0  0  0  0  0  0  0
  160.4940  202.2710  147.7310 C   0  0  0  0  0  1  0  0  0  0  0  0
  161.0040  203.0310  148.9000 C   0  0  0  0  0  0  0  0  0  0  0  0
  160.5130  202.7140  150.2070 N   0  0  0  0  0  2  0  0  0  0  0  0
  160.9660  203.2870  151.4420 C   0  0  0  0  0  0  0  0  0  0  0  0
  161.8410  203.9540  148.7200 O   0  0  0  0  0  0  0  0  0  0  0  0
  163.4700  210.7340  156.1370 O   0  0  0  0  0  1  0  0  0  0  0  0
  162.1990  210.6140  156.7020 C   0  0  0  0  0  2  0  0  0  0  0  0
  159.7390  210.2570  156.0000 C   0  0  0  0  0  2  0  0  0  0  0  0
  159.7150  212.5230  156.6310 O   0  0  0  0  0  0  0  0  0  0  0  0
  159.2050  211.6510  155.9450 C   0  0  0  0  0  0  0  0  0  0  0  0
  158.0480  211.9640  155.0450 C   0  0  1  0  0  3  0  0  0  0  0  0
  156.8330  211.1050  155.3780 C   0  0  0  0  0  1  0  0  0  0  0  0
  157.9090  214.3530  151.3510 N   0  0  0  0  0  2  0  0  0  0  0  0
  157.7830  213.4110  154.9900 N   0  0  0  0  0  0  0  0  0  0  0  0
  157.4070  213.7780  152.5810 C   0  0  2  0  0  3  0  0  0  0  0  0
  156.3770  213.7960  155.2650 C   0  0  0  0  0  2  0  0  0  0  0  0
  156.1100  214.4500  152.8790 C   0  0  1  0  0  3  0  0  0  0  0  0
  156.7760  214.3540  150.4250 C   0  0  0  0  0  2  0  0  0  0  0  0
  155.1910  214.3380  151.3420 S   0  0  0  0  0  0  0  0  0  0  0  0
  155.4550  213.7170  154.0340 C   0  0  0  0  0  2  0  0  0  0  0  0
  158.3390  214.0030  153.7610 C   0  0  0  0  0  2  0  0  0  0  0  0
  1  2  2  0  0  0  0
  2 23  1  0  0  0  0
  2 22  1  0  0  0  0
  3 11  2  0  0  0  0
  3 12  1  0  0  0  0
  4 13  1  0  0  0  0
  5  8  2  0  0  0  0
  5  4  1  0  0  0  0
  6  4  2  0  0  0  0
  6  7  1  0  0  0  0
  7 10  2  0  0  0  0
  8  3  1  0  0  0  0
 10  9  1  0  0  0  0
 12  1  1  1  0  0  0
 13 12  1  0  0  0  0
 13  9  2  0  0  0  0
 14  7  1  0  0  0  0
 16 17  1  0  0  0  0
 17 18  1  0  0  0  0
 18 19  1  0  0  0  0
 19 14  1  0  0  0  0
 19 15  2  0  0  0  0
 20 17  2  0  0  0  0
 21 22  1  0  0  0  0
 25 23  1  0  0  0  0
 25 24  2  0  0  0  0
 26 27  1  1  0  0  0
 26 25  1  0  0  0  0
 28 30  1  0  0  0  0
 29 26  1  0  0  0  0
 29 31  1  0  0  0  0
 30 32  1  0  0  0  0
 30 36  1  1  0  0  0
 32 35  1  1  0  0  0
 33 34  1  0  0  0  0
 33 28  1  0  0  0  0
 34 32  1  0  0  0  0
 35 31  1  0  0  0  0
 36 29  1  0  0  0  0
M  END
>  <MODEL>
1

>  <REMARK>
 VINA RESULT:      -7.5      0.000      0.000
  Name = 
  8 active torsions:
  status: ('A' for Active; 'I' for Inactive)
    1  A    between atoms: N_8  and  C_12
    2  A    between atoms: C_9  and  C_15
    3  A    between atoms: C_9  and  C_28
    4  A    between atoms: C_12  and  C_36
    5  A    between atoms: C_16  and  C_32
    6  A    between atoms: C_18  and  C_25
    7  A    between atoms: C_25  and  C_31
    8  A    between atoms: C_31  and  C_36
                            x       y       z     vdW  Elec       q    Type
                         _______ _______ _______ _____ _____    ______ ____

>  <TORSDO>
F 8

$$$$
=
 OpenBabel11072414313D

 36 39  0  0  1  0  0  0  0  0999 V2000
  160.5260  208.6240  151.9600 C   0  0  0  0  0  3  0  0  0  0  0  0
  160.6390  209.8290  152.5330 C   0  0  0  0  0  0  0  0  0  0  0  0
  161.3260  206.5030  152.8850 C   0  0  0  0  0  0  0  0  0  0  0  0
  161.4300  205.8370  150.1440 C   0  0  0  0  0  0  0  0  0  0  0  0
  160.8830  204.9160  151.1480 C   0  0  0  0  0  3  0  0  0  0  0  0
  161.5730  205.4140  148.8210 C   0  0  0  0  0  3  0  0  0  0  0  0
  162.1440  206.2630  147.8670 C   0  0  0  0  0  0  0  0  0  0  0  0
  160.8510  205.2380  152.4060 N   0  0  0  0  0  0  0  0  0  0  0  0
  162.4250  207.9710  149.5660 C   0  0  0  0  0  3  0  0  0  0  0  0
  162.5720  207.5420  148.2420 C   0  0  0  0  0  3  0  0  0  0  0  0
  161.4520  206.6890  154.1220 O   0  0  0  0  0  0  0  0  0  0  0  0
  161.6430  207.6240  151.9290 C   0  0  1  0  0  3  0  0  0  0  0  0
  161.8500  207.1250  150.5230 C   0  0  0  0  0  0  0  0  0  0  0  0
  162.2680  205.8230  146.4480 C   0  0  0  0  0  2  0  0  0  0  0  0
  160.2330  206.7470  145.6410 O   0  0  0  0  0  0  0  0  0  0  0  0
  160.2730  201.9360  145.1700 C   0  0  0  0  0  1  0  0  0  0  0  0
  161.0310  203.1720  145.4850 C   0  0  0  0  0  0  0  0  0  0  0  0
  160.3550  204.4340  145.4530 N   0  0  0  0  0  2  0  0  0  0  0  0
  160.9150  205.7030  145.8180 C   0  0  0  0  0  0  0  0  0  0  0  0
  162.2600  203.0940  145.7530 O   0  0  0  0  0  0  0  0  0  0  0  0
  159.7900  211.9560  151.9130 O   0  0  0  0  0  1  0  0  0  0  0  0
  159.4600  210.7490  152.5330 C   0  0  0  0  0  2  0  0  0  0  0  0
  161.9220  210.2910  153.1650 C   0  0  0  0  0  2  0  0  0  0  0  0
  162.7100  210.6340  155.3540 O   0  0  0  0  0  0  0  0  0  0  0  0
  161.7350  210.5130  154.6300 C   0  0  0  0  0  0  0  0  0  0  0  0
  160.3480  210.5890  155.1930 C   0  0  1  0  0  3  0  0  0  0  0  0
  159.9170  209.2590  155.7990 C   0  0  0  0  0  1  0  0  0  0  0  0
  157.9890  214.1820  154.2410 N   0  0  0  0  0  2  0  0  0  0  0  0
  160.1900  211.7520  156.0830 N   0  0  0  0  0  0  0  0  0  0  0  0
  158.3690  213.0010  154.9880 C   0  0  2  0  0  3  0  0  0  0  0  0
  159.3180  211.5190  157.2600 C   0  0  0  0  0  2  0  0  0  0  0  0
  157.6100  213.0330  156.2710 C   0  0  1  0  0  3  0  0  0  0  0  0
  156.5280  214.2370  154.3060 C   0  0  0  0  0  2  0  0  0  0  0  0
  155.9110  213.3280  155.7720 S   0  0  0  0  0  0  0  0  0  0  0  0
  157.8160  211.7050  156.9720 C   0  0  0  0  0  2  0  0  0  0  0  0
  159.8530  212.9630  155.3160 C   0  0  0  0  0  2  0  0  0  0  0  0
  1  2  2  0  0  0  0
  2 22  1  0  0  0  0
  2 23  1  0  0  0  0
  3 11  2  0  0  0  0
  4 13  1  0  0  0  0
  4  5  1  0  0  0  0
  5  8  2  0  0  0  0
  6  4  2  0  0  0  0
  7 10  2  0  0  0  0
  7  6  1  0  0  0  0
  8  3  1  0  0  0  0
  9 13  2  0  0  0  0
 10  9  1  0  0  0  0
 12  1  1  6  0  0  0
 12  3  1  0  0  0  0
 13 12  1  0  0  0  0
 14  7  1  0  0  0  0
 15 19  2  0  0  0  0
 16 17  1  0  0  0  0
 17 20  2  0  0  0  0
 18 17  1  0  0  0  0
 18 19  1  0  0  0  0
 19 14  1  0  0  0  0
 21 22  1  0  0  0  0
 23 25  1  0  0  0  0
 25 26  1  0  0  0  0
 25 24  2  0  0  0  0
 26 27  1  1  0  0  0
 26 29  1  0  0  0  0
 28 33  1  0  0  0  0
 28 30  1  0  0  0  0
 29 31  1  0  0  0  0
 30 36  1  1  0  0  0
 30 32  1  0  0  0  0
 32 35  1  6  0  0  0
 33 34  1  0  0  0  0
 34 32  1  0  0  0  0
 35 31  1  0  0  0  0
 36 29  1  0  0  0  0
M  END
>  <MODEL>
2

>  <REMARK>
 VINA RESULT:      -7.4      2.454      4.154
  Name = 
  8 active torsions:
  status: ('A' for Active; 'I' for Inactive)
    1  A    between atoms: N_8  and  C_12
    2  A    between atoms: C_9  and  C_15
    3  A    between atoms: C_9  and  C_28
    4  A    between atoms: C_12  and  C_36
    5  A    between atoms: C_16  and  C_32
    6  A    between atoms: C_18  and  C_25
    7  A    between atoms: C_25  and  C_31
    8  A    between atoms: C_31  and  C_36
                            x       y       z     vdW  Elec       q    Type
                         _______ _______ _______ _____ _____    ______ ____

>  <TORSDO>
F 8

$$$$
=
 OpenBabel11072414313D

 36 39  0  0  1  0  0  0  0  0999 V2000
  161.5740  209.3360  152.8760 C   0  0  0  0  0  3  0  0  0  0  0  0
  161.5890  208.3730  151.9460 C   0  0  0  0  0  0  0  0  0  0  0  0
  161.3660  209.1140  155.3060 C   0  0  0  0  0  0  0  0  0  0  0  0
  160.1500  211.6430  155.0060 C   0  0  0  0  0  0  0  0  0  0  0  0
  161.1240  211.3700  156.0700 C   0  0  0  0  0  3  0  0  0  0  0  0
  159.4850  212.8710  154.9740 C   0  0  0  0  0  3  0  0  0  0  0  0
  158.5150  213.1210  153.9980 C   0  0  0  0  0  0  0  0  0  0  0  0
  161.6670  210.1970  156.1960 N   0  0  0  0  0  0  0  0  0  0  0  0
  158.8810  210.9090  153.0740 C   0  0  0  0  0  3  0  0  0  0  0  0
  158.2120  212.1380  153.0490 C   0  0  0  0  0  3  0  0  0  0  0  0
  161.7660  207.9540  155.5840 O   0  0  0  0  0  0  0  0  0  0  0  0
  160.6100  209.3520  154.0250 C   0  0  1  0  0  3  0  0  0  0  0  0
  159.8560  210.6550  154.0480 C   0  0  0  0  0  0  0  0  0  0  0  0
  157.8280  214.4440  153.9450 C   0  0  0  0  0  2  0  0  0  0  0  0
  156.1020  214.1660  152.3350 O   0  0  0  0  0  0  0  0  0  0  0  0
  154.2950  214.3740  156.8140 C   0  0  0  0  0  1  0  0  0  0  0  0
  155.4970  214.2720  155.9500 C   0  0  0  0  0  0  0  0  0  0  0  0
  155.3360  214.2720  154.5270 N   0  0  0  0  0  2  0  0  0  0  0  0
  156.3920  214.2730  153.5560 C   0  0  0  0  0  0  0  0  0  0  0  0
  156.6340  214.1670  156.4800 O   0  0  0  0  0  0  0  0  0  0  0  0
  162.0810  209.1040  149.7440 O   0  0  0  0  0  1  0  0  0  0  0  0
  162.6050  208.4340  150.8510 C   0  0  0  0  0  2  0  0  0  0  0  0
  160.6020  207.2400  151.9620 C   0  0  0  0  0  2  0  0  0  0  0  0
  161.5700  205.6830  153.4350 O   0  0  0  0  0  0  0  0  0  0  0  0
  161.2890  205.9520  152.2780 C   0  0  0  0  0  0  0  0  0  0  0  0
  161.6240  205.0020  151.1680 C   0  0  1  0  0  3  0  0  0  0  0  0
  162.1710  203.6840  151.7050 C   0  0  0  0  0  1  0  0  0  0  0  0
  161.6200  206.5460  147.0460 N   0  0  0  0  0  2  0  0  0  0  0  0
  160.5060  204.8640  150.2200 N   0  0  0  0  0  0  0  0  0  0  0  0
  161.5440  205.5460  148.0900 C   0  0  2  0  0  3  0  0  0  0  0  0
  160.3120  203.4950  149.6830 C   0  0  0  0  0  2  0  0  0  0  0  0
  161.0800  204.2810  147.4510 C   0  0  1  0  0  3  0  0  0  0  0  0
  162.3260  205.9030  145.9360 C   0  0  0  0  0  2  0  0  0  0  0  0
  162.1600  204.0820  146.0320 S   0  0  0  0  0  0  0  0  0  0  0  0
  161.2040  203.1670  148.4710 C   0  0  0  0  0  2  0  0  0  0  0  0
  160.5570  205.9130  149.1870 C   0  0  0  0  0  2  0  0  0  0  0  0
  2 23  1  0  0  0  0
  2  1  2  0  0  0  0
  3 11  2  0  0  0  0
  3  8  1  0  0  0  0
  4  5  1  0  0  0  0
  5  8  2  0  0  0  0
  6  4  1  0  0  0  0
  7  6  2  0  0  0  0
  9 13  1  0  0  0  0
 10  9  2  0  0  0  0
 10  7  1  0  0  0  0
 12  1  1  6  0  0  0
 12 13  1  0  0  0  0
 12  3  1  0  0  0  0
 13  4  2  0  0  0  0
 14  7  1  0  0  0  0
 15 19  2  0  0  0  0
 17 20  2  0  0  0  0
 17 16  1  0  0  0  0
 18 17  1  0  0  0  0
 19 14  1  0  0  0  0
 19 18  1  0  0  0  0
 21 22  1  0  0  0  0
 22  2  1  0  0  0  0
 23 25  1  0  0  0  0
 25 24  2  0  0  0  0
 26 27  1  1  0  0  0
 26 25  1  0  0  0  0
 28 30  1  0  0  0  0
 29 26  1  0  0  0  0
 30 36  1  1  0  0  0
 31 29  1  0  0  0  0
 32 30  1  0  0  0  0
 32 35  1  1  0  0  0
 33 34  1  0  0  0  0
 33 28  1  0  0  0  0
 34 32  1  0  0  0  0
 35 31  1  0  0  0  0
 36 29  1  0  0  0  0
M  END
>  <MODEL>
3

>  <REMARK>
 VINA RESULT:      -6.9      3.299      9.425
  Name = 
  8 active torsions:
  status: ('A' for Active; 'I' for Inactive)
    1  A    between atoms: N_8  and  C_12
    2  A    between atoms: C_9  and  C_15
    3  A    between atoms: C_9  and  C_28
    4  A    between atoms: C_12  and  C_36
    5  A    between atoms: C_16  and  C_32
    6  A    between atoms: C_18  and  C_25
    7  A    between atoms: C_25  and  C_31
    8  A    between atoms: C_31  and  C_36
                            x       y       z     vdW  Elec       q    Type
                         _______ _______ _______ _____ _____    ______ ____

>  <TORSDO>
F 8

$$$$
=
 OpenBabel11072414313D

 36 39  0  0  1  0  0  0  0  0999 V2000
  161.7680  207.7530  151.6390 C   0  0  0  0  0  3  0  0  0  0  0  0
  161.2910  208.3920  152.7150 C   0  0  0  0  0  0  0  0  0  0  0  0
  161.8070  208.7860  149.4190 C   0  0  0  0  0  0  0  0  0  0  0  0
  161.9410  206.0790  148.6300 C   0  0  0  0  0  0  0  0  0  0  0  0
  162.7920  207.1090  148.0230 C   0  0  0  0  0  3  0  0  0  0  0  0
  161.9560  204.7790  148.1210 C   0  0  0  0  0  3  0  0  0  0  0  0
  161.1080  203.8030  148.6560 C   0  0  0  0  0  0  0  0  0  0  0  0
  162.7110  208.3510  148.3950 N   0  0  0  0  0  0  0  0  0  0  0  0
  160.2290  205.4320  150.2220 C   0  0  0  0  0  3  0  0  0  0  0  0
  160.2430  204.1320  149.7060 C   0  0  0  0  0  3  0  0  0  0  0  0
  161.6280  210.0170  149.6050 O   0  0  0  0  0  0  0  0  0  0  0  0
  161.0960  207.7900  150.2990 C   0  0  1  0  0  3  0  0  0  0  0  0
  161.0800  206.4120  149.6920 C   0  0  0  0  0  0  0  0  0  0  0  0
  161.1480  202.4070  148.1330 C   0  0  0  0  0  2  0  0  0  0  0  0
  160.9510  203.5050  146.0360 O   0  0  0  0  0  0  0  0  0  0  0  0
  161.0750  198.7030  145.4870 C   0  0  0  0  0  1  0  0  0  0  0  0
  161.2380  199.8670  146.3940 C   0  0  0  0  0  0  0  0  0  0  0  0
  161.0250  201.1870  145.8800 N   0  0  0  0  0  2  0  0  0  0  0  0
  161.0520  202.4040  146.6400 C   0  0  0  0  0  0  0  0  0  0  0  0
  161.5800  199.6770  147.5910 O   0  0  0  0  0  0  0  0  0  0  0  0
  161.3690  207.4980  154.9100 O   0  0  0  0  0  1  0  0  0  0  0  0
  162.0470  208.3140  154.0030 C   0  0  0  0  0  2  0  0  0  0  0  0
  160.0090  209.1750  152.6690 C   0  0  0  0  0  2  0  0  0  0  0  0
  161.1650  211.2200  152.7960 O   0  0  0  0  0  0  0  0  0  0  0  0
  160.2200  210.5570  153.1950 C   0  0  0  0  0  0  0  0  0  0  0  0
  159.2660  211.1160  154.2060 C   0  0  1  0  0  3  0  0  0  0  0  0
  159.3850  210.3970  155.5450 C   0  0  0  0  0  1  0  0  0  0  0  0
  156.1110  213.9090  152.9300 N   0  0  0  0  0  2  0  0  0  0  0  0
  159.3600  212.5830  154.2840 N   0  0  0  0  0  0  0  0  0  0  0  0
  157.0350  213.2770  153.8500 C   0  0  2  0  0  3  0  0  0  0  0  0
  159.2660  213.1400  155.6570 C   0  0  0  0  0  2  0  0  0  0  0  0
  157.0390  214.0960  155.0960 C   0  0  1  0  0  3  0  0  0  0  0  0
  154.9050  214.1850  153.7110 C   0  0  0  0  0  2  0  0  0  0  0  0
  155.3010  214.2990  155.4960 S   0  0  0  0  0  0  0  0  0  0  0  0
  157.8210  213.3410  156.1510 C   0  0  0  0  0  2  0  0  0  0  0  0
  158.4570  213.2230  153.3130 C   0  0  0  0  0  2  0  0  0  0  0  0
  1  2  2  0  0  0  0
  2 22  1  0  0  0  0
  3 11  2  0  0  0  0
  3 12  1  0  0  0  0
  4 13  1  0  0  0  0
  5  8  2  0  0  0  0
  5  4  1  0  0  0  0
  6  4  2  0  0  0  0
  6  7  1  0  0  0  0
  7 10  2  0  0  0  0
  8  3  1  0  0  0  0
 10  9  1  0  0  0  0
 12  1  1  1  0  0  0
 13  9  2  0  0  0  0
 13 12  1  0  0  0  0
 14  7  1  0  0  0  0
 15 19  2  0  0  0  0
 16 17  1  0  0  0  0
 17 20  2  0  0  0  0
 18 17  1  0  0  0  0
 18 19  1  0  0  0  0
 19 14  1  0  0  0  0
 22 21  1  0  0  0  0
 23  2  1  0  0  0  0
 23 25  1  0  0  0  0
 24 25  2  0  0  0  0
 25 26  1  0  0  0  0
 26 29  1  0  0  0  0
 26 27  1  1  0  0  0
 28 33  1  0  0  0  0
 28 30  1  0  0  0  0
 29 31  1  0  0  0  0
 30 36  1  6  0  0  0
 30 32  1  0  0  0  0
 31 35  1  0  0  0  0
 32 34  1  0  0  0  0
 32 35  1  1  0  0  0
 33 34  1  0  0  0  0
 36 29  1  0  0  0  0
M  END
>  <MODEL>
4

>  <REMARK>
 VINA RESULT:      -5.9      2.417      3.622
  Name = 
  8 active torsions:
  status: ('A' for Active; 'I' for Inactive)
    1  A    between atoms: N_8  and  C_12
    2  A    between atoms: C_9  and  C_15
    3  A    between atoms: C_9  and  C_28
    4  A    between atoms: C_12  and  C_36
    5  A    between atoms: C_16  and  C_32
    6  A    between atoms: C_18  and  C_25
    7  A    between atoms: C_25  and  C_31
    8  A    between atoms: C_31  and  C_36
                            x       y       z     vdW  Elec       q    Type
                         _______ _______ _______ _____ _____    ______ ____

>  <TORSDO>
F 8

$$$$
=
 OpenBabel11072414313D

 36 39  0  0  1  0  0  0  0  0999 V2000
  161.4680  207.7190  152.7270 C   0  0  0  0  0  3  0  0  0  0  0  0
  161.0640  208.1810  153.9170 C   0  0  0  0  0  0  0  0  0  0  0  0
  161.3410  209.4740  151.0230 C   0  0  0  0  0  0  0  0  0  0  0  0
  162.0230  207.3060  149.3490 C   0  0  0  0  0  0  0  0  0  0  0  0
  162.6640  208.6200  149.2200 C   0  0  0  0  0  3  0  0  0  0  0  0
  162.3050  206.3030  148.4190 C   0  0  0  0  0  3  0  0  0  0  0  0
  161.6580  205.0650  148.5000 C   0  0  0  0  0  0  0  0  0  0  0  0
  162.3310  209.6070  149.9950 N   0  0  0  0  0  0  0  0  0  0  0  0
  160.4460  205.8330  150.4540 C   0  0  0  0  0  3  0  0  0  0  0  0
  160.7260  204.8320  149.5180 C   0  0  0  0  0  3  0  0  0  0  0  0
  160.9180  210.5010  151.6130 O   0  0  0  0  0  0  0  0  0  0  0  0
  160.8260  208.1180  151.4310 C   0  0  1  0  0  3  0  0  0  0  0  0
  161.0940  207.0730  150.3800 C   0  0  0  0  0  0  0  0  0  0  0  0
  161.9830  203.9840  147.5260 C   0  0  0  0  0  2  0  0  0  0  0  0
  161.7720  205.5350  145.7390 O   0  0  0  0  0  0  0  0  0  0  0  0
  159.7060  201.3070  144.6330 C   0  0  0  0  0  1  0  0  0  0  0  0
  160.5620  202.0780  145.5680 C   0  0  0  0  0  0  0  0  0  0  0  0
  160.8140  203.4630  145.3040 N   0  0  0  0  0  2  0  0  0  0  0  0
  161.5380  204.3670  146.1500 C   0  0  0  0  0  0  0  0  0  0  0  0
  161.0680  201.4990  146.5660 O   0  0  0  0  0  0  0  0  0  0  0  0
  160.8680  207.3560  156.1320 O   0  0  0  0  0  1  0  0  0  0  0  0
  161.7840  207.7420  155.1510 C   0  0  0  0  0  2  0  0  0  0  0  0
  159.8960  209.1170  154.0480 C   0  0  0  0  0  2  0  0  0  0  0  0
  161.4380  210.8050  154.6030 O   0  0  0  0  0  0  0  0  0  0  0  0
  160.3060  210.3710  154.7500 C   0  0  0  0  0  0  0  0  0  0  0  0
  159.3200  211.0830  155.6260 C   0  0  1  0  0  3  0  0  0  0  0  0
  159.3970  210.5920  157.0680 C   0  0  0  0  0  1  0  0  0  0  0  0
  156.6300  213.5140  153.1310 N   0  0  0  0  0  2  0  0  0  0  0  0
  159.4140  212.5430  155.4670 N   0  0  0  0  0  0  0  0  0  0  0  0
  157.2830  213.0810  154.3490 C   0  0  2  0  0  3  0  0  0  0  0  0
  158.9840  213.3260  156.6520 C   0  0  0  0  0  2  0  0  0  0  0  0
  156.9850  214.1020  155.3920 C   0  0  1  0  0  3  0  0  0  0  0  0
  155.2700  213.8850  153.5240 C   0  0  0  0  0  2  0  0  0  0  0  0
  155.2060  214.3190  155.3020 S   0  0  0  0  0  0  0  0  0  0  0  0
  157.4650  213.5660  156.7260 C   0  0  0  0  0  2  0  0  0  0  0  0
  158.7930  212.9780  154.2030 C   0  0  0  0  0  2  0  0  0  0  0  0
  1  2  2  0  0  0  0
  2 23  1  0  0  0  0
  2 22  1  0  0  0  0
  3 12  1  0  0  0  0
  3 11  2  0  0  0  0
  4 13  1  0  0  0  0
  5  4  1  0  0  0  0
  5  8  2  0  0  0  0
  6  7  1  0  0  0  0
  6  4  2  0  0  0  0
  7 10  2  0  0  0  0
  8  3  1  0  0  0  0
 10  9  1  0  0  0  0
 12  1  1  1  0  0  0
 13  9  2  0  0  0  0
 13 12  1  0  0  0  0
 14  7  1  0  0  0  0
 15 19  2  0  0  0  0
 16 17  1  0  0  0  0
 17 20  2  0  0  0  0
 18 17  1  0  0  0  0
 18 19  1  0  0  0  0
 19 14  1  0  0  0  0
 22 21  1  0  0  0  0
 23 25  1  0  0  0  0
 24 25  2  0  0  0  0
 25 26  1  0  0  0  0
 26 27  1  1  0  0  0
 28 33  1  0  0  0  0
 28 30  1  0  0  0  0
 29 26  1  0  0  0  0
 29 31  1  0  0  0  0
 30 36  1  6  0  0  0
 30 32  1  0  0  0  0
 31 35  1  0  0  0  0
 32 35  1  1  0  0  0
 33 34  1  0  0  0  0
 34 32  1  0  0  0  0
 36 29  1  0  0  0  0
M  END
>  <MODEL>
5

>  <REMARK>
 VINA RESULT:      -5.9      2.312      3.241
  Name = 
  8 active torsions:
  status: ('A' for Active; 'I' for Inactive)
    1  A    between atoms: N_8  and  C_12
    2  A    between atoms: C_9  and  C_15
    3  A    between atoms: C_9  and  C_28
    4  A    between atoms: C_12  and  C_36
    5  A    between atoms: C_16  and  C_32
    6  A    between atoms: C_18  and  C_25
    7  A    between atoms: C_25  and  C_31
    8  A    between atoms: C_31  and  C_36
                            x       y       z     vdW  Elec       q    Type
                         _______ _______ _______ _____ _____    ______ ____

>  <TORSDO>
F 8

$$$$
=
 OpenBabel11072414313D

 36 39  0  0  1  0  0  0  0  0999 V2000
  159.7910  210.6700  152.8340 C   0  0  0  0  0  3  0  0  0  0  0  0
  159.5640  211.6670  151.9700 C   0  0  0  0  0  0  0  0  0  0  0  0
  161.3320  210.0110  154.6190 C   0  0  0  0  0  0  0  0  0  0  0  0
  161.3470  207.6090  153.1370 C   0  0  0  0  0  0  0  0  0  0  0  0
  161.2410  207.6180  154.6010 C   0  0  0  0  0  3  0  0  0  0  0  0
  161.4740  206.3940  152.4590 C   0  0  0  0  0  3  0  0  0  0  0  0
  161.6310  206.3760  151.0700 C   0  0  0  0  0  0  0  0  0  0  0  0
  161.2440  208.7340  155.2660 N   0  0  0  0  0  0  0  0  0  0  0  0
  161.5260  208.7980  151.0320 C   0  0  0  0  0  3  0  0  0  0  0  0
  161.6590  207.5800  150.3560 C   0  0  0  0  0  3  0  0  0  0  0  0
  161.5250  211.0430  155.3110 O   0  0  0  0  0  0  0  0  0  0  0  0
  161.1620  210.1360  153.1280 C   0  0  1  0  0  3  0  0  0  0  0  0
  161.3650  208.8210  152.4240 C   0  0  0  0  0  0  0  0  0  0  0  0
  161.7350  205.0770  150.3430 C   0  0  0  0  0  2  0  0  0  0  0  0
  160.4580  204.2380  152.1620 O   0  0  0  0  0  0  0  0  0  0  0  0
  160.4020  201.1690  148.4280 C   0  0  0  0  0  1  0  0  0  0  0  0
  160.7620  202.5140  148.9410 C   0  0  0  0  0  0  0  0  0  0  0  0
  160.4900  202.8350  150.3100 N   0  0  0  0  0  2  0  0  0  0  0  0
  160.8560  204.0490  150.9820 C   0  0  0  0  0  0  0  0  0  0  0  0
  161.2790  203.3570  148.1610 O   0  0  0  0  0  0  0  0  0  0  0  0
  157.5270  212.3240  152.9940 O   0  0  0  0  0  1  0  0  0  0  0  0
  158.1620  212.1450  151.7630 C   0  0  0  0  0  2  0  0  0  0  0  0
  160.6760  212.3100  151.1890 C   0  0  0  0  0  2  0  0  0  0  0  0
  159.6960  214.4430  151.3430 O   0  0  0  0  0  0  0  0  0  0  0  0
  160.2280  213.6160  150.6190 C   0  0  0  0  0  0  0  0  0  0  0  0
  160.4410  213.8980  149.1630 C   0  0  1  0  0  3  0  0  0  0  0  0
  161.8370  214.4520  148.8990 C   0  0  0  0  0  1  0  0  0  0  0  0
  157.0630  213.8160  146.3420 N   0  0  0  0  0  2  0  0  0  0  0  0
  160.0700  212.7420  148.3300 N   0  0  0  0  0  0  0  0  0  0  0  0
  158.4470  213.7330  146.7610 C   0  0  2  0  0  3  0  0  0  0  0  0
  160.9910  212.4700  147.1990 C   0  0  0  0  0  2  0  0  0  0  0  0
  159.2210  213.1920  145.6080 C   0  0  1  0  0  3  0  0  0  0  0  0
  157.0880  214.4530  145.0240 C   0  0  0  0  0  2  0  0  0  0  0  0
  158.7160  214.2120  144.2200 S   0  0  0  0  0  0  0  0  0  0  0  0
  160.6960  213.3030  145.9380 C   0  0  0  0  0  2  0  0  0  0  0  0
  158.6490  212.8030  147.9460 C   0  0  0  0  0  2  0  0  0  0  0  0
  2  1  2  0  0  0  0
  3  8  1  0  0  0  0
  3 11  2  0  0  0  0
  4  5  1  0  0  0  0
  5  8  2  0  0  0  0
  6  4  1  0  0  0  0
  7  6  2  0  0  0  0
  9 13  1  0  0  0  0
 10  9  2  0  0  0  0
 10  7  1  0  0  0  0
 12  1  1  1  0  0  0
 12  3  1  0  0  0  0
 13 12  1  0  0  0  0
 13  4  2  0  0  0  0
 14 19  1  0  0  0  0
 14  7  1  0  0  0  0
 16 17  1  0  0  0  0
 17 18  1  0  0  0  0
 18 19  1  0  0  0  0
 19 15  2  0  0  0  0
 20 17  2  0  0  0  0
 22  2  1  0  0  0  0
 22 21  1  0  0  0  0
 23  2  1  0  0  0  0
 25 23  1  0  0  0  0
 25 24  2  0  0  0  0
 26 27  1  1  0  0  0
 26 25  1  0  0  0  0
 28 30  1  0  0  0  0
 29 26  1  0  0  0  0
 30 36  1  1  0  0  0
 31 29  1  0  0  0  0
 32 35  1  1  0  0  0
 32 30  1  0  0  0  0
 33 28  1  0  0  0  0
 34 33  1  0  0  0  0
 34 32  1  0  0  0  0
 35 31  1  0  0  0  0
 36 29  1  0  0  0  0
M  END
>  <MODEL>
6

>  <REMARK>
 VINA RESULT:      -5.6      3.243      5.022
  Name = 
  8 active torsions:
  status: ('A' for Active; 'I' for Inactive)
    1  A    between atoms: N_8  and  C_12
    2  A    between atoms: C_9  and  C_15
    3  A    between atoms: C_9  and  C_28
    4  A    between atoms: C_12  and  C_36
    5  A    between atoms: C_16  and  C_32
    6  A    between atoms: C_18  and  C_25
    7  A    between atoms: C_25  and  C_31
    8  A    between atoms: C_31  and  C_36
                            x       y       z     vdW  Elec       q    Type
                         _______ _______ _______ _____ _____    ______ ____

>  <TORSDO>
F 8

$$$$
=
 OpenBabel11072414313D

 36 39  0  0  1  0  0  0  0  0999 V2000
  161.5310  207.9770  152.5850 C   0  0  0  0  0  3  0  0  0  0  0  0
  161.1680  208.3900  153.8060 C   0  0  0  0  0  0  0  0  0  0  0  0
  161.4970  209.8110  150.9610 C   0  0  0  0  0  0  0  0  0  0  0  0
  161.9700  207.6740  149.1790 C   0  0  0  0  0  0  0  0  0  0  0  0
  162.7070  208.9400  149.0880 C   0  0  0  0  0  3  0  0  0  0  0  0
  162.1510  206.6950  148.2000 C   0  0  0  0  0  3  0  0  0  0  0  0
  161.4130  205.5070  148.2460 C   0  0  0  0  0  0  0  0  0  0  0  0
  162.4700  209.9150  149.9130 N   0  0  0  0  0  0  0  0  0  0  0  0
  160.3110  206.2770  150.2640 C   0  0  0  0  0  3  0  0  0  0  0  0
  160.4910  205.3000  149.2790 C   0  0  0  0  0  3  0  0  0  0  0  0
  161.1690  210.8400  151.6060 O   0  0  0  0  0  0  0  0  0  0  0  0
  160.8900  208.4810  151.3250 C   0  0  1  0  0  3  0  0  0  0  0  0
  161.0510  207.4670  150.2240 C   0  0  0  0  0  0  0  0  0  0  0  0
  161.6300  204.4480  147.2180 C   0  0  0  0  0  2  0  0  0  0  0  0
  161.5590  202.8940  149.0130 O   0  0  0  0  0  0  0  0  0  0  0  0
  160.0760  200.8620  144.8850 C   0  0  0  0  0  1  0  0  0  0  0  0
  160.4530  202.1020  145.6090 C   0  0  0  0  0  0  0  0  0  0  0  0
  160.8580  202.0140  146.9800 N   0  0  0  0  0  2  0  0  0  0  0  0
  161.3380  203.0960  147.7900 C   0  0  0  0  0  0  0  0  0  0  0  0
  160.3920  203.2100  145.0130 O   0  0  0  0  0  0  0  0  0  0  0  0
  160.9670  207.5000  155.9950 O   0  0  0  0  0  1  0  0  0  0  0  0
  161.8840  207.8460  155.0010 C   0  0  0  0  0  2  0  0  0  0  0  0
  160.0500  209.3730  154.0110 C   0  0  0  0  0  2  0  0  0  0  0  0
  161.6730  211.0390  154.3650 O   0  0  0  0  0  0  0  0  0  0  0  0
  160.5630  210.6220  154.6530 C   0  0  0  0  0  0  0  0  0  0  0  0
  159.7040  211.3490  155.6420 C   0  0  1  0  0  3  0  0  0  0  0  0
  160.5450  212.0940  156.6720 C   0  0  0  0  0  1  0  0  0  0  0  0
  155.4670  210.2380  155.2080 N   0  0  0  0  0  2  0  0  0  0  0  0
  158.6840  212.1710  154.9690 N   0  0  0  0  0  0  0  0  0  0  0  0
  156.5920  211.0460  155.6290 C   0  0  2  0  0  3  0  0  0  0  0  0
  158.2660  213.3800  155.7210 C   0  0  0  0  0  2  0  0  0  0  0  0
  156.0410  212.3420  156.1180 C   0  0  1  0  0  3  0  0  0  0  0  0
  154.4850  210.3340  156.2890 C   0  0  0  0  0  2  0  0  0  0  0  0
  154.7410  211.8660  157.2600 S   0  0  0  0  0  0  0  0  0  0  0  0
  157.1690  213.1170  156.7690 C   0  0  0  0  0  2  0  0  0  0  0  0
  157.5630  211.3400  154.4970 C   0  0  0  0  0  2  0  0  0  0  0  0
  1  2  2  0  0  0  0
  2 23  1  0  0  0  0
  2 22  1  0  0  0  0
  3 12  1  0  0  0  0
  3 11  2  0  0  0  0
  4 13  1  0  0  0  0
  5  4  1  0  0  0  0
  5  8  2  0  0  0  0
  6  7  1  0  0  0  0
  6  4  2  0  0  0  0
  7 10  2  0  0  0  0
  8  3  1  0  0  0  0
 10  9  1  0  0  0  0
 12  1  1  1  0  0  0
 13  9  2  0  0  0  0
 13 12  1  0  0  0  0
 14 19  1  0  0  0  0
 14  7  1  0  0  0  0
 16 17  1  0  0  0  0
 17 18  1  0  0  0  0
 18 19  1  0  0  0  0
 19 15  2  0  0  0  0
 20 17  2  0  0  0  0
 22 21  1  0  0  0  0
 23 25  1  0  0  0  0
 24 25  2  0  0  0  0
 25 26  1  0  0  0  0
 26 27  1  6  0  0  0
 28 30  1  0  0  0  0
 28 33  1  0  0  0  0
 29 26  1  0  0  0  0
 29 31  1  0  0  0  0
 30 36  1  6  0  0  0
 30 32  1  0  0  0  0
 31 35  1  0  0  0  0
 32 35  1  1  0  0  0
 32 34  1  0  0  0  0
 33 34  1  0  0  0  0
 36 29  1  0  0  0  0
M  END
>  <MODEL>
7

>  <REMARK>
 VINA RESULT:      -5.0      2.509      3.529
  Name = 
  8 active torsions:
  status: ('A' for Active; 'I' for Inactive)
    1  A    between atoms: N_8  and  C_12
    2  A    between atoms: C_9  and  C_15
    3  A    between atoms: C_9  and  C_28
    4  A    between atoms: C_12  and  C_36
    5  A    between atoms: C_16  and  C_32
    6  A    between atoms: C_18  and  C_25
    7  A    between atoms: C_25  and  C_31
    8  A    between atoms: C_31  and  C_36
                            x       y       z     vdW  Elec       q    Type
                         _______ _______ _______ _____ _____    ______ ____

>  <TORSDO>
F 8

$$$$
