=
 OpenBabel11072415203D

 63 67  0  0  1  0  0  0  0  0999 V2000
  160.6560  205.5970  146.1660 C   0  0  2  0  0  3  0  0  0  0  0  0
  160.4410  205.0170  144.8110 C   0  0  0  0  0  3  0  0  0  0  0  0
  162.0130  205.7130  142.8510 C   0  0  0  0  0  3  0  0  0  0  0  0
  161.2170  205.3590  143.8190 C   0  0  0  0  0  0  0  0  0  0  0  0
  161.6820  206.8970  142.0130 C   0  0  0  0  0  2  0  0  0  0  0  0
  162.1790  206.6040  140.2910 S   0  0  0  0  0  0  0  0  0  0  0  0
  161.4830  208.1910  139.7210 C   0  0  2  0  0  3  0  0  0  0  0  0
  159.9190  207.8650  137.9500 O   0  0  0  0  0  1  0  0  0  0  0  0
  161.2500  208.2100  138.1990 C   0  0  2  0  0  0  0  0  0  0  0  0
  162.1460  207.1370  137.5830 C   0  0  0  0  0  1  0  0  0  0  0  0
  161.5260  209.5230  137.7150 O   0  0  0  0  0  0  0  0  0  0  0  0
  160.3910  210.3560  137.5050 C   0  0  0  0  0  3  0  0  0  0  0  0
  160.6550  211.8540  137.4770 C   0  0  0  0  0  1  0  0  0  0  0  0
  159.1950  209.9770  138.3610 C   0  0  0  0  0  1  0  0  0  0  0  0
  162.3960  209.3220  140.1820 C   0  0  0  0  0  2  0  0  0  0  0  0
  161.6850  210.2200  140.9800 O   0  0  0  0  0  0  0  0  0  0  0  0
  162.1760  211.4720  140.6210 C   0  0  0  0  0  2  0  0  0  0  0  0
  163.3540  211.3240  139.8890 O   0  0  0  0  0  1  0  0  0  0  0  0
  160.9510  207.0810  146.0540 C   0  0  0  0  0  2  0  0  0  0  0  0
  161.9630  207.5110  147.1030 C   0  0  0  0  0  2  0  0  0  0  0  0
  161.3350  208.2910  148.1140 O   0  0  0  0  0  0  0  0  0  0  0  0
  162.2210  212.0530  149.1890 S   0  0  0  0  0  0  0  0  0  0  0  0
  161.5110  211.8650  147.5190 C   0  0  1  0  0  3  0  0  0  0  0  0
  162.1130  210.2660  149.4880 C   0  0  0  0  0  2  0  0  0  0  0  0
  161.2500  210.4590  147.2900 N   0  0  0  0  0  0  0  0  0  0  0  0
  161.5540  209.6600  148.2510 C   0  0  0  0  0  0  0  0  0  0  0  0
  158.4290  213.6850  146.4600 N   0  0  0  0  0  0  0  0  0  0  0  0
  159.4440  213.2020  148.4640 C   0  0  0  0  0  0  0  0  0  0  0  0
  159.6250  212.9380  146.2510 C   0  0  0  0  0  0  0  0  0  0  0  0
  159.7010  213.0880  149.6900 O   0  0  0  0  0  0  0  0  0  0  0  0
  156.9800  213.2140  148.3550 C   0  0  0  0  0  1  0  0  0  0  0  0
  160.1040  212.5600  144.8970 C   0  0  0  0  0  1  0  0  0  0  0  0
  160.2440  212.6480  147.3830 C   0  0  2  0  0  3  0  0  0  0  0  0
  158.2560  213.8940  147.8930 C   0  0  2  0  0  3  0  0  0  0  0  0
  161.7450  204.9480  146.8150 O   0  0  0  0  0  0  0  0  0  0  0  0
  161.5730  202.6440  146.8280 O   0  0  0  0  0  0  0  0  0  0  0  0
  161.5910  203.7220  147.4780 C   0  0  0  0  0  0  0  0  0  0  0  0
  160.3500  202.7970  149.2730 O   0  0  0  0  0  1  0  0  0  0  0  0
  161.3890  203.6780  148.9620 C   0  0  2  0  0  3  0  0  0  0  0  0
  161.1810  205.0770  149.5570 C   0  0  2  0  0  3  0  0  0  0  0  0
  162.5280  205.7070  149.8330 C   0  0  0  0  0  1  0  0  0  0  0  0
  160.3320  205.1230  150.8280 C   0  0  0  0  0  2  0  0  0  0  0  0
  161.1320  204.8260  152.0930 C   0  0  2  0  0  3  0  0  0  0  0  0
  161.1110  203.3460  152.3990 C   0  0  0  0  0  1  0  0  0  0  0  0
  160.5510  205.6130  153.2480 C   0  0  0  0  0  2  0  0  0  0  0  0
  161.6300  206.4150  153.9580 C   0  0  0  0  0  2  0  0  0  0  0  0
  161.3200  207.8740  153.8930 C   0  0  0  0  0  0  0  0  0  0  0  0
  161.0250  209.8990  152.6020 C   0  0  0  0  0  3  0  0  0  0  0  0
  160.8900  209.9800  155.0240 C   0  0  0  0  0  0  0  0  0  0  0  0
  161.2760  208.5270  152.6560 C   0  0  0  0  0  3  0  0  0  0  0  0
  161.1330  208.6010  155.0770 C   0  0  0  0  0  3  0  0  0  0  0  0
  160.8310  210.6190  153.7820 C   0  0  0  0  0  3  0  0  0  0  0  0
  160.7010  210.7470  156.2160 N   0  0  0  0  0  2  0  0  0  0  0  0
  158.3070  214.2060  154.0000 C   0  0  0  0  0  1  0  0  0  0  0  0
  159.4050  212.5440  157.2490 C   0  0  0  0  0  2  0  0  0  0  0  0
  156.9410  211.2840  156.1280 C   0  0  0  0  0  2  0  0  0  0  0  0
  157.6900  211.9760  154.9970 C   0  0  1  0  0  0  0  0  0  0  0  0
  158.1170  213.4370  155.2940 C   0  0  1  0  0  0  0  0  0  0  0  0
  158.3150  210.7710  155.7030 C   0  0  1  0  0  3  0  0  0  0  0  0
  159.3940  211.0970  156.7550 C   0  0  1  0  0  3  0  0  0  0  0  0
  159.4310  213.4950  156.0630 C   0  0  0  0  0  2  0  0  0  0  0  0
  157.1380  214.0710  156.0370 F   0  0  0  0  0  0  0  0  0  0  0  0
  157.1210  211.6950  153.7520 O   0  0  0  0  0  1  0  0  0  0  0  0
  1  2  1  6  0  0  0
  1 35  1  0  0  0  0
  3  4  2  0  0  0  0
  4  2  2  0  0  0  0
  5  3  1  0  0  0  0
  6  5  1  0  0  0  0
  7 15  1  6  0  0  0
  7  6  1  0  0  0  0
  8  9  1  0  0  0  0
  9 10  1  6  0  0  0
  9  7  1  0  0  0  0
 11  9  1  0  0  0  0
 12 11  1  0  0  0  0
 12 14  1  0  0  0  0
 13 12  1  0  0  0  0
 15 16  1  0  0  0  0
 17 16  1  0  0  0  0
 18 17  1  0  0  0  0
 19  1  1  0  0  0  0
 19 20  1  0  0  0  0
 20 21  1  0  0  0  0
 21 26  1  0  0  0  0
 22 24  1  0  0  0  0
 23 25  1  1  0  0  0
 23 22  1  0  0  0  0
 25 26  2  0  0  0  0
 26 24  1  0  0  0  0
 27 34  1  0  0  0  0
 28 30  2  0  0  0  0
 29 27  2  0  0  0  0
 32 29  1  0  0  0  0
 33 29  1  1  0  0  0
 33 23  1  0  0  0  0
 33 28  1  0  0  0  0
 34 31  1  1  0  0  0
 34 28  1  0  0  0  0
 35 37  1  0  0  0  0
 36 37  2  0  0  0  0
 37 39  1  0  0  0  0
 39 38  1  6  0  0  0
 39 40  1  0  0  0  0
 40 41  1  1  0  0  0
 40 42  1  0  0  0  0
 42 43  1  0  0  0  0
 43 44  1  1  0  0  0
 43 45  1  0  0  0  0
 45 46  1  0  0  0  0
 47 46  1  0  0  0  0
 47 51  1  0  0  0  0
 48 50  1  0  0  0  0
 48 52  2  0  0  0  0
 49 51  2  0  0  0  0
 49 53  1  0  0  0  0
 50 47  2  0  0  0  0
 52 49  1  0  0  0  0
 57 63  1  6  0  0  0
 57 58  1  0  0  0  0
 57 59  1  0  0  0  0
 57 56  1  0  0  0  0
 58 54  1  6  0  0  0
 58 62  1  0  0  0  0
 58 61  1  0  0  0  0
 59 56  1  1  0  0  0
 59 60  1  0  0  0  0
 60 53  1  6  0  0  0
 60 55  1  0  0  0  0
 61 55  1  0  0  0  0
M  END
>  <MODEL>
1

>  <REMARK>
 VINA RESULT:      -3.4      0.000      0.000
  Name = 
  26 active torsions:
  status: ('A' for Active; 'I' for Inactive)
    1  A    between atoms: C_1  and  C_20
    2  A    between atoms: C_4  and  C_21
    3  A    between atoms: C_4  and  S_22
    4  A    between atoms: C_4  and  C_53
    5  A    between atoms: C_5  and  C_35
    6  A    between atoms: C_6  and  C_16
    7  A    between atoms: C_6  and  C_27
    8  A    between atoms: C_11  and  C_46
    9  A    between atoms: C_12  and  S_22
   10  A    between atoms: C_12  and  C_38
   11  A    between atoms: C_13  and  C_25
   12  A    between atoms: C_13  and  C_27
   13  A    between atoms: C_16  and  C_17
   14  A    between atoms: C_17  and  C_20
   15  A    between atoms: C_21  and  O_32
   16  A    between atoms: N_23  and  C_26
   17  A    between atoms: N_23  and  C_48
   18  A    between atoms: C_25  and  O_37
   19  A    between atoms: O_29  and  C_42
   20  A    between atoms: O_29  and  C_55
   21  A    between atoms: O_32  and  C_33
   22  A    between atoms: C_35  and  O_37
   23  A    between atoms: C_35  and  C_51
   24  A    between atoms: C_42  and  C_51
   25  A    between atoms: C_52  and  O_54
   26  A    between atoms: C_53  and  O_54
                            x       y       z     vdW  Elec       q    Type
                         _______ _______ _______ _____ _____    ______ ____

>  <TORSDO>
F 26

$$$$
=
 OpenBabel11072415203D

 63 67  0  0  1  0  0  0  0  0999 V2000
  161.7240  210.0990  150.4830 C   0  0  2  0  0  3  0  0  0  0  0  0
  162.3110  210.1570  149.1160 C   0  0  0  0  0  3  0  0  0  0  0  0
  162.8760  212.4730  148.0580 C   0  0  0  0  0  3  0  0  0  0  0  0
  162.5950  211.3090  148.5720 C   0  0  0  0  0  0  0  0  0  0  0  0
  161.8480  213.2030  147.2680 C   0  0  0  0  0  2  0  0  0  0  0  0
  160.4500  213.6640  148.3330 S   0  0  0  0  0  0  0  0  0  0  0  0
  159.3700  214.0400  146.9120 C   0  0  2  0  0  3  0  0  0  0  0  0
  157.6650  212.4270  147.3390 O   0  0  0  0  0  1  0  0  0  0  0  0
  157.8830  213.8040  147.2350 C   0  0  2  0  0  0  0  0  0  0  0  0
  157.0660  214.3310  146.0570 C   0  0  0  0  0  1  0  0  0  0  0  0
  157.5790  214.4530  148.4690 O   0  0  0  0  0  0  0  0  0  0  0  0
  157.2080  213.5970  149.5430 C   0  0  0  0  0  3  0  0  0  0  0  0
  155.8130  213.8030  150.1130 C   0  0  0  0  0  1  0  0  0  0  0  0
  158.2770  213.4710  150.6140 C   0  0  0  0  0  1  0  0  0  0  0  0
  159.8380  213.2260  145.7100 C   0  0  0  0  0  2  0  0  0  0  0  0
  159.7880  214.0050  144.5520 O   0  0  0  0  0  0  0  0  0  0  0  0
  160.6490  213.3680  143.6640 C   0  0  0  0  0  2  0  0  0  0  0  0
  161.2470  214.3130  142.8290 O   0  0  0  0  0  1  0  0  0  0  0  0
  162.8300  210.0890  151.5220 C   0  0  0  0  0  2  0  0  0  0  0  0
  162.2610  210.2800  152.9190 C   0  0  0  0  0  2  0  0  0  0  0  0
  161.1630  211.1840  152.8920 O   0  0  0  0  0  0  0  0  0  0  0  0
  160.1210  212.3920  156.5740 S   0  0  0  0  0  0  0  0  0  0  0  0
  159.2570  213.2290  155.2040 C   0  0  1  0  0  3  0  0  0  0  0  0
  161.0590  211.3580  155.4130 C   0  0  0  0  0  2  0  0  0  0  0  0
  159.7430  212.6820  153.9550 N   0  0  0  0  0  0  0  0  0  0  0  0
  160.6410  211.7660  154.0460 C   0  0  0  0  0  0  0  0  0  0  0  0
  155.7320  212.3320  156.0400 N   0  0  0  0  0  2  0  0  0  0  0  0
  156.7610  213.6480  154.4630 C   0  0  0  0  0  0  0  0  0  0  0  0
  157.1470  212.2970  156.2020 C   0  0  0  0  0  0  0  0  0  0  0  0
  156.9850  214.4520  153.5210 O   0  0  0  0  0  0  0  0  0  0  0  0
  154.6020  214.3870  155.3970 C   0  0  0  0  0  1  0  0  0  0  0  0
  157.8100  211.4930  157.2600 C   0  0  0  0  0  1  0  0  0  0  0  0
  157.7770  213.0360  155.3040 C   0  0  0  0  0  0  0  0  0  0  0  0
  155.4150  213.2010  154.9120 C   0  0  2  0  0  3  0  0  0  0  0  0
  160.9270  208.9280  150.6310 O   0  0  0  0  0  0  0  0  0  0  0  0
  162.5320  207.2830  150.8700 O   0  0  0  0  0  0  0  0  0  0  0  0
  161.4250  207.7620  151.2310 C   0  0  0  0  0  0  0  0  0  0  0  0
  160.6170  207.7680  153.4590 O   0  0  0  0  0  1  0  0  0  0  0  0
  160.6240  207.0370  152.2690 C   0  0  2  0  0  3  0  0  0  0  0  0
  161.1030  205.5920  152.4610 C   0  0  2  0  0  3  0  0  0  0  0  0
  162.5530  205.6000  152.8900 C   0  0  0  0  0  1  0  0  0  0  0  0
  160.9430  204.6860  151.2390 C   0  0  0  0  0  2  0  0  0  0  0  0
  161.3120  203.2320  151.5210 C   0  0  2  0  0  3  0  0  0  0  0  0
  162.5600  203.1560  152.3690 C   0  0  0  0  0  1  0  0  0  0  0  0
  161.5210  202.5080  150.2070 C   0  0  0  0  0  2  0  0  0  0  0  0
  160.1890  202.1930  149.5430 C   0  0  0  0  0  2  0  0  0  0  0  0
  160.4030  201.7750  148.1260 C   0  0  0  0  0  0  0  0  0  0  0  0
  160.9560  200.0650  146.5060 C   0  0  0  0  0  3  0  0  0  0  0  0
  160.5930  202.3510  145.7740 C   0  0  0  0  0  0  0  0  0  0  0  0
  160.7190  200.4440  147.8270 C   0  0  0  0  0  3  0  0  0  0  0  0
  160.3460  202.7290  147.1000 C   0  0  0  0  0  3  0  0  0  0  0  0
  160.8910  201.0150  145.4850 C   0  0  0  0  0  3  0  0  0  0  0  0
  160.5480  203.3030  144.7090 N   0  0  0  0  0  2  0  0  0  0  0  0
  160.3040  206.3950  148.3130 C   0  0  0  0  0  1  0  0  0  0  0  0
  160.5590  205.7450  144.5660 C   0  0  0  0  0  2  0  0  0  0  0  0
  163.2360  205.7160  145.8890 C   0  0  0  0  0  2  0  0  0  0  0  0
  162.1730  205.4150  146.9380 C   0  0  1  0  0  0  0  0  0  0  0  0
  160.9720  206.3960  146.9500 C   0  0  1  0  0  0  0  0  0  0  0  0
  162.4220  204.4270  145.7960 C   0  0  1  0  0  3  0  0  0  0  0  0
  161.4100  204.4760  144.6340 C   0  0  1  0  0  3  0  0  0  0  0  0
  159.9180  206.0110  145.9190 C   0  0  0  0  0  2  0  0  0  0  0  0
  161.4100  207.6790  146.6810 F   0  0  0  0  0  0  0  0  0  0  0  0
  162.7420  205.0520  148.1610 O   0  0  0  0  0  1  0  0  0  0  0  0
  1  2  1  6  0  0  0
  1 35  1  0  0  0  0
  1 19  1  0  0  0  0
  3  4  2  0  0  0  0
  4  2  2  0  0  0  0
  5  3  1  0  0  0  0
  5  6  1  0  0  0  0
  7 15  1  6  0  0  0
  7  9  1  0  0  0  0
  7  6  1  0  0  0  0
  9 10  1  6  0  0  0
  9  8  1  0  0  0  0
  9 11  1  0  0  0  0
 11 12  1  0  0  0  0
 12 13  1  0  0  0  0
 12 14  1  0  0  0  0
 16 15  1  0  0  0  0
 17 16  1  0  0  0  0
 18 17  1  0  0  0  0
 19 20  1  0  0  0  0
 21 20  1  0  0  0  0
 21 26  1  0  0  0  0
 23 33  1  1  0  0  0
 23 22  1  0  0  0  0
 24 22  1  0  0  0  0
 25 26  2  0  0  0  0
 25 23  1  0  0  0  0
 26 24  1  0  0  0  0
 27 29  1  0  0  0  0
 28 34  1  0  0  0  0
 28 33  1  0  0  0  0
 29 32  1  0  0  0  0
 30 28  2  0  0  0  0
 33 29  2  0  0  0  0
 34 31  1  1  0  0  0
 34 27  1  0  0  0  0
 35 37  1  0  0  0  0
 36 37  2  0  0  0  0
 37 39  1  0  0  0  0
 39 40  1  0  0  0  0
 39 38  1  1  0  0  0
 40 41  1  6  0  0  0
 42 43  1  0  0  0  0
 42 40  1  0  0  0  0
 43 44  1  1  0  0  0
 45 43  1  0  0  0  0
 46 45  1  0  0  0  0
 47 46  1  0  0  0  0
 48 50  2  0  0  0  0
 49 51  1  0  0  0  0
 50 47  1  0  0  0  0
 51 47  2  0  0  0  0
 52 49  2  0  0  0  0
 52 48  1  0  0  0  0
 53 49  1  0  0  0  0
 55 60  1  0  0  0  0
 55 61  1  0  0  0  0
 56 57  1  0  0  0  0
 57 58  1  0  0  0  0
 57 63  1  1  0  0  0
 58 54  1  1  0  0  0
 59 56  1  6  0  0  0
 59 57  1  0  0  0  0
 60 53  1  1  0  0  0
 60 59  1  0  0  0  0
 61 58  1  0  0  0  0
 62 58  1  0  0  0  0
M  END
>  <MODEL>
2

>  <REMARK>
 VINA RESULT:      -3.2      3.968      9.167
  Name = 
  26 active torsions:
  status: ('A' for Active; 'I' for Inactive)
    1  A    between atoms: C_1  and  C_20
    2  A    between atoms: C_4  and  C_21
    3  A    between atoms: C_4  and  S_22
    4  A    between atoms: C_4  and  C_53
    5  A    between atoms: C_5  and  C_35
    6  A    between atoms: C_6  and  C_16
    7  A    between atoms: C_6  and  C_27
    8  A    between atoms: C_11  and  C_46
    9  A    between atoms: C_12  and  S_22
   10  A    between atoms: C_12  and  C_38
   11  A    between atoms: C_13  and  C_25
   12  A    between atoms: C_13  and  C_27
   13  A    between atoms: C_16  and  C_17
   14  A    between atoms: C_17  and  C_20
   15  A    between atoms: C_21  and  O_32
   16  A    between atoms: N_23  and  C_26
   17  A    between atoms: N_23  and  C_48
   18  A    between atoms: C_25  and  O_37
   19  A    between atoms: O_29  and  C_42
   20  A    between atoms: O_29  and  C_55
   21  A    between atoms: O_32  and  C_33
   22  A    between atoms: C_35  and  O_37
   23  A    between atoms: C_35  and  C_51
   24  A    between atoms: C_42  and  C_51
   25  A    between atoms: C_52  and  O_54
   26  A    between atoms: C_53  and  O_54
                            x       y       z     vdW  Elec       q    Type
                         _______ _______ _______ _____ _____    ______ ____

>  <TORSDO>
F 26

$$$$
=
 OpenBabel11072415203D

 63 67  0  0  1  0  0  0  0  0999 V2000
  160.7800  212.0330  149.6160 C   0  0  2  0  0  3  0  0  0  0  0  0
  161.3580  211.5040  148.3500 C   0  0  0  0  0  3  0  0  0  0  0  0
  161.7810  213.1280  146.3540 C   0  0  0  0  0  3  0  0  0  0  0  0
  161.5720  212.3040  147.3410 C   0  0  0  0  0  0  0  0  0  0  0  0
  160.7100  213.3730  145.3510 C   0  0  0  0  0  2  0  0  0  0  0  0
  161.4160  214.1010  143.8450 S   0  0  0  0  0  0  0  0  0  0  0  0
  161.1530  212.5800  142.8730 C   0  0  2  0  0  3  0  0  0  0  0  0
  162.9700  211.8690  141.5010 O   0  0  0  0  0  1  0  0  0  0  0  0
  161.8150  212.6560  141.4840 C   0  0  2  0  0  0  0  0  0  0  0  0
  162.2290  214.1080  141.2510 C   0  0  0  0  0  1  0  0  0  0  0  0
  160.8910  212.1680  140.5140 O   0  0  0  0  0  0  0  0  0  0  0  0
  161.1460  212.5520  139.1680 C   0  0  0  0  0  3  0  0  0  0  0  0
  159.9230  212.7890  138.2950 C   0  0  0  0  0  1  0  0  0  0  0  0
  162.2100  211.7080  138.4890 C   0  0  0  0  0  1  0  0  0  0  0  0
  159.6550  212.3060  142.7870 C   0  0  0  0  0  2  0  0  0  0  0  0
  158.9570  213.5010  142.6040 O   0  0  0  0  0  0  0  0  0  0  0  0
  158.1760  213.2820  141.4730 C   0  0  0  0  0  2  0  0  0  0  0  0
  158.1090  214.4500  140.7140 O   0  0  0  0  0  1  0  0  0  0  0  0
  160.5500  213.5280  149.4960 C   0  0  0  0  0  2  0  0  0  0  0  0
  159.0770  213.8630  149.6640 C   0  0  0  0  0  2  0  0  0  0  0  0
  158.4160  212.8520  150.4150 O   0  0  0  0  0  0  0  0  0  0  0  0
  155.8710  214.3450  153.1330 S   0  0  0  0  0  0  0  0  0  0  0  0
  156.4840  212.6630  153.4800 C   0  0  1  0  0  3  0  0  0  0  0  0
  156.8530  214.4420  151.6100 C   0  0  0  0  0  2  0  0  0  0  0  0
  157.3840  212.2780  152.4130 N   0  0  0  0  0  0  0  0  0  0  0  0
  157.5650  213.1430  151.4790 C   0  0  0  0  0  0  0  0  0  0  0  0
  157.8030  211.9820  156.9040 N   0  0  0  0  0  2  0  0  0  0  0  0
  158.3350  213.4250  155.1970 C   0  0  0  0  0  0  0  0  0  0  0  0
  156.9300  211.7920  155.7940 C   0  0  0  0  0  0  0  0  0  0  0  0
  158.8970  214.2940  154.4820 O   0  0  0  0  0  0  0  0  0  0  0  0
  160.1580  212.4840  156.5650 C   0  0  0  0  0  1  0  0  0  0  0  0
  155.8360  210.7870  155.8020 C   0  0  0  0  0  1  0  0  0  0  0  0
  157.1980  212.6120  154.7930 C   0  0  0  0  0  0  0  0  0  0  0  0
  158.7470  213.0440  156.5750 C   0  0  2  0  0  3  0  0  0  0  0  0
  161.6590  211.7770  150.7070 O   0  0  0  0  0  0  0  0  0  0  0  0
  160.5940  212.5020  152.6250 O   0  0  0  0  0  0  0  0  0  0  0  0
  161.1840  211.5740  152.0110 C   0  0  0  0  0  0  0  0  0  0  0  0
  162.7320  210.2200  153.1890 O   0  0  0  0  0  1  0  0  0  0  0  0
  161.4200  210.2730  152.7150 C   0  0  2  0  0  3  0  0  0  0  0  0
  161.0560  209.0680  151.8360 C   0  0  2  0  0  3  0  0  0  0  0  0
  160.9190  207.8390  152.7060 C   0  0  0  0  0  1  0  0  0  0  0  0
  162.0350  208.7750  150.6980 C   0  0  0  0  0  2  0  0  0  0  0  0
  161.6120  207.5900  149.8350 C   0  0  2  0  0  3  0  0  0  0  0  0
  160.3400  206.9720  150.3690 C   0  0  0  0  0  1  0  0  0  0  0  0
  162.7280  206.5660  149.8130 C   0  0  0  0  0  2  0  0  0  0  0  0
  162.5860  205.5820  150.9630 C   0  0  0  0  0  2  0  0  0  0  0  0
  161.6880  204.4540  150.5730 C   0  0  0  0  0  0  0  0  0  0  0  0
  160.0950  202.7370  151.1780 C   0  0  0  0  0  3  0  0  0  0  0  0
  160.8730  202.9080  148.8860 C   0  0  0  0  0  0  0  0  0  0  0  0
  160.9020  203.8160  151.5390 C   0  0  0  0  0  3  0  0  0  0  0  0
  161.6770  203.9960  149.2470 C   0  0  0  0  0  3  0  0  0  0  0  0
  160.0800  202.2880  149.8570 C   0  0  0  0  0  3  0  0  0  0  0  0
  160.8480  202.4160  147.5440 N   0  0  0  0  0  2  0  0  0  0  0  0
  159.8130  206.3680  145.1100 C   0  0  0  0  0  1  0  0  0  0  0  0
  161.1190  202.7870  145.1420 C   0  0  0  0  0  2  0  0  0  0  0  0
  163.2630  204.7630  145.7840 C   0  0  0  0  0  2  0  0  0  0  0  0
  161.9130  205.3920  146.1020 C   0  0  1  0  0  0  0  0  0  0  0  0
  160.8560  205.2730  144.9740 C   0  0  1  0  0  0  0  0  0  0  0  0
  162.4040  204.1860  146.9070 C   0  0  1  0  0  3  0  0  0  0  0  0
  161.7940  202.8260  146.5140 C   0  0  1  0  0  3  0  0  0  0  0  0
  160.1290  203.9350  145.0200 C   0  0  0  0  0  2  0  0  0  0  0  0
  161.4670  205.4050  143.7410 F   0  0  0  0  0  0  0  0  0  0  0  0
  162.0560  206.6230  146.7470 O   0  0  0  0  0  1  0  0  0  0  0  0
  1  2  1  6  0  0  0
  1 35  1  0  0  0  0
  3  4  2  0  0  0  0
  4  2  2  0  0  0  0
  5  3  1  0  0  0  0
  6  5  1  0  0  0  0
  7 15  1  6  0  0  0
  7  6  1  0  0  0  0
  9 10  1  6  0  0  0
  9  8  1  0  0  0  0
  9  7  1  0  0  0  0
 11  9  1  0  0  0  0
 12 11  1  0  0  0  0
 13 12  1  0  0  0  0
 14 12  1  0  0  0  0
 16 15  1  0  0  0  0
 17 16  1  0  0  0  0
 18 17  1  0  0  0  0
 19  1  1  0  0  0  0
 19 20  1  0  0  0  0
 20 21  1  0  0  0  0
 21 26  1  0  0  0  0
 22 23  1  0  0  0  0
 23 33  1  1  0  0  0
 24 22  1  0  0  0  0
 25 23  1  0  0  0  0
 26 24  1  0  0  0  0
 26 25  2  0  0  0  0
 28 34  1  0  0  0  0
 29 32  1  0  0  0  0
 29 27  1  0  0  0  0
 30 28  2  0  0  0  0
 33 28  1  0  0  0  0
 33 29  2  0  0  0  0
 34 31  1  6  0  0  0
 34 27  1  0  0  0  0
 35 37  1  0  0  0  0
 37 36  2  0  0  0  0
 37 39  1  0  0  0  0
 39 38  1  6  0  0  0
 40 41  1  1  0  0  0
 40 39  1  0  0  0  0
 42 40  1  0  0  0  0
 43 44  1  1  0  0  0
 43 42  1  0  0  0  0
 45 43  1  0  0  0  0
 45 46  1  0  0  0  0
 47 46  1  0  0  0  0
 47 50  1  0  0  0  0
 48 50  2  0  0  0  0
 49 51  1  0  0  0  0
 49 52  2  0  0  0  0
 51 47  2  0  0  0  0
 52 48  1  0  0  0  0
 53 49  1  0  0  0  0
 55 60  1  0  0  0  0
 56 57  1  0  0  0  0
 57 63  1  1  0  0  0
 57 59  1  0  0  0  0
 58 61  1  0  0  0  0
 58 54  1  1  0  0  0
 58 57  1  0  0  0  0
 59 56  1  6  0  0  0
 60 59  1  0  0  0  0
 60 53  1  1  0  0  0
 61 55  1  0  0  0  0
 62 58  1  0  0  0  0
M  END
>  <MODEL>
3

>  <REMARK>
 VINA RESULT:      -3.2      3.397      8.422
  Name = 
  26 active torsions:
  status: ('A' for Active; 'I' for Inactive)
    1  A    between atoms: C_1  and  C_20
    2  A    between atoms: C_4  and  C_21
    3  A    between atoms: C_4  and  S_22
    4  A    between atoms: C_4  and  C_53
    5  A    between atoms: C_5  and  C_35
    6  A    between atoms: C_6  and  C_16
    7  A    between atoms: C_6  and  C_27
    8  A    between atoms: C_11  and  C_46
    9  A    between atoms: C_12  and  S_22
   10  A    between atoms: C_12  and  C_38
   11  A    between atoms: C_13  and  C_25
   12  A    between atoms: C_13  and  C_27
   13  A    between atoms: C_16  and  C_17
   14  A    between atoms: C_17  and  C_20
   15  A    between atoms: C_21  and  O_32
   16  A    between atoms: N_23  and  C_26
   17  A    between atoms: N_23  and  C_48
   18  A    between atoms: C_25  and  O_37
   19  A    between atoms: O_29  and  C_42
   20  A    between atoms: O_29  and  C_55
   21  A    between atoms: O_32  and  C_33
   22  A    between atoms: C_35  and  O_37
   23  A    between atoms: C_35  and  C_51
   24  A    between atoms: C_42  and  C_51
   25  A    between atoms: C_52  and  O_54
   26  A    between atoms: C_53  and  O_54
                            x       y       z     vdW  Elec       q    Type
                         _______ _______ _______ _____ _____    ______ ____

>  <TORSDO>
F 26

$$$$
=
 OpenBabel11072415203D

 63 67  0  0  1  0  0  0  0  0999 V2000
  160.3840  212.1110  151.0150 C   0  0  2  0  0  3  0  0  0  0  0  0
  159.0460  212.5950  151.4510 C   0  0  0  0  0  3  0  0  0  0  0  0
  158.8830  214.4490  153.2780 C   0  0  0  0  0  3  0  0  0  0  0  0
  158.9480  213.5200  152.3670 C   0  0  0  0  0  0  0  0  0  0  0  0
  158.8290  214.0760  154.7170 C   0  0  0  0  0  2  0  0  0  0  0  0
  157.1020  213.9650  155.2710 S   0  0  0  0  0  0  0  0  0  0  0  0
  157.2630  212.2070  155.7290 C   0  0  2  0  0  3  0  0  0  0  0  0
  158.5730  210.8790  157.2150 O   0  0  0  0  0  1  0  0  0  0  0  0
  158.6790  211.8640  156.2290 C   0  0  2  0  0  0  0  0  0  0  0  0
  159.2570  213.1240  156.8710 C   0  0  0  0  0  1  0  0  0  0  0  0
  159.4460  211.3880  155.1250 O   0  0  0  0  0  0  0  0  0  0  0  0
  160.5470  210.5490  155.4530 C   0  0  0  0  0  3  0  0  0  0  0  0
  160.2020  209.1900  156.0420 C   0  0  0  0  0  1  0  0  0  0  0  0
  161.6490  211.2660  156.2130 C   0  0  0  0  0  1  0  0  0  0  0  0
  156.8450  211.3500  154.5390 C   0  0  0  0  0  2  0  0  0  0  0  0
  156.3740  210.1110  154.9800 O   0  0  0  0  0  0  0  0  0  0  0  0
  154.9880  210.2220  154.9210 C   0  0  0  0  0  2  0  0  0  0  0  0
  154.4270  209.7430  156.1050 O   0  0  0  0  0  1  0  0  0  0  0  0
  160.5900  212.4130  149.5420 C   0  0  0  0  0  2  0  0  0  0  0  0
  161.9380  211.8950  149.0680 C   0  0  0  0  0  2  0  0  0  0  0  0
  161.9100  211.6340  147.6700 O   0  0  0  0  0  0  0  0  0  0  0  0
  159.4850  213.8270  145.3450 S   0  0  0  0  0  0  0  0  0  0  0  0
  161.2700  214.0510  145.0420 C   0  0  1  0  0  3  0  0  0  0  0  0
  159.8110  212.6040  146.6470 C   0  0  0  0  0  2  0  0  0  0  0  0
  161.9980  213.1950  145.9550 N   0  0  0  0  0  0  0  0  0  0  0  0
  161.2890  212.4850  146.7590 C   0  0  0  0  0  0  0  0  0  0  0  0
  161.4180  213.1410  141.4250 N   0  0  0  0  0  0  0  0  0  0  0  0
  162.9530  213.6810  143.0470 C   0  0  0  0  0  0  0  0  0  0  0  0
  160.7680  213.4020  142.6660 C   0  0  0  0  0  0  0  0  0  0  0  0
  164.0190  213.9600  143.6560 O   0  0  0  0  0  0  0  0  0  0  0  0
  163.3550  214.4400  140.7350 C   0  0  0  0  0  1  0  0  0  0  0  0
  159.2950  213.3120  142.8300 C   0  0  0  0  0  1  0  0  0  0  0  0
  161.6210  213.7070  143.6290 C   0  0  2  0  0  3  0  0  0  0  0  0
  162.8560  213.3050  141.6110 C   0  0  2  0  0  3  0  0  0  0  0  0
  160.4970  210.7070  151.2290 O   0  0  0  0  0  0  0  0  0  0  0  0
  162.2860  210.8540  152.6850 O   0  0  0  0  0  0  0  0  0  0  0  0
  161.5830  210.1460  151.9160 C   0  0  0  0  0  0  0  0  0  0  0  0
  162.3500  208.5120  150.3810 O   0  0  0  0  0  1  0  0  0  0  0  0
  161.9590  208.7110  151.7060 C   0  0  2  0  0  3  0  0  0  0  0  0
  160.8440  207.7530  152.1480 C   0  0  2  0  0  3  0  0  0  0  0  0
  160.9410  207.5280  153.6400 C   0  0  0  0  0  1  0  0  0  0  0  0
  160.8280  206.4010  151.4330 C   0  0  0  0  0  2  0  0  0  0  0  0
  161.1790  205.2340  152.3520 C   0  0  2  0  0  3  0  0  0  0  0  0
  162.3180  205.6080  153.2720 C   0  0  0  0  0  1  0  0  0  0  0  0
  161.5510  204.0310  151.5110 C   0  0  0  0  0  2  0  0  0  0  0  0
  160.3170  203.2220  151.1450 C   0  0  0  0  0  2  0  0  0  0  0  0
  160.4510  202.6670  149.7650 C   0  0  0  0  0  0  0  0  0  0  0  0
  159.7950  201.0620  148.0780 C   0  0  0  0  0  3  0  0  0  0  0  0
  161.5950  202.6250  147.6230 C   0  0  0  0  0  0  0  0  0  0  0  0
  159.6390  201.6040  149.3550 C   0  0  0  0  0  3  0  0  0  0  0  0
  161.4330  203.1740  148.9010 C   0  0  0  0  0  3  0  0  0  0  0  0
  160.7670  201.5730  147.2170 C   0  0  0  0  0  3  0  0  0  0  0  0
  162.5910  203.1170  146.7240 N   0  0  0  0  0  2  0  0  0  0  0  0
  158.8560  205.6800  145.2800 C   0  0  0  0  0  1  0  0  0  0  0  0
  162.5630  204.8420  144.9900 C   0  0  0  0  0  2  0  0  0  0  0  0
  162.0370  206.8540  147.1330 C   0  0  0  0  0  2  0  0  0  0  0  0
  160.7590  206.0640  146.8850 C   0  0  1  0  0  0  0  0  0  0  0  0
  160.3470  205.9390  145.3960 C   0  0  1  0  0  0  0  0  0  0  0  0
  161.9910  205.3640  147.4640 C   0  0  1  0  0  3  0  0  0  0  0  0
  162.8200  204.5340  146.4660 C   0  0  1  0  0  3  0  0  0  0  0  0
  161.0700  204.7900  144.7040 C   0  0  0  0  0  2  0  0  0  0  0  0
  160.6370  207.1140  144.7270 F   0  0  0  0  0  0  0  0  0  0  0  0
  159.7690  206.3760  147.8210 O   0  0  0  0  0  1  0  0  0  0  0  0
  1 19  1  6  0  0  0
  1 35  1  0  0  0  0
  1  2  1  0  0  0  0
  2  4  2  0  0  0  0
  3  5  1  0  0  0  0
  4  3  2  0  0  0  0
  5  6  1  0  0  0  0
  6  7  1  0  0  0  0
  7 15  1  6  0  0  0
  7  9  1  0  0  0  0
  9 10  1  1  0  0  0
  9  8  1  0  0  0  0
 11 12  1  0  0  0  0
 11  9  1  0  0  0  0
 12 13  1  0  0  0  0
 12 14  1  0  0  0  0
 15 16  1  0  0  0  0
 17 16  1  0  0  0  0
 17 18  1  0  0  0  0
 20 19  1  0  0  0  0
 21 20  1  0  0  0  0
 22 24  1  0  0  0  0
 23 22  1  6  0  0  0
 23 25  1  0  0  0  0
 24 26  1  0  0  0  0
 25 26  2  0  0  0  0
 26 21  1  0  0  0  0
 27 34  1  0  0  0  0
 27 29  2  0  0  0  0
 28 33  1  0  0  0  0
 28 30  2  0  0  0  0
 29 32  1  0  0  0  0
 33 29  1  6  0  0  0
 33 23  1  0  0  0  0
 34 31  1  6  0  0  0
 34 28  1  0  0  0  0
 35 37  1  0  0  0  0
 37 36  2  0  0  0  0
 39 38  1  6  0  0  0
 39 37  1  0  0  0  0
 39 40  1  0  0  0  0
 40 41  1  1  0  0  0
 42 40  1  0  0  0  0
 42 43  1  0  0  0  0
 43 44  1  1  0  0  0
 45 43  1  0  0  0  0
 46 45  1  0  0  0  0
 47 46  1  0  0  0  0
 48 50  2  0  0  0  0
 49 51  1  0  0  0  0
 50 47  1  0  0  0  0
 51 47  2  0  0  0  0
 52 49  2  0  0  0  0
 52 48  1  0  0  0  0
 53 49  1  0  0  0  0
 55 60  1  0  0  0  0
 57 56  1  0  0  0  0
 57 59  1  0  0  0  0
 57 63  1  1  0  0  0
 58 54  1  6  0  0  0
 58 57  1  0  0  0  0
 59 56  1  6  0  0  0
 60 53  1  6  0  0  0
 60 59  1  0  0  0  0
 61 55  1  0  0  0  0
 61 58  1  0  0  0  0
 62 58  1  0  0  0  0
M  END
>  <MODEL>
4

>  <REMARK>
 VINA RESULT:      -2.5      4.018     11.163
  Name = 
  26 active torsions:
  status: ('A' for Active; 'I' for Inactive)
    1  A    between atoms: C_1  and  C_20
    2  A    between atoms: C_4  and  C_21
    3  A    between atoms: C_4  and  S_22
    4  A    between atoms: C_4  and  C_53
    5  A    between atoms: C_5  and  C_35
    6  A    between atoms: C_6  and  C_16
    7  A    between atoms: C_6  and  C_27
    8  A    between atoms: C_11  and  C_46
    9  A    between atoms: C_12  and  S_22
   10  A    between atoms: C_12  and  C_38
   11  A    between atoms: C_13  and  C_25
   12  A    between atoms: C_13  and  C_27
   13  A    between atoms: C_16  and  C_17
   14  A    between atoms: C_17  and  C_20
   15  A    between atoms: C_21  and  O_32
   16  A    between atoms: N_23  and  C_26
   17  A    between atoms: N_23  and  C_48
   18  A    between atoms: C_25  and  O_37
   19  A    between atoms: O_29  and  C_42
   20  A    between atoms: O_29  and  C_55
   21  A    between atoms: O_32  and  C_33
   22  A    between atoms: C_35  and  O_37
   23  A    between atoms: C_35  and  C_51
   24  A    between atoms: C_42  and  C_51
   25  A    between atoms: C_52  and  O_54
   26  A    between atoms: C_53  and  O_54
                            x       y       z     vdW  Elec       q    Type
                         _______ _______ _______ _____ _____    ______ ____

>  <TORSDO>
F 26

$$$$
=
 OpenBabel11072415203D

 63 67  0  0  1  0  0  0  0  0999 V2000
  162.5810  209.5380  150.3090 C   0  0  2  0  0  3  0  0  0  0  0  0
  162.6510  208.0520  150.2480 C   0  0  0  0  0  3  0  0  0  0  0  0
  162.7420  206.8640  147.9280 C   0  0  0  0  0  3  0  0  0  0  0  0
  162.6930  207.4430  149.0950 C   0  0  0  0  0  0  0  0  0  0  0  0
  161.4810  206.4840  147.2350 C   0  0  0  0  0  2  0  0  0  0  0  0
  160.1760  206.1440  148.4520 S   0  0  0  0  0  0  0  0  0  0  0  0
  161.0700  204.7170  149.1530 C   0  0  2  0  0  3  0  0  0  0  0  0
  160.9800  203.8110  146.9490 O   0  0  0  0  0  1  0  0  0  0  0  0
  160.9000  203.4480  148.2960 C   0  0  2  0  0  0  0  0  0  0  0  0
  159.5000  202.8980  148.5620 C   0  0  0  0  0  1  0  0  0  0  0  0
  161.9410  202.5330  148.6310 O   0  0  0  0  0  0  0  0  0  0  0  0
  161.5300  201.3490  149.3060 C   0  0  0  0  0  3  0  0  0  0  0  0
  161.8770  201.2660  150.7850 C   0  0  0  0  0  1  0  0  0  0  0  0
  161.8530  200.0750  148.5460 C   0  0  0  0  0  1  0  0  0  0  0  0
  160.6120  204.5100  150.5930 C   0  0  0  0  0  2  0  0  0  0  0  0
  161.0330  205.5770  151.3890 O   0  0  0  0  0  0  0  0  0  0  0  0
  161.3420  204.9980  152.6160 C   0  0  0  0  0  2  0  0  0  0  0  0
  160.5180  205.5300  153.6080 O   0  0  0  0  0  1  0  0  0  0  0  0
  162.6190  209.9990  151.7540 C   0  0  0  0  0  2  0  0  0  0  0  0
  162.3160  208.8470  152.6980 C   0  0  0  0  0  2  0  0  0  0  0  0
  161.0870  209.0670  153.3790 O   0  0  0  0  0  0  0  0  0  0  0  0
  160.6630  211.8820  156.2060 S   0  0  0  0  0  0  0  0  0  0  0  0
  160.1840  212.3890  154.5210 C   0  0  1  0  0  3  0  0  0  0  0  0
  161.0970  210.2150  155.6320 C   0  0  0  0  0  2  0  0  0  0  0  0
  160.3950  211.2680  153.6300 N   0  0  0  0  0  0  0  0  0  0  0  0
  160.8560  210.1940  154.1650 C   0  0  0  0  0  0  0  0  0  0  0  0
  156.8150  213.8360  153.8180 N   0  0  0  0  0  0  0  0  0  0  0  0
  157.6820  212.3640  155.3540 C   0  0  0  0  0  0  0  0  0  0  0  0
  158.2120  213.6490  153.6040 C   0  0  0  0  0  0  0  0  0  0  0  0
  157.8110  211.5290  156.2870 O   0  0  0  0  0  0  0  0  0  0  0  0
  155.4000  211.9810  154.5020 C   0  0  0  0  0  1  0  0  0  0  0  0
  158.9540  214.3460  152.5220 C   0  0  0  0  0  1  0  0  0  0  0  0
  158.7500  212.8140  154.4760 C   0  0  2  0  0  3  0  0  0  0  0  0
  156.4070  213.0210  154.9570 C   0  0  2  0  0  3  0  0  0  0  0  0
  161.3820  210.0030  149.6970 O   0  0  0  0  0  0  0  0  0  0  0  0
  161.8400  210.7440  147.5570 O   0  0  0  0  0  0  0  0  0  0  0  0
  161.3910  210.9950  148.7060 C   0  0  0  0  0  0  0  0  0  0  0  0
  159.5650  212.3620  149.3510 O   0  0  0  0  0  1  0  0  0  0  0  0
  160.9200  212.3840  149.0130 C   0  0  2  0  0  3  0  0  0  0  0  0
  161.2330  213.3640  147.8740 C   0  0  2  0  0  3  0  0  0  0  0  0
  160.1690  214.4380  147.8340 C   0  0  0  0  0  1  0  0  0  0  0  0
  161.3650  212.7300  146.4890 C   0  0  0  0  0  2  0  0  0  0  0  0
  162.4040  213.4210  145.6110 C   0  0  2  0  0  3  0  0  0  0  0  0
  163.1800  214.4420  146.4110 C   0  0  0  0  0  1  0  0  0  0  0  0
  161.7070  214.0850  144.4420 C   0  0  0  0  0  2  0  0  0  0  0  0
  160.9990  213.0550  143.5760 C   0  0  0  0  0  2  0  0  0  0  0  0
  161.6440  212.9760  142.2310 C   0  0  0  0  0  0  0  0  0  0  0  0
  163.2500  213.8090  140.6250 C   0  0  0  0  0  3  0  0  0  0  0  0
  161.7410  212.0120  140.0040 C   0  0  0  0  0  0  0  0  0  0  0  0
  162.6770  213.8590  141.8970 C   0  0  0  0  0  3  0  0  0  0  0  0
  161.1720  212.0570  141.2830 C   0  0  0  0  0  3  0  0  0  0  0  0
  162.7840  212.8870  139.6860 C   0  0  0  0  0  3  0  0  0  0  0  0
  161.2760  211.0900  139.0160 N   0  0  0  0  0  2  0  0  0  0  0  0
  156.8780  209.3030  139.2850 C   0  0  0  0  0  1  0  0  0  0  0  0
  159.9310  210.1900  137.1830 C   0  0  0  0  0  2  0  0  0  0  0  0
  158.0910  212.5170  137.5160 C   0  0  0  0  0  2  0  0  0  0  0  0
  157.8510  211.5410  138.6600 C   0  0  1  0  0  0  0  0  0  0  0  0
  157.6580  210.0640  138.2280 C   0  0  1  0  0  0  0  0  0  0  0  0
  159.1920  212.2690  138.5440 C   0  0  1  0  0  3  0  0  0  0  0  0
  160.3510  211.4460  137.9480 C   0  0  1  0  0  3  0  0  0  0  0  0
  158.9920  209.3530  138.0370 C   0  0  0  0  0  2  0  0  0  0  0  0
  156.9500  210.0090  137.0420 F   0  0  0  0  0  0  0  0  0  0  0  0
  156.9790  212.0690  139.6150 O   0  0  0  0  0  1  0  0  0  0  0  0
  1  2  1  1  0  0  0
  1 19  1  0  0  0  0
  3  4  2  0  0  0  0
  4  2  2  0  0  0  0
  5  3  1  0  0  0  0
  5  6  1  0  0  0  0
  6  7  1  0  0  0  0
  7 15  1  1  0  0  0
  8  9  1  0  0  0  0
  9 10  1  1  0  0  0
  9 11  1  0  0  0  0
  9  7  1  0  0  0  0
 11 12  1  0  0  0  0
 12 13  1  0  0  0  0
 14 12  1  0  0  0  0
 15 16  1  0  0  0  0
 16 17  1  0  0  0  0
 17 18  1  0  0  0  0
 19 20  1  0  0  0  0
 20 21  1  0  0  0  0
 21 26  1  0  0  0  0
 23 25  1  6  0  0  0
 23 22  1  0  0  0  0
 24 22  1  0  0  0  0
 25 26  2  0  0  0  0
 26 24  1  0  0  0  0
 27 34  1  0  0  0  0
 28 30  2  0  0  0  0
 29 27  2  0  0  0  0
 32 29  1  0  0  0  0
 33 29  1  6  0  0  0
 33 23  1  0  0  0  0
 33 28  1  0  0  0  0
 34 31  1  6  0  0  0
 34 28  1  0  0  0  0
 35  1  1  0  0  0  0
 36 37  2  0  0  0  0
 37 39  1  0  0  0  0
 37 35  1  0  0  0  0
 39 38  1  6  0  0  0
 40 41  1  6  0  0  0
 40 39  1  0  0  0  0
 42 40  1  0  0  0  0
 43 44  1  1  0  0  0
 43 42  1  0  0  0  0
 45 43  1  0  0  0  0
 46 45  1  0  0  0  0
 47 46  1  0  0  0  0
 48 50  2  0  0  0  0
 49 51  1  0  0  0  0
 50 47  1  0  0  0  0
 51 47  2  0  0  0  0
 52 49  2  0  0  0  0
 52 48  1  0  0  0  0
 53 49  1  0  0  0  0
 55 60  1  0  0  0  0
 55 61  1  0  0  0  0
 56 57  1  0  0  0  0
 57 63  1  1  0  0  0
 58 57  1  0  0  0  0
 58 54  1  1  0  0  0
 59 56  1  6  0  0  0
 59 57  1  0  0  0  0
 60 59  1  0  0  0  0
 60 53  1  1  0  0  0
 61 58  1  0  0  0  0
 62 58  1  0  0  0  0
M  END
>  <MODEL>
5

>  <REMARK>
 VINA RESULT:      -1.4      3.858     11.767
  Name = 
  26 active torsions:
  status: ('A' for Active; 'I' for Inactive)
    1  A    between atoms: C_1  and  C_20
    2  A    between atoms: C_4  and  C_21
    3  A    between atoms: C_4  and  S_22
    4  A    between atoms: C_4  and  C_53
    5  A    between atoms: C_5  and  C_35
    6  A    between atoms: C_6  and  C_16
    7  A    between atoms: C_6  and  C_27
    8  A    between atoms: C_11  and  C_46
    9  A    between atoms: C_12  and  S_22
   10  A    between atoms: C_12  and  C_38
   11  A    between atoms: C_13  and  C_25
   12  A    between atoms: C_13  and  C_27
   13  A    between atoms: C_16  and  C_17
   14  A    between atoms: C_17  and  C_20
   15  A    between atoms: C_21  and  O_32
   16  A    between atoms: N_23  and  C_26
   17  A    between atoms: N_23  and  C_48
   18  A    between atoms: C_25  and  O_37
   19  A    between atoms: O_29  and  C_42
   20  A    between atoms: O_29  and  C_55
   21  A    between atoms: O_32  and  C_33
   22  A    between atoms: C_35  and  O_37
   23  A    between atoms: C_35  and  C_51
   24  A    between atoms: C_42  and  C_51
   25  A    between atoms: C_52  and  O_54
   26  A    between atoms: C_53  and  O_54
                            x       y       z     vdW  Elec       q    Type
                         _______ _______ _______ _____ _____    ______ ____

>  <TORSDO>
F 26

$$$$
=
 OpenBabel11072415203D

 63 67  0  0  1  0  0  0  0  0999 V2000
  160.2500  212.3020  151.0450 C   0  0  2  0  0  3  0  0  0  0  0  0
  159.0680  212.8670  151.7520 C   0  0  0  0  0  3  0  0  0  0  0  0
  159.4210  214.2970  153.9050 C   0  0  0  0  0  3  0  0  0  0  0  0
  159.2280  213.5810  152.8330 C   0  0  0  0  0  0  0  0  0  0  0  0
  159.4640  213.6380  155.2390 C   0  0  0  0  0  2  0  0  0  0  0  0
  158.3050  214.4510  156.3760 S   0  0  0  0  0  0  0  0  0  0  0  0
  157.3770  212.9100  156.6830 C   0  0  2  0  0  3  0  0  0  0  0  0
  157.9950  211.7630  154.6850 O   0  0  0  0  0  1  0  0  0  0  0  0
  158.0800  211.6810  156.0780 C   0  0  2  0  0  0  0  0  0  0  0  0
  157.3100  210.4420  156.5320 C   0  0  0  0  0  1  0  0  0  0  0  0
  159.4430  211.6860  156.4980 O   0  0  0  0  0  0  0  0  0  0  0  0
  160.2010  210.5320  156.1530 C   0  0  0  0  0  3  0  0  0  0  0  0
  160.3680  209.4880  157.2470 C   0  0  0  0  0  1  0  0  0  0  0  0
  161.4990  210.8530  155.4330 C   0  0  0  0  0  1  0  0  0  0  0  0
  155.9550  213.0820  156.1600 C   0  0  0  0  0  2  0  0  0  0  0  0
  155.8320  214.3000  155.4880 O   0  0  0  0  0  0  0  0  0  0  0  0
  154.8450  214.0750  154.5330 C   0  0  0  0  0  2  0  0  0  0  0  0
  155.3330  213.2210  153.5440 O   0  0  0  0  0  1  0  0  0  0  0  0
  160.0520  212.4010  149.5450 C   0  0  0  0  0  2  0  0  0  0  0  0
  161.3660  212.7120  148.8460 C   0  0  0  0  0  2  0  0  0  0  0  0
  161.3970  212.1200  147.5530 O   0  0  0  0  0  0  0  0  0  0  0  0
  158.9160  213.4490  144.6940 S   0  0  0  0  0  0  0  0  0  0  0  0
  160.6750  213.8680  144.4580 C   0  0  1  0  0  3  0  0  0  0  0  0
  159.2850  212.5590  146.2330 C   0  0  0  0  0  2  0  0  0  0  0  0
  161.4280  213.3190  145.5660 N   0  0  0  0  0  0  0  0  0  0  0  0
  160.7510  212.6810  146.4540 C   0  0  0  0  0  0  0  0  0  0  0  0
  162.6220  212.5920  141.5400 N   0  0  0  0  0  0  0  0  0  0  0  0
  160.3940  212.8100  142.0590 C   0  0  0  0  0  0  0  0  0  0  0  0
  162.4600  213.1640  142.8350 C   0  0  0  0  0  0  0  0  0  0  0  0
  159.1370  212.7540  142.0330 O   0  0  0  0  0  0  0  0  0  0  0  0
  161.1210  210.8490  140.7510 C   0  0  0  0  0  1  0  0  0  0  0  0
  163.6140  213.5550  143.6850 C   0  0  0  0  0  1  0  0  0  0  0  0
  161.1890  213.3150  143.1670 C   0  0  2  0  0  3  0  0  0  0  0  0
  161.3000  212.3400  140.9760 C   0  0  2  0  0  3  0  0  0  0  0  0
  160.4380  210.9370  151.4070 O   0  0  0  0  0  0  0  0  0  0  0  0
  162.5190  211.2300  152.3680 O   0  0  0  0  0  0  0  0  0  0  0  0
  161.6760  210.4510  151.8510 C   0  0  0  0  0  0  0  0  0  0  0  0
  162.5250  208.8020  150.3750 O   0  0  0  0  0  1  0  0  0  0  0  0
  162.0380  209.0080  151.6670 C   0  0  2  0  0  3  0  0  0  0  0  0
  160.8740  208.0720  152.0220 C   0  0  2  0  0  3  0  0  0  0  0  0
  160.8060  207.9080  153.5230 C   0  0  0  0  0  1  0  0  0  0  0  0
  160.9270  206.6920  151.3640 C   0  0  0  0  0  2  0  0  0  0  0  0
  161.3850  205.5930  152.3180 C   0  0  2  0  0  3  0  0  0  0  0  0
  162.5480  206.0690  153.1570 C   0  0  0  0  0  1  0  0  0  0  0  0
  161.7780  204.3700  151.5160 C   0  0  0  0  0  2  0  0  0  0  0  0
  160.6240  203.3830  151.4300 C   0  0  0  0  0  2  0  0  0  0  0  0
  160.8590  202.4050  150.3260 C   0  0  0  0  0  0  0  0  0  0  0  0
  160.9520  200.1210  149.5330 C   0  0  0  0  0  3  0  0  0  0  0  0
  161.5720  201.9400  148.0510 C   0  0  0  0  0  0  0  0  0  0  0  0
  160.6930  201.0350  150.5560 C   0  0  0  0  0  3  0  0  0  0  0  0
  161.3040  202.8570  149.0750 C   0  0  0  0  0  3  0  0  0  0  0  0
  161.3870  200.5740  148.2870 C   0  0  0  0  0  3  0  0  0  0  0  0
  162.0320  202.3730  146.7690 N   0  0  0  0  0  2  0  0  0  0  0  0
  161.8910  207.0820  147.4070 C   0  0  0  0  0  1  0  0  0  0  0  0
  160.0790  203.8320  146.5830 C   0  0  0  0  0  2  0  0  0  0  0  0
  161.3380  205.0520  144.1660 C   0  0  0  0  0  2  0  0  0  0  0  0
  162.0630  205.5660  145.4030 C   0  0  1  0  0  0  0  0  0  0  0  0
  161.1380  206.1010  146.5260 C   0  0  1  0  0  0  0  0  0  0  0  0
  162.1410  204.0830  145.0310 C   0  0  1  0  0  3  0  0  0  0  0  0
  161.2210  203.1430  145.8340 C   0  0  1  0  0  3  0  0  0  0  0  0
  160.6260  204.9780  147.4190 C   0  0  0  0  0  2  0  0  0  0  0  0
  160.0550  206.7580  145.9710 F   0  0  0  0  0  0  0  0  0  0  0  0
  163.1940  206.3140  145.0650 O   0  0  0  0  0  1  0  0  0  0  0  0
  1 19  1  6  0  0  0
  1 35  1  0  0  0  0
  1  2  1  0  0  0  0
  2  4  2  0  0  0  0
  3  5  1  0  0  0  0
  4  3  2  0  0  0  0
  5  6  1  0  0  0  0
  6  7  1  0  0  0  0
  7 15  1  6  0  0  0
  8  9  1  0  0  0  0
  9 11  1  0  0  0  0
  9 10  1  1  0  0  0
  9  7  1  0  0  0  0
 12 11  1  0  0  0  0
 12 13  1  0  0  0  0
 14 12  1  0  0  0  0
 16 15  1  0  0  0  0
 17 16  1  0  0  0  0
 18 17  1  0  0  0  0
 20 19  1  0  0  0  0
 21 20  1  0  0  0  0
 22 24  1  0  0  0  0
 23 22  1  1  0  0  0
 23 25  1  0  0  0  0
 24 26  1  0  0  0  0
 25 26  2  0  0  0  0
 26 21  1  0  0  0  0
 27 29  2  0  0  0  0
 29 33  1  0  0  0  0
 29 32  1  0  0  0  0
 30 28  2  0  0  0  0
 33 28  1  1  0  0  0
 33 23  1  0  0  0  0
 34 31  1  1  0  0  0
 34 27  1  0  0  0  0
 34 28  1  0  0  0  0
 35 37  1  0  0  0  0
 37 36  2  0  0  0  0
 39 38  1  6  0  0  0
 39 37  1  0  0  0  0
 39 40  1  0  0  0  0
 40 41  1  1  0  0  0
 42 40  1  0  0  0  0
 42 43  1  0  0  0  0
 43 44  1  6  0  0  0
 45 43  1  0  0  0  0
 46 45  1  0  0  0  0
 47 50  1  0  0  0  0
 47 46  1  0  0  0  0
 48 50  2  0  0  0  0
 49 52  2  0  0  0  0
 49 51  1  0  0  0  0
 51 47  2  0  0  0  0
 52 48  1  0  0  0  0
 53 49  1  0  0  0  0
 55 61  1  0  0  0  0
 56 57  1  0  0  0  0
 57 63  1  6  0  0  0
 57 58  1  0  0  0  0
 58 54  1  1  0  0  0
 58 61  1  0  0  0  0
 59 56  1  6  0  0  0
 59 57  1  0  0  0  0
 59 60  1  0  0  0  0
 60 55  1  0  0  0  0
 60 53  1  1  0  0  0
 62 58  1  0  0  0  0
M  END
>  <MODEL>
6

>  <REMARK>
 VINA RESULT:      -1.0      3.544     11.359
  Name = 
  26 active torsions:
  status: ('A' for Active; 'I' for Inactive)
    1  A    between atoms: C_1  and  C_20
    2  A    between atoms: C_4  and  C_21
    3  A    between atoms: C_4  and  S_22
    4  A    between atoms: C_4  and  C_53
    5  A    between atoms: C_5  and  C_35
    6  A    between atoms: C_6  and  C_16
    7  A    between atoms: C_6  and  C_27
    8  A    between atoms: C_11  and  C_46
    9  A    between atoms: C_12  and  S_22
   10  A    between atoms: C_12  and  C_38
   11  A    between atoms: C_13  and  C_25
   12  A    between atoms: C_13  and  C_27
   13  A    between atoms: C_16  and  C_17
   14  A    between atoms: C_17  and  C_20
   15  A    between atoms: C_21  and  O_32
   16  A    between atoms: N_23  and  C_26
   17  A    between atoms: N_23  and  C_48
   18  A    between atoms: C_25  and  O_37
   19  A    between atoms: O_29  and  C_42
   20  A    between atoms: O_29  and  C_55
   21  A    between atoms: O_32  and  C_33
   22  A    between atoms: C_35  and  O_37
   23  A    between atoms: C_35  and  C_51
   24  A    between atoms: C_42  and  C_51
   25  A    between atoms: C_52  and  O_54
   26  A    between atoms: C_53  and  O_54
                            x       y       z     vdW  Elec       q    Type
                         _______ _______ _______ _____ _____    ______ ____

>  <TORSDO>
F 26

$$$$
