=
 OpenBabel11072413223D

 44 48  0  0  1  0  0  0  0  0999 V2000
  162.8490  206.7570  151.6300 O   0  0  0  0  0  1  0  0  0  0  0  0
  160.9690  207.5240  149.9230 C   0  0  2  0  0  3  0  0  0  0  0  0
  161.4820  206.9760  151.2990 C   0  0  1  0  0  0  0  0  0  0  0  0
  161.9750  205.0030  149.7930 C   0  0  2  0  0  3  0  0  0  0  0  0
  161.6110  204.0540  150.9190 C   0  0  0  0  0  0  0  0  0  0  0  0
  160.2090  204.0720  151.4040 C   0  0  0  0  0  2  0  0  0  0  0  0
  160.9830  206.0230  150.1620 C   0  0  2  0  0  0  0  0  0  0  0  0
  159.6630  205.3020  150.6400 C   0  0  0  0  0  2  0  0  0  0  0  0
  162.5010  203.5610  151.5800 O   0  0  0  0  0  0  0  0  0  0  0  0
  161.2310  204.7650  143.9610 C   0  0  0  0  0  1  0  0  0  0  0  0
  160.9770  204.4050  145.3920 C   0  0  0  0  0  0  0  0  0  0  0  0
  161.7130  202.8900  148.1750 C   0  0  0  0  0  3  0  0  0  0  0  0
  161.1930  202.3100  147.0710 C   0  0  0  0  0  3  0  0  0  0  0  0
  160.9030  205.3920  146.2550 C   0  0  2  0  0  3  0  0  0  0  0  0
  161.1350  205.2620  147.7090 C   0  0  0  0  0  3  0  0  0  0  0  0
  161.6910  204.2970  148.4750 C   0  0  0  0  0  0  0  0  0  0  0  0
  160.5530  206.6640  145.8350 O   0  0  0  0  0  1  0  0  0  0  0  0
  160.1200  202.1620  144.9140 O   0  0  0  0  0  1  0  0  0  0  0  0
  160.5350  203.0350  145.8890 C   0  0  0  0  0  0  0  0  0  0  0  0
  162.3580  209.3920  149.2920 O   0  0  0  0  0  1  0  0  0  0  0  0
  162.8300  207.4460  148.2710 O   0  0  0  0  0  0  0  0  0  0  0  0
  162.0640  208.1750  149.0620 C   0  0  0  0  0  0  0  0  0  0  0  0
  160.6220  206.7170  152.3570 O   0  0  0  0  0  0  0  0  0  0  0  0
  160.6780  209.3630  154.7260 C   0  0  0  0  0  0  0  0  0  0  0  0
  160.5020  206.6470  154.7170 C   0  0  0  0  0  3  0  0  0  0  0  0
  160.7080  208.7770  153.5160 C   0  0  0  0  0  3  0  0  0  0  0  0
  160.4390  207.3020  155.9460 C   0  0  0  0  0  3  0  0  0  0  0  0
  160.5270  208.7230  155.8900 C   0  0  0  0  0  0  0  0  0  0  0  0
  160.7260  210.7300  154.9870 C   0  0  0  0  0  0  0  0  0  0  0  0
  160.6260  207.3420  153.5440 C   0  0  0  0  0  0  0  0  0  0  0  0
  160.6050  210.8290  156.3420 N   0  0  0  0  0  0  0  0  0  0  0  0
  160.5090  209.6150  156.9100 N   0  0  0  0  0  2  0  0  0  0  0  0
  160.5300  211.7560  153.9780 N   0  0  0  0  0  2  0  0  0  0  0  0
  159.2290  212.3790  153.6480 C   0  0  2  0  0  3  0  0  0  0  0  0
  158.1780  212.1180  154.7310 C   0  0  0  0  0  0  0  0  0  0  0  0
  157.5180  211.0680  154.6940 O   0  0  0  0  0  0  0  0  0  0  0  0
  158.0400  213.0270  155.8340 N   0  0  0  0  0  1  0  0  0  0  0  0
  158.7270  212.0810  152.2780 N   0  0  0  0  0  2  0  0  0  0  0  0
  157.5260  214.4480  151.9530 O   0  0  0  0  0  1  0  0  0  0  0  0
  158.2880  213.3800  151.1840 P   0  0  2  0  0  0  0  0  0  0  0  0
  157.3660  213.0050  149.7720 O   0  0  0  0  0  0  0  0  0  0  0  0
  159.9430  214.0280  150.7370 C   0  0  0  0  0  2  0  0  0  0  0  0
  161.2570  212.9570  148.8660 C   0  0  0  0  0  1  0  0  0  0  0  0
  160.3630  214.1200  149.2530 C   0  0  0  0  0  2  0  0  0  0  0  0
  2 22  1  6  0  0  0
  2  7  1  0  0  0  0
  2  3  1  0  0  0  0
  3  1  1  1  0  0  0
  3 23  1  0  0  0  0
  4 16  1  6  0  0  0
  4  7  1  0  0  0  0
  4  5  1  0  0  0  0
  5  6  1  0  0  0  0
  5  9  2  0  0  0  0
  7  8  1  1  0  0  0
  7  3  1  0  0  0  0
  8  6  1  0  0  0  0
 10 11  1  0  0  0  0
 11 19  2  0  0  0  0
 11 14  1  0  0  0  0
 12 16  1  0  0  0  0
 13 12  2  0  0  0  0
 14 17  1  1  0  0  0
 14 15  1  0  0  0  0
 15 16  2  0  0  0  0
 18 19  1  0  0  0  0
 19 13  1  0  0  0  0
 21 22  2  0  0  0  0
 22 20  1  0  0  0  0
 23 30  1  0  0  0  0
 24 29  1  0  0  0  0
 24 28  1  0  0  0  0
 25 27  1  0  0  0  0
 26 30  1  0  0  0  0
 26 24  2  0  0  0  0
 28 27  2  0  0  0  0
 28 32  1  0  0  0  0
 29 31  2  0  0  0  0
 30 25  2  0  0  0  0
 31 32  1  0  0  0  0
 33 29  1  0  0  0  0
 34 38  1  6  0  0  0
 34 33  1  0  0  0  0
 34 35  1  0  0  0  0
 35 37  1  0  0  0  0
 36 35  2  0  0  0  0
 40 41  2  6  0  0  0
 40 39  1  0  0  0  0
 40 38  1  0  0  0  0
 42 40  1  0  0  0  0
 43 44  1  0  0  0  0
 44 42  1  0  0  0  0
M  END
>  <MODEL>
1

>  <REMARK>
 VINA RESULT:      -6.9      0.000      0.000
  Name = 
  11 active torsions:
  status: ('A' for Active; 'I' for Inactive)
    1  A    between atoms: C_8  and  C_29
    2  A    between atoms: C_10  and  C_44
    3  A    between atoms: C_11  and  O_43
    4  A    between atoms: C_13  and  C_30
    5  A    between atoms: P_19  and  N_24
    6  A    between atoms: P_19  and  C_29
    7  A    between atoms: N_24  and  C_25
    8  A    between atoms: C_25  and  C_26
    9  A    between atoms: C_25  and  N_37
   10  A    between atoms: C_31  and  N_37
   11  A    between atoms: C_32  and  O_43
                            x       y       z     vdW  Elec       q    Type
                         _______ _______ _______ _____ _____    ______ ____

>  <TORSDO>
F 11

$$$$
=
 OpenBabel11072413223D

 44 48  0  0  1  0  0  0  0  0999 V2000
  162.8790  206.6740  151.6410 O   0  0  0  0  0  1  0  0  0  0  0  0
  161.0690  207.5290  149.9000 C   0  0  2  0  0  3  0  0  0  0  0  0
  161.5300  206.9520  151.2830 C   0  0  1  0  0  0  0  0  0  0  0  0
  161.9720  204.9680  149.7750 C   0  0  2  0  0  3  0  0  0  0  0  0
  161.5440  204.0300  150.8880 C   0  0  0  0  0  0  0  0  0  0  0  0
  160.1340  204.1040  151.3440 C   0  0  0  0  0  2  0  0  0  0  0  0
  161.0150  206.0270  150.1300 C   0  0  2  0  0  0  0  0  0  0  0  0
  159.6560  205.3590  150.5760 C   0  0  0  0  0  2  0  0  0  0  0  0
  162.3990  203.4960  151.5640 O   0  0  0  0  0  0  0  0  0  0  0  0
  161.2670  204.8080  143.9360 C   0  0  0  0  0  1  0  0  0  0  0  0
  160.9970  204.4350  145.3610 C   0  0  0  0  0  0  0  0  0  0  0  0
  161.6870  202.8770  148.1320 C   0  0  0  0  0  3  0  0  0  0  0  0
  161.1670  202.3190  147.0180 C   0  0  0  0  0  3  0  0  0  0  0  0
  160.9320  205.4140  146.2340 C   0  0  2  0  0  3  0  0  0  0  0  0
  161.1510  205.2640  147.6880 C   0  0  0  0  0  3  0  0  0  0  0  0
  161.6860  204.2820  148.4470 C   0  0  0  0  0  0  0  0  0  0  0  0
  160.6060  206.6960  145.8260 O   0  0  0  0  0  1  0  0  0  0  0  0
  160.1070  202.2120  144.8510 O   0  0  0  0  0  1  0  0  0  0  0  0
  160.5290  203.0680  145.8390 C   0  0  0  0  0  0  0  0  0  0  0  0
  162.8370  207.3720  148.2670 O   0  0  0  0  0  0  0  0  0  0  0  0
  162.3810  209.4460  149.0040 O   0  0  0  0  0  1  0  0  0  0  0  0
  162.2080  208.1380  149.0660 C   0  0  0  0  0  0  0  0  0  0  0  0
  160.6370  206.7240  152.3210 O   0  0  0  0  0  0  0  0  0  0  0  0
  161.1130  208.9690  155.0330 C   0  0  0  0  0  0  0  0  0  0  0  0
  160.6230  206.3180  154.6500 C   0  0  0  0  0  3  0  0  0  0  0  0
  161.0160  208.5680  153.7530 C   0  0  0  0  0  3  0  0  0  0  0  0
  160.6950  206.7870  155.9610 C   0  0  0  0  0  3  0  0  0  0  0  0
  160.9440  208.1830  156.1020 C   0  0  0  0  0  0  0  0  0  0  0  0
  161.3310  210.2680  155.4810 C   0  0  0  0  0  0  0  0  0  0  0  0
  160.7700  207.1620  153.5820 C   0  0  0  0  0  0  0  0  0  0  0  0
  161.2870  210.1780  156.8420 N   0  0  0  0  0  0  0  0  0  0  0  0
  161.0780  208.9110  157.2370 N   0  0  0  0  0  2  0  0  0  0  0  0
  161.2070  211.4470  154.6430 N   0  0  0  0  0  2  0  0  0  0  0  0
  159.9380  211.9420  154.0630 C   0  0  2  0  0  3  0  0  0  0  0  0
  160.0430  212.1450  152.5480 C   0  0  0  0  0  0  0  0  0  0  0  0
  160.5170  211.2380  151.8470 O   0  0  0  0  0  0  0  0  0  0  0  0
  159.4960  213.3250  151.9410 N   0  0  0  0  0  1  0  0  0  0  0  0
  159.3540  213.1220  154.7600 N   0  0  0  0  0  2  0  0  0  0  0  0
  158.8360  213.9170  157.2610 O   0  0  0  0  0  1  0  0  0  0  0  0
  158.3870  212.9140  156.2090 P   0  0  2  0  0  0  0  0  0  0  0  0
  158.3400  211.3600  156.9640 O   0  0  0  0  0  0  0  0  0  0  0  0
  156.7300  213.3950  155.5890 C   0  0  0  0  0  2  0  0  0  0  0  0
  155.7910  211.1870  154.8010 C   0  0  0  0  0  1  0  0  0  0  0  0
  156.0900  212.6240  154.4130 C   0  0  0  0  0  2  0  0  0  0  0  0
  2 22  1  6  0  0  0
  2  7  1  0  0  0  0
  2  3  1  0  0  0  0
  3  1  1  1  0  0  0
  3 23  1  0  0  0  0
  4 16  1  6  0  0  0
  4  7  1  0  0  0  0
  4  5  1  0  0  0  0
  5  6  1  0  0  0  0
  5  9  2  0  0  0  0
  7  8  1  1  0  0  0
  7  3  1  0  0  0  0
  8  6  1  0  0  0  0
 10 11  1  0  0  0  0
 11 19  2  0  0  0  0
 11 14  1  0  0  0  0
 12 16  1  0  0  0  0
 13 12  2  0  0  0  0
 14 17  1  1  0  0  0
 14 15  1  0  0  0  0
 15 16  2  0  0  0  0
 18 19  1  0  0  0  0
 19 13  1  0  0  0  0
 20 22  2  0  0  0  0
 21 22  1  0  0  0  0
 23 30  1  0  0  0  0
 24 29  1  0  0  0  0
 24 28  1  0  0  0  0
 25 27  1  0  0  0  0
 26 24  2  0  0  0  0
 27 28  2  0  0  0  0
 28 32  1  0  0  0  0
 29 31  2  0  0  0  0
 30 26  1  0  0  0  0
 30 25  2  0  0  0  0
 31 32  1  0  0  0  0
 33 29  1  0  0  0  0
 34 35  1  6  0  0  0
 34 33  1  0  0  0  0
 34 38  1  0  0  0  0
 36 35  2  0  0  0  0
 37 35  1  0  0  0  0
 38 40  1  0  0  0  0
 40 41  2  1  0  0  0
 40 39  1  0  0  0  0
 42 40  1  0  0  0  0
 44 43  1  0  0  0  0
 44 42  1  0  0  0  0
M  END
>  <MODEL>
2

>  <REMARK>
 VINA RESULT:      -6.6      1.656      2.729
  Name = 
  11 active torsions:
  status: ('A' for Active; 'I' for Inactive)
    1  A    between atoms: C_8  and  C_29
    2  A    between atoms: C_10  and  C_44
    3  A    between atoms: C_11  and  O_43
    4  A    between atoms: C_13  and  C_30
    5  A    between atoms: P_19  and  N_24
    6  A    between atoms: P_19  and  C_29
    7  A    between atoms: N_24  and  C_25
    8  A    between atoms: C_25  and  C_26
    9  A    between atoms: C_25  and  N_37
   10  A    between atoms: C_31  and  N_37
   11  A    between atoms: C_32  and  O_43
                            x       y       z     vdW  Elec       q    Type
                         _______ _______ _______ _____ _____    ______ ____

>  <TORSDO>
F 11

$$$$
=
 OpenBabel11072413223D

 44 48  0  0  1  0  0  0  0  0999 V2000
  159.9500  205.7190  152.8100 O   0  0  0  0  0  1  0  0  0  0  0  0
  162.0580  204.2410  152.1730 C   0  0  2  0  0  3  0  0  0  0  0  0
  161.3560  205.5050  152.7800 C   0  0  1  0  0  0  0  0  0  0  0  0
  160.9260  205.8670  150.3120 C   0  0  2  0  0  3  0  0  0  0  0  0
  161.1000  207.3620  150.5040 C   0  0  0  0  0  0  0  0  0  0  0  0
  162.4350  207.8480  150.9330 C   0  0  0  0  0  2  0  0  0  0  0  0
  161.9270  205.4950  151.3230 C   0  0  2  0  0  0  0  0  0  0  0  0
  163.1380  206.5040  151.2380 C   0  0  0  0  0  2  0  0  0  0  0  0
  160.1110  208.0570  150.6090 O   0  0  0  0  0  0  0  0  0  0  0  0
  160.8630  202.5740  145.4370 C   0  0  0  0  0  1  0  0  0  0  0  0
  161.4560  203.4730  146.4770 C   0  0  0  0  0  0  0  0  0  0  0  0
  161.9210  206.3710  147.8820 C   0  0  0  0  0  3  0  0  0  0  0  0
  162.4900  205.9470  146.7330 C   0  0  0  0  0  3  0  0  0  0  0  0
  161.1770  203.2040  147.7310 C   0  0  2  0  0  3  0  0  0  0  0  0
  161.2420  204.1800  148.8400 C   0  0  0  0  0  3  0  0  0  0  0  0
  161.3200  205.5280  148.8820 C   0  0  0  0  0  0  0  0  0  0  0  0
  160.8250  201.9190  148.1100 O   0  0  0  0  0  1  0  0  0  0  0  0
  163.1900  204.3990  145.0180 O   0  0  0  0  0  1  0  0  0  0  0  0
  162.5550  204.4970  146.2320 C   0  0  0  0  0  0  0  0  0  0  0  0
  161.5300  202.0900  151.2190 O   0  0  0  0  0  0  0  0  0  0  0  0
  160.0000  202.9200  152.6400 O   0  0  0  0  0  1  0  0  0  0  0  0
  161.1120  203.0520  151.9400 C   0  0  0  0  0  0  0  0  0  0  0  0
  162.0710  206.5120  153.4140 O   0  0  0  0  0  0  0  0  0  0  0  0
  160.8870  209.4770  154.9710 C   0  0  0  0  0  0  0  0  0  0  0  0
  161.2870  206.8630  155.6170 C   0  0  0  0  0  3  0  0  0  0  0  0
  161.3880  208.7000  153.9930 C   0  0  0  0  0  3  0  0  0  0  0  0
  160.7350  207.6980  156.5860 C   0  0  0  0  0  3  0  0  0  0  0  0
  160.5390  209.0530  156.1910 C   0  0  0  0  0  0  0  0  0  0  0  0
  160.5730  210.8290  154.8760 C   0  0  0  0  0  0  0  0  0  0  0  0
  161.6000  207.3290  154.3680 C   0  0  0  0  0  0  0  0  0  0  0  0
  160.0450  211.1490  156.0930 N   0  0  0  0  0  0  0  0  0  0  0  0
  160.0410  210.0850  156.9140 N   0  0  0  0  0  2  0  0  0  0  0  0
  160.4700  211.5530  153.6220 N   0  0  0  0  0  2  0  0  0  0  0  0
  159.2840  212.3220  153.1840 C   0  0  2  0  0  3  0  0  0  0  0  0
  159.3670  212.7090  151.7040 C   0  0  0  0  0  0  0  0  0  0  0  0
  160.4370  212.5500  151.0960 O   0  0  0  0  0  0  0  0  0  0  0  0
  158.1900  213.1430  151.0070 N   0  0  0  0  0  1  0  0  0  0  0  0
  158.9330  213.4750  154.0590 N   0  0  0  0  0  2  0  0  0  0  0  0
  156.4420  214.4410  153.9250 O   0  0  0  0  0  0  0  0  0  0  0  0
  157.3450  213.5840  154.7980 P   0  0  2  0  0  0  0  0  0  0  0  0
  157.2190  214.1820  156.4150 O   0  0  0  0  0  1  0  0  0  0  0  0
  156.7980  211.8380  154.6980 C   0  0  0  0  0  2  0  0  0  0  0  0
  155.1260  210.0240  155.2380 C   0  0  0  0  0  1  0  0  0  0  0  0
  155.8200  211.2710  155.7510 C   0  0  0  0  0  2  0  0  0  0  0  0
  2 22  1  6  0  0  0
  2  3  1  0  0  0  0
  3  1  1  1  0  0  0
  3 23  1  0  0  0  0
  4 16  1  6  0  0  0
  4  5  1  0  0  0  0
  4  7  1  0  0  0  0
  5  9  2  0  0  0  0
  5  6  1  0  0  0  0
  6  8  1  0  0  0  0
  7  8  1  6  0  0  0
  7  2  1  0  0  0  0
  7  3  1  0  0  0  0
 10 11  1  0  0  0  0
 11 14  1  0  0  0  0
 12 16  1  0  0  0  0
 13 12  2  0  0  0  0
 14 17  1  1  0  0  0
 14 15  1  0  0  0  0
 15 16  2  0  0  0  0
 18 19  1  0  0  0  0
 19 11  2  0  0  0  0
 19 13  1  0  0  0  0
 20 22  2  0  0  0  0
 22 21  1  0  0  0  0
 23 30  1  0  0  0  0
 24 28  1  0  0  0  0
 25 27  1  0  0  0  0
 26 30  1  0  0  0  0
 26 24  2  0  0  0  0
 28 27  2  0  0  0  0
 28 32  1  0  0  0  0
 29 24  1  0  0  0  0
 29 31  2  0  0  0  0
 30 25  2  0  0  0  0
 31 32  1  0  0  0  0
 33 29  1  0  0  0  0
 34 35  1  6  0  0  0
 34 33  1  0  0  0  0
 34 38  1  0  0  0  0
 36 35  2  0  0  0  0
 37 35  1  0  0  0  0
 38 40  1  0  0  0  0
 40 39  2  6  0  0  0
 40 41  1  0  0  0  0
 42 40  1  0  0  0  0
 42 44  1  0  0  0  0
 43 44  1  0  0  0  0
M  END
>  <MODEL>
3

>  <REMARK>
 VINA RESULT:      -6.0      1.938      3.905
  Name = 
  11 active torsions:
  status: ('A' for Active; 'I' for Inactive)
    1  A    between atoms: C_8  and  C_29
    2  A    between atoms: C_10  and  C_44
    3  A    between atoms: C_11  and  O_43
    4  A    between atoms: C_13  and  C_30
    5  A    between atoms: P_19  and  N_24
    6  A    between atoms: P_19  and  C_29
    7  A    between atoms: N_24  and  C_25
    8  A    between atoms: C_25  and  C_26
    9  A    between atoms: C_25  and  N_37
   10  A    between atoms: C_31  and  N_37
   11  A    between atoms: C_32  and  O_43
                            x       y       z     vdW  Elec       q    Type
                         _______ _______ _______ _____ _____    ______ ____

>  <TORSDO>
F 11

$$$$
=
 OpenBabel11072413223D

 44 48  0  0  1  0  0  0  0  0999 V2000
  160.1920  208.6990  151.4100 O   0  0  0  0  0  1  0  0  0  0  0  0
  162.1430  207.4280  152.6800 C   0  0  2  0  0  3  0  0  0  0  0  0
  161.5740  208.4290  151.6160 C   0  0  1  0  0  0  0  0  0  0  0  0
  160.8510  206.2190  150.6170 C   0  0  2  0  0  3  0  0  0  0  0  0
  161.1060  206.7670  149.2250 C   0  0  0  0  0  0  0  0  0  0  0  0
  162.5020  207.1280  148.8760 C   0  0  0  0  0  2  0  0  0  0  0  0
  161.9560  206.9570  151.2470 C   0  0  2  0  0  0  0  0  0  0  0  0
  163.1850  206.9790  150.2560 C   0  0  0  0  0  2  0  0  0  0  0  0
  160.1660  207.1780  148.5780 O   0  0  0  0  0  0  0  0  0  0  0  0
  161.9370  201.0940  147.9380 C   0  0  0  0  0  1  0  0  0  0  0  0
  161.2960  202.0140  148.9300 C   0  0  0  0  0  0  0  0  0  0  0  0
  161.2920  203.7940  151.6540 C   0  0  0  0  0  3  0  0  0  0  0  0
  161.1900  202.4490  151.5860 C   0  0  0  0  0  3  0  0  0  0  0  0
  160.8710  203.1740  148.4850 C   0  0  0  0  0  0  0  0  0  0  0  0
  160.6620  204.3750  149.3210 C   0  0  0  0  0  3  0  0  0  0  0  0
  161.0480  204.7110  150.5710 C   0  0  0  0  0  0  0  0  0  0  0  0
  160.5460  203.3340  147.1480 O   0  0  0  0  0  1  0  0  0  0  0  0
  160.8410  200.2770  150.5930 O   0  0  0  0  0  1  0  0  0  0  0  0
  160.8560  201.6250  150.3350 C   0  0  2  0  0  3  0  0  0  0  0  0
  160.9780  205.7810  153.9990 O   0  0  0  0  0  0  0  0  0  0  0  0
  160.6040  207.9210  154.5730 O   0  0  0  0  0  1  0  0  0  0  0  0
  161.1290  207.0210  153.7610 C   0  0  0  0  0  0  0  0  0  0  0  0
  162.4010  209.2030  150.8140 O   0  0  0  0  0  0  0  0  0  0  0  0
  160.9150  212.3490  150.0960 C   0  0  0  0  0  0  0  0  0  0  0  0
  162.4360  210.4820  148.8260 C   0  0  0  0  0  3  0  0  0  0  0  0
  161.2390  211.2630  150.8210 C   0  0  0  0  0  3  0  0  0  0  0  0
  162.1060  211.6420  148.1270 C   0  0  0  0  0  3  0  0  0  0  0  0
  161.3170  212.5880  148.8430 C   0  0  0  0  0  0  0  0  0  0  0  0
  160.1750  213.4450  150.5300 C   0  0  0  0  0  0  0  0  0  0  0  0
  162.0310  210.2890  150.1190 C   0  0  0  0  0  0  0  0  0  0  0  0
  160.1690  214.3020  149.4690 N   0  0  0  0  0  0  0  0  0  0  0  0
  160.8380  213.7840  148.4250 N   0  0  0  0  0  2  0  0  0  0  0  0
  159.8720  213.7200  151.9230 N   0  0  0  0  0  2  0  0  0  0  0  0
  158.7030  213.1840  152.6560 C   0  0  2  0  0  3  0  0  0  0  0  0
  157.3880  213.7940  152.1610 C   0  0  0  0  0  0  0  0  0  0  0  0
  157.1120  213.7390  150.9530 O   0  0  0  0  0  0  0  0  0  0  0  0
  156.4410  214.3220  153.1020 N   0  0  0  0  0  1  0  0  0  0  0  0
  158.8300  213.2210  154.1400 N   0  0  0  0  0  2  0  0  0  0  0  0
  160.3620  212.6150  156.2460 O   0  0  0  0  0  1  0  0  0  0  0  0
  159.7670  212.0040  154.9870 P   0  0  2  0  0  0  0  0  0  0  0  0
  161.0480  211.2040  154.1470 O   0  0  0  0  0  0  0  0  0  0  0  0
  158.4490  210.8210  155.4590 C   0  0  0  0  0  2  0  0  0  0  0  0
  156.3830  211.8740  156.4580 C   0  0  0  0  0  1  0  0  0  0  0  0
  156.9650  211.1870  155.2370 C   0  0  0  0  0  2  0  0  0  0  0  0
  2 22  1  1  0  0  0
  3  1  1  1  0  0  0
  3  2  1  0  0  0  0
  4 16  1  6  0  0  0
  4  7  1  0  0  0  0
  5  4  1  0  0  0  0
  6  5  1  0  0  0  0
  6  8  1  0  0  0  0
  7  8  1  6  0  0  0
  7  3  1  0  0  0  0
  7  2  1  0  0  0  0
  9  5  2  0  0  0  0
 10 11  1  0  0  0  0
 11 19  1  0  0  0  0
 13 12  2  0  0  0  0
 14 11  2  0  0  0  0
 14 15  1  0  0  0  0
 15 16  2  0  0  0  0
 16 12  1  0  0  0  0
 17 14  1  0  0  0  0
 19 18  1  1  0  0  0
 19 13  1  0  0  0  0
 22 20  2  0  0  0  0
 22 21  1  0  0  0  0
 23  3  1  0  0  0  0
 24 29  1  0  0  0  0
 24 26  1  0  0  0  0
 25 30  1  0  0  0  0
 27 25  2  0  0  0  0
 27 28  1  0  0  0  0
 28 24  2  0  0  0  0
 29 33  1  0  0  0  0
 30 23  1  0  0  0  0
 30 26  2  0  0  0  0
 31 29  2  0  0  0  0
 32 28  1  0  0  0  0
 32 31  1  0  0  0  0
 34 33  1  6  0  0  0
 34 38  1  0  0  0  0
 35 34  1  0  0  0  0
 35 37  1  0  0  0  0
 36 35  2  0  0  0  0
 38 40  1  0  0  0  0
 40 41  2  6  0  0  0
 40 42  1  0  0  0  0
 40 39  1  0  0  0  0
 44 42  1  0  0  0  0
 44 43  1  0  0  0  0
M  END
>  <MODEL>
4

>  <REMARK>
 VINA RESULT:      -5.6      2.329      5.117
  Name = 
  11 active torsions:
  status: ('A' for Active; 'I' for Inactive)
    1  A    between atoms: C_8  and  C_29
    2  A    between atoms: C_10  and  C_44
    3  A    between atoms: C_11  and  O_43
    4  A    between atoms: C_13  and  C_30
    5  A    between atoms: P_19  and  N_24
    6  A    between atoms: P_19  and  C_29
    7  A    between atoms: N_24  and  C_25
    8  A    between atoms: C_25  and  C_26
    9  A    between atoms: C_25  and  N_37
   10  A    between atoms: C_31  and  N_37
   11  A    between atoms: C_32  and  O_43
                            x       y       z     vdW  Elec       q    Type
                         _______ _______ _______ _____ _____    ______ ____

>  <TORSDO>
F 11

$$$$
=
 OpenBabel11072413223D

 44 48  0  0  1  0  0  0  0  0999 V2000
  162.3880  207.8440  155.1600 O   0  0  0  0  0  1  0  0  0  0  0  0
  159.8590  207.6460  154.3830 C   0  0  2  0  0  3  0  0  0  0  0  0
  161.4080  207.5190  154.1800 C   0  0  1  0  0  0  0  0  0  0  0  0
  161.1450  210.0350  154.2290 C   0  0  2  0  0  3  0  0  0  0  0  0
  162.2330  210.1680  153.1810 C   0  0  0  0  0  0  0  0  0  0  0  0
  161.9690  209.5880  151.8410 C   0  0  0  0  0  2  0  0  0  0  0  0
  160.6100  208.7740  153.6950 C   0  0  2  0  0  0  0  0  0  0  0  0
  160.6490  208.8300  152.1180 C   0  0  0  0  0  2  0  0  0  0  0  0
  163.3590  210.4450  153.5390 O   0  0  0  0  0  0  0  0  0  0  0  0
  157.8390  214.4530  156.2730 C   0  0  0  0  0  1  0  0  0  0  0  0
  158.2080  213.3250  155.3610 C   0  0  0  0  0  0  0  0  0  0  0  0
  159.9050  212.0080  152.9170 C   0  0  0  0  0  3  0  0  0  0  0  0
  158.8730  212.8710  152.7900 C   0  0  0  0  0  3  0  0  0  0  0  0
  158.6620  212.2270  155.9190 C   0  0  2  0  0  3  0  0  0  0  0  0
  159.5020  211.2180  155.2390 C   0  0  0  0  0  3  0  0  0  0  0  0
  160.2080  211.2260  154.0870 C   0  0  0  0  0  0  0  0  0  0  0  0
  158.3340  211.9200  157.2290 O   0  0  0  0  0  1  0  0  0  0  0  0
  156.9370  214.1570  153.4410 O   0  0  0  0  0  1  0  0  0  0  0  0
  157.8580  213.2390  153.8820 C   0  0  0  0  0  0  0  0  0  0  0  0
  158.7430  208.8120  156.1750 O   0  0  0  0  0  0  0  0  0  0  0  0
  159.5710  206.7900  156.7040 O   0  0  0  0  0  1  0  0  0  0  0  0
  159.4310  207.7910  155.8530 C   0  0  0  0  0  0  0  0  0  0  0  0
  161.9590  207.0000  153.0160 O   0  0  0  0  0  0  0  0  0  0  0  0
  161.4080  204.6830  150.3810 C   0  0  0  0  0  0  0  0  0  0  0  0
  160.9960  204.8410  153.0670 C   0  0  0  0  0  3  0  0  0  0  0  0
  161.7990  205.8280  150.9680 C   0  0  0  0  0  3  0  0  0  0  0  0
  160.6410  203.6590  152.4200 C   0  0  0  0  0  3  0  0  0  0  0  0
  160.8870  203.6280  151.0170 C   0  0  0  0  0  0  0  0  0  0  0  0
  161.5370  204.3560  149.0340 C   0  0  0  0  0  0  0  0  0  0  0  0
  161.5570  205.8870  152.3840 C   0  0  0  0  0  0  0  0  0  0  0  0
  161.0590  203.0820  148.9400 N   0  0  0  0  0  0  0  0  0  0  0  0
  160.6350  202.6330  150.1330 N   0  0  0  0  0  2  0  0  0  0  0  0
  162.3720  205.0860  148.0980 N   0  0  0  0  0  2  0  0  0  0  0  0
  161.9320  206.2590  147.3100 C   0  0  2  0  0  3  0  0  0  0  0  0
  161.4120  207.3880  148.2050 C   0  0  0  0  0  0  0  0  0  0  0  0
  160.2600  207.3190  148.6580 O   0  0  0  0  0  0  0  0  0  0  0  0
  162.2890  208.4530  148.6020 N   0  0  0  0  0  1  0  0  0  0  0  0
  161.0040  205.9430  146.1890 N   0  0  0  0  0  2  0  0  0  0  0  0
  162.9720  204.5300  145.0540 O   0  0  0  0  0  1  0  0  0  0  0  0
  161.5650  205.0440  144.7900 P   0  0  2  0  0  0  0  0  0  0  0  0
  161.5810  205.8250  143.2490 O   0  0  0  0  0  0  0  0  0  0  0  0
  160.3980  203.6300  144.7990 C   0  0  0  0  0  2  0  0  0  0  0  0
  159.9240  201.1530  144.9190 C   0  0  0  0  0  1  0  0  0  0  0  0
  160.8310  202.2720  145.3950 C   0  0  0  0  0  2  0  0  0  0  0  0
  2 22  1  1  0  0  0
  3  2  1  0  0  0  0
  3  1  1  1  0  0  0
  4 16  1  6  0  0  0
  5  9  2  0  0  0  0
  5  4  1  0  0  0  0
  6  8  1  0  0  0  0
  6  5  1  0  0  0  0
  7  8  1  6  0  0  0
  7  3  1  0  0  0  0
  7  4  1  0  0  0  0
  7  2  1  0  0  0  0
 11 14  1  0  0  0  0
 11 10  1  0  0  0  0
 12 16  1  0  0  0  0
 13 12  2  0  0  0  0
 13 19  1  0  0  0  0
 14 17  1  6  0  0  0
 15 14  1  0  0  0  0
 16 15  2  0  0  0  0
 18 19  1  0  0  0  0
 19 11  2  0  0  0  0
 22 20  2  0  0  0  0
 22 21  1  0  0  0  0
 23  3  1  0  0  0  0
 24 26  2  0  0  0  0
 24 28  1  0  0  0  0
 26 30  1  0  0  0  0
 27 25  1  0  0  0  0
 28 27  2  0  0  0  0
 29 24  1  0  0  0  0
 30 23  1  0  0  0  0
 30 25  2  0  0  0  0
 31 29  2  0  0  0  0
 31 32  1  0  0  0  0
 32 28  1  0  0  0  0
 33 29  1  0  0  0  0
 34 38  1  6  0  0  0
 34 33  1  0  0  0  0
 34 35  1  0  0  0  0
 35 37  1  0  0  0  0
 35 36  2  0  0  0  0
 40 41  2  6  0  0  0
 40 42  1  0  0  0  0
 40 39  1  0  0  0  0
 40 38  1  0  0  0  0
 42 44  1  0  0  0  0
 43 44  1  0  0  0  0
M  END
>  <MODEL>
5

>  <REMARK>
 VINA RESULT:      -5.4      3.891      9.301
  Name = 
  11 active torsions:
  status: ('A' for Active; 'I' for Inactive)
    1  A    between atoms: C_8  and  C_29
    2  A    between atoms: C_10  and  C_44
    3  A    between atoms: C_11  and  O_43
    4  A    between atoms: C_13  and  C_30
    5  A    between atoms: P_19  and  N_24
    6  A    between atoms: P_19  and  C_29
    7  A    between atoms: N_24  and  C_25
    8  A    between atoms: C_25  and  C_26
    9  A    between atoms: C_25  and  N_37
   10  A    between atoms: C_31  and  N_37
   11  A    between atoms: C_32  and  O_43
                            x       y       z     vdW  Elec       q    Type
                         _______ _______ _______ _____ _____    ______ ____

>  <TORSDO>
F 11

$$$$
=
 OpenBabel11072413223D

 44 48  0  0  1  0  0  0  0  0999 V2000
  163.1660  207.9050  150.2140 O   0  0  0  0  0  1  0  0  0  0  0  0
  160.7570  207.3220  149.2680 C   0  0  2  0  0  3  0  0  0  0  0  0
  161.7470  207.9420  150.3140 C   0  0  1  0  0  0  0  0  0  0  0  0
  162.1390  205.4720  150.7000 C   0  0  2  0  0  3  0  0  0  0  0  0
  162.3080  205.7320  152.1850 C   0  0  0  0  0  0  0  0  0  0  0  0
  161.1340  206.2520  152.9280 C   0  0  0  0  0  2  0  0  0  0  0  0
  161.1250  206.5180  150.5040 C   0  0  2  0  0  0  0  0  0  0  0  0
  160.1650  206.5400  151.7570 C   0  0  0  0  0  2  0  0  0  0  0  0
  163.4300  205.8130  152.6400 O   0  0  0  0  0  0  0  0  0  0  0  0
  161.2040  200.4930  147.7070 C   0  0  0  0  0  1  0  0  0  0  0  0
  160.8910  201.5900  148.6760 C   0  0  0  0  0  0  0  0  0  0  0  0
  161.2010  203.1110  151.5350 C   0  0  0  0  0  3  0  0  0  0  0  0
  160.5010  201.9770  151.3130 C   0  0  0  0  0  3  0  0  0  0  0  0
  161.1440  202.8200  148.2920 C   0  0  0  0  0  0  0  0  0  0  0  0
  161.3630  203.9610  149.2050 C   0  0  0  0  0  3  0  0  0  0  0  0
  161.6180  204.0520  150.5290 C   0  0  0  0  0  0  0  0  0  0  0  0
  161.1880  203.1380  146.9450 O   0  0  0  0  0  1  0  0  0  0  0  0
  159.3780  200.2490  150.0570 O   0  0  0  0  0  1  0  0  0  0  0  0
  160.0650  201.4330  149.9450 C   0  0  2  0  0  3  0  0  0  0  0  0
  160.6490  206.5890  146.9730 O   0  0  0  0  0  0  0  0  0  0  0  0
  162.6580  207.3250  147.6600 O   0  0  0  0  0  1  0  0  0  0  0  0
  161.4060  206.9910  147.9140 C   0  0  0  0  0  0  0  0  0  0  0  0
  161.3010  208.6540  151.4190 O   0  0  0  0  0  0  0  0  0  0  0  0
  159.5630  211.5980  152.3850 C   0  0  0  0  0  0  0  0  0  0  0  0
  161.4450  210.8530  150.5640 C   0  0  0  0  0  3  0  0  0  0  0  0
  159.9140  210.2990  152.4000 C   0  0  0  0  0  3  0  0  0  0  0  0
  161.0760  212.1970  150.6110 C   0  0  0  0  0  3  0  0  0  0  0  0
  160.0950  212.5310  151.5890 C   0  0  0  0  0  0  0  0  0  0  0  0
  158.6490  212.2190  153.2310 C   0  0  0  0  0  0  0  0  0  0  0  0
  160.9000  209.9340  151.4200 C   0  0  0  0  0  0  0  0  0  0  0  0
  158.6820  213.5350  152.8700 N   0  0  0  0  0  0  0  0  0  0  0  0
  159.5380  213.7370  151.8550 N   0  0  0  0  0  2  0  0  0  0  0  0
  158.1370  211.6230  154.4510 N   0  0  0  0  0  2  0  0  0  0  0  0
  158.5480  212.0110  155.8190 C   0  0  2  0  0  3  0  0  0  0  0  0
  157.6280  213.0820  156.4120 C   0  0  0  0  0  0  0  0  0  0  0  0
  156.4810  212.7660  156.7660 O   0  0  0  0  0  0  0  0  0  0  0  0
  158.1270  214.4050  156.6560 N   0  0  0  0  0  1  0  0  0  0  0  0
  159.9910  212.3520  155.9610 N   0  0  0  0  0  2  0  0  0  0  0  0
  162.1410  211.4270  157.2550 O   0  0  0  0  0  1  0  0  0  0  0  0
  161.1980  211.0880  156.1110 P   0  0  2  0  0  0  0  0  0  0  0  0
  162.1730  210.7000  154.7370 O   0  0  0  0  0  0  0  0  0  0  0  0
  160.1490  209.6660  156.5970 C   0  0  0  0  0  2  0  0  0  0  0  0
  160.0800  207.1520  156.3690 C   0  0  0  0  0  1  0  0  0  0  0  0
  160.8020  208.3270  157.0040 C   0  0  0  0  0  2  0  0  0  0  0  0
  2 22  1  6  0  0  0
  2  3  1  0  0  0  0
  2  7  1  0  0  0  0
  3  1  1  6  0  0  0
  3  7  1  0  0  0  0
  3 23  1  0  0  0  0
  4 16  1  1  0  0  0
  4  5  1  0  0  0  0
  5  9  2  0  0  0  0
  5  6  1  0  0  0  0
  7  4  1  0  0  0  0
  7  8  1  1  0  0  0
  8  6  1  0  0  0  0
 10 11  1  0  0  0  0
 11 19  1  0  0  0  0
 13 12  2  0  0  0  0
 14 11  2  0  0  0  0
 14 15  1  0  0  0  0
 15 16  2  0  0  0  0
 16 12  1  0  0  0  0
 17 14  1  0  0  0  0
 19 18  1  1  0  0  0
 19 13  1  0  0  0  0
 20 22  2  0  0  0  0
 21 22  1  0  0  0  0
 23 30  1  0  0  0  0
 24 26  1  0  0  0  0
 24 29  1  0  0  0  0
 25 27  2  0  0  0  0
 25 30  1  0  0  0  0
 27 28  1  0  0  0  0
 28 32  1  0  0  0  0
 28 24  2  0  0  0  0
 29 33  1  0  0  0  0
 30 26  2  0  0  0  0
 31 29  2  0  0  0  0
 32 31  1  0  0  0  0
 34 33  1  6  0  0  0
 34 38  1  0  0  0  0
 34 35  1  0  0  0  0
 35 37  1  0  0  0  0
 35 36  2  0  0  0  0
 38 40  1  0  0  0  0
 40 41  2  6  0  0  0
 40 42  1  0  0  0  0
 40 39  1  0  0  0  0
 42 44  1  0  0  0  0
 43 44  1  0  0  0  0
M  END
>  <MODEL>
6

>  <REMARK>
 VINA RESULT:      -5.4      2.384      4.458
  Name = 
  11 active torsions:
  status: ('A' for Active; 'I' for Inactive)
    1  A    between atoms: C_8  and  C_29
    2  A    between atoms: C_10  and  C_44
    3  A    between atoms: C_11  and  O_43
    4  A    between atoms: C_13  and  C_30
    5  A    between atoms: P_19  and  N_24
    6  A    between atoms: P_19  and  C_29
    7  A    between atoms: N_24  and  C_25
    8  A    between atoms: C_25  and  C_26
    9  A    between atoms: C_25  and  N_37
   10  A    between atoms: C_31  and  N_37
   11  A    between atoms: C_32  and  O_43
                            x       y       z     vdW  Elec       q    Type
                         _______ _______ _______ _____ _____    ______ ____

>  <TORSDO>
F 11

$$$$
=
 OpenBabel11072413223D

 44 48  0  0  1  0  0  0  0  0999 V2000
  163.3820  207.7540  148.2930 O   0  0  0  0  0  1  0  0  0  0  0  0
  161.1830  206.8240  147.1370 C   0  0  2  0  0  3  0  0  0  0  0  0
  161.9730  207.7830  148.0930 C   0  0  1  0  0  0  0  0  0  0  0  0
  162.1820  205.5930  149.3440 C   0  0  2  0  0  3  0  0  0  0  0  0
  162.0680  206.3370  150.6610 C   0  0  0  0  0  0  0  0  0  0  0  0
  160.7930  207.0410  150.9430 C   0  0  0  0  0  2  0  0  0  0  0  0
  161.2690  206.4870  148.6160 C   0  0  2  0  0  0  0  0  0  0  0  0
  160.0840  206.8970  149.5750 C   0  0  0  0  0  2  0  0  0  0  0  0
  163.0810  206.5940  151.2760 O   0  0  0  0  0  0  0  0  0  0  0  0
  161.2050  200.0070  147.7730 C   0  0  0  0  0  1  0  0  0  0  0  0
  160.9000  201.3250  148.4150 C   0  0  0  0  0  0  0  0  0  0  0  0
  161.2200  203.5460  150.7710 C   0  0  0  0  0  3  0  0  0  0  0  0
  160.5090  202.4000  150.8530 C   0  0  0  0  0  3  0  0  0  0  0  0
  161.1670  202.4060  147.7200 C   0  0  0  0  0  0  0  0  0  0  0  0
  161.3950  203.7480  148.2990 C   0  0  0  0  0  3  0  0  0  0  0  0
  161.6480  204.1830  149.5530 C   0  0  0  0  0  0  0  0  0  0  0  0
  161.2160  202.3560  146.3370 O   0  0  0  0  0  1  0  0  0  0  0  0
  159.3720  200.4110  150.0950 O   0  0  0  0  0  1  0  0  0  0  0  0
  160.0710  201.5170  149.6770 C   0  0  2  0  0  3  0  0  0  0  0  0
  163.0810  205.4480  146.5710 O   0  0  0  0  0  1  0  0  0  0  0  0
  161.6790  205.9060  144.8760 O   0  0  0  0  0  0  0  0  0  0  0  0
  162.0700  206.0800  146.1250 C   0  0  0  0  0  0  0  0  0  0  0  0
  161.3480  208.8090  148.7890 O   0  0  0  0  0  0  0  0  0  0  0  0
  161.2950  212.0490  147.3340 C   0  0  0  0  0  0  0  0  0  0  0  0
  162.2330  210.8500  149.5910 C   0  0  0  0  0  3  0  0  0  0  0  0
  161.0640  210.7280  147.4360 C   0  0  0  0  0  3  0  0  0  0  0  0
  162.4160  212.2250  149.4580 C   0  0  0  0  0  3  0  0  0  0  0  0
  161.8970  212.8010  148.2620 C   0  0  0  0  0  0  0  0  0  0  0  0
  160.8930  212.8830  146.2950 C   0  0  0  0  0  0  0  0  0  0  0  0
  161.5820  210.1210  148.6320 C   0  0  0  0  0  0  0  0  0  0  0  0
  161.3020  214.1290  146.6720 N   0  0  0  0  0  0  0  0  0  0  0  0
  161.9380  214.0930  147.8550 N   0  0  0  0  0  2  0  0  0  0  0  0
  159.9140  212.5130  145.2890 N   0  0  0  0  0  2  0  0  0  0  0  0
  159.8580  213.0670  143.9180 C   0  0  2  0  0  3  0  0  0  0  0  0
  158.6110  213.9300  143.6990 C   0  0  0  0  0  0  0  0  0  0  0  0
  157.9560  214.3070  144.6820 O   0  0  0  0  0  0  0  0  0  0  0  0
  158.2740  214.3840  142.3800 N   0  0  0  0  0  1  0  0  0  0  0  0
  160.0610  212.0660  142.8340 N   0  0  0  0  0  2  0  0  0  0  0  0
  162.6620  212.1950  142.2270 O   0  0  0  0  0  1  0  0  0  0  0  0
  161.2820  212.3190  141.6000 P   0  0  2  0  0  0  0  0  0  0  0  0
  161.2570  213.7890  140.6920 O   0  0  0  0  0  0  0  0  0  0  0  0
  160.9820  210.8710  140.5170 C   0  0  0  0  0  2  0  0  0  0  0  0
  161.6620  208.6440  139.5410 C   0  0  0  0  0  1  0  0  0  0  0  0
  162.1600  209.9700  140.0850 C   0  0  0  0  0  2  0  0  0  0  0  0
  2 22  1  6  0  0  0
  2  3  1  0  0  0  0
  2  7  1  0  0  0  0
  3  1  1  6  0  0  0
  3  7  1  0  0  0  0
  3 23  1  0  0  0  0
  4 16  1  1  0  0  0
  4  5  1  0  0  0  0
  5  6  1  0  0  0  0
  5  9  2  0  0  0  0
  7  4  1  0  0  0  0
  7  8  1  1  0  0  0
  8  6  1  0  0  0  0
 10 11  1  0  0  0  0
 11 19  1  0  0  0  0
 12 13  2  0  0  0  0
 14 15  1  0  0  0  0
 14 11  2  0  0  0  0
 15 16  2  0  0  0  0
 16 12  1  0  0  0  0
 17 14  1  0  0  0  0
 19 18  1  1  0  0  0
 19 13  1  0  0  0  0
 21 22  2  0  0  0  0
 22 20  1  0  0  0  0
 24 26  2  0  0  0  0
 24 28  1  0  0  0  0
 26 30  1  0  0  0  0
 27 25  1  0  0  0  0
 28 27  2  0  0  0  0
 29 31  2  0  0  0  0
 29 24  1  0  0  0  0
 30 23  1  0  0  0  0
 30 25  2  0  0  0  0
 31 32  1  0  0  0  0
 32 28  1  0  0  0  0
 33 29  1  0  0  0  0
 34 38  1  6  0  0  0
 34 33  1  0  0  0  0
 35 34  1  0  0  0  0
 35 36  2  0  0  0  0
 37 35  1  0  0  0  0
 40 41  2  6  0  0  0
 40 39  1  0  0  0  0
 40 38  1  0  0  0  0
 42 40  1  0  0  0  0
 43 44  1  0  0  0  0
 44 42  1  0  0  0  0
M  END
>  <MODEL>
7

>  <REMARK>
 VINA RESULT:      -5.0      4.434      7.144
  Name = 
  11 active torsions:
  status: ('A' for Active; 'I' for Inactive)
    1  A    between atoms: C_8  and  C_29
    2  A    between atoms: C_10  and  C_44
    3  A    between atoms: C_11  and  O_43
    4  A    between atoms: C_13  and  C_30
    5  A    between atoms: P_19  and  N_24
    6  A    between atoms: P_19  and  C_29
    7  A    between atoms: N_24  and  C_25
    8  A    between atoms: C_25  and  C_26
    9  A    between atoms: C_25  and  N_37
   10  A    between atoms: C_31  and  N_37
   11  A    between atoms: C_32  and  O_43
                            x       y       z     vdW  Elec       q    Type
                         _______ _______ _______ _____ _____    ______ ____

>  <TORSDO>
F 11

$$$$
=
 OpenBabel11072413223D

 44 48  0  0  1  0  0  0  0  0999 V2000
  162.8560  207.1430  153.6570 O   0  0  0  0  0  1  0  0  0  0  0  0
  160.2220  207.0330  153.9510 C   0  0  2  0  0  3  0  0  0  0  0  0
  161.5610  206.8200  153.1630 C   0  0  1  0  0  0  0  0  0  0  0  0
  161.4050  209.3460  153.1500 C   0  0  2  0  0  3  0  0  0  0  0  0
  161.9930  209.3730  151.7520 C   0  0  0  0  0  0  0  0  0  0  0  0
  161.2060  208.7410  150.6640 C   0  0  0  0  0  2  0  0  0  0  0  0
  160.6690  208.0880  152.9520 C   0  0  2  0  0  0  0  0  0  0  0  0
  160.0830  208.0650  151.4860 C   0  0  0  0  0  2  0  0  0  0  0  0
  163.1750  209.6100  151.6200 O   0  0  0  0  0  0  0  0  0  0  0  0
  158.4400  213.3750  156.2470 C   0  0  0  0  0  1  0  0  0  0  0  0
  158.7010  212.4420  155.1060 C   0  0  0  0  0  0  0  0  0  0  0  0
  160.1870  211.5850  152.3410 C   0  0  0  0  0  3  0  0  0  0  0  0
  159.1920  212.4920  152.4580 C   0  0  0  0  0  3  0  0  0  0  0  0
  159.1330  211.2380  155.4040 C   0  0  2  0  0  3  0  0  0  0  0  0
  159.8820  210.3580  154.4820 C   0  0  0  0  0  3  0  0  0  0  0  0
  160.5200  210.5730  153.3100 C   0  0  0  0  0  0  0  0  0  0  0  0
  158.8680  210.6860  156.6450 O   0  0  0  0  0  1  0  0  0  0  0  0
  157.3620  213.6890  153.4800 O   0  0  0  0  0  1  0  0  0  0  0  0
  158.2610  212.6680  153.6660 C   0  0  0  0  0  0  0  0  0  0  0  0
  159.4540  206.9690  156.2360 O   0  0  0  0  0  1  0  0  0  0  0  0
  161.6030  207.5630  155.9540 O   0  0  0  0  0  0  0  0  0  0  0  0
  160.4140  207.2720  155.4580 C   0  0  0  0  0  0  0  0  0  0  0  0
  161.5930  206.2180  151.9130 O   0  0  0  0  0  0  0  0  0  0  0  0
  161.0280  203.2470  150.0510 C   0  0  0  0  0  0  0  0  0  0  0  0
  161.0690  204.0350  152.6560 C   0  0  0  0  0  3  0  0  0  0  0  0
  161.2970  204.5470  150.2660 C   0  0  0  0  0  3  0  0  0  0  0  0
  160.8300  202.6890  152.3840 C   0  0  0  0  0  3  0  0  0  0  0  0
  160.8290  202.3310  151.0050 C   0  0  0  0  0  0  0  0  0  0  0  0
  160.9780  202.6040  148.8170 C   0  0  0  0  0  0  0  0  0  0  0  0
  161.3000  204.9360  151.6500 C   0  0  0  0  0  0  0  0  0  0  0  0
  160.7340  201.2960  149.1170 N   0  0  0  0  0  0  0  0  0  0  0  0
  160.6150  201.1170  150.4430 N   0  0  0  0  0  2  0  0  0  0  0  0
  161.4880  203.1750  147.5830 N   0  0  0  0  0  2  0  0  0  0  0  0
  160.8370  203.0470  146.2600 C   0  0  2  0  0  3  0  0  0  0  0  0
  160.5420  201.5860  145.9050 C   0  0  0  0  0  0  0  0  0  0  0  0
  159.6300  201.3300  145.1050 O   0  0  0  0  0  0  0  0  0  0  0  0
  161.3860  200.5400  146.4090 N   0  0  0  0  0  1  0  0  0  0  0  0
  161.5210  203.7780  145.1580 N   0  0  0  0  0  2  0  0  0  0  0  0
  159.7860  205.8120  145.2430 O   0  0  0  0  0  1  0  0  0  0  0  0
  161.2340  205.4910  144.9080 P   0  0  2  0  0  0  0  0  0  0  0  0
  161.5680  206.1740  143.3550 O   0  0  0  0  0  0  0  0  0  0  0  0
  162.3240  206.2140  146.1930 C   0  0  0  0  0  2  0  0  0  0  0  0
  162.7080  207.6140  148.2580 C   0  0  0  0  0  1  0  0  0  0  0  0
  161.7200  206.7330  147.5160 C   0  0  0  0  0  2  0  0  0  0  0  0
  2 22  1  1  0  0  0
  3  1  1  1  0  0  0
  3  2  1  0  0  0  0
  4 16  1  6  0  0  0
  5  4  1  0  0  0  0
  6  8  1  0  0  0  0
  6  5  1  0  0  0  0
  7  8  1  6  0  0  0
  7  4  1  0  0  0  0
  7  3  1  0  0  0  0
  7  2  1  0  0  0  0
  9  5  2  0  0  0  0
 11 14  1  0  0  0  0
 11 10  1  0  0  0  0
 12 13  2  0  0  0  0
 12 16  1  0  0  0  0
 13 19  1  0  0  0  0
 14 17  1  6  0  0  0
 15 14  1  0  0  0  0
 16 15  2  0  0  0  0
 18 19  1  0  0  0  0
 19 11  2  0  0  0  0
 22 21  2  0  0  0  0
 22 20  1  0  0  0  0
 23  3  1  0  0  0  0
 24 26  2  0  0  0  0
 24 28  1  0  0  0  0
 26 30  1  0  0  0  0
 27 25  1  0  0  0  0
 28 27  2  0  0  0  0
 29 31  2  0  0  0  0
 29 24  1  0  0  0  0
 30 23  1  0  0  0  0
 30 25  2  0  0  0  0
 31 32  1  0  0  0  0
 32 28  1  0  0  0  0
 33 29  1  0  0  0  0
 34 38  1  6  0  0  0
 34 33  1  0  0  0  0
 35 34  1  0  0  0  0
 35 37  1  0  0  0  0
 36 35  2  0  0  0  0
 40 41  2  6  0  0  0
 40 38  1  0  0  0  0
 40 39  1  0  0  0  0
 40 42  1  0  0  0  0
 42 44  1  0  0  0  0
 44 43  1  0  0  0  0
M  END
>  <MODEL>
8

>  <REMARK>
 VINA RESULT:      -4.9      4.513      9.350
  Name = 
  11 active torsions:
  status: ('A' for Active; 'I' for Inactive)
    1  A    between atoms: C_8  and  C_29
    2  A    between atoms: C_10  and  C_44
    3  A    between atoms: C_11  and  O_43
    4  A    between atoms: C_13  and  C_30
    5  A    between atoms: P_19  and  N_24
    6  A    between atoms: P_19  and  C_29
    7  A    between atoms: N_24  and  C_25
    8  A    between atoms: C_25  and  C_26
    9  A    between atoms: C_25  and  N_37
   10  A    between atoms: C_31  and  N_37
   11  A    between atoms: C_32  and  O_43
                            x       y       z     vdW  Elec       q    Type
                         _______ _______ _______ _____ _____    ______ ____

>  <TORSDO>
F 11

$$$$
=
 OpenBabel11072413223D

 44 48  0  0  1  0  0  0  0  0999 V2000
  160.0510  206.1710  152.5540 O   0  0  0  0  0  1  0  0  0  0  0  0
  162.1730  204.6670  152.0320 C   0  0  2  0  0  3  0  0  0  0  0  0
  161.4610  205.9840  152.4990 C   0  0  1  0  0  0  0  0  0  0  0  0
  160.9390  206.0190  150.0230 C   0  0  2  0  0  3  0  0  0  0  0  0
  161.0820  207.5300  150.0170 C   0  0  0  0  0  0  0  0  0  0  0  0
  162.4170  208.0930  150.3320 C   0  0  0  0  0  2  0  0  0  0  0  0
  161.9820  205.7990  151.0350 C   0  0  2  0  0  0  0  0  0  0  0  0
  163.1640  206.8140  150.7800 C   0  0  0  0  0  2  0  0  0  0  0  0
  160.0800  208.2120  150.0690 O   0  0  0  0  0  0  0  0  0  0  0  0
  160.8360  202.1080  145.6280 C   0  0  0  0  0  1  0  0  0  0  0  0
  161.4270  203.1590  146.5150 C   0  0  0  0  0  0  0  0  0  0  0  0
  161.8180  206.2330  147.5070 C   0  0  0  0  0  3  0  0  0  0  0  0
  162.3610  205.6830  146.3990 C   0  0  0  0  0  3  0  0  0  0  0  0
  161.2080  203.0480  147.8050 C   0  0  2  0  0  3  0  0  0  0  0  0
  161.2720  204.1640  148.7720 C   0  0  0  0  0  3  0  0  0  0  0  0
  161.2920  205.5080  148.6340 C   0  0  0  0  0  0  0  0  0  0  0  0
  160.9260  201.8130  148.3630 O   0  0  0  0  0  1  0  0  0  0  0  0
  163.0630  203.9490  144.8740 O   0  0  0  0  0  1  0  0  0  0  0  0
  162.4710  204.1830  146.0910 C   0  0  0  0  0  0  0  0  0  0  0  0
  161.6350  202.4290  151.3150 O   0  0  0  0  0  0  0  0  0  0  0  0
  160.2070  203.3410  152.7920 O   0  0  0  0  0  1  0  0  0  0  0  0
  161.2490  203.4390  151.9860 C   0  0  0  0  0  0  0  0  0  0  0  0
  162.1710  207.0770  152.9740 O   0  0  0  0  0  0  0  0  0  0  0  0
  160.8490  210.2510  153.8680 C   0  0  0  0  0  0  0  0  0  0  0  0
  161.4290  207.8790  155.0710 C   0  0  0  0  0  3  0  0  0  0  0  0
  161.3690  209.3000  153.0710 C   0  0  0  0  0  3  0  0  0  0  0  0
  160.8540  208.8830  155.8490 C   0  0  0  0  0  3  0  0  0  0  0  0
  160.5630  210.0990  155.1650 C   0  0  0  0  0  0  0  0  0  0  0  0
  160.4480  211.5270  153.4830 C   0  0  0  0  0  0  0  0  0  0  0  0
  161.6770  208.0640  153.7370 C   0  0  0  0  0  0  0  0  0  0  0  0
  159.9360  212.0870  154.6170 N   0  0  0  0  0  0  0  0  0  0  0  0
  160.0220  211.2400  155.6560 N   0  0  0  0  0  2  0  0  0  0  0  0
  160.2650  211.9390  152.1030 N   0  0  0  0  0  2  0  0  0  0  0  0
  159.7720  213.2670  151.6740 C   0  0  2  0  0  3  0  0  0  0  0  0
  158.2480  213.2900  151.5240 C   0  0  0  0  0  0  0  0  0  0  0  0
  157.7410  212.9530  150.4430 O   0  0  0  0  0  0  0  0  0  0  0  0
  157.4180  213.5910  152.6560 N   0  0  0  0  0  1  0  0  0  0  0  0
  160.4740  213.8380  150.4910 N   0  0  0  0  0  2  0  0  0  0  0  0
  159.8380  212.4160  148.3170 O   0  0  0  0  0  0  0  0  0  0  0  0
  161.0240  212.7980  149.1900 P   0  0  2  0  0  0  0  0  0  0  0  0
  161.8650  211.3410  149.5860 O   0  0  0  0  0  1  0  0  0  0  0  0
  162.1060  213.9510  148.2620 C   0  0  0  0  0  2  0  0  0  0  0  0
  161.8960  213.6160  145.7680 C   0  0  0  0  0  1  0  0  0  0  0  0
  162.8110  213.4800  146.9700 C   0  0  0  0  0  2  0  0  0  0  0  0
  2 22  1  6  0  0  0
  2  3  1  0  0  0  0
  3  1  1  1  0  0  0
  3 23  1  0  0  0  0
  4 16  1  6  0  0  0
  4  7  1  0  0  0  0
  5  4  1  0  0  0  0
  5  9  2  0  0  0  0
  5  6  1  0  0  0  0
  6  8  1  0  0  0  0
  7  8  1  6  0  0  0
  7  2  1  0  0  0  0
  7  3  1  0  0  0  0
 10 11  1  0  0  0  0
 11 14  1  0  0  0  0
 12 16  1  0  0  0  0
 13 12  2  0  0  0  0
 14 17  1  1  0  0  0
 14 15  1  0  0  0  0
 16 15  2  0  0  0  0
 18 19  1  0  0  0  0
 19 13  1  0  0  0  0
 19 11  2  0  0  0  0
 20 22  2  0  0  0  0
 22 21  1  0  0  0  0
 23 30  1  0  0  0  0
 24 28  1  0  0  0  0
 25 27  1  0  0  0  0
 26 30  1  0  0  0  0
 26 24  2  0  0  0  0
 28 32  1  0  0  0  0
 28 27  2  0  0  0  0
 29 24  1  0  0  0  0
 29 31  2  0  0  0  0
 30 25  2  0  0  0  0
 31 32  1  0  0  0  0
 33 29  1  0  0  0  0
 34 38  1  6  0  0  0
 34 33  1  0  0  0  0
 35 34  1  0  0  0  0
 35 37  1  0  0  0  0
 36 35  2  0  0  0  0
 40 39  2  6  0  0  0
 40 41  1  0  0  0  0
 40 38  1  0  0  0  0
 42 40  1  0  0  0  0
 43 44  1  0  0  0  0
 44 42  1  0  0  0  0
M  END
>  <MODEL>
9

>  <REMARK>
 VINA RESULT:      -4.9      1.862      3.420
  Name = 
  11 active torsions:
  status: ('A' for Active; 'I' for Inactive)
    1  A    between atoms: C_8  and  C_29
    2  A    between atoms: C_10  and  C_44
    3  A    between atoms: C_11  and  O_43
    4  A    between atoms: C_13  and  C_30
    5  A    between atoms: P_19  and  N_24
    6  A    between atoms: P_19  and  C_29
    7  A    between atoms: N_24  and  C_25
    8  A    between atoms: C_25  and  C_26
    9  A    between atoms: C_25  and  N_37
   10  A    between atoms: C_31  and  N_37
   11  A    between atoms: C_32  and  O_43
                            x       y       z     vdW  Elec       q    Type
                         _______ _______ _______ _____ _____    ______ ____

>  <TORSDO>
F 11

$$$$
