=
 OpenBabel11072412263D

 33 36  0  0  1  0  0  0  0  0999 V2000
  160.1220  209.6340  152.5270 C   0  0  0  0  0  2  0  0  0  0  0  0
  161.4190  207.0470  147.9320 C   0  0  0  0  0  3  0  0  0  0  0  0
  161.6440  207.2570  151.0000 C   0  0  0  0  0  0  0  0  0  0  0  0
  160.9850  205.2780  149.6080 C   0  0  0  0  0  0  0  0  0  0  0  0
  161.4790  205.8140  150.7300 C   0  0  0  0  0  3  0  0  0  0  0  0
  162.2480  209.8080  150.7750 S   0  0  0  0  0  0  0  0  0  0  0  0
  161.9030  208.1990  150.0910 C   0  0  0  0  0  0  0  0  0  0  0  0
  161.5850  209.2420  152.3800 C   0  0  2  0  0  3  0  0  0  0  0  0
  162.0510  207.9860  148.6380 C   0  0  0  0  0  3  0  0  0  0  0  0
  161.6970  207.7260  152.4080 C   0  0  0  0  0  2  0  0  0  0  0  0
  160.4010  206.1340  148.5260 C   0  0  0  0  0  2  0  0  0  0  0  0
  161.1810  203.1410  148.3400 N   0  0  0  0  0  0  0  0  0  0  0  0
  160.6160  201.7970  149.9940 O   0  0  0  0  0  0  0  0  0  0  0  0
  160.5560  202.9930  150.4950 N   0  0  0  0  0  0  0  0  0  0  0  0
  160.9050  203.8140  149.4800 C   0  0  0  0  0  0  0  0  0  0  0  0
  161.1580  200.7410  147.8940 N   0  0  0  0  0  1  0  0  0  0  0  0
  160.9810  201.8730  148.7400 C   0  0  0  0  0  0  0  0  0  0  0  0
  158.7960  211.5980  153.1230 C   0  0  0  0  0  3  0  0  0  0  0  0
  159.9920  211.0900  152.8270 C   0  0  0  0  0  3  0  0  0  0  0  0
  158.5910  213.0590  153.4180 C   0  0  1  0  0  3  0  0  0  0  0  0
  157.5050  213.6800  152.5400 C   0  0  0  0  0  2  0  0  0  0  0  0
  157.8160  213.5330  151.1230 N   0  0  0  0  0  2  0  0  0  0  0  0
  156.7230  214.1390  150.3820 C   0  0  0  0  0  2  0  0  0  0  0  0
  156.4070  213.3500  149.2740 O   0  0  0  0  0  1  0  0  0  0  0  0
  158.3540  213.3280  154.9010 C   0  0  0  0  0  2  0  0  0  0  0  0
  159.6190  213.3340  155.6160 N   0  0  0  0  0  2  0  0  0  0  0  0
  159.4630  212.4440  156.7540 C   0  0  0  0  0  2  0  0  0  0  0  0
  161.5940  211.1820  156.3690 C   0  0  0  0  0  3  0  0  0  0  0  0
  160.2040  211.1760  156.5070 C   0  0  0  0  0  0  0  0  0  0  0  0
  161.6060  208.8330  156.0190 C   0  0  0  0  0  3  0  0  0  0  0  0
  160.2160  208.7860  156.1420 C   0  0  0  0  0  3  0  0  0  0  0  0
  159.5150  209.9680  156.3850 C   0  0  0  0  0  3  0  0  0  0  0  0
  162.2610  210.0210  156.1310 N   0  0  0  0  0  0  0  0  0  0  0  0
  1 19  1  0  0  0  0
  2 11  1  0  0  0  0
  2  9  2  0  0  0  0
  3 10  1  0  0  0  0
  4  5  2  0  0  0  0
  5  3  1  0  0  0  0
  6  8  1  0  0  0  0
  7  6  1  0  0  0  0
  7  3  2  0  0  0  0
  8 10  1  0  0  0  0
  8  1  1  6  0  0  0
  9  7  1  0  0  0  0
 11  4  1  0  0  0  0
 12 17  2  0  0  0  0
 12 15  1  0  0  0  0
 13 14  1  0  0  0  0
 15  4  1  0  0  0  0
 15 14  2  0  0  0  0
 16 17  1  0  0  0  0
 17 13  1  0  0  0  0
 18 20  1  0  0  0  0
 19 18  2  0  0  0  0
 20 21  1  6  0  0  0
 20 25  1  0  0  0  0
 22 21  1  0  0  0  0
 23 22  1  0  0  0  0
 24 23  1  0  0  0  0
 25 26  1  0  0  0  0
 26 27  1  0  0  0  0
 28 29  1  0  0  0  0
 29 27  1  0  0  0  0
 30 33  1  0  0  0  0
 30 31  2  0  0  0  0
 31 32  1  0  0  0  0
 32 29  2  0  0  0  0
 33 28  2  0  0  0  0
M  END
>  <MODEL>
1

>  <REMARK>
 VINA RESULT:      -7.3      0.000      0.000
  Name = 
  11 active torsions:
  status: ('A' for Active; 'I' for Inactive)
    1  A    between atoms: C_2  and  N_29
    2  A    between atoms: C_4  and  C_22
    3  A    between atoms: C_5  and  N_29
    4  A    between atoms: C_5  and  C_31
    5  A    between atoms: C_8  and  C_31
    6  A    between atoms: C_9  and  C_17
    7  A    between atoms: C_9  and  C_18
    8  A    between atoms: C_11  and  C_31
    9  A    between atoms: C_11  and  N_33
   10  A    between atoms: C_14  and  C_26
   11  A    between atoms: C_26  and  N_33
                            x       y       z     vdW  Elec       q    Type
                         _______ _______ _______ _____ _____    ______ ____

>  <TORSDO>
F 11

$$$$
=
 OpenBabel11072412263D

 33 36  0  0  1  0  0  0  0  0999 V2000
  160.0660  209.5610  152.8680 C   0  0  0  0  0  2  0  0  0  0  0  0
  161.3640  207.1440  148.1820 C   0  0  0  0  0  3  0  0  0  0  0  0
  161.6010  207.2500  151.2540 C   0  0  0  0  0  0  0  0  0  0  0  0
  160.9520  205.3140  149.7970 C   0  0  0  0  0  0  0  0  0  0  0  0
  161.4460  205.8160  150.9350 C   0  0  0  0  0  3  0  0  0  0  0  0
  162.1830  209.8120  151.1150 S   0  0  0  0  0  0  0  0  0  0  0  0
  161.8490  208.2250  150.3770 C   0  0  0  0  0  0  0  0  0  0  0  0
  161.5320  209.1860  152.7020 C   0  0  2  0  0  3  0  0  0  0  0  0
  161.9910  208.0630  148.9170 C   0  0  0  0  0  3  0  0  0  0  0  0
  161.6560  207.6710  152.6770 C   0  0  0  0  0  2  0  0  0  0  0  0
  160.3560  206.2030  148.7480 C   0  0  0  0  0  2  0  0  0  0  0  0
  161.1540  203.2250  148.4540 N   0  0  0  0  0  0  0  0  0  0  0  0
  160.6170  201.8190  150.0650 O   0  0  0  0  0  0  0  0  0  0  0  0
  160.5510  202.9970  150.6080 N   0  0  0  0  0  0  0  0  0  0  0  0
  160.8840  203.8550  149.6190 C   0  0  0  0  0  0  0  0  0  0  0  0
  161.1470  200.8420  147.9250 N   0  0  0  0  0  1  0  0  0  0  0  0
  160.9680  201.9420  148.8120 C   0  0  0  0  0  0  0  0  0  0  0  0
  158.6360  211.4910  152.4210 C   0  0  0  0  0  3  0  0  0  0  0  0
  159.8640  211.0200  152.6350 C   0  0  0  0  0  3  0  0  0  0  0  0
  158.3630  212.9470  152.1610 C   0  0  1  0  0  3  0  0  0  0  0  0
  157.7240  213.6400  153.3650 C   0  0  0  0  0  2  0  0  0  0  0  0
  157.0620  212.6820  154.2420 N   0  0  0  0  0  2  0  0  0  0  0  0
  157.4760  212.9900  155.6000 C   0  0  0  0  0  2  0  0  0  0  0  0
  158.7210  212.4110  155.8580 O   0  0  0  0  0  1  0  0  0  0  0  0
  159.5980  213.6910  151.6590 C   0  0  0  0  0  2  0  0  0  0  0  0
  159.7440  213.5030  150.2260 N   0  0  0  0  0  2  0  0  0  0  0  0
  158.4310  213.7070  149.6390 C   0  0  0  0  0  2  0  0  0  0  0  0
  159.6470  213.2440  147.4970 C   0  0  0  0  0  3  0  0  0  0  0  0
  158.4470  213.2890  148.2090 C   0  0  0  0  0  0  0  0  0  0  0  0
  158.5000  212.5440  145.5380 C   0  0  0  0  0  3  0  0  0  0  0  0
  157.2790  212.5850  146.2130 C   0  0  0  0  0  3  0  0  0  0  0  0
  157.2570  212.9630  147.5570 C   0  0  0  0  0  3  0  0  0  0  0  0
  159.6490  212.8740  146.1870 N   0  0  0  0  0  0  0  0  0  0  0  0
  2 11  1  0  0  0  0
  2  9  2  0  0  0  0
  3 10  1  0  0  0  0
  4  5  2  0  0  0  0
  5  3  1  0  0  0  0
  6  8  1  0  0  0  0
  7  6  1  0  0  0  0
  7  3  2  0  0  0  0
  8  1  1  6  0  0  0
  9  7  1  0  0  0  0
 10  8  1  0  0  0  0
 11  4  1  0  0  0  0
 12 17  2  0  0  0  0
 12 15  1  0  0  0  0
 13 14  1  0  0  0  0
 15  4  1  0  0  0  0
 15 14  2  0  0  0  0
 16 17  1  0  0  0  0
 17 13  1  0  0  0  0
 18 19  2  0  0  0  0
 19  1  1  0  0  0  0
 20 25  1  1  0  0  0
 20 18  1  0  0  0  0
 20 21  1  0  0  0  0
 21 22  1  0  0  0  0
 22 23  1  0  0  0  0
 23 24  1  0  0  0  0
 26 25  1  0  0  0  0
 27 26  1  0  0  0  0
 28 29  1  0  0  0  0
 29 27  1  0  0  0  0
 30 33  1  0  0  0  0
 30 31  2  0  0  0  0
 31 32  1  0  0  0  0
 32 29  2  0  0  0  0
 33 28  2  0  0  0  0
M  END
>  <MODEL>
2

>  <REMARK>
 VINA RESULT:      -7.0      2.396      4.961
  Name = 
  11 active torsions:
  status: ('A' for Active; 'I' for Inactive)
    1  A    between atoms: C_2  and  N_29
    2  A    between atoms: C_4  and  C_22
    3  A    between atoms: C_5  and  N_29
    4  A    between atoms: C_5  and  C_31
    5  A    between atoms: C_8  and  C_31
    6  A    between atoms: C_9  and  C_17
    7  A    between atoms: C_9  and  C_18
    8  A    between atoms: C_11  and  C_31
    9  A    between atoms: C_11  and  N_33
   10  A    between atoms: C_14  and  C_26
   11  A    between atoms: C_26  and  N_33
                            x       y       z     vdW  Elec       q    Type
                         _______ _______ _______ _____ _____    ______ ____

>  <TORSDO>
F 11

$$$$
=
 OpenBabel11072412263D

 33 36  0  0  1  0  0  0  0  0999 V2000
  159.9820  209.6460  152.7390 C   0  0  0  0  0  2  0  0  0  0  0  0
  161.4900  207.2460  148.1070 C   0  0  0  0  0  3  0  0  0  0  0  0
  161.5780  207.3340  151.1880 C   0  0  0  0  0  0  0  0  0  0  0  0
  160.9880  205.4110  149.6910 C   0  0  0  0  0  0  0  0  0  0  0  0
  161.4300  205.9030  150.8540 C   0  0  0  0  0  3  0  0  0  0  0  0
  162.1820  209.8930  151.0920 S   0  0  0  0  0  0  0  0  0  0  0  0
  161.8740  208.3120  150.3300 C   0  0  0  0  0  0  0  0  0  0  0  0
  161.4510  209.2630  152.6420 C   0  0  2  0  0  3  0  0  0  0  0  0
  162.0860  208.1570  148.8770 C   0  0  0  0  0  3  0  0  0  0  0  0
  161.5670  207.7470  152.6150 C   0  0  0  0  0  2  0  0  0  0  0  0
  160.4490  206.3080  148.6190 C   0  0  0  0  0  2  0  0  0  0  0  0
  161.1490  203.3350  148.3210 N   0  0  0  0  0  0  0  0  0  0  0  0
  160.6790  201.9110  149.9380 O   0  0  0  0  0  0  0  0  0  0  0  0
  160.6280  203.0840  150.4940 N   0  0  0  0  0  0  0  0  0  0  0  0
  160.9200  203.9530  149.5020 C   0  0  0  0  0  0  0  0  0  0  0  0
  161.1330  200.9570  147.7700 N   0  0  0  0  0  1  0  0  0  0  0  0
  160.9820  202.0480  148.6730 C   0  0  0  0  0  0  0  0  0  0  0  0
  158.6030  211.4530  153.6370 C   0  0  0  0  0  3  0  0  0  0  0  0
  159.8240  210.9750  153.3980 C   0  0  0  0  0  3  0  0  0  0  0  0
  158.3720  212.7930  154.2810 C   0  0  1  0  0  3  0  0  0  0  0  0
  157.0790  212.8290  155.0950 C   0  0  0  0  0  2  0  0  0  0  0  0
  156.3050  211.6060  154.9210 N   0  0  0  0  0  2  0  0  0  0  0  0
  155.5250  211.4190  156.1330 C   0  0  0  0  0  2  0  0  0  0  0  0
  156.2880  211.7780  157.2470 O   0  0  0  0  0  1  0  0  0  0  0  0
  159.5760  213.2650  155.0930 C   0  0  0  0  0  2  0  0  0  0  0  0
  159.3720  212.9730  156.5020 N   0  0  0  0  0  2  0  0  0  0  0  0
  160.6590  212.5600  157.0340 C   0  0  0  0  0  2  0  0  0  0  0  0
  159.7310  210.2320  157.0600 C   0  0  0  0  0  3  0  0  0  0  0  0
  160.8200  211.0870  156.8810 C   0  0  0  0  0  0  0  0  0  0  0  0
  161.1000  208.3390  156.6290 C   0  0  0  0  0  3  0  0  0  0  0  0
  162.2150  209.1600  156.4510 C   0  0  0  0  0  3  0  0  0  0  0  0
  162.0700  210.5420  156.5810 C   0  0  0  0  0  3  0  0  0  0  0  0
  159.8910  208.8870  156.9300 N   0  0  0  0  0  0  0  0  0  0  0  0
  1 19  1  0  0  0  0
  2 11  1  0  0  0  0
  2  9  2  0  0  0  0
  3 10  1  0  0  0  0
  4  5  2  0  0  0  0
  5  3  1  0  0  0  0
  6  8  1  0  0  0  0
  7  6  1  0  0  0  0
  7  3  2  0  0  0  0
  8  1  1  6  0  0  0
  9  7  1  0  0  0  0
 10  8  1  0  0  0  0
 11  4  1  0  0  0  0
 12 17  2  0  0  0  0
 12 15  1  0  0  0  0
 13 14  1  0  0  0  0
 15  4  1  0  0  0  0
 15 14  2  0  0  0  0
 16 17  1  0  0  0  0
 17 13  1  0  0  0  0
 19 18  2  0  0  0  0
 20 18  1  1  0  0  0
 20 25  1  0  0  0  0
 20 21  1  0  0  0  0
 22 21  1  0  0  0  0
 22 23  1  0  0  0  0
 23 24  1  0  0  0  0
 25 26  1  0  0  0  0
 26 27  1  0  0  0  0
 29 27  1  0  0  0  0
 29 28  2  0  0  0  0
 30 33  2  0  0  0  0
 31 32  2  0  0  0  0
 31 30  1  0  0  0  0
 32 29  1  0  0  0  0
 33 28  1  0  0  0  0
M  END
>  <MODEL>
3

>  <REMARK>
 VINA RESULT:      -7.0      1.966      2.251
  Name = 
  11 active torsions:
  status: ('A' for Active; 'I' for Inactive)
    1  A    between atoms: C_2  and  N_29
    2  A    between atoms: C_4  and  C_22
    3  A    between atoms: C_5  and  N_29
    4  A    between atoms: C_5  and  C_31
    5  A    between atoms: C_8  and  C_31
    6  A    between atoms: C_9  and  C_17
    7  A    between atoms: C_9  and  C_18
    8  A    between atoms: C_11  and  C_31
    9  A    between atoms: C_11  and  N_33
   10  A    between atoms: C_14  and  C_26
   11  A    between atoms: C_26  and  N_33
                            x       y       z     vdW  Elec       q    Type
                         _______ _______ _______ _____ _____    ______ ____

>  <TORSDO>
F 11

$$$$
=
 OpenBabel11072412263D

 33 36  0  0  1  0  0  0  0  0999 V2000
  160.5620  207.2840  155.1840 C   0  0  0  0  0  2  0  0  0  0  0  0
  157.5170  211.7270  155.8750 C   0  0  0  0  0  3  0  0  0  0  0  0
  160.1100  210.4400  154.8140 C   0  0  0  0  0  0  0  0  0  0  0  0
  158.4800  211.9110  153.6020 C   0  0  0  0  0  0  0  0  0  0  0  0
  159.7050  211.3970  153.7640 C   0  0  0  0  0  3  0  0  0  0  0  0
  160.4550  209.2390  157.1300 S   0  0  0  0  0  0  0  0  0  0  0  0
  159.6010  210.3670  156.0450 C   0  0  0  0  0  0  0  0  0  0  0  0
  161.3000  208.5200  155.6790 C   0  0  2  0  0  3  0  0  0  0  0  0
  158.5180  211.2100  156.5880 C   0  0  0  0  0  3  0  0  0  0  0  0
  161.2940  209.5730  154.5820 C   0  0  0  0  0  2  0  0  0  0  0  0
  157.3210  211.4380  154.4250 C   0  0  0  0  0  2  0  0  0  0  0  0
  159.0140  212.9780  151.4130 N   0  0  0  0  0  0  0  0  0  0  0  0
  157.3350  214.4060  151.3960 O   0  0  0  0  0  0  0  0  0  0  0  0
  157.2100  213.7520  152.5110 N   0  0  0  0  0  0  0  0  0  0  0  0
  158.2380  212.8760  152.5170 C   0  0  0  0  0  0  0  0  0  0  0  0
  158.8000  214.4530  149.4810 N   0  0  0  0  0  1  0  0  0  0  0  0
  158.3810  213.9620  150.7500 C   0  0  0  0  0  0  0  0  0  0  0  0
  161.0840  205.6280  153.4650 C   0  0  0  0  0  3  0  0  0  0  0  0
  161.0130  206.9130  153.8120 C   0  0  0  0  0  3  0  0  0  0  0  0
  161.5480  205.1840  152.1050 C   0  0  1  0  0  3  0  0  0  0  0  0
  160.7030  204.0360  151.5520 C   0  0  0  0  0  2  0  0  0  0  0  0
  161.5120  202.8490  151.3040 N   0  0  0  0  0  2  0  0  0  0  0  0
  160.6590  201.8860  150.6280 C   0  0  0  0  0  2  0  0  0  0  0  0
  161.3740  201.2550  149.6070 O   0  0  0  0  0  1  0  0  0  0  0  0
  161.6580  206.3430  151.1190 C   0  0  0  0  0  2  0  0  0  0  0  0
  160.7420  206.1430  150.0090 N   0  0  0  0  0  2  0  0  0  0  0  0
  161.3070  206.8410  148.8670 C   0  0  0  0  0  2  0  0  0  0  0  0
  162.0550  206.3180  146.5330 C   0  0  0  0  0  3  0  0  0  0  0  0
  161.5740  205.8740  147.7660 C   0  0  0  0  0  0  0  0  0  0  0  0
  162.0510  204.0960  145.6910 C   0  0  0  0  0  3  0  0  0  0  0  0
  161.5620  203.6140  146.9060 C   0  0  0  0  0  3  0  0  0  0  0  0
  161.3210  204.5130  147.9470 C   0  0  0  0  0  3  0  0  0  0  0  0
  162.2830  205.4280  145.5290 N   0  0  0  0  0  0  0  0  0  0  0  0
  2  9  2  0  0  0  0
  3  7  2  0  0  0  0
  4  5  2  0  0  0  0
  4 11  1  0  0  0  0
  5  3  1  0  0  0  0
  7  9  1  0  0  0  0
  7  6  1  0  0  0  0
  8  1  1  6  0  0  0
  8  6  1  0  0  0  0
 10  3  1  0  0  0  0
 10  8  1  0  0  0  0
 11  2  1  0  0  0  0
 12 15  1  0  0  0  0
 13 14  1  0  0  0  0
 14 15  2  0  0  0  0
 15  4  1  0  0  0  0
 16 17  1  0  0  0  0
 17 13  1  0  0  0  0
 17 12  2  0  0  0  0
 18 19  2  0  0  0  0
 19  1  1  0  0  0  0
 20 25  1  6  0  0  0
 20 18  1  0  0  0  0
 21 20  1  0  0  0  0
 22 21  1  0  0  0  0
 23 22  1  0  0  0  0
 24 23  1  0  0  0  0
 26 25  1  0  0  0  0
 27 26  1  0  0  0  0
 28 29  1  0  0  0  0
 29 32  2  0  0  0  0
 29 27  1  0  0  0  0
 30 31  2  0  0  0  0
 31 32  1  0  0  0  0
 33 30  1  0  0  0  0
 33 28  2  0  0  0  0
M  END
>  <MODEL>
4

>  <REMARK>
 VINA RESULT:      -6.9      2.399      9.610
  Name = 
  11 active torsions:
  status: ('A' for Active; 'I' for Inactive)
    1  A    between atoms: C_2  and  N_29
    2  A    between atoms: C_4  and  C_22
    3  A    between atoms: C_5  and  N_29
    4  A    between atoms: C_5  and  C_31
    5  A    between atoms: C_8  and  C_31
    6  A    between atoms: C_9  and  C_17
    7  A    between atoms: C_9  and  C_18
    8  A    between atoms: C_11  and  C_31
    9  A    between atoms: C_11  and  N_33
   10  A    between atoms: C_14  and  C_26
   11  A    between atoms: C_26  and  N_33
                            x       y       z     vdW  Elec       q    Type
                         _______ _______ _______ _____ _____    ______ ____

>  <TORSDO>
F 11

$$$$
=
 OpenBabel11072412263D

 33 36  0  0  1  0  0  0  0  0999 V2000
  160.4740  207.3420  155.2260 C   0  0  0  0  0  2  0  0  0  0  0  0
  157.6180  211.9590  155.3520 C   0  0  0  0  0  3  0  0  0  0  0  0
  160.2570  210.5030  154.7070 C   0  0  0  0  0  0  0  0  0  0  0  0
  158.9000  212.0120  153.2350 C   0  0  0  0  0  0  0  0  0  0  0  0
  160.0580  211.4410  153.5840 C   0  0  0  0  0  3  0  0  0  0  0  0
  160.2040  209.3680  157.0810 S   0  0  0  0  0  0  0  0  0  0  0  0
  159.5770  210.4990  155.8550 C   0  0  0  0  0  0  0  0  0  0  0  0
  161.2040  208.5550  155.7860 C   0  0  2  0  0  3  0  0  0  0  0  0
  158.4780  211.4160  156.2150 C   0  0  0  0  0  3  0  0  0  0  0  0
  161.4110  209.5670  154.6710 C   0  0  0  0  0  2  0  0  0  0  0  0
  157.6120  211.6290  153.8970 C   0  0  0  0  0  2  0  0  0  0  0  0
  159.8370  213.0260  151.1610 N   0  0  0  0  0  0  0  0  0  0  0  0
  158.1930  214.4480  150.7920 O   0  0  0  0  0  0  0  0  0  0  0  0
  157.8600  213.8200  151.8790 N   0  0  0  0  0  0  0  0  0  0  0  0
  158.8680  212.9480  152.1000 C   0  0  0  0  0  0  0  0  0  0  0  0
  159.9930  214.4530  149.1870 N   0  0  0  0  0  1  0  0  0  0  0  0
  159.3420  213.9910  150.3660 C   0  0  0  0  0  0  0  0  0  0  0  0
  160.8540  207.0910  152.8250 C   0  0  0  0  0  3  0  0  0  0  0  0
  161.2160  206.7680  154.0660 C   0  0  0  0  0  3  0  0  0  0  0  0
  161.5470  206.5340  151.6120 C   0  0  1  0  0  3  0  0  0  0  0  0
  162.5210  207.5340  150.9910 C   0  0  0  0  0  2  0  0  0  0  0  0
  161.8250  208.5160  150.1680 N   0  0  0  0  0  2  0  0  0  0  0  0
  162.0490  209.8170  150.7770 C   0  0  0  0  0  2  0  0  0  0  0  0
  162.0780  210.8040  149.7890 O   0  0  0  0  0  1  0  0  0  0  0  0
  162.2050  205.1840  151.8840 C   0  0  0  0  0  2  0  0  0  0  0  0
  161.2730  204.1070  151.5970 N   0  0  0  0  0  2  0  0  0  0  0  0
  160.6260  204.4370  150.3380 C   0  0  0  0  0  2  0  0  0  0  0  0
  161.1250  203.6120  148.0250 C   0  0  0  0  0  3  0  0  0  0  0  0
  160.8310  203.3320  149.3610 C   0  0  0  0  0  0  0  0  0  0  0  0
  161.1890  201.2930  147.5140 C   0  0  0  0  0  3  0  0  0  0  0  0
  160.8870  200.9720  148.8390 C   0  0  0  0  0  3  0  0  0  0  0  0
  160.7060  202.0020  149.7640 C   0  0  0  0  0  3  0  0  0  0  0  0
  161.2980  202.5960  147.1370 N   0  0  0  0  0  0  0  0  0  0  0  0
  2  9  2  0  0  0  0
  3  7  2  0  0  0  0
  4  5  2  0  0  0  0
  4 11  1  0  0  0  0
  5  3  1  0  0  0  0
  7  9  1  0  0  0  0
  7  6  1  0  0  0  0
  8  1  1  6  0  0  0
  8  6  1  0  0  0  0
 10  3  1  0  0  0  0
 10  8  1  0  0  0  0
 11  2  1  0  0  0  0
 12 15  1  0  0  0  0
 13 14  1  0  0  0  0
 14 15  2  0  0  0  0
 15  4  1  0  0  0  0
 16 17  1  0  0  0  0
 17 13  1  0  0  0  0
 17 12  2  0  0  0  0
 18 19  2  0  0  0  0
 19  1  1  0  0  0  0
 20 21  1  1  0  0  0
 20 25  1  0  0  0  0
 20 18  1  0  0  0  0
 22 23  1  0  0  0  0
 22 21  1  0  0  0  0
 24 23  1  0  0  0  0
 26 25  1  0  0  0  0
 27 26  1  0  0  0  0
 28 29  1  0  0  0  0
 29 32  2  0  0  0  0
 29 27  1  0  0  0  0
 30 31  2  0  0  0  0
 31 32  1  0  0  0  0
 33 30  1  0  0  0  0
 33 28  2  0  0  0  0
M  END
>  <MODEL>
5

>  <REMARK>
 VINA RESULT:      -6.8      2.815      8.975
  Name = 
  11 active torsions:
  status: ('A' for Active; 'I' for Inactive)
    1  A    between atoms: C_2  and  N_29
    2  A    between atoms: C_4  and  C_22
    3  A    between atoms: C_5  and  N_29
    4  A    between atoms: C_5  and  C_31
    5  A    between atoms: C_8  and  C_31
    6  A    between atoms: C_9  and  C_17
    7  A    between atoms: C_9  and  C_18
    8  A    between atoms: C_11  and  C_31
    9  A    between atoms: C_11  and  N_33
   10  A    between atoms: C_14  and  C_26
   11  A    between atoms: C_26  and  N_33
                            x       y       z     vdW  Elec       q    Type
                         _______ _______ _______ _____ _____    ______ ____

>  <TORSDO>
F 11

$$$$
=
 OpenBabel11072412263D

 33 36  0  0  1  0  0  0  0  0999 V2000
  160.0750  208.9610  152.9380 C   0  0  0  0  0  2  0  0  0  0  0  0
  161.4640  207.0550  148.0460 C   0  0  0  0  0  3  0  0  0  0  0  0
  161.6430  206.8330  151.1160 C   0  0  0  0  0  0  0  0  0  0  0  0
  161.0240  205.0640  149.4500 C   0  0  0  0  0  0  0  0  0  0  0  0
  161.4960  205.4420  150.6440 C   0  0  0  0  0  3  0  0  0  0  0  0
  162.2240  209.3960  151.2610 S   0  0  0  0  0  0  0  0  0  0  0  0
  161.9060  207.8960  150.3520 C   0  0  0  0  0  0  0  0  0  0  0  0
  161.5440  208.6050  152.7600 C   0  0  2  0  0  3  0  0  0  0  0  0
  162.0760  207.8900  148.8860 C   0  0  0  0  0  3  0  0  0  0  0  0
  161.6720  207.1010  152.5770 C   0  0  0  0  0  2  0  0  0  0  0  0
  160.4470  206.0590  148.4910 C   0  0  0  0  0  2  0  0  0  0  0  0
  161.2190  203.1320  147.8880 N   0  0  0  0  0  0  0  0  0  0  0  0
  160.7120  201.5580  149.3450 O   0  0  0  0  0  0  0  0  0  0  0  0
  160.6470  202.6700  150.0120 N   0  0  0  0  0  0  0  0  0  0  0  0
  160.9610  203.6320  149.1170 C   0  0  0  0  0  0  0  0  0  0  0  0
  161.2190  200.8210  147.1050 N   0  0  0  0  0  1  0  0  0  0  0  0
  161.0460  201.8170  148.1080 C   0  0  0  0  0  0  0  0  0  0  0  0
  159.9070  211.2810  153.6860 C   0  0  0  0  0  3  0  0  0  0  0  0
  159.8470  210.4120  152.6780 C   0  0  0  0  0  3  0  0  0  0  0  0
  159.6700  212.7540  153.4980 C   0  0  1  0  0  3  0  0  0  0  0  0
  158.9240  213.0580  152.1990 C   0  0  0  0  0  2  0  0  0  0  0  0
  159.8200  213.5930  151.1810 N   0  0  0  0  0  2  0  0  0  0  0  0
  158.9870  214.1270  150.1170 C   0  0  0  0  0  2  0  0  0  0  0  0
  157.8430  213.3390  149.9700 O   0  0  0  0  0  1  0  0  0  0  0  0
  159.0000  213.3970  154.7090 C   0  0  0  0  0  2  0  0  0  0  0  0
  157.9240  214.2730  154.2780 N   0  0  0  0  0  2  0  0  0  0  0  0
  156.9650  214.3270  155.3680 C   0  0  0  0  0  2  0  0  0  0  0  0
  155.9270  212.5700  156.8230 C   0  0  0  0  0  3  0  0  0  0  0  0
  156.3400  212.9880  155.5570 C   0  0  0  0  0  0  0  0  0  0  0  0
  155.2010  210.4880  155.9400 C   0  0  0  0  0  3  0  0  0  0  0  0
  155.6090  210.8650  154.6590 C   0  0  0  0  0  3  0  0  0  0  0  0
  156.1840  212.1230  154.4720 C   0  0  0  0  0  3  0  0  0  0  0  0
  155.3690  211.3400  156.9880 N   0  0  0  0  0  0  0  0  0  0  0  0
  2 11  1  0  0  0  0
  2  9  2  0  0  0  0
  3 10  1  0  0  0  0
  4  5  2  0  0  0  0
  5  3  1  0  0  0  0
  6  8  1  0  0  0  0
  7  3  2  0  0  0  0
  7  6  1  0  0  0  0
  8  1  1  6  0  0  0
  9  7  1  0  0  0  0
 10  8  1  0  0  0  0
 11  4  1  0  0  0  0
 12 17  2  0  0  0  0
 12 15  1  0  0  0  0
 13 14  1  0  0  0  0
 15  4  1  0  0  0  0
 15 14  2  0  0  0  0
 16 17  1  0  0  0  0
 17 13  1  0  0  0  0
 19  1  1  0  0  0  0
 19 18  2  0  0  0  0
 20 21  1  6  0  0  0
 20 18  1  0  0  0  0
 20 25  1  0  0  0  0
 22 21  1  0  0  0  0
 23 22  1  0  0  0  0
 24 23  1  0  0  0  0
 26 25  1  0  0  0  0
 26 27  1  0  0  0  0
 27 29  1  0  0  0  0
 28 33  1  0  0  0  0
 29 28  2  0  0  0  0
 30 33  2  0  0  0  0
 31 30  1  0  0  0  0
 32 31  2  0  0  0  0
 32 29  1  0  0  0  0
M  END
>  <MODEL>
6

>  <REMARK>
 VINA RESULT:      -6.2      1.927      2.666
  Name = 
  11 active torsions:
  status: ('A' for Active; 'I' for Inactive)
    1  A    between atoms: C_2  and  N_29
    2  A    between atoms: C_4  and  C_22
    3  A    between atoms: C_5  and  N_29
    4  A    between atoms: C_5  and  C_31
    5  A    between atoms: C_8  and  C_31
    6  A    between atoms: C_9  and  C_17
    7  A    between atoms: C_9  and  C_18
    8  A    between atoms: C_11  and  C_31
    9  A    between atoms: C_11  and  N_33
   10  A    between atoms: C_14  and  C_26
   11  A    between atoms: C_26  and  N_33
                            x       y       z     vdW  Elec       q    Type
                         _______ _______ _______ _____ _____    ______ ____

>  <TORSDO>
F 11

$$$$
=
 OpenBabel11072412263D

 33 36  0  0  1  0  0  0  0  0999 V2000
  160.4700  209.2830  152.3940 C   0  0  0  0  0  2  0  0  0  0  0  0
  161.1600  206.7860  147.6220 C   0  0  0  0  0  3  0  0  0  0  0  0
  161.8180  206.9670  150.6280 C   0  0  0  0  0  0  0  0  0  0  0  0
  161.0170  204.9860  149.3150 C   0  0  0  0  0  0  0  0  0  0  0  0
  161.6530  205.5230  150.3630 C   0  0  0  0  0  3  0  0  0  0  0  0
  162.3170  209.5360  150.3590 S   0  0  0  0  0  0  0  0  0  0  0  0
  161.9190  207.9260  149.7060 C   0  0  0  0  0  0  0  0  0  0  0  0
  161.9060  208.9340  152.0330 C   0  0  2  0  0  3  0  0  0  0  0  0
  161.8620  207.7340  148.2440 C   0  0  0  0  0  3  0  0  0  0  0  0
  162.0610  207.4210  152.0220 C   0  0  0  0  0  2  0  0  0  0  0  0
  160.2620  205.8380  148.3420 C   0  0  0  0  0  2  0  0  0  0  0  0
  161.2010  202.8630  148.0220 N   0  0  0  0  0  0  0  0  0  0  0  0
  160.7250  201.4960  149.6850 O   0  0  0  0  0  0  0  0  0  0  0  0
  160.6640  202.6870  150.1980 N   0  0  0  0  0  0  0  0  0  0  0  0
  160.9580  203.5220  149.1780 C   0  0  0  0  0  0  0  0  0  0  0  0
  161.2030  200.4670  147.5560 N   0  0  0  0  0  1  0  0  0  0  0  0
  161.0390  201.5890  148.4190 C   0  0  0  0  0  0  0  0  0  0  0  0
  161.0360  209.8360  154.7060 C   0  0  0  0  0  3  0  0  0  0  0  0
  160.2500  209.1650  153.8650 C   0  0  0  0  0  3  0  0  0  0  0  0
  160.8810  209.7480  156.2000 C   0  0  1  0  0  3  0  0  0  0  0  0
  162.2210  209.5670  156.9110 C   0  0  0  0  0  2  0  0  0  0  0  0
  163.2670  210.3700  156.2900 N   0  0  0  0  0  2  0  0  0  0  0  0
  163.6600  211.3800  157.2590 C   0  0  0  0  0  2  0  0  0  0  0  0
  164.9520  211.8300  156.9770 O   0  0  0  0  0  1  0  0  0  0  0  0
  160.0790  210.9130  156.7730 C   0  0  0  0  0  2  0  0  0  0  0  0
  160.3200  212.1160  155.9930 N   0  0  0  0  0  2  0  0  0  0  0  0
  159.4180  213.1340  156.5030 C   0  0  0  0  0  2  0  0  0  0  0  0
  157.0500  212.3930  156.1460 C   0  0  0  0  0  3  0  0  0  0  0  0
  158.1550  213.1300  155.7130 C   0  0  0  0  0  0  0  0  0  0  0  0
  155.8010  213.0820  154.2460 C   0  0  0  0  0  3  0  0  0  0  0  0
  156.8860  213.8230  153.7750 C   0  0  0  0  0  3  0  0  0  0  0  0
  158.0690  213.8420  154.5160 C   0  0  0  0  0  3  0  0  0  0  0  0
  155.9050  212.3850  155.4100 N   0  0  0  0  0  0  0  0  0  0  0  0
  1 19  1  0  0  0  0
  2  9  2  0  0  0  0
  2 11  1  0  0  0  0
  3 10  1  0  0  0  0
  4  5  2  0  0  0  0
  5  3  1  0  0  0  0
  6  8  1  0  0  0  0
  7  6  1  0  0  0  0
  7  3  2  0  0  0  0
  8  1  1  6  0  0  0
  9  7  1  0  0  0  0
 10  8  1  0  0  0  0
 11  4  1  0  0  0  0
 12 17  2  0  0  0  0
 12 15  1  0  0  0  0
 13 14  1  0  0  0  0
 15  4  1  0  0  0  0
 15 14  2  0  0  0  0
 16 17  1  0  0  0  0
 17 13  1  0  0  0  0
 19 18  2  0  0  0  0
 20 18  1  6  0  0  0
 20 25  1  0  0  0  0
 20 21  1  0  0  0  0
 22 21  1  0  0  0  0
 22 23  1  0  0  0  0
 24 23  1  0  0  0  0
 26 27  1  0  0  0  0
 26 25  1  0  0  0  0
 29 28  1  0  0  0  0
 29 27  1  0  0  0  0
 30 33  1  0  0  0  0
 31 30  2  0  0  0  0
 31 32  1  0  0  0  0
 32 29  2  0  0  0  0
 33 28  2  0  0  0  0
M  END
>  <MODEL>
7

>  <REMARK>
 VINA RESULT:      -6.0      2.461      4.319
  Name = 
  11 active torsions:
  status: ('A' for Active; 'I' for Inactive)
    1  A    between atoms: C_2  and  N_29
    2  A    between atoms: C_4  and  C_22
    3  A    between atoms: C_5  and  N_29
    4  A    between atoms: C_5  and  C_31
    5  A    between atoms: C_8  and  C_31
    6  A    between atoms: C_9  and  C_17
    7  A    between atoms: C_9  and  C_18
    8  A    between atoms: C_11  and  C_31
    9  A    between atoms: C_11  and  N_33
   10  A    between atoms: C_14  and  C_26
   11  A    between atoms: C_26  and  N_33
                            x       y       z     vdW  Elec       q    Type
                         _______ _______ _______ _____ _____    ______ ____

>  <TORSDO>
F 11

$$$$
=
 OpenBabel11072412263D

 33 36  0  0  1  0  0  0  0  0999 V2000
  162.1680  205.2290  152.6270 C   0  0  0  0  0  2  0  0  0  0  0  0
  161.7260  202.3110  148.0680 C   0  0  0  0  0  3  0  0  0  0  0  0
  160.6790  204.5960  149.8540 C   0  0  0  0  0  0  0  0  0  0  0  0
  161.2740  204.6570  147.4190 C   0  0  0  0  0  0  0  0  0  0  0  0
  160.6040  205.1260  148.4790 C   0  0  0  0  0  3  0  0  0  0  0  0
  160.7220  202.9820  151.9330 S   0  0  0  0  0  0  0  0  0  0  0  0
  160.8980  203.3240  150.1930 C   0  0  0  0  0  0  0  0  0  0  0  0
  160.7600  204.7780  152.2650 C   0  0  2  0  0  3  0  0  0  0  0  0
  161.1330  202.2050  149.2580 C   0  0  0  0  0  3  0  0  0  0  0  0
  160.3250  205.4840  150.9910 C   0  0  0  0  0  2  0  0  0  0  0  0
  162.3120  203.5870  147.5650 C   0  0  0  0  0  2  0  0  0  0  0  0
  161.7810  204.9540  144.9970 N   0  0  0  0  0  0  0  0  0  0  0  0
  160.2780  206.5180  144.6000 O   0  0  0  0  0  0  0  0  0  0  0  0
  160.1540  206.2410  145.8630 N   0  0  0  0  0  0  0  0  0  0  0  0
  161.0730  205.2820  146.1020 C   0  0  0  0  0  0  0  0  0  0  0  0
  161.6110  205.8100  142.7180 N   0  0  0  0  0  1  0  0  0  0  0  0
  161.2230  205.7720  144.0880 C   0  0  0  0  0  0  0  0  0  0  0  0
  160.9750  206.8650  153.9950 C   0  0  0  0  0  3  0  0  0  0  0  0
  162.1300  206.4610  153.4670 C   0  0  0  0  0  3  0  0  0  0  0  0
  160.8620  208.1070  154.8360 C   0  0  1  0  0  3  0  0  0  0  0  0
  161.4200  207.9050  156.2440 C   0  0  0  0  0  2  0  0  0  0  0  0
  161.9650  209.1450  156.7850 N   0  0  0  0  0  2  0  0  0  0  0  0
  160.8400  209.9320  157.2610 C   0  0  0  0  0  2  0  0  0  0  0  0
  160.9380  211.2390  156.7760 O   0  0  0  0  0  1  0  0  0  0  0  0
  161.4620  209.3320  154.1500 C   0  0  0  0  0  2  0  0  0  0  0  0
  160.7520  209.6090  152.9130 N   0  0  0  0  0  2  0  0  0  0  0  0
  161.5880  210.5140  152.1430 C   0  0  0  0  0  2  0  0  0  0  0  0
  162.0000  210.7700  149.6840 C   0  0  0  0  0  3  0  0  0  0  0  0
  161.8460  209.9370  150.7940 C   0  0  0  0  0  0  0  0  0  0  0  0
  162.2960  208.8880  148.2660 C   0  0  0  0  0  3  0  0  0  0  0  0
  162.1380  208.0210  149.3490 C   0  0  0  0  0  3  0  0  0  0  0  0
  161.9100  208.5540  150.6190 C   0  0  0  0  0  3  0  0  0  0  0  0
  162.2220  210.2330  148.4540 N   0  0  0  0  0  0  0  0  0  0  0  0
  1 19  1  0  0  0  0
  2  9  2  0  0  0  0
  3  7  2  0  0  0  0
  3 10  1  0  0  0  0
  4 11  1  0  0  0  0
  4  5  2  0  0  0  0
  5  3  1  0  0  0  0
  6  8  1  0  0  0  0
  7  6  1  0  0  0  0
  8  1  1  6  0  0  0
  9  7  1  0  0  0  0
 10  8  1  0  0  0  0
 11  2  1  0  0  0  0
 12 15  1  0  0  0  0
 13 14  1  0  0  0  0
 14 15  2  0  0  0  0
 15  4  1  0  0  0  0
 16 17  1  0  0  0  0
 17 13  1  0  0  0  0
 17 12  2  0  0  0  0
 19 18  2  0  0  0  0
 20 18  1  6  0  0  0
 20 21  1  0  0  0  0
 21 22  1  0  0  0  0
 22 23  1  0  0  0  0
 24 23  1  0  0  0  0
 25 20  1  0  0  0  0
 26 25  1  0  0  0  0
 27 26  1  0  0  0  0
 28 29  1  0  0  0  0
 29 27  1  0  0  0  0
 30 33  1  0  0  0  0
 30 31  2  0  0  0  0
 31 32  1  0  0  0  0
 32 29  2  0  0  0  0
 33 28  2  0  0  0  0
M  END
>  <MODEL>
8

>  <REMARK>
 VINA RESULT:      -5.7      3.756      5.955
  Name = 
  11 active torsions:
  status: ('A' for Active; 'I' for Inactive)
    1  A    between atoms: C_2  and  N_29
    2  A    between atoms: C_4  and  C_22
    3  A    between atoms: C_5  and  N_29
    4  A    between atoms: C_5  and  C_31
    5  A    between atoms: C_8  and  C_31
    6  A    between atoms: C_9  and  C_17
    7  A    between atoms: C_9  and  C_18
    8  A    between atoms: C_11  and  C_31
    9  A    between atoms: C_11  and  N_33
   10  A    between atoms: C_14  and  C_26
   11  A    between atoms: C_26  and  N_33
                            x       y       z     vdW  Elec       q    Type
                         _______ _______ _______ _____ _____    ______ ____

>  <TORSDO>
F 11

$$$$
=
 OpenBabel11072412263D

 33 36  0  0  1  0  0  0  0  0999 V2000
  160.8680  207.7370  149.8190 C   0  0  0  0  0  2  0  0  0  0  0  0
  160.3710  207.6240  155.2250 C   0  0  0  0  0  3  0  0  0  0  0  0
  161.7330  208.7990  152.7220 C   0  0  0  0  0  0  0  0  0  0  0  0
  160.6240  210.0100  154.6170 C   0  0  0  0  0  0  0  0  0  0  0  0
  161.4970  209.9590  153.6040 C   0  0  0  0  0  3  0  0  0  0  0  0
  162.1750  206.3650  151.8260 S   0  0  0  0  0  0  0  0  0  0  0  0
  161.6190  207.5160  153.0680 C   0  0  0  0  0  0  0  0  0  0  0  0
  162.1730  207.7200  150.6020 C   0  0  2  0  0  3  0  0  0  0  0  0
  161.2100  207.0070  154.3920 C   0  0  0  0  0  3  0  0  0  0  0  0
  162.3070  209.0250  151.3700 C   0  0  0  0  0  2  0  0  0  0  0  0
  159.6640  208.8890  154.8740 C   0  0  0  0  0  2  0  0  0  0  0  0
  159.7330  212.2870  155.1000 N   0  0  0  0  0  0  0  0  0  0  0  0
  160.8340  212.6110  156.9820 O   0  0  0  0  0  0  0  0  0  0  0  0
  161.2000  211.4330  156.5740 N   0  0  0  0  0  0  0  0  0  0  0  0
  160.5210  211.2370  155.4230 C   0  0  0  0  0  0  0  0  0  0  0  0
  159.3670  214.3920  156.2800 N   0  0  0  0  0  1  0  0  0  0  0  0
  159.9800  213.1150  156.1300 C   0  0  0  0  0  0  0  0  0  0  0  0
  161.3580  206.7950  147.6180 C   0  0  0  0  0  3  0  0  0  0  0  0
  160.8300  206.6210  148.8290 C   0  0  0  0  0  3  0  0  0  0  0  0
  161.3380  205.7190  146.5670 C   0  0  1  0  0  3  0  0  0  0  0  0
  160.7250  206.2050  145.2530 C   0  0  0  0  0  2  0  0  0  0  0  0
  160.8730  205.2110  144.1970 N   0  0  0  0  0  2  0  0  0  0  0  0
  159.7040  204.3490  144.2570 C   0  0  0  0  0  2  0  0  0  0  0  0
  160.0990  203.0340  144.5150 O   0  0  0  0  0  1  0  0  0  0  0  0
  162.7080  205.0790  146.3600 C   0  0  0  0  0  2  0  0  0  0  0  0
  162.7010  203.7150  146.8600 N   0  0  0  0  0  2  0  0  0  0  0  0
  161.3120  203.3640  147.1050 C   0  0  0  0  0  2  0  0  0  0  0  0
  161.2160  201.3330  148.5700 C   0  0  0  0  0  3  0  0  0  0  0  0
  161.1830  202.7230  148.4430 C   0  0  0  0  0  0  0  0  0  0  0  0
  160.9130  201.5040  150.9200 C   0  0  0  0  0  3  0  0  0  0  0  0
  160.8660  202.8970  150.8340 C   0  0  0  0  0  3  0  0  0  0  0  0
  160.9990  203.5050  149.5850 C   0  0  0  0  0  3  0  0  0  0  0  0
  161.0830  200.7570  149.7960 N   0  0  0  0  0  0  0  0  0  0  0  0
  3  7  2  0  0  0  0
  3  5  1  0  0  0  0
  4 11  1  0  0  0  0
  4 15  1  0  0  0  0
  5  4  2  0  0  0  0
  6  7  1  0  0  0  0
  7  9  1  0  0  0  0
  8  1  1  1  0  0  0
  8 10  1  0  0  0  0
  8  6  1  0  0  0  0
  9  2  2  0  0  0  0
 10  3  1  0  0  0  0
 11  2  1  0  0  0  0
 12 15  1  0  0  0  0
 12 17  2  0  0  0  0
 14 13  1  0  0  0  0
 15 14  2  0  0  0  0
 17 16  1  0  0  0  0
 17 13  1  0  0  0  0
 18 19  2  0  0  0  0
 19  1  1  0  0  0  0
 20 21  1  6  0  0  0
 20 18  1  0  0  0  0
 22 23  1  0  0  0  0
 22 21  1  0  0  0  0
 23 24  1  0  0  0  0
 25 20  1  0  0  0  0
 25 26  1  0  0  0  0
 26 27  1  0  0  0  0
 27 29  1  0  0  0  0
 28 33  1  0  0  0  0
 29 28  2  0  0  0  0
 29 32  1  0  0  0  0
 31 30  1  0  0  0  0
 32 31  2  0  0  0  0
 33 30  2  0  0  0  0
M  END
>  <MODEL>
9

>  <REMARK>
 VINA RESULT:      -5.6      2.930      9.704
  Name = 
  11 active torsions:
  status: ('A' for Active; 'I' for Inactive)
    1  A    between atoms: C_2  and  N_29
    2  A    between atoms: C_4  and  C_22
    3  A    between atoms: C_5  and  N_29
    4  A    between atoms: C_5  and  C_31
    5  A    between atoms: C_8  and  C_31
    6  A    between atoms: C_9  and  C_17
    7  A    between atoms: C_9  and  C_18
    8  A    between atoms: C_11  and  C_31
    9  A    between atoms: C_11  and  N_33
   10  A    between atoms: C_14  and  C_26
   11  A    between atoms: C_26  and  N_33
                            x       y       z     vdW  Elec       q    Type
                         _______ _______ _______ _____ _____    ______ ____

>  <TORSDO>
F 11

$$$$
