=
 OpenBabel11072412553D

 41 46  0  0  1  0  0  0  0  0999 V2000
  162.3570  206.2960  151.2820 C   0  0  0  0  0  2  0  0  0  0  0  0
  159.2890  209.8670  155.0600 N   0  0  0  0  0  0  0  0  0  0  0  0
  158.3790  210.9540  155.3260 C   0  0  0  0  0  0  0  0  0  0  0  0
  159.6120  206.1990  147.4810 O   0  0  0  0  0  1  0  0  0  0  0  0
  161.8480  209.6160  154.8790 C   0  0  0  0  0  2  0  0  0  0  0  0
  160.2180  204.4780  152.3920 O   0  0  0  0  0  0  0  0  0  0  0  0
  160.8130  205.4040  153.0030 C   0  0  0  0  0  0  0  0  0  0  0  0
  161.5960  206.6460  154.8060 C   0  0  0  0  0  3  0  0  0  0  0  0
  162.4820  205.2720  149.0890 O   0  0  0  0  0  0  0  0  0  0  0  0
  163.4900  209.6970  150.5600 O   0  0  0  0  0  1  0  0  0  0  0  0
  161.5490  209.3290  148.1840 O   0  0  0  0  0  0  0  0  0  0  0  0
  161.1900  210.2680  150.8530 C   0  0  0  0  0  2  0  0  0  0  0  0
  160.7120  210.1100  157.1930 C   0  0  0  0  0  2  0  0  0  0  0  0
  162.8120  208.7180  148.0630 C   0  0  0  0  0  2  0  0  0  0  0  0
  161.3260  206.6280  152.3500 C   0  0  1  0  0  3  0  0  0  0  0  0
  160.5050  208.6460  156.8490 C   0  0  0  0  0  2  0  0  0  0  0  0
  161.0350  207.1480  149.2030 C   0  0  2  0  0  0  0  0  0  0  0  0
  160.0780  209.8150  151.7630 C   0  0  0  0  0  3  0  0  0  0  0  0
  161.6100  208.9080  153.5270 C   0  0  2  0  0  3  0  0  0  0  0  0
  159.7730  207.4400  149.7280 O   0  0  0  0  0  1  0  0  0  0  0  0
  160.9270  206.5480  147.8050 C   0  0  1  0  0  3  0  0  0  0  0  0
  160.5800  209.6790  155.7450 C   0  0  0  0  0  0  0  0  0  0  0  0
  160.2470  209.2350  152.9610 C   0  0  0  0  0  0  0  0  0  0  0  0
  162.1960  209.1690  150.5340 C   0  0  1  0  0  3  0  0  0  0  0  0
  159.0710  209.0570  153.8630 C   0  0  0  0  0  2  0  0  0  0  0  0
  161.6490  205.9740  149.9660 C   0  0  2  0  0  3  0  0  0  0  0  0
  161.7800  205.2900  147.8710 C   0  0  1  0  0  3  0  0  0  0  0  0
  161.9660  207.3980  153.5160 C   0  0  1  0  0  3  0  0  0  0  0  0
  161.9120  208.4340  149.2100 C   0  0  2  0  0  0  0  0  0  0  0  0
  160.9790  205.3970  154.4030 N   0  0  0  0  0  0  0  0  0  0  0  0
  157.2720  210.9970  154.7220 O   0  0  0  0  0  0  0  0  0  0  0  0
  162.7230  205.2270  146.7150 C   0  0  0  0  0  0  0  0  0  0  0  0
  162.3380  205.7230  145.4360 N   0  0  0  0  0  1  0  0  0  0  0  0
  163.8540  204.6970  146.8630 O   0  0  0  0  0  0  0  0  0  0  0  0
  157.7430  212.2460  157.2600 O   0  0  0  0  0  1  0  0  0  0  0  0
  158.7290  212.0670  156.2810 C   0  0  2  0  0  3  0  0  0  0  0  0
  159.0660  213.2730  155.6270 O   0  0  0  0  0  0  0  0  0  0  0  0
  157.1860  214.4530  155.0720 O   0  0  0  0  0  1  0  0  0  0  0  0
  158.1250  213.5290  154.6140 C   0  0  1  0  0  3  0  0  0  0  0  0
  158.8270  214.0970  153.3940 C   0  0  0  0  0  2  0  0  0  0  0  0
  159.3060  213.0590  152.5970 O   0  0  0  0  0  1  0  0  0  0  0  0
  2  3  1  0  0  0  0
  2 22  1  0  0  0  0
  3 36  1  0  0  0  0
  5 22  1  0  0  0  0
  6  7  2  0  0  0  0
  7 30  1  0  0  0  0
  9 26  1  0  0  0  0
 11 29  1  0  0  0  0
 12 18  1  0  0  0  0
 14 11  1  0  0  0  0
 15  1  1  6  0  0  0
 15  7  1  0  0  0  0
 15 28  1  0  0  0  0
 16 13  1  0  0  0  0
 17 29  1  0  0  0  0
 17 20  1  1  0  0  0
 17 26  1  0  0  0  0
 18 23  2  0  0  0  0
 19  5  1  1  0  0  0
 21  4  1  1  0  0  0
 21 27  1  0  0  0  0
 21 17  1  0  0  0  0
 22 16  1  0  0  0  0
 22 13  1  0  0  0  0
 23 19  1  0  0  0  0
 23 25  1  0  0  0  0
 24 10  1  6  0  0  0
 24 12  1  0  0  0  0
 25  2  1  0  0  0  0
 26  1  1  1  0  0  0
 27 32  1  6  0  0  0
 27  9  1  0  0  0  0
 28 19  1  0  0  0  0
 28  8  1  1  0  0  0
 29 14  1  6  0  0  0
 29 24  1  0  0  0  0
 30  8  2  0  0  0  0
 31  3  2  0  0  0  0
 32 34  2  0  0  0  0
 33 32  1  0  0  0  0
 36 35  1  1  0  0  0
 37 36  1  0  0  0  0
 39 38  1  1  0  0  0
 39 37  1  0  0  0  0
 40 39  1  0  0  0  0
 41 40  1  0  0  0  0
M  END
>  <MODEL>
1

>  <REMARK>
 VINA RESULT:       3.1      0.000      0.000
  Name = 
  5 active torsions:
  status: ('A' for Active; 'I' for Inactive)
    1  A    between atoms: C_3  and  C_35
    2  A    between atoms: C_4  and  C_39
    3  A    between atoms: O_5  and  C_39
    4  A    between atoms: O_5  and  C_41
    5  A    between atoms: C_19  and  C_41
                            x       y       z     vdW  Elec       q    Type
                         _______ _______ _______ _____ _____    ______ ____

>  <TORSDO>
F 5

$$$$
=
 OpenBabel11072412553D

 41 46  0  0  1  0  0  0  0  0999 V2000
  161.9210  204.7830  150.3510 C   0  0  0  0  0  2  0  0  0  0  0  0
  160.0660  208.4390  154.7820 N   0  0  0  0  0  0  0  0  0  0  0  0
  159.5630  209.7030  155.2610 C   0  0  0  0  0  0  0  0  0  0  0  0
  159.4700  206.3030  146.6530 O   0  0  0  0  0  1  0  0  0  0  0  0
  162.3990  207.3760  154.5060 C   0  0  0  0  0  2  0  0  0  0  0  0
  159.2500  203.6260  151.1510 O   0  0  0  0  0  0  0  0  0  0  0  0
  160.0940  204.1700  151.9100 C   0  0  0  0  0  0  0  0  0  0  0  0
  161.1690  204.7300  153.8940 C   0  0  0  0  0  3  0  0  0  0  0  0
  161.7910  204.1890  148.0050 O   0  0  0  0  0  0  0  0  0  0  0  0
  164.1580  207.6730  150.2440 O   0  0  0  0  0  1  0  0  0  0  0  0
  162.3110  208.4150  147.8800 O   0  0  0  0  0  0  0  0  0  0  0  0
  162.1720  208.9250  150.6830 C   0  0  0  0  0  2  0  0  0  0  0  0
  161.3940  207.8010  156.8950 C   0  0  0  0  0  2  0  0  0  0  0  0
  163.3010  207.4460  147.6230 C   0  0  0  0  0  2  0  0  0  0  0  0
  161.0150  205.2460  151.4820 C   0  0  1  0  0  3  0  0  0  0  0  0
  160.7240  206.5790  156.2910 C   0  0  0  0  0  2  0  0  0  0  0  0
  161.0530  206.3900  148.4910 C   0  0  2  0  0  0  0  0  0  0  0  0
  160.9340  208.7170  151.5160 C   0  0  0  0  0  3  0  0  0  0  0  0
  161.9960  207.0450  153.0530 C   0  0  2  0  0  3  0  0  0  0  0  0
  159.9400  206.9920  149.0860 O   0  0  0  0  0  1  0  0  0  0  0  0
  160.8110  206.1240  147.0090 C   0  0  1  0  0  3  0  0  0  0  0  0
  161.1880  207.7070  155.3940 C   0  0  0  0  0  0  0  0  0  0  0  0
  160.8470  207.9100  152.5840 C   0  0  0  0  0  0  0  0  0  0  0  0
  162.7650  207.6270  150.1470 C   0  0  1  0  0  3  0  0  0  0  0  0
  159.6410  207.9790  153.4610 C   0  0  0  0  0  2  0  0  0  0  0  0
  161.2040  204.9610  149.0130 C   0  0  2  0  0  3  0  0  0  0  0  0
  161.1890  204.6610  146.8250 C   0  0  1  0  0  3  0  0  0  0  0  0
  161.8250  205.5320  152.7560 C   0  0  1  0  0  3  0  0  0  0  0  0
  162.3090  207.2810  148.7170 C   0  0  2  0  0  0  0  0  0  0  0  0
  160.1870  203.8570  153.2810 N   0  0  0  0  0  0  0  0  0  0  0  0
  158.5620  210.2250  154.6980 O   0  0  0  0  0  0  0  0  0  0  0  0
  162.1060  204.4930  145.6580 C   0  0  0  0  0  0  0  0  0  0  0  0
  163.5120  204.6670  145.8100 N   0  0  0  0  0  1  0  0  0  0  0  0
  161.6280  204.2330  144.5240 O   0  0  0  0  0  0  0  0  0  0  0  0
  159.2900  211.1080  157.2020 O   0  0  0  0  0  1  0  0  0  0  0  0
  160.2230  210.4420  156.3970 C   0  0  2  0  0  3  0  0  0  0  0  0
  161.2720  211.2880  155.9730 O   0  0  0  0  0  0  0  0  0  0  0  0
  163.2360  210.7120  154.9500 O   0  0  0  0  0  1  0  0  0  0  0  0
  162.4990  210.6180  156.1300 C   0  0  1  0  0  3  0  0  0  0  0  0
  163.2880  211.2520  157.2610 C   0  0  0  0  0  2  0  0  0  0  0  0
  164.5440  211.6430  156.8010 O   0  0  0  0  0  1  0  0  0  0  0  0
  2  3  1  0  0  0  0
  2 22  1  0  0  0  0
  3 36  1  0  0  0  0
  5 22  1  0  0  0  0
  6  7  2  0  0  0  0
  7 30  1  0  0  0  0
  9 26  1  0  0  0  0
 11 29  1  0  0  0  0
 12 18  1  0  0  0  0
 14 11  1  0  0  0  0
 15  1  1  6  0  0  0
 15  7  1  0  0  0  0
 15 28  1  0  0  0  0
 16 13  1  0  0  0  0
 17 29  1  0  0  0  0
 17 26  1  0  0  0  0
 17 20  1  1  0  0  0
 18 23  2  0  0  0  0
 19  5  1  1  0  0  0
 21  4  1  1  0  0  0
 21 17  1  0  0  0  0
 22 16  1  0  0  0  0
 22 13  1  0  0  0  0
 23 19  1  0  0  0  0
 23 25  1  0  0  0  0
 24 10  1  6  0  0  0
 24 12  1  0  0  0  0
 25  2  1  0  0  0  0
 26  1  1  1  0  0  0
 27 32  1  6  0  0  0
 27 21  1  0  0  0  0
 27  9  1  0  0  0  0
 28 19  1  0  0  0  0
 28  8  1  1  0  0  0
 29 14  1  6  0  0  0
 29 24  1  0  0  0  0
 30  8  2  0  0  0  0
 31  3  2  0  0  0  0
 32 33  1  0  0  0  0
 34 32  2  0  0  0  0
 36 35  1  6  0  0  0
 37 39  1  0  0  0  0
 37 36  1  0  0  0  0
 39 38  1  6  0  0  0
 39 40  1  0  0  0  0
 41 40  1  0  0  0  0
M  END
>  <MODEL>
2

>  <REMARK>
 VINA RESULT:       5.2      1.968      2.672
  Name = 
  5 active torsions:
  status: ('A' for Active; 'I' for Inactive)
    1  A    between atoms: C_3  and  C_35
    2  A    between atoms: C_4  and  C_39
    3  A    between atoms: O_5  and  C_39
    4  A    between atoms: O_5  and  C_41
    5  A    between atoms: C_19  and  C_41
                            x       y       z     vdW  Elec       q    Type
                         _______ _______ _______ _____ _____    ______ ____

>  <TORSDO>
F 5

$$$$
=
 OpenBabel11072412553D

 41 46  0  0  1  0  0  0  0  0999 V2000
  162.4650  206.8500  150.9140 C   0  0  0  0  0  2  0  0  0  0  0  0
  160.9890  211.6830  147.6110 N   0  0  0  0  0  0  0  0  0  0  0  0
  160.3300  212.3040  146.4880 C   0  0  0  0  0  0  0  0  0  0  0  0
  158.8260  203.9730  150.2310 O   0  0  0  0  0  1  0  0  0  0  0  0
  163.3550  210.7740  148.0790 C   0  0  0  0  0  2  0  0  0  0  0  0
  160.4780  208.3150  152.6520 O   0  0  0  0  0  0  0  0  0  0  0  0
  161.3270  208.8300  151.8790 C   0  0  0  0  0  0  0  0  0  0  0  0
  162.7120  210.4640  150.9730 C   0  0  0  0  0  3  0  0  0  0  0  0
  161.8730  204.6150  151.6370 O   0  0  0  0  0  0  0  0  0  0  0  0
  163.7960  206.2030  147.5700 O   0  0  0  0  0  1  0  0  0  0  0  0
  161.2660  204.4330  147.4250 O   0  0  0  0  0  0  0  0  0  0  0  0
  161.7480  207.1800  146.8260 C   0  0  0  0  0  2  0  0  0  0  0  0
  162.9430  213.3510  147.7960 C   0  0  0  0  0  2  0  0  0  0  0  0
  162.3630  203.9030  148.1320 C   0  0  0  0  0  2  0  0  0  0  0  0
  161.8040  208.1920  150.6320 C   0  0  1  0  0  3  0  0  0  0  0  0
  162.4660  212.9270  149.1740 C   0  0  0  0  0  2  0  0  0  0  0  0
  160.7620  205.3210  149.6650 C   0  0  2  0  0  0  0  0  0  0  0  0
  160.8670  208.3100  147.2900 C   0  0  0  0  0  3  0  0  0  0  0  0
  162.6800  209.4750  148.5710 C   0  0  2  0  0  3  0  0  0  0  0  0
  159.7320  206.2030  149.3270 O   0  0  0  0  0  1  0  0  0  0  0  0
  160.2140  203.9530  150.0560 C   0  0  1  0  0  3  0  0  0  0  0  0
  162.3790  211.9590  148.0130 C   0  0  0  0  0  0  0  0  0  0  0  0
  161.2700  209.3470  148.0400 C   0  0  0  0  0  0  0  0  0  0  0  0
  162.4850  206.4810  147.9630 C   0  0  1  0  0  3  0  0  0  0  0  0
  160.3600  210.5160  148.2260 C   0  0  0  0  0  2  0  0  0  0  0  0
  161.3990  205.7570  150.9850 C   0  0  2  0  0  3  0  0  0  0  0  0
  160.8830  203.6480  151.3870 C   0  0  1  0  0  3  0  0  0  0  0  0
  162.8220  209.2070  150.0920 C   0  0  1  0  0  3  0  0  0  0  0  0
  161.7690  205.2190  148.4810 C   0  0  2  0  0  0  0  0  0  0  0  0
  161.8550  210.1200  152.0910 N   0  0  0  0  0  0  0  0  0  0  0  0
  159.1180  212.0390  146.2570 O   0  0  0  0  0  0  0  0  0  0  0  0
  161.4730  202.2750  151.3820 C   0  0  0  0  0  0  0  0  0  0  0  0
  160.9970  201.2850  150.4750 N   0  0  0  0  0  1  0  0  0  0  0  0
  162.3700  201.9810  152.2130 O   0  0  0  0  0  0  0  0  0  0  0  0
  160.3840  214.4520  145.3930 O   0  0  0  0  0  1  0  0  0  0  0  0
  161.0590  213.2340  145.5530 C   0  0  2  0  0  3  0  0  0  0  0  0
  161.3900  212.6340  144.3180 O   0  0  0  0  0  0  0  0  0  0  0  0
  163.5640  213.3380  144.2090 O   0  0  0  0  0  1  0  0  0  0  0  0
  162.3010  213.4580  143.6320 C   0  0  1  0  0  3  0  0  0  0  0  0
  162.3760  213.0380  142.1760 C   0  0  0  0  0  2  0  0  0  0  0  0
  161.9030  211.7350  142.0340 O   0  0  0  0  0  1  0  0  0  0  0  0
  2 22  1  0  0  0  0
  2 25  1  0  0  0  0
  3  2  1  0  0  0  0
  7 30  1  0  0  0  0
  7  6  2  0  0  0  0
  8 30  2  0  0  0  0
 11 14  1  0  0  0  0
 11 29  1  0  0  0  0
 12 18  1  0  0  0  0
 12 24  1  0  0  0  0
 13 22  1  0  0  0  0
 13 16  1  0  0  0  0
 15  1  1  1  0  0  0
 15  7  1  0  0  0  0
 17 20  1  6  0  0  0
 17 21  1  0  0  0  0
 17 26  1  0  0  0  0
 18 23  2  0  0  0  0
 19  5  1  1  0  0  0
 19 28  1  0  0  0  0
 21  4  1  1  0  0  0
 21 27  1  0  0  0  0
 22  5  1  0  0  0  0
 22 16  1  0  0  0  0
 23 25  1  0  0  0  0
 23 19  1  0  0  0  0
 24 10  1  6  0  0  0
 24 29  1  0  0  0  0
 26  1  1  6  0  0  0
 26  9  1  0  0  0  0
 27 32  1  6  0  0  0
 27  9  1  0  0  0  0
 28 15  1  0  0  0  0
 28  8  1  1  0  0  0
 29 14  1  1  0  0  0
 29 17  1  0  0  0  0
 31  3  2  0  0  0  0
 32 34  2  0  0  0  0
 33 32  1  0  0  0  0
 36 35  1  6  0  0  0
 36  3  1  0  0  0  0
 37 36  1  0  0  0  0
 39 38  1  1  0  0  0
 39 37  1  0  0  0  0
 40 39  1  0  0  0  0
 41 40  1  0  0  0  0
M  END
>  <MODEL>
3

>  <REMARK>
 VINA RESULT:       5.9      3.782      6.987
  Name = 
  5 active torsions:
  status: ('A' for Active; 'I' for Inactive)
    1  A    between atoms: C_3  and  C_35
    2  A    between atoms: C_4  and  C_39
    3  A    between atoms: O_5  and  C_39
    4  A    between atoms: O_5  and  C_41
    5  A    between atoms: C_19  and  C_41
                            x       y       z     vdW  Elec       q    Type
                         _______ _______ _______ _____ _____    ______ ____

>  <TORSDO>
F 5

$$$$
