=
 OpenBabel11072414243D

 26 30  0  0  1  0  0  0  0  0999 V2000
  160.4930  202.1470  149.3450 C   0  0  0  0  0  3  0  0  0  0  0  0
  161.8810  208.4970  150.6090 C   0  0  0  0  0  2  0  0  0  0  0  0
  160.8610  202.8670  151.6240 C   0  0  0  0  0  3  0  0  0  0  0  0
  161.3760  207.5850  152.8140 C   0  0  0  0  0  0  0  0  0  0  0  0
  160.4060  201.9840  150.7770 N   0  0  0  0  0  0  0  0  0  0  0  0
  161.6890  205.9260  153.4420 S   0  0  0  0  0  0  0  0  0  0  0  0
  161.2310  205.3430  151.8260 C   0  0  0  0  0  0  0  0  0  0  0  0
  160.9080  206.2570  150.9440 C   0  0  0  0  0  0  0  0  0  0  0  0
  161.3980  210.8330  154.2110 O   0  0  0  0  0  0  0  0  0  0  0  0
  160.8600  205.6610  149.6140 C   0  0  1  0  0  3  0  0  0  0  0  0
  161.5240  209.9350  150.7320 C   0  0  0  0  0  3  0  0  0  0  0  0
  160.8900  207.6710  151.3980 C   0  0  2  0  0  3  0  0  0  0  0  0
  161.5830  208.6180  153.5730 N   0  0  0  0  0  0  0  0  0  0  0  0
  161.4330  210.0150  153.2570 C   0  0  0  0  0  0  0  0  0  0  0  0
  160.8600  203.3140  148.8070 C   0  0  0  0  0  3  0  0  0  0  0  0
  161.6200  204.0740  151.1450 C   0  0  2  0  0  3  0  0  0  0  0  0
  161.3420  210.5740  151.8890 C   0  0  0  0  0  3  0  0  0  0  0  0
  161.2170  204.3890  149.7350 C   0  0  2  0  0  3  0  0  0  0  0  0
  160.2470  206.2210  148.4480 N   0  0  0  0  0  2  0  0  0  0  0  0
  162.8530  205.1060  146.5980 O   0  0  0  0  0  0  0  0  0  0  0  0
  160.3710  205.7920  146.0420 C   0  0  0  0  0  2  0  0  0  0  0  0
  162.4670  206.1820  147.4200 C   0  0  0  0  0  2  0  0  0  0  0  0
  162.7780  205.5760  145.2740 C   0  0  0  0  0  2  0  0  0  0  0  0
  161.3200  205.7910  144.8410 C   0  0  1  0  0  3  0  0  0  0  0  0
  160.9820  206.5380  147.2330 C   0  0  2  0  0  3  0  0  0  0  0  0
  160.9400  204.7870  143.9530 O   0  0  0  0  0  1  0  0  0  0  0  0
  1  5  1  0  0  0  0
  2 11  1  0  0  0  0
  4  6  1  0  0  0  0
  4 13  2  0  0  0  0
  5  3  2  0  0  0  0
  7  6  1  0  0  0  0
  8 12  1  0  0  0  0
  8  7  2  0  0  0  0
 10 19  1  1  0  0  0
 10 18  1  0  0  0  0
 10  8  1  0  0  0  0
 11 17  2  0  0  0  0
 12  2  1  6  0  0  0
 12  4  1  0  0  0  0
 14 13  1  0  0  0  0
 14  9  2  0  0  0  0
 15  1  2  0  0  0  0
 16  3  1  1  0  0  0
 16  7  1  0  0  0  0
 17 14  1  0  0  0  0
 18 15  1  1  0  0  0
 18 16  1  0  0  0  0
 20 22  1  0  0  0  0
 21 25  1  0  0  0  0
 23 20  1  0  0  0  0
 24 26  1  6  0  0  0
 24 23  1  0  0  0  0
 24 21  1  0  0  0  0
 25 22  1  0  0  0  0
 25 19  1  1  0  0  0
M  END
>  <MODEL>
1

>  <REMARK>
 VINA RESULT:      -9.2      0.000      0.000
  Name = 
  2 active torsions:
  status: ('A' for Active; 'I' for Inactive)
    1  A    between atoms: N_6  and  C_16
    2  A    between atoms: N_6  and  C_17
                            x       y       z     vdW  Elec       q    Type
                         _______ _______ _______ _____ _____    ______ ____

>  <TORSDO>
F 2

$$$$
=
 OpenBabel11072414243D

 26 30  0  0  1  0  0  0  0  0999 V2000
  161.8270  211.1640  150.0970 C   0  0  0  0  0  3  0  0  0  0  0  0
  161.5550  204.6590  151.3010 C   0  0  0  0  0  2  0  0  0  0  0  0
  161.9560  209.5940  148.2610 C   0  0  0  0  0  3  0  0  0  0  0  0
  161.2500  204.7930  148.8850 C   0  0  0  0  0  0  0  0  0  0  0  0
  161.7540  210.8070  148.6980 N   0  0  0  0  0  0  0  0  0  0  0  0
  161.9560  205.9800  147.7280 S   0  0  0  0  0  0  0  0  0  0  0  0
  161.6910  207.2050  148.9900 C   0  0  0  0  0  0  0  0  0  0  0  0
  161.1670  206.7840  150.1130 C   0  0  0  0  0  0  0  0  0  0  0  0
  160.4300  201.3560  148.7520 O   0  0  0  0  0  0  0  0  0  0  0  0
  161.2960  207.8180  151.1340 C   0  0  1  0  0  3  0  0  0  0  0  0
  160.8460  203.4060  151.6770 C   0  0  0  0  0  3  0  0  0  0  0  0
  160.7860  205.3500  150.1970 C   0  0  2  0  0  3  0  0  0  0  0  0
  161.1760  203.5370  148.5640 N   0  0  0  0  0  0  0  0  0  0  0  0
  160.6880  202.4330  149.3480 C   0  0  0  0  0  0  0  0  0  0  0  0
  161.9000  210.2230  151.0430 C   0  0  0  0  0  3  0  0  0  0  0  0
  162.3980  208.5020  149.1960 C   0  0  2  0  0  3  0  0  0  0  0  0
  160.4870  202.4520  150.8160 C   0  0  0  0  0  3  0  0  0  0  0  0
  161.9580  208.8310  150.5910 C   0  0  2  0  0  3  0  0  0  0  0  0
  160.5860  207.8880  152.3750 N   0  0  0  0  0  2  0  0  0  0  0  0
  160.3860  209.5510  155.3160 O   0  0  0  0  0  0  0  0  0  0  0  0
  160.5800  207.0070  154.6580 C   0  0  0  0  0  2  0  0  0  0  0  0
  161.2060  209.4200  154.1790 C   0  0  0  0  0  2  0  0  0  0  0  0
  161.0290  208.8440  156.3480 C   0  0  0  0  0  2  0  0  0  0  0  0
  160.9790  207.3280  156.1000 C   0  0  1  0  0  3  0  0  0  0  0  0
  161.2460  207.9700  153.6690 C   0  0  2  0  0  3  0  0  0  0  0  0
  160.0680  206.7390  156.9740 O   0  0  0  0  0  1  0  0  0  0  0  0
  1 15  2  0  0  0  0
  2 11  1  0  0  0  0
  3  5  2  0  0  0  0
  4 12  1  0  0  0  0
  5  1  1  0  0  0  0
  6  4  1  0  0  0  0
  6  7  1  0  0  0  0
  7 16  1  0  0  0  0
  7  8  2  0  0  0  0
  8 12  1  0  0  0  0
  8 10  1  0  0  0  0
  9 14  2  0  0  0  0
 10 19  1  6  0  0  0
 12  2  1  1  0  0  0
 13  4  2  0  0  0  0
 13 14  1  0  0  0  0
 14 17  1  0  0  0  0
 16  3  1  6  0  0  0
 16 18  1  0  0  0  0
 17 11  2  0  0  0  0
 18 15  1  6  0  0  0
 18 10  1  0  0  0  0
 20 23  1  0  0  0  0
 21 24  1  0  0  0  0
 22 20  1  0  0  0  0
 24 23  1  0  0  0  0
 24 26  1  1  0  0  0
 25 19  1  6  0  0  0
 25 22  1  0  0  0  0
 25 21  1  0  0  0  0
M  END
>  <MODEL>
2

>  <REMARK>
 VINA RESULT:      -9.0      2.599      7.636
  Name = 
  2 active torsions:
  status: ('A' for Active; 'I' for Inactive)
    1  A    between atoms: N_6  and  C_16
    2  A    between atoms: N_6  and  C_17
                            x       y       z     vdW  Elec       q    Type
                         _______ _______ _______ _____ _____    ______ ____

>  <TORSDO>
F 2

$$$$
=
 OpenBabel11072414243D

 26 30  0  0  1  0  0  0  0  0999 V2000
  161.6350  210.3670  154.9210 C   0  0  0  0  0  3  0  0  0  0  0  0
  160.7990  207.2420  149.1430 C   0  0  0  0  0  2  0  0  0  0  0  0
  161.4160  207.9590  154.8770 C   0  0  0  0  0  3  0  0  0  0  0  0
  161.3190  205.4300  150.6890 C   0  0  0  0  0  0  0  0  0  0  0  0
  161.7660  209.0510  155.5010 N   0  0  0  0  0  0  0  0  0  0  0  0
  160.9030  205.2890  152.4370 S   0  0  0  0  0  0  0  0  0  0  0  0
  161.2480  207.0300  152.5490 C   0  0  0  0  0  0  0  0  0  0  0  0
  161.6070  207.6280  151.4400 C   0  0  0  0  0  0  0  0  0  0  0  0
  161.6060  203.1560  147.9960 O   0  0  0  0  0  0  0  0  0  0  0  0
  161.5550  209.0740  151.6230 C   0  0  1  0  0  3  0  0  0  0  0  0
  161.2720  206.7320  147.8290 C   0  0  0  0  0  3  0  0  0  0  0  0
  161.7540  206.7870  150.2240 C   0  0  2  0  0  3  0  0  0  0  0  0
  161.2240  204.3930  149.9120 N   0  0  0  0  0  0  0  0  0  0  0  0
  161.4700  204.3010  148.4970 C   0  0  0  0  0  0  0  0  0  0  0  0
  161.3390  210.5220  153.6270 C   0  0  0  0  0  3  0  0  0  0  0  0
  160.7350  208.0230  153.5370 C   0  0  2  0  0  3  0  0  0  0  0  0
  161.5490  205.4530  147.5690 C   0  0  0  0  0  3  0  0  0  0  0  0
  161.1050  209.3030  152.8490 C   0  0  2  0  0  3  0  0  0  0  0  0
  162.1630  210.0640  150.7870 N   0  0  0  0  0  2  0  0  0  0  0  0
  161.3040  213.1840  149.7950 O   0  0  0  0  0  0  0  0  0  0  0  0
  162.4320  211.1250  148.5980 C   0  0  0  0  0  2  0  0  0  0  0  0
  160.7400  211.9890  150.2830 C   0  0  0  0  0  2  0  0  0  0  0  0
  161.0160  213.2220  148.4190 C   0  0  0  0  0  2  0  0  0  0  0  0
  161.8220  212.1610  147.6520 C   0  0  1  0  0  3  0  0  0  0  0  0
  161.4540  210.7500  149.7170 C   0  0  2  0  0  3  0  0  0  0  0  0
  162.8370  212.7780  146.9240 O   0  0  0  0  0  1  0  0  0  0  0  0
  1  5  1  0  0  0  0
  3  5  2  0  0  0  0
  4  6  1  0  0  0  0
  6  7  1  0  0  0  0
  7 16  1  0  0  0  0
  8 10  1  0  0  0  0
  8  7  2  0  0  0  0
  9 14  2  0  0  0  0
 10 19  1  1  0  0  0
 10 18  1  0  0  0  0
 11  2  1  0  0  0  0
 12  2  1  6  0  0  0
 12  4  1  0  0  0  0
 12  8  1  0  0  0  0
 13  4  2  0  0  0  0
 14 13  1  0  0  0  0
 15  1  2  0  0  0  0
 16  3  1  1  0  0  0
 17 11  2  0  0  0  0
 17 14  1  0  0  0  0
 18 16  1  0  0  0  0
 18 15  1  1  0  0  0
 20 22  1  0  0  0  0
 21 25  1  0  0  0  0
 23 20  1  0  0  0  0
 24 26  1  1  0  0  0
 24 23  1  0  0  0  0
 24 21  1  0  0  0  0
 25 22  1  0  0  0  0
 25 19  1  1  0  0  0
M  END
>  <MODEL>
3

>  <REMARK>
 VINA RESULT:      -7.5      2.622      6.318
  Name = 
  2 active torsions:
  status: ('A' for Active; 'I' for Inactive)
    1  A    between atoms: N_6  and  C_16
    2  A    between atoms: N_6  and  C_17
                            x       y       z     vdW  Elec       q    Type
                         _______ _______ _______ _____ _____    ______ ____

>  <TORSDO>
F 2

$$$$
=
 OpenBabel11072414243D

 26 30  0  0  1  0  0  0  0  0999 V2000
  162.3160  210.7290  150.4900 C   0  0  0  0  0  3  0  0  0  0  0  0
  162.1460  204.1480  151.2040 C   0  0  0  0  0  2  0  0  0  0  0  0
  161.5930  209.3370  148.6480 C   0  0  0  0  0  3  0  0  0  0  0  0
  160.9000  204.5190  149.1420 C   0  0  0  0  0  0  0  0  0  0  0  0
  161.6610  210.5080  149.2210 N   0  0  0  0  0  0  0  0  0  0  0  0
  161.1500  205.7910  147.8910 S   0  0  0  0  0  0  0  0  0  0  0  0
  161.4960  206.8980  149.2390 C   0  0  0  0  0  0  0  0  0  0  0  0
  161.4450  206.3860  150.4430 C   0  0  0  0  0  0  0  0  0  0  0  0
  159.8820  201.1320  149.0950 O   0  0  0  0  0  0  0  0  0  0  0  0
  162.0410  207.3150  151.3970 C   0  0  1  0  0  3  0  0  0  0  0  0
  161.5730  202.8840  151.7410 C   0  0  0  0  0  3  0  0  0  0  0  0
  161.0420  204.9610  150.5670 C   0  0  2  0  0  3  0  0  0  0  0  0
  160.6240  203.3010  148.7850 N   0  0  0  0  0  0  0  0  0  0  0  0
  160.4260  202.1410  149.6140 C   0  0  0  0  0  0  0  0  0  0  0  0
  162.7060  209.7010  151.2490 C   0  0  0  0  0  3  0  0  0  0  0  0
  162.3060  208.1500  149.2360 C   0  0  2  0  0  3  0  0  0  0  0  0
  160.8370  202.0260  151.0320 C   0  0  0  0  0  3  0  0  0  0  0  0
  162.4890  208.3570  150.7100 C   0  0  2  0  0  3  0  0  0  0  0  0
  161.9000  207.2860  152.8210 N   0  0  0  0  0  2  0  0  0  0  0  0
  160.6810  207.6730  155.9550 O   0  0  0  0  0  0  0  0  0  0  0  0
  160.9640  209.2800  153.8860 C   0  0  0  0  0  2  0  0  0  0  0  0
  160.4530  206.9540  154.7660 C   0  0  0  0  0  2  0  0  0  0  0  0
  159.6990  208.6790  156.0010 C   0  0  0  0  0  2  0  0  0  0  0  0
  159.9530  209.7540  154.9330 C   0  0  1  0  0  3  0  0  0  0  0  0
  160.7360  207.8100  153.5200 C   0  0  2  0  0  3  0  0  0  0  0  0
  160.4260  210.9160  155.5390 O   0  0  0  0  0  1  0  0  0  0  0  0
  1 15  2  0  0  0  0
  2 11  1  0  0  0  0
  3  5  2  0  0  0  0
  4 12  1  0  0  0  0
  5  1  1  0  0  0  0
  6  4  1  0  0  0  0
  6  7  1  0  0  0  0
  7  8  2  0  0  0  0
  8 12  1  0  0  0  0
  8 10  1  0  0  0  0
  9 14  2  0  0  0  0
 10 19  1  1  0  0  0
 12  2  1  6  0  0  0
 13  4  2  0  0  0  0
 13 14  1  0  0  0  0
 14 17  1  0  0  0  0
 16  3  1  1  0  0  0
 16  7  1  0  0  0  0
 16 18  1  0  0  0  0
 17 11  2  0  0  0  0
 18 15  1  1  0  0  0
 18 10  1  0  0  0  0
 20 23  1  0  0  0  0
 21 24  1  0  0  0  0
 22 20  1  0  0  0  0
 24 26  1  1  0  0  0
 24 23  1  0  0  0  0
 25 19  1  1  0  0  0
 25 21  1  0  0  0  0
 25 22  1  0  0  0  0
M  END
>  <MODEL>
4

>  <REMARK>
 VINA RESULT:      -7.4      2.757      7.573
  Name = 
  2 active torsions:
  status: ('A' for Active; 'I' for Inactive)
    1  A    between atoms: N_6  and  C_16
    2  A    between atoms: N_6  and  C_17
                            x       y       z     vdW  Elec       q    Type
                         _______ _______ _______ _____ _____    ______ ____

>  <TORSDO>
F 2

$$$$
=
 OpenBabel11072414243D

 26 30  0  0  1  0  0  0  0  0999 V2000
  161.8010  209.9340  152.9560 C   0  0  0  0  0  3  0  0  0  0  0  0
  160.8790  206.7260  147.2380 C   0  0  0  0  0  2  0  0  0  0  0  0
  161.5020  207.5340  152.9580 C   0  0  0  0  0  3  0  0  0  0  0  0
  161.3330  204.9280  148.8210 C   0  0  0  0  0  0  0  0  0  0  0  0
  161.8860  208.6260  153.5620 N   0  0  0  0  0  0  0  0  0  0  0  0
  160.9070  204.8350  150.5690 S   0  0  0  0  0  0  0  0  0  0  0  0
  161.3100  206.5650  150.6480 C   0  0  0  0  0  0  0  0  0  0  0  0
  161.6920  207.1290  149.5300 C   0  0  0  0  0  0  0  0  0  0  0  0
  161.5530  202.5920  146.1740 O   0  0  0  0  0  0  0  0  0  0  0  0
  161.6880  208.5790  149.6840 C   0  0  1  0  0  3  0  0  0  0  0  0
  161.3390  206.1730  145.9350 C   0  0  0  0  0  3  0  0  0  0  0  0
  161.8150  206.2600  148.3310 C   0  0  2  0  0  3  0  0  0  0  0  0
  161.2060  203.8790  148.0640 N   0  0  0  0  0  0  0  0  0  0  0  0
  161.4530  203.7510  146.6510 C   0  0  0  0  0  0  0  0  0  0  0  0
  161.5150  210.0730  151.6570 C   0  0  0  0  0  3  0  0  0  0  0  0
  160.8280  207.5940  151.6140 C   0  0  2  0  0  3  0  0  0  0  0  0
  161.5740  204.8810  145.7020 C   0  0  0  0  0  3  0  0  0  0  0  0
  161.2420  208.8480  150.9030 C   0  0  2  0  0  3  0  0  0  0  0  0
  162.3310  209.5320  148.8300 N   0  0  0  0  0  2  0  0  0  0  0  0
  163.2560  212.4430  147.3710 O   0  0  0  0  0  0  0  0  0  0  0  0
  160.9930  211.1000  147.5110 C   0  0  0  0  0  2  0  0  0  0  0  0
  163.1500  211.8290  148.6340 C   0  0  0  0  0  2  0  0  0  0  0  0
  162.1710  213.3330  147.2750 C   0  0  0  0  0  2  0  0  0  0  0  0
  160.8400  212.5770  147.1430 C   0  0  1  0  0  3  0  0  0  0  0  0
  161.9120  210.9210  148.7240 C   0  0  2  0  0  3  0  0  0  0  0  0
  160.3660  212.6820  145.8370 O   0  0  0  0  0  1  0  0  0  0  0  0
  1  5  1  0  0  0  0
  3  5  2  0  0  0  0
  4  6  1  0  0  0  0
  6  7  1  0  0  0  0
  7 16  1  0  0  0  0
  8 10  1  0  0  0  0
  8  7  2  0  0  0  0
  9 14  2  0  0  0  0
 10 19  1  1  0  0  0
 10 18  1  0  0  0  0
 11  2  1  0  0  0  0
 12  2  1  6  0  0  0
 12  4  1  0  0  0  0
 12  8  1  0  0  0  0
 13  4  2  0  0  0  0
 14 13  1  0  0  0  0
 15  1  2  0  0  0  0
 16  3  1  1  0  0  0
 17 11  2  0  0  0  0
 17 14  1  0  0  0  0
 18 16  1  0  0  0  0
 18 15  1  1  0  0  0
 20 22  1  0  0  0  0
 21 25  1  0  0  0  0
 22 25  1  0  0  0  0
 23 20  1  0  0  0  0
 24 26  1  6  0  0  0
 24 23  1  0  0  0  0
 24 21  1  0  0  0  0
 25 19  1  6  0  0  0
M  END
>  <MODEL>
5

>  <REMARK>
 VINA RESULT:      -6.7      3.070      6.306
  Name = 
  2 active torsions:
  status: ('A' for Active; 'I' for Inactive)
    1  A    between atoms: N_6  and  C_16
    2  A    between atoms: N_6  and  C_17
                            x       y       z     vdW  Elec       q    Type
                         _______ _______ _______ _____ _____    ______ ____

>  <TORSDO>
F 2

$$$$
=
 OpenBabel11072414243D

 26 30  0  0  1  0  0  0  0  0999 V2000
  161.0650  203.4660  152.3450 C   0  0  0  0  0  3  0  0  0  0  0  0
  162.3030  208.9480  148.8430 C   0  0  0  0  0  2  0  0  0  0  0  0
  161.1940  205.6060  153.4650 C   0  0  0  0  0  3  0  0  0  0  0  0
  161.5750  209.8160  151.0020 C   0  0  0  0  0  0  0  0  0  0  0  0
  160.8310  204.3520  153.4620 N   0  0  0  0  0  0  0  0  0  0  0  0
  161.8250  209.1080  152.6400 S   0  0  0  0  0  0  0  0  0  0  0  0
  161.5380  207.5250  151.8820 C   0  0  0  0  0  0  0  0  0  0  0  0
  161.3050  207.5270  150.5930 C   0  0  0  0  0  0  0  0  0  0  0  0
  161.4470  213.0970  149.6890 O   0  0  0  0  0  0  0  0  0  0  0  0
  161.3950  206.1670  150.0750 C   0  0  1  0  0  3  0  0  0  0  0  0
  161.9320  210.0250  147.8860 C   0  0  0  0  0  3  0  0  0  0  0  0
  161.2370  208.8450  149.9110 C   0  0  2  0  0  3  0  0  0  0  0  0
  161.7010  211.0960  150.8200 N   0  0  0  0  0  0  0  0  0  0  0  0
  161.5810  211.8500  149.6000 C   0  0  0  0  0  0  0  0  0  0  0  0
  161.4830  203.9400  151.1670 C   0  0  0  0  0  3  0  0  0  0  0  0
  161.9960  206.1780  152.3280 C   0  0  2  0  0  3  0  0  0  0  0  0
  161.6310  211.2770  148.2350 C   0  0  0  0  0  3  0  0  0  0  0  0
  161.7400  205.3800  151.0850 C   0  0  2  0  0  3  0  0  0  0  0  0
  160.9050  205.6970  148.8150 N   0  0  0  0  0  2  0  0  0  0  0  0
  161.2060  203.4450  146.3060 O   0  0  0  0  0  0  0  0  0  0  0  0
  161.2700  206.0760  146.4250 C   0  0  0  0  0  2  0  0  0  0  0  0
  161.8250  203.8470  147.5060 C   0  0  0  0  0  2  0  0  0  0  0  0
  162.0060  203.9450  145.2640 C   0  0  0  0  0  2  0  0  0  0  0  0
  161.9040  205.4760  145.1690 C   0  0  1  0  0  3  0  0  0  0  0  0
  161.7700  205.3730  147.6910 C   0  0  2  0  0  3  0  0  0  0  0  0
  161.1460  205.8280  144.0540 O   0  0  0  0  0  1  0  0  0  0  0  0
  1  5  1  0  0  0  0
  4  6  1  0  0  0  0
  5  3  2  0  0  0  0
  7 16  1  0  0  0  0
  7  6  1  0  0  0  0
  8  7  2  0  0  0  0
 10 19  1  1  0  0  0
 10  8  1  0  0  0  0
 10 18  1  0  0  0  0
 11 17  2  0  0  0  0
 11  2  1  0  0  0  0
 12  2  1  6  0  0  0
 12  8  1  0  0  0  0
 12  4  1  0  0  0  0
 13  4  2  0  0  0  0
 14  9  2  0  0  0  0
 14 13  1  0  0  0  0
 15  1  2  0  0  0  0
 16  3  1  1  0  0  0
 17 14  1  0  0  0  0
 18 15  1  1  0  0  0
 18 16  1  0  0  0  0
 20 22  1  0  0  0  0
 21 25  1  0  0  0  0
 22 25  1  0  0  0  0
 23 20  1  0  0  0  0
 24 26  1  6  0  0  0
 24 23  1  0  0  0  0
 24 21  1  0  0  0  0
 25 19  1  1  0  0  0
M  END
>  <MODEL>
6

>  <REMARK>
 VINA RESULT:      -6.4      2.091      2.653
  Name = 
  2 active torsions:
  status: ('A' for Active; 'I' for Inactive)
    1  A    between atoms: N_6  and  C_16
    2  A    between atoms: N_6  and  C_17
                            x       y       z     vdW  Elec       q    Type
                         _______ _______ _______ _____ _____    ______ ____

>  <TORSDO>
F 2

$$$$
=
 OpenBabel11072414243D

 26 30  0  0  1  0  0  0  0  0999 V2000
  161.3670  209.5990  156.8390 C   0  0  0  0  0  3  0  0  0  0  0  0
  160.0330  213.0530  151.3500 C   0  0  0  0  0  2  0  0  0  0  0  0
  159.3180  210.8750  156.6890 C   0  0  0  0  0  3  0  0  0  0  0  0
  157.9070  213.0570  152.5440 C   0  0  0  0  0  0  0  0  0  0  0  0
  160.0280  209.9400  157.2600 N   0  0  0  0  0  0  0  0  0  0  0  0
  157.6170  213.0760  154.3220 S   0  0  0  0  0  0  0  0  0  0  0  0
  159.0050  211.9730  154.4520 C   0  0  0  0  0  0  0  0  0  0  0  0
  159.6040  211.6520  153.3330 C   0  0  0  0  0  0  0  0  0  0  0  0
  156.2790  214.4480  149.7290 O   0  0  0  0  0  0  0  0  0  0  0  0
  160.8800  211.0080  153.6250 C   0  0  1  0  0  3  0  0  0  0  0  0
  159.6360  213.1770  149.9220 C   0  0  0  0  0  3  0  0  0  0  0  0
  159.0280  212.1820  152.0700 C   0  0  2  0  0  3  0  0  0  0  0  0
  157.1710  213.7820  151.7560 N   0  0  0  0  0  0  0  0  0  0  0  0
  157.2600  213.9380  150.3280 C   0  0  0  0  0  0  0  0  0  0  0  0
  161.8750  210.0840  155.7020 C   0  0  0  0  0  3  0  0  0  0  0  0
  159.9110  211.7440  155.6150 C   0  0  2  0  0  3  0  0  0  0  0  0
  158.4320  213.5690  149.5020 C   0  0  0  0  0  3  0  0  0  0  0  0
  161.0340  211.0110  154.9420 C   0  0  2  0  0  3  0  0  0  0  0  0
  161.6740  210.2340  152.7200 N   0  0  0  0  0  2  0  0  0  0  0  0
  162.7700  207.5970  150.9030 O   0  0  0  0  0  0  0  0  0  0  0  0
  161.1290  207.8590  152.9470 C   0  0  0  0  0  2  0  0  0  0  0  0
  162.0470  208.7990  150.7750 C   0  0  0  0  0  2  0  0  0  0  0  0
  161.8190  206.5610  150.8810 C   0  0  0  0  0  2  0  0  0  0  0  0
  160.9730  206.5540  152.1640 C   0  0  1  0  0  3  0  0  0  0  0  0
  161.1700  209.0700  152.0090 C   0  0  2  0  0  3  0  0  0  0  0  0
  161.3510  205.4820  152.9700 O   0  0  0  0  0  1  0  0  0  0  0  0
  1  5  1  0  0  0  0
  3  5  2  0  0  0  0
  4  6  1  0  0  0  0
  6  7  1  0  0  0  0
  7 16  1  0  0  0  0
  8 10  1  0  0  0  0
  8  7  2  0  0  0  0
  9 14  2  0  0  0  0
 10 19  1  1  0  0  0
 10 18  1  0  0  0  0
 11  2  1  0  0  0  0
 12  2  1  1  0  0  0
 12  4  1  0  0  0  0
 12  8  1  0  0  0  0
 13  4  2  0  0  0  0
 14 13  1  0  0  0  0
 15  1  2  0  0  0  0
 16  3  1  1  0  0  0
 17 11  2  0  0  0  0
 17 14  1  0  0  0  0
 18 16  1  0  0  0  0
 18 15  1  1  0  0  0
 22 20  1  0  0  0  0
 22 25  1  0  0  0  0
 23 20  1  0  0  0  0
 23 24  1  0  0  0  0
 24 21  1  0  0  0  0
 24 26  1  1  0  0  0
 25 19  1  1  0  0  0
 25 21  1  0  0  0  0
M  END
>  <MODEL>
7

>  <REMARK>
 VINA RESULT:      -6.4      4.349      7.266
  Name = 
  2 active torsions:
  status: ('A' for Active; 'I' for Inactive)
    1  A    between atoms: N_6  and  C_16
    2  A    between atoms: N_6  and  C_17
                            x       y       z     vdW  Elec       q    Type
                         _______ _______ _______ _____ _____    ______ ____

>  <TORSDO>
F 2

$$$$
=
 OpenBabel11072414243D

 26 30  0  0  1  0  0  0  0  0999 V2000
  160.4050  207.2250  155.9050 C   0  0  0  0  0  3  0  0  0  0  0  0
  162.2910  210.8200  150.6740 C   0  0  0  0  0  2  0  0  0  0  0  0
  159.4260  209.4040  155.5270 C   0  0  0  0  0  3  0  0  0  0  0  0
  160.2930  211.9780  151.4570 C   0  0  0  0  0  0  0  0  0  0  0  0
  159.3950  208.2370  156.1120 N   0  0  0  0  0  0  0  0  0  0  0  0
  159.6890  212.1610  153.1450 S   0  0  0  0  0  0  0  0  0  0  0  0
  160.2210  210.4840  153.4030 C   0  0  0  0  0  0  0  0  0  0  0  0
  160.7800  209.8840  152.3820 C   0  0  0  0  0  0  0  0  0  0  0  0
  160.2820  214.0100  148.5630 O   0  0  0  0  0  0  0  0  0  0  0  0
  161.4270  208.6550  152.8290 C   0  0  1  0  0  3  0  0  0  0  0  0
  162.3310  211.1290  149.2200 C   0  0  0  0  0  3  0  0  0  0  0  0
  160.8520  210.6330  151.1010 C   0  0  2  0  0  3  0  0  0  0  0  0
  160.2370  212.9800  150.6330 N   0  0  0  0  0  0  0  0  0  0  0  0
  160.6940  213.0550  149.2700 C   0  0  0  0  0  0  0  0  0  0  0  0
  161.3190  207.3530  154.9380 C   0  0  0  0  0  3  0  0  0  0  0  0
  160.6000  209.8100  154.6780 C   0  0  2  0  0  3  0  0  0  0  0  0
  161.6370  212.1070  148.6340 C   0  0  0  0  0  3  0  0  0  0  0  0
  161.2780  208.5830  154.1450 C   0  0  2  0  0  3  0  0  0  0  0  0
  161.8620  207.5690  152.0040 N   0  0  0  0  0  2  0  0  0  0  0  0
  161.8060  206.3580  148.8430 O   0  0  0  0  0  0  0  0  0  0  0  0
  161.2090  205.3500  151.2040 C   0  0  0  0  0  2  0  0  0  0  0  0
  161.2290  207.3590  149.6500 C   0  0  0  0  0  2  0  0  0  0  0  0
  160.8270  205.3590  148.6970 C   0  0  0  0  0  2  0  0  0  0  0  0
  160.6010  204.6030  150.0150 C   0  0  1  0  0  3  0  0  0  0  0  0
  160.9840  206.8620  151.0850 C   0  0  2  0  0  3  0  0  0  0  0  0
  161.1630  203.3310  149.9310 O   0  0  0  0  0  1  0  0  0  0  0  0
  1  5  1  0  0  0  0
  3  5  2  0  0  0  0
  4  6  1  0  0  0  0
  6  7  1  0  0  0  0
  7 16  1  0  0  0  0
  8 10  1  0  0  0  0
  8  7  2  0  0  0  0
  9 14  2  0  0  0  0
 10 19  1  6  0  0  0
 10 18  1  0  0  0  0
 11  2  1  0  0  0  0
 12  2  1  1  0  0  0
 12  4  1  0  0  0  0
 12  8  1  0  0  0  0
 13  4  2  0  0  0  0
 14 13  1  0  0  0  0
 15  1  2  0  0  0  0
 16  3  1  1  0  0  0
 17 11  2  0  0  0  0
 17 14  1  0  0  0  0
 18 16  1  0  0  0  0
 18 15  1  6  0  0  0
 20 22  1  0  0  0  0
 22 25  1  0  0  0  0
 23 20  1  0  0  0  0
 23 24  1  0  0  0  0
 24 26  1  6  0  0  0
 24 21  1  0  0  0  0
 25 21  1  0  0  0  0
 25 19  1  1  0  0  0
M  END
>  <MODEL>
8

>  <REMARK>
 VINA RESULT:      -6.3      3.104      5.380
  Name = 
  2 active torsions:
  status: ('A' for Active; 'I' for Inactive)
    1  A    between atoms: N_6  and  C_16
    2  A    between atoms: N_6  and  C_17
                            x       y       z     vdW  Elec       q    Type
                         _______ _______ _______ _____ _____    ______ ____

>  <TORSDO>
F 2

$$$$
