=
 OpenBabel11072413343D

 36 41  0  0  1  0  0  0  0  0999 V2000
  161.4260  200.8490  148.3810 C   0  0  0  0  0  2  0  0  0  0  0  0
  161.8290  205.4320  145.2190 C   0  0  0  0  0  2  0  0  0  0  0  0
  160.7960  207.0100  151.8860 C   0  0  1  0  0  3  0  0  0  0  0  0
  160.5620  206.7100  147.9990 C   0  0  2  0  0  3  0  0  0  0  0  0
  161.8330  208.8290  148.5180 C   0  0  2  0  0  3  0  0  0  0  0  0
  161.1740  203.4640  149.6910 C   0  0  2  0  0  3  0  0  0  0  0  0
  161.5640  203.3500  148.2350 C   0  0  0  0  0  0  0  0  0  0  0  0
  161.3550  208.7210  149.9770 C   0  0  0  0  0  2  0  0  0  0  0  0
  160.4750  202.3180  151.8020 C   0  0  0  0  0  2  0  0  0  0  0  0
  163.0350  206.3260  152.5090 O   0  0  0  0  0  1  0  0  0  0  0  0
  161.1570  207.2640  150.4100 C   0  0  2  0  0  3  0  0  0  0  0  0
  161.6500  204.5370  147.4250 N   0  0  0  0  0  0  0  0  0  0  0  0
  160.4030  205.5800  145.7110 C   0  0  1  0  0  3  0  0  0  0  0  0
  160.4730  205.3780  147.2240 C   0  0  2  0  0  3  0  0  0  0  0  0
  160.5580  201.0350  149.6220 C   0  0  0  0  0  2  0  0  0  0  0  0
  161.8730  207.4820  147.7820 C   0  0  0  0  0  2  0  0  0  0  0  0
  160.8350  203.6300  152.4740 C   0  0  0  0  0  3  0  0  0  0  0  0
  161.5340  204.6030  151.8540 C   0  0  0  0  0  0  0  0  0  0  0  0
  162.0930  204.3900  150.4640 C   0  0  0  0  0  2  0  0  0  0  0  0
  162.5130  204.5500  146.2500 C   0  0  0  0  0  2  0  0  0  0  0  0
  160.1760  206.5530  149.4760 C   0  0  0  0  0  2  0  0  0  0  0  0
  161.1820  202.1370  150.4560 C   0  0  1  0  0  3  0  0  0  0  0  0
  159.8780  206.8240  145.3490 O   0  0  0  0  0  1  0  0  0  0  0  0
  161.6020  202.1450  147.6380 C   0  0  0  0  0  3  0  0  0  0  0  0
  161.6930  205.9360  152.5250 C   0  0  2  0  0  3  0  0  0  0  0  0
  160.7300  208.2390  152.7420 C   0  0  0  0  0  0  0  0  0  0  0  0
  159.9670  209.1850  152.4050 O   0  0  0  0  0  0  0  0  0  0  0  0
  161.5170  208.3310  153.8940 O   0  0  0  0  0  0  0  0  0  0  0  0
  160.9540  208.5120  155.1860 C   0  0  2  0  0  3  0  0  0  0  0  0
  160.1310  207.0180  156.7700 C   0  0  0  0  0  2  0  0  0  0  0  0
  161.9250  208.2670  156.1700 O   0  0  0  0  0  0  0  0  0  0  0  0
  161.2390  207.8210  157.2590 N   0  0  0  0  0  2  0  0  0  0  0  0
  159.8460  207.5210  155.3930 C   0  0  0  0  0  2  0  0  0  0  0  0
  163.1500  209.4450  148.4830 N   0  0  0  0  0  2  0  0  0  0  0  0
  161.8710  211.4450  147.9610 C   0  0  0  0  0  1  0  0  0  0  0  0
  162.9790  210.8520  148.8080 C   0  0  0  0  0  2  0  0  0  0  0  0
  1 15  1  0  0  0  0
  2 13  1  0  0  0  0
  2 20  1  0  0  0  0
  3 25  1  0  0  0  0
  3 26  1  1  0  0  0
  4 16  1  1  0  0  0
  4 21  1  0  0  0  0
  5 34  1  1  0  0  0
  5  8  1  0  0  0  0
  6 22  1  0  0  0  0
  6 19  1  1  0  0  0
  7  6  1  0  0  0  0
  8 11  1  0  0  0  0
  9 17  1  0  0  0  0
 11 21  1  6  0  0  0
 11  3  1  0  0  0  0
 12  7  1  0  0  0  0
 13 23  1  1  0  0  0
 13 14  1  0  0  0  0
 14 12  1  6  0  0  0
 14  4  1  0  0  0  0
 16  5  1  0  0  0  0
 18 17  2  0  0  0  0
 18 25  1  0  0  0  0
 19 18  1  0  0  0  0
 20 12  1  0  0  0  0
 22 15  1  6  0  0  0
 22  9  1  0  0  0  0
 24  7  2  0  0  0  0
 24  1  1  0  0  0  0
 25 10  1  6  0  0  0
 26 28  1  0  0  0  0
 27 26  2  0  0  0  0
 29 28  1  6  0  0  0
 29 33  1  0  0  0  0
 29 31  1  0  0  0  0
 30 32  1  0  0  0  0
 31 32  1  0  0  0  0
 33 30  1  0  0  0  0
 34 36  1  0  0  0  0
 35 36  1  0  0  0  0
M  END
>  <MODEL>
1

>  <REMARK>
 VINA RESULT:      -6.8      0.000      0.000
  Name = 
  5 active torsions:
  status: ('A' for Active; 'I' for Inactive)
    1  A    between atoms: C_3  and  C_5
    2  A    between atoms: C_3  and  O_29
    3  A    between atoms: C_7  and  N_23
    4  A    between atoms: C_16  and  O_29
    5  A    between atoms: C_19  and  N_23
                            x       y       z     vdW  Elec       q    Type
                         _______ _______ _______ _____ _____    ______ ____

>  <TORSDO>
F 5

$$$$
=
 OpenBabel11072413343D

 36 41  0  0  1  0  0  0  0  0999 V2000
  161.4010  200.8530  148.3440 C   0  0  0  0  0  2  0  0  0  0  0  0
  161.8670  205.4640  145.2320 C   0  0  0  0  0  2  0  0  0  0  0  0
  160.7620  206.9830  151.9020 C   0  0  1  0  0  3  0  0  0  0  0  0
  160.5730  206.7220  148.0090 C   0  0  2  0  0  3  0  0  0  0  0  0
  161.8490  208.8280  148.5650 C   0  0  2  0  0  3  0  0  0  0  0  0
  161.1470  203.4560  149.6770 C   0  0  2  0  0  3  0  0  0  0  0  0
  161.5540  203.3550  148.2240 C   0  0  0  0  0  0  0  0  0  0  0  0
  161.3520  208.7090  150.0170 C   0  0  0  0  0  2  0  0  0  0  0  0
  160.4170  202.2930  151.7670 C   0  0  0  0  0  2  0  0  0  0  0  0
  162.9890  206.2800  152.5440 O   0  0  0  0  0  1  0  0  0  0  0  0
  161.1420  207.2490  150.4320 C   0  0  2  0  0  3  0  0  0  0  0  0
  161.6560  204.5490  147.4270 N   0  0  0  0  0  0  0  0  0  0  0  0
  160.4350  205.6150  145.7090 C   0  0  1  0  0  3  0  0  0  0  0  0
  160.4860  205.3980  147.2200 C   0  0  2  0  0  3  0  0  0  0  0  0
  160.5200  201.0310  149.5760 C   0  0  0  0  0  2  0  0  0  0  0  0
  161.8900  207.4880  147.8160 C   0  0  0  0  0  2  0  0  0  0  0  0
  160.7760  203.5970  152.4560 C   0  0  0  0  0  3  0  0  0  0  0  0
  161.4870  204.5710  151.8540 C   0  0  0  0  0  0  0  0  0  0  0  0
  162.0610  204.3700  150.4690 C   0  0  0  0  0  2  0  0  0  0  0  0
  162.5340  204.5690  146.2620 C   0  0  0  0  0  2  0  0  0  0  0  0
  160.1680  206.5520  149.4800 C   0  0  0  0  0  2  0  0  0  0  0  0
  161.1390  202.1220  150.4280 C   0  0  1  0  0  3  0  0  0  0  0  0
  159.9210  206.8660  145.3530 O   0  0  0  0  0  1  0  0  0  0  0  0
  161.5930  202.1550  147.6150 C   0  0  0  0  0  3  0  0  0  0  0  0
  161.6450  205.8970  152.5400 C   0  0  2  0  0  3  0  0  0  0  0  0
  160.6920  208.2030  152.7690 C   0  0  0  0  0  0  0  0  0  0  0  0
  161.1230  208.1440  153.9520 O   0  0  0  0  0  0  0  0  0  0  0  0
  160.1440  209.3870  152.2670 O   0  0  0  0  0  0  0  0  0  0  0  0
  160.3040  210.6370  152.9230 C   0  0  2  0  0  3  0  0  0  0  0  0
  159.4590  212.7620  152.4930 C   0  0  0  0  0  2  0  0  0  0  0  0
  159.1940  210.8920  153.7440 O   0  0  0  0  0  0  0  0  0  0  0  0
  159.0810  212.2490  153.7980 N   0  0  0  0  0  2  0  0  0  0  0  0
  160.3670  211.7350  151.9010 C   0  0  0  0  0  2  0  0  0  0  0  0
  163.1690  209.4380  148.5510 N   0  0  0  0  0  2  0  0  0  0  0  0
  161.8590  211.4210  148.0430 C   0  0  0  0  0  1  0  0  0  0  0  0
  162.9990  210.8480  148.8620 C   0  0  0  0  0  2  0  0  0  0  0  0
  1 15  1  0  0  0  0
  2 13  1  0  0  0  0
  2 20  1  0  0  0  0
  3 25  1  0  0  0  0
  3 26  1  1  0  0  0
  4 16  1  1  0  0  0
  4 21  1  0  0  0  0
  5 34  1  1  0  0  0
  5  8  1  0  0  0  0
  6 22  1  0  0  0  0
  6 19  1  1  0  0  0
  7  6  1  0  0  0  0
  8 11  1  0  0  0  0
  9 17  1  0  0  0  0
 11 21  1  6  0  0  0
 11  3  1  0  0  0  0
 12  7  1  0  0  0  0
 13 23  1  1  0  0  0
 13 14  1  0  0  0  0
 14 12  1  6  0  0  0
 14  4  1  0  0  0  0
 16  5  1  0  0  0  0
 18 17  2  0  0  0  0
 18 25  1  0  0  0  0
 19 18  1  0  0  0  0
 20 12  1  0  0  0  0
 22 15  1  6  0  0  0
 22  9  1  0  0  0  0
 24  7  2  0  0  0  0
 24  1  1  0  0  0  0
 25 10  1  6  0  0  0
 26 27  2  0  0  0  0
 28 26  1  0  0  0  0
 29 28  1  6  0  0  0
 29 31  1  0  0  0  0
 30 32  1  0  0  0  0
 31 32  1  0  0  0  0
 33 30  1  0  0  0  0
 33 29  1  0  0  0  0
 34 36  1  0  0  0  0
 35 36  1  0  0  0  0
M  END
>  <MODEL>
2

>  <REMARK>
 VINA RESULT:      -6.5      1.519      2.102
  Name = 
  5 active torsions:
  status: ('A' for Active; 'I' for Inactive)
    1  A    between atoms: C_3  and  C_5
    2  A    between atoms: C_3  and  O_29
    3  A    between atoms: C_7  and  N_23
    4  A    between atoms: C_16  and  O_29
    5  A    between atoms: C_19  and  N_23
                            x       y       z     vdW  Elec       q    Type
                         _______ _______ _______ _____ _____    ______ ____

>  <TORSDO>
F 5

$$$$
