=
 OpenBabel11072414203D

 56 63  0  0  1  0  0  0  0  0999 V2000
  161.3500  208.6510  154.1290 C   0  0  0  0  0  0  0  0  0  0  0  0
  159.9870  205.2320  153.2700 C   0  0  2  0  0  3  0  0  0  0  0  0
  160.7290  204.8910  150.7780 C   0  0  0  0  0  2  0  0  0  0  0  0
  160.6940  203.4240  151.2280 C   0  0  2  0  0  3  0  0  0  0  0  0
  160.2000  206.4070  154.2440 C   0  0  0  0  0  2  0  0  0  0  0  0
  161.2470  208.8510  155.3810 O   0  0  0  0  0  0  0  0  0  0  0  0
  161.0260  204.1490  153.5370 C   0  0  0  0  0  3  0  0  0  0  0  0
  161.4210  209.5480  151.8080 N   0  0  2  0  0  0  0  0  0  0  0  0
  161.8120  209.7730  153.2270 C   0  0  1  0  0  3  0  0  0  0  0  0
  161.0890  207.0460  152.1760 C   0  0  2  0  0  0  0  0  0  0  0  0
  161.0960  207.3430  153.6020 N   0  0  0  0  0  0  0  0  0  0  0  0
  161.0610  208.2390  151.2500 C   0  0  2  0  0  3  0  0  0  0  0  0
  160.1890  205.8510  151.8660 C   0  0  2  0  0  3  0  0  0  0  0  0
  162.2990  207.3180  151.3190 C   0  0  0  0  0  2  0  0  0  0  0  0
  161.3770  203.2840  152.5620 C   0  0  0  0  0  3  0  0  0  0  0  0
  161.8360  213.0530  149.0300 C   0  0  1  0  0  3  0  0  0  0  0  0
  161.4360  210.6490  150.8780 C   0  0  2  0  0  3  0  0  0  0  0  0
  160.7810  212.2580  149.7140 N   0  0  2  0  0  0  0  0  0  0  0  0
  160.4810  211.5920  150.8780 C   0  0  0  0  0  2  0  0  0  0  0  0
  162.3290  210.6960  149.5930 C   0  0  0  0  0  2  0  0  0  0  0  0
  161.6730  211.7490  148.6540 C   0  0  2  0  0  3  0  0  0  0  0  0
  162.1730  214.3480  146.9630 F   0  0  0  0  0  0  0  0  0  0  0  0
  161.2430  214.0040  147.9730 C   0  0  1  0  0  3  0  0  0  0  0  0
  158.6320  213.1830  148.1870 O   0  0  0  0  0  1  0  0  0  0  0  0
  159.7280  213.3440  147.1540 P   0  0  0  0  0  0  0  0  0  0  0  0
  159.2280  214.4490  145.9620 O   0  0  0  0  0  0  0  0  0  0  0  0
  160.0370  211.8450  146.3960 O   0  0  0  0  0  1  0  0  0  0  0  0
  161.3730  211.1350  153.7680 C   0  0  0  0  0  0  0  0  0  0  0  0
  160.8040  211.9750  153.0030 O   0  0  0  0  0  0  0  0  0  0  0  0
  161.6090  211.4480  155.1530 N   0  0  0  0  0  0  0  0  0  0  0  0
  160.8230  212.0500  155.9940 C   0  0  0  0  0  3  0  0  0  0  0  0
  159.4490  212.5650  155.6640 C   0  0  2  0  0  3  0  0  0  0  0  0
  159.3310  214.0390  156.0040 C   0  0  0  0  0  1  0  0  0  0  0  0
  158.3090  211.7330  156.2910 C   0  0  0  0  0  2  0  0  0  0  0  0
  157.3400  211.0980  155.3730 N   0  0  0  0  0  0  0  0  0  0  0  0
  157.4330  211.6390  154.1350 O   0  0  0  0  0  1  0  0  0  0  0  0
  155.9320  212.5420  156.7310 C   0  0  0  0  0  1  0  0  0  0  0  0
  155.9850  211.3000  155.8670 C   0  0  0  0  0  2  0  0  0  0  0  0
  161.1880  202.4300  150.1750 C   0  0  0  0  0  0  0  0  0  0  0  0
  162.0550  201.5680  150.4890 O   0  0  0  0  0  0  0  0  0  0  0  0
  159.4060  201.9830  148.6890 O   0  0  0  0  0  0  0  0  0  0  0  0
  160.5750  202.4320  148.8320 C   0  0  0  0  0  0  0  0  0  0  0  0
  161.4160  202.7550  147.6000 C   0  0  2  0  0  3  0  0  0  0  0  0
  162.3520  204.8920  148.0650 C   0  0  2  0  0  3  0  0  0  0  0  0
  162.1640  205.9640  147.3150 C   0  0  0  0  0  0  0  0  0  0  0  0
  161.9100  207.5810  147.2180 S   0  0  0  0  0  0  0  0  0  0  0  0
  162.9790  204.6840  146.8060 N   0  0  0  0  0  0  0  0  0  0  0  0
  161.5080  204.2690  147.2180 C   0  0  1  0  0  0  0  0  0  0  0  0
  160.4140  204.5990  146.1080 C   0  0  0  0  0  2  0  0  0  0  0  0
  160.8300  204.1490  144.7750 N   0  0  0  0  0  0  0  0  0  0  0  0
  161.1920  205.3440  144.0350 C   0  0  0  0  0  1  0  0  0  0  0  0
  159.6090  203.6750  144.1540 C   0  0  0  0  0  1  0  0  0  0  0  0
  161.0750  201.8220  146.4430 C   0  0  0  0  0  2  0  0  0  0  0  0
  161.4530  200.0910  146.8770 S   0  0  0  0  0  0  0  0  0  0  0  0
  161.2230  199.5330  145.1620 C   0  0  0  0  0  2  0  0  0  0  0  0
  161.0630  198.0250  145.1260 C   0  0  0  0  0  1  0  0  0  0  0  0
  1  6  2  0  0  0  0
  2  7  1  1  0  0  0
  2  5  1  0  0  0  0
  3  4  1  0  0  0  0
  4 39  1  6  0  0  0
  4 15  1  0  0  0  0
  8 17  1  6  0  0  0
  8  9  1  0  0  0  0
  9 28  1  1  0  0  0
  9  1  1  0  0  0  0
 10 14  1  6  0  0  0
 10 11  1  0  0  0  0
 11  1  1  0  0  0  0
 11  5  1  0  0  0  0
 12 14  1  6  0  0  0
 12  8  1  0  0  0  0
 12 10  1  0  0  0  0
 13  3  1  6  0  0  0
 13 10  1  0  0  0  0
 13  2  1  0  0  0  0
 15  7  2  0  0  0  0
 16 23  1  6  0  0  0
 16 18  1  0  0  0  0
 17 20  1  6  0  0  0
 18 19  1  1  0  0  0
 19 17  1  0  0  0  0
 21 16  1  0  0  0  0
 21 20  1  1  0  0  0
 21 18  1  0  0  0  0
 23 22  1  6  0  0  0
 25 23  1  0  0  0  0
 25 24  1  0  0  0  0
 26 25  2  0  0  0  0
 27 25  1  0  0  0  0
 28 30  1  0  0  0  0
 29 28  2  0  0  0  0
 30 31  2  0  0  0  0
 32 31  1  0  0  0  0
 32 33  1  1  0  0  0
 32 34  1  0  0  0  0
 35 38  1  0  0  0  0
 35 34  1  0  0  0  0
 36 35  1  0  0  0  0
 38 37  1  0  0  0  0
 39 40  2  0  0  0  0
 41 42  2  0  0  0  0
 42 39  1  0  0  0  0
 43 53  1  6  0  0  0
 43 42  1  0  0  0  0
 44 45  1  6  0  0  0
 46 45  2  0  0  0  0
 47 48  1  0  0  0  0
 47 45  1  0  0  0  0
 47 44  1  0  0  0  0
 48 49  1  6  0  0  0
 48 43  1  0  0  0  0
 48 44  1  0  0  0  0
 50 49  1  0  0  0  0
 51 50  1  0  0  0  0
 52 50  1  0  0  0  0
 53 54  1  0  0  0  0
 55 54  1  0  0  0  0
 56 55  1  0  0  0  0
M  END
>  <MODEL>
1

>  <REMARK>
 VINA RESULT:      -2.1      0.000      0.000
  Name = 
  18 active torsions:
  status: ('A' for Active; 'I' for Inactive)
    1  A    between atoms: C_5  and  N_27
    2  A    between atoms: C_5  and  C_36
    3  A    between atoms: P_6  and  C_55
    4  A    between atoms: C_8  and  C_39
    5  A    between atoms: C_10  and  C_55
    6  A    between atoms: N_12  and  C_18
    7  A    between atoms: N_12  and  C_26
    8  A    between atoms: C_13  and  C_18
    9  A    between atoms: C_13  and  C_47
   10  A    between atoms: S_14  and  C_15
   11  A    between atoms: S_14  and  C_33
   12  A    between atoms: N_19  and  C_48
   13  A    between atoms: C_21  and  N_30
   14  A    between atoms: C_25  and  C_33
   15  A    between atoms: C_25  and  C_35
   16  A    between atoms: C_25  and  C_42
   17  A    between atoms: C_35  and  C_39
   18  A    between atoms: C_42  and  C_48
                            x       y       z     vdW  Elec       q    Type
                         _______ _______ _______ _____ _____    ______ ____

>  <TORSDO>
F 18

$$$$
=
 OpenBabel11072414203D

 56 63  0  0  1  0  0  0  0  0999 V2000
  161.7350  207.7020  153.6010 C   0  0  0  0  0  0  0  0  0  0  0  0
  160.1180  204.4470  152.5660 C   0  0  2  0  0  3  0  0  0  0  0  0
  160.7590  204.2300  150.0320 C   0  0  0  0  0  2  0  0  0  0  0  0
  160.6390  202.7410  150.3850 C   0  0  2  0  0  3  0  0  0  0  0  0
  160.4390  205.5360  153.6070 C   0  0  0  0  0  2  0  0  0  0  0  0
  161.6840  207.8220  154.8660 O   0  0  0  0  0  0  0  0  0  0  0  0
  161.0890  203.2820  152.7240 C   0  0  0  0  0  3  0  0  0  0  0  0
  161.7960  208.7500  151.3440 N   0  0  2  0  0  0  0  0  0  0  0  0
  162.2440  208.8510  152.7590 C   0  0  1  0  0  3  0  0  0  0  0  0
  161.3060  206.2560  151.5560 C   0  0  2  0  0  0  0  0  0  0  0  0
  161.3770  206.4530  152.9980 N   0  0  0  0  0  0  0  0  0  0  0  0
  161.3310  207.5090  150.7130 C   0  0  2  0  0  3  0  0  0  0  0  0
  160.3190  205.1460  151.1990 C   0  0  2  0  0  3  0  0  0  0  0  0
  162.5050  206.5060  150.6770 C   0  0  0  0  0  2  0  0  0  0  0  0
  161.3510  202.4650  151.6820 C   0  0  0  0  0  3  0  0  0  0  0  0
  162.3550  212.2530  148.5880 C   0  0  1  0  0  3  0  0  0  0  0  0
  161.8570  209.9080  150.4880 C   0  0  2  0  0  3  0  0  0  0  0  0
  161.5310  211.8400  149.7560 N   0  0  2  0  0  0  0  0  0  0  0  0
  161.5640  211.1390  150.9380 C   0  0  0  0  0  2  0  0  0  0  0  0
  161.9330  209.8400  148.9270 C   0  0  0  0  0  2  0  0  0  0  0  0
  161.4640  211.2310  148.4130 C   0  0  2  0  0  3  0  0  0  0  0  0
  162.8680  214.4530  147.6090 F   0  0  0  0  0  0  0  0  0  0  0  0
  161.8310  213.5500  147.9460 C   0  0  1  0  0  3  0  0  0  0  0  0
  161.6240  213.6210  145.2100 O   0  0  0  0  0  0  0  0  0  0  0  0
  160.8100  213.2670  146.4370 P   0  0  0  0  0  0  0  0  0  0  0  0
  160.3720  211.6250  146.3750 O   0  0  0  0  0  1  0  0  0  0  0  0
  159.3800  214.2000  146.4730 O   0  0  0  0  0  1  0  0  0  0  0  0
  161.9150  210.1980  153.4050 C   0  0  0  0  0  0  0  0  0  0  0  0
  160.9070  210.8670  153.0140 O   0  0  0  0  0  0  0  0  0  0  0  0
  162.7570  210.6940  154.4620 N   0  0  0  0  0  0  0  0  0  0  0  0
  162.4100  211.2140  155.6000 C   0  0  0  0  0  3  0  0  0  0  0  0
  160.9900  211.4120  156.0530 C   0  0  2  0  0  3  0  0  0  0  0  0
  160.8330  212.7390  156.7720 C   0  0  0  0  0  1  0  0  0  0  0  0
  160.4350  210.2350  156.8850 C   0  0  0  0  0  2  0  0  0  0  0  0
  159.1010  209.7110  156.5250 N   0  0  0  0  0  0  0  0  0  0  0  0
  159.1870  208.4150  156.1390 O   0  0  0  0  0  1  0  0  0  0  0  0
  157.3720  211.3090  155.9150 C   0  0  0  0  0  1  0  0  0  0  0  0
  158.5440  210.4870  155.4250 C   0  0  0  0  0  2  0  0  0  0  0  0
  161.0310  201.7910  149.2510 C   0  0  0  0  0  0  0  0  0  0  0  0
  161.8500  200.8560  149.4760 O   0  0  0  0  0  0  0  0  0  0  0  0
  159.1370  201.7150  147.8410 O   0  0  0  0  0  0  0  0  0  0  0  0
  160.3770  201.9220  147.9350 C   0  0  0  0  0  0  0  0  0  0  0  0
  161.2150  202.0790  146.6690 C   0  0  2  0  0  3  0  0  0  0  0  0
  161.1950  203.2180  144.5820 C   0  0  2  0  0  3  0  0  0  0  0  0
  160.8820  204.4950  144.4350 C   0  0  0  0  0  0  0  0  0  0  0  0
  161.1630  205.9320  143.6970 S   0  0  0  0  0  0  0  0  0  0  0  0
  159.8200  203.3920  144.9010 N   0  0  0  0  0  0  0  0  0  0  0  0
  161.0440  203.4320  145.9040 C   0  0  1  0  0  0  0  0  0  0  0  0
  160.9720  204.6270  146.9560 C   0  0  0  0  0  2  0  0  0  0  0  0
  162.3040  205.0600  147.3890 N   0  0  0  0  0  0  0  0  0  0  0  0
  162.3600  206.4940  147.1650 C   0  0  0  0  0  1  0  0  0  0  0  0
  163.2090  204.4890  146.4120 C   0  0  0  0  0  1  0  0  0  0  0  0
  161.1240  200.8330  145.7930 C   0  0  0  0  0  2  0  0  0  0  0  0
  161.6290  199.3500  146.7290 S   0  0  0  0  0  0  0  0  0  0  0  0
  160.8110  198.2360  145.5470 C   0  0  0  0  0  2  0  0  0  0  0  0
  161.7240  197.9780  144.3630 C   0  0  0  0  0  1  0  0  0  0  0  0
  1  6  2  0  0  0  0
  2  7  1  6  0  0  0
  2  5  1  0  0  0  0
  3  4  1  0  0  0  0
  4 39  1  6  0  0  0
  4 15  1  0  0  0  0
  8 17  1  6  0  0  0
  8  9  1  0  0  0  0
  9 28  1  1  0  0  0
  9  1  1  0  0  0  0
 10 14  1  6  0  0  0
 10 11  1  0  0  0  0
 11  1  1  0  0  0  0
 11  5  1  0  0  0  0
 12 14  1  6  0  0  0
 12  8  1  0  0  0  0
 12 10  1  0  0  0  0
 13  3  1  6  0  0  0
 13 10  1  0  0  0  0
 13  2  1  0  0  0  0
 15  7  2  0  0  0  0
 16 23  1  6  0  0  0
 16 18  1  0  0  0  0
 17 20  1  6  0  0  0
 17 19  1  0  0  0  0
 18 19  1  1  0  0  0
 21 16  1  0  0  0  0
 21 20  1  1  0  0  0
 21 18  1  0  0  0  0
 23 22  1  6  0  0  0
 24 25  2  0  0  0  0
 25 27  1  0  0  0  0
 25 23  1  0  0  0  0
 26 25  1  0  0  0  0
 28 30  1  0  0  0  0
 29 28  2  0  0  0  0
 30 31  2  0  0  0  0
 31 32  1  0  0  0  0
 32 33  1  1  0  0  0
 32 34  1  0  0  0  0
 35 34  1  0  0  0  0
 36 35  1  0  0  0  0
 38 37  1  0  0  0  0
 38 35  1  0  0  0  0
 39 40  2  0  0  0  0
 41 42  2  0  0  0  0
 42 39  1  0  0  0  0
 43 53  1  6  0  0  0
 43 42  1  0  0  0  0
 44 45  1  6  0  0  0
 44 47  1  0  0  0  0
 44 48  1  0  0  0  0
 45 47  1  0  0  0  0
 46 45  2  0  0  0  0
 47 48  1  0  0  0  0
 48 43  1  0  0  0  0
 48 49  1  1  0  0  0
 49 50  1  0  0  0  0
 51 50  1  0  0  0  0
 52 50  1  0  0  0  0
 53 54  1  0  0  0  0
 55 54  1  0  0  0  0
 56 55  1  0  0  0  0
M  END
>  <MODEL>
2

>  <REMARK>
 VINA RESULT:      -1.9      1.355      2.047
  Name = 
  18 active torsions:
  status: ('A' for Active; 'I' for Inactive)
    1  A    between atoms: C_5  and  N_27
    2  A    between atoms: C_5  and  C_36
    3  A    between atoms: P_6  and  C_55
    4  A    between atoms: C_8  and  C_39
    5  A    between atoms: C_10  and  C_55
    6  A    between atoms: N_12  and  C_18
    7  A    between atoms: N_12  and  C_26
    8  A    between atoms: C_13  and  C_18
    9  A    between atoms: C_13  and  C_47
   10  A    between atoms: S_14  and  C_15
   11  A    between atoms: S_14  and  C_33
   12  A    between atoms: N_19  and  C_48
   13  A    between atoms: C_21  and  N_30
   14  A    between atoms: C_25  and  C_33
   15  A    between atoms: C_25  and  C_35
   16  A    between atoms: C_25  and  C_42
   17  A    between atoms: C_35  and  C_39
   18  A    between atoms: C_42  and  C_48
                            x       y       z     vdW  Elec       q    Type
                         _______ _______ _______ _____ _____    ______ ____

>  <TORSDO>
F 18

$$$$
=
 OpenBabel11072414203D

 56 63  0  0  1  0  0  0  0  0999 V2000
  161.8530  210.4610  149.4400 C   0  0  0  0  0  0  0  0  0  0  0  0
  159.2920  212.7970  150.9450 C   0  0  2  0  0  3  0  0  0  0  0  0
  159.0120  211.8950  153.3920 C   0  0  0  0  0  2  0  0  0  0  0  0
  158.6770  213.3740  153.6330 C   0  0  2  0  0  3  0  0  0  0  0  0
  160.1720  212.3130  149.7760 C   0  0  0  0  0  2  0  0  0  0  0  0
  162.2430  210.9180  148.3190 O   0  0  0  0  0  0  0  0  0  0  0  0
  159.9690  213.9680  151.6470 C   0  0  0  0  0  3  0  0  0  0  0  0
  161.4180  208.5190  150.9350 N   0  0  2  0  0  0  0  0  0  0  0  0
  162.3100  209.0910  149.8900 C   0  0  1  0  0  3  0  0  0  0  0  0
  160.4690  210.8070  151.5430 C   0  0  2  0  0  0  0  0  0  0  0  0
  161.0450  211.2820  150.2920 N   0  0  0  0  0  0  0  0  0  0  0  0
  160.5050  209.3130  151.7650 C   0  0  2  0  0  3  0  0  0  0  0  0
  159.1940  211.5740  151.8880 C   0  0  2  0  0  3  0  0  0  0  0  0
  161.3430  210.2660  152.6450 C   0  0  0  0  0  2  0  0  0  0  0  0
  159.6870  214.2460  152.9380 C   0  0  0  0  0  3  0  0  0  0  0  0
  161.9360  204.1630  151.9040 C   0  0  1  0  0  3  0  0  0  0  0  0
  161.4620  207.1060  151.2190 C   0  0  2  0  0  3  0  0  0  0  0  0
  161.0500  205.0590  151.1120 N   0  0  2  0  0  0  0  0  0  0  0  0
  161.0370  206.1910  150.3330 C   0  0  0  0  0  2  0  0  0  0  0  0
  161.6750  206.5070  152.6480 C   0  0  0  0  0  2  0  0  0  0  0  0
  161.1450  205.0460  152.5840 C   0  0  2  0  0  3  0  0  0  0  0  0
  160.2490  202.6470  152.8610 F   0  0  0  0  0  0  0  0  0  0  0  0
  161.3690  202.7350  152.0010 C   0  0  1  0  0  3  0  0  0  0  0  0
  161.8780  202.4780  149.3160 O   0  0  0  0  0  0  0  0  0  0  0  0
  160.8930  202.0180  150.3700 P   0  0  0  0  0  0  0  0  0  0  0  0
  160.9370  200.3220  150.4860 O   0  0  0  0  0  1  0  0  0  0  0  0
  159.3110  202.4820  149.9270 O   0  0  0  0  0  1  0  0  0  0  0  0
  162.5240  208.1590  148.6970 C   0  0  0  0  0  0  0  0  0  0  0  0
  163.5730  207.4450  148.6220 O   0  0  0  0  0  0  0  0  0  0  0  0
  161.5220  208.0970  147.6670 N   0  0  0  0  0  0  0  0  0  0  0  0
  161.2790  207.1360  146.8260 C   0  0  0  0  0  3  0  0  0  0  0  0
  162.0420  205.8420  146.7630 C   0  0  2  0  0  3  0  0  0  0  0  0
  162.9290  205.7980  145.5320 C   0  0  0  0  0  1  0  0  0  0  0  0
  161.1470  204.5890  146.8750 C   0  0  0  0  0  2  0  0  0  0  0  0
  161.2580  203.5680  145.8120 N   0  0  0  0  0  0  0  0  0  0  0  0
  160.4010  203.8420  144.7990 O   0  0  0  0  0  1  0  0  0  0  0  0
  160.3360  201.3850  145.2650 C   0  0  0  0  0  1  0  0  0  0  0  0
  160.9340  202.2540  146.3510 C   0  0  0  0  0  2  0  0  0  0  0  0
  158.4540  213.7370  155.1030 C   0  0  0  0  0  0  0  0  0  0  0  0
  157.4640  214.4530  155.4250 O   0  0  0  0  0  0  0  0  0  0  0  0
  160.5570  213.5130  156.1570 O   0  0  0  0  0  0  0  0  0  0  0  0
  159.3440  213.1700  156.1340 C   0  0  0  0  0  0  0  0  0  0  0  0
  158.8690  212.0180  157.0150 C   0  0  2  0  0  3  0  0  0  0  0  0
  158.4890  209.8340  156.1550 C   0  0  2  0  0  3  0  0  0  0  0  0
  159.4390  208.9320  155.9730 C   0  0  0  0  0  0  0  0  0  0  0  0
  159.9200  207.3670  156.0490 S   0  0  0  0  0  0  0  0  0  0  0  0
  159.3600  210.2890  155.1270 N   0  0  0  0  0  0  0  0  0  0  0  0
  159.4600  210.6120  156.6740 C   0  0  1  0  0  0  0  0  0  0  0  0
  160.9400  210.5080  157.2560 C   0  0  0  0  0  2  0  0  0  0  0  0
  161.9370  211.0400  156.3220 N   0  0  0  0  0  0  0  0  0  0  0  0
  162.4270  209.9070  155.5570 C   0  0  0  0  0  1  0  0  0  0  0  0
  163.0490  211.4370  157.1630 C   0  0  0  0  0  1  0  0  0  0  0  0
  157.3530  212.0500  157.1880 C   0  0  0  0  0  2  0  0  0  0  0  0
  156.5320  212.4600  155.6100 S   0  0  0  0  0  0  0  0  0  0  0  0
  154.9020  212.5820  156.4050 C   0  0  0  0  0  2  0  0  0  0  0  0
  154.6630  214.0030  156.8800 C   0  0  0  0  0  1  0  0  0  0  0  0
  1  9  1  0  0  0  0
  1 11  1  0  0  0  0
  2  5  1  6  0  0  0
  2  7  1  0  0  0  0
  2 13  1  0  0  0  0
  3  4  1  0  0  0  0
  4 39  1  1  0  0  0
  5 11  1  0  0  0  0
  6  1  2  0  0  0  0
  7 15  2  0  0  0  0
  8 17  1  1  0  0  0
  8 12  1  0  0  0  0
  9 28  1  6  0  0  0
  9  8  1  0  0  0  0
 10 12  1  0  0  0  0
 10 13  1  0  0  0  0
 10 14  1  1  0  0  0
 11 10  1  0  0  0  0
 12 14  1  1  0  0  0
 13  3  1  1  0  0  0
 15  4  1  0  0  0  0
 16 23  1  1  0  0  0
 16 21  1  0  0  0  0
 17 19  1  1  0  0  0
 17 20  1  0  0  0  0
 18 19  1  6  0  0  0
 18 16  1  0  0  0  0
 18 21  1  0  0  0  0
 21 20  1  6  0  0  0
 23 22  1  1  0  0  0
 24 25  2  0  0  0  0
 25 26  1  0  0  0  0
 25 23  1  0  0  0  0
 27 25  1  0  0  0  0
 29 28  2  0  0  0  0
 30 28  1  0  0  0  0
 31 30  2  0  0  0  0
 32 33  1  6  0  0  0
 32 31  1  0  0  0  0
 32 34  1  0  0  0  0
 35 38  1  0  0  0  0
 35 34  1  0  0  0  0
 36 35  1  0  0  0  0
 37 38  1  0  0  0  0
 39 40  2  0  0  0  0
 39 42  1  0  0  0  0
 42 41  2  0  0  0  0
 42 43  1  0  0  0  0
 43 53  1  6  0  0  0
 44 45  1  1  0  0  0
 44 48  1  0  0  0  0
 45 46  2  0  0  0  0
 47 45  1  0  0  0  0
 47 44  1  0  0  0  0
 47 48  1  0  0  0  0
 48 43  1  0  0  0  0
 48 49  1  1  0  0  0
 50 52  1  0  0  0  0
 50 49  1  0  0  0  0
 51 50  1  0  0  0  0
 54 55  1  0  0  0  0
 54 53  1  0  0  0  0
 55 56  1  0  0  0  0
M  END
>  <MODEL>
3

>  <REMARK>
 VINA RESULT:      -0.7      3.688     11.042
  Name = 
  18 active torsions:
  status: ('A' for Active; 'I' for Inactive)
    1  A    between atoms: C_5  and  N_27
    2  A    between atoms: C_5  and  C_36
    3  A    between atoms: P_6  and  C_55
    4  A    between atoms: C_8  and  C_39
    5  A    between atoms: C_10  and  C_55
    6  A    between atoms: N_12  and  C_18
    7  A    between atoms: N_12  and  C_26
    8  A    between atoms: C_13  and  C_18
    9  A    between atoms: C_13  and  C_47
   10  A    between atoms: S_14  and  C_15
   11  A    between atoms: S_14  and  C_33
   12  A    between atoms: N_19  and  C_48
   13  A    between atoms: C_21  and  N_30
   14  A    between atoms: C_25  and  C_33
   15  A    between atoms: C_25  and  C_35
   16  A    between atoms: C_25  and  C_42
   17  A    between atoms: C_35  and  C_39
   18  A    between atoms: C_42  and  C_48
                            x       y       z     vdW  Elec       q    Type
                         _______ _______ _______ _____ _____    ______ ____

>  <TORSDO>
F 18

$$$$
=
 OpenBabel11072414203D

 56 63  0  0  1  0  0  0  0  0999 V2000
  161.2220  204.4250  149.4000 C   0  0  0  0  0  0  0  0  0  0  0  0
  162.2440  207.1580  151.8010 C   0  0  2  0  0  3  0  0  0  0  0  0
  161.6300  209.3590  150.5130 C   0  0  0  0  0  2  0  0  0  0  0  0
  161.4700  209.8630  151.9550 C   0  0  2  0  0  3  0  0  0  0  0  0
  162.1020  205.6750  151.4080 C   0  0  0  0  0  2  0  0  0  0  0  0
  161.2660  203.2990  149.9880 O   0  0  0  0  0  0  0  0  0  0  0  0
  161.0750  207.5670  152.6900 C   0  0  0  0  0  3  0  0  0  0  0  0
  161.4020  205.7660  147.3100 N   0  0  2  0  0  0  0  0  0  0  0  0
  160.9490  204.4830  147.9130 C   0  0  1  0  0  3  0  0  0  0  0  0
  161.4260  206.9530  149.5670 C   0  0  2  0  0  0  0  0  0  0  0  0
  161.3600  205.6270  150.1680 N   0  0  0  0  0  0  0  0  0  0  0  0
  161.6470  206.9950  148.0740 C   0  0  2  0  0  3  0  0  0  0  0  0
  162.2030  207.9220  150.4560 C   0  0  2  0  0  3  0  0  0  0  0  0
  160.3120  207.4650  148.6910 C   0  0  0  0  0  2  0  0  0  0  0  0
  160.6910  208.8590  152.7630 C   0  0  0  0  0  3  0  0  0  0  0  0
  162.1110  206.4200  142.9220 C   0  0  1  0  0  3  0  0  0  0  0  0
  161.5700  205.8660  145.8820 C   0  0  2  0  0  3  0  0  0  0  0  0
  161.1940  205.6830  143.8330 N   0  0  2  0  0  0  0  0  0  0  0  0
  160.5330  205.7610  145.0360 C   0  0  0  0  0  2  0  0  0  0  0  0
  162.9520  205.7690  145.1550 C   0  0  0  0  0  2  0  0  0  0  0  0
  162.6350  205.4070  143.6760 C   0  0  2  0  0  3  0  0  0  0  0  0
  160.6270  205.5450  141.1640 F   0  0  0  0  0  0  0  0  0  0  0  0
  161.9420  205.9790  141.4570 C   0  0  1  0  0  3  0  0  0  0  0  0
  163.7030  207.9270  140.6550 O   0  0  0  0  0  1  0  0  0  0  0  0
  162.3960  207.2860  140.2360 P   0  0  0  0  0  0  0  0  0  0  0  0
  162.5810  206.5630  138.7080 O   0  0  0  0  0  0  0  0  0  0  0  0
  161.1770  208.4760  140.1200 O   0  0  0  0  0  1  0  0  0  0  0  0
  161.5020  203.2480  147.2000 C   0  0  0  0  0  0  0  0  0  0  0  0
  162.6940  202.8630  147.4180 O   0  0  0  0  0  0  0  0  0  0  0  0
  160.6560  202.5280  146.2860 N   0  0  0  0  0  0  0  0  0  0  0  0
  160.6300  201.2530  146.0350 C   0  0  0  0  0  3  0  0  0  0  0  0
  161.5300  200.2360  146.6810 C   0  0  2  0  0  3  0  0  0  0  0  0
  161.6960  199.0200  145.7890 C   0  0  0  0  0  1  0  0  0  0  0  0
  161.1000  199.8490  148.1130 C   0  0  0  0  0  2  0  0  0  0  0  0
  160.8190  200.9450  149.0640 N   0  0  0  0  0  0  0  0  0  0  0  0
  161.4160  200.7030  150.2560 O   0  0  0  0  0  1  0  0  0  0  0  0
  159.0430  200.6690  150.7020 C   0  0  0  0  0  1  0  0  0  0  0  0
  159.3820  201.0570  149.2790 C   0  0  0  0  0  2  0  0  0  0  0  0
  160.9360  211.2930  152.0660 C   0  0  0  0  0  0  0  0  0  0  0  0
  160.8910  212.0240  151.0370 O   0  0  0  0  0  0  0  0  0  0  0  0
  160.7780  211.2190  154.4220 O   0  0  0  0  0  0  0  0  0  0  0  0
  160.3950  211.7680  153.3550 C   0  0  0  0  0  0  0  0  0  0  0  0
  159.2250  212.7470  153.3860 C   0  0  2  0  0  3  0  0  0  0  0  0
  158.8060  211.9870  155.6000 C   0  0  2  0  0  3  0  0  0  0  0  0
  157.6420  212.1050  156.2180 C   0  0  0  0  0  0  0  0  0  0  0  0
  156.5120  211.4600  157.2150 S   0  0  0  0  0  0  0  0  0  0  0  0
  158.5450  213.3670  155.8250 N   0  0  0  0  0  0  0  0  0  0  0  0
  158.1840  212.5270  154.5320 C   0  0  1  0  0  0  0  0  0  0  0  0
  156.7190  212.8080  153.9740 C   0  0  0  0  0  2  0  0  0  0  0  0
  156.3930  214.2370  153.9790 N   0  0  0  0  0  0  0  0  0  0  0  0
  155.3990  214.4260  155.0200 C   0  0  0  0  0  1  0  0  0  0  0  0
  155.6810  214.4530  152.7340 C   0  0  0  0  0  1  0  0  0  0  0  0
  158.6200  212.9220  151.9970 C   0  0  0  0  0  2  0  0  0  0  0  0
  159.2310  214.4530  151.2150 S   0  0  0  0  0  0  0  0  0  0  0  0
  158.2790  214.1460  149.6970 C   0  0  0  0  0  2  0  0  0  0  0  0
  157.4530  212.8830  149.8510 C   0  0  0  0  0  1  0  0  0  0  0  0
  1  6  2  0  0  0  0
  1 11  1  0  0  0  0
  2  5  1  6  0  0  0
  2  7  1  0  0  0  0
  3  4  1  0  0  0  0
  4 39  1  6  0  0  0
  4 15  1  0  0  0  0
  7 15  2  0  0  0  0
  8 17  1  6  0  0  0
  8  9  1  0  0  0  0
  8 12  1  0  0  0  0
  9 28  1  6  0  0  0
  9  1  1  0  0  0  0
 10 14  1  1  0  0  0
 10 11  1  0  0  0  0
 10 13  1  0  0  0  0
 11  5  1  0  0  0  0
 12 14  1  6  0  0  0
 12 10  1  0  0  0  0
 13  3  1  1  0  0  0
 13  2  1  0  0  0  0
 16 23  1  6  0  0  0
 16 21  1  0  0  0  0
 16 18  1  0  0  0  0
 17 19  1  6  0  0  0
 18 19  1  1  0  0  0
 20 17  1  0  0  0  0
 21 18  1  0  0  0  0
 21 20  1  1  0  0  0
 23 22  1  1  0  0  0
 25 24  1  0  0  0  0
 25 23  1  0  0  0  0
 26 25  2  0  0  0  0
 27 25  1  0  0  0  0
 28 29  2  0  0  0  0
 30 28  1  0  0  0  0
 31 30  2  0  0  0  0
 31 32  1  0  0  0  0
 32 33  1  6  0  0  0
 32 34  1  0  0  0  0
 34 35  1  0  0  0  0
 35 38  1  0  0  0  0
 35 36  1  0  0  0  0
 38 37  1  0  0  0  0
 39 42  1  0  0  0  0
 40 39  2  0  0  0  0
 42 43  1  0  0  0  0
 42 41  2  0  0  0  0
 43 53  1  6  0  0  0
 43 48  1  0  0  0  0
 44 47  1  0  0  0  0
 44 45  1  1  0  0  0
 45 46  2  0  0  0  0
 47 45  1  0  0  0  0
 48 49  1  6  0  0  0
 48 44  1  0  0  0  0
 48 47  1  0  0  0  0
 49 50  1  0  0  0  0
 50 51  1  0  0  0  0
 52 50  1  0  0  0  0
 54 53  1  0  0  0  0
 55 56  1  0  0  0  0
 55 54  1  0  0  0  0
M  END
>  <MODEL>
4

>  <REMARK>
 VINA RESULT:       0.2      3.937     10.650
  Name = 
  18 active torsions:
  status: ('A' for Active; 'I' for Inactive)
    1  A    between atoms: C_5  and  N_27
    2  A    between atoms: C_5  and  C_36
    3  A    between atoms: P_6  and  C_55
    4  A    between atoms: C_8  and  C_39
    5  A    between atoms: C_10  and  C_55
    6  A    between atoms: N_12  and  C_18
    7  A    between atoms: N_12  and  C_26
    8  A    between atoms: C_13  and  C_18
    9  A    between atoms: C_13  and  C_47
   10  A    between atoms: S_14  and  C_15
   11  A    between atoms: S_14  and  C_33
   12  A    between atoms: N_19  and  C_48
   13  A    between atoms: C_21  and  N_30
   14  A    between atoms: C_25  and  C_33
   15  A    between atoms: C_25  and  C_35
   16  A    between atoms: C_25  and  C_42
   17  A    between atoms: C_35  and  C_39
   18  A    between atoms: C_42  and  C_48
                            x       y       z     vdW  Elec       q    Type
                         _______ _______ _______ _____ _____    ______ ____

>  <TORSDO>
F 18

$$$$
=
 OpenBabel11072414203D

 56 63  0  0  1  0  0  0  0  0999 V2000
  161.2210  203.8130  149.9830 C   0  0  0  0  0  0  0  0  0  0  0  0
  162.3150  206.3940  152.5180 C   0  0  2  0  0  3  0  0  0  0  0  0
  161.7170  208.6720  151.3620 C   0  0  0  0  0  2  0  0  0  0  0  0
  161.5830  209.0970  152.8310 C   0  0  2  0  0  3  0  0  0  0  0  0
  162.1460  204.9380  152.0450 C   0  0  0  0  0  2  0  0  0  0  0  0
  161.2560  202.6550  150.5080 O   0  0  0  0  0  0  0  0  0  0  0  0
  161.1630  206.7700  153.4430 C   0  0  0  0  0  3  0  0  0  0  0  0
  161.3940  205.2650  147.9680 N   0  0  2  0  0  0  0  0  0  0  0  0
  160.9290  203.9570  148.5060 C   0  0  1  0  0  3  0  0  0  0  0  0
  161.4650  206.3240  150.2870 C   0  0  2  0  0  0  0  0  0  0  0  0
  161.3870  204.9680  150.8140 N   0  0  0  0  0  0  0  0  0  0  0  0
  161.6670  206.4460  148.7950 C   0  0  2  0  0  3  0  0  0  0  0  0
  162.2680  207.2320  151.2170 C   0  0  2  0  0  3  0  0  0  0  0  0
  160.3470  206.9000  149.4560 C   0  0  0  0  0  2  0  0  0  0  0  0
  160.8000  208.0620  153.5930 C   0  0  0  0  0  3  0  0  0  0  0  0
  162.1440  206.0810  143.6150 C   0  0  1  0  0  3  0  0  0  0  0  0
  161.5450  205.4410  146.5460 C   0  0  2  0  0  3  0  0  0  0  0  0
  161.0760  205.5630  144.5110 N   0  0  2  0  0  0  0  0  0  0  0  0
  160.5000  205.7200  145.7500 C   0  0  0  0  0  2  0  0  0  0  0  0
  162.8170  205.0140  145.7420 C   0  0  0  0  0  2  0  0  0  0  0  0
  162.3670  204.8960  144.2570 C   0  0  2  0  0  3  0  0  0  0  0  0
  160.4260  205.9210  141.8590 F   0  0  0  0  0  0  0  0  0  0  0  0
  161.8130  205.8450  142.1300 C   0  0  1  0  0  3  0  0  0  0  0  0
  163.8570  207.6280  141.7080 O   0  0  0  0  0  1  0  0  0  0  0  0
  162.6820  207.0020  140.9870 P   0  0  0  0  0  0  0  0  0  0  0  0
  163.2420  206.1220  139.6440 O   0  0  0  0  0  0  0  0  0  0  0  0
  161.6290  208.2230  140.4240 O   0  0  0  0  0  1  0  0  0  0  0  0
  161.4550  202.7560  147.7180 C   0  0  0  0  0  0  0  0  0  0  0  0
  161.7120  202.8660  146.4780 O   0  0  0  0  0  0  0  0  0  0  0  0
  161.6590  201.5050  148.4000 N   0  0  0  0  0  0  0  0  0  0  0  0
  161.4690  200.2980  147.9580 C   0  0  0  0  0  3  0  0  0  0  0  0
  160.9680  199.9610  146.5810 C   0  0  2  0  0  3  0  0  0  0  0  0
  161.8280  198.8870  145.9420 C   0  0  0  0  0  1  0  0  0  0  0  0
  160.8020  201.1920  145.6630 C   0  0  0  0  0  2  0  0  0  0  0  0
  159.5270  201.3340  144.9300 N   0  0  0  0  0  0  0  0  0  0  0  0
  159.3220  200.2660  144.1220 O   0  0  0  0  0  1  0  0  0  0  0  0
  158.3200  203.3680  144.3650 C   0  0  0  0  0  1  0  0  0  0  0  0
  159.5590  202.5370  144.1090 C   0  0  0  0  0  2  0  0  0  0  0  0
  161.0730  210.5260  153.0280 C   0  0  0  0  0  0  0  0  0  0  0  0
  160.8580  211.2570  152.0200 O   0  0  0  0  0  0  0  0  0  0  0  0
  161.6590  211.5120  155.0940 O   0  0  0  0  0  0  0  0  0  0  0  0
  160.7490  211.0000  154.3880 C   0  0  0  0  0  0  0  0  0  0  0  0
  159.3980  210.6740  155.0170 C   0  0  2  0  0  3  0  0  0  0  0  0
  157.4180  211.4900  156.0520 C   0  0  2  0  0  3  0  0  0  0  0  0
  157.0830  212.7680  156.1110 C   0  0  0  0  0  0  0  0  0  0  0  0
  155.9150  213.9160  156.0360 S   0  0  0  0  0  0  0  0  0  0  0  0
  158.3540  212.1700  156.8790 N   0  0  0  0  0  0  0  0  0  0  0  0
  158.4760  211.9000  155.3240 C   0  0  1  0  0  0  0  0  0  0  0  0
  158.9830  213.1600  154.4920 C   0  0  0  0  0  2  0  0  0  0  0  0
  158.0800  213.4870  153.3840 N   0  0  0  0  0  0  0  0  0  0  0  0
  157.7170  212.2240  152.7660 C   0  0  0  0  0  1  0  0  0  0  0  0
  158.9230  214.1540  152.4120 C   0  0  0  0  0  1  0  0  0  0  0  0
  159.5540  209.6870  156.1700 C   0  0  0  0  0  2  0  0  0  0  0  0
  161.1310  209.9640  157.0470 S   0  0  0  0  0  0  0  0  0  0  0  0
  161.4100  208.1800  157.2600 C   0  0  0  0  0  2  0  0  0  0  0  0
  160.1220  207.4200  157.0030 C   0  0  0  0  0  1  0  0  0  0  0  0
  1  6  2  0  0  0  0
  1 11  1  0  0  0  0
  2  5  1  6  0  0  0
  2  7  1  0  0  0  0
  3  4  1  0  0  0  0
  4 39  1  6  0  0  0
  4 15  1  0  0  0  0
  7 15  2  0  0  0  0
  8 17  1  6  0  0  0
  8  9  1  0  0  0  0
  8 12  1  0  0  0  0
  9 28  1  6  0  0  0
  9  1  1  0  0  0  0
 10 14  1  1  0  0  0
 10 11  1  0  0  0  0
 10 13  1  0  0  0  0
 11  5  1  0  0  0  0
 12 14  1  6  0  0  0
 12 10  1  0  0  0  0
 13  3  1  1  0  0  0
 13  2  1  0  0  0  0
 16 23  1  6  0  0  0
 16 21  1  0  0  0  0
 16 18  1  0  0  0  0
 17 20  1  6  0  0  0
 18 19  1  1  0  0  0
 19 17  1  0  0  0  0
 21 18  1  0  0  0  0
 21 20  1  1  0  0  0
 23 22  1  1  0  0  0
 25 24  1  0  0  0  0
 25 23  1  0  0  0  0
 26 25  2  0  0  0  0
 27 25  1  0  0  0  0
 28 30  1  0  0  0  0
 29 28  2  0  0  0  0
 31 30  2  0  0  0  0
 32 33  1  6  0  0  0
 32 31  1  0  0  0  0
 34 32  1  0  0  0  0
 35 34  1  0  0  0  0
 36 35  1  0  0  0  0
 38 37  1  0  0  0  0
 38 35  1  0  0  0  0
 39 42  1  0  0  0  0
 40 39  2  0  0  0  0
 42 43  1  0  0  0  0
 42 41  2  0  0  0  0
 43 48  1  0  0  0  0
 43 53  1  1  0  0  0
 44 45  1  6  0  0  0
 44 47  1  0  0  0  0
 45 47  1  0  0  0  0
 46 45  2  0  0  0  0
 48 49  1  6  0  0  0
 48 44  1  0  0  0  0
 48 47  1  0  0  0  0
 50 49  1  0  0  0  0
 51 50  1  0  0  0  0
 52 50  1  0  0  0  0
 53 54  1  0  0  0  0
 54 55  1  0  0  0  0
 56 55  1  0  0  0  0
M  END
>  <MODEL>
5

>  <REMARK>
 VINA RESULT:       0.4      3.902     10.604
  Name = 
  18 active torsions:
  status: ('A' for Active; 'I' for Inactive)
    1  A    between atoms: C_5  and  N_27
    2  A    between atoms: C_5  and  C_36
    3  A    between atoms: P_6  and  C_55
    4  A    between atoms: C_8  and  C_39
    5  A    between atoms: C_10  and  C_55
    6  A    between atoms: N_12  and  C_18
    7  A    between atoms: N_12  and  C_26
    8  A    between atoms: C_13  and  C_18
    9  A    between atoms: C_13  and  C_47
   10  A    between atoms: S_14  and  C_15
   11  A    between atoms: S_14  and  C_33
   12  A    between atoms: N_19  and  C_48
   13  A    between atoms: C_21  and  N_30
   14  A    between atoms: C_25  and  C_33
   15  A    between atoms: C_25  and  C_35
   16  A    between atoms: C_25  and  C_42
   17  A    between atoms: C_35  and  C_39
   18  A    between atoms: C_42  and  C_48
                            x       y       z     vdW  Elec       q    Type
                         _______ _______ _______ _____ _____    ______ ____

>  <TORSDO>
F 18

$$$$
=
 OpenBabel11072414203D

 56 63  0  0  1  0  0  0  0  0999 V2000
  161.9060  210.2720  149.1850 C   0  0  0  0  0  0  0  0  0  0  0  0
  159.6840  212.6150  151.1470 C   0  0  2  0  0  3  0  0  0  0  0  0
  159.6170  211.5320  153.5350 C   0  0  0  0  0  2  0  0  0  0  0  0
  159.4080  213.0020  153.9240 C   0  0  2  0  0  3  0  0  0  0  0  0
  160.3960  212.1820  149.8520 C   0  0  0  0  0  2  0  0  0  0  0  0
  162.1990  210.7970  148.0640 O   0  0  0  0  0  0  0  0  0  0  0  0
  160.5090  213.6840  151.8540 C   0  0  0  0  0  3  0  0  0  0  0  0
  161.5130  208.2400  150.5690 N   0  0  2  0  0  0  0  0  0  0  0  0
  162.3200  208.8460  149.4750 C   0  0  1  0  0  3  0  0  0  0  0  0
  160.7880  210.5200  151.4530 C   0  0  2  0  0  0  0  0  0  0  0  0
  161.2520  211.0640  150.1840 N   0  0  0  0  0  0  0  0  0  0  0  0
  160.7500  209.0140  151.5560 C   0  0  2  0  0  3  0  0  0  0  0  0
  159.6110  211.3260  152.0010 C   0  0  2  0  0  3  0  0  0  0  0  0
  161.7400  209.8420  152.4040 C   0  0  0  0  0  2  0  0  0  0  0  0
  160.3900  213.8710  153.1860 C   0  0  0  0  0  3  0  0  0  0  0  0
  161.7860  203.7670  150.8750 C   0  0  1  0  0  3  0  0  0  0  0  0
  161.4960  206.8090  150.7380 C   0  0  2  0  0  3  0  0  0  0  0  0
  160.7790  204.8580  150.9740 N   0  0  2  0  0  0  0  0  0  0  0  0
  160.4120  206.0730  150.4450 C   0  0  0  0  0  2  0  0  0  0  0  0
  162.5590  206.0130  151.5630 C   0  0  0  0  0  2  0  0  0  0  0  0
  161.8980  204.6490  151.9130 C   0  0  2  0  0  3  0  0  0  0  0  0
  160.0220  202.5630  152.1000 F   0  0  0  0  0  0  0  0  0  0  0  0
  161.2200  202.4200  151.3610 C   0  0  1  0  0  3  0  0  0  0  0  0
  161.0160  199.8070  150.5450 O   0  0  0  0  0  1  0  0  0  0  0  0
  160.9100  201.2150  149.9990 P   0  0  0  0  0  0  0  0  0  0  0  0
  159.3430  201.4730  149.3900 O   0  0  0  0  0  1  0  0  0  0  0  0
  162.0210  201.4270  148.7190 O   0  0  0  0  0  0  0  0  0  0  0  0
  162.3400  208.0050  148.1980 C   0  0  0  0  0  0  0  0  0  0  0  0
  163.4040  207.4090  147.8400 O   0  0  0  0  0  0  0  0  0  0  0  0
  161.1390  207.8940  147.4120 N   0  0  0  0  0  0  0  0  0  0  0  0
  160.8430  207.0160  146.5010 C   0  0  0  0  0  3  0  0  0  0  0  0
  161.7470  205.8950  146.0670 C   0  0  2  0  0  3  0  0  0  0  0  0
  161.5230  205.5580  144.6050 C   0  0  0  0  0  1  0  0  0  0  0  0
  161.6590  204.6450  146.9690 C   0  0  0  0  0  2  0  0  0  0  0  0
  161.5830  203.3260  146.3070 N   0  0  0  0  0  0  0  0  0  0  0  0
  162.7040  203.0920  145.5830 O   0  0  0  0  0  1  0  0  0  0  0  0
  160.0660  201.8510  145.1070 C   0  0  0  0  0  1  0  0  0  0  0  0
  160.4350  203.2880  145.4110 C   0  0  0  0  0  2  0  0  0  0  0  0
  159.3720  213.2540  155.4340 C   0  0  0  0  0  0  0  0  0  0  0  0
  159.3650  214.4410  155.8670 O   0  0  0  0  0  0  0  0  0  0  0  0
  160.2210  211.8300  157.1160 O   0  0  0  0  0  0  0  0  0  0  0  0
  159.2540  212.1110  156.3590 C   0  0  0  0  0  0  0  0  0  0  0  0
  158.0780  211.1450  156.2460 C   0  0  2  0  0  3  0  0  0  0  0  0
  156.6960  213.0750  156.0910 C   0  0  2  0  0  3  0  0  0  0  0  0
  155.3930  213.0760  156.3180 C   0  0  0  0  0  0  0  0  0  0  0  0
  154.0800  213.8290  156.9470 S   0  0  0  0  0  0  0  0  0  0  0  0
  156.0560  212.3070  155.0800 N   0  0  0  0  0  0  0  0  0  0  0  0
  156.6600  211.7740  156.4430 C   0  0  1  0  0  0  0  0  0  0  0  0
  155.7210  210.7290  157.1950 C   0  0  0  0  0  2  0  0  0  0  0  0
  154.5520  210.3620  156.3900 N   0  0  0  0  0  0  0  0  0  0  0  0
  153.7690  209.4460  157.2010 C   0  0  0  0  0  1  0  0  0  0  0  0
  155.0890  209.5510  155.3160 C   0  0  0  0  0  1  0  0  0  0  0  0
  158.3320  209.8750  157.0500 C   0  0  0  0  0  2  0  0  0  0  0  0
  160.1200  209.5170  157.1430 S   0  0  0  0  0  0  0  0  0  0  0  0
  160.0510  208.4250  155.6900 C   0  0  0  0  0  2  0  0  0  0  0  0
  159.4710  207.0790  156.0820 C   0  0  0  0  0  1  0  0  0  0  0  0
  1  9  1  0  0  0  0
  1 11  1  0  0  0  0
  2  5  1  6  0  0  0
  2  7  1  0  0  0  0
  2 13  1  0  0  0  0
  3  4  1  0  0  0  0
  4 39  1  1  0  0  0
  5 11  1  0  0  0  0
  6  1  2  0  0  0  0
  7 15  2  0  0  0  0
  8 17  1  1  0  0  0
  8 12  1  0  0  0  0
  9 28  1  6  0  0  0
  9  8  1  0  0  0  0
 10 12  1  0  0  0  0
 10 13  1  0  0  0  0
 10 14  1  1  0  0  0
 11 10  1  0  0  0  0
 12 14  1  1  0  0  0
 13  3  1  1  0  0  0
 15  4  1  0  0  0  0
 16 18  1  0  0  0  0
 16 23  1  1  0  0  0
 16 21  1  0  0  0  0
 17 19  1  1  0  0  0
 17 20  1  0  0  0  0
 18 19  1  6  0  0  0
 18 21  1  0  0  0  0
 21 20  1  6  0  0  0
 23 22  1  6  0  0  0
 25 24  1  0  0  0  0
 25 23  1  0  0  0  0
 26 25  1  0  0  0  0
 27 25  2  0  0  0  0
 29 28  2  0  0  0  0
 30 28  1  0  0  0  0
 31 30  2  0  0  0  0
 32 33  1  6  0  0  0
 32 31  1  0  0  0  0
 32 34  1  0  0  0  0
 35 34  1  0  0  0  0
 36 35  1  0  0  0  0
 37 38  1  0  0  0  0
 38 35  1  0  0  0  0
 39 40  2  0  0  0  0
 39 42  1  0  0  0  0
 42 41  2  0  0  0  0
 43 42  1  0  0  0  0
 43 48  1  0  0  0  0
 43 53  1  1  0  0  0
 44 45  1  1  0  0  0
 44 48  1  0  0  0  0
 45 46  2  0  0  0  0
 47 44  1  0  0  0  0
 47 45  1  0  0  0  0
 47 48  1  0  0  0  0
 48 49  1  1  0  0  0
 50 49  1  0  0  0  0
 50 51  1  0  0  0  0
 52 50  1  0  0  0  0
 53 54  1  0  0  0  0
 55 56  1  0  0  0  0
 55 54  1  0  0  0  0
M  END
>  <MODEL>
6

>  <REMARK>
 VINA RESULT:       0.6      3.970     10.993
  Name = 
  18 active torsions:
  status: ('A' for Active; 'I' for Inactive)
    1  A    between atoms: C_5  and  N_27
    2  A    between atoms: C_5  and  C_36
    3  A    between atoms: P_6  and  C_55
    4  A    between atoms: C_8  and  C_39
    5  A    between atoms: C_10  and  C_55
    6  A    between atoms: N_12  and  C_18
    7  A    between atoms: N_12  and  C_26
    8  A    between atoms: C_13  and  C_18
    9  A    between atoms: C_13  and  C_47
   10  A    between atoms: S_14  and  C_15
   11  A    between atoms: S_14  and  C_33
   12  A    between atoms: N_19  and  C_48
   13  A    between atoms: C_21  and  N_30
   14  A    between atoms: C_25  and  C_33
   15  A    between atoms: C_25  and  C_35
   16  A    between atoms: C_25  and  C_42
   17  A    between atoms: C_35  and  C_39
   18  A    between atoms: C_42  and  C_48
                            x       y       z     vdW  Elec       q    Type
                         _______ _______ _______ _____ _____    ______ ____

>  <TORSDO>
F 18

$$$$
=
 OpenBabel11072414203D

 56 63  0  0  1  0  0  0  0  0999 V2000
  161.0660  203.9270  150.2010 C   0  0  0  0  0  0  0  0  0  0  0  0
  162.1310  206.5820  152.6710 C   0  0  2  0  0  3  0  0  0  0  0  0
  161.5750  208.8240  151.4290 C   0  0  0  0  0  2  0  0  0  0  0  0
  161.4160  209.2990  152.8810 C   0  0  2  0  0  3  0  0  0  0  0  0
  161.9590  205.1110  152.2430 C   0  0  0  0  0  2  0  0  0  0  0  0
  161.0810  202.7870  150.7640 O   0  0  0  0  0  0  0  0  0  0  0  0
  160.9650  206.9960  153.5610 C   0  0  0  0  0  3  0  0  0  0  0  0
  161.2910  205.3110  148.1430 N   0  0  2  0  0  0  0  0  0  0  0  0
  160.8050  204.0250  148.7140 C   0  0  1  0  0  3  0  0  0  0  0  0
  161.3250  206.4450  150.4270 C   0  0  2  0  0  0  0  0  0  0  0  0
  161.2250  205.1080  150.9970 N   0  0  0  0  0  0  0  0  0  0  0  0
  161.5580  206.5160  148.9370 C   0  0  2  0  0  3  0  0  0  0  0  0
  162.1170  207.3760  151.3430 C   0  0  2  0  0  3  0  0  0  0  0  0
  160.2300  207.0020  149.5550 C   0  0  0  0  0  2  0  0  0  0  0  0
  160.6090  208.2950  153.6600 C   0  0  0  0  0  3  0  0  0  0  0  0
  162.0710  206.0330  143.7790 C   0  0  1  0  0  3  0  0  0  0  0  0
  161.4730  205.4390  146.7190 C   0  0  2  0  0  3  0  0  0  0  0  0
  161.0870  205.3550  144.6650 N   0  0  2  0  0  0  0  0  0  0  0  0
  160.4330  205.4570  145.8700 C   0  0  0  0  0  2  0  0  0  0  0  0
  162.8420  205.2380  145.9900 C   0  0  0  0  0  2  0  0  0  0  0  0
  162.4970  204.9530  144.5000 C   0  0  2  0  0  3  0  0  0  0  0  0
  160.5290  205.2960  142.0060 F   0  0  0  0  0  0  0  0  0  0  0  0
  161.8660  205.6560  142.3000 C   0  0  1  0  0  3  0  0  0  0  0  0
  163.7050  207.5530  141.5560 O   0  0  0  0  0  1  0  0  0  0  0  0
  162.3710  206.9830  141.1230 P   0  0  0  0  0  0  0  0  0  0  0  0
  162.5190  206.3070  139.5700 O   0  0  0  0  0  0  0  0  0  0  0  0
  161.2030  208.2270  141.0550 O   0  0  0  0  0  1  0  0  0  0  0  0
  161.3360  202.7940  147.9770 C   0  0  0  0  0  0  0  0  0  0  0  0
  162.4570  202.8410  147.3780 O   0  0  0  0  0  0  0  0  0  0  0  0
  160.5550  201.5860  147.9760 N   0  0  0  0  0  0  0  0  0  0  0  0
  160.2160  200.8390  146.9680 C   0  0  0  0  0  3  0  0  0  0  0  0
  160.5880  201.1110  145.5370 C   0  0  2  0  0  3  0  0  0  0  0  0
  159.5820  202.0420  144.8860 C   0  0  0  0  0  1  0  0  0  0  0  0
  160.8190  199.8330  144.7020 C   0  0  0  0  0  2  0  0  0  0  0  0
  161.2050  198.6030  145.4250 N   0  0  0  0  0  0  0  0  0  0  0  0
  162.5190  198.3330  145.2360 O   0  0  0  0  0  1  0  0  0  0  0  0
  159.0460  197.9440  144.5200 C   0  0  0  0  0  1  0  0  0  0  0  0
  160.4250  197.4750  144.9330 C   0  0  0  0  0  2  0  0  0  0  0  0
  160.9140  210.7370  153.0210 C   0  0  0  0  0  0  0  0  0  0  0  0
  160.4850  211.3500  152.0030 O   0  0  0  0  0  0  0  0  0  0  0  0
  161.8340  212.0270  154.7740 O   0  0  0  0  0  0  0  0  0  0  0  0
  160.8500  211.3570  154.3590 C   0  0  0  0  0  0  0  0  0  0  0  0
  159.7150  211.0090  155.3180 C   0  0  2  0  0  3  0  0  0  0  0  0
  157.8160  211.7850  156.5200 C   0  0  2  0  0  3  0  0  0  0  0  0
  157.1870  212.9200  156.2630 C   0  0  0  0  0  0  0  0  0  0  0  0
  155.7750  213.7430  156.1390 S   0  0  0  0  0  0  0  0  0  0  0  0
  158.6850  212.8680  156.8260 N   0  0  0  0  0  0  0  0  0  0  0  0
  158.5870  212.0830  155.4550 C   0  0  1  0  0  0  0  0  0  0  0  0
  158.6010  213.0280  154.1720 C   0  0  0  0  0  2  0  0  0  0  0  0
  157.6170  212.6080  153.1690 N   0  0  0  0  0  0  0  0  0  0  0  0
  158.2950  212.6610  151.8850 C   0  0  0  0  0  1  0  0  0  0  0  0
  156.6510  213.6880  153.1310 C   0  0  0  0  0  1  0  0  0  0  0  0
  160.2590  210.4790  156.6410 C   0  0  0  0  0  2  0  0  0  0  0  0
  160.0820  208.6650  156.7310 S   0  0  0  0  0  0  0  0  0  0  0  0
  161.8770  208.4100  156.6020 C   0  0  0  0  0  2  0  0  0  0  0  0
  162.6120  209.5640  157.2560 C   0  0  0  0  0  1  0  0  0  0  0  0
  1  6  2  0  0  0  0
  1 11  1  0  0  0  0
  2  5  1  6  0  0  0
  2  7  1  0  0  0  0
  3  4  1  0  0  0  0
  4 39  1  6  0  0  0
  4 15  1  0  0  0  0
  7 15  2  0  0  0  0
  8 17  1  6  0  0  0
  8  9  1  0  0  0  0
  8 12  1  0  0  0  0
  9 28  1  6  0  0  0
  9  1  1  0  0  0  0
 10 14  1  1  0  0  0
 10 11  1  0  0  0  0
 10 13  1  0  0  0  0
 11  5  1  0  0  0  0
 12 14  1  6  0  0  0
 12 10  1  0  0  0  0
 13  3  1  1  0  0  0
 13  2  1  0  0  0  0
 16 23  1  6  0  0  0
 16 21  1  0  0  0  0
 16 18  1  0  0  0  0
 17 19  1  6  0  0  0
 18 19  1  1  0  0  0
 20 17  1  0  0  0  0
 21 18  1  0  0  0  0
 21 20  1  1  0  0  0
 23 22  1  1  0  0  0
 25 24  1  0  0  0  0
 25 23  1  0  0  0  0
 26 25  2  0  0  0  0
 27 25  1  0  0  0  0
 29 28  2  0  0  0  0
 30 28  1  0  0  0  0
 31 30  2  0  0  0  0
 32 33  1  6  0  0  0
 32 31  1  0  0  0  0
 34 35  1  0  0  0  0
 34 32  1  0  0  0  0
 36 35  1  0  0  0  0
 37 38  1  0  0  0  0
 38 35  1  0  0  0  0
 39 42  1  0  0  0  0
 40 39  2  0  0  0  0
 42 41  2  0  0  0  0
 42 43  1  0  0  0  0
 43 48  1  0  0  0  0
 43 53  1  1  0  0  0
 44 45  1  6  0  0  0
 44 47  1  0  0  0  0
 45 47  1  0  0  0  0
 46 45  2  0  0  0  0
 48 49  1  6  0  0  0
 48 44  1  0  0  0  0
 48 47  1  0  0  0  0
 50 49  1  0  0  0  0
 51 50  1  0  0  0  0
 52 50  1  0  0  0  0
 53 54  1  0  0  0  0
 55 54  1  0  0  0  0
 55 56  1  0  0  0  0
M  END
>  <MODEL>
7

>  <REMARK>
 VINA RESULT:       0.9      3.918     10.895
  Name = 
  18 active torsions:
  status: ('A' for Active; 'I' for Inactive)
    1  A    between atoms: C_5  and  N_27
    2  A    between atoms: C_5  and  C_36
    3  A    between atoms: P_6  and  C_55
    4  A    between atoms: C_8  and  C_39
    5  A    between atoms: C_10  and  C_55
    6  A    between atoms: N_12  and  C_18
    7  A    between atoms: N_12  and  C_26
    8  A    between atoms: C_13  and  C_18
    9  A    between atoms: C_13  and  C_47
   10  A    between atoms: S_14  and  C_15
   11  A    between atoms: S_14  and  C_33
   12  A    between atoms: N_19  and  C_48
   13  A    between atoms: C_21  and  N_30
   14  A    between atoms: C_25  and  C_33
   15  A    between atoms: C_25  and  C_35
   16  A    between atoms: C_25  and  C_42
   17  A    between atoms: C_35  and  C_39
   18  A    between atoms: C_42  and  C_48
                            x       y       z     vdW  Elec       q    Type
                         _______ _______ _______ _____ _____    ______ ____

>  <TORSDO>
F 18

$$$$
