=
 OpenBabel11072412093D

 50 53  0  0  1  0  0  0  0  0999 V2000
  161.7650  206.0620  148.2990 C   0  0  2  0  0  3  0  0  0  0  0  0
  162.1530  205.3370  147.0350 C   0  0  0  0  0  0  0  0  0  0  0  0
  163.3050  205.4050  146.6320 O   0  0  0  0  0  0  0  0  0  0  0  0
  160.8780  204.7450  144.8580 C   0  0  2  0  0  0  0  0  0  0  0  0
  159.6440  204.0760  144.2840 C   0  0  0  0  0  1  0  0  0  0  0  0
  161.9270  203.7190  145.1980 C   0  0  0  0  0  2  0  0  0  0  0  0
  161.1890  204.4290  146.3190 C   0  0  1  0  0  3  0  0  0  0  0  0
  161.4820  205.9500  144.1420 C   0  0  0  0  0  2  0  0  0  0  0  0
  161.8460  205.6230  142.6950 C   0  0  0  0  0  2  0  0  0  0  0  0
  162.9480  206.0720  140.0930 O   0  0  0  0  0  0  0  0  0  0  0  0
  161.5560  206.7670  141.8380 N   0  0  0  0  0  2  0  0  0  0  0  0
  162.1070  206.9100  140.5200 C   0  0  0  0  0  0  0  0  0  0  0  0
  160.5790  211.5810  137.4890 C   0  0  0  0  0  2  0  0  0  0  0  0
  161.0210  210.3540  138.2260 C   0  0  0  0  0  0  0  0  0  0  0  0
  162.3060  212.7970  138.6510 C   0  0  0  0  0  3  0  0  0  0  0  0
  161.8030  210.4980  139.3780 C   0  0  0  0  0  0  0  0  0  0  0  0
  160.6310  209.0850  137.8040 C   0  0  0  0  0  3  0  0  0  0  0  0
  161.7680  208.0950  139.7090 C   0  0  0  0  0  0  0  0  0  0  0  0
  162.1800  211.8770  139.8410 C   0  0  0  0  0  2  0  0  0  0  0  0
  161.0050  207.9580  138.5410 C   0  0  0  0  0  3  0  0  0  0  0  0
  161.5630  212.6340  137.5970 N   0  0  0  0  0  0  0  0  0  0  0  0
  162.1630  209.3720  140.1250 C   0  0  0  0  0  3  0  0  0  0  0  0
  160.8850  205.1790  149.1890 C   0  0  1  0  0  3  0  0  0  0  0  0
  161.5100  203.9460  149.4070 O   0  0  0  0  0  0  0  0  0  0  0  0
  160.9520  201.8330  148.7380 O   0  0  0  0  0  1  0  0  0  0  0  0
  160.4900  202.9950  149.3580 C   0  0  0  0  0  2  0  0  0  0  0  0
  160.6380  205.7960  150.4180 O   0  0  0  0  0  0  0  0  0  0  0  0
  161.1970  204.9610  152.5870 C   0  0  0  0  0  1  0  0  0  0  0  0
  161.7060  205.4100  151.2340 C   0  0  0  0  0  2  0  0  0  0  0  0
  161.1120  207.2620  147.9920 O   0  0  0  0  0  0  0  0  0  0  0  0
  161.8780  208.2560  148.6160 C   0  0  0  0  0  2  0  0  0  0  0  0
  161.5380  209.6360  148.0660 C   0  0  0  0  0  2  0  0  0  0  0  0
  162.0510  210.7870  148.9450 C   0  0  0  0  0  2  0  0  0  0  0  0
  162.5940  211.9690  148.1870 C   0  0  0  0  0  0  0  0  0  0  0  0
  161.9970  213.2290  146.1300 C   0  0  0  0  0  1  0  0  0  0  0  0
  163.8320  212.1910  148.1400 O   0  0  0  0  0  0  0  0  0  0  0  0
  161.6920  212.8460  147.5030 N   0  0  0  0  0  0  0  0  0  0  0  0
  159.3080  212.8080  147.3820 C   0  0  0  0  0  2  0  0  0  0  0  0
  160.4020  213.1490  148.0500 C   0  0  0  0  0  0  0  0  0  0  0  0
  160.2580  214.1030  149.1910 C   0  0  0  0  0  2  0  0  0  0  0  0
  159.3740  213.5580  150.3020 C   0  0  2  0  0  0  0  0  0  0  0  0
  159.5060  214.3640  151.4420 O   0  0  0  0  0  0  0  0  0  0  0  0
  160.0440  213.0620  151.5430 C   0  0  1  0  0  3  0  0  0  0  0  0
  157.6000  213.2820  149.9560 S   0  0  0  0  0  1  0  0  0  0  0  0
  159.1620  212.2030  152.4070 C   0  0  0  0  0  0  0  0  0  0  0  0
  159.5170  210.8600  152.7530 N   0  0  0  0  0  2  0  0  0  0  0  0
  158.0500  212.6530  152.7930 O   0  0  0  0  0  0  0  0  0  0  0  0
  160.5510  208.6890  152.4770 C   0  0  0  0  0  1  0  0  0  0  0  0
  161.8260  210.6260  152.9730 O   0  0  0  0  0  1  0  0  0  0  0  0
  160.7070  210.1820  152.2700 C   0  0  2  0  0  3  0  0  0  0  0  0
  1  2  1  6  0  0  0
  1 23  1  0  0  0  0
  3  2  2  0  0  0  0
  4  5  1  6  0  0  0
  4  6  1  0  0  0  0
  4  7  1  0  0  0  0
  6  7  1  0  0  0  0
  7  2  1  1  0  0  0
  8  4  1  0  0  0  0
  9  8  1  0  0  0  0
 10 12  2  0  0  0  0
 11  9  1  0  0  0  0
 12 11  1  0  0  0  0
 13 21  1  0  0  0  0
 13 14  1  0  0  0  0
 14 16  1  0  0  0  0
 15 19  1  0  0  0  0
 16 19  1  0  0  0  0
 16 22  2  0  0  0  0
 17 14  2  0  0  0  0
 17 20  1  0  0  0  0
 18 22  1  0  0  0  0
 18 12  1  0  0  0  0
 20 18  2  0  0  0  0
 21 15  2  0  0  0  0
 23 24  1  1  0  0  0
 23 27  1  0  0  0  0
 25 26  1  0  0  0  0
 26 24  1  0  0  0  0
 27 29  1  0  0  0  0
 29 28  1  0  0  0  0
 30  1  1  0  0  0  0
 30 31  1  0  0  0  0
 32 31  1  0  0  0  0
 32 33  1  0  0  0  0
 34 33  1  0  0  0  0
 35 37  1  0  0  0  0
 36 34  2  0  0  0  0
 37 39  1  0  0  0  0
 37 34  1  0  0  0  0
 38 39  2  0  0  0  0
 39 40  1  0  0  0  0
 40 41  1  0  0  0  0
 41 44  1  6  0  0  0
 41 42  1  0  0  0  0
 41 43  1  0  0  0  0
 42 43  1  0  0  0  0
 43 45  1  1  0  0  0
 45 46  1  0  0  0  0
 45 47  2  0  0  0  0
 50 48  1  1  0  0  0
 50 46  1  0  0  0  0
 50 49  1  0  0  0  0
M  END
>  <MODEL>
1

>  <REMARK>
 VINA RESULT:      -5.5      0.000      0.000
  Name = 
  21 active torsions:
  status: ('A' for Active; 'I' for Inactive)
    1  A    between atoms: C_2  and  C_17
    2  A    between atoms: C_3  and  C_46
    3  A    between atoms: C_7  and  C_31
    4  A    between atoms: C_7  and  O_32
    5  A    between atoms: C_8  and  O_32
    6  A    between atoms: C_8  and  C_36
    7  A    between atoms: C_8  and  C_42
    8  A    between atoms: C_9  and  C_17
    9  A    between atoms: C_9  and  N_19
   10  A    between atoms: C_13  and  C_34
   11  A    between atoms: N_20  and  C_24
   12  A    between atoms: C_21  and  C_42
   13  A    between atoms: C_23  and  C_37
   14  A    between atoms: C_26  and  C_44
   15  A    between atoms: N_29  and  C_43
   16  A    between atoms: C_30  and  O_47
   17  A    between atoms: C_31  and  C_34
   18  A    between atoms: C_36  and  O_41
   19  A    between atoms: C_36  and  O_47
   20  A    between atoms: C_40  and  O_41
   21  A    between atoms: C_43  and  C_44
                            x       y       z     vdW  Elec       q    Type
                         _______ _______ _______ _____ _____    ______ ____

>  <TORSDO>
F 21

$$$$
=
 OpenBabel11072412093D

 50 53  0  0  1  0  0  0  0  0999 V2000
  159.4800  213.4480  147.6320 C   0  0  2  0  0  3  0  0  0  0  0  0
  160.5700  212.4080  147.7030 C   0  0  0  0  0  0  0  0  0  0  0  0
  160.7120  211.6220  146.7790 O   0  0  0  0  0  0  0  0  0  0  0  0
  161.9680  211.0300  149.3950 C   0  0  2  0  0  0  0  0  0  0  0  0
  162.6570  211.0500  150.7460 C   0  0  0  0  0  1  0  0  0  0  0  0
  162.8300  211.6890  148.3500 C   0  0  0  0  0  2  0  0  0  0  0  0
  161.5720  212.3900  148.8280 C   0  0  1  0  0  3  0  0  0  0  0  0
  161.3590  209.7280  148.8800 C   0  0  0  0  0  2  0  0  0  0  0  0
  162.4080  208.8350  148.2200 C   0  0  0  0  0  2  0  0  0  0  0  0
  160.8630  206.8980  146.7890 O   0  0  0  0  0  0  0  0  0  0  0  0
  162.2070  207.4480  148.6220 N   0  0  0  0  0  2  0  0  0  0  0  0
  161.4560  206.5120  147.8330 C   0  0  0  0  0  0  0  0  0  0  0  0
  160.5800  201.0910  149.6200 C   0  0  0  0  0  2  0  0  0  0  0  0
  160.8700  202.4950  149.1850 C   0  0  0  0  0  0  0  0  0  0  0  0
  161.5250  200.3400  147.5340 C   0  0  0  0  0  3  0  0  0  0  0  0
  161.1120  202.7490  147.8300 C   0  0  0  0  0  0  0  0  0  0  0  0
  160.8610  203.5450  150.0990 C   0  0  0  0  0  3  0  0  0  0  0  0
  161.2950  205.1220  148.3030 C   0  0  0  0  0  0  0  0  0  0  0  0
  161.0780  201.6090  146.8510 C   0  0  0  0  0  2  0  0  0  0  0  0
  161.0750  204.8560  149.6610 C   0  0  0  0  0  3  0  0  0  0  0  0
  161.2830  200.1360  148.7940 N   0  0  0  0  0  0  0  0  0  0  0  0
  161.3100  204.0620  147.3890 C   0  0  0  0  0  3  0  0  0  0  0  0
  159.7530  214.4530  146.5090 C   0  0  1  0  0  3  0  0  0  0  0  0
  160.9980  214.1910  145.9250 O   0  0  0  0  0  0  0  0  0  0  0  0
  161.6920  213.1370  144.0190 O   0  0  0  0  0  1  0  0  0  0  0  0
  160.7420  214.0010  144.5660 C   0  0  0  0  0  2  0  0  0  0  0  0
  158.7600  214.3910  145.5290 O   0  0  0  0  0  0  0  0  0  0  0  0
  156.4360  213.8660  145.3270 C   0  0  0  0  0  1  0  0  0  0  0  0
  157.7090  213.6890  146.1280 C   0  0  0  0  0  2  0  0  0  0  0  0
  159.3510  214.1040  148.8630 O   0  0  0  0  0  0  0  0  0  0  0  0
  157.9700  214.1750  149.0870 C   0  0  0  0  0  2  0  0  0  0  0  0
  157.5720  213.3680  150.3160 C   0  0  0  0  0  2  0  0  0  0  0  0
  157.8800  214.0820  151.6420 C   0  0  0  0  0  2  0  0  0  0  0  0
  156.8910  213.8190  152.7460 C   0  0  0  0  0  0  0  0  0  0  0  0
  156.3790  211.9590  154.3130 C   0  0  0  0  0  1  0  0  0  0  0  0
  155.7250  214.2900  152.6940 O   0  0  0  0  0  0  0  0  0  0  0  0
  157.2780  213.0160  153.8670 N   0  0  0  0  0  0  0  0  0  0  0  0
  158.9650  214.0740  155.1840 C   0  0  0  0  0  2  0  0  0  0  0  0
  158.6130  213.0740  154.3890 C   0  0  0  0  0  0  0  0  0  0  0  0
  159.6960  212.2160  153.8190 C   0  0  0  0  0  2  0  0  0  0  0  0
  160.1470  211.1260  154.7800 C   0  0  2  0  0  0  0  0  0  0  0  0
  161.3630  211.4980  155.3690 O   0  0  0  0  0  0  0  0  0  0  0  0
  161.4230  210.4110  154.4690 C   0  0  1  0  0  3  0  0  0  0  0  0
  158.9890  210.5680  156.0790 S   0  0  0  0  0  1  0  0  0  0  0  0
  161.5950  209.1220  155.2250 C   0  0  0  0  0  0  0  0  0  0  0  0
  161.4230  207.8480  154.5970 N   0  0  0  0  0  2  0  0  0  0  0  0
  161.8410  209.1600  156.4600 O   0  0  0  0  0  0  0  0  0  0  0  0
  160.6780  206.2110  152.9770 C   0  0  0  0  0  1  0  0  0  0  0  0
  162.0550  208.0410  152.3610 O   0  0  0  0  0  1  0  0  0  0  0  0
  161.0170  207.6690  153.2150 C   0  0  2  0  0  3  0  0  0  0  0  0
  1  2  1  1  0  0  0
  1 30  1  0  0  0  0
  3  2  2  0  0  0  0
  4  5  1  1  0  0  0
  6  7  1  0  0  0  0
  6  4  1  0  0  0  0
  7  2  1  6  0  0  0
  7  4  1  0  0  0  0
  8  4  1  0  0  0  0
  9 11  1  0  0  0  0
  9  8  1  0  0  0  0
 10 12  2  0  0  0  0
 12 18  1  0  0  0  0
 12 11  1  0  0  0  0
 14 13  1  0  0  0  0
 14 17  1  0  0  0  0
 15 21  2  0  0  0  0
 16 14  2  0  0  0  0
 18 20  1  0  0  0  0
 19 15  1  0  0  0  0
 19 16  1  0  0  0  0
 20 17  2  0  0  0  0
 21 13  1  0  0  0  0
 22 16  1  0  0  0  0
 22 18  2  0  0  0  0
 23 27  1  6  0  0  0
 23  1  1  0  0  0  0
 24 23  1  0  0  0  0
 25 26  1  0  0  0  0
 26 24  1  0  0  0  0
 27 29  1  0  0  0  0
 28 29  1  0  0  0  0
 30 31  1  0  0  0  0
 31 32  1  0  0  0  0
 32 33  1  0  0  0  0
 33 34  1  0  0  0  0
 34 37  1  0  0  0  0
 36 34  2  0  0  0  0
 37 35  1  0  0  0  0
 37 39  1  0  0  0  0
 39 38  2  0  0  0  0
 40 39  1  0  0  0  0
 40 41  1  0  0  0  0
 41 42  1  0  0  0  0
 41 44  1  1  0  0  0
 43 41  1  0  0  0  0
 43 45  1  1  0  0  0
 43 42  1  0  0  0  0
 45 47  2  0  0  0  0
 46 45  1  0  0  0  0
 49 50  1  0  0  0  0
 50 48  1  1  0  0  0
 50 46  1  0  0  0  0
M  END
>  <MODEL>
2

>  <REMARK>
 VINA RESULT:      -5.4      4.591      9.074
  Name = 
  21 active torsions:
  status: ('A' for Active; 'I' for Inactive)
    1  A    between atoms: C_2  and  C_17
    2  A    between atoms: C_3  and  C_46
    3  A    between atoms: C_7  and  C_31
    4  A    between atoms: C_7  and  O_32
    5  A    between atoms: C_8  and  O_32
    6  A    between atoms: C_8  and  C_36
    7  A    between atoms: C_8  and  C_42
    8  A    between atoms: C_9  and  C_17
    9  A    between atoms: C_9  and  N_19
   10  A    between atoms: C_13  and  C_34
   11  A    between atoms: N_20  and  C_24
   12  A    between atoms: C_21  and  C_42
   13  A    between atoms: C_23  and  C_37
   14  A    between atoms: C_26  and  C_44
   15  A    between atoms: N_29  and  C_43
   16  A    between atoms: C_30  and  O_47
   17  A    between atoms: C_31  and  C_34
   18  A    between atoms: C_36  and  O_41
   19  A    between atoms: C_36  and  O_47
   20  A    between atoms: C_40  and  O_41
   21  A    between atoms: C_43  and  C_44
                            x       y       z     vdW  Elec       q    Type
                         _______ _______ _______ _____ _____    ______ ____

>  <TORSDO>
F 21

$$$$
=
 OpenBabel11072412093D

 50 53  0  0  1  0  0  0  0  0999 V2000
  160.4060  209.9350  154.8290 C   0  0  2  0  0  3  0  0  0  0  0  0
  160.9690  208.5450  154.6680 C   0  0  0  0  0  0  0  0  0  0  0  0
  160.6710  207.6780  155.4750 O   0  0  0  0  0  0  0  0  0  0  0  0
  161.6220  206.7470  152.9200 C   0  0  2  0  0  0  0  0  0  0  0  0
  162.7120  206.2630  151.9820 C   0  0  0  0  0  1  0  0  0  0  0  0
  160.8580  207.8880  152.3010 C   0  0  0  0  0  2  0  0  0  0  0  0
  161.7930  208.1620  153.4660 C   0  0  1  0  0  3  0  0  0  0  0  0
  160.6860  205.7320  153.5720 C   0  0  0  0  0  2  0  0  0  0  0  0
  160.9210  204.3220  153.0370 C   0  0  0  0  0  2  0  0  0  0  0  0
  161.6960  202.1420  151.3520 O   0  0  0  0  0  0  0  0  0  0  0  0
  160.9120  204.3340  151.5790 N   0  0  0  0  0  2  0  0  0  0  0  0
  161.2690  203.1880  150.7910 C   0  0  0  0  0  0  0  0  0  0  0  0
  160.8960  203.5720  145.0410 C   0  0  0  0  0  2  0  0  0  0  0  0
  161.0550  203.4440  146.5250 C   0  0  0  0  0  0  0  0  0  0  0  0
  161.9150  205.7500  145.2040 C   0  0  0  0  0  3  0  0  0  0  0  0
  161.2780  204.5980  147.2850 C   0  0  0  0  0  0  0  0  0  0  0  0
  160.9440  202.2070  147.1540 C   0  0  0  0  0  3  0  0  0  0  0  0
  161.2360  203.2730  149.3170 C   0  0  0  0  0  0  0  0  0  0  0  0
  161.3550  205.9300  146.5930 C   0  0  0  0  0  2  0  0  0  0  0  0
  161.0360  202.1210  148.5460 C   0  0  0  0  0  3  0  0  0  0  0  0
  161.6880  204.6650  144.5250 N   0  0  0  0  0  0  0  0  0  0  0  0
  161.3540  204.5140  148.6800 C   0  0  0  0  0  3  0  0  0  0  0  0
  160.4840  210.3920  156.2890 C   0  0  1  0  0  3  0  0  0  0  0  0
  161.4410  211.4050  156.4230 O   0  0  0  0  0  0  0  0  0  0  0  0
  163.0300  209.9900  157.2550 O   0  0  0  0  0  1  0  0  0  0  0  0
  162.6710  210.7960  156.1730 C   0  0  0  0  0  2  0  0  0  0  0  0
  159.2460  210.8640  156.7330 O   0  0  0  0  0  0  0  0  0  0  0  0
  158.1190  212.9060  157.2570 C   0  0  0  0  0  1  0  0  0  0  0  0
  159.3370  212.2560  156.6360 C   0  0  0  0  0  2  0  0  0  0  0  0
  159.0850  209.9820  154.3670 O   0  0  0  0  0  0  0  0  0  0  0  0
  159.0600  211.0530  153.4640 C   0  0  0  0  0  2  0  0  0  0  0  0
  160.4560  211.3520  152.9300 C   0  0  0  0  0  2  0  0  0  0  0  0
  160.4690  211.7560  151.4480 C   0  0  0  0  0  2  0  0  0  0  0  0
  161.6320  211.2200  150.6560 C   0  0  0  0  0  0  0  0  0  0  0  0
  161.9980  210.2940  148.3790 C   0  0  0  0  0  1  0  0  0  0  0  0
  162.5610  210.5860  151.2220 O   0  0  0  0  0  0  0  0  0  0  0  0
  161.6790  211.4270  149.2390 N   0  0  0  0  0  0  0  0  0  0  0  0
  161.1340  213.7470  149.3850 C   0  0  0  0  0  2  0  0  0  0  0  0
  161.1880  212.6410  148.6550 C   0  0  0  0  0  0  0  0  0  0  0  0
  160.4530  212.6220  147.3540 C   0  0  0  0  0  2  0  0  0  0  0  0
  161.2710  213.2010  146.2100 C   0  0  2  0  0  0  0  0  0  0  0  0
  160.4360  213.9520  145.3710 O   0  0  0  0  0  0  0  0  0  0  0  0
  160.9400  212.7520  144.8230 C   0  0  1  0  0  3  0  0  0  0  0  0
  162.7680  214.1730  146.6060 S   0  0  0  0  0  1  0  0  0  0  0  0
  162.0140  213.0540  143.8140 C   0  0  0  0  0  0  0  0  0  0  0  0
  161.7130  213.2930  142.4360 N   0  0  0  0  0  2  0  0  0  0  0  0
  163.2210  213.0410  144.1770 O   0  0  0  0  0  0  0  0  0  0  0  0
  160.2150  211.8790  141.1670 C   0  0  0  0  0  1  0  0  0  0  0  0
  160.1920  214.2400  140.9440 O   0  0  0  0  0  1  0  0  0  0  0  0
  160.3800  213.2120  141.8680 C   0  0  2  0  0  3  0  0  0  0  0  0
  1 30  1  1  0  0  0
  1 23  1  0  0  0  0
  2  1  1  0  0  0  0
  2  3  2  0  0  0  0
  4  5  1  6  0  0  0
  4  7  1  0  0  0  0
  4  8  1  0  0  0  0
  6  4  1  0  0  0  0
  6  7  1  0  0  0  0
  7  2  1  1  0  0  0
  9  8  1  0  0  0  0
 11  9  1  0  0  0  0
 12 10  2  0  0  0  0
 12 11  1  0  0  0  0
 13 14  1  0  0  0  0
 14 17  2  0  0  0  0
 14 16  1  0  0  0  0
 15 19  1  0  0  0  0
 16 22  2  0  0  0  0
 17 20  1  0  0  0  0
 18 12  1  0  0  0  0
 19 16  1  0  0  0  0
 20 18  2  0  0  0  0
 21 13  1  0  0  0  0
 21 15  2  0  0  0  0
 22 18  1  0  0  0  0
 23 24  1  6  0  0  0
 23 27  1  0  0  0  0
 26 24  1  0  0  0  0
 26 25  1  0  0  0  0
 29 27  1  0  0  0  0
 29 28  1  0  0  0  0
 31 30  1  0  0  0  0
 32 31  1  0  0  0  0
 33 32  1  0  0  0  0
 34 36  2  0  0  0  0
 34 33  1  0  0  0  0
 35 37  1  0  0  0  0
 37 34  1  0  0  0  0
 39 37  1  0  0  0  0
 39 38  2  0  0  0  0
 40 39  1  0  0  0  0
 41 44  1  1  0  0  0
 41 40  1  0  0  0  0
 42 41  1  0  0  0  0
 43 45  1  6  0  0  0
 43 42  1  0  0  0  0
 43 41  1  0  0  0  0
 45 47  2  0  0  0  0
 46 45  1  0  0  0  0
 49 50  1  0  0  0  0
 50 48  1  6  0  0  0
 50 46  1  0  0  0  0
M  END
>  <MODEL>
3

>  <REMARK>
 VINA RESULT:      -4.9      3.140      8.821
  Name = 
  21 active torsions:
  status: ('A' for Active; 'I' for Inactive)
    1  A    between atoms: C_2  and  C_17
    2  A    between atoms: C_3  and  C_46
    3  A    between atoms: C_7  and  C_31
    4  A    between atoms: C_7  and  O_32
    5  A    between atoms: C_8  and  O_32
    6  A    between atoms: C_8  and  C_36
    7  A    between atoms: C_8  and  C_42
    8  A    between atoms: C_9  and  C_17
    9  A    between atoms: C_9  and  N_19
   10  A    between atoms: C_13  and  C_34
   11  A    between atoms: N_20  and  C_24
   12  A    between atoms: C_21  and  C_42
   13  A    between atoms: C_23  and  C_37
   14  A    between atoms: C_26  and  C_44
   15  A    between atoms: N_29  and  C_43
   16  A    between atoms: C_30  and  O_47
   17  A    between atoms: C_31  and  C_34
   18  A    between atoms: C_36  and  O_41
   19  A    between atoms: C_36  and  O_47
   20  A    between atoms: C_40  and  O_41
   21  A    between atoms: C_43  and  C_44
                            x       y       z     vdW  Elec       q    Type
                         _______ _______ _______ _____ _____    ______ ____

>  <TORSDO>
F 21

$$$$
=
 OpenBabel11072412093D

 50 53  0  0  1  0  0  0  0  0999 V2000
  160.7960  211.5370  151.7020 C   0  0  2  0  0  3  0  0  0  0  0  0
  161.4500  210.3990  152.4460 C   0  0  0  0  0  0  0  0  0  0  0  0
  161.9330  209.4700  151.8180 O   0  0  0  0  0  0  0  0  0  0  0  0
  161.2230  209.1950  154.7290 C   0  0  2  0  0  0  0  0  0  0  0  0
  161.0520  209.3880  156.2240 C   0  0  0  0  0  1  0  0  0  0  0  0
  162.6630  209.3890  154.3310 C   0  0  0  0  0  2  0  0  0  0  0  0
  161.6340  210.4350  153.9400 C   0  0  1  0  0  3  0  0  0  0  0  0
  160.6140  207.9690  154.0550 C   0  0  0  0  0  2  0  0  0  0  0  0
  161.6200  206.8260  153.9450 C   0  0  0  0  0  2  0  0  0  0  0  0
  160.4020  204.4790  152.8500 O   0  0  0  0  0  0  0  0  0  0  0  0
  161.7250  206.3850  152.5590 N   0  0  0  0  0  2  0  0  0  0  0  0
  161.0490  205.2200  152.0610 C   0  0  0  0  0  0  0  0  0  0  0  0
  161.3940  203.7240  146.4940 C   0  0  0  0  0  2  0  0  0  0  0  0
  161.3710  204.0940  147.9460 C   0  0  0  0  0  0  0  0  0  0  0  0
  162.0830  205.9830  146.0160 C   0  0  0  0  0  3  0  0  0  0  0  0
  161.3350  205.4480  148.3000 C   0  0  0  0  0  0  0  0  0  0  0  0
  161.3430  203.1150  148.9350 C   0  0  0  0  0  3  0  0  0  0  0  0
  161.2010  204.8350  150.6440 C   0  0  0  0  0  0  0  0  0  0  0  0
  161.3240  206.4900  147.2180 C   0  0  0  0  0  2  0  0  0  0  0  0
  161.2610  203.4830  150.2810 C   0  0  0  0  0  3  0  0  0  0  0  0
  162.0940  204.7190  145.7150 N   0  0  0  0  0  0  0  0  0  0  0  0
  161.2360  205.8160  149.6460 C   0  0  0  0  0  3  0  0  0  0  0  0
  159.5400  212.0200  152.4340 C   0  0  1  0  0  3  0  0  0  0  0  0
  158.6580  212.6190  151.5260 O   0  0  0  0  0  0  0  0  0  0  0  0
  158.6280  214.4520  150.1610 O   0  0  0  0  0  1  0  0  0  0  0  0
  159.1270  213.9220  151.3520 C   0  0  0  0  0  2  0  0  0  0  0  0
  158.8940  210.9590  153.0740 O   0  0  0  0  0  0  0  0  0  0  0  0
  157.9610  210.5650  155.2390 C   0  0  0  0  0  1  0  0  0  0  0  0
  158.1690  211.5540  154.1110 C   0  0  0  0  0  2  0  0  0  0  0  0
  160.4870  211.1500  150.3930 O   0  0  0  0  0  0  0  0  0  0  0  0
  161.6080  211.5190  149.6370 C   0  0  0  0  0  2  0  0  0  0  0  0
  161.3340  212.7850  148.8350 C   0  0  0  0  0  2  0  0  0  0  0  0
  161.3960  212.5700  147.3140 C   0  0  0  0  0  2  0  0  0  0  0  0
  162.3490  213.4800  146.5850 C   0  0  0  0  0  0  0  0  0  0  0  0
  163.4460  213.5370  144.3560 C   0  0  0  0  0  1  0  0  0  0  0  0
  163.2470  214.1050  147.2060 O   0  0  0  0  0  0  0  0  0  0  0  0
  162.2370  213.6280  145.1640 N   0  0  0  0  0  0  0  0  0  0  0  0
  159.9990  214.4330  144.9480 C   0  0  0  0  0  2  0  0  0  0  0  0
  160.9560  213.6190  144.5210 C   0  0  0  0  0  0  0  0  0  0  0  0
  160.5720  212.5120  143.5930 C   0  0  0  0  0  2  0  0  0  0  0  0
  160.8070  212.8640  142.1320 C   0  0  2  0  0  0  0  0  0  0  0  0
  160.8120  214.2580  141.9820 O   0  0  0  0  0  0  0  0  0  0  0  0
  159.7150  213.5810  141.4060 C   0  0  1  0  0  3  0  0  0  0  0  0
  162.2640  212.1570  141.2840 S   0  0  0  0  0  1  0  0  0  0  0  0
  159.8570  213.5460  139.9090 C   0  0  0  0  0  0  0  0  0  0  0  0
  159.1560  212.5920  139.1040 N   0  0  0  0  0  2  0  0  0  0  0  0
  160.6600  214.3380  139.3470 O   0  0  0  0  0  0  0  0  0  0  0  0
  158.6780  210.2220  139.0080 C   0  0  0  0  0  1  0  0  0  0  0  0
  156.9660  211.8280  139.3460 O   0  0  0  0  0  1  0  0  0  0  0  0
  158.3010  211.5480  139.6380 C   0  0  2  0  0  3  0  0  0  0  0  0
  1 30  1  6  0  0  0
  1 23  1  0  0  0  0
  1  2  1  0  0  0  0
  3  2  2  0  0  0  0
  4  5  1  1  0  0  0
  6  4  1  0  0  0  0
  7  2  1  6  0  0  0
  7  6  1  0  0  0  0
  7  4  1  0  0  0  0
  8  4  1  0  0  0  0
  9  8  1  0  0  0  0
 11  9  1  0  0  0  0
 12 11  1  0  0  0  0
 12 10  2  0  0  0  0
 13 14  1  0  0  0  0
 14 16  2  0  0  0  0
 14 17  1  0  0  0  0
 15 19  1  0  0  0  0
 16 22  1  0  0  0  0
 17 20  2  0  0  0  0
 18 12  1  0  0  0  0
 19 16  1  0  0  0  0
 20 18  1  0  0  0  0
 21 15  2  0  0  0  0
 21 13  1  0  0  0  0
 22 18  2  0  0  0  0
 23 24  1  6  0  0  0
 23 27  1  0  0  0  0
 25 26  1  0  0  0  0
 26 24  1  0  0  0  0
 27 29  1  0  0  0  0
 29 28  1  0  0  0  0
 31 30  1  0  0  0  0
 32 31  1  0  0  0  0
 33 32  1  0  0  0  0
 34 36  2  0  0  0  0
 34 33  1  0  0  0  0
 35 37  1  0  0  0  0
 37 34  1  0  0  0  0
 39 38  2  0  0  0  0
 39 37  1  0  0  0  0
 40 39  1  0  0  0  0
 41 44  1  6  0  0  0
 41 40  1  0  0  0  0
 42 41  1  0  0  0  0
 43 45  1  6  0  0  0
 43 42  1  0  0  0  0
 43 41  1  0  0  0  0
 46 50  1  0  0  0  0
 46 45  1  0  0  0  0
 47 45  2  0  0  0  0
 49 50  1  0  0  0  0
 50 48  1  6  0  0  0
M  END
>  <MODEL>
4

>  <REMARK>
 VINA RESULT:      -4.8      3.259      9.720
  Name = 
  21 active torsions:
  status: ('A' for Active; 'I' for Inactive)
    1  A    between atoms: C_2  and  C_17
    2  A    between atoms: C_3  and  C_46
    3  A    between atoms: C_7  and  C_31
    4  A    between atoms: C_7  and  O_32
    5  A    between atoms: C_8  and  O_32
    6  A    between atoms: C_8  and  C_36
    7  A    between atoms: C_8  and  C_42
    8  A    between atoms: C_9  and  C_17
    9  A    between atoms: C_9  and  N_19
   10  A    between atoms: C_13  and  C_34
   11  A    between atoms: N_20  and  C_24
   12  A    between atoms: C_21  and  C_42
   13  A    between atoms: C_23  and  C_37
   14  A    between atoms: C_26  and  C_44
   15  A    between atoms: N_29  and  C_43
   16  A    between atoms: C_30  and  O_47
   17  A    between atoms: C_31  and  C_34
   18  A    between atoms: C_36  and  O_41
   19  A    between atoms: C_36  and  O_47
   20  A    between atoms: C_40  and  O_41
   21  A    between atoms: C_43  and  C_44
                            x       y       z     vdW  Elec       q    Type
                         _______ _______ _______ _____ _____    ______ ____

>  <TORSDO>
F 21

$$$$
=
 OpenBabel11072412093D

 50 53  0  0  1  0  0  0  0  0999 V2000
  159.6210  210.3810  155.3430 C   0  0  2  0  0  3  0  0  0  0  0  0
  159.3320  211.8610  155.3230 C   0  0  0  0  0  0  0  0  0  0  0  0
  160.2430  212.6490  155.1170 O   0  0  0  0  0  0  0  0  0  0  0  0
  157.3570  213.1160  154.2120 C   0  0  2  0  0  0  0  0  0  0  0  0
  156.1230  213.9620  154.4620 C   0  0  0  0  0  1  0  0  0  0  0  0
  157.0510  211.6570  154.4270 C   0  0  0  0  0  2  0  0  0  0  0  0
  157.9260  212.3910  155.4280 C   0  0  1  0  0  3  0  0  0  0  0  0
  158.1740  213.3370  152.9410 C   0  0  0  0  0  2  0  0  0  0  0  0
  157.3500  214.0150  151.8490 C   0  0  0  0  0  2  0  0  0  0  0  0
  156.0820  213.5430  149.3280 O   0  0  0  0  0  0  0  0  0  0  0  0
  158.0330  213.9000  150.5660 N   0  0  0  0  0  2  0  0  0  0  0  0
  157.3320  213.7080  149.3280 C   0  0  0  0  0  0  0  0  0  0  0  0
  160.2690  213.5350  144.3580 C   0  0  0  0  0  2  0  0  0  0  0  0
  159.5040  213.5110  145.6460 C   0  0  0  0  0  0  0  0  0  0  0  0
  162.2940  213.3930  145.6570 C   0  0  0  0  0  3  0  0  0  0  0  0
  160.1740  213.8070  146.8390 C   0  0  0  0  0  0  0  0  0  0  0  0
  158.1380  213.2420  145.6640 C   0  0  0  0  0  3  0  0  0  0  0  0
  158.0900  213.6010  148.0660 C   0  0  0  0  0  0  0  0  0  0  0  0
  161.6390  214.1360  146.7960 C   0  0  0  0  0  2  0  0  0  0  0  0
  157.4320  213.2840  146.8700 C   0  0  0  0  0  3  0  0  0  0  0  0
  161.6420  213.1360  144.5620 N   0  0  0  0  0  0  0  0  0  0  0  0
  159.4650  213.8650  148.0440 C   0  0  0  0  0  3  0  0  0  0  0  0
  160.7820  210.0620  156.2920 C   0  0  1  0  0  3  0  0  0  0  0  0
  161.1580  211.2150  156.9920 O   0  0  0  0  0  0  0  0  0  0  0  0
  163.1280  210.5740  156.0280 O   0  0  0  0  0  1  0  0  0  0  0  0
  162.5380  211.1100  157.1740 C   0  0  0  0  0  2  0  0  0  0  0  0
  160.4240  209.0640  157.2020 O   0  0  0  0  0  0  0  0  0  0  0  0
  160.4420  206.6740  157.2600 C   0  0  0  0  0  1  0  0  0  0  0  0
  160.2370  207.9190  156.4220 C   0  0  0  0  0  2  0  0  0  0  0  0
  159.9000  209.9210  154.0500 O   0  0  0  0  0  0  0  0  0  0  0  0
  160.8360  210.8320  153.5420 C   0  0  0  0  0  2  0  0  0  0  0  0
  161.4910  210.2950  152.2750 C   0  0  0  0  0  2  0  0  0  0  0  0
  160.9500  208.9230  151.8420 C   0  0  0  0  0  2  0  0  0  0  0  0
  161.7010  208.2760  150.7100 C   0  0  0  0  0  0  0  0  0  0  0  0
  163.4140  206.4920  150.4610 C   0  0  0  0  0  1  0  0  0  0  0  0
  162.0320  208.9380  149.6920 O   0  0  0  0  0  0  0  0  0  0  0  0
  162.0510  206.8890  150.7950 N   0  0  0  0  0  0  0  0  0  0  0  0
  160.7540  206.1620  152.6630 C   0  0  0  0  0  2  0  0  0  0  0  0
  161.1750  205.9450  151.4240 C   0  0  0  0  0  0  0  0  0  0  0  0
  160.9720  204.5830  150.8430 C   0  0  0  0  0  2  0  0  0  0  0  0
  160.9660  204.5900  149.3220 C   0  0  2  0  0  0  0  0  0  0  0  0
  160.3800  203.4070  148.8510 O   0  0  0  0  0  0  0  0  0  0  0  0
  161.7670  203.5400  148.6190 C   0  0  1  0  0  3  0  0  0  0  0  0
  160.2290  206.0200  148.4540 S   0  0  0  0  0  1  0  0  0  0  0  0
  162.0230  203.8420  147.1680 C   0  0  0  0  0  0  0  0  0  0  0  0
  161.3880  203.1050  146.1180 N   0  0  0  0  0  2  0  0  0  0  0  0
  162.8640  204.7300  146.8620 O   0  0  0  0  0  0  0  0  0  0  0  0
  161.3120  200.7770  146.7730 C   0  0  0  0  0  1  0  0  0  0  0  0
  159.8240  201.6690  145.1560 O   0  0  0  0  0  1  0  0  0  0  0  0
  160.4990  201.9790  146.3370 C   0  0  2  0  0  3  0  0  0  0  0  0
  1 30  1  6  0  0  0
  1 23  1  0  0  0  0
  2  1  1  0  0  0  0
  3  2  2  0  0  0  0
  4  6  1  0  0  0  0
  4  5  1  1  0  0  0
  4  7  1  0  0  0  0
  6  7  1  0  0  0  0
  7  2  1  6  0  0  0
  8  4  1  0  0  0  0
  9  8  1  0  0  0  0
 10 12  2  0  0  0  0
 11  9  1  0  0  0  0
 12 11  1  0  0  0  0
 13 21  1  0  0  0  0
 13 14  1  0  0  0  0
 14 17  2  0  0  0  0
 14 16  1  0  0  0  0
 15 19  1  0  0  0  0
 16 22  2  0  0  0  0
 17 20  1  0  0  0  0
 18 12  1  0  0  0  0
 19 16  1  0  0  0  0
 20 18  2  0  0  0  0
 21 15  2  0  0  0  0
 22 18  1  0  0  0  0
 23 24  1  1  0  0  0
 23 27  1  0  0  0  0
 24 26  1  0  0  0  0
 25 26  1  0  0  0  0
 29 27  1  0  0  0  0
 29 28  1  0  0  0  0
 31 30  1  0  0  0  0
 32 31  1  0  0  0  0
 33 32  1  0  0  0  0
 34 37  1  0  0  0  0
 34 33  1  0  0  0  0
 35 37  1  0  0  0  0
 36 34  2  0  0  0  0
 37 39  1  0  0  0  0
 39 38  2  0  0  0  0
 40 39  1  0  0  0  0
 41 44  1  6  0  0  0
 41 40  1  0  0  0  0
 42 41  1  0  0  0  0
 43 45  1  6  0  0  0
 43 42  1  0  0  0  0
 43 41  1  0  0  0  0
 46 50  1  0  0  0  0
 46 45  1  0  0  0  0
 47 45  2  0  0  0  0
 49 50  1  0  0  0  0
 50 48  1  6  0  0  0
M  END
>  <MODEL>
5

>  <REMARK>
 VINA RESULT:      -4.6      4.193      9.675
  Name = 
  21 active torsions:
  status: ('A' for Active; 'I' for Inactive)
    1  A    between atoms: C_2  and  C_17
    2  A    between atoms: C_3  and  C_46
    3  A    between atoms: C_7  and  C_31
    4  A    between atoms: C_7  and  O_32
    5  A    between atoms: C_8  and  O_32
    6  A    between atoms: C_8  and  C_36
    7  A    between atoms: C_8  and  C_42
    8  A    between atoms: C_9  and  C_17
    9  A    between atoms: C_9  and  N_19
   10  A    between atoms: C_13  and  C_34
   11  A    between atoms: N_20  and  C_24
   12  A    between atoms: C_21  and  C_42
   13  A    between atoms: C_23  and  C_37
   14  A    between atoms: C_26  and  C_44
   15  A    between atoms: N_29  and  C_43
   16  A    between atoms: C_30  and  O_47
   17  A    between atoms: C_31  and  C_34
   18  A    between atoms: C_36  and  O_41
   19  A    between atoms: C_36  and  O_47
   20  A    between atoms: C_40  and  O_41
   21  A    between atoms: C_43  and  C_44
                            x       y       z     vdW  Elec       q    Type
                         _______ _______ _______ _____ _____    ______ ____

>  <TORSDO>
F 21

$$$$
=
 OpenBabel11072412093D

 50 53  0  0  1  0  0  0  0  0999 V2000
  161.1590  210.3410  152.5410 C   0  0  2  0  0  3  0  0  0  0  0  0
  161.4610  208.9910  153.1410 C   0  0  0  0  0  0  0  0  0  0  0  0
  162.0720  208.1630  152.4820 O   0  0  0  0  0  0  0  0  0  0  0  0
  160.5050  207.3210  154.8760 C   0  0  2  0  0  0  0  0  0  0  0  0
  159.8460  207.1820  156.2350 C   0  0  0  0  0  1  0  0  0  0  0  0
  161.9930  207.5020  155.0240 C   0  0  0  0  0  2  0  0  0  0  0  0
  161.1400  208.6770  154.5780 C   0  0  1  0  0  3  0  0  0  0  0  0
  160.1680  206.3220  153.7720 C   0  0  0  0  0  2  0  0  0  0  0  0
  161.3320  205.3740  153.4920 C   0  0  0  0  0  2  0  0  0  0  0  0
  160.4730  203.0350  152.0850 O   0  0  0  0  0  0  0  0  0  0  0  0
  161.4620  205.1550  152.0570 N   0  0  0  0  0  2  0  0  0  0  0  0
  160.9670  203.9750  151.4040 C   0  0  0  0  0  0  0  0  0  0  0  0
  161.3710  203.3910  145.6730 C   0  0  0  0  0  2  0  0  0  0  0  0
  161.3320  203.5230  147.1640 C   0  0  0  0  0  0  0  0  0  0  0  0
  162.0980  205.6870  145.5740 C   0  0  0  0  0  3  0  0  0  0  0  0
  161.3100  204.8020  147.7330 C   0  0  0  0  0  0  0  0  0  0  0  0
  161.2760  202.3970  147.9820 C   0  0  0  0  0  3  0  0  0  0  0  0
  161.1340  203.8210  149.9450 C   0  0  0  0  0  0  0  0  0  0  0  0
  161.3290  206.0060  146.8330 C   0  0  0  0  0  2  0  0  0  0  0  0
  161.1800  202.5450  149.3690 C   0  0  0  0  0  3  0  0  0  0  0  0
  162.0970  204.4880  145.0730 N   0  0  0  0  0  0  0  0  0  0  0  0
  161.1970  204.9500  149.1190 C   0  0  0  0  0  3  0  0  0  0  0  0
  160.1320  211.1000  153.3870 C   0  0  1  0  0  3  0  0  0  0  0  0
  160.7530  212.1610  154.0560 O   0  0  0  0  0  0  0  0  0  0  0  0
  159.9150  213.3990  155.7850 O   0  0  0  0  0  1  0  0  0  0  0  0
  160.2670  212.1160  155.3640 C   0  0  0  0  0  2  0  0  0  0  0  0
  159.0970  211.5970  152.5900 O   0  0  0  0  0  0  0  0  0  0  0  0
  157.2250  212.8270  153.4260 C   0  0  0  0  0  1  0  0  0  0  0  0
  157.9520  211.4990  153.3870 C   0  0  0  0  0  2  0  0  0  0  0  0
  160.7060  210.1990  151.2230 O   0  0  0  0  0  0  0  0  0  0  0  0
  161.7750  210.6320  150.4290 C   0  0  0  0  0  2  0  0  0  0  0  0
  161.6160  212.0990  150.0490 C   0  0  0  0  0  2  0  0  0  0  0  0
  161.2000  212.3090  148.5840 C   0  0  0  0  0  2  0  0  0  0  0  0
  161.7650  213.5460  147.9370 C   0  0  0  0  0  0  0  0  0  0  0  0
  162.9090  214.1100  145.8040 C   0  0  0  0  0  1  0  0  0  0  0  0
  162.2950  214.4520  148.6310 O   0  0  0  0  0  0  0  0  0  0  0  0
  161.7070  213.6880  146.5130 N   0  0  0  0  0  0  0  0  0  0  0  0
  160.2570  211.9140  145.8400 C   0  0  0  0  0  2  0  0  0  0  0  0
  160.5850  213.1970  145.7680 C   0  0  0  0  0  0  0  0  0  0  0  0
  159.9670  214.0180  144.6830 C   0  0  0  0  0  2  0  0  0  0  0  0
  160.3090  213.5040  143.2930 C   0  0  2  0  0  0  0  0  0  0  0  0
  159.7500  214.3560  142.3290 O   0  0  0  0  0  0  0  0  0  0  0  0
  159.1780  213.0670  142.4170 C   0  0  1  0  0  3  0  0  0  0  0  0
  162.0610  213.1880  142.8800 S   0  0  0  0  0  1  0  0  0  0  0  0
  159.6080  212.2290  141.2440 C   0  0  0  0  0  0  0  0  0  0  0  0
  159.3360  212.6190  139.8940 N   0  0  0  0  0  2  0  0  0  0  0  0
  160.1740  211.1220  141.4520 O   0  0  0  0  0  0  0  0  0  0  0  0
  157.1100  213.5650  139.7960 C   0  0  0  0  0  1  0  0  0  0  0  0
  158.7580  214.0770  138.1690 O   0  0  0  0  0  1  0  0  0  0  0  0
  158.5820  213.8040  139.5260 C   0  0  2  0  0  3  0  0  0  0  0  0
  1 30  1  6  0  0  0
  1  2  1  0  0  0  0
  1 23  1  0  0  0  0
  3  2  2  0  0  0  0
  4  6  1  0  0  0  0
  4  5  1  1  0  0  0
  7  2  1  6  0  0  0
  7  4  1  0  0  0  0
  7  6  1  0  0  0  0
  8  4  1  0  0  0  0
  9  8  1  0  0  0  0
 11  9  1  0  0  0  0
 12 11  1  0  0  0  0
 12 10  2  0  0  0  0
 13 14  1  0  0  0  0
 14 16  2  0  0  0  0
 14 17  1  0  0  0  0
 15 19  1  0  0  0  0
 16 22  1  0  0  0  0
 17 20  2  0  0  0  0
 18 12  1  0  0  0  0
 19 16  1  0  0  0  0
 20 18  1  0  0  0  0
 21 15  2  0  0  0  0
 21 13  1  0  0  0  0
 22 18  2  0  0  0  0
 23 27  1  6  0  0  0
 23 24  1  0  0  0  0
 24 26  1  0  0  0  0
 26 25  1  0  0  0  0
 27 29  1  0  0  0  0
 29 28  1  0  0  0  0
 31 30  1  0  0  0  0
 32 31  1  0  0  0  0
 33 32  1  0  0  0  0
 34 33  1  0  0  0  0
 34 36  2  0  0  0  0
 35 37  1  0  0  0  0
 37 34  1  0  0  0  0
 39 38  2  0  0  0  0
 39 37  1  0  0  0  0
 40 39  1  0  0  0  0
 41 44  1  6  0  0  0
 41 40  1  0  0  0  0
 42 43  1  0  0  0  0
 42 41  1  0  0  0  0
 43 45  1  6  0  0  0
 43 41  1  0  0  0  0
 45 47  2  0  0  0  0
 46 45  1  0  0  0  0
 49 50  1  0  0  0  0
 50 48  1  6  0  0  0
 50 46  1  0  0  0  0
M  END
>  <MODEL>
6

>  <REMARK>
 VINA RESULT:      -4.4      3.302      9.405
  Name = 
  21 active torsions:
  status: ('A' for Active; 'I' for Inactive)
    1  A    between atoms: C_2  and  C_17
    2  A    between atoms: C_3  and  C_46
    3  A    between atoms: C_7  and  C_31
    4  A    between atoms: C_7  and  O_32
    5  A    between atoms: C_8  and  O_32
    6  A    between atoms: C_8  and  C_36
    7  A    between atoms: C_8  and  C_42
    8  A    between atoms: C_9  and  C_17
    9  A    between atoms: C_9  and  N_19
   10  A    between atoms: C_13  and  C_34
   11  A    between atoms: N_20  and  C_24
   12  A    between atoms: C_21  and  C_42
   13  A    between atoms: C_23  and  C_37
   14  A    between atoms: C_26  and  C_44
   15  A    between atoms: N_29  and  C_43
   16  A    between atoms: C_30  and  O_47
   17  A    between atoms: C_31  and  C_34
   18  A    between atoms: C_36  and  O_41
   19  A    between atoms: C_36  and  O_47
   20  A    between atoms: C_40  and  O_41
   21  A    between atoms: C_43  and  C_44
                            x       y       z     vdW  Elec       q    Type
                         _______ _______ _______ _____ _____    ______ ____

>  <TORSDO>
F 21

$$$$
=
 OpenBabel11072412093D

 50 53  0  0  1  0  0  0  0  0999 V2000
  158.5720  213.0440  150.8310 C   0  0  2  0  0  3  0  0  0  0  0  0
  159.9280  213.4070  150.2800 C   0  0  0  0  0  0  0  0  0  0  0  0
  160.4570  214.4530  150.6250 O   0  0  0  0  0  0  0  0  0  0  0  0
  160.6230  212.6550  147.8990 C   0  0  2  0  0  0  0  0  0  0  0  0
  161.0820  211.4850  147.0500 C   0  0  0  0  0  1  0  0  0  0  0  0
  161.7790  213.2350  148.6710 C   0  0  0  0  0  2  0  0  0  0  0  0
  160.7070  212.4550  149.4100 C   0  0  1  0  0  3  0  0  0  0  0  0
  159.7620  213.7480  147.2720 C   0  0  0  0  0  2  0  0  0  0  0  0
  160.4840  214.4460  146.1220 C   0  0  0  0  0  2  0  0  0  0  0  0
  162.2270  214.0790  143.8810 O   0  0  0  0  0  0  0  0  0  0  0  0
  160.1140  213.8290  144.8530 N   0  0  0  0  0  2  0  0  0  0  0  0
  161.0510  213.6320  143.7830 C   0  0  0  0  0  0  0  0  0  0  0  0
  159.1680  210.9980  139.0010 C   0  0  0  0  0  2  0  0  0  0  0  0
  159.7050  211.7130  140.2040 C   0  0  0  0  0  0  0  0  0  0  0  0
  157.6900  212.8690  138.6540 C   0  0  0  0  0  3  0  0  0  0  0  0
  158.9580  212.7570  140.7610 C   0  0  0  0  0  0  0  0  0  0  0  0
  160.9060  211.3260  140.7910 C   0  0  0  0  0  3  0  0  0  0  0  0
  160.6060  212.9990  142.5260 C   0  0  0  0  0  0  0  0  0  0  0  0
  157.6430  213.1340  140.1390 C   0  0  0  0  0  2  0  0  0  0  0  0
  161.3580  211.9690  141.9480 C   0  0  0  0  0  3  0  0  0  0  0  0
  158.3930  211.8900  138.1690 N   0  0  0  0  0  0  0  0  0  0  0  0
  159.4010  213.3890  141.9280 C   0  0  0  0  0  3  0  0  0  0  0  0
  157.7020  214.2920  151.0120 C   0  0  1  0  0  3  0  0  0  0  0  0
  156.5520  214.1930  150.2210 O   0  0  0  0  0  0  0  0  0  0  0  0
  156.1180  214.3380  147.9820 O   0  0  0  0  0  1  0  0  0  0  0  0
  157.0020  213.8500  148.9450 C   0  0  0  0  0  2  0  0  0  0  0  0
  157.3310  214.4530  152.3500 O   0  0  0  0  0  0  0  0  0  0  0  0
  155.4260  214.1150  153.7550 C   0  0  0  0  0  1  0  0  0  0  0  0
  155.9360  214.3540  152.3480 C   0  0  0  0  0  2  0  0  0  0  0  0
  158.7060  212.3550  152.0430 O   0  0  0  0  0  0  0  0  0  0  0  0
  159.7680  211.4650  151.8310 C   0  0  0  0  0  2  0  0  0  0  0  0
  159.9330  210.5190  153.0140 C   0  0  0  0  0  2  0  0  0  0  0  0
  161.1960  209.6480  152.9280 C   0  0  0  0  0  2  0  0  0  0  0  0
  161.2450  208.5050  153.9070 C   0  0  0  0  0  0  0  0  0  0  0  0
  160.1860  206.2680  154.1310 C   0  0  0  0  0  1  0  0  0  0  0  0
  161.4010  208.7160  155.1370 O   0  0  0  0  0  0  0  0  0  0  0  0
  161.1030  207.1610  153.4330 N   0  0  0  0  0  0  0  0  0  0  0  0
  162.7370  206.0080  152.1280 C   0  0  0  0  0  2  0  0  0  0  0  0
  161.6480  206.7640  152.1670 C   0  0  0  0  0  0  0  0  0  0  0  0
  161.2090  207.4280  150.9020 C   0  0  0  0  0  2  0  0  0  0  0  0
  161.4260  206.5530  149.6770 C   0  0  2  0  0  0  0  0  0  0  0  0
  160.2290  206.4600  148.9520 O   0  0  0  0  0  0  0  0  0  0  0  0
  160.6560  205.2740  149.5910 C   0  0  1  0  0  3  0  0  0  0  0  0
  162.7950  206.9640  148.5370 S   0  0  0  0  0  1  0  0  0  0  0  0
  161.1990  204.3060  148.5760 C   0  0  0  0  0  0  0  0  0  0  0  0
  161.1220  202.8890  148.7640 N   0  0  0  0  0  2  0  0  0  0  0  0
  161.7930  204.7500  147.5560 O   0  0  0  0  0  0  0  0  0  0  0  0
  161.4320  202.6170  151.1480 C   0  0  0  0  0  1  0  0  0  0  0  0
  160.5800  200.8680  149.7920 O   0  0  0  0  0  1  0  0  0  0  0  0
  160.5780  202.2540  149.9500 C   0  0  2  0  0  3  0  0  0  0  0  0
  1  2  1  1  0  0  0
  1 23  1  0  0  0  0
  1 30  1  0  0  0  0
  2  3  2  0  0  0  0
  4  5  1  6  0  0  0
  4  6  1  0  0  0  0
  4  7  1  0  0  0  0
  6  7  1  0  0  0  0
  7  2  1  1  0  0  0
  8  4  1  0  0  0  0
  9  8  1  0  0  0  0
 11  9  1  0  0  0  0
 12 10  2  0  0  0  0
 12 11  1  0  0  0  0
 13 14  1  0  0  0  0
 14 16  2  0  0  0  0
 14 17  1  0  0  0  0
 15 19  1  0  0  0  0
 16 22  1  0  0  0  0
 17 20  2  0  0  0  0
 18 12  1  0  0  0  0
 19 16  1  0  0  0  0
 20 18  1  0  0  0  0
 21 15  2  0  0  0  0
 21 13  1  0  0  0  0
 22 18  2  0  0  0  0
 23 24  1  6  0  0  0
 23 27  1  0  0  0  0
 25 26  1  0  0  0  0
 26 24  1  0  0  0  0
 29 27  1  0  0  0  0
 29 28  1  0  0  0  0
 31 30  1  0  0  0  0
 31 32  1  0  0  0  0
 33 32  1  0  0  0  0
 33 34  1  0  0  0  0
 34 36  2  0  0  0  0
 37 34  1  0  0  0  0
 37 35  1  0  0  0  0
 38 39  2  0  0  0  0
 39 37  1  0  0  0  0
 40 39  1  0  0  0  0
 41 44  1  6  0  0  0
 41 40  1  0  0  0  0
 42 43  1  0  0  0  0
 42 41  1  0  0  0  0
 43 45  1  6  0  0  0
 43 41  1  0  0  0  0
 45 46  1  0  0  0  0
 46 50  1  0  0  0  0
 47 45  2  0  0  0  0
 49 50  1  0  0  0  0
 50 48  1  1  0  0  0
M  END
>  <MODEL>
7

>  <REMARK>
 VINA RESULT:      -4.0      3.168      8.141
  Name = 
  21 active torsions:
  status: ('A' for Active; 'I' for Inactive)
    1  A    between atoms: C_2  and  C_17
    2  A    between atoms: C_3  and  C_46
    3  A    between atoms: C_7  and  C_31
    4  A    between atoms: C_7  and  O_32
    5  A    between atoms: C_8  and  O_32
    6  A    between atoms: C_8  and  C_36
    7  A    between atoms: C_8  and  C_42
    8  A    between atoms: C_9  and  C_17
    9  A    between atoms: C_9  and  N_19
   10  A    between atoms: C_13  and  C_34
   11  A    between atoms: N_20  and  C_24
   12  A    between atoms: C_21  and  C_42
   13  A    between atoms: C_23  and  C_37
   14  A    between atoms: C_26  and  C_44
   15  A    between atoms: N_29  and  C_43
   16  A    between atoms: C_30  and  O_47
   17  A    between atoms: C_31  and  C_34
   18  A    between atoms: C_36  and  O_41
   19  A    between atoms: C_36  and  O_47
   20  A    between atoms: C_40  and  O_41
   21  A    between atoms: C_43  and  C_44
                            x       y       z     vdW  Elec       q    Type
                         _______ _______ _______ _____ _____    ______ ____

>  <TORSDO>
F 21

$$$$
=
 OpenBabel11072412093D

 50 53  0  0  1  0  0  0  0  0999 V2000
  160.2460  210.1540  155.2470 C   0  0  2  0  0  3  0  0  0  0  0  0
  159.7730  211.5590  155.5200 C   0  0  0  0  0  0  0  0  0  0  0  0
  160.4600  212.5050  155.1650 O   0  0  0  0  0  0  0  0  0  0  0  0
  157.2580  212.0530  155.1340 C   0  0  2  0  0  0  0  0  0  0  0  0
  156.0150  212.6980  155.7150 C   0  0  0  0  0  1  0  0  0  0  0  0
  157.4820  210.6920  155.7390 C   0  0  0  0  0  2  0  0  0  0  0  0
  158.4130  211.8340  156.1070 C   0  0  1  0  0  3  0  0  0  0  0  0
  157.4580  212.0340  153.6200 C   0  0  0  0  0  2  0  0  0  0  0  0
  157.3600  213.4340  153.0190 C   0  0  0  0  0  2  0  0  0  0  0  0
  160.0400  213.5280  152.0230 O   0  0  0  0  0  0  0  0  0  0  0  0
  157.7420  213.4010  151.6120 N   0  0  0  0  0  2  0  0  0  0  0  0
  159.1110  213.4040  151.1790 C   0  0  0  0  0  0  0  0  0  0  0  0
  160.3120  213.0130  145.5440 C   0  0  0  0  0  2  0  0  0  0  0  0
  160.0210  213.1800  147.0040 C   0  0  0  0  0  0  0  0  0  0  0  0
  158.0530  213.7250  145.0990 C   0  0  0  0  0  3  0  0  0  0  0  0
  158.6880  213.2400  147.4280 C   0  0  0  0  0  0  0  0  0  0  0  0
  161.0510  213.2350  147.9390 C   0  0  0  0  0  3  0  0  0  0  0  0
  159.4230  213.3680  149.7370 C   0  0  0  0  0  0  0  0  0  0  0  0
  157.5880  213.1370  146.4090 C   0  0  0  0  0  2  0  0  0  0  0  0
  160.7540  213.3310  149.3020 C   0  0  0  0  0  3  0  0  0  0  0  0
  159.2980  213.6510  144.7360 N   0  0  0  0  0  0  0  0  0  0  0  0
  158.3900  213.3190  148.7930 C   0  0  0  0  0  3  0  0  0  0  0  0
  161.6110  209.9000  155.8940 C   0  0  1  0  0  3  0  0  0  0  0  0
  161.8700  210.8760  156.8650 O   0  0  0  0  0  0  0  0  0  0  0  0
  163.9830  211.0520  156.0110 O   0  0  0  0  0  1  0  0  0  0  0  0
  163.2310  210.7680  157.1530 C   0  0  0  0  0  2  0  0  0  0  0  0
  161.6570  208.6350  156.4870 O   0  0  0  0  0  0  0  0  0  0  0  0
  160.0050  206.9520  156.8760 C   0  0  0  0  0  1  0  0  0  0  0  0
  160.3640  208.4210  156.9730 C   0  0  0  0  0  2  0  0  0  0  0  0
  160.3020  209.9170  153.8680 O   0  0  0  0  0  0  0  0  0  0  0  0
  161.4570  210.5840  153.4380 C   0  0  0  0  0  2  0  0  0  0  0  0
  162.1280  209.8350  152.2930 C   0  0  0  0  0  2  0  0  0  0  0  0
  161.2940  208.6590  151.7600 C   0  0  0  0  0  2  0  0  0  0  0  0
  162.0950  207.5380  151.1540 C   0  0  0  0  0  0  0  0  0  0  0  0
  163.5420  205.6950  151.9830 C   0  0  0  0  0  1  0  0  0  0  0  0
  162.6630  207.6790  150.0400 O   0  0  0  0  0  0  0  0  0  0  0  0
  162.2200  206.2970  151.8590 N   0  0  0  0  0  0  0  0  0  0  0  0
  160.5820  206.5270  153.5810 C   0  0  0  0  0  2  0  0  0  0  0  0
  161.1320  205.7780  152.6350 C   0  0  0  0  0  0  0  0  0  0  0  0
  160.8070  204.3190  152.6190 C   0  0  0  0  0  2  0  0  0  0  0  0
  161.1830  203.6500  151.3060 C   0  0  2  0  0  0  0  0  0  0  0  0
  161.6920  204.6110  150.4210 O   0  0  0  0  0  0  0  0  0  0  0  0
  160.4360  204.0630  150.0780 C   0  0  1  0  0  3  0  0  0  0  0  0
  162.3040  202.2070  151.3450 S   0  0  0  0  0  1  0  0  0  0  0  0
  160.5860  203.1060  148.9260 C   0  0  0  0  0  0  0  0  0  0  0  0
  161.1920  203.4980  147.6900 N   0  0  0  0  0  2  0  0  0  0  0  0
  160.1130  201.9420  149.0270 O   0  0  0  0  0  0  0  0  0  0  0  0
  160.7650  205.4700  146.3550 C   0  0  0  0  0  1  0  0  0  0  0  0
  162.9680  204.7970  146.9190 O   0  0  0  0  0  1  0  0  0  0  0  0
  161.6600  204.8420  147.4030 C   0  0  2  0  0  3  0  0  0  0  0  0
  1 30  1  6  0  0  0
  1  2  1  0  0  0  0
  1 23  1  0  0  0  0
  3  2  2  0  0  0  0
  4  5  1  1  0  0  0
  4  6  1  0  0  0  0
  4  7  1  0  0  0  0
  6  7  1  0  0  0  0
  7  2  1  6  0  0  0
  8  4  1  0  0  0  0
  9  8  1  0  0  0  0
 11  9  1  0  0  0  0
 12 11  1  0  0  0  0
 12 10  2  0  0  0  0
 13 14  1  0  0  0  0
 14 16  2  0  0  0  0
 14 17  1  0  0  0  0
 15 19  1  0  0  0  0
 16 22  1  0  0  0  0
 17 20  2  0  0  0  0
 18 12  1  0  0  0  0
 19 16  1  0  0  0  0
 20 18  1  0  0  0  0
 21 15  2  0  0  0  0
 21 13  1  0  0  0  0
 22 18  2  0  0  0  0
 23 27  1  1  0  0  0
 23 24  1  0  0  0  0
 24 26  1  0  0  0  0
 25 26  1  0  0  0  0
 27 29  1  0  0  0  0
 28 29  1  0  0  0  0
 31 30  1  0  0  0  0
 32 31  1  0  0  0  0
 33 32  1  0  0  0  0
 34 33  1  0  0  0  0
 34 37  1  0  0  0  0
 36 34  2  0  0  0  0
 37 35  1  0  0  0  0
 37 39  1  0  0  0  0
 39 38  2  0  0  0  0
 40 39  1  0  0  0  0
 41 44  1  1  0  0  0
 41 40  1  0  0  0  0
 42 41  1  0  0  0  0
 43 45  1  6  0  0  0
 43 42  1  0  0  0  0
 43 41  1  0  0  0  0
 45 47  2  0  0  0  0
 46 45  1  0  0  0  0
 49 50  1  0  0  0  0
 50 48  1  6  0  0  0
 50 46  1  0  0  0  0
M  END
>  <MODEL>
8

>  <REMARK>
 VINA RESULT:      -3.9      4.479      9.876
  Name = 
  21 active torsions:
  status: ('A' for Active; 'I' for Inactive)
    1  A    between atoms: C_2  and  C_17
    2  A    between atoms: C_3  and  C_46
    3  A    between atoms: C_7  and  C_31
    4  A    between atoms: C_7  and  O_32
    5  A    between atoms: C_8  and  O_32
    6  A    between atoms: C_8  and  C_36
    7  A    between atoms: C_8  and  C_42
    8  A    between atoms: C_9  and  C_17
    9  A    between atoms: C_9  and  N_19
   10  A    between atoms: C_13  and  C_34
   11  A    between atoms: N_20  and  C_24
   12  A    between atoms: C_21  and  C_42
   13  A    between atoms: C_23  and  C_37
   14  A    between atoms: C_26  and  C_44
   15  A    between atoms: N_29  and  C_43
   16  A    between atoms: C_30  and  O_47
   17  A    between atoms: C_31  and  C_34
   18  A    between atoms: C_36  and  O_41
   19  A    between atoms: C_36  and  O_47
   20  A    between atoms: C_40  and  O_41
   21  A    between atoms: C_43  and  C_44
                            x       y       z     vdW  Elec       q    Type
                         _______ _______ _______ _____ _____    ______ ____

>  <TORSDO>
F 21

$$$$
=
 OpenBabel11072412093D

 50 53  0  0  1  0  0  0  0  0999 V2000
  160.1750  212.9760  149.0990 C   0  0  2  0  0  3  0  0  0  0  0  0
  161.4300  212.2050  149.4240 C   0  0  0  0  0  0  0  0  0  0  0  0
  162.4700  212.4770  148.8430 O   0  0  0  0  0  0  0  0  0  0  0  0
  161.9460  209.7830  150.1870 C   0  0  2  0  0  0  0  0  0  0  0  0
  161.6150  208.7010  151.1980 C   0  0  0  0  0  1  0  0  0  0  0  0
  162.9100  210.7810  150.7760 C   0  0  0  0  0  2  0  0  0  0  0  0
  161.4670  211.1900  150.5360 C   0  0  1  0  0  3  0  0  0  0  0  0
  162.3440  209.3890  148.7670 C   0  0  0  0  0  2  0  0  0  0  0  0
  161.1700  208.7870  147.9980 C   0  0  0  0  0  2  0  0  0  0  0  0
  161.4520  206.7760  145.9820 O   0  0  0  0  0  0  0  0  0  0  0  0
  161.1110  207.3480  148.2240 N   0  0  0  0  0  2  0  0  0  0  0  0
  161.3080  206.3890  147.1740 C   0  0  0  0  0  0  0  0  0  0  0  0
  161.2720  200.7440  148.3940 C   0  0  0  0  0  2  0  0  0  0  0  0
  161.2160  202.2030  148.0550 C   0  0  0  0  0  0  0  0  0  0  0  0
  160.4220  201.3070  150.5780 C   0  0  0  0  0  3  0  0  0  0  0  0
  161.1320  203.1380  149.0920 C   0  0  0  0  0  0  0  0  0  0  0  0
  161.2890  202.6340  146.7330 C   0  0  0  0  0  3  0  0  0  0  0  0
  161.2350  204.9460  147.4770 C   0  0  0  0  0  0  0  0  0  0  0  0
  161.0970  202.6560  150.5150 C   0  0  0  0  0  2  0  0  0  0  0  0
  161.2960  204.0020  146.4440 C   0  0  0  0  0  3  0  0  0  0  0  0
  160.5210  200.4620  149.5960 N   0  0  0  0  0  0  0  0  0  0  0  0
  161.1560  204.5070  148.8040 C   0  0  0  0  0  3  0  0  0  0  0  0
  160.0180  213.1550  147.5860 C   0  0  1  0  0  3  0  0  0  0  0  0
  161.0010  212.4210  146.9120 O   0  0  0  0  0  0  0  0  0  0  0  0
  160.6440  213.8960  145.2030 O   0  0  0  0  0  1  0  0  0  0  0  0
  160.6990  212.5460  145.5550 C   0  0  0  0  0  2  0  0  0  0  0  0
  158.7540  212.7360  147.1610 O   0  0  0  0  0  0  0  0  0  0  0  0
  156.8710  214.1960  146.9680 C   0  0  0  0  0  1  0  0  0  0  0  0
  157.8530  213.5120  147.8970 C   0  0  0  0  0  2  0  0  0  0  0  0
  160.1860  214.2180  149.7460 O   0  0  0  0  0  0  0  0  0  0  0  0
  160.0880  213.9120  151.1090 C   0  0  0  0  0  2  0  0  0  0  0  0
  158.6570  214.0800  151.6070 C   0  0  0  0  0  2  0  0  0  0  0  0
  158.2350  213.0090  152.6250 C   0  0  0  0  0  2  0  0  0  0  0  0
  157.0550  213.3810  153.4830 C   0  0  0  0  0  0  0  0  0  0  0  0
  155.2180  212.1820  154.6520 C   0  0  0  0  0  1  0  0  0  0  0  0
  156.4270  214.4530  153.2860 O   0  0  0  0  0  0  0  0  0  0  0  0
  156.6360  212.4990  154.5310 N   0  0  0  0  0  0  0  0  0  0  0  0
  157.3390  210.4870  155.6080 C   0  0  0  0  0  2  0  0  0  0  0  0
  157.5940  211.7490  155.2900 C   0  0  0  0  0  0  0  0  0  0  0  0
  158.7220  212.4340  155.9900 C   0  0  0  0  0  2  0  0  0  0  0  0
  160.0560  211.7350  155.7750 C   0  0  2  0  0  0  0  0  0  0  0  0
  160.6570  212.2240  154.6070 O   0  0  0  0  0  0  0  0  0  0  0  0
  160.2060  210.8860  154.5530 C   0  0  1  0  0  3  0  0  0  0  0  0
  161.2780  211.7400  157.1340 S   0  0  0  0  0  1  0  0  0  0  0  0
  161.3770  209.9430  154.6100 C   0  0  0  0  0  0  0  0  0  0  0  0
  161.2490  208.6060  155.1050 N   0  0  0  0  0  2  0  0  0  0  0  0
  162.5180  210.3550  154.2670 O   0  0  0  0  0  0  0  0  0  0  0  0
  160.1120  208.0170  157.1580 C   0  0  0  0  0  1  0  0  0  0  0  0
  159.8330  206.7550  155.1690 O   0  0  0  0  0  1  0  0  0  0  0  0
  160.0210  208.0530  155.6460 C   0  0  2  0  0  3  0  0  0  0  0  0
  1  2  1  6  0  0  0
  1 30  1  0  0  0  0
  3  2  2  0  0  0  0
  4  7  1  0  0  0  0
  4  6  1  0  0  0  0
  4  5  1  1  0  0  0
  7  2  1  6  0  0  0
  7  6  1  0  0  0  0
  8  4  1  0  0  0  0
  9 11  1  0  0  0  0
  9  8  1  0  0  0  0
 10 12  2  0  0  0  0
 12 18  1  0  0  0  0
 12 11  1  0  0  0  0
 13 21  1  0  0  0  0
 14 13  1  0  0  0  0
 14 16  1  0  0  0  0
 16 19  1  0  0  0  0
 17 14  2  0  0  0  0
 18 22  1  0  0  0  0
 19 15  1  0  0  0  0
 20 17  1  0  0  0  0
 20 18  2  0  0  0  0
 21 15  2  0  0  0  0
 22 16  2  0  0  0  0
 23 24  1  6  0  0  0
 23  1  1  0  0  0  0
 25 26  1  0  0  0  0
 26 24  1  0  0  0  0
 27 23  1  0  0  0  0
 27 29  1  0  0  0  0
 28 29  1  0  0  0  0
 30 31  1  0  0  0  0
 31 32  1  0  0  0  0
 32 33  1  0  0  0  0
 33 34  1  0  0  0  0
 34 37  1  0  0  0  0
 36 34  2  0  0  0  0
 37 35  1  0  0  0  0
 37 39  1  0  0  0  0
 39 38  2  0  0  0  0
 39 40  1  0  0  0  0
 41 40  1  0  0  0  0
 41 44  1  1  0  0  0
 42 41  1  0  0  0  0
 43 42  1  0  0  0  0
 43 45  1  1  0  0  0
 43 41  1  0  0  0  0
 45 46  1  0  0  0  0
 46 50  1  0  0  0  0
 47 45  2  0  0  0  0
 49 50  1  0  0  0  0
 50 48  1  1  0  0  0
M  END
>  <MODEL>
9

>  <REMARK>
 VINA RESULT:      -3.8      4.580      8.909
  Name = 
  21 active torsions:
  status: ('A' for Active; 'I' for Inactive)
    1  A    between atoms: C_2  and  C_17
    2  A    between atoms: C_3  and  C_46
    3  A    between atoms: C_7  and  C_31
    4  A    between atoms: C_7  and  O_32
    5  A    between atoms: C_8  and  O_32
    6  A    between atoms: C_8  and  C_36
    7  A    between atoms: C_8  and  C_42
    8  A    between atoms: C_9  and  C_17
    9  A    between atoms: C_9  and  N_19
   10  A    between atoms: C_13  and  C_34
   11  A    between atoms: N_20  and  C_24
   12  A    between atoms: C_21  and  C_42
   13  A    between atoms: C_23  and  C_37
   14  A    between atoms: C_26  and  C_44
   15  A    between atoms: N_29  and  C_43
   16  A    between atoms: C_30  and  O_47
   17  A    between atoms: C_31  and  C_34
   18  A    between atoms: C_36  and  O_41
   19  A    between atoms: C_36  and  O_47
   20  A    between atoms: C_40  and  O_41
   21  A    between atoms: C_43  and  C_44
                            x       y       z     vdW  Elec       q    Type
                         _______ _______ _______ _____ _____    ______ ____

>  <TORSDO>
F 21

$$$$
