=
 OpenBabel11072414443D

 45 49  0  0  1  0  0  0  0  0999 V2000
  161.2260  205.6910  154.2690 O   0  0  0  0  0  0  0  0  0  0  0  0
  161.9130  206.4100  153.2870 C   0  0  0  0  0  2  0  0  0  0  0  0
  161.1180  202.4300  149.5090 C   0  0  0  0  0  0  0  0  0  0  0  0
  161.3570  204.5260  147.6750 C   0  0  0  0  0  3  0  0  0  0  0  0
  160.8550  204.0020  151.3700 N   0  0  0  0  0  2  0  0  0  0  0  0
  161.2520  204.8200  149.0420 C   0  0  0  0  0  0  0  0  0  0  0  0
  160.9670  207.1870  148.7270 N   0  0  0  0  0  2  0  0  0  0  0  0
  161.3340  203.2040  147.2220 C   0  0  0  0  0  0  0  0  0  0  0  0
  162.0960  206.5230  150.7730 C   0  0  1  0  0  3  0  0  0  0  0  0
  161.0950  203.7600  149.9720 C   0  0  0  0  0  0  0  0  0  0  0  0
  161.1470  206.3990  151.9690 C   0  0  1  0  0  3  0  0  0  0  0  0
  161.2280  202.1630  148.1420 C   0  0  0  0  0  3  0  0  0  0  0  0
  160.1980  205.1990  151.8910 C   0  0  0  0  0  2  0  0  0  0  0  0
  161.4040  206.2240  149.4730 C   0  0  0  0  0  0  0  0  0  0  0  0
  160.9710  201.2830  150.4490 C   0  0  0  0  0  1  0  0  0  0  0  0
  162.6900  207.7900  150.7480 O   0  0  0  0  0  0  0  0  0  0  0  0
  161.9240  209.9270  150.9370 O   0  0  0  0  0  1  0  0  0  0  0  0
  161.7860  208.6230  151.4110 C   0  0  0  0  0  2  0  0  0  0  0  0
  161.4430  202.9010  145.8270 N   0  0  0  0  0  2  0  0  0  0  0  0
  160.3270  202.5740  145.0410 N   0  0  0  0  0  2  0  0  0  0  0  0
  159.9300  203.7790  144.3280 C   0  0  0  0  0  2  0  0  0  0  0  0
  160.4830  206.1440  144.8810 C   0  0  0  0  0  1  0  0  0  0  0  0
  161.0370  204.8160  144.4020 C   0  0  0  0  0  2  0  0  0  0  0  0
  160.3960  206.6300  154.8850 C   0  0  0  0  0  2  0  0  0  0  0  0
  161.1470  207.3490  155.9960 C   0  0  0  0  0  2  0  0  0  0  0  0
  161.2210  208.7740  155.7110 N   0  0  0  0  0  0  0  0  0  0  0  0
  162.6750  210.5590  156.6340 C   0  0  0  0  0  2  0  0  0  0  0  0
  159.6240  211.7550  155.0670 C   0  0  1  0  0  0  0  0  0  0  0  0
  158.9070  209.4530  156.4980 C   0  0  0  0  0  2  0  0  0  0  0  0
  161.6860  209.4320  156.9330 C   0  0  0  0  0  2  0  0  0  0  0  0
  160.6860  212.0470  156.1650 C   0  0  0  0  0  2  0  0  0  0  0  0
  159.8710  209.2190  155.3190 C   0  0  1  0  0  3  0  0  0  0  0  0
  159.9480  210.4160  154.3650 C   0  0  0  0  0  2  0  0  0  0  0  0
  158.2350  211.7080  155.6210 N   0  0  0  0  0  0  0  0  0  0  0  0
  162.1040  211.6640  155.7450 C   0  0  0  0  0  2  0  0  0  0  0  0
  157.7690  210.3830  156.0800 C   0  0  0  0  0  2  0  0  0  0  0  0
  158.1390  212.6370  150.6440 O   0  0  0  0  0  0  0  0  0  0  0  0
  159.9410  212.2820  152.7190 O   0  0  0  0  0  0  0  0  0  0  0  0
  158.4630  213.7560  153.9290 C   0  0  0  0  0  2  0  0  0  0  0  0
  158.4270  214.4530  152.7180 O   0  0  0  0  0  0  0  0  0  0  0  0
  160.2890  214.1400  150.8960 O   0  0  0  0  0  1  0  0  0  0  0  0
  159.7040  212.8470  153.9800 C   0  0  1  0  0  3  0  0  0  0  0  0
  159.2310  213.4020  151.6850 P   0  0  2  0  0  0  0  0  0  0  0  0
  158.0020  212.6720  156.6970 C   0  0  0  0  0  2  0  0  0  0  0  0
  156.6880  213.1320  156.6390 O   0  0  0  0  0  1  0  0  0  0  0  0
  1 24  1  0  0  0  0
  2  1  1  0  0  0  0
  3 10  1  0  0  0  0
  3 15  1  0  0  0  0
  4  6  1  0  0  0  0
  5 13  1  0  0  0  0
  6 14  1  0  0  0  0
  6 10  2  0  0  0  0
  7 14  2  0  0  0  0
  8  4  2  0  0  0  0
  8 12  1  0  0  0  0
  9 16  1  6  0  0  0
  9 11  1  0  0  0  0
 10  5  1  0  0  0  0
 11  2  1  1  0  0  0
 12  3  2  0  0  0  0
 13 11  1  0  0  0  0
 14  9  1  0  0  0  0
 16 18  1  0  0  0  0
 17 18  1  0  0  0  0
 19  8  1  0  0  0  0
 20 19  1  0  0  0  0
 21 23  1  0  0  0  0
 21 20  1  0  0  0  0
 23 22  1  0  0  0  0
 24 25  1  0  0  0  0
 26 25  1  0  0  0  0
 26 30  1  0  0  0  0
 27 30  1  0  0  0  0
 28 33  1  6  0  0  0
 28 34  1  0  0  0  0
 28 31  1  0  0  0  0
 32 33  1  1  0  0  0
 32 26  1  0  0  0  0
 32 29  1  0  0  0  0
 34 36  1  0  0  0  0
 34 44  1  0  0  0  0
 35 31  1  0  0  0  0
 35 27  1  0  0  0  0
 36 29  1  0  0  0  0
 38 42  1  0  0  0  0
 40 39  1  0  0  0  0
 41 43  1  0  0  0  0
 42 39  1  6  0  0  0
 42 28  1  0  0  0  0
 43 37  2  6  0  0  0
 43 40  1  0  0  0  0
 43 38  1  0  0  0  0
 45 44  1  0  0  0  0
M  END
>  <MODEL>
1

>  <REMARK>
 VINA RESULT:      -6.0      0.000      0.000
  Name = 
  13 active torsions:
  status: ('A' for Active; 'I' for Inactive)
    1  A    between atoms: C_1  and  N_36
    2  A    between atoms: N_2  and  C_40
    3  A    between atoms: C_4  and  O_29
    4  A    between atoms: C_4  and  C_30
    5  A    between atoms: O_5  and  C_26
    6  A    between atoms: O_5  and  C_32
    7  A    between atoms: C_8  and  O_29
    8  A    between atoms: C_8  and  C_40
    9  A    between atoms: C_10  and  C_37
   10  A    between atoms: N_13  and  C_23
   11  A    between atoms: N_13  and  N_28
   12  A    between atoms: N_28  and  C_45
   13  A    between atoms: C_34  and  C_45
                            x       y       z     vdW  Elec       q    Type
                         _______ _______ _______ _____ _____    ______ ____

>  <TORSDO>
F 13

$$$$
=
 OpenBabel11072414443D

 45 49  0  0  1  0  0  0  0  0999 V2000
  161.2270  206.2500  143.4270 O   0  0  0  0  0  0  0  0  0  0  0  0
  161.8480  205.2960  144.2390 C   0  0  0  0  0  2  0  0  0  0  0  0
  161.8000  207.5160  149.3200 C   0  0  0  0  0  0  0  0  0  0  0  0
  161.3230  204.8900  150.1480 C   0  0  0  0  0  3  0  0  0  0  0  0
  161.2960  206.9430  146.9910 N   0  0  0  0  0  2  0  0  0  0  0  0
  161.2630  205.1990  148.7810 C   0  0  0  0  0  0  0  0  0  0  0  0
  160.3420  203.0770  148.1260 N   0  0  0  0  0  2  0  0  0  0  0  0
  161.6080  205.8780  151.0950 C   0  0  0  0  0  0  0  0  0  0  0  0
  161.7770  204.1560  146.4890 C   0  0  1  0  0  3  0  0  0  0  0  0
  161.4700  206.5390  148.3610 C   0  0  0  0  0  0  0  0  0  0  0  0
  161.0010  204.9960  145.4710 C   0  0  1  0  0  3  0  0  0  0  0  0
  161.8580  207.1830  150.6750 C   0  0  0  0  0  3  0  0  0  0  0  0
  160.3960  206.2790  146.0510 C   0  0  0  0  0  2  0  0  0  0  0  0
  161.0790  204.0960  147.8190 C   0  0  0  0  0  0  0  0  0  0  0  0
  162.0400  208.9340  148.9250 C   0  0  0  0  0  1  0  0  0  0  0  0
  162.0140  202.8720  145.9860 O   0  0  0  0  0  0  0  0  0  0  0  0
  160.5690  201.1900  145.4670 O   0  0  0  0  0  1  0  0  0  0  0  0
  160.8530  202.5420  145.2840 C   0  0  0  0  0  2  0  0  0  0  0  0
  161.6730  205.5640  152.4900 N   0  0  0  0  0  2  0  0  0  0  0  0
  161.9180  206.5410  153.4680 N   0  0  0  0  0  2  0  0  0  0  0  0
  160.6740  206.7520  154.1940 C   0  0  0  0  0  2  0  0  0  0  0  0
  161.0110  209.2180  154.2880 C   0  0  0  0  0  1  0  0  0  0  0  0
  160.8030  207.9580  155.1070 C   0  0  0  0  0  2  0  0  0  0  0  0
  161.5260  205.8570  142.1210 C   0  0  0  0  0  2  0  0  0  0  0  0
  162.4560  206.8670  141.4670 C   0  0  0  0  0  2  0  0  0  0  0  0
  161.8490  207.3970  140.2550 N   0  0  0  0  0  0  0  0  0  0  0  0
  162.0930  206.7420  137.8750 C   0  0  0  0  0  2  0  0  0  0  0  0
  160.8200  210.1050  138.3930 C   0  0  1  0  0  0  0  0  0  0  0  0
  162.8310  209.7350  140.3110 C   0  0  0  0  0  2  0  0  0  0  0  0
  162.7980  207.1670  139.1640 C   0  0  0  0  0  2  0  0  0  0  0  0
  161.6340  209.1890  137.4350 C   0  0  0  0  0  2  0  0  0  0  0  0
  161.5930  208.8320  140.4760 C   0  0  1  0  0  3  0  0  0  0  0  0
  160.3950  209.3070  139.6480 C   0  0  0  0  0  2  0  0  0  0  0  0
  161.5910  211.3180  138.8070 N   0  0  0  0  0  0  0  0  0  0  0  0
  161.0840  207.7660  137.3540 C   0  0  0  0  0  2  0  0  0  0  0  0
  162.4070  211.1760  140.0310 C   0  0  0  0  0  2  0  0  0  0  0  0
  156.4250  211.5780  139.4210 O   0  0  0  0  0  1  0  0  0  0  0  0
  158.3980  209.9740  138.3180 O   0  0  0  0  0  0  0  0  0  0  0  0
  159.3530  212.0690  137.5960 C   0  0  0  0  0  2  0  0  0  0  0  0
  158.0240  212.3920  137.3080 O   0  0  0  0  0  0  0  0  0  0  0  0
  156.1910  210.5380  137.0110 O   0  0  0  0  0  0  0  0  0  0  0  0
  159.5170  210.5410  137.6920 C   0  0  1  0  0  3  0  0  0  0  0  0
  157.1940  211.1020  137.9920 P   0  0  2  0  0  0  0  0  0  0  0  0
  162.4450  211.8570  137.7490 C   0  0  0  0  0  2  0  0  0  0  0  0
  163.7110  212.1350  138.2630 O   0  0  0  0  0  1  0  0  0  0  0  0
  1  2  1  0  0  0  0
  3 12  1  0  0  0  0
  4  8  1  0  0  0  0
  5 10  1  0  0  0  0
  6  4  2  0  0  0  0
  8 19  1  0  0  0  0
  9 16  1  6  0  0  0
  9 14  1  0  0  0  0
 10  6  1  0  0  0  0
 10  3  2  0  0  0  0
 11  2  1  6  0  0  0
 11 13  1  0  0  0  0
 11  9  1  0  0  0  0
 12  8  2  0  0  0  0
 13  5  1  0  0  0  0
 14  7  2  0  0  0  0
 14  6  1  0  0  0  0
 15  3  1  0  0  0  0
 18 17  1  0  0  0  0
 18 16  1  0  0  0  0
 19 20  1  0  0  0  0
 20 21  1  0  0  0  0
 21 23  1  0  0  0  0
 22 23  1  0  0  0  0
 24  1  1  0  0  0  0
 25 24  1  0  0  0  0
 26 32  1  0  0  0  0
 26 25  1  0  0  0  0
 27 30  1  0  0  0  0
 28 31  1  6  0  0  0
 28 34  1  0  0  0  0
 28 33  1  0  0  0  0
 29 32  1  0  0  0  0
 30 26  1  0  0  0  0
 32 33  1  6  0  0  0
 34 36  1  0  0  0  0
 35 31  1  0  0  0  0
 35 27  1  0  0  0  0
 36 29  1  0  0  0  0
 40 39  1  0  0  0  0
 40 43  1  0  0  0  0
 42 39  1  1  0  0  0
 42 38  1  0  0  0  0
 42 28  1  0  0  0  0
 43 41  2  6  0  0  0
 43 38  1  0  0  0  0
 43 37  1  0  0  0  0
 44 45  1  0  0  0  0
 44 34  1  0  0  0  0
M  END
>  <MODEL>
2

>  <REMARK>
 VINA RESULT:      -5.5      6.856     12.588
  Name = 
  13 active torsions:
  status: ('A' for Active; 'I' for Inactive)
    1  A    between atoms: C_1  and  N_36
    2  A    between atoms: N_2  and  C_40
    3  A    between atoms: C_4  and  O_29
    4  A    between atoms: C_4  and  C_30
    5  A    between atoms: O_5  and  C_26
    6  A    between atoms: O_5  and  C_32
    7  A    between atoms: C_8  and  O_29
    8  A    between atoms: C_8  and  C_40
    9  A    between atoms: C_10  and  C_37
   10  A    between atoms: N_13  and  C_23
   11  A    between atoms: N_13  and  N_28
   12  A    between atoms: N_28  and  C_45
   13  A    between atoms: C_34  and  C_45
                            x       y       z     vdW  Elec       q    Type
                         _______ _______ _______ _____ _____    ______ ____

>  <TORSDO>
F 13

$$$$
=
 OpenBabel11072414443D

 45 49  0  0  1  0  0  0  0  0999 V2000
  161.5210  206.9470  153.9630 O   0  0  0  0  0  0  0  0  0  0  0  0
  162.0710  206.0980  152.9980 C   0  0  0  0  0  2  0  0  0  0  0  0
  161.1960  201.6680  149.7790 C   0  0  0  0  0  0  0  0  0  0  0  0
  160.7470  203.5700  147.7810 C   0  0  0  0  0  3  0  0  0  0  0  0
  161.0530  203.3770  151.5290 N   0  0  0  0  0  2  0  0  0  0  0  0
  160.8620  203.9900  149.1140 C   0  0  0  0  0  0  0  0  0  0  0  0
  160.1550  206.2490  148.6850 N   0  0  0  0  0  2  0  0  0  0  0  0
  160.8440  202.2170  147.4440 C   0  0  0  0  0  0  0  0  0  0  0  0
  161.7460  205.9670  150.4990 C   0  0  1  0  0  3  0  0  0  0  0  0
  161.0550  203.0230  150.1340 C   0  0  0  0  0  0  0  0  0  0  0  0
  161.0770  205.8410  151.8700 C   0  0  1  0  0  3  0  0  0  0  0  0
  161.0810  201.2750  148.4430 C   0  0  0  0  0  3  0  0  0  0  0  0
  160.3300  204.5200  152.0820 C   0  0  0  0  0  2  0  0  0  0  0  0
  160.8730  205.4390  149.3960 C   0  0  0  0  0  0  0  0  0  0  0  0
  161.4140  200.6170  150.8140 C   0  0  0  0  0  1  0  0  0  0  0  0
  162.1190  207.2940  150.2560 O   0  0  0  0  0  0  0  0  0  0  0  0
  162.5090  208.4760  148.3480 O   0  0  0  0  0  1  0  0  0  0  0  0
  162.7400  207.2690  149.0050 C   0  0  0  0  0  2  0  0  0  0  0  0
  160.7290  201.7860  146.0840 N   0  0  0  0  0  2  0  0  0  0  0  0
  160.7160  202.6880  145.0100 N   0  0  0  0  0  2  0  0  0  0  0  0
  161.4350  203.8800  145.4350 C   0  0  0  0  0  2  0  0  0  0  0  0
  160.4470  206.1550  145.2050 C   0  0  0  0  0  1  0  0  0  0  0  0
  161.1530  205.0260  144.4790 C   0  0  0  0  0  2  0  0  0  0  0  0
  160.6730  207.7960  153.2500 C   0  0  0  0  0  2  0  0  0  0  0  0
  161.3360  209.1490  153.0380 C   0  0  0  0  0  2  0  0  0  0  0  0
  160.3880  210.2200  153.3040 N   0  0  0  0  0  0  0  0  0  0  0  0
  160.0770  212.4400  152.2420 C   0  0  0  0  0  2  0  0  0  0  0  0
  158.6480  212.1440  155.5680 C   0  0  1  0  0  0  0  0  0  0  0  0
  161.1110  210.8080  155.6640 C   0  0  0  0  0  2  0  0  0  0  0  0
  161.0430  211.4750  152.9320 C   0  0  0  0  0  2  0  0  0  0  0  0
  159.2770  213.1270  154.5390 C   0  0  0  0  0  2  0  0  0  0  0  0
  160.0550  210.1720  154.7400 C   0  0  1  0  0  3  0  0  0  0  0  0
  158.6430  210.7110  154.9900 C   0  0  0  0  0  2  0  0  0  0  0  0
  159.3740  212.1550  156.8770 N   0  0  0  0  0  0  0  0  0  0  0  0
  158.8710  212.8260  153.0970 C   0  0  0  0  0  2  0  0  0  0  0  0
  160.4870  211.1910  157.0040 C   0  0  0  0  0  2  0  0  0  0  0  0
  154.8160  213.5730  153.1560 O   0  0  0  0  0  0  0  0  0  0  0  0
  156.8290  213.6680  155.0590 O   0  0  0  0  0  0  0  0  0  0  0  0
  156.1860  211.3840  155.4960 C   0  0  0  0  0  2  0  0  0  0  0  0
  154.8910  211.8910  155.3580 O   0  0  0  0  0  0  0  0  0  0  0  0
  154.3830  214.4530  155.6020 O   0  0  0  0  0  1  0  0  0  0  0  0
  157.1720  212.5280  155.7990 C   0  0  1  0  0  3  0  0  0  0  0  0
  155.1820  213.4490  154.8030 P   0  0  2  0  0  0  0  0  0  0  0  0
  159.8690  213.4770  157.2600 C   0  0  0  0  0  2  0  0  0  0  0  0
  161.2070  213.6030  156.8900 O   0  0  0  0  0  1  0  0  0  0  0  0
  2  1  1  0  0  0  0
  3 10  1  0  0  0  0
  3 15  1  0  0  0  0
  4  6  1  0  0  0  0
  5 13  1  0  0  0  0
  6 14  1  0  0  0  0
  6 10  2  0  0  0  0
  7 14  2  0  0  0  0
  8  4  2  0  0  0  0
  8 12  1  0  0  0  0
  9 16  1  6  0  0  0
  9 11  1  0  0  0  0
 10  5  1  0  0  0  0
 11 13  1  0  0  0  0
 11  2  1  1  0  0  0
 12  3  2  0  0  0  0
 14  9  1  0  0  0  0
 17 18  1  0  0  0  0
 18 16  1  0  0  0  0
 19  8  1  0  0  0  0
 20 21  1  0  0  0  0
 20 19  1  0  0  0  0
 23 22  1  0  0  0  0
 23 21  1  0  0  0  0
 24  1  1  0  0  0  0
 25 24  1  0  0  0  0
 25 26  1  0  0  0  0
 26 32  1  0  0  0  0
 27 30  1  0  0  0  0
 27 35  1  0  0  0  0
 28 31  1  6  0  0  0
 28 42  1  0  0  0  0
 28 34  1  0  0  0  0
 29 36  1  0  0  0  0
 30 26  1  0  0  0  0
 32 33  1  6  0  0  0
 32 29  1  0  0  0  0
 33 28  1  0  0  0  0
 34 36  1  0  0  0  0
 34 44  1  0  0  0  0
 35 31  1  0  0  0  0
 38 42  1  0  0  0  0
 40 39  1  0  0  0  0
 42 39  1  6  0  0  0
 43 37  2  6  0  0  0
 43 38  1  0  0  0  0
 43 40  1  0  0  0  0
 43 41  1  0  0  0  0
 45 44  1  0  0  0  0
M  END
>  <MODEL>
3

>  <REMARK>
 VINA RESULT:      -5.4      1.980      2.801
  Name = 
  13 active torsions:
  status: ('A' for Active; 'I' for Inactive)
    1  A    between atoms: C_1  and  N_36
    2  A    between atoms: N_2  and  C_40
    3  A    between atoms: C_4  and  O_29
    4  A    between atoms: C_4  and  C_30
    5  A    between atoms: O_5  and  C_26
    6  A    between atoms: O_5  and  C_32
    7  A    between atoms: C_8  and  O_29
    8  A    between atoms: C_8  and  C_40
    9  A    between atoms: C_10  and  C_37
   10  A    between atoms: N_13  and  C_23
   11  A    between atoms: N_13  and  N_28
   12  A    between atoms: N_28  and  C_45
   13  A    between atoms: C_34  and  C_45
                            x       y       z     vdW  Elec       q    Type
                         _______ _______ _______ _____ _____    ______ ____

>  <TORSDO>
F 13

$$$$
=
 OpenBabel11072414443D

 45 49  0  0  1  0  0  0  0  0999 V2000
  162.5130  208.0650  150.3200 O   0  0  0  0  0  0  0  0  0  0  0  0
  161.9900  208.4000  149.0670 C   0  0  0  0  0  2  0  0  0  0  0  0
  161.1470  203.2070  150.8220 C   0  0  0  0  0  0  0  0  0  0  0  0
  161.1060  202.6010  148.0940 C   0  0  0  0  0  3  0  0  0  0  0  0
  160.9360  205.6050  150.3590 N   0  0  0  0  0  2  0  0  0  0  0  0
  161.0920  203.9440  148.4980 C   0  0  0  0  0  0  0  0  0  0  0  0
  160.6340  204.8180  146.3050 N   0  0  0  0  0  2  0  0  0  0  0  0
  161.1300  201.5680  149.0370 C   0  0  0  0  0  0  0  0  0  0  0  0
  161.9630  206.2450  147.7550 C   0  0  1  0  0  3  0  0  0  0  0  0
  161.0780  204.2540  149.8830 C   0  0  0  0  0  0  0  0  0  0  0  0
  161.1230  207.2700  148.5210 C   0  0  1  0  0  3  0  0  0  0  0  0
  161.1640  201.8780  150.3950 C   0  0  0  0  0  3  0  0  0  0  0  0
  160.2490  206.6630  149.6220 C   0  0  0  0  0  2  0  0  0  0  0  0
  161.1900  204.9900  147.4620 C   0  0  0  0  0  0  0  0  0  0  0  0
  161.1490  203.4850  152.2870 C   0  0  0  0  0  1  0  0  0  0  0  0
  162.4730  206.8090  146.5790 O   0  0  0  0  0  0  0  0  0  0  0  0
  163.7130  205.2560  145.4670 O   0  0  0  0  0  1  0  0  0  0  0  0
  162.4320  205.7770  145.6390 C   0  0  0  0  0  2  0  0  0  0  0  0
  161.1460  200.1970  148.6280 N   0  0  0  0  0  2  0  0  0  0  0  0
  161.4200  199.8120  147.3060 N   0  0  0  0  0  2  0  0  0  0  0  0
  161.0870  200.9390  146.4470 C   0  0  0  0  0  2  0  0  0  0  0  0
  159.6710  201.7010  144.5450 C   0  0  0  0  0  1  0  0  0  0  0  0
  160.0110  200.5360  145.4550 C   0  0  0  0  0  2  0  0  0  0  0  0
  162.1460  209.1230  151.1540 C   0  0  0  0  0  2  0  0  0  0  0  0
  161.3540  208.6050  152.3450 C   0  0  0  0  0  2  0  0  0  0  0  0
  160.4950  209.6560  152.8710 N   0  0  0  0  0  0  0  0  0  0  0  0
  160.1340  212.0000  152.1440 C   0  0  0  0  0  2  0  0  0  0  0  0
  159.1600  211.3160  155.5760 C   0  0  1  0  0  0  0  0  0  0  0  0
  161.5560  209.9210  155.1600 C   0  0  0  0  0  2  0  0  0  0  0  0
  161.1440  210.9320  152.5680 C   0  0  0  0  0  2  0  0  0  0  0  0
  159.6820  212.4070  154.5970 C   0  0  0  0  0  2  0  0  0  0  0  0
  160.3580  209.4320  154.3230 C   0  0  1  0  0  3  0  0  0  0  0  0
  159.0170  209.9680  154.8320 C   0  0  0  0  0  2  0  0  0  0  0  0
  160.0560  211.1430  156.7610 N   0  0  0  0  0  0  0  0  0  0  0  0
  159.0720  212.3020  153.2010 C   0  0  0  0  0  2  0  0  0  0  0  0
  161.1350  210.1440  156.6120 C   0  0  0  0  0  2  0  0  0  0  0  0
  155.3690  213.8090  154.1750 O   0  0  0  0  0  0  0  0  0  0  0  0
  157.4820  213.0550  155.8030 O   0  0  0  0  0  0  0  0  0  0  0  0
  156.6320  210.8240  155.4550 C   0  0  0  0  0  2  0  0  0  0  0  0
  155.3900  211.4440  155.6190 O   0  0  0  0  0  0  0  0  0  0  0  0
  155.1630  213.7750  156.8020 O   0  0  0  0  0  1  0  0  0  0  0  0
  157.7450  211.7010  156.0560 C   0  0  1  0  0  3  0  0  0  0  0  0
  155.8090  213.0700  155.6310 P   0  0  2  0  0  0  0  0  0  0  0  0
  160.6520  212.3930  157.2310 C   0  0  0  0  0  2  0  0  0  0  0  0
  162.0280  212.3710  157.0060 O   0  0  0  0  0  1  0  0  0  0  0  0
  1 24  1  0  0  0  0
  2  1  1  0  0  0  0
  3 15  1  0  0  0  0
  4  6  2  0  0  0  0
  4  8  1  0  0  0  0
  6 10  1  0  0  0  0
  7 14  2  0  0  0  0
  8 12  2  0  0  0  0
  9 16  1  6  0  0  0
  9 11  1  0  0  0  0
 10  5  1  0  0  0  0
 10  3  2  0  0  0  0
 11  2  1  1  0  0  0
 11 13  1  0  0  0  0
 12  3  1  0  0  0  0
 13  5  1  0  0  0  0
 14  9  1  0  0  0  0
 14  6  1  0  0  0  0
 17 18  1  0  0  0  0
 18 16  1  0  0  0  0
 19  8  1  0  0  0  0
 20 19  1  0  0  0  0
 21 20  1  0  0  0  0
 22 23  1  0  0  0  0
 23 21  1  0  0  0  0
 24 25  1  0  0  0  0
 25 26  1  0  0  0  0
 26 32  1  0  0  0  0
 27 30  1  0  0  0  0
 27 35  1  0  0  0  0
 28 31  1  6  0  0  0
 28 42  1  0  0  0  0
 28 34  1  0  0  0  0
 29 36  1  0  0  0  0
 30 26  1  0  0  0  0
 32 33  1  1  0  0  0
 32 29  1  0  0  0  0
 33 28  1  0  0  0  0
 34 44  1  0  0  0  0
 35 31  1  0  0  0  0
 36 34  1  0  0  0  0
 38 42  1  0  0  0  0
 39 40  1  0  0  0  0
 40 43  1  0  0  0  0
 42 39  1  6  0  0  0
 43 37  2  6  0  0  0
 43 38  1  0  0  0  0
 43 41  1  0  0  0  0
 45 44  1  0  0  0  0
M  END
>  <MODEL>
4

>  <REMARK>
 VINA RESULT:      -4.8      2.349      3.889
  Name = 
  13 active torsions:
  status: ('A' for Active; 'I' for Inactive)
    1  A    between atoms: C_1  and  N_36
    2  A    between atoms: N_2  and  C_40
    3  A    between atoms: C_4  and  O_29
    4  A    between atoms: C_4  and  C_30
    5  A    between atoms: O_5  and  C_26
    6  A    between atoms: O_5  and  C_32
    7  A    between atoms: C_8  and  O_29
    8  A    between atoms: C_8  and  C_40
    9  A    between atoms: C_10  and  C_37
   10  A    between atoms: N_13  and  C_23
   11  A    between atoms: N_13  and  N_28
   12  A    between atoms: N_28  and  C_45
   13  A    between atoms: C_34  and  C_45
                            x       y       z     vdW  Elec       q    Type
                         _______ _______ _______ _____ _____    ______ ____

>  <TORSDO>
F 13

$$$$
=
 OpenBabel11072414443D

 45 49  0  0  1  0  0  0  0  0999 V2000
  162.4960  208.1700  150.5610 O   0  0  0  0  0  0  0  0  0  0  0  0
  161.7770  207.7290  149.4460 C   0  0  0  0  0  2  0  0  0  0  0  0
  161.0590  204.7550  144.8210 C   0  0  0  0  0  0  0  0  0  0  0  0
  160.5650  202.6530  146.5960 C   0  0  0  0  0  3  0  0  0  0  0  0
  161.9950  206.1370  146.6160 N   0  0  0  0  0  2  0  0  0  0  0  0
  161.0720  203.8630  147.0910 C   0  0  0  0  0  0  0  0  0  0  0  0
  161.5240  203.0160  149.2960 N   0  0  0  0  0  2  0  0  0  0  0  0
  160.3150  202.4840  145.2310 C   0  0  0  0  0  0  0  0  0  0  0  0
  160.9290  205.3680  149.1700 C   0  0  1  0  0  3  0  0  0  0  0  0
  161.3570  204.9200  146.1880 C   0  0  0  0  0  0  0  0  0  0  0  0
  162.1480  206.2920  149.0940 C   0  0  1  0  0  3  0  0  0  0  0  0
  160.5510  203.5410  144.3530 C   0  0  0  0  0  3  0  0  0  0  0  0
  162.8990  206.2270  147.7600 C   0  0  0  0  0  2  0  0  0  0  0  0
  161.2020  204.0250  148.5520 C   0  0  0  0  0  0  0  0  0  0  0  0
  161.3280  205.8420  143.8360 C   0  0  0  0  0  1  0  0  0  0  0  0
  160.4970  205.2360  150.4940 O   0  0  0  0  0  0  0  0  0  0  0  0
  161.3350  204.6130  152.5190 O   0  0  0  0  0  1  0  0  0  0  0  0
  161.6650  205.0480  151.2360 C   0  0  0  0  0  2  0  0  0  0  0  0
  159.7970  201.2510  144.7230 N   0  0  0  0  0  2  0  0  0  0  0  0
  159.7490  200.0820  145.4980 N   0  0  0  0  0  2  0  0  0  0  0  0
  160.5890  199.0910  144.8410 C   0  0  0  0  0  2  0  0  0  0  0  0
  161.6760  199.4710  147.0500 C   0  0  0  0  0  1  0  0  0  0  0  0
  161.7970  198.7770  145.7060 C   0  0  0  0  0  2  0  0  0  0  0  0
  161.7430  209.2260  151.0770 C   0  0  0  0  0  2  0  0  0  0  0  0
  160.9730  208.7740  152.3090 C   0  0  0  0  0  2  0  0  0  0  0  0
  160.2290  209.8910  152.8730 N   0  0  0  0  0  0  0  0  0  0  0  0
  160.0620  212.2680  152.1850 C   0  0  0  0  0  2  0  0  0  0  0  0
  159.1320  211.6250  155.6370 C   0  0  1  0  0  0  0  0  0  0  0  0
  161.3770  210.0250  155.1320 C   0  0  0  0  0  2  0  0  0  0  0  0
  160.9830  211.1070  152.5650 C   0  0  0  0  0  2  0  0  0  0  0  0
  159.7220  212.6780  154.6560 C   0  0  0  0  0  2  0  0  0  0  0  0
  160.1160  209.6590  154.3260 C   0  0  1  0  0  3  0  0  0  0  0  0
  158.8440  210.3070  154.8830 C   0  0  0  0  0  2  0  0  0  0  0  0
  160.0430  211.3540  156.7920 N   0  0  0  0  0  0  0  0  0  0  0  0
  159.0640  212.6500  153.2780 C   0  0  0  0  0  2  0  0  0  0  0  0
  161.0220  210.2650  156.5980 C   0  0  0  0  0  2  0  0  0  0  0  0
  155.2430  213.9070  154.1480 O   0  0  0  0  0  0  0  0  0  0  0  0
  157.4970  213.4180  155.6860 O   0  0  0  0  0  0  0  0  0  0  0  0
  156.6000  211.1840  155.8480 C   0  0  0  0  0  2  0  0  0  0  0  0
  155.3850  211.8550  156.0070 O   0  0  0  0  0  0  0  0  0  0  0  0
  155.2900  214.3720  156.7420 O   0  0  0  0  0  1  0  0  0  0  0  0
  157.7730  212.1300  156.1650 C   0  0  1  0  0  3  0  0  0  0  0  0
  155.8150  213.4430  155.6710 P   0  0  2  0  0  0  0  0  0  0  0  0
  160.7640  212.5390  157.2580 C   0  0  0  0  0  2  0  0  0  0  0  0
  162.1360  212.2950  157.2280 O   0  0  0  0  0  1  0  0  0  0  0  0
  1 24  1  0  0  0  0
  2  1  1  0  0  0  0
  3 10  1  0  0  0  0
  4  6  1  0  0  0  0
  5 13  1  0  0  0  0
  6 14  1  0  0  0  0
  8  4  2  0  0  0  0
  9 16  1  1  0  0  0
 10  5  1  0  0  0  0
 10  6  2  0  0  0  0
 11  9  1  0  0  0  0
 11  2  1  6  0  0  0
 12  3  2  0  0  0  0
 12  8  1  0  0  0  0
 13 11  1  0  0  0  0
 14  9  1  0  0  0  0
 14  7  2  0  0  0  0
 15  3  1  0  0  0  0
 16 18  1  0  0  0  0
 18 17  1  0  0  0  0
 19  8  1  0  0  0  0
 19 20  1  0  0  0  0
 21 20  1  0  0  0  0
 21 23  1  0  0  0  0
 23 22  1  0  0  0  0
 24 25  1  0  0  0  0
 25 26  1  0  0  0  0
 26 32  1  0  0  0  0
 27 30  1  0  0  0  0
 27 35  1  0  0  0  0
 28 31  1  6  0  0  0
 28 42  1  0  0  0  0
 28 34  1  0  0  0  0
 29 36  1  0  0  0  0
 30 26  1  0  0  0  0
 32 33  1  1  0  0  0
 32 29  1  0  0  0  0
 33 28  1  0  0  0  0
 34 44  1  0  0  0  0
 35 31  1  0  0  0  0
 36 34  1  0  0  0  0
 38 42  1  0  0  0  0
 39 40  1  0  0  0  0
 42 39  1  6  0  0  0
 43 37  2  6  0  0  0
 43 38  1  0  0  0  0
 43 40  1  0  0  0  0
 43 41  1  0  0  0  0
 45 44  1  0  0  0  0
M  END
>  <MODEL>
5

>  <REMARK>
 VINA RESULT:      -4.8      2.258      4.249
  Name = 
  13 active torsions:
  status: ('A' for Active; 'I' for Inactive)
    1  A    between atoms: C_1  and  N_36
    2  A    between atoms: N_2  and  C_40
    3  A    between atoms: C_4  and  O_29
    4  A    between atoms: C_4  and  C_30
    5  A    between atoms: O_5  and  C_26
    6  A    between atoms: O_5  and  C_32
    7  A    between atoms: C_8  and  O_29
    8  A    between atoms: C_8  and  C_40
    9  A    between atoms: C_10  and  C_37
   10  A    between atoms: N_13  and  C_23
   11  A    between atoms: N_13  and  N_28
   12  A    between atoms: N_28  and  C_45
   13  A    between atoms: C_34  and  C_45
                            x       y       z     vdW  Elec       q    Type
                         _______ _______ _______ _____ _____    ______ ____

>  <TORSDO>
F 13

$$$$
=
 OpenBabel11072414443D

 45 49  0  0  1  0  0  0  0  0999 V2000
  162.0650  205.8270  142.7040 O   0  0  0  0  0  0  0  0  0  0  0  0
  161.2340  205.8980  143.8260 C   0  0  0  0  0  2  0  0  0  0  0  0
  160.8260  201.5460  147.2380 C   0  0  0  0  0  0  0  0  0  0  0  0
  161.3330  203.4330  149.2360 C   0  0  0  0  0  3  0  0  0  0  0  0
  161.5220  203.1150  145.4890 N   0  0  0  0  0  2  0  0  0  0  0  0
  161.4840  203.8010  147.8910 C   0  0  0  0  0  0  0  0  0  0  0  0
  162.5260  205.9160  148.3680 N   0  0  0  0  0  2  0  0  0  0  0  0
  160.9440  202.1370  149.5860 C   0  0  0  0  0  0  0  0  0  0  0  0
  161.1780  205.8340  146.3480 C   0  0  1  0  0  3  0  0  0  0  0  0
  161.2610  202.8350  146.8760 C   0  0  0  0  0  0  0  0  0  0  0  0
  161.9970  205.5240  145.0920 C   0  0  1  0  0  3  0  0  0  0  0  0
  160.6800  201.2040  148.5850 C   0  0  0  0  0  3  0  0  0  0  0  0
  162.5120  204.0830  145.0220 C   0  0  0  0  0  2  0  0  0  0  0  0
  161.7780  205.2130  147.5780 C   0  0  0  0  0  0  0  0  0  0  0  0
  160.5660  200.5020  146.2060 C   0  0  0  0  0  1  0  0  0  0  0  0
  161.0240  207.2160  146.5040 O   0  0  0  0  0  0  0  0  0  0  0  0
  161.5720  208.5370  148.2770 O   0  0  0  0  0  1  0  0  0  0  0  0
  160.8610  207.4070  147.8780 C   0  0  0  0  0  2  0  0  0  0  0  0
  160.7880  201.7590  150.9570 N   0  0  0  0  0  2  0  0  0  0  0  0
  161.3960  202.4680  152.0050 N   0  0  0  0  0  2  0  0  0  0  0  0
  160.7150  203.7490  152.1160 C   0  0  0  0  0  2  0  0  0  0  0  0
  160.9960  206.0850  152.9340 C   0  0  0  0  0  1  0  0  0  0  0  0
  161.7160  204.8430  152.4430 C   0  0  0  0  0  2  0  0  0  0  0  0
  161.3680  206.5030  141.7000 C   0  0  0  0  0  2  0  0  0  0  0  0
  162.3160  206.9140  140.5840 C   0  0  0  0  0  2  0  0  0  0  0  0
  161.6200  207.7460  139.6150 N   0  0  0  0  0  0  0  0  0  0  0  0
  161.3930  207.5590  137.1520 C   0  0  0  0  0  2  0  0  0  0  0  0
  160.7480  210.8780  138.4800 C   0  0  1  0  0  0  0  0  0  0  0  0
  162.9480  209.8880  139.9090 C   0  0  0  0  0  2  0  0  0  0  0  0
  162.3440  207.6270  138.3480 C   0  0  0  0  0  2  0  0  0  0  0  0
  161.2550  210.0810  137.2430 C   0  0  0  0  0  2  0  0  0  0  0  0
  161.6260  209.1280  140.1300 C   0  0  1  0  0  3  0  0  0  0  0  0
  160.4030  209.9020  139.6280 C   0  0  0  0  0  2  0  0  0  0  0  0
  161.7510  211.8800  138.9580 N   0  0  0  0  0  0  0  0  0  0  0  0
  160.4870  208.7820  137.0110 C   0  0  0  0  0  2  0  0  0  0  0  0
  162.7130  211.3960  139.9700 C   0  0  0  0  0  2  0  0  0  0  0  0
  156.0920  210.7040  139.3900 O   0  0  0  0  0  1  0  0  0  0  0  0
  158.4080  210.6820  137.8690 O   0  0  0  0  0  0  0  0  0  0  0  0
  158.9870  212.6310  139.1670 C   0  0  0  0  0  2  0  0  0  0  0  0
  157.6440  212.9630  138.9730 O   0  0  0  0  0  0  0  0  0  0  0  0
  156.2280  211.8900  137.0410 O   0  0  0  0  0  0  0  0  0  0  0  0
  159.4360  211.6020  138.1130 C   0  0  1  0  0  3  0  0  0  0  0  0
  157.0340  211.5610  138.2770 P   0  0  2  0  0  0  0  0  0  0  0  0
  162.5060  212.5130  137.8760 C   0  0  0  0  0  2  0  0  0  0  0  0
  162.2550  213.8840  137.8680 O   0  0  0  0  0  1  0  0  0  0  0  0
  1  2  1  0  0  0  0
  3 12  1  0  0  0  0
  4  8  1  0  0  0  0
  5 10  1  0  0  0  0
  6  4  2  0  0  0  0
  8 19  1  0  0  0  0
  9 16  1  1  0  0  0
  9 14  1  0  0  0  0
 10  3  2  0  0  0  0
 10  6  1  0  0  0  0
 11  2  1  6  0  0  0
 11  9  1  0  0  0  0
 12  8  2  0  0  0  0
 13 11  1  0  0  0  0
 13  5  1  0  0  0  0
 14  6  1  0  0  0  0
 14  7  2  0  0  0  0
 15  3  1  0  0  0  0
 16 18  1  0  0  0  0
 18 17  1  0  0  0  0
 19 20  1  0  0  0  0
 20 21  1  0  0  0  0
 21 23  1  0  0  0  0
 23 22  1  0  0  0  0
 24  1  1  0  0  0  0
 25 24  1  0  0  0  0
 26 32  1  0  0  0  0
 26 25  1  0  0  0  0
 27 30  1  0  0  0  0
 28 31  1  6  0  0  0
 28 34  1  0  0  0  0
 28 33  1  0  0  0  0
 29 36  1  0  0  0  0
 29 32  1  0  0  0  0
 30 26  1  0  0  0  0
 32 33  1  6  0  0  0
 34 36  1  0  0  0  0
 35 27  1  0  0  0  0
 35 31  1  0  0  0  0
 38 42  1  0  0  0  0
 38 43  1  0  0  0  0
 40 39  1  0  0  0  0
 42 28  1  0  0  0  0
 42 39  1  1  0  0  0
 43 41  2  6  0  0  0
 43 40  1  0  0  0  0
 43 37  1  0  0  0  0
 44 34  1  0  0  0  0
 45 44  1  0  0  0  0
M  END
>  <MODEL>
6

>  <REMARK>
 VINA RESULT:      -4.6      6.791     12.179
  Name = 
  13 active torsions:
  status: ('A' for Active; 'I' for Inactive)
    1  A    between atoms: C_1  and  N_36
    2  A    between atoms: N_2  and  C_40
    3  A    between atoms: C_4  and  O_29
    4  A    between atoms: C_4  and  C_30
    5  A    between atoms: O_5  and  C_26
    6  A    between atoms: O_5  and  C_32
    7  A    between atoms: C_8  and  O_29
    8  A    between atoms: C_8  and  C_40
    9  A    between atoms: C_10  and  C_37
   10  A    between atoms: N_13  and  C_23
   11  A    between atoms: N_13  and  N_28
   12  A    between atoms: N_28  and  C_45
   13  A    between atoms: C_34  and  C_45
                            x       y       z     vdW  Elec       q    Type
                         _______ _______ _______ _____ _____    ______ ____

>  <TORSDO>
F 13

$$$$
=
 OpenBabel11072414443D

 45 49  0  0  1  0  0  0  0  0999 V2000
  161.7060  205.8580  153.9590 O   0  0  0  0  0  0  0  0  0  0  0  0
  160.8920  204.9780  153.2390 C   0  0  0  0  0  2  0  0  0  0  0  0
  161.4330  207.4790  148.3190 C   0  0  0  0  0  0  0  0  0  0  0  0
  161.0860  204.9010  147.2960 C   0  0  0  0  0  3  0  0  0  0  0  0
  161.8190  206.6030  150.5750 N   0  0  0  0  0  2  0  0  0  0  0  0
  161.2790  205.0710  148.6750 C   0  0  0  0  0  0  0  0  0  0  0  0
  161.5510  202.7280  149.1400 N   0  0  0  0  0  2  0  0  0  0  0  0
  161.0760  206.0000  146.4320 C   0  0  0  0  0  0  0  0  0  0  0  0
  160.5510  204.0480  150.9180 C   0  0  1  0  0  3  0  0  0  0  0  0
  161.4900  206.3760  149.1920 C   0  0  0  0  0  0  0  0  0  0  0  0
  161.5730  204.5420  151.9460 C   0  0  1  0  0  3  0  0  0  0  0  0
  161.2370  207.2840  146.9500 C   0  0  0  0  0  3  0  0  0  0  0  0
  162.5120  205.6330  151.4200 C   0  0  0  0  0  2  0  0  0  0  0  0
  161.1590  203.8910  149.5520 C   0  0  0  0  0  0  0  0  0  0  0  0
  161.6360  208.8690  148.8180 C   0  0  0  0  0  1  0  0  0  0  0  0
  159.9610  202.8540  151.3480 O   0  0  0  0  0  0  0  0  0  0  0  0
  159.5440  201.2830  149.7530 O   0  0  0  0  0  1  0  0  0  0  0  0
  160.5320  201.8630  150.5470 C   0  0  0  0  0  2  0  0  0  0  0  0
  160.8780  205.8290  145.0250 N   0  0  0  0  0  2  0  0  0  0  0  0
  161.6910  204.9880  144.2500 N   0  0  0  0  0  2  0  0  0  0  0  0
  161.4430  203.6210  144.6860 C   0  0  0  0  0  2  0  0  0  0  0  0
  159.7200  201.8350  144.9030 C   0  0  0  0  0  1  0  0  0  0  0  0
  159.9750  203.2770  144.5070 C   0  0  0  0  0  2  0  0  0  0  0  0
  160.8960  206.9650  154.2160 C   0  0  0  0  0  2  0  0  0  0  0  0
  161.6110  208.2470  153.8140 C   0  0  0  0  0  2  0  0  0  0  0  0
  160.6790  209.3640  153.8210 N   0  0  0  0  0  0  0  0  0  0  0  0
  160.4700  211.3360  152.3310 C   0  0  0  0  0  2  0  0  0  0  0  0
  158.8940  211.7250  155.5800 C   0  0  1  0  0  0  0  0  0  0  0  0
  161.3160  210.3940  156.0510 C   0  0  0  0  0  2  0  0  0  0  0  0
  161.3810  210.5110  153.2410 C   0  0  0  0  0  2  0  0  0  0  0  0
  159.5900  212.4750  154.4090 C   0  0  0  0  0  2  0  0  0  0  0  0
  160.2840  209.6050  155.2210 C   0  0  1  0  0  3  0  0  0  0  0  0
  158.8770  210.2050  155.2950 C   0  0  0  0  0  2  0  0  0  0  0  0
  159.5630  211.9810  156.8940 N   0  0  0  0  0  0  0  0  0  0  0  0
  159.2390  211.9030  153.0370 C   0  0  0  0  0  2  0  0  0  0  0  0
  160.6440  211.0430  157.2600 C   0  0  0  0  0  2  0  0  0  0  0  0
  155.5670  213.8760  152.9630 O   0  0  0  0  0  0  0  0  0  0  0  0
  157.2520  213.4530  155.1220 O   0  0  0  0  0  0  0  0  0  0  0  0
  156.4420  211.1840  154.9950 C   0  0  0  0  0  2  0  0  0  0  0  0
  155.2110  211.8050  154.7710 O   0  0  0  0  0  0  0  0  0  0  0  0
  154.7900  214.3060  155.4430 O   0  0  0  0  0  1  0  0  0  0  0  0
  157.4190  212.1690  155.6620 C   0  0  1  0  0  3  0  0  0  0  0  0
  155.6590  213.4130  154.5870 P   0  0  2  0  0  0  0  0  0  0  0  0
  160.0740  213.3450  157.0330 C   0  0  0  0  0  2  0  0  0  0  0  0
  161.4490  213.3100  157.2590 O   0  0  0  0  0  1  0  0  0  0  0  0
  1 24  1  0  0  0  0
  2  1  1  0  0  0  0
  3 15  1  0  0  0  0
  3 10  1  0  0  0  0
  4  6  1  0  0  0  0
  5 13  1  0  0  0  0
  6 10  2  0  0  0  0
  6 14  1  0  0  0  0
  7 14  2  0  0  0  0
  8 12  1  0  0  0  0
  8  4  2  0  0  0  0
  9 16  1  1  0  0  0
  9 11  1  0  0  0  0
 10  5  1  0  0  0  0
 11  2  1  1  0  0  0
 12  3  2  0  0  0  0
 13 11  1  0  0  0  0
 14  9  1  0  0  0  0
 17 18  1  0  0  0  0
 18 16  1  0  0  0  0
 19  8  1  0  0  0  0
 20 21  1  0  0  0  0
 20 19  1  0  0  0  0
 23 21  1  0  0  0  0
 23 22  1  0  0  0  0
 25 26  1  0  0  0  0
 25 24  1  0  0  0  0
 26 32  1  0  0  0  0
 27 35  1  0  0  0  0
 27 30  1  0  0  0  0
 28 31  1  6  0  0  0
 28 42  1  0  0  0  0
 28 34  1  0  0  0  0
 29 36  1  0  0  0  0
 30 26  1  0  0  0  0
 32 33  1  6  0  0  0
 32 29  1  0  0  0  0
 33 28  1  0  0  0  0
 34 44  1  0  0  0  0
 34 36  1  0  0  0  0
 35 31  1  0  0  0  0
 38 42  1  0  0  0  0
 40 39  1  0  0  0  0
 42 39  1  6  0  0  0
 43 37  2  6  0  0  0
 43 40  1  0  0  0  0
 43 38  1  0  0  0  0
 43 41  1  0  0  0  0
 44 45  1  0  0  0  0
M  END
>  <MODEL>
7

>  <REMARK>
 VINA RESULT:      -4.3      2.262      3.817
  Name = 
  13 active torsions:
  status: ('A' for Active; 'I' for Inactive)
    1  A    between atoms: C_1  and  N_36
    2  A    between atoms: N_2  and  C_40
    3  A    between atoms: C_4  and  O_29
    4  A    between atoms: C_4  and  C_30
    5  A    between atoms: O_5  and  C_26
    6  A    between atoms: O_5  and  C_32
    7  A    between atoms: C_8  and  O_29
    8  A    between atoms: C_8  and  C_40
    9  A    between atoms: C_10  and  C_37
   10  A    between atoms: N_13  and  C_23
   11  A    between atoms: N_13  and  N_28
   12  A    between atoms: N_28  and  C_45
   13  A    between atoms: C_34  and  C_45
                            x       y       z     vdW  Elec       q    Type
                         _______ _______ _______ _____ _____    ______ ____

>  <TORSDO>
F 13

$$$$
=
 OpenBabel11072414443D

 45 49  0  0  1  0  0  0  0  0999 V2000
  161.2370  203.9010  152.7680 O   0  0  0  0  0  0  0  0  0  0  0  0
  160.4490  203.2560  151.8110 C   0  0  0  0  0  2  0  0  0  0  0  0
  161.4210  206.2590  147.2510 C   0  0  0  0  0  0  0  0  0  0  0  0
  161.2100  203.8010  145.9390 C   0  0  0  0  0  3  0  0  0  0  0  0
  161.6020  205.1540  149.4310 N   0  0  0  0  0  2  0  0  0  0  0  0
  161.2670  203.8270  147.3400 C   0  0  0  0  0  0  0  0  0  0  0  0
  161.5280  201.4480  147.5840 N   0  0  0  0  0  2  0  0  0  0  0  0
  161.2670  204.9840  145.1960 C   0  0  0  0  0  0  0  0  0  0  0  0
  160.3440  202.5720  149.3850 C   0  0  1  0  0  3  0  0  0  0  0  0
  161.4100  205.0710  148.0070 C   0  0  0  0  0  0  0  0  0  0  0  0
  161.2560  202.9600  150.5520 C   0  0  1  0  0  3  0  0  0  0  0  0
  161.3590  206.2070  145.8570 C   0  0  0  0  0  3  0  0  0  0  0  0
  162.2250  204.1030  150.2340 C   0  0  0  0  0  2  0  0  0  0  0  0
  161.0810  202.5600  148.0750 C   0  0  0  0  0  0  0  0  0  0  0  0
  161.5560  207.5900  147.9090 C   0  0  0  0  0  1  0  0  0  0  0  0
  159.7330  201.3370  149.6300 O   0  0  0  0  0  0  0  0  0  0  0  0
  157.7260  200.3380  149.2240 O   0  0  0  0  0  1  0  0  0  0  0  0
  158.3720  201.5600  149.4070 C   0  0  0  0  0  2  0  0  0  0  0  0
  161.2060  204.9600  143.7670 N   0  0  0  0  0  2  0  0  0  0  0  0
  161.2420  206.1320  142.9950 N   0  0  0  0  0  2  0  0  0  0  0  0
  162.1970  205.9140  141.9180 C   0  0  0  0  0  2  0  0  0  0  0  0
  162.1120  206.5760  139.5180 C   0  0  0  0  0  1  0  0  0  0  0  0
  162.1610  207.0810  140.9470 C   0  0  0  0  0  2  0  0  0  0  0  0
  160.8250  205.2350  152.7310 C   0  0  0  0  0  2  0  0  0  0  0  0
  160.7770  205.8120  154.1380 C   0  0  0  0  0  2  0  0  0  0  0  0
  160.4790  207.2360  154.0860 N   0  0  0  0  0  0  0  0  0  0  0  0
  160.9880  208.9590  152.3760 C   0  0  0  0  0  2  0  0  0  0  0  0
  160.2640  210.2790  155.6810 C   0  0  1  0  0  0  0  0  0  0  0  0
  161.8380  207.9950  156.0890 C   0  0  0  0  0  2  0  0  0  0  0  0
  161.5370  207.8670  153.2950 C   0  0  0  0  0  2  0  0  0  0  0  0
  161.0480  210.5240  154.3600 C   0  0  0  0  0  2  0  0  0  0  0  0
  160.4490  207.7340  155.4740 C   0  0  1  0  0  3  0  0  0  0  0  0
  159.5060  208.9340  155.6020 C   0  0  0  0  0  2  0  0  0  0  0  0
  161.1600  210.2800  156.8790 N   0  0  0  0  0  0  0  0  0  0  0  0
  160.2750  210.0910  153.1150 C   0  0  0  0  0  2  0  0  0  0  0  0
  161.7270  208.9700  157.2610 C   0  0  0  0  0  2  0  0  0  0  0  0
  155.5500  210.8340  155.5720 O   0  0  0  0  0  1  0  0  0  0  0  0
  158.1960  211.2520  154.8640 O   0  0  0  0  0  0  0  0  0  0  0  0
  158.5530  211.4080  157.2450 C   0  0  0  0  0  2  0  0  0  0  0  0
  157.3630  212.1390  157.2140 O   0  0  0  0  0  0  0  0  0  0  0  0
  156.4780  213.2330  154.9990 O   0  0  0  0  0  0  0  0  0  0  0  0
  159.1910  211.3750  155.8440 C   0  0  1  0  0  3  0  0  0  0  0  0
  156.8530  211.9110  155.6300 P   0  0  2  0  0  0  0  0  0  0  0  0
  162.2570  211.2440  156.7880 C   0  0  0  0  0  2  0  0  0  0  0  0
  163.4740  210.5870  156.9640 O   0  0  0  0  0  1  0  0  0  0  0  0
  2  1  1  0  0  0  0
  3 15  1  0  0  0  0
  3 10  1  0  0  0  0
  4  6  1  0  0  0  0
  5 13  1  0  0  0  0
  6 10  2  0  0  0  0
  6 14  1  0  0  0  0
  7 14  2  0  0  0  0
  8 12  1  0  0  0  0
  8  4  2  0  0  0  0
  9 16  1  1  0  0  0
  9 11  1  0  0  0  0
 10  5  1  0  0  0  0
 11  2  1  1  0  0  0
 12  3  2  0  0  0  0
 13 11  1  0  0  0  0
 14  9  1  0  0  0  0
 17 18  1  0  0  0  0
 18 16  1  0  0  0  0
 19  8  1  0  0  0  0
 20 19  1  0  0  0  0
 21 20  1  0  0  0  0
 22 23  1  0  0  0  0
 23 21  1  0  0  0  0
 24  1  1  0  0  0  0
 24 25  1  0  0  0  0
 26 25  1  0  0  0  0
 26 32  1  0  0  0  0
 27 35  1  0  0  0  0
 27 30  1  0  0  0  0
 28 31  1  6  0  0  0
 28 42  1  0  0  0  0
 28 34  1  0  0  0  0
 29 36  1  0  0  0  0
 30 26  1  0  0  0  0
 32 33  1  6  0  0  0
 32 29  1  0  0  0  0
 33 28  1  0  0  0  0
 34 36  1  0  0  0  0
 35 31  1  0  0  0  0
 37 43  1  0  0  0  0
 38 43  1  0  0  0  0
 38 42  1  0  0  0  0
 40 39  1  0  0  0  0
 42 39  1  1  0  0  0
 43 41  2  6  0  0  0
 43 40  1  0  0  0  0
 44 34  1  0  0  0  0
 44 45  1  0  0  0  0
M  END
>  <MODEL>
8

>  <REMARK>
 VINA RESULT:      -4.0      2.739      4.461
  Name = 
  13 active torsions:
  status: ('A' for Active; 'I' for Inactive)
    1  A    between atoms: C_1  and  N_36
    2  A    between atoms: N_2  and  C_40
    3  A    between atoms: C_4  and  O_29
    4  A    between atoms: C_4  and  C_30
    5  A    between atoms: O_5  and  C_26
    6  A    between atoms: O_5  and  C_32
    7  A    between atoms: C_8  and  O_29
    8  A    between atoms: C_8  and  C_40
    9  A    between atoms: C_10  and  C_37
   10  A    between atoms: N_13  and  C_23
   11  A    between atoms: N_13  and  N_28
   12  A    between atoms: N_28  and  C_45
   13  A    between atoms: C_34  and  C_45
                            x       y       z     vdW  Elec       q    Type
                         _______ _______ _______ _____ _____    ______ ____

>  <TORSDO>
F 13

$$$$
=
 OpenBabel11072414443D

 45 49  0  0  1  0  0  0  0  0999 V2000
  161.2940  205.0580  153.8440 O   0  0  0  0  0  0  0  0  0  0  0  0
  160.5550  204.4370  152.8320 C   0  0  0  0  0  2  0  0  0  0  0  0
  161.5800  207.1770  148.1210 C   0  0  0  0  0  0  0  0  0  0  0  0
  161.5800  204.6260  146.9780 C   0  0  0  0  0  3  0  0  0  0  0  0
  161.7150  206.2360  150.3800 N   0  0  0  0  0  2  0  0  0  0  0  0
  161.5650  204.7510  148.3750 C   0  0  0  0  0  0  0  0  0  0  0  0
  161.9520  202.4160  148.8000 N   0  0  0  0  0  2  0  0  0  0  0  0
  161.6050  205.7570  146.1560 C   0  0  0  0  0  0  0  0  0  0  0  0
  160.6140  203.5840  150.4590 C   0  0  1  0  0  3  0  0  0  0  0  0
  161.6000  206.0440  148.9580 C   0  0  0  0  0  0  0  0  0  0  0  0
  161.4420  204.1060  151.6360 C   0  0  1  0  0  3  0  0  0  0  0  0
  161.5910  207.0260  146.7320 C   0  0  0  0  0  3  0  0  0  0  0  0
  162.3560  205.2840  151.2840 C   0  0  0  0  0  2  0  0  0  0  0  0
  161.4160  203.5290  149.1880 C   0  0  0  0  0  0  0  0  0  0  0  0
  161.6020  208.5550  148.6880 C   0  0  0  0  0  1  0  0  0  0  0  0
  160.0650  202.3330  150.7620 O   0  0  0  0  0  0  0  0  0  0  0  0
  158.7970  201.3350  149.1540 O   0  0  0  0  0  1  0  0  0  0  0  0
  160.0990  201.6240  149.5600 C   0  0  0  0  0  2  0  0  0  0  0  0
  161.6190  205.6320  144.7310 N   0  0  0  0  0  2  0  0  0  0  0  0
  161.1000  204.5060  144.0720 N   0  0  0  0  0  2  0  0  0  0  0  0
  159.9920  204.0060  144.8720 C   0  0  0  0  0  2  0  0  0  0  0  0
  160.4270  201.6290  145.4770 C   0  0  0  0  0  1  0  0  0  0  0  0
  159.7070  202.5580  144.5170 C   0  0  0  0  0  2  0  0  0  0  0  0
  160.8030  206.3630  153.8960 C   0  0  0  0  0  2  0  0  0  0  0  0
  161.1200  206.9930  155.2440 C   0  0  0  0  0  2  0  0  0  0  0  0
  161.2040  208.4410  155.1140 N   0  0  0  0  0  0  0  0  0  0  0  0
  162.7050  210.1010  156.1830 C   0  0  0  0  0  2  0  0  0  0  0  0
  159.6260  211.4890  154.8450 C   0  0  1  0  0  0  0  0  0  0  0  0
  158.9210  209.0510  156.0370 C   0  0  0  0  0  2  0  0  0  0  0  0
  161.7110  208.9560  156.3870 C   0  0  0  0  0  2  0  0  0  0  0  0
  160.7230  211.6500  155.9380 C   0  0  0  0  0  2  0  0  0  0  0  0
  159.8490  208.9390  154.8120 C   0  0  1  0  0  3  0  0  0  0  0  0
  159.9140  210.2320  153.9930 C   0  0  0  0  0  2  0  0  0  0  0  0
  158.2530  211.3940  155.4310 N   0  0  0  0  0  0  0  0  0  0  0  0
  162.1230  211.3020  155.4370 C   0  0  0  0  0  2  0  0  0  0  0  0
  157.7840  210.0320  155.7560 C   0  0  0  0  0  2  0  0  0  0  0  0
  157.9890  212.8840  150.6130 O   0  0  0  0  0  0  0  0  0  0  0  0
  159.8630  212.2660  152.5580 O   0  0  0  0  0  0  0  0  0  0  0  0
  158.4700  213.6260  153.9830 C   0  0  0  0  0  2  0  0  0  0  0  0
  158.4030  214.4530  152.8590 O   0  0  0  0  0  0  0  0  0  0  0  0
  160.1830  214.3060  150.9370 O   0  0  0  0  0  1  0  0  0  0  0  0
  159.6900  212.6930  153.8830 C   0  0  1  0  0  3  0  0  0  0  0  0
  159.1400  213.5070  151.6840 P   0  0  2  0  0  0  0  0  0  0  0  0
  158.0620  212.2370  156.6120 C   0  0  0  0  0  2  0  0  0  0  0  0
  156.7520  212.1110  157.0720 O   0  0  0  0  0  1  0  0  0  0  0  0
  1 24  1  0  0  0  0
  2  1  1  0  0  0  0
  3 15  1  0  0  0  0
  3 10  1  0  0  0  0
  4  6  1  0  0  0  0
  5 13  1  0  0  0  0
  6 10  2  0  0  0  0
  6 14  1  0  0  0  0
  7 14  2  0  0  0  0
  8 12  1  0  0  0  0
  8  4  2  0  0  0  0
  9 16  1  1  0  0  0
  9 11  1  0  0  0  0
 10  5  1  0  0  0  0
 11  2  1  1  0  0  0
 12  3  2  0  0  0  0
 13 11  1  0  0  0  0
 14  9  1  0  0  0  0
 17 18  1  0  0  0  0
 18 16  1  0  0  0  0
 19  8  1  0  0  0  0
 20 19  1  0  0  0  0
 20 21  1  0  0  0  0
 23 21  1  0  0  0  0
 23 22  1  0  0  0  0
 24 25  1  0  0  0  0
 26 25  1  0  0  0  0
 26 30  1  0  0  0  0
 27 30  1  0  0  0  0
 28 33  1  6  0  0  0
 28 34  1  0  0  0  0
 28 31  1  0  0  0  0
 32 33  1  1  0  0  0
 32 26  1  0  0  0  0
 32 29  1  0  0  0  0
 34 36  1  0  0  0  0
 34 44  1  0  0  0  0
 35 31  1  0  0  0  0
 35 27  1  0  0  0  0
 36 29  1  0  0  0  0
 38 42  1  0  0  0  0
 40 39  1  0  0  0  0
 41 43  1  0  0  0  0
 42 39  1  6  0  0  0
 42 28  1  0  0  0  0
 43 37  2  6  0  0  0
 43 38  1  0  0  0  0
 43 40  1  0  0  0  0
 44 45  1  0  0  0  0
M  END
>  <MODEL>
9

>  <REMARK>
 VINA RESULT:      -3.7      1.807      3.038
  Name = 
  13 active torsions:
  status: ('A' for Active; 'I' for Inactive)
    1  A    between atoms: C_1  and  N_36
    2  A    between atoms: N_2  and  C_40
    3  A    between atoms: C_4  and  O_29
    4  A    between atoms: C_4  and  C_30
    5  A    between atoms: O_5  and  C_26
    6  A    between atoms: O_5  and  C_32
    7  A    between atoms: C_8  and  O_29
    8  A    between atoms: C_8  and  C_40
    9  A    between atoms: C_10  and  C_37
   10  A    between atoms: N_13  and  C_23
   11  A    between atoms: N_13  and  N_28
   12  A    between atoms: N_28  and  C_45
   13  A    between atoms: C_34  and  C_45
                            x       y       z     vdW  Elec       q    Type
                         _______ _______ _______ _____ _____    ______ ____

>  <TORSDO>
F 13

$$$$
