=
 OpenBabel11072413243D

 41 48  0  0  1  0  0  0  0  0999 V2000
  159.2090  214.1320  150.7010 N   0  0  0  0  0  2  0  0  0  0  0  0
  160.6150  210.0940  154.2920 C   0  0  0  0  0  0  0  0  0  0  0  0
  158.4620  212.0940  151.5030 C   0  0  0  0  0  2  0  0  0  0  0  0
  160.4670  211.5410  154.6400 C   0  0  2  0  0  3  0  0  0  0  0  0
  159.4140  210.5340  156.8770 C   0  0  0  0  0  2  0  0  0  0  0  0
  158.1100  213.2500  150.6840 N   0  0  0  0  0  2  0  0  0  0  0  0
  158.7750  212.7010  155.8570 C   0  0  0  0  0  0  0  0  0  0  0  0
  161.3090  208.2100  151.3950 N   0  0  0  0  0  0  0  0  0  0  0  0
  157.5600  213.7450  154.0530 C   0  0  0  0  0  3  0  0  0  0  0  0
  160.9760  210.3080  151.8370 C   0  0  0  0  0  0  0  0  0  0  0  0
  159.7280  212.4290  152.2540 C   0  0  0  0  0  0  0  0  0  0  0  0
  156.7250  214.3650  154.9950 C   0  0  0  0  0  3  0  0  0  0  0  0
  158.5860  212.9120  154.5140 C   0  0  0  0  0  0  0  0  0  0  0  0
  160.7270  207.7880  155.0100 C   0  0  0  0  0  0  0  0  0  0  0  0
  161.0670  208.3140  152.7160 C   0  0  0  0  0  0  0  0  0  0  0  0
  156.9260  214.1530  156.3700 C   0  0  0  0  0  3  0  0  0  0  0  0
  159.9180  211.7820  156.0980 C   0  0  2  0  0  3  0  0  0  0  0  0
  157.9630  213.3150  156.8120 C   0  0  0  0  0  3  0  0  0  0  0  0
  160.5910  209.1180  155.2710 C   0  0  0  0  0  0  0  0  0  0  0  0
  159.9310  213.8830  151.9360 C   0  0  0  0  0  2  0  0  0  0  0  0
  160.0350  208.1180  157.2590 N   0  0  0  0  0  0  0  0  0  0  0  0
  160.8650  209.6380  153.0130 C   0  0  0  0  0  0  0  0  0  0  0  0
  161.2610  209.4270  150.8460 N   0  0  0  0  0  0  0  0  0  0  0  0
  159.5500  212.2320  153.7130 N   0  0  0  0  0  0  0  0  0  0  0  0
  160.8160  211.6850  151.6780 O   0  0  0  0  0  0  0  0  0  0  0  0
  160.9810  207.3120  153.7040 C   0  0  0  0  0  3  0  0  0  0  0  0
  160.2110  209.3470  156.5880 N   0  0  0  0  0  0  0  0  0  0  0  0
  160.4240  207.0690  156.2790 C   0  0  0  0  0  3  0  0  0  0  0  0
  161.5310  206.9750  150.6550 C   0  0  2  0  0  3  0  0  0  0  0  0
  159.8270  205.8390  149.3820 O   0  0  0  0  0  1  0  0  0  0  0  0
  160.6780  206.9480  149.3850 C   0  0  2  0  0  3  0  0  0  0  0  0
  162.7170  207.5770  148.1900 C   0  0  0  0  0  2  0  0  0  0  0  0
  161.5370  206.9540  148.1560 C   0  0  0  0  0  0  0  0  0  0  0  0
  161.1800  206.1010  146.9730 C   0  0  0  0  0  2  0  0  0  0  0  0
  162.8680  205.7590  145.3040 O   0  0  0  0  0  1  0  0  0  0  0  0
  162.3690  205.2680  146.5140 C   0  0  2  0  0  3  0  0  0  0  0  0
  160.9100  203.6250  145.3260 C   0  0  0  0  0  1  0  0  0  0  0  0
  161.4820  203.2170  147.7050 C   0  0  0  0  0  1  0  0  0  0  0  0
  161.9790  203.7950  146.3890 C   0  0  0  0  0  3  0  0  0  0  0  0
  161.2530  205.8740  151.4720 O   0  0  0  0  0  0  0  0  0  0  0  0
  162.2250  204.9280  151.1410 C   0  0  0  0  0  1  0  0  0  0  0  0
  1 20  1  0  0  0  0
  2 19  1  0  0  0  0
  3 11  1  0  0  0  0
  4  2  1  6  0  0  0
  4 17  1  0  0  0  0
  6  1  1  0  0  0  0
  6  3  1  0  0  0  0
  7 17  1  0  0  0  0
  7 18  1  0  0  0  0
  8 15  1  0  0  0  0
  9 13  1  0  0  0  0
  9 12  2  0  0  0  0
 10 22  1  0  0  0  0
 11 24  1  0  0  0  0
 12 16  1  0  0  0  0
 13  7  2  0  0  0  0
 14 19  2  0  0  0  0
 14 28  1  0  0  0  0
 15 22  1  0  0  0  0
 15 26  2  0  0  0  0
 16 18  2  0  0  0  0
 17  5  1  6  0  0  0
 19 27  1  0  0  0  0
 20 11  1  0  0  0  0
 22  2  2  0  0  0  0
 23  8  1  0  0  0  0
 23 10  2  0  0  0  0
 24 13  1  0  0  0  0
 24  4  1  0  0  0  0
 25 10  1  0  0  0  0
 25 11  1  0  0  0  0
 26 14  1  0  0  0  0
 27  5  1  0  0  0  0
 27 21  1  0  0  0  0
 28 21  2  0  0  0  0
 29  8  1  0  0  0  0
 29 40  1  1  0  0  0
 31 30  1  1  0  0  0
 31 29  1  0  0  0  0
 33 32  2  0  0  0  0
 33 31  1  0  0  0  0
 34 33  1  0  0  0  0
 36 35  1  6  0  0  0
 36 34  1  0  0  0  0
 37 39  1  0  0  0  0
 39 36  1  0  0  0  0
 39 38  1  0  0  0  0
 41 40  1  0  0  0  0
M  END
>  <MODEL>
1

>  <REMARK>
 VINA RESULT:      -7.7      0.000      0.000
  Name = 
  7 active torsions:
  status: ('A' for Active; 'I' for Inactive)
    1  A    between atoms: C_7  and  C_20
    2  A    between atoms: C_7  and  C_34
    3  A    between atoms: O_12  and  C_18
    4  A    between atoms: N_13  and  C_18
    5  A    between atoms: C_18  and  C_39
    6  A    between atoms: C_20  and  C_39
    7  A    between atoms: C_34  and  C_40
                            x       y       z     vdW  Elec       q    Type
                         _______ _______ _______ _____ _____    ______ ____

>  <TORSDO>
F 7

$$$$
=
 OpenBabel11072413243D

 41 48  0  0  1  0  0  0  0  0999 V2000
  161.3830  202.7300  151.7470 N   0  0  0  0  0  2  0  0  0  0  0  0
  161.8620  208.2830  151.4050 C   0  0  0  0  0  0  0  0  0  0  0  0
  160.0930  204.6410  151.5440 C   0  0  0  0  0  2  0  0  0  0  0  0
  162.5390  207.3030  150.4990 C   0  0  2  0  0  3  0  0  0  0  0  0
  161.9750  209.1510  148.6570 C   0  0  0  0  0  2  0  0  0  0  0  0
  160.0690  203.1810  151.5130 N   0  0  0  0  0  2  0  0  0  0  0  0
  162.1220  206.7140  148.2260 C   0  0  0  0  0  0  0  0  0  0  0  0
  160.5530  208.2690  154.6780 N   0  0  0  0  0  0  0  0  0  0  0  0
  161.0050  204.5950  148.5090 C   0  0  0  0  0  3  0  0  0  0  0  0
  161.4170  206.7890  153.3480 C   0  0  0  0  0  0  0  0  0  0  0  0
  161.5380  205.0780  151.5350 C   0  0  0  0  0  0  0  0  0  0  0  0
  160.9370  204.4610  147.1140 C   0  0  0  0  0  3  0  0  0  0  0  0
  161.6070  205.7390  149.0440 C   0  0  0  0  0  0  0  0  0  0  0  0
  161.1170  210.5420  151.8310 C   0  0  0  0  0  0  0  0  0  0  0  0
  160.8570  208.8900  153.5210 C   0  0  0  0  0  0  0  0  0  0  0  0
  161.4720  205.4580  146.2790 C   0  0  0  0  0  3  0  0  0  0  0  0
  162.7040  207.8270  149.0210 C   0  0  2  0  0  3  0  0  0  0  0  0
  162.0740  206.5980  146.8360 C   0  0  0  0  0  3  0  0  0  0  0  0
  161.7200  209.6100  151.0430 C   0  0  0  0  0  0  0  0  0  0  0  0
  162.2770  203.7890  151.3120 C   0  0  0  0  0  2  0  0  0  0  0  0
  161.4780  211.4160  149.6510 N   0  0  0  0  0  0  0  0  0  0  0  0
  161.4140  207.9670  152.6720 C   0  0  0  0  0  0  0  0  0  0  0  0
  160.8970  206.9820  154.5850 N   0  0  0  0  0  0  0  0  0  0  0  0
  161.8000  206.0290  150.4260 N   0  0  0  0  0  0  0  0  0  0  0  0
  161.8780  205.5730  152.8410 O   0  0  0  0  0  0  0  0  0  0  0  0
  160.6540  210.2290  153.1290 C   0  0  0  0  0  3  0  0  0  0  0  0
  161.9670  210.0990  149.7660 N   0  0  0  0  0  0  0  0  0  0  0  0
  160.9670  211.7720  151.0030 C   0  0  0  0  0  3  0  0  0  0  0  0
  159.9020  208.8730  155.8330 C   0  0  2  0  0  3  0  0  0  0  0  0
  160.8980  210.9600  156.5180 O   0  0  0  0  0  1  0  0  0  0  0  0
  159.9030  210.3990  155.7120 C   0  0  2  0  0  3  0  0  0  0  0  0
  158.4190  211.6490  157.2010 C   0  0  0  0  0  2  0  0  0  0  0  0
  158.5600  210.9700  156.0610 C   0  0  0  0  0  0  0  0  0  0  0  0
  157.4460  210.9640  155.0550 C   0  0  0  0  0  2  0  0  0  0  0  0
  155.6380  212.4340  154.4830 O   0  0  0  0  0  1  0  0  0  0  0  0
  157.0200  212.3800  154.6950 C   0  0  2  0  0  3  0  0  0  0  0  0
  159.0140  213.6510  153.8930 C   0  0  0  0  0  1  0  0  0  0  0  0
  156.9200  213.7490  152.5670 C   0  0  0  0  0  1  0  0  0  0  0  0
  157.7820  212.8760  153.4670 C   0  0  0  0  0  3  0  0  0  0  0  0
  160.5390  208.4600  157.0080 O   0  0  0  0  0  0  0  0  0  0  0  0
  160.0310  207.1840  157.2610 C   0  0  0  0  0  1  0  0  0  0  0  0
  2 22  1  0  0  0  0
  4  2  1  1  0  0  0
  5 27  1  0  0  0  0
  6  3  1  0  0  0  0
  6  1  1  0  0  0  0
  7 17  1  0  0  0  0
  7 13  1  0  0  0  0
  8 29  1  0  0  0  0
  9 13  2  0  0  0  0
 10 23  2  0  0  0  0
 11  3  1  0  0  0  0
 11 25  1  0  0  0  0
 12  9  1  0  0  0  0
 13 24  1  0  0  0  0
 14 26  2  0  0  0  0
 15  8  1  0  0  0  0
 16 18  1  0  0  0  0
 16 12  2  0  0  0  0
 17  5  1  1  0  0  0
 17  4  1  0  0  0  0
 18  7  2  0  0  0  0
 19  2  2  0  0  0  0
 19 14  1  0  0  0  0
 20 11  1  0  0  0  0
 20  1  1  0  0  0  0
 21 27  1  0  0  0  0
 21 28  2  0  0  0  0
 22 10  1  0  0  0  0
 22 15  2  0  0  0  0
 23  8  1  0  0  0  0
 24  4  1  0  0  0  0
 24 11  1  0  0  0  0
 25 10  1  0  0  0  0
 26 15  1  0  0  0  0
 27 19  1  0  0  0  0
 28 14  1  0  0  0  0
 29 40  1  1  0  0  0
 31 29  1  0  0  0  0
 31 33  1  0  0  0  0
 31 30  1  1  0  0  0
 33 32  2  0  0  0  0
 34 33  1  0  0  0  0
 36 35  1  6  0  0  0
 36 34  1  0  0  0  0
 38 39  1  0  0  0  0
 39 37  1  0  0  0  0
 39 36  1  0  0  0  0
 40 41  1  0  0  0  0
M  END
>  <MODEL>
2

>  <REMARK>
 VINA RESULT:      -7.2      2.393      8.911
  Name = 
  7 active torsions:
  status: ('A' for Active; 'I' for Inactive)
    1  A    between atoms: C_7  and  C_20
    2  A    between atoms: C_7  and  C_34
    3  A    between atoms: O_12  and  C_18
    4  A    between atoms: N_13  and  C_18
    5  A    between atoms: C_18  and  C_39
    6  A    between atoms: C_20  and  C_39
    7  A    between atoms: C_34  and  C_40
                            x       y       z     vdW  Elec       q    Type
                         _______ _______ _______ _____ _____    ______ ____

>  <TORSDO>
F 7

$$$$
=
 OpenBabel11072413243D

 41 48  0  0  1  0  0  0  0  0999 V2000
  161.1100  205.2190  144.7440 N   0  0  0  0  0  2  0  0  0  0  0  0
  160.9140  206.6260  150.1450 C   0  0  0  0  0  0  0  0  0  0  0  0
  162.4980  205.6640  146.5420 C   0  0  0  0  0  2  0  0  0  0  0  0
  160.2340  205.4390  149.5390 C   0  0  2  0  0  3  0  0  0  0  0  0
  160.9710  204.2880  151.8320 C   0  0  0  0  0  2  0  0  0  0  0  0
  162.4540  205.1770  145.1660 N   0  0  0  0  0  2  0  0  0  0  0  0
  160.7270  203.1090  149.6650 C   0  0  0  0  0  0  0  0  0  0  0  0
  162.0690  209.7650  149.0320 N   0  0  0  0  0  0  0  0  0  0  0  0
  161.7270  202.7440  147.5000 C   0  0  0  0  0  3  0  0  0  0  0  0
  161.1970  208.0130  148.0950 C   0  0  0  0  0  0  0  0  0  0  0  0
  161.0780  205.7510  147.0460 C   0  0  0  0  0  0  0  0  0  0  0  0
  161.8530  201.3800  147.8050 C   0  0  0  0  0  3  0  0  0  0  0  0
  161.1560  203.5940  148.4550 C   0  0  0  0  0  0  0  0  0  0  0  0
  161.7460  207.7620  152.1100 C   0  0  0  0  0  0  0  0  0  0  0  0
  161.8490  208.8530  150.0000 C   0  0  0  0  0  0  0  0  0  0  0  0
  161.4050  200.8860  149.0430 C   0  0  0  0  0  3  0  0  0  0  0  0
  160.1630  204.1960  150.5070 C   0  0  2  0  0  3  0  0  0  0  0  0
  160.8340  201.7550  149.9860 C   0  0  0  0  0  3  0  0  0  0  0  0
  161.1370  206.7030  151.5070 C   0  0  0  0  0  0  0  0  0  0  0  0
  160.2900  205.1130  145.9380 C   0  0  0  0  0  2  0  0  0  0  0  0
  161.5300  205.9570  153.6400 N   0  0  0  0  0  0  0  0  0  0  0  0
  161.2880  207.7420  149.4230 C   0  0  0  0  0  0  0  0  0  0  0  0
  161.6680  209.2630  147.8610 N   0  0  0  0  0  0  0  0  0  0  0  0
  160.9130  204.9910  148.3090 N   0  0  0  0  0  0  0  0  0  0  0  0
  160.7020  207.1360  147.1280 O   0  0  0  0  0  0  0  0  0  0  0  0
  162.1330  208.9080  151.3790 C   0  0  0  0  0  3  0  0  0  0  0  0
  160.9720  205.6380  152.3840 N   0  0  0  0  0  0  0  0  0  0  0  0
  161.9930  207.3660  153.5240 C   0  0  0  0  0  3  0  0  0  0  0  0
  162.6940  211.0690  149.2050 C   0  0  2  0  0  3  0  0  0  0  0  0
  160.6770  211.3830  150.4890 O   0  0  0  0  0  1  0  0  0  0  0  0
  161.7070  212.0590  149.8290 C   0  0  2  0  0  3  0  0  0  0  0  0
  161.5800  214.2490  148.7480 C   0  0  0  0  0  2  0  0  0  0  0  0
  161.1460  212.9890  148.7940 C   0  0  0  0  0  0  0  0  0  0  0  0
  160.2700  212.4630  147.6930 C   0  0  0  0  0  2  0  0  0  0  0  0
  158.1110  213.1620  148.4690 O   0  0  0  0  0  1  0  0  0  0  0  0
  159.0650  213.3660  147.4680 C   0  0  2  0  0  3  0  0  0  0  0  0
  157.1350  212.4090  146.2040 C   0  0  0  0  0  1  0  0  0  0  0  0
  159.3930  212.3290  145.1810 C   0  0  0  0  0  1  0  0  0  0  0  0
  158.4650  213.1280  146.0820 C   0  0  0  0  0  3  0  0  0  0  0  0
  163.1670  211.5380  147.9750 O   0  0  0  0  0  0  0  0  0  0  0  0
  164.3870  212.1510  148.2700 C   0  0  0  0  0  1  0  0  0  0  0  0
  1  6  1  0  0  0  0
  1 20  1  0  0  0  0
  2 19  1  0  0  0  0
  3 11  1  0  0  0  0
  4  2  1  1  0  0  0
  4 17  1  0  0  0  0
  5 27  1  0  0  0  0
  6  3  1  0  0  0  0
  7 18  1  0  0  0  0
  7 17  1  0  0  0  0
  8 29  1  0  0  0  0
  8 15  1  0  0  0  0
  9 12  2  0  0  0  0
  9 13  1  0  0  0  0
 10 22  1  0  0  0  0
 11 25  1  0  0  0  0
 11 24  1  0  0  0  0
 12 16  1  0  0  0  0
 13  7  2  0  0  0  0
 14 28  1  0  0  0  0
 15 26  2  0  0  0  0
 16 18  2  0  0  0  0
 17  5  1  1  0  0  0
 19 14  2  0  0  0  0
 19 27  1  0  0  0  0
 20 11  1  0  0  0  0
 22 15  1  0  0  0  0
 22  2  2  0  0  0  0
 23 10  2  0  0  0  0
 23  8  1  0  0  0  0
 24 13  1  0  0  0  0
 24  4  1  0  0  0  0
 25 10  1  0  0  0  0
 26 14  1  0  0  0  0
 27 21  1  0  0  0  0
 28 21  2  0  0  0  0
 29 40  1  6  0  0  0
 29 31  1  0  0  0  0
 31 30  1  6  0  0  0
 32 33  2  0  0  0  0
 33 31  1  0  0  0  0
 34 33  1  0  0  0  0
 36 34  1  0  0  0  0
 36 35  1  1  0  0  0
 38 39  1  0  0  0  0
 39 37  1  0  0  0  0
 39 36  1  0  0  0  0
 40 41  1  0  0  0  0
M  END
>  <MODEL>
3

>  <REMARK>
 VINA RESULT:      -6.5      4.017      8.464
  Name = 
  7 active torsions:
  status: ('A' for Active; 'I' for Inactive)
    1  A    between atoms: C_7  and  C_20
    2  A    between atoms: C_7  and  C_34
    3  A    between atoms: O_12  and  C_18
    4  A    between atoms: N_13  and  C_18
    5  A    between atoms: C_18  and  C_39
    6  A    between atoms: C_20  and  C_39
    7  A    between atoms: C_34  and  C_40
                            x       y       z     vdW  Elec       q    Type
                         _______ _______ _______ _____ _____    ______ ____

>  <TORSDO>
F 7

$$$$
=
 OpenBabel11072413243D

 41 48  0  0  1  0  0  0  0  0999 V2000
  161.1830  201.9100  150.8630 N   0  0  0  0  0  2  0  0  0  0  0  0
  162.1390  207.4060  150.6160 C   0  0  0  0  0  0  0  0  0  0  0  0
  160.0610  203.9310  150.7600 C   0  0  0  0  0  2  0  0  0  0  0  0
  162.6850  206.3940  149.6600 C   0  0  2  0  0  3  0  0  0  0  0  0
  162.2060  208.3300  147.8850 C   0  0  0  0  0  2  0  0  0  0  0  0
  159.9060  202.4810  150.7000 N   0  0  0  0  0  2  0  0  0  0  0  0
  162.1170  205.9010  147.3960 C   0  0  0  0  0  0  0  0  0  0  0  0
  160.9790  207.4260  153.9450 N   0  0  0  0  0  0  0  0  0  0  0  0
  160.8300  203.8820  147.6860 C   0  0  0  0  0  3  0  0  0  0  0  0
  161.6490  205.9090  152.5460 C   0  0  0  0  0  0  0  0  0  0  0  0
  161.5370  204.2400  150.6930 C   0  0  0  0  0  0  0  0  0  0  0  0
  160.6890  203.7900  146.2930 C   0  0  0  0  0  3  0  0  0  0  0  0
  161.5540  204.9550  148.2170 C   0  0  0  0  0  0  0  0  0  0  0  0
  161.6170  209.7110  151.1240 C   0  0  0  0  0  0  0  0  0  0  0  0
  161.2850  208.0460  152.7890 C   0  0  0  0  0  0  0  0  0  0  0  0
  161.2730  204.7560  145.4560 C   0  0  0  0  0  3  0  0  0  0  0  0
  162.8300  206.9380  148.1870 C   0  0  2  0  0  3  0  0  0  0  0  0
  161.9980  205.8250  146.0080 C   0  0  0  0  0  3  0  0  0  0  0  0
  162.0990  208.7490  150.2900 C   0  0  0  0  0  0  0  0  0  0  0  0
  162.1470  202.8970  150.4090 C   0  0  0  0  0  2  0  0  0  0  0  0
  161.9570  210.6050  148.9480 N   0  0  0  0  0  0  0  0  0  0  0  0
  161.7210  207.0990  151.8960 C   0  0  0  0  0  0  0  0  0  0  0  0
  161.2030  206.1160  153.8100 N   0  0  0  0  0  0  0  0  0  0  0  0
  161.8330  205.1920  149.5940 N   0  0  0  0  0  0  0  0  0  0  0  0
  161.9770  204.6700  151.9920 O   0  0  0  0  0  0  0  0  0  0  0  0
  161.1860  209.4070  152.4350 C   0  0  0  0  0  3  0  0  0  0  0  0
  162.3320  209.2460  149.0130 N   0  0  0  0  0  0  0  0  0  0  0  0
  161.5400  210.9690  150.3300 C   0  0  0  0  0  3  0  0  0  0  0  0
  160.4360  208.0550  155.1410 C   0  0  2  0  0  3  0  0  0  0  0  0
  162.3260  208.6960  156.4950 O   0  0  0  0  0  1  0  0  0  0  0  0
  161.3540  209.1840  155.6170 C   0  0  2  0  0  3  0  0  0  0  0  0
  161.1880  211.1330  157.0850 C   0  0  0  0  0  2  0  0  0  0  0  0
  160.5660  210.2850  156.2650 C   0  0  0  0  0  0  0  0  0  0  0  0
  159.1530  210.5610  155.8400 C   0  0  0  0  0  2  0  0  0  0  0  0
  159.8320  212.5700  154.7200 O   0  0  0  0  0  1  0  0  0  0  0  0
  159.1120  211.3820  154.5580 C   0  0  2  0  0  3  0  0  0  0  0  0
  157.4410  213.1620  154.0330 C   0  0  0  0  0  1  0  0  0  0  0  0
  156.6630  211.0730  155.1200 C   0  0  0  0  0  1  0  0  0  0  0  0
  157.6680  211.6670  154.1450 C   0  0  0  0  0  3  0  0  0  0  0  0
  160.2550  207.0960  156.1440 O   0  0  0  0  0  0  0  0  0  0  0  0
  158.8810  206.8470  156.1570 C   0  0  0  0  0  1  0  0  0  0  0  0
  2 22  1  0  0  0  0
  4  2  1  1  0  0  0
  5 27  1  0  0  0  0
  6  3  1  0  0  0  0
  6  1  1  0  0  0  0
  7 17  1  0  0  0  0
  7 13  1  0  0  0  0
  8 29  1  0  0  0  0
  9 13  2  0  0  0  0
 10 23  2  0  0  0  0
 11  3  1  0  0  0  0
 11 25  1  0  0  0  0
 12  9  1  0  0  0  0
 13 24  1  0  0  0  0
 14 26  2  0  0  0  0
 15  8  1  0  0  0  0
 16 18  1  0  0  0  0
 16 12  2  0  0  0  0
 17  5  1  1  0  0  0
 17  4  1  0  0  0  0
 18  7  2  0  0  0  0
 19  2  2  0  0  0  0
 19 14  1  0  0  0  0
 20 11  1  0  0  0  0
 20  1  1  0  0  0  0
 21 27  1  0  0  0  0
 21 28  2  0  0  0  0
 22 10  1  0  0  0  0
 22 15  2  0  0  0  0
 23  8  1  0  0  0  0
 24  4  1  0  0  0  0
 24 11  1  0  0  0  0
 25 10  1  0  0  0  0
 26 15  1  0  0  0  0
 27 19  1  0  0  0  0
 28 14  1  0  0  0  0
 29 31  1  0  0  0  0
 29 40  1  1  0  0  0
 31 33  1  0  0  0  0
 31 30  1  1  0  0  0
 33 32  2  0  0  0  0
 34 33  1  0  0  0  0
 36 35  1  1  0  0  0
 36 34  1  0  0  0  0
 37 39  1  0  0  0  0
 39 36  1  0  0  0  0
 39 38  1  0  0  0  0
 40 41  1  0  0  0  0
M  END
>  <MODEL>
4

>  <REMARK>
 VINA RESULT:      -6.0      2.507      9.145
  Name = 
  7 active torsions:
  status: ('A' for Active; 'I' for Inactive)
    1  A    between atoms: C_7  and  C_20
    2  A    between atoms: C_7  and  C_34
    3  A    between atoms: O_12  and  C_18
    4  A    between atoms: N_13  and  C_18
    5  A    between atoms: C_18  and  C_39
    6  A    between atoms: C_20  and  C_39
    7  A    between atoms: C_34  and  C_40
                            x       y       z     vdW  Elec       q    Type
                         _______ _______ _______ _____ _____    ______ ____

>  <TORSDO>
F 7

$$$$
=
 OpenBabel11072413243D

 41 48  0  0  1  0  0  0  0  0999 V2000
  162.4050  211.4840  148.4300 N   0  0  0  0  0  2  0  0  0  0  0  0
  161.3440  208.6660  153.1330 C   0  0  0  0  0  0  0  0  0  0  0  0
  160.8080  210.1070  149.3850 C   0  0  0  0  0  2  0  0  0  0  0  0
  161.6380  210.1310  153.0550 C   0  0  2  0  0  3  0  0  0  0  0  0
  159.7760  210.2490  154.9640 C   0  0  0  0  0  2  0  0  0  0  0  0
  161.1060  210.9700  148.2450 N   0  0  0  0  0  2  0  0  0  0  0  0
  160.2240  212.0350  153.3040 C   0  0  0  0  0  0  0  0  0  0  0  0
  162.0190  205.8070  151.1850 N   0  0  0  0  0  0  0  0  0  0  0  0
  159.9490  212.6940  151.0000 C   0  0  0  0  0  3  0  0  0  0  0  0
  162.3560  207.9400  150.9750 C   0  0  0  0  0  0  0  0  0  0  0  0
  161.8820  210.3270  150.4230 C   0  0  0  0  0  0  0  0  0  0  0  0
  159.1830  213.7910  151.4210 C   0  0  0  0  0  3  0  0  0  0  0  0
  160.4620  211.8240  151.9680 C   0  0  0  0  0  0  0  0  0  0  0  0
  160.4460  206.7930  154.3690 C   0  0  0  0  0  0  0  0  0  0  0  0
  161.5090  206.4080  152.2780 C   0  0  0  0  0  0  0  0  0  0  0  0
  158.9470  214.0080  152.7900 C   0  0  0  0  0  3  0  0  0  0  0  0
  160.8670  210.9830  154.1340 C   0  0  2  0  0  3  0  0  0  0  0  0
  159.4730  213.1250  153.7460 C   0  0  0  0  0  3  0  0  0  0  0  0
  160.7310  208.1190  154.2450 C   0  0  0  0  0  0  0  0  0  0  0  0
  162.6600  211.4820  149.8600 C   0  0  0  0  0  2  0  0  0  0  0  0
  159.3800  208.0300  156.0970 N   0  0  0  0  0  0  0  0  0  0  0  0
  161.7240  207.7580  152.1640 C   0  0  0  0  0  0  0  0  0  0  0  0
  162.5450  206.7360  150.3810 N   0  0  0  0  0  0  0  0  0  0  0  0
  161.2890  210.6870  151.7340 N   0  0  0  0  0  0  0  0  0  0  0  0
  162.7400  209.1740  150.4500 O   0  0  0  0  0  0  0  0  0  0  0  0
  160.8300  205.8560  153.3830 C   0  0  0  0  0  3  0  0  0  0  0  0
  160.1430  208.8680  155.2570 N   0  0  0  0  0  0  0  0  0  0  0  0
  159.6020  206.6490  155.5880 C   0  0  0  0  0  3  0  0  0  0  0  0
  161.9640  204.3830  150.8820 C   0  0  2  0  0  3  0  0  0  0  0  0
  160.0440  202.9960  150.4280 O   0  0  0  0  0  1  0  0  0  0  0  0
  160.7900  204.0770  149.9500 C   0  0  2  0  0  3  0  0  0  0  0  0
  161.1600  202.5770  148.0540 C   0  0  0  0  0  2  0  0  0  0  0  0
  161.2650  203.8100  148.5520 C   0  0  0  0  0  0  0  0  0  0  0  0
  161.6560  204.9460  147.6500 C   0  0  0  0  0  2  0  0  0  0  0  0
  163.4880  204.7290  146.1170 O   0  0  0  0  0  1  0  0  0  0  0  0
  162.1320  204.4380  146.2970 C   0  0  2  0  0  3  0  0  0  0  0  0
  160.4620  206.1940  145.6920 C   0  0  0  0  0  1  0  0  0  0  0  0
  160.3700  204.0050  144.5300 C   0  0  0  0  0  1  0  0  0  0  0  0
  161.2890  205.0350  145.1700 C   0  0  0  0  0  3  0  0  0  0  0  0
  161.8700  203.6470  152.0690 O   0  0  0  0  0  0  0  0  0  0  0  0
  162.2830  202.3580  151.7240 C   0  0  0  0  0  1  0  0  0  0  0  0
  1 20  1  0  0  0  0
  2 19  1  0  0  0  0
  3 11  1  0  0  0  0
  4  2  1  6  0  0  0
  4 17  1  0  0  0  0
  5 27  1  0  0  0  0
  6  1  1  0  0  0  0
  6  3  1  0  0  0  0
  7 18  1  0  0  0  0
  7 17  1  0  0  0  0
  8 15  1  0  0  0  0
  9 12  2  0  0  0  0
  9 13  1  0  0  0  0
 10 22  1  0  0  0  0
 11 25  1  0  0  0  0
 11 24  1  0  0  0  0
 12 16  1  0  0  0  0
 13  7  2  0  0  0  0
 14 28  1  0  0  0  0
 15 26  2  0  0  0  0
 16 18  2  0  0  0  0
 17  5  1  6  0  0  0
 19 14  2  0  0  0  0
 19 27  1  0  0  0  0
 20 11  1  0  0  0  0
 22 15  1  0  0  0  0
 22  2  2  0  0  0  0
 23 10  2  0  0  0  0
 23  8  1  0  0  0  0
 24 13  1  0  0  0  0
 24  4  1  0  0  0  0
 25 10  1  0  0  0  0
 26 14  1  0  0  0  0
 27 21  1  0  0  0  0
 28 21  2  0  0  0  0
 29  8  1  0  0  0  0
 29 40  1  1  0  0  0
 31 30  1  1  0  0  0
 31 29  1  0  0  0  0
 32 33  2  0  0  0  0
 33 31  1  0  0  0  0
 34 33  1  0  0  0  0
 36 35  1  6  0  0  0
 36 34  1  0  0  0  0
 38 39  1  0  0  0  0
 39 37  1  0  0  0  0
 39 36  1  0  0  0  0
 41 40  1  0  0  0  0
M  END
>  <MODEL>
5

>  <REMARK>
 VINA RESULT:      -5.2      2.082      2.948
  Name = 
  7 active torsions:
  status: ('A' for Active; 'I' for Inactive)
    1  A    between atoms: C_7  and  C_20
    2  A    between atoms: C_7  and  C_34
    3  A    between atoms: O_12  and  C_18
    4  A    between atoms: N_13  and  C_18
    5  A    between atoms: C_18  and  C_39
    6  A    between atoms: C_20  and  C_39
    7  A    between atoms: C_34  and  C_40
                            x       y       z     vdW  Elec       q    Type
                         _______ _______ _______ _____ _____    ______ ____

>  <TORSDO>
F 7

$$$$
=
 OpenBabel11072413243D

 41 48  0  0  1  0  0  0  0  0999 V2000
  163.2960  211.0130  147.9180 N   0  0  0  0  0  2  0  0  0  0  0  0
  159.6810  212.5630  151.8820 C   0  0  0  0  0  0  0  0  0  0  0  0
  161.3630  210.3000  148.9730 C   0  0  0  0  0  2  0  0  0  0  0  0
  160.0520  213.3830  150.6870 C   0  0  2  0  0  3  0  0  0  0  0  0
  157.4590  214.0150  150.7540 C   0  0  0  0  0  2  0  0  0  0  0  0
  162.2830  210.0350  147.8700 N   0  0  0  0  0  2  0  0  0  0  0  0
  158.8410  213.9040  148.6990 C   0  0  0  0  0  0  0  0  0  0  0  0
  161.1490  209.9760  153.7730 N   0  0  0  0  0  0  0  0  0  0  0  0
  159.9070  212.4210  147.1220 C   0  0  0  0  0  3  0  0  0  0  0  0
  161.6650  211.0590  151.9650 C   0  0  0  0  0  0  0  0  0  0  0  0
  161.7050  211.6560  149.5420 C   0  0  0  0  0  0  0  0  0  0  0  0
  159.0980  212.9470  146.1040 C   0  0  0  0  0  3  0  0  0  0  0  0
  159.7580  212.9200  148.4210 C   0  0  0  0  0  0  0  0  0  0  0  0
  158.1500  212.1170  153.6980 C   0  0  0  0  0  0  0  0  0  0  0  0
  160.1600  210.8590  153.5320 C   0  0  0  0  0  0  0  0  0  0  0  0
  158.1660  213.9590  146.3900 C   0  0  0  0  0  3  0  0  0  0  0  0
  158.8650  214.2660  150.1400 C   0  0  2  0  0  3  0  0  0  0  0  0
  158.0320  214.4480  147.7000 C   0  0  0  0  0  3  0  0  0  0  0  0
  158.5310  212.8290  152.6020 C   0  0  0  0  0  0  0  0  0  0  0  0
  162.7280  212.1780  148.5740 C   0  0  0  0  0  2  0  0  0  0  0  0
  156.3850  213.5410  152.9870 N   0  0  0  0  0  0  0  0  0  0  0  0
  160.4770  211.5590  152.3950 C   0  0  0  0  0  0  0  0  0  0  0  0
  162.0800  210.0930  152.8220 N   0  0  0  0  0  0  0  0  0  0  0  0
  160.5130  212.5380  149.5690 N   0  0  0  0  0  0  0  0  0  0  0  0
  162.3420  211.4730  150.8180 O   0  0  0  0  0  0  0  0  0  0  0  0
  158.9580  211.0870  154.2310 C   0  0  0  0  0  3  0  0  0  0  0  0
  157.5280  213.6910  152.1750 N   0  0  0  0  0  0  0  0  0  0  0  0
  156.7700  212.5630  154.0410 C   0  0  0  0  0  3  0  0  0  0  0  0
  161.1890  209.0040  154.8580 C   0  0  2  0  0  3  0  0  0  0  0  0
  160.1420  206.9780  155.6420 O   0  0  0  0  0  1  0  0  0  0  0  0
  160.3340  207.7830  154.5150 C   0  0  2  0  0  3  0  0  0  0  0  0
  161.5340  205.8220  153.6800 C   0  0  0  0  0  2  0  0  0  0  0  0
  160.9480  206.9870  153.4010 C   0  0  0  0  0  0  0  0  0  0  0  0
  160.7270  207.3860  151.9690 C   0  0  0  0  0  2  0  0  0  0  0  0
  162.5420  207.3490  150.4010 O   0  0  0  0  0  1  0  0  0  0  0  0
  161.5800  206.5490  151.0260 C   0  0  2  0  0  3  0  0  0  0  0  0
  160.9890  204.3480  150.0040 C   0  0  0  0  0  1  0  0  0  0  0  0
  160.9100  206.3840  148.5900 C   0  0  0  0  0  1  0  0  0  0  0  0
  160.7050  205.8380  149.9950 C   0  0  0  0  0  3  0  0  0  0  0  0
  160.7610  209.6010  156.0490 O   0  0  0  0  0  0  0  0  0  0  0  0
  161.9360  209.9700  156.7070 C   0  0  0  0  0  1  0  0  0  0  0  0
  1 20  1  0  0  0  0
  2 22  2  0  0  0  0
  2 19  1  0  0  0  0
  3 11  1  0  0  0  0
  4  2  1  1  0  0  0
  5 27  1  0  0  0  0
  6  1  1  0  0  0  0
  6  3  1  0  0  0  0
  7 17  1  0  0  0  0
  8 29  1  0  0  0  0
  9 13  2  0  0  0  0
 10 22  1  0  0  0  0
 10 23  2  0  0  0  0
 11 24  1  0  0  0  0
 11 25  1  0  0  0  0
 12 16  2  0  0  0  0
 12  9  1  0  0  0  0
 13  7  1  0  0  0  0
 13 24  1  0  0  0  0
 14 28  1  0  0  0  0
 14 26  1  0  0  0  0
 15  8  1  0  0  0  0
 15 26  2  0  0  0  0
 16 18  1  0  0  0  0
 17  4  1  0  0  0  0
 17  5  1  1  0  0  0
 18  7  2  0  0  0  0
 19 14  2  0  0  0  0
 20 11  1  0  0  0  0
 21 28  2  0  0  0  0
 22 15  1  0  0  0  0
 23  8  1  0  0  0  0
 24  4  1  0  0  0  0
 25 10  1  0  0  0  0
 27 19  1  0  0  0  0
 27 21  1  0  0  0  0
 29 40  1  1  0  0  0
 31 29  1  0  0  0  0
 31 30  1  1  0  0  0
 33 32  2  0  0  0  0
 33 31  1  0  0  0  0
 34 33  1  0  0  0  0
 36 35  1  6  0  0  0
 36 34  1  0  0  0  0
 38 39  1  0  0  0  0
 39 37  1  0  0  0  0
 39 36  1  0  0  0  0
 40 41  1  0  0  0  0
M  END
>  <MODEL>
6

>  <REMARK>
 VINA RESULT:      -5.1      2.720      5.668
  Name = 
  7 active torsions:
  status: ('A' for Active; 'I' for Inactive)
    1  A    between atoms: C_7  and  C_20
    2  A    between atoms: C_7  and  C_34
    3  A    between atoms: O_12  and  C_18
    4  A    between atoms: N_13  and  C_18
    5  A    between atoms: C_18  and  C_39
    6  A    between atoms: C_20  and  C_39
    7  A    between atoms: C_34  and  C_40
                            x       y       z     vdW  Elec       q    Type
                         _______ _______ _______ _____ _____    ______ ____

>  <TORSDO>
F 7

$$$$
