=
 OpenBabel11072414003D

 29 31  0  0  1  0  0  0  0  0999 V2000
  160.7760  203.6190  149.6630 C   0  0  0  0  0  2  0  0  0  0  0  0
  161.5810  204.2040  148.4940 C   0  0  2  0  0  3  0  0  0  0  0  0
  162.1890  206.2570  149.7610 C   0  0  2  0  0  3  0  0  0  0  0  0
  160.9290  204.2980  153.3740 C   0  0  0  0  0  3  0  0  0  0  0  0
  161.5260  205.7360  148.4700 C   0  0  2  0  0  3  0  0  0  0  0  0
  161.6790  205.5830  151.0200 C   0  0  0  0  0  0  0  0  0  0  0  0
  161.5380  205.5120  153.4130 N   0  0  0  0  0  0  0  0  0  0  0  0
  161.9200  206.1540  152.2780 C   0  0  0  0  0  3  0  0  0  0  0  0
  161.0820  204.3030  150.9660 C   0  0  0  0  0  0  0  0  0  0  0  0
  160.6910  203.6730  152.1490 C   0  0  0  0  0  3  0  0  0  0  0  0
  159.8770  206.6010  146.9650 O   0  0  0  0  0  1  0  0  0  0  0  0
  160.1000  206.2580  148.2980 C   0  0  0  0  0  2  0  0  0  0  0  0
  162.3240  207.7870  149.8620 C   0  0  1  0  0  3  0  0  0  0  0  0
  162.3510  208.4310  148.4840 C   0  0  0  0  0  1  0  0  0  0  0  0
  162.6290  209.9400  151.7310 O   0  0  0  0  0  0  0  0  0  0  0  0
  161.4790  209.4480  151.5820 C   0  0  0  0  0  0  0  0  0  0  0  0
  161.2620  208.3640  150.6770 N   0  0  0  0  0  2  0  0  0  0  0  0
  160.3280  210.0210  152.3340 C   0  0  0  0  0  2  0  0  0  0  0  0
  161.2000  208.7880  154.3460 O   0  0  0  0  0  1  0  0  0  0  0  0
  159.5630  210.5690  154.7560 C   0  0  0  0  0  2  0  0  0  0  0  0
  160.9350  211.2000  154.5280 C   0  0  0  0  0  2  0  0  0  0  0  0
  160.5610  209.9160  153.8320 C   0  0  0  0  0  0  0  0  0  0  0  0
  161.0920  202.0410  147.2020 C   0  0  0  0  0  1  0  0  0  0  0  0
  161.2820  203.5560  147.1350 C   0  0  2  0  0  3  0  0  0  0  0  0
  162.2810  204.0000  146.0580 C   0  0  2  0  0  3  0  0  0  0  0  0
  163.5190  204.6370  146.6700 C   0  0  0  0  0  1  0  0  0  0  0  0
  160.3990  204.5060  144.3120 C   0  0  0  0  0  1  0  0  0  0  0  0
  161.6880  204.8640  144.9780 C   0  0  0  0  0  0  0  0  0  0  0  0
  162.2780  205.8730  144.6290 O   0  0  0  0  0  0  0  0  0  0  0  0
  1  9  1  0  0  0  0
  2 24  1  6  0  0  0
  2  1  1  0  0  0  0
  3 13  1  1  0  0  0
  3  6  1  0  0  0  0
  4  7  1  0  0  0  0
  5 12  1  1  0  0  0
  5  2  1  0  0  0  0
  5  3  1  0  0  0  0
  6  8  1  0  0  0  0
  8  7  2  0  0  0  0
  9  6  2  0  0  0  0
  9 10  1  0  0  0  0
 10  4  2  0  0  0  0
 11 12  1  0  0  0  0
 13 14  1  6  0  0  0
 13 17  1  0  0  0  0
 16 15  2  0  0  0  0
 16 18  1  0  0  0  0
 17 16  1  0  0  0  0
 18 22  1  0  0  0  0
 21 20  1  0  0  0  0
 22 19  1  0  0  0  0
 22 21  1  0  0  0  0
 22 20  1  0  0  0  0
 24 23  1  1  0  0  0
 25 26  1  1  0  0  0
 25 24  1  0  0  0  0
 27 28  1  0  0  0  0
 28 25  1  0  0  0  0
 29 28  2  0  0  0  0
M  END
>  <MODEL>
1

>  <REMARK>
 VINA RESULT:      -7.1      0.000      0.000
  Name = 
  8 active torsions:
  status: ('A' for Active; 'I' for Inactive)
    1  A    between atoms: C_4  and  C_29
    2  A    between atoms: C_5  and  C_6
    3  A    between atoms: C_6  and  N_22
    4  A    between atoms: C_7  and  C_10
    5  A    between atoms: C_11  and  C_15
    6  A    between atoms: C_15  and  C_21
    7  A    between atoms: C_19  and  C_25
    8  A    between atoms: C_25  and  C_29
                            x       y       z     vdW  Elec       q    Type
                         _______ _______ _______ _____ _____    ______ ____

>  <TORSDO>
F 8

$$$$
=
 OpenBabel11072414003D

 29 31  0  0  1  0  0  0  0  0999 V2000
  161.1190  206.8690  153.2230 C   0  0  0  0  0  2  0  0  0  0  0  0
  160.5720  208.1730  152.6250 C   0  0  2  0  0  3  0  0  0  0  0  0
  160.7570  207.3400  150.2880 C   0  0  2  0  0  3  0  0  0  0  0  0
  161.2470  203.3600  151.8370 C   0  0  0  0  0  3  0  0  0  0  0  0
  161.1780  208.4700  151.2490 C   0  0  2  0  0  3  0  0  0  0  0  0
  160.9980  205.9500  150.8450 C   0  0  0  0  0  0  0  0  0  0  0  0
  161.1200  203.5800  150.5020 N   0  0  0  0  0  0  0  0  0  0  0  0
  160.9880  204.8340  149.9960 C   0  0  0  0  0  3  0  0  0  0  0  0
  161.0900  205.7330  152.2390 C   0  0  0  0  0  0  0  0  0  0  0  0
  161.2340  204.4340  152.7280 C   0  0  0  0  0  3  0  0  0  0  0  0
  163.0170  210.0000  151.3590 O   0  0  0  0  0  1  0  0  0  0  0  0
  162.6960  208.6440  151.3120 C   0  0  0  0  0  2  0  0  0  0  0  0
  161.1860  207.5260  148.8210 C   0  0  1  0  0  3  0  0  0  0  0  0
  162.7010  207.5040  148.6830 C   0  0  0  0  0  1  0  0  0  0  0  0
  162.2330  206.6240  146.3100 O   0  0  0  0  0  0  0  0  0  0  0  0
  161.1590  206.1090  146.7200 C   0  0  0  0  0  0  0  0  0  0  0  0
  160.5770  206.5240  147.9560 N   0  0  0  0  0  2  0  0  0  0  0  0
  160.5050  205.0340  145.9220 C   0  0  0  0  0  2  0  0  0  0  0  0
  162.6950  203.9970  145.2480 O   0  0  0  0  0  1  0  0  0  0  0  0
  160.7920  202.4780  145.5570 C   0  0  0  0  0  2  0  0  0  0  0  0
  161.3660  202.8390  146.9260 C   0  0  0  0  0  2  0  0  0  0  0  0
  161.4210  203.8290  145.7910 C   0  0  0  0  0  0  0  0  0  0  0  0
  160.6190  208.9780  155.0620 C   0  0  0  0  0  1  0  0  0  0  0  0
  160.6070  209.3710  153.5850 C   0  0  2  0  0  3  0  0  0  0  0  0
  159.5350  210.4130  153.2380 C   0  0  2  0  0  3  0  0  0  0  0  0
  160.0040  211.3590  152.1450 C   0  0  0  0  0  1  0  0  0  0  0  0
  159.7020  212.3390  155.0020 C   0  0  0  0  0  1  0  0  0  0  0  0
  158.9870  211.1600  154.4230 C   0  0  0  0  0  0  0  0  0  0  0  0
  157.9420  210.7900  154.9320 O   0  0  0  0  0  0  0  0  0  0  0  0
  2  1  1  0  0  0  0
  2 24  1  1  0  0  0
  3 13  1  6  0  0  0
  3  6  1  0  0  0  0
  3  5  1  0  0  0  0
  4 10  1  0  0  0  0
  5 12  1  1  0  0  0
  5  2  1  0  0  0  0
  6  9  1  0  0  0  0
  7  4  2  0  0  0  0
  8  7  1  0  0  0  0
  8  6  2  0  0  0  0
  9 10  2  0  0  0  0
  9  1  1  0  0  0  0
 12 11  1  0  0  0  0
 13 14  1  1  0  0  0
 15 16  2  0  0  0  0
 16 17  1  0  0  0  0
 17 13  1  0  0  0  0
 18 16  1  0  0  0  0
 19 22  1  0  0  0  0
 20 22  1  0  0  0  0
 20 21  1  0  0  0  0
 22 18  1  0  0  0  0
 22 21  1  0  0  0  0
 24 23  1  1  0  0  0
 25 26  1  6  0  0  0
 25 24  1  0  0  0  0
 25 28  1  0  0  0  0
 28 29  2  0  0  0  0
 28 27  1  0  0  0  0
M  END
>  <MODEL>
2

>  <REMARK>
 VINA RESULT:      -5.9      1.730      7.539
  Name = 
  8 active torsions:
  status: ('A' for Active; 'I' for Inactive)
    1  A    between atoms: C_4  and  C_29
    2  A    between atoms: C_5  and  C_6
    3  A    between atoms: C_6  and  N_22
    4  A    between atoms: C_7  and  C_10
    5  A    between atoms: C_11  and  C_15
    6  A    between atoms: C_15  and  C_21
    7  A    between atoms: C_19  and  C_25
    8  A    between atoms: C_25  and  C_29
                            x       y       z     vdW  Elec       q    Type
                         _______ _______ _______ _____ _____    ______ ____

>  <TORSDO>
F 8

$$$$
=
 OpenBabel11072414003D

 29 31  0  0  1  0  0  0  0  0999 V2000
  161.4940  206.8800  152.1080 C   0  0  0  0  0  2  0  0  0  0  0  0
  160.8240  207.9560  151.2420 C   0  0  2  0  0  3  0  0  0  0  0  0
  160.4330  206.3860  149.3520 C   0  0  2  0  0  3  0  0  0  0  0  0
  161.2660  203.1130  152.0120 C   0  0  0  0  0  3  0  0  0  0  0  0
  161.0790  207.7280  149.7480 C   0  0  2  0  0  3  0  0  0  0  0  0
  160.7950  205.2420  150.2800 C   0  0  0  0  0  0  0  0  0  0  0  0
  160.8200  202.8900  150.7480 N   0  0  0  0  0  0  0  0  0  0  0  0
  160.5750  203.9140  149.8890 C   0  0  0  0  0  3  0  0  0  0  0  0
  161.2220  205.4900  151.6040 C   0  0  0  0  0  0  0  0  0  0  0  0
  161.4750  204.4170  152.4610 C   0  0  0  0  0  3  0  0  0  0  0  0
  162.8260  208.8810  148.5860 O   0  0  0  0  0  1  0  0  0  0  0  0
  162.5670  207.7810  149.4020 C   0  0  0  0  0  2  0  0  0  0  0  0
  160.4930  206.0390  147.8530 C   0  0  1  0  0  3  0  0  0  0  0  0
  161.2300  207.1140  147.0690 C   0  0  0  0  0  1  0  0  0  0  0  0
  160.7240  204.7080  145.3250 O   0  0  0  0  0  0  0  0  0  0  0  0
  161.1960  204.1310  146.3400 C   0  0  0  0  0  0  0  0  0  0  0  0
  161.1020  204.7340  147.6310 N   0  0  0  0  0  2  0  0  0  0  0  0
  161.8880  202.8200  146.1880 C   0  0  0  0  0  2  0  0  0  0  0  0
  159.9950  201.4790  145.2140 O   0  0  0  0  0  1  0  0  0  0  0  0
  160.3900  201.2570  147.6260 C   0  0  0  0  0  2  0  0  0  0  0  0
  161.4060  200.3980  146.8760 C   0  0  0  0  0  2  0  0  0  0  0  0
  160.8910  201.6760  146.2650 C   0  0  0  0  0  0  0  0  0  0  0  0
  162.5730  209.6900  151.9630 C   0  0  0  0  0  1  0  0  0  0  0  0
  161.0970  209.3960  151.7010 C   0  0  2  0  0  3  0  0  0  0  0  0
  160.1750  209.8100  152.8570 C   0  0  2  0  0  3  0  0  0  0  0  0
  159.4190  211.0900  152.5400 C   0  0  0  0  0  1  0  0  0  0  0  0
  160.9650  208.6850  155.0830 C   0  0  0  0  0  1  0  0  0  0  0  0
  160.8540  209.8830  154.1980 C   0  0  0  0  0  0  0  0  0  0  0  0
  161.3150  210.9470  154.5760 O   0  0  0  0  0  0  0  0  0  0  0  0
  2 24  1  1  0  0  0
  2  1  1  0  0  0  0
  3 13  1  6  0  0  0
  3  5  1  0  0  0  0
  3  6  1  0  0  0  0
  4 10  1  0  0  0  0
  5 12  1  1  0  0  0
  5  2  1  0  0  0  0
  6  9  1  0  0  0  0
  7  4  2  0  0  0  0
  8  6  2  0  0  0  0
  8  7  1  0  0  0  0
  9  1  1  0  0  0  0
  9 10  2  0  0  0  0
 11 12  1  0  0  0  0
 13 14  1  6  0  0  0
 15 16  2  0  0  0  0
 16 17  1  0  0  0  0
 17 13  1  0  0  0  0
 18 22  1  0  0  0  0
 18 16  1  0  0  0  0
 19 22  1  0  0  0  0
 21 20  1  0  0  0  0
 22 21  1  0  0  0  0
 22 20  1  0  0  0  0
 24 23  1  1  0  0  0
 24 25  1  0  0  0  0
 25 26  1  6  0  0  0
 25 28  1  0  0  0  0
 28 29  2  0  0  0  0
 28 27  1  0  0  0  0
M  END
>  <MODEL>
3

>  <REMARK>
 VINA RESULT:      -5.9      1.961      7.498
  Name = 
  8 active torsions:
  status: ('A' for Active; 'I' for Inactive)
    1  A    between atoms: C_4  and  C_29
    2  A    between atoms: C_5  and  C_6
    3  A    between atoms: C_6  and  N_22
    4  A    between atoms: C_7  and  C_10
    5  A    between atoms: C_11  and  C_15
    6  A    between atoms: C_15  and  C_21
    7  A    between atoms: C_19  and  C_25
    8  A    between atoms: C_25  and  C_29
                            x       y       z     vdW  Elec       q    Type
                         _______ _______ _______ _____ _____    ______ ____

>  <TORSDO>
F 8

$$$$
=
 OpenBabel11072414003D

 29 31  0  0  1  0  0  0  0  0999 V2000
  160.4670  211.5930  154.1860 C   0  0  0  0  0  2  0  0  0  0  0  0
  159.6920  211.0110  152.9950 C   0  0  2  0  0  3  0  0  0  0  0  0
  160.5890  208.7190  153.3550 C   0  0  2  0  0  3  0  0  0  0  0  0
  161.9090  209.9420  157.2590 C   0  0  0  0  0  3  0  0  0  0  0  0
  160.4510  209.8590  152.3260 C   0  0  2  0  0  3  0  0  0  0  0  0
  161.1120  209.1780  154.7030 C   0  0  0  0  0  0  0  0  0  0  0  0
  161.9970  208.6440  156.8660 N   0  0  0  0  0  0  0  0  0  0  0  0
  161.6060  208.2470  155.6270 C   0  0  0  0  0  3  0  0  0  0  0  0
  160.9780  210.5240  155.1120 C   0  0  0  0  0  0  0  0  0  0  0  0
  161.3970  210.9040  156.3880 C   0  0  0  0  0  3  0  0  0  0  0  0
  161.8010  210.1990  150.3780 O   0  0  0  0  0  1  0  0  0  0  0  0
  161.8030  210.3050  151.7680 C   0  0  0  0  0  2  0  0  0  0  0  0
  161.2340  207.4250  152.8250 C   0  0  1  0  0  3  0  0  0  0  0  0
  161.1730  206.3140  153.8620 C   0  0  0  0  0  1  0  0  0  0  0  0
  162.6090  206.9520  150.3540 O   0  0  0  0  0  0  0  0  0  0  0  0
  161.3640  206.7630  150.3810 C   0  0  0  0  0  0  0  0  0  0  0  0
  160.6170  206.9940  151.5760 N   0  0  0  0  0  2  0  0  0  0  0  0
  160.6670  206.2660  149.1620 C   0  0  0  0  0  2  0  0  0  0  0  0
  161.6060  208.2290  147.8990 O   0  0  0  0  0  1  0  0  0  0  0  0
  160.8850  206.2940  146.5730 C   0  0  0  0  0  2  0  0  0  0  0  0
  162.2590  206.0010  147.1700 C   0  0  0  0  0  2  0  0  0  0  0  0
  161.2770  206.8730  147.9100 C   0  0  0  0  0  0  0  0  0  0  0  0
  160.1370  213.2300  151.7850 C   0  0  0  0  0  1  0  0  0  0  0  0
  159.1750  212.0640  152.0040 C   0  0  2  0  0  3  0  0  0  0  0  0
  157.7430  212.5060  152.3370 C   0  0  2  0  0  3  0  0  0  0  0  0
  157.3420  213.7450  151.5530 C   0  0  0  0  0  1  0  0  0  0  0  0
  156.8320  211.5730  154.6060 C   0  0  0  0  0  1  0  0  0  0  0  0
  157.4680  212.6650  153.8080 C   0  0  0  0  0  0  0  0  0  0  0  0
  157.7600  213.7130  154.3590 O   0  0  0  0  0  0  0  0  0  0  0  0
  1  9  1  0  0  0  0
  2 24  1  6  0  0  0
  2  1  1  0  0  0  0
  3 13  1  6  0  0  0
  3  6  1  0  0  0  0
  5 12  1  1  0  0  0
  5  2  1  0  0  0  0
  5  3  1  0  0  0  0
  6  9  2  0  0  0  0
  6  8  1  0  0  0  0
  7  4  1  0  0  0  0
  8  7  2  0  0  0  0
  9 10  1  0  0  0  0
 10  4  2  0  0  0  0
 11 12  1  0  0  0  0
 13 14  1  1  0  0  0
 15 16  2  0  0  0  0
 16 17  1  0  0  0  0
 17 13  1  0  0  0  0
 18 16  1  0  0  0  0
 19 22  1  0  0  0  0
 20 21  1  0  0  0  0
 20 22  1  0  0  0  0
 21 22  1  0  0  0  0
 22 18  1  0  0  0  0
 24 23  1  1  0  0  0
 24 25  1  0  0  0  0
 25 26  1  6  0  0  0
 25 28  1  0  0  0  0
 28 29  2  0  0  0  0
 28 27  1  0  0  0  0
M  END
>  <MODEL>
4

>  <REMARK>
 VINA RESULT:      -5.9      2.595      8.058
  Name = 
  8 active torsions:
  status: ('A' for Active; 'I' for Inactive)
    1  A    between atoms: C_4  and  C_29
    2  A    between atoms: C_5  and  C_6
    3  A    between atoms: C_6  and  N_22
    4  A    between atoms: C_7  and  C_10
    5  A    between atoms: C_11  and  C_15
    6  A    between atoms: C_15  and  C_21
    7  A    between atoms: C_19  and  C_25
    8  A    between atoms: C_25  and  C_29
                            x       y       z     vdW  Elec       q    Type
                         _______ _______ _______ _____ _____    ______ ____

>  <TORSDO>
F 8

$$$$
=
 OpenBabel11072414003D

 29 31  0  0  1  0  0  0  0  0999 V2000
  159.0570  211.4180  155.5260 C   0  0  0  0  0  2  0  0  0  0  0  0
  158.3060  211.4530  154.1870 C   0  0  2  0  0  3  0  0  0  0  0  0
  159.8120  209.7700  153.1430 C   0  0  2  0  0  3  0  0  0  0  0  0
  161.2860  208.7850  157.0590 C   0  0  0  0  0  3  0  0  0  0  0  0
  159.2410  211.1950  153.0000 C   0  0  2  0  0  3  0  0  0  0  0  0
  160.3750  209.4770  154.5200 C   0  0  0  0  0  0  0  0  0  0  0  0
  161.6560  208.0610  155.9700 N   0  0  0  0  0  0  0  0  0  0  0  0
  161.2170  208.3750  154.7230 C   0  0  0  0  0  3  0  0  0  0  0  0
  159.9510  210.2150  155.6480 C   0  0  0  0  0  0  0  0  0  0  0  0
  160.4270  209.8750  156.9160 C   0  0  0  0  0  3  0  0  0  0  0  0
  160.1240  213.0460  151.7650 O   0  0  0  0  0  1  0  0  0  0  0  0
  160.3400  212.2520  152.8900 C   0  0  0  0  0  2  0  0  0  0  0  0
  160.6930  209.2910  151.9750 C   0  0  1  0  0  3  0  0  0  0  0  0
  162.1460  209.6930  152.1800 C   0  0  0  0  0  1  0  0  0  0  0  0
  161.2910  207.8810  149.5510 O   0  0  0  0  0  0  0  0  0  0  0  0
  160.9090  207.2080  150.5450 C   0  0  0  0  0  0  0  0  0  0  0  0
  160.5830  207.8500  151.7780 N   0  0  0  0  0  2  0  0  0  0  0  0
  160.8270  205.7240  150.4440 C   0  0  0  0  0  2  0  0  0  0  0  0
  162.7940  205.6860  152.0110 O   0  0  0  0  0  1  0  0  0  0  0  0
  161.6300  203.5590  151.6340 C   0  0  0  0  0  2  0  0  0  0  0  0
  160.8290  204.3910  152.6340 C   0  0  0  0  0  2  0  0  0  0  0  0
  161.6330  205.0650  151.5510 C   0  0  0  0  0  0  0  0  0  0  0  0
  157.8270  213.8900  154.8310 C   0  0  0  0  0  1  0  0  0  0  0  0
  157.4010  212.6800  154.0030 C   0  0  2  0  0  3  0  0  0  0  0  0
  155.9170  212.3220  154.1600 C   0  0  2  0  0  3  0  0  0  0  0  0
  155.0460  213.5660  154.2410 C   0  0  0  0  0  1  0  0  0  0  0  0
  155.2060  209.9540  155.0160 C   0  0  0  0  0  1  0  0  0  0  0  0
  155.6240  211.3630  155.2820 C   0  0  0  0  0  0  0  0  0  0  0  0
  155.7180  211.7490  156.4360 O   0  0  0  0  0  0  0  0  0  0  0  0
  1  9  1  0  0  0  0
  2 24  1  6  0  0  0
  2  1  1  0  0  0  0
  3 13  1  6  0  0  0
  3  6  1  0  0  0  0
  5 12  1  1  0  0  0
  5  3  1  0  0  0  0
  5  2  1  0  0  0  0
  6  8  2  0  0  0  0
  6  9  1  0  0  0  0
  7  4  2  0  0  0  0
  8  7  1  0  0  0  0
  9 10  2  0  0  0  0
 10  4  1  0  0  0  0
 11 12  1  0  0  0  0
 13 14  1  1  0  0  0
 15 16  2  0  0  0  0
 16 17  1  0  0  0  0
 17 13  1  0  0  0  0
 18 16  1  0  0  0  0
 18 22  1  0  0  0  0
 20 21  1  0  0  0  0
 22 20  1  0  0  0  0
 22 19  1  0  0  0  0
 22 21  1  0  0  0  0
 24 25  1  0  0  0  0
 24 23  1  1  0  0  0
 25 26  1  1  0  0  0
 25 28  1  0  0  0  0
 27 28  1  0  0  0  0
 28 29  2  0  0  0  0
M  END
>  <MODEL>
5

>  <REMARK>
 VINA RESULT:      -5.8      3.110      8.603
  Name = 
  8 active torsions:
  status: ('A' for Active; 'I' for Inactive)
    1  A    between atoms: C_4  and  C_29
    2  A    between atoms: C_5  and  C_6
    3  A    between atoms: C_6  and  N_22
    4  A    between atoms: C_7  and  C_10
    5  A    between atoms: C_11  and  C_15
    6  A    between atoms: C_15  and  C_21
    7  A    between atoms: C_19  and  C_25
    8  A    between atoms: C_25  and  C_29
                            x       y       z     vdW  Elec       q    Type
                         _______ _______ _______ _____ _____    ______ ____

>  <TORSDO>
F 8

$$$$
=
 OpenBabel11072414003D

 29 31  0  0  1  0  0  0  0  0999 V2000
  161.0690  206.6640  153.0980 C   0  0  0  0  0  2  0  0  0  0  0  0
  160.4590  207.9430  152.5060 C   0  0  2  0  0  3  0  0  0  0  0  0
  160.7370  207.1540  150.1630 C   0  0  2  0  0  3  0  0  0  0  0  0
  161.4260  203.1880  151.6700 C   0  0  0  0  0  3  0  0  0  0  0  0
  161.0730  208.2930  151.1460 C   0  0  2  0  0  3  0  0  0  0  0  0
  161.0460  205.7730  150.7060 C   0  0  0  0  0  0  0  0  0  0  0  0
  161.3120  203.4180  150.3360 N   0  0  0  0  0  0  0  0  0  0  0  0
  161.1170  204.6700  149.8440 C   0  0  0  0  0  3  0  0  0  0  0  0
  161.1250  205.5430  152.0990 C   0  0  0  0  0  0  0  0  0  0  0  0
  161.3350  204.2470  152.5740 C   0  0  0  0  0  3  0  0  0  0  0  0
  162.8380  209.9070  151.0340 O   0  0  0  0  0  1  0  0  0  0  0  0
  162.5760  208.5530  151.2410 C   0  0  0  0  0  2  0  0  0  0  0  0
  161.1810  207.3850  148.7070 C   0  0  1  0  0  3  0  0  0  0  0  0
  162.6970  207.3640  148.5840 C   0  0  0  0  0  1  0  0  0  0  0  0
  162.2320  206.5890  146.1610 O   0  0  0  0  0  0  0  0  0  0  0  0
  161.1640  206.0490  146.5520 C   0  0  0  0  0  0  0  0  0  0  0  0
  160.5800  206.4100  147.8040 N   0  0  0  0  0  2  0  0  0  0  0  0
  160.5180  205.0000  145.7140 C   0  0  0  0  0  2  0  0  0  0  0  0
  162.6830  203.8380  145.1770 O   0  0  0  0  0  1  0  0  0  0  0  0
  160.6960  202.4230  145.4390 C   0  0  0  0  0  2  0  0  0  0  0  0
  161.2220  202.7980  146.8220 C   0  0  0  0  0  2  0  0  0  0  0  0
  161.3790  203.7490  145.6630 C   0  0  0  0  0  0  0  0  0  0  0  0
  160.4900  210.4920  152.8000 C   0  0  0  0  0  1  0  0  0  0  0  0
  160.4070  209.1280  153.4820 C   0  0  2  0  0  3  0  0  0  0  0  0
  161.4040  208.9590  154.6370 C   0  0  2  0  0  3  0  0  0  0  0  0
  160.9070  207.9550  155.6650 C   0  0  0  0  0  1  0  0  0  0  0  0
  160.9790  210.9340  156.3000 C   0  0  0  0  0  1  0  0  0  0  0  0
  161.8320  210.2490  155.2820 C   0  0  0  0  0  0  0  0  0  0  0  0
  162.8940  210.7540  154.9580 O   0  0  0  0  0  0  0  0  0  0  0  0
  2  1  1  0  0  0  0
  2 24  1  1  0  0  0
  3 13  1  6  0  0  0
  3  6  1  0  0  0  0
  3  5  1  0  0  0  0
  4 10  1  0  0  0  0
  5 12  1  1  0  0  0
  5  2  1  0  0  0  0
  6  9  1  0  0  0  0
  7  4  2  0  0  0  0
  8  7  1  0  0  0  0
  8  6  2  0  0  0  0
  9 10  2  0  0  0  0
  9  1  1  0  0  0  0
 11 12  1  0  0  0  0
 13 14  1  1  0  0  0
 15 16  2  0  0  0  0
 16 17  1  0  0  0  0
 17 13  1  0  0  0  0
 18 16  1  0  0  0  0
 19 22  1  0  0  0  0
 20 22  1  0  0  0  0
 20 21  1  0  0  0  0
 22 18  1  0  0  0  0
 22 21  1  0  0  0  0
 24 23  1  6  0  0  0
 24 25  1  0  0  0  0
 25 28  1  0  0  0  0
 25 26  1  1  0  0  0
 28 27  1  0  0  0  0
 29 28  2  0  0  0  0
M  END
>  <MODEL>
6

>  <REMARK>
 VINA RESULT:      -5.7      1.760      7.537
  Name = 
  8 active torsions:
  status: ('A' for Active; 'I' for Inactive)
    1  A    between atoms: C_4  and  C_29
    2  A    between atoms: C_5  and  C_6
    3  A    between atoms: C_6  and  N_22
    4  A    between atoms: C_7  and  C_10
    5  A    between atoms: C_11  and  C_15
    6  A    between atoms: C_15  and  C_21
    7  A    between atoms: C_19  and  C_25
    8  A    between atoms: C_25  and  C_29
                            x       y       z     vdW  Elec       q    Type
                         _______ _______ _______ _____ _____    ______ ____

>  <TORSDO>
F 8

$$$$
=
 OpenBabel11072414003D

 29 31  0  0  1  0  0  0  0  0999 V2000
  161.6310  209.1050  150.2830 C   0  0  0  0  0  2  0  0  0  0  0  0
  161.2600  207.6150  150.2490 C   0  0  2  0  0  3  0  0  0  0  0  0
  160.5630  207.5920  152.6370 C   0  0  2  0  0  3  0  0  0  0  0  0
  160.5190  211.8900  152.5760 C   0  0  0  0  0  3  0  0  0  0  0  0
  161.4980  206.9350  151.6020 C   0  0  2  0  0  3  0  0  0  0  0  0
  160.6170  209.1080  152.6260 C   0  0  0  0  0  0  0  0  0  0  0  0
  160.0690  211.2020  153.6580 N   0  0  0  0  0  0  0  0  0  0  0  0
  160.0990  209.8440  153.7010 C   0  0  0  0  0  3  0  0  0  0  0  0
  161.0520  209.8090  151.4790 C   0  0  0  0  0  0  0  0  0  0  0  0
  161.0180  211.2050  151.4680 C   0  0  0  0  0  3  0  0  0  0  0  0
  163.5520  205.7350  151.8730 O   0  0  0  0  0  1  0  0  0  0  0  0
  162.9650  206.9910  152.0260 C   0  0  0  0  0  2  0  0  0  0  0  0
  160.5830  206.9600  154.0410 C   0  0  1  0  0  3  0  0  0  0  0  0
  160.9940  205.4970  153.9800 C   0  0  0  0  0  1  0  0  0  0  0  0
  160.0700  207.4650  156.8160 O   0  0  0  0  0  0  0  0  0  0  0  0
  161.1440  207.9050  156.3260 C   0  0  0  0  0  0  0  0  0  0  0  0
  161.4540  207.7000  154.9470 N   0  0  0  0  0  2  0  0  0  0  0  0
  162.1150  208.6200  157.2000 C   0  0  0  0  0  2  0  0  0  0  0  0
  160.9520  210.8480  157.0840 O   0  0  0  0  0  1  0  0  0  0  0  0
  163.0240  210.6060  155.7920 C   0  0  0  0  0  2  0  0  0  0  0  0
  163.3790  210.8500  157.2570 C   0  0  0  0  0  2  0  0  0  0  0  0
  162.1190  210.1080  156.8920 C   0  0  0  0  0  0  0  0  0  0  0  0
  162.5500  207.7360  148.0330 C   0  0  0  0  0  1  0  0  0  0  0  0
  161.8540  206.8450  149.0600 C   0  0  2  0  0  3  0  0  0  0  0  0
  160.8350  205.8790  148.4410 C   0  0  2  0  0  3  0  0  0  0  0  0
  160.7500  204.5770  149.2210 C   0  0  0  0  0  1  0  0  0  0  0  0
  162.0430  204.6610  146.4650 C   0  0  0  0  0  1  0  0  0  0  0  0
  161.0260  205.6330  146.9690 C   0  0  0  0  0  0  0  0  0  0  0  0
  160.3430  206.2500  146.1680 O   0  0  0  0  0  0  0  0  0  0  0  0
  1  9  1  0  0  0  0
  2 24  1  6  0  0  0
  2  1  1  0  0  0  0
  2  5  1  0  0  0  0
  3 13  1  1  0  0  0
  4  7  1  0  0  0  0
  5 12  1  1  0  0  0
  5  3  1  0  0  0  0
  6  3  1  0  0  0  0
  6  8  1  0  0  0  0
  7  8  2  0  0  0  0
  9  6  2  0  0  0  0
 10  9  1  0  0  0  0
 10  4  2  0  0  0  0
 11 12  1  0  0  0  0
 13 14  1  6  0  0  0
 13 17  1  0  0  0  0
 16 15  2  0  0  0  0
 16 18  1  0  0  0  0
 17 16  1  0  0  0  0
 20 22  1  0  0  0  0
 20 21  1  0  0  0  0
 22 19  1  0  0  0  0
 22 18  1  0  0  0  0
 22 21  1  0  0  0  0
 24 23  1  6  0  0  0
 25 24  1  0  0  0  0
 25 26  1  1  0  0  0
 27 28  1  0  0  0  0
 28 25  1  0  0  0  0
 29 28  2  0  0  0  0
M  END
>  <MODEL>
7

>  <REMARK>
 VINA RESULT:      -5.4      2.287      4.786
  Name = 
  8 active torsions:
  status: ('A' for Active; 'I' for Inactive)
    1  A    between atoms: C_4  and  C_29
    2  A    between atoms: C_5  and  C_6
    3  A    between atoms: C_6  and  N_22
    4  A    between atoms: C_7  and  C_10
    5  A    between atoms: C_11  and  C_15
    6  A    between atoms: C_15  and  C_21
    7  A    between atoms: C_19  and  C_25
    8  A    between atoms: C_25  and  C_29
                            x       y       z     vdW  Elec       q    Type
                         _______ _______ _______ _____ _____    ______ ____

>  <TORSDO>
F 8

$$$$
=
 OpenBabel11072414003D

 29 31  0  0  1  0  0  0  0  0999 V2000
  162.3320  210.4600  148.9910 C   0  0  0  0  0  2  0  0  0  0  0  0
  161.6150  209.4340  149.8800 C   0  0  2  0  0  3  0  0  0  0  0  0
  160.4730  211.1910  151.2220 C   0  0  2  0  0  3  0  0  0  0  0  0
  161.5190  214.0600  148.1960 C   0  0  0  0  0  3  0  0  0  0  0  0
  161.4000  209.9620  151.3030 C   0  0  2  0  0  3  0  0  0  0  0  0
  160.9050  212.2090  150.1840 C   0  0  0  0  0  0  0  0  0  0  0  0
  160.7050  214.4000  149.2300 N   0  0  0  0  0  0  0  0  0  0  0  0
  160.3850  213.5100  150.2060 C   0  0  0  0  0  3  0  0  0  0  0  0
  161.7220  211.8300  149.0940 C   0  0  0  0  0  0  0  0  0  0  0  0
  162.0410  212.7690  148.1110 C   0  0  0  0  0  3  0  0  0  0  0  0
  162.7050  209.7500  153.2990 O   0  0  0  0  0  1  0  0  0  0  0  0
  162.7200  210.2750  152.0080 C   0  0  0  0  0  2  0  0  0  0  0  0
  160.0540  211.7940  152.5750 C   0  0  1  0  0  3  0  0  0  0  0  0
  158.9130  212.7860  152.4060 C   0  0  0  0  0  1  0  0  0  0  0  0
  160.6380  211.8310  155.3810 O   0  0  0  0  0  0  0  0  0  0  0  0
  160.0050  210.8430  154.9240 C   0  0  0  0  0  0  0  0  0  0  0  0
  159.6940  210.7560  153.5330 N   0  0  0  0  0  2  0  0  0  0  0  0
  159.5490  209.7670  155.8490 C   0  0  0  0  0  2  0  0  0  0  0  0
  161.8760  208.9690  156.3740 O   0  0  0  0  0  1  0  0  0  0  0  0
  160.4920  207.5140  154.9630 C   0  0  0  0  0  2  0  0  0  0  0  0
  160.0810  207.3260  156.4230 C   0  0  0  0  0  2  0  0  0  0  0  0
  160.5870  208.6620  155.9390 C   0  0  0  0  0  0  0  0  0  0  0  0
  162.7060  207.6090  148.4430 C   0  0  0  0  0  1  0  0  0  0  0  0
  162.2210  208.0240  149.8310 C   0  0  2  0  0  3  0  0  0  0  0  0
  161.3050  206.9860  150.4950 C   0  0  2  0  0  3  0  0  0  0  0  0
  161.9390  206.3970  151.7450 C   0  0  0  0  0  1  0  0  0  0  0  0
  161.1870  204.4810  149.7500 C   0  0  0  0  0  1  0  0  0  0  0  0
  160.8050  205.9140  149.5660 C   0  0  0  0  0  0  0  0  0  0  0  0
  160.0810  206.2220  148.6340 O   0  0  0  0  0  0  0  0  0  0  0  0
  1  9  1  0  0  0  0
  1  2  1  0  0  0  0
  2 24  1  1  0  0  0
  2  5  1  0  0  0  0
  3  5  1  0  0  0  0
  3 13  1  1  0  0  0
  4  7  1  0  0  0  0
  5 12  1  6  0  0  0
  6  8  1  0  0  0  0
  6  3  1  0  0  0  0
  7  8  2  0  0  0  0
  9  6  2  0  0  0  0
 10  4  2  0  0  0  0
 10  9  1  0  0  0  0
 12 11  1  0  0  0  0
 13 14  1  6  0  0  0
 13 17  1  0  0  0  0
 16 15  2  0  0  0  0
 16 18  1  0  0  0  0
 17 16  1  0  0  0  0
 18 22  1  0  0  0  0
 20 22  1  0  0  0  0
 20 21  1  0  0  0  0
 22 19  1  0  0  0  0
 22 21  1  0  0  0  0
 24 23  1  6  0  0  0
 24 25  1  0  0  0  0
 25 26  1  1  0  0  0
 28 27  1  0  0  0  0
 28 25  1  0  0  0  0
 29 28  2  0  0  0  0
M  END
>  <MODEL>
8

>  <REMARK>
 VINA RESULT:      -5.4      2.791      6.144
  Name = 
  8 active torsions:
  status: ('A' for Active; 'I' for Inactive)
    1  A    between atoms: C_4  and  C_29
    2  A    between atoms: C_5  and  C_6
    3  A    between atoms: C_6  and  N_22
    4  A    between atoms: C_7  and  C_10
    5  A    between atoms: C_11  and  C_15
    6  A    between atoms: C_15  and  C_21
    7  A    between atoms: C_19  and  C_25
    8  A    between atoms: C_25  and  C_29
                            x       y       z     vdW  Elec       q    Type
                         _______ _______ _______ _____ _____    ______ ____

>  <TORSDO>
F 8

$$$$
=
 OpenBabel11072414003D

 29 31  0  0  1  0  0  0  0  0999 V2000
  161.4190  210.3870  151.1640 C   0  0  0  0  0  2  0  0  0  0  0  0
  160.9250  209.2540  152.0750 C   0  0  2  0  0  3  0  0  0  0  0  0
  159.5840  210.7950  153.4950 C   0  0  2  0  0  3  0  0  0  0  0  0
  159.9920  213.8110  150.4580 C   0  0  0  0  0  3  0  0  0  0  0  0
  160.7010  209.7330  153.5140 C   0  0  2  0  0  3  0  0  0  0  0  0
  159.7910  211.8750  152.4500 C   0  0  0  0  0  0  0  0  0  0  0  0
  159.1890  214.0080  151.5360 N   0  0  0  0  0  0  0  0  0  0  0  0
  159.0680  213.0740  152.5150 C   0  0  0  0  0  3  0  0  0  0  0  0
  160.6010  211.6390  151.3150 C   0  0  0  0  0  0  0  0  0  0  0  0
  160.7120  212.6220  150.3300 C   0  0  0  0  0  3  0  0  0  0  0  0
  162.1170  209.7410  155.4450 O   0  0  0  0  0  1  0  0  0  0  0  0
  161.9870  210.2550  154.1550 C   0  0  0  0  0  2  0  0  0  0  0  0
  159.1430  211.3160  154.8750 C   0  0  1  0  0  3  0  0  0  0  0  0
  159.9090  212.5720  155.2600 C   0  0  0  0  0  1  0  0  0  0  0  0
  157.5760  211.6500  157.2520 O   0  0  0  0  0  0  0  0  0  0  0  0
  156.9860  211.7270  156.1430 C   0  0  0  0  0  0  0  0  0  0  0  0
  157.7060  211.5570  154.9210 N   0  0  0  0  0  2  0  0  0  0  0  0
  155.5280  212.0300  156.1020 C   0  0  0  0  0  2  0  0  0  0  0  0
  154.4590  214.0310  157.1880 O   0  0  0  0  0  1  0  0  0  0  0  0
  155.3120  214.3270  154.9060 C   0  0  0  0  0  2  0  0  0  0  0  0
  156.4820  214.4000  155.8860 C   0  0  0  0  0  2  0  0  0  0  0  0
  155.2890  213.5280  156.1860 C   0  0  0  0  0  0  0  0  0  0  0  0
  162.5430  207.8330  150.6790 C   0  0  0  0  0  1  0  0  0  0  0  0
  161.7490  207.9620  151.9780 C   0  0  2  0  0  3  0  0  0  0  0  0
  160.9060  206.7220  152.3050 C   0  0  2  0  0  3  0  0  0  0  0  0
  161.1720  206.2190  153.7150 C   0  0  0  0  0  1  0  0  0  0  0  0
  161.7510  204.3530  151.5850 C   0  0  0  0  0  1  0  0  0  0  0  0
  161.0080  205.6150  151.2910 C   0  0  0  0  0  0  0  0  0  0  0  0
  160.4820  205.7560  150.2000 O   0  0  0  0  0  0  0  0  0  0  0  0
  1  9  1  0  0  0  0
  1  2  1  0  0  0  0
  2 24  1  1  0  0  0
  2  5  1  0  0  0  0
  3  5  1  0  0  0  0
  3 13  1  1  0  0  0
  4  7  1  0  0  0  0
  5 12  1  6  0  0  0
  6  8  1  0  0  0  0
  6  3  1  0  0  0  0
  7  8  2  0  0  0  0
  9  6  2  0  0  0  0
 10  4  2  0  0  0  0
 10  9  1  0  0  0  0
 12 11  1  0  0  0  0
 13 17  1  0  0  0  0
 13 14  1  6  0  0  0
 16 15  2  0  0  0  0
 17 16  1  0  0  0  0
 18 16  1  0  0  0  0
 18 22  1  0  0  0  0
 20 21  1  0  0  0  0
 20 22  1  0  0  0  0
 21 22  1  0  0  0  0
 22 19  1  0  0  0  0
 24 23  1  6  0  0  0
 24 25  1  0  0  0  0
 25 26  1  1  0  0  0
 28 27  1  0  0  0  0
 28 25  1  0  0  0  0
 29 28  2  0  0  0  0
M  END
>  <MODEL>
9

>  <REMARK>
 VINA RESULT:      -5.0      3.733      7.319
  Name = 
  8 active torsions:
  status: ('A' for Active; 'I' for Inactive)
    1  A    between atoms: C_4  and  C_29
    2  A    between atoms: C_5  and  C_6
    3  A    between atoms: C_6  and  N_22
    4  A    between atoms: C_7  and  C_10
    5  A    between atoms: C_11  and  C_15
    6  A    between atoms: C_15  and  C_21
    7  A    between atoms: C_19  and  C_25
    8  A    between atoms: C_25  and  C_29
                            x       y       z     vdW  Elec       q    Type
                         _______ _______ _______ _____ _____    ______ ____

>  <TORSDO>
F 8

$$$$
