=
 OpenBabel11072414473D

 45 50  0  0  1  0  0  0  0  0999 V2000
  160.7840  214.1220  150.4370 O   0  0  0  0  0  0  0  0  0  0  0  0
  160.7290  211.8380  150.9250 N   0  0  0  0  0  0  0  0  0  0  0  0
  160.0870  213.0800  150.5650 C   0  0  0  0  0  0  0  0  0  0  0  0
  162.3220  212.1820  149.0200 C   0  0  1  0  0  3  0  0  0  0  0  0
  160.6710  212.1710  147.3020 O   0  0  0  0  0  1  0  0  0  0  0  0
  161.5190  210.0960  148.0720 C   0  0  0  0  0  2  0  0  0  0  0  0
  161.8390  211.5380  147.7260 C   0  0  2  0  0  3  0  0  0  0  0  0
  161.8470  211.2740  150.1490 C   0  0  2  0  0  3  0  0  0  0  0  0
  163.7190  212.2270  149.0200 O   0  0  0  0  0  1  0  0  0  0  0  0
  161.4530  210.0290  149.5230 N   0  0  0  0  0  0  0  0  0  0  0  0
  161.5940  206.4590  150.6630 C   0  0  0  0  0  0  0  0  0  0  0  0
  161.1580  204.9560  148.7180 C   0  0  0  0  0  2  0  0  0  0  0  0
  161.4120  207.6280  149.7580 C   0  0  0  0  0  0  0  0  0  0  0  0
  161.5570  208.8270  150.2460 N   0  0  0  0  0  0  0  0  0  0  0  0
  161.0400  207.4080  148.3120 C   0  0  0  0  0  2  0  0  0  0  0  0
  161.4190  205.2180  150.1730 C   0  0  0  0  0  3  0  0  0  0  0  0
  160.3170  206.0760  148.1230 C   0  0  0  0  0  2  0  0  0  0  0  0
  161.8860  206.6900  152.1380 C   0  0  2  0  0  0  0  0  0  0  0  0
  163.0580  205.8620  152.6370 C   0  0  0  0  0  2  0  0  0  0  0  0
  161.6430  205.3910  152.8940 C   0  0  1  0  0  3  0  0  0  0  0  0
  160.6920  206.5570  153.0750 C   0  0  1  0  0  3  0  0  0  0  0  0
  160.9800  207.2620  154.3870 C   0  0  0  0  0  2  0  0  0  0  0  0
  159.8310  207.0370  155.3520 C   0  0  0  0  0  2  0  0  0  0  0  0
  160.2560  207.3690  156.7690 C   0  0  0  0  0  2  0  0  0  0  0  0
  161.6760  207.8980  156.7840 C   0  0  0  0  0  1  0  0  0  0  0  0
  159.4330  212.0920  153.0240 C   0  0  2  0  0  3  0  0  0  0  0  0
  160.7990  211.4950  155.1060 C   0  0  0  0  0  2  0  0  0  0  0  0
  161.1160  210.2140  154.3270 C   0  0  0  0  0  2  0  0  0  0  0  0
  160.2970  211.1650  152.1480 C   0  0  2  0  0  3  0  0  0  0  0  0
  161.4820  210.5240  152.8860 C   0  0  0  0  0  2  0  0  0  0  0  0
  160.2040  212.6170  154.2390 C   0  0  0  0  0  2  0  0  0  0  0  0
  158.2310  211.3970  153.4530 N   0  0  0  0  0  2  0  0  0  0  0  0
  156.1220  213.1660  156.2680 C   0  0  0  0  0  3  0  0  0  0  0  0
  157.6660  213.4490  155.3330 S   0  0  0  0  0  0  0  0  0  0  0  0
  157.3420  211.9340  154.4330 C   0  0  0  0  0  0  0  0  0  0  0  0
  155.5020  211.9690  155.7260 N   0  0  0  0  0  0  0  0  0  0  0  0
  156.2460  211.3340  154.7310 N   0  0  0  0  0  0  0  0  0  0  0  0
  157.8660  213.5940  151.6770 C   0  0  0  0  0  1  0  0  0  0  0  0
  158.5990  213.1980  150.4010 C   0  0  1  0  0  3  0  0  0  0  0  0
  158.1950  214.0030  149.1530 C   0  0  2  0  0  3  0  0  0  0  0  0
  156.7300  214.4370  149.2130 C   0  0  0  0  0  1  0  0  0  0  0  0
  158.6490  214.1450  146.9160 O   0  0  0  0  0  1  0  0  0  0  0  0
  158.4580  213.2530  147.9210 N   0  0  0  0  0  0  0  0  0  0  0  0
  157.1060  212.4150  146.0680 C   0  0  0  0  0  1  0  0  0  0  0  0
  157.2410  212.5220  147.5760 C   0  0  0  0  0  2  0  0  0  0  0  0
  1  3  2  0  0  0  0
  3  2  1  0  0  0  0
  4  9  1  6  0  0  0
  4  8  1  0  0  0  0
  6 10  1  0  0  0  0
  7  5  1  1  0  0  0
  7  6  1  0  0  0  0
  7  4  1  0  0  0  0
  8  2  1  6  0  0  0
 10  8  1  0  0  0  0
 10 14  1  0  0  0  0
 12 16  1  0  0  0  0
 13 14  2  0  0  0  0
 13 11  1  0  0  0  0
 15 13  1  0  0  0  0
 16 11  2  0  0  0  0
 17 15  1  0  0  0  0
 17 12  1  0  0  0  0
 18 11  1  6  0  0  0
 18 19  1  0  0  0  0
 18 20  1  0  0  0  0
 18 21  1  0  0  0  0
 20 19  1  1  0  0  0
 20 21  1  0  0  0  0
 21 22  1  1  0  0  0
 22 23  1  0  0  0  0
 23 24  1  0  0  0  0
 24 25  1  0  0  0  0
 26 32  1  1  0  0  0
 26 31  1  0  0  0  0
 28 27  1  0  0  0  0
 29  2  1  6  0  0  0
 29 30  1  0  0  0  0
 29 26  1  0  0  0  0
 30 28  1  0  0  0  0
 31 27  1  0  0  0  0
 32 35  1  0  0  0  0
 34 33  1  0  0  0  0
 35 37  2  0  0  0  0
 35 34  1  0  0  0  0
 36 33  2  0  0  0  0
 37 36  1  0  0  0  0
 39  3  1  0  0  0  0
 39 38  1  1  0  0  0
 40 41  1  1  0  0  0
 40 39  1  0  0  0  0
 42 43  1  0  0  0  0
 43 40  1  0  0  0  0
 44 45  1  0  0  0  0
 45 43  1  0  0  0  0
M  END
>  <MODEL>
1

>  <REMARK>
 VINA RESULT:      -4.8      0.000      0.000
  Name = 
  12 active torsions:
  status: ('A' for Active; 'I' for Inactive)
    1  A    between atoms: C_1  and  N_9
    2  A    between atoms: C_3  and  C_4
    3  A    between atoms: C_11  and  C_43
    4  A    between atoms: C_19  and  N_32
    5  A    between atoms: N_20  and  C_23
    6  A    between atoms: N_20  and  C_35
    7  A    between atoms: C_23  and  C_26
    8  A    between atoms: N_24  and  N_38
    9  A    between atoms: C_26  and  C_33
   10  A    between atoms: C_30  and  N_32
   11  A    between atoms: C_37  and  C_40
   12  A    between atoms: C_37  and  C_43
                            x       y       z     vdW  Elec       q    Type
                         _______ _______ _______ _____ _____    ______ ____

>  <TORSDO>
F 12

$$$$
=
 OpenBabel11072414473D

 45 50  0  0  1  0  0  0  0  0999 V2000
  162.6600  210.6010  151.0180 O   0  0  0  0  0  0  0  0  0  0  0  0
  160.6300  210.9840  152.1110 N   0  0  0  0  0  0  0  0  0  0  0  0
  161.4620  210.9840  150.9310 C   0  0  0  0  0  0  0  0  0  0  0  0
  160.3150  210.0710  154.4240 C   0  0  1  0  0  3  0  0  0  0  0  0
  162.4700  210.6820  155.2350 O   0  0  0  0  0  1  0  0  0  0  0  0
  162.2430  208.6460  154.0410 C   0  0  0  0  0  2  0  0  0  0  0  0
  161.6190  209.5930  155.0500 C   0  0  2  0  0  3  0  0  0  0  0  0
  160.4270  209.7780  152.9320 C   0  0  2  0  0  3  0  0  0  0  0  0
  159.2500  209.3400  154.9590 O   0  0  0  0  0  1  0  0  0  0  0  0
  161.5460  208.8710  152.7860 N   0  0  0  0  0  0  0  0  0  0  0  0
  161.2810  205.8620  150.5620 C   0  0  0  0  0  0  0  0  0  0  0  0
  160.5320  203.9020  151.9160 C   0  0  0  0  0  2  0  0  0  0  0  0
  161.2520  206.6860  151.8020 C   0  0  0  0  0  0  0  0  0  0  0  0
  161.5570  207.9510  151.7220 N   0  0  0  0  0  0  0  0  0  0  0  0
  160.9000  206.0460  153.1220 C   0  0  0  0  0  2  0  0  0  0  0  0
  160.9940  204.5500  150.6420 C   0  0  0  0  0  3  0  0  0  0  0  0
  161.2110  204.5520  153.1130 C   0  0  0  0  0  2  0  0  0  0  0  0
  161.7180  206.4950  149.2500 C   0  0  2  0  0  0  0  0  0  0  0  0
  161.0870  207.8570  149.0200 C   0  0  0  0  0  2  0  0  0  0  0  0
  160.5020  206.6360  148.3450 C   0  0  1  0  0  3  0  0  0  0  0  0
  161.5740  205.6150  148.0140 C   0  0  1  0  0  3  0  0  0  0  0  0
  162.4590  206.1380  146.8990 C   0  0  0  0  0  2  0  0  0  0  0  0
  162.7690  205.0170  145.9240 C   0  0  0  0  0  2  0  0  0  0  0  0
  161.5400  204.6710  145.1060 C   0  0  0  0  0  2  0  0  0  0  0  0
  161.1430  203.2260  145.3340 C   0  0  0  0  0  1  0  0  0  0  0  0
  158.6200  212.0410  153.1050 C   0  0  2  0  0  3  0  0  0  0  0  0
  157.7050  213.9610  151.6790 C   0  0  0  0  0  2  0  0  0  0  0  0
  159.1560  214.4530  151.7080 C   0  0  0  0  0  2  0  0  0  0  0  0
  160.0370  212.2490  152.5400 C   0  0  2  0  0  3  0  0  0  0  0  0
  160.1260  213.3150  151.4380 C   0  0  0  0  0  2  0  0  0  0  0  0
  157.5360  212.4980  152.1240 C   0  0  0  0  0  2  0  0  0  0  0  0
  158.4790  212.7390  154.3720 N   0  0  0  0  0  2  0  0  0  0  0  0
  155.4560  211.6250  156.6360 C   0  0  0  0  0  3  0  0  0  0  0  0
  156.1680  211.2140  155.0030 S   0  0  0  0  0  0  0  0  0  0  0  0
  157.4590  212.4160  155.3180 C   0  0  0  0  0  0  0  0  0  0  0  0
  156.3400  212.5950  157.2610 N   0  0  0  0  0  0  0  0  0  0  0  0
  157.4100  212.9980  156.4620 N   0  0  0  0  0  0  0  0  0  0  0  0
  159.5300  211.9750  149.6190 C   0  0  0  0  0  1  0  0  0  0  0  0
  160.9750  211.4930  149.6040 C   0  0  1  0  0  3  0  0  0  0  0  0
  161.9670  212.4590  148.9320 C   0  0  2  0  0  3  0  0  0  0  0  0
  161.3670  213.8550  148.7650 C   0  0  0  0  0  1  0  0  0  0  0  0
  163.7370  212.2760  147.4950 O   0  0  0  0  0  1  0  0  0  0  0  0
  162.4300  211.9420  147.6400 N   0  0  0  0  0  0  0  0  0  0  0  0
  162.6990  213.4300  145.7240 C   0  0  0  0  0  1  0  0  0  0  0  0
  161.7160  212.6630  146.5900 C   0  0  0  0  0  2  0  0  0  0  0  0
  3  1  2  0  0  0  0
  3  2  1  0  0  0  0
  4  9  1  1  0  0  0
  4  7  1  0  0  0  0
  6  7  1  0  0  0  0
  7  5  1  6  0  0  0
  8  2  1  6  0  0  0
  8  4  1  0  0  0  0
 10  8  1  0  0  0  0
 10  6  1  0  0  0  0
 11 16  2  0  0  0  0
 11 13  1  0  0  0  0
 12 17  1  0  0  0  0
 13 15  1  0  0  0  0
 14 13  2  0  0  0  0
 14 10  1  0  0  0  0
 16 12  1  0  0  0  0
 17 15  1  0  0  0  0
 18 11  1  1  0  0  0
 19 18  1  0  0  0  0
 20 19  1  6  0  0  0
 20 18  1  0  0  0  0
 21 22  1  6  0  0  0
 21 20  1  0  0  0  0
 21 18  1  0  0  0  0
 23 22  1  0  0  0  0
 24 25  1  0  0  0  0
 24 23  1  0  0  0  0
 26 32  1  1  0  0  0
 27 28  1  0  0  0  0
 27 31  1  0  0  0  0
 29  2  1  6  0  0  0
 29 26  1  0  0  0  0
 30 28  1  0  0  0  0
 30 29  1  0  0  0  0
 31 26  1  0  0  0  0
 32 35  1  0  0  0  0
 33 36  2  0  0  0  0
 34 35  1  0  0  0  0
 34 33  1  0  0  0  0
 35 37  2  0  0  0  0
 37 36  1  0  0  0  0
 39 38  1  1  0  0  0
 39  3  1  0  0  0  0
 40 41  1  6  0  0  0
 40 39  1  0  0  0  0
 42 43  1  0  0  0  0
 43 40  1  0  0  0  0
 44 45  1  0  0  0  0
 45 43  1  0  0  0  0
M  END
>  <MODEL>
2

>  <REMARK>
 VINA RESULT:      -3.7      2.225      5.147
  Name = 
  12 active torsions:
  status: ('A' for Active; 'I' for Inactive)
    1  A    between atoms: C_1  and  N_9
    2  A    between atoms: C_3  and  C_4
    3  A    between atoms: C_11  and  C_43
    4  A    between atoms: C_19  and  N_32
    5  A    between atoms: N_20  and  C_23
    6  A    between atoms: N_20  and  C_35
    7  A    between atoms: C_23  and  C_26
    8  A    between atoms: N_24  and  N_38
    9  A    between atoms: C_26  and  C_33
   10  A    between atoms: C_30  and  N_32
   11  A    between atoms: C_37  and  C_40
   12  A    between atoms: C_37  and  C_43
                            x       y       z     vdW  Elec       q    Type
                         _______ _______ _______ _____ _____    ______ ____

>  <TORSDO>
F 12

$$$$
=
 OpenBabel11072414473D

 45 50  0  0  1  0  0  0  0  0999 V2000
  162.6640  206.6330  152.1500 O   0  0  0  0  0  0  0  0  0  0  0  0
  161.4020  208.4570  151.4150 N   0  0  0  0  0  0  0  0  0  0  0  0
  161.6170  207.0390  151.5780 C   0  0  0  0  0  0  0  0  0  0  0  0
  162.0360  208.8010  153.8160 C   0  0  1  0  0  3  0  0  0  0  0  0
  160.5170  207.2000  154.7130 O   0  0  0  0  0  1  0  0  0  0  0  0
  159.7240  209.3890  154.2620 C   0  0  0  0  0  2  0  0  0  0  0  0
  160.8780  208.5460  154.7720 C   0  0  2  0  0  3  0  0  0  0  0  0
  161.4220  209.3930  152.5530 C   0  0  2  0  0  3  0  0  0  0  0  0
  162.9090  209.7330  154.3860 O   0  0  0  0  0  1  0  0  0  0  0  0
  160.0750  209.7860  152.9090 N   0  0  0  0  0  0  0  0  0  0  0  0
  158.2180  212.8950  151.9330 C   0  0  0  0  0  0  0  0  0  0  0  0
  157.2360  213.9420  153.9760 C   0  0  0  0  0  2  0  0  0  0  0  0
  158.7580  211.8050  152.7930 C   0  0  0  0  0  0  0  0  0  0  0  0
  159.4670  210.8620  152.2390 N   0  0  0  0  0  0  0  0  0  0  0  0
  158.4580  211.7950  154.2720 C   0  0  0  0  0  2  0  0  0  0  0  0
  157.4630  213.8570  152.4940 C   0  0  0  0  0  3  0  0  0  0  0  0
  157.1650  212.5460  154.5790 C   0  0  0  0  0  2  0  0  0  0  0  0
  158.4530  212.8530  150.4310 C   0  0  2  0  0  0  0  0  0  0  0  0
  159.7260  213.5740  150.0200 C   0  0  0  0  0  2  0  0  0  0  0  0
  158.3910  214.2730  149.8860 C   0  0  1  0  0  3  0  0  0  0  0  0
  157.2780  213.2940  149.5680 C   0  0  1  0  0  3  0  0  0  0  0  0
  157.4440  212.7640  148.1560 C   0  0  0  0  0  2  0  0  0  0  0  0
  157.2800  213.8970  147.1610 C   0  0  0  0  0  2  0  0  0  0  0  0
  158.4710  213.9590  146.2250 C   0  0  0  0  0  2  0  0  0  0  0  0
  159.2480  212.6580  146.2740 C   0  0  0  0  0  1  0  0  0  0  0  0
  161.9390  208.0840  149.0230 C   0  0  2  0  0  3  0  0  0  0  0  0
  163.0550  210.1150  147.9330 C   0  0  0  0  0  2  0  0  0  0  0  0
  161.8740  210.8810  148.5400 C   0  0  0  0  0  2  0  0  0  0  0  0
  161.2390  208.9820  150.0610 C   0  0  2  0  0  3  0  0  0  0  0  0
  161.6330  210.4640  149.9810 C   0  0  0  0  0  2  0  0  0  0  0  0
  163.2440  208.7040  148.5150 C   0  0  0  0  0  2  0  0  0  0  0  0
  161.0430  207.8150  147.9110 N   0  0  0  0  0  2  0  0  0  0  0  0
  162.1310  204.9180  145.4760 C   0  0  0  0  0  3  0  0  0  0  0  0
  162.7600  205.7560  146.9740 S   0  0  0  0  0  0  0  0  0  0  0  0
  161.2800  206.7670  146.9700 C   0  0  0  0  0  0  0  0  0  0  0  0
  160.8190  205.4720  145.1900 N   0  0  0  0  0  0  0  0  0  0  0  0
  160.4290  206.5020  146.0450 N   0  0  0  0  0  0  0  0  0  0  0  0
  159.8280  206.5130  149.8580 C   0  0  0  0  0  1  0  0  0  0  0  0
  160.6670  206.0130  151.0270 C   0  0  1  0  0  3  0  0  0  0  0  0
  161.3300  204.6430  150.8020 C   0  0  2  0  0  3  0  0  0  0  0  0
  161.2640  204.2210  149.3340 C   0  0  0  0  0  1  0  0  0  0  0  0
  160.8680  204.0080  152.9500 O   0  0  0  0  0  1  0  0  0  0  0  0
  160.7370  203.6110  151.6590 N   0  0  0  0  0  0  0  0  0  0  0  0
  160.8990  201.4420  150.5520 C   0  0  0  0  0  1  0  0  0  0  0  0
  161.5480  202.4040  151.5300 C   0  0  0  0  0  2  0  0  0  0  0  0
  2  3  1  0  0  0  0
  3  1  2  0  0  0  0
  4  9  1  1  0  0  0
  4  7  1  0  0  0  0
  6  7  1  0  0  0  0
  7  5  1  6  0  0  0
  8  2  1  6  0  0  0
  8 10  1  0  0  0  0
  8  4  1  0  0  0  0
 10  6  1  0  0  0  0
 11 16  2  0  0  0  0
 11 13  1  0  0  0  0
 12 17  1  0  0  0  0
 13 15  1  0  0  0  0
 14 13  2  0  0  0  0
 14 10  1  0  0  0  0
 15 17  1  0  0  0  0
 16 12  1  0  0  0  0
 18 11  1  1  0  0  0
 19 18  1  0  0  0  0
 20 19  1  6  0  0  0
 20 18  1  0  0  0  0
 21 22  1  6  0  0  0
 21 20  1  0  0  0  0
 21 18  1  0  0  0  0
 23 22  1  0  0  0  0
 24 25  1  0  0  0  0
 24 23  1  0  0  0  0
 26 32  1  6  0  0  0
 26 29  1  0  0  0  0
 27 31  1  0  0  0  0
 27 28  1  0  0  0  0
 28 30  1  0  0  0  0
 29  2  1  1  0  0  0
 30 29  1  0  0  0  0
 31 26  1  0  0  0  0
 33 34  1  0  0  0  0
 35 34  1  0  0  0  0
 35 32  1  0  0  0  0
 36 33  2  0  0  0  0
 36 37  1  0  0  0  0
 37 35  2  0  0  0  0
 39 38  1  6  0  0  0
 39  3  1  0  0  0  0
 40 41  1  6  0  0  0
 40 39  1  0  0  0  0
 40 43  1  0  0  0  0
 43 42  1  0  0  0  0
 44 45  1  0  0  0  0
 45 43  1  0  0  0  0
M  END
>  <MODEL>
3

>  <REMARK>
 VINA RESULT:      -3.2      3.616      8.916
  Name = 
  12 active torsions:
  status: ('A' for Active; 'I' for Inactive)
    1  A    between atoms: C_1  and  N_9
    2  A    between atoms: C_3  and  C_4
    3  A    between atoms: C_11  and  C_43
    4  A    between atoms: C_19  and  N_32
    5  A    between atoms: N_20  and  C_23
    6  A    between atoms: N_20  and  C_35
    7  A    between atoms: C_23  and  C_26
    8  A    between atoms: N_24  and  N_38
    9  A    between atoms: C_26  and  C_33
   10  A    between atoms: C_30  and  N_32
   11  A    between atoms: C_37  and  C_40
   12  A    between atoms: C_37  and  C_43
                            x       y       z     vdW  Elec       q    Type
                         _______ _______ _______ _____ _____    ______ ____

>  <TORSDO>
F 12

$$$$
=
 OpenBabel11072414473D

 45 50  0  0  1  0  0  0  0  0999 V2000
  162.3660  209.8730  151.1320 O   0  0  0  0  0  0  0  0  0  0  0  0
  160.8060  211.3080  150.1480 N   0  0  0  0  0  0  0  0  0  0  0  0
  161.7300  210.2000  150.0930 C   0  0  0  0  0  0  0  0  0  0  0  0
  158.8730  212.6410  151.0260 C   0  0  1  0  0  3  0  0  0  0  0  0
  160.1740  214.4510  151.8670 O   0  0  0  0  0  1  0  0  0  0  0  0
  159.8940  212.5290  153.2260 C   0  0  0  0  0  2  0  0  0  0  0  0
  159.2430  213.4830  152.2410 C   0  0  2  0  0  3  0  0  0  0  0  0
  159.7030  211.3670  151.1230 C   0  0  2  0  0  3  0  0  0  0  0  0
  157.5150  212.3150  151.0860 O   0  0  0  0  0  1  0  0  0  0  0  0
  160.2190  211.3280  152.4760 N   0  0  0  0  0  0  0  0  0  0  0  0
  161.1390  208.5140  154.7790 C   0  0  0  0  0  0  0  0  0  0  0  0
  161.9800  209.4560  156.9330 C   0  0  0  0  0  2  0  0  0  0  0  0
  160.9640  209.9060  154.2780 C   0  0  0  0  0  0  0  0  0  0  0  0
  160.4780  210.0850  153.0830 N   0  0  0  0  0  0  0  0  0  0  0  0
  161.3720  211.0730  155.1430 C   0  0  0  0  0  2  0  0  0  0  0  0
  161.6660  208.3200  156.0020 C   0  0  0  0  0  3  0  0  0  0  0  0
  162.4520  210.6690  156.1440 C   0  0  0  0  0  2  0  0  0  0  0  0
  160.8050  207.3410  153.8700 C   0  0  2  0  0  0  0  0  0  0  0  0
  160.4080  206.0970  154.6460 C   0  0  0  0  0  2  0  0  0  0  0  0
  161.8170  206.2300  154.1130 C   0  0  1  0  0  3  0  0  0  0  0  0
  161.8500  207.0090  152.8120 C   0  0  1  0  0  3  0  0  0  0  0  0
  161.2210  206.1880  151.7020 C   0  0  0  0  0  2  0  0  0  0  0  0
  161.9290  204.8510  151.5890 C   0  0  0  0  0  2  0  0  0  0  0  0
  160.9220  203.7200  151.5380 C   0  0  0  0  0  2  0  0  0  0  0  0
  159.9720  203.9090  150.3720 C   0  0  0  0  0  1  0  0  0  0  0  0
  160.4190  212.1840  147.8610 C   0  0  2  0  0  3  0  0  0  0  0  0
  162.5820  212.9330  146.7120 C   0  0  0  0  0  2  0  0  0  0  0  0
  162.8050  213.7150  148.0100 C   0  0  0  0  0  2  0  0  0  0  0  0
  161.0290  212.4410  149.2520 C   0  0  2  0  0  3  0  0  0  0  0  0
  162.5070  212.8550  149.2270 C   0  0  0  0  0  2  0  0  0  0  0  0
  161.4900  211.8540  146.8170 C   0  0  0  0  0  2  0  0  0  0  0  0
  159.6400  213.3350  147.4370 N   0  0  0  0  0  2  0  0  0  0  0  0
  158.4890  213.3520  143.6710 C   0  0  0  0  0  3  0  0  0  0  0  0
  159.4600  212.2930  144.8010 S   0  0  0  0  0  0  0  0  0  0  0  0
  159.1150  213.4620  146.1140 C   0  0  0  0  0  0  0  0  0  0  0  0
  157.9560  214.4490  144.4600 N   0  0  0  0  0  0  0  0  0  0  0  0
  158.3630  214.4530  145.7930 N   0  0  0  0  0  0  0  0  0  0  0  0
  163.3080  209.8890  148.1320 C   0  0  0  0  0  1  0  0  0  0  0  0
  162.0200  209.4570  148.8210 C   0  0  1  0  0  3  0  0  0  0  0  0
  161.8490  207.9340  148.9640 C   0  0  2  0  0  3  0  0  0  0  0  0
  163.1980  207.2170  148.9950 C   0  0  0  0  0  1  0  0  0  0  0  0
  160.0650  206.5890  148.4740 O   0  0  0  0  0  1  0  0  0  0  0  0
  161.0010  207.3860  147.9000 N   0  0  0  0  0  0  0  0  0  0  0  0
  161.4250  205.0560  147.3080 C   0  0  0  0  0  1  0  0  0  0  0  0
  161.8280  206.5020  147.0830 C   0  0  0  0  0  2  0  0  0  0  0  0
  3  2  1  0  0  0  0
  3  1  2  0  0  0  0
  4  9  1  1  0  0  0
  4  8  1  0  0  0  0
  4  7  1  0  0  0  0
  7  5  1  6  0  0  0
  7  6  1  0  0  0  0
  8  2  1  6  0  0  0
  8 10  1  0  0  0  0
 10 14  1  0  0  0  0
 10  6  1  0  0  0  0
 11 16  2  0  0  0  0
 13 11  1  0  0  0  0
 13 15  1  0  0  0  0
 14 13  2  0  0  0  0
 15 17  1  0  0  0  0
 16 12  1  0  0  0  0
 17 12  1  0  0  0  0
 18 20  1  0  0  0  0
 18 19  1  0  0  0  0
 18 11  1  1  0  0  0
 20 19  1  6  0  0  0
 21 22  1  6  0  0  0
 21 18  1  0  0  0  0
 21 20  1  0  0  0  0
 23 22  1  0  0  0  0
 24 23  1  0  0  0  0
 25 24  1  0  0  0  0
 26 32  1  6  0  0  0
 26 29  1  0  0  0  0
 27 31  1  0  0  0  0
 27 28  1  0  0  0  0
 28 30  1  0  0  0  0
 29  2  1  1  0  0  0
 30 29  1  0  0  0  0
 31 26  1  0  0  0  0
 33 36  2  0  0  0  0
 33 34  1  0  0  0  0
 34 35  1  0  0  0  0
 35 32  1  0  0  0  0
 36 37  1  0  0  0  0
 37 35  2  0  0  0  0
 39 38  1  1  0  0  0
 39 40  1  0  0  0  0
 39  3  1  0  0  0  0
 40 41  1  6  0  0  0
 43 42  1  0  0  0  0
 43 40  1  0  0  0  0
 45 44  1  0  0  0  0
 45 43  1  0  0  0  0
M  END
>  <MODEL>
4

>  <REMARK>
 VINA RESULT:      -3.0      2.770      6.721
  Name = 
  12 active torsions:
  status: ('A' for Active; 'I' for Inactive)
    1  A    between atoms: C_1  and  N_9
    2  A    between atoms: C_3  and  C_4
    3  A    between atoms: C_11  and  C_43
    4  A    between atoms: C_19  and  N_32
    5  A    between atoms: N_20  and  C_23
    6  A    between atoms: N_20  and  C_35
    7  A    between atoms: C_23  and  C_26
    8  A    between atoms: N_24  and  N_38
    9  A    between atoms: C_26  and  C_33
   10  A    between atoms: C_30  and  N_32
   11  A    between atoms: C_37  and  C_40
   12  A    between atoms: C_37  and  C_43
                            x       y       z     vdW  Elec       q    Type
                         _______ _______ _______ _____ _____    ______ ____

>  <TORSDO>
F 12

$$$$
=
 OpenBabel11072414473D

 45 50  0  0  1  0  0  0  0  0999 V2000
  163.2760  211.1340  151.7880 O   0  0  0  0  0  0  0  0  0  0  0  0
  162.0400  209.4990  150.6660 N   0  0  0  0  0  0  0  0  0  0  0  0
  162.5330  210.1190  151.8720 C   0  0  0  0  0  0  0  0  0  0  0  0
  161.9510  210.2320  148.2710 C   0  0  1  0  0  3  0  0  0  0  0  0
  163.8930  211.6100  148.3540 O   0  0  0  0  0  1  0  0  0  0  0  0
  161.8230  212.5250  149.0570 C   0  0  0  0  0  2  0  0  0  0  0  0
  162.5300  211.6260  148.0600 C   0  0  2  0  0  3  0  0  0  0  0  0
  161.2900  210.2490  149.6440 C   0  0  2  0  0  3  0  0  0  0  0  0
  160.9820  209.9820  147.2940 O   0  0  0  0  0  1  0  0  0  0  0  0
  161.1800  211.6440  150.0170 N   0  0  0  0  0  0  0  0  0  0  0  0
  158.0420  213.0490  151.5160 C   0  0  0  0  0  0  0  0  0  0  0  0
  156.7070  214.1700  149.7290 C   0  0  0  0  0  2  0  0  0  0  0  0
  159.0780  212.7300  150.4950 C   0  0  0  0  0  0  0  0  0  0  0  0
  160.1310  212.0540  150.8600 N   0  0  0  0  0  0  0  0  0  0  0  0
  158.9070  213.2110  149.0750 C   0  0  0  0  0  2  0  0  0  0  0  0
  156.9650  213.7690  151.1530 C   0  0  0  0  0  3  0  0  0  0  0  0
  158.0200  214.4520  149.0140 C   0  0  0  0  0  2  0  0  0  0  0  0
  158.2610  212.6340  152.9630 C   0  0  2  0  0  0  0  0  0  0  0  0
  156.9610  212.3070  153.6790 C   0  0  0  0  0  2  0  0  0  0  0  0
  157.6030  213.6630  153.8720 C   0  0  1  0  0  3  0  0  0  0  0  0
  159.1150  213.5800  153.7980 C   0  0  1  0  0  3  0  0  0  0  0  0
  159.6540  212.8540  155.0160 C   0  0  0  0  0  2  0  0  0  0  0  0
  159.4830  213.7230  156.2470 C   0  0  0  0  0  2  0  0  0  0  0  0
  160.5950  213.4580  157.2430 C   0  0  0  0  0  2  0  0  0  0  0  0
  161.2100  212.0950  156.9970 C   0  0  0  0  0  1  0  0  0  0  0  0
  161.5770  207.5310  149.2300 C   0  0  2  0  0  3  0  0  0  0  0  0
  160.9070  205.4600  150.5780 C   0  0  0  0  0  2  0  0  0  0  0  0
  162.1710  205.7800  151.3830 C   0  0  0  0  0  2  0  0  0  0  0  0
  162.3690  208.0950  150.4240 C   0  0  2  0  0  3  0  0  0  0  0  0
  162.2540  207.2610  151.7080 C   0  0  0  0  0  2  0  0  0  0  0  0
  160.4340  206.6150  149.6800 C   0  0  0  0  0  2  0  0  0  0  0  0
  162.4680  206.8190  148.3300 N   0  0  0  0  0  2  0  0  0  0  0  0
  160.8770  205.5570  144.9570 C   0  0  0  0  0  3  0  0  0  0  0  0
  160.3570  206.4450  146.4680 S   0  0  0  0  0  0  0  0  0  0  0  0
  162.0480  206.3400  147.0520 C   0  0  0  0  0  0  0  0  0  0  0  0
  162.3110  205.3450  145.0520 N   0  0  0  0  0  0  0  0  0  0  0  0
  162.8810  205.7850  146.2470 N   0  0  0  0  0  0  0  0  0  0  0  0
  162.5160  210.5390  154.3740 C   0  0  0  0  0  1  0  0  0  0  0  0
  162.2510  209.5590  153.2380 C   0  0  1  0  0  3  0  0  0  0  0  0
  160.8980  208.8310  153.3200 C   0  0  2  0  0  3  0  0  0  0  0  0
  159.7380  209.8170  153.4660 C   0  0  0  0  0  1  0  0  0  0  0  0
  160.3090  206.7120  153.9450 O   0  0  0  0  0  1  0  0  0  0  0  0
  160.8790  207.8520  154.4110 N   0  0  0  0  0  0  0  0  0  0  0  0
  159.6130  207.2360  156.4050 C   0  0  0  0  0  1  0  0  0  0  0  0
  159.9780  208.3530  155.4450 C   0  0  0  0  0  2  0  0  0  0  0  0
  1  3  2  0  0  0  0
  2  3  1  0  0  0  0
  3 39  1  0  0  0  0
  4  9  1  6  0  0  0
  4  8  1  0  0  0  0
  6 10  1  0  0  0  0
  7  4  1  0  0  0  0
  7  5  1  1  0  0  0
  7  6  1  0  0  0  0
  8 10  1  0  0  0  0
  8  2  1  1  0  0  0
 10 14  1  0  0  0  0
 12 16  1  0  0  0  0
 13 14  2  0  0  0  0
 13 11  1  0  0  0  0
 15 13  1  0  0  0  0
 16 11  2  0  0  0  0
 17 15  1  0  0  0  0
 17 12  1  0  0  0  0
 18 11  1  6  0  0  0
 18 19  1  0  0  0  0
 18 21  1  0  0  0  0
 18 20  1  0  0  0  0
 20 19  1  1  0  0  0
 21 20  1  0  0  0  0
 21 22  1  1  0  0  0
 22 23  1  0  0  0  0
 23 24  1  0  0  0  0
 25 24  1  0  0  0  0
 26 32  1  6  0  0  0
 26 31  1  0  0  0  0
 26 29  1  0  0  0  0
 27 28  1  0  0  0  0
 28 30  1  0  0  0  0
 29  2  1  1  0  0  0
 29 30  1  0  0  0  0
 31 27  1  0  0  0  0
 33 36  2  0  0  0  0
 33 34  1  0  0  0  0
 34 35  1  0  0  0  0
 35 32  1  0  0  0  0
 36 37  1  0  0  0  0
 37 35  2  0  0  0  0
 39 40  1  0  0  0  0
 39 38  1  1  0  0  0
 40 41  1  1  0  0  0
 40 43  1  0  0  0  0
 42 43  1  0  0  0  0
 43 45  1  0  0  0  0
 45 44  1  0  0  0  0
M  END
>  <MODEL>
5

>  <REMARK>
 VINA RESULT:      -2.9      2.910      7.551
  Name = 
  12 active torsions:
  status: ('A' for Active; 'I' for Inactive)
    1  A    between atoms: C_1  and  N_9
    2  A    between atoms: C_3  and  C_4
    3  A    between atoms: C_11  and  C_43
    4  A    between atoms: C_19  and  N_32
    5  A    between atoms: N_20  and  C_23
    6  A    between atoms: N_20  and  C_35
    7  A    between atoms: C_23  and  C_26
    8  A    between atoms: N_24  and  N_38
    9  A    between atoms: C_26  and  C_33
   10  A    between atoms: C_30  and  N_32
   11  A    between atoms: C_37  and  C_40
   12  A    between atoms: C_37  and  C_43
                            x       y       z     vdW  Elec       q    Type
                         _______ _______ _______ _____ _____    ______ ____

>  <TORSDO>
F 12

$$$$
=
 OpenBabel11072414473D

 45 50  0  0  1  0  0  0  0  0999 V2000
  162.0850  210.3290  152.5680 O   0  0  0  0  0  0  0  0  0  0  0  0
  160.1030  209.9840  153.7550 N   0  0  0  0  0  0  0  0  0  0  0  0
  160.8300  210.4430  152.5960 C   0  0  0  0  0  0  0  0  0  0  0  0
  160.2530  208.5230  155.7870 C   0  0  1  0  0  3  0  0  0  0  0  0
  162.3550  209.3520  156.5420 O   0  0  0  0  0  1  0  0  0  0  0  0
  162.3340  207.6390  154.9030 C   0  0  0  0  0  2  0  0  0  0  0  0
  161.6910  208.1860  156.1640 C   0  0  2  0  0  3  0  0  0  0  0  0
  160.2210  208.6060  154.2650 C   0  0  2  0  0  3  0  0  0  0  0  0
  159.4100  207.4910  156.2110 O   0  0  0  0  0  1  0  0  0  0  0  0
  161.4530  207.9990  153.8050 N   0  0  0  0  0  0  0  0  0  0  0  0
  161.2430  205.6250  150.9100 C   0  0  0  0  0  0  0  0  0  0  0  0
  160.4890  203.3910  151.7310 C   0  0  0  0  0  2  0  0  0  0  0  0
  161.1890  206.1210  152.3130 C   0  0  0  0  0  0  0  0  0  0  0  0
  161.4860  207.3680  152.5490 N   0  0  0  0  0  0  0  0  0  0  0  0
  160.8230  205.1760  153.4310 C   0  0  0  0  0  2  0  0  0  0  0  0
  160.9640  204.3320  150.6620 C   0  0  0  0  0  3  0  0  0  0  0  0
  161.1450  203.7300  153.0620 C   0  0  0  0  0  2  0  0  0  0  0  0
  161.6950  206.5600  149.7990 C   0  0  2  0  0  0  0  0  0  0  0  0
  161.2180  207.9880  150.0080 C   0  0  0  0  0  2  0  0  0  0  0  0
  160.4660  207.0760  149.0630 C   0  0  1  0  0  3  0  0  0  0  0  0
  161.3960  206.0920  148.3810 C   0  0  1  0  0  3  0  0  0  0  0  0
  162.2890  206.8210  147.3940 C   0  0  0  0  0  2  0  0  0  0  0  0
  162.3420  206.0530  146.0870 C   0  0  0  0  0  2  0  0  0  0  0  0
  161.5590  204.7590  146.2000 C   0  0  0  0  0  2  0  0  0  0  0  0
  161.2090  204.2330  144.8220 C   0  0  0  0  0  1  0  0  0  0  0  0
  160.0850  212.2170  154.8320 C   0  0  2  0  0  3  0  0  0  0  0  0
  159.2780  212.1370  157.2610 C   0  0  0  0  0  2  0  0  0  0  0  0
  158.1020  211.3510  156.6690 C   0  0  0  0  0  2  0  0  0  0  0  0
  159.2840  210.9480  154.4870 C   0  0  2  0  0  3  0  0  0  0  0  0
  158.5850  210.2970  155.6890 C   0  0  0  0  0  2  0  0  0  0  0  0
  160.4810  212.2610  156.3110 C   0  0  0  0  0  2  0  0  0  0  0  0
  159.3220  213.4030  154.4790 N   0  0  0  0  0  2  0  0  0  0  0  0
  155.4730  212.8580  153.8520 C   0  0  0  0  0  3  0  0  0  0  0  0
  156.9450  211.8620  154.2780 S   0  0  0  0  0  0  0  0  0  0  0  0
  157.9100  213.3710  154.2650 C   0  0  0  0  0  0  0  0  0  0  0  0
  155.8890  214.2500  153.8170 N   0  0  0  0  0  0  0  0  0  0  0  0
  157.2520  214.4500  154.0340 N   0  0  0  0  0  0  0  0  0  0  0  0
  158.7230  211.5580  151.7290 C   0  0  0  0  0  1  0  0  0  0  0  0
  160.1540  211.1220  151.4390 C   0  0  1  0  0  3  0  0  0  0  0  0
  161.0320  212.1990  150.7800 C   0  0  2  0  0  3  0  0  0  0  0  0
  160.3780  213.5790  150.8520 C   0  0  0  0  0  1  0  0  0  0  0  0
  162.3780  210.9670  149.4000 O   0  0  0  0  0  1  0  0  0  0  0  0
  161.3530  211.8560  149.3900 N   0  0  0  0  0  0  0  0  0  0  0  0
  161.3520  213.1510  147.3210 C   0  0  0  0  0  1  0  0  0  0  0  0
  161.8740  213.0570  148.7430 C   0  0  0  0  0  2  0  0  0  0  0  0
  1  3  2  0  0  0  0
  3  2  1  0  0  0  0
  4  7  1  0  0  0  0
  4  9  1  6  0  0  0
  6  7  1  0  0  0  0
  7  5  1  6  0  0  0
  8  2  1  1  0  0  0
  8  4  1  0  0  0  0
 10  8  1  0  0  0  0
 10  6  1  0  0  0  0
 11 13  1  0  0  0  0
 12 17  1  0  0  0  0
 13 14  2  0  0  0  0
 13 15  1  0  0  0  0
 14 10  1  0  0  0  0
 16 11  2  0  0  0  0
 16 12  1  0  0  0  0
 17 15  1  0  0  0  0
 18 19  1  0  0  0  0
 18 11  1  1  0  0  0
 20 18  1  0  0  0  0
 20 19  1  6  0  0  0
 21 22  1  6  0  0  0
 21 20  1  0  0  0  0
 21 18  1  0  0  0  0
 23 24  1  0  0  0  0
 23 22  1  0  0  0  0
 25 24  1  0  0  0  0
 26 32  1  1  0  0  0
 26 31  1  0  0  0  0
 28 27  1  0  0  0  0
 29  2  1  1  0  0  0
 29 26  1  0  0  0  0
 29 30  1  0  0  0  0
 30 28  1  0  0  0  0
 31 27  1  0  0  0  0
 33 34  1  0  0  0  0
 35 34  1  0  0  0  0
 35 32  1  0  0  0  0
 36 33  2  0  0  0  0
 36 37  1  0  0  0  0
 37 35  2  0  0  0  0
 39 38  1  1  0  0  0
 39  3  1  0  0  0  0
 40 41  1  6  0  0  0
 40 39  1  0  0  0  0
 43 42  1  0  0  0  0
 43 40  1  0  0  0  0
 44 45  1  0  0  0  0
 45 43  1  0  0  0  0
M  END
>  <MODEL>
6

>  <REMARK>
 VINA RESULT:      -2.3      2.673      5.332
  Name = 
  12 active torsions:
  status: ('A' for Active; 'I' for Inactive)
    1  A    between atoms: C_1  and  N_9
    2  A    between atoms: C_3  and  C_4
    3  A    between atoms: C_11  and  C_43
    4  A    between atoms: C_19  and  N_32
    5  A    between atoms: N_20  and  C_23
    6  A    between atoms: N_20  and  C_35
    7  A    between atoms: C_23  and  C_26
    8  A    between atoms: N_24  and  N_38
    9  A    between atoms: C_26  and  C_33
   10  A    between atoms: C_30  and  N_32
   11  A    between atoms: C_37  and  C_40
   12  A    between atoms: C_37  and  C_43
                            x       y       z     vdW  Elec       q    Type
                         _______ _______ _______ _____ _____    ______ ____

>  <TORSDO>
F 12

$$$$
=
 OpenBabel11072414473D

 45 50  0  0  1  0  0  0  0  0999 V2000
  160.7100  213.2540  151.3710 O   0  0  0  0  0  0  0  0  0  0  0  0
  160.8410  210.9410  151.6720 N   0  0  0  0  0  0  0  0  0  0  0  0
  160.0930  212.1610  151.4850 C   0  0  0  0  0  0  0  0  0  0  0  0
  162.5920  211.6730  150.0340 C   0  0  1  0  0  3  0  0  0  0  0  0
  161.0810  212.5970  148.4410 O   0  0  0  0  0  1  0  0  0  0  0  0
  161.5150  210.2680  148.3730 C   0  0  0  0  0  2  0  0  0  0  0  0
  162.0950  211.6530  148.5940 C   0  0  2  0  0  3  0  0  0  0  0  0
  161.8980  210.5130  150.7390 C   0  0  2  0  0  3  0  0  0  0  0  0
  163.9740  211.4620  150.0490 O   0  0  0  0  0  1  0  0  0  0  0  0
  161.3440  209.6820  149.6910 N   0  0  0  0  0  0  0  0  0  0  0  0
  161.1560  205.9460  149.4180 C   0  0  0  0  0  0  0  0  0  0  0  0
  161.5930  205.2710  147.0540 C   0  0  0  0  0  2  0  0  0  0  0  0
  161.3060  207.3690  149.0040 C   0  0  0  0  0  0  0  0  0  0  0  0
  161.1970  208.3000  149.9080 N   0  0  0  0  0  0  0  0  0  0  0  0
  161.5520  207.7080  147.5540 C   0  0  0  0  0  2  0  0  0  0  0  0
  161.2400  204.9800  148.4840 C   0  0  0  0  0  3  0  0  0  0  0  0
  161.0170  206.6150  146.6310 C   0  0  0  0  0  2  0  0  0  0  0  0
  160.8250  205.6160  150.8650 C   0  0  2  0  0  0  0  0  0  0  0  0
  160.8440  206.8420  151.7620 C   0  0  0  0  0  2  0  0  0  0  0  0
  162.0420  205.9190  151.7280 C   0  0  1  0  0  3  0  0  0  0  0  0
  161.6300  204.4800  151.4830 C   0  0  1  0  0  3  0  0  0  0  0  0
  160.9080  203.9340  152.7000 C   0  0  0  0  0  2  0  0  0  0  0  0
  160.4280  202.5220  152.4200 C   0  0  0  0  0  2  0  0  0  0  0  0
  161.2850  201.8730  151.3520 C   0  0  0  0  0  2  0  0  0  0  0  0
  160.4830  201.6710  150.0820 C   0  0  0  0  0  1  0  0  0  0  0  0
  160.5030  211.0430  154.1260 C   0  0  2  0  0  3  0  0  0  0  0  0
  162.0920  209.4970  155.4070 C   0  0  0  0  0  2  0  0  0  0  0  0
  161.5930  208.4390  154.4170 C   0  0  0  0  0  2  0  0  0  0  0  0
  160.5860  210.1500  152.8750 C   0  0  2  0  0  3  0  0  0  0  0  0
  161.5740  208.9810  152.9990 C   0  0  0  0  0  2  0  0  0  0  0  0
  161.7640  210.9400  154.9910 C   0  0  0  0  0  2  0  0  0  0  0  0
  159.3270  210.7000  154.9080 N   0  0  0  0  0  2  0  0  0  0  0  0
  157.7390  213.6200  157.0190 C   0  0  0  0  0  3  0  0  0  0  0  0
  159.1580  213.3570  155.8970 S   0  0  0  0  0  0  0  0  0  0  0  0
  158.6160  211.6620  155.6890 C   0  0  0  0  0  0  0  0  0  0  0  0
  156.9750  212.3850  157.0460 N   0  0  0  0  0  0  0  0  0  0  0  0
  157.5340  211.3440  156.3050 N   0  0  0  0  0  0  0  0  0  0  0  0
  157.9540  211.1660  152.4170 C   0  0  0  0  0  1  0  0  0  0  0  0
  158.5910  212.1920  151.4890 C   0  0  1  0  0  3  0  0  0  0  0  0
  158.0210  213.6150  151.6180 C   0  0  2  0  0  3  0  0  0  0  0  0
  157.1010  213.7440  152.8320 C   0  0  0  0  0  1  0  0  0  0  0  0
  155.9950  214.1090  150.6780 O   0  0  0  0  0  1  0  0  0  0  0  0
  157.3200  214.0280  150.3980 N   0  0  0  0  0  0  0  0  0  0  0  0
  157.2360  213.4870  148.0190 C   0  0  0  0  0  1  0  0  0  0  0  0
  157.4550  212.9500  149.4210 C   0  0  0  0  0  2  0  0  0  0  0  0
  1  3  2  0  0  0  0
  3 39  1  0  0  0  0
  3  2  1  0  0  0  0
  4  9  1  6  0  0  0
  4  8  1  0  0  0  0
  6  7  1  0  0  0  0
  6 10  1  0  0  0  0
  7  5  1  1  0  0  0
  7  4  1  0  0  0  0
  8  2  1  1  0  0  0
 10 14  1  0  0  0  0
 10  8  1  0  0  0  0
 12 16  1  0  0  0  0
 13 11  1  0  0  0  0
 13 14  2  0  0  0  0
 15 13  1  0  0  0  0
 16 11  2  0  0  0  0
 17 12  1  0  0  0  0
 17 15  1  0  0  0  0
 18 11  1  6  0  0  0
 18 21  1  0  0  0  0
 18 20  1  0  0  0  0
 18 19  1  0  0  0  0
 20 19  1  1  0  0  0
 21 20  1  0  0  0  0
 21 22  1  1  0  0  0
 23 22  1  0  0  0  0
 24 23  1  0  0  0  0
 25 24  1  0  0  0  0
 26 32  1  1  0  0  0
 26 31  1  0  0  0  0
 28 27  1  0  0  0  0
 29  2  1  6  0  0  0
 29 30  1  0  0  0  0
 29 26  1  0  0  0  0
 30 28  1  0  0  0  0
 31 27  1  0  0  0  0
 32 35  1  0  0  0  0
 33 36  2  0  0  0  0
 34 33  1  0  0  0  0
 35 34  1  0  0  0  0
 35 37  2  0  0  0  0
 37 36  1  0  0  0  0
 39 40  1  0  0  0  0
 39 38  1  1  0  0  0
 40 41  1  1  0  0  0
 43 42  1  0  0  0  0
 43 40  1  0  0  0  0
 44 45  1  0  0  0  0
 45 43  1  0  0  0  0
M  END
>  <MODEL>
7

>  <REMARK>
 VINA RESULT:      -2.0      1.727      2.764
  Name = 
  12 active torsions:
  status: ('A' for Active; 'I' for Inactive)
    1  A    between atoms: C_1  and  N_9
    2  A    between atoms: C_3  and  C_4
    3  A    between atoms: C_11  and  C_43
    4  A    between atoms: C_19  and  N_32
    5  A    between atoms: N_20  and  C_23
    6  A    between atoms: N_20  and  C_35
    7  A    between atoms: C_23  and  C_26
    8  A    between atoms: N_24  and  N_38
    9  A    between atoms: C_26  and  C_33
   10  A    between atoms: C_30  and  N_32
   11  A    between atoms: C_37  and  C_40
   12  A    between atoms: C_37  and  C_43
                            x       y       z     vdW  Elec       q    Type
                         _______ _______ _______ _____ _____    ______ ____

>  <TORSDO>
F 12

$$$$
=
 OpenBabel11072414473D

 45 50  0  0  1  0  0  0  0  0999 V2000
  159.3720  209.9230  152.0800 O   0  0  0  0  0  0  0  0  0  0  0  0
  160.8790  210.1410  153.8530 N   0  0  0  0  0  0  0  0  0  0  0  0
  160.5750  209.9230  152.4590 C   0  0  0  0  0  0  0  0  0  0  0  0
  160.4210  211.1510  156.1010 C   0  0  1  0  0  3  0  0  0  0  0  0
  158.6700  209.6510  156.7020 O   0  0  0  0  0  1  0  0  0  0  0  0
  158.1370  211.5410  155.3750 C   0  0  0  0  0  2  0  0  0  0  0  0
  158.9650  211.0020  156.5270 C   0  0  2  0  0  3  0  0  0  0  0  0
  160.4050  211.3270  154.5880 C   0  0  2  0  0  3  0  0  0  0  0  0
  160.9600  212.2960  156.6950 O   0  0  0  0  0  1  0  0  0  0  0  0
  159.0330  211.6280  154.2340 N   0  0  0  0  0  0  0  0  0  0  0  0
  157.5450  213.8520  151.6070 C   0  0  0  0  0  0  0  0  0  0  0  0
  155.1950  214.4120  152.2370 C   0  0  0  0  0  2  0  0  0  0  0  0
  157.6410  213.0190  152.8380 C   0  0  0  0  0  0  0  0  0  0  0  0
  158.7670  212.4190  153.1020 N   0  0  0  0  0  0  0  0  0  0  0  0
  156.4390  212.8640  153.7360 C   0  0  0  0  0  2  0  0  0  0  0  0
  156.3780  214.4530  151.3130 C   0  0  0  0  0  3  0  0  0  0  0  0
  155.1390  213.0760  152.9630 C   0  0  0  0  0  2  0  0  0  0  0  0
  158.7340  213.9360  150.6620 C   0  0  2  0  0  0  0  0  0  0  0  0
  158.3500  214.4510  149.2850 C   0  0  0  0  0  2  0  0  0  0  0  0
  158.5140  212.9640  149.5110 C   0  0  1  0  0  3  0  0  0  0  0  0
  159.5780  212.6720  150.5510 C   0  0  1  0  0  3  0  0  0  0  0  0
  160.9500  213.0110  149.9980 C   0  0  0  0  0  2  0  0  0  0  0  0
  161.2410  212.1460  148.7860 C   0  0  0  0  0  2  0  0  0  0  0  0
  161.6440  213.0060  147.6050 C   0  0  0  0  0  2  0  0  0  0  0  0
  162.4660  214.1920  148.0710 C   0  0  0  0  0  1  0  0  0  0  0  0
  160.9140  207.7380  154.4630 C   0  0  2  0  0  3  0  0  0  0  0  0
  161.1280  207.3630  156.9870 C   0  0  0  0  0  2  0  0  0  0  0  0
  162.3070  208.3350  156.8640 C   0  0  0  0  0  2  0  0  0  0  0  0
  161.6170  209.1040  154.5710 C   0  0  2  0  0  3  0  0  0  0  0  0
  161.9390  209.5360  156.0090 C   0  0  0  0  0  2  0  0  0  0  0  0
  160.1980  207.3560  155.7620 C   0  0  0  0  0  2  0  0  0  0  0  0
  161.8730  206.7100  154.0960 N   0  0  0  0  0  2  0  0  0  0  0  0
  160.6560  204.0800  151.4300 C   0  0  0  0  0  3  0  0  0  0  0  0
  159.9970  205.5380  152.3150 S   0  0  0  0  0  0  0  0  0  0  0  0
  161.5930  205.7140  153.1110 C   0  0  0  0  0  0  0  0  0  0  0  0
  162.0530  203.9430  151.8040 N   0  0  0  0  0  0  0  0  0  0  0  0
  162.4900  204.8680  152.7520 N   0  0  0  0  0  0  0  0  0  0  0  0
  163.0350  210.0690  151.8580 C   0  0  0  0  0  1  0  0  0  0  0  0
  161.6380  209.6260  151.4410 C   0  0  1  0  0  3  0  0  0  0  0  0
  161.5570  208.1910  150.8910 C   0  0  2  0  0  3  0  0  0  0  0  0
  162.9240  207.5070  150.9040 C   0  0  0  0  0  1  0  0  0  0  0  0
  160.5690  206.8970  149.2860 O   0  0  0  0  0  1  0  0  0  0  0  0
  160.9830  208.1630  149.5420 N   0  0  0  0  0  0  0  0  0  0  0  0
  162.2980  207.2100  147.7200 C   0  0  0  0  0  1  0  0  0  0  0  0
  162.0610  208.4290  148.5930 C   0  0  0  0  0  2  0  0  0  0  0  0
  1  3  2  0  0  0  0
  3  2  1  0  0  0  0
  4  7  1  0  0  0  0
  4  9  1  1  0  0  0
  6  7  1  0  0  0  0
  7  5  1  6  0  0  0
  8  2  1  6  0  0  0
  8  4  1  0  0  0  0
 10  8  1  0  0  0  0
 10  6  1  0  0  0  0
 11 13  1  0  0  0  0
 12 17  1  0  0  0  0
 13 14  2  0  0  0  0
 13 15  1  0  0  0  0
 14 10  1  0  0  0  0
 16 11  2  0  0  0  0
 16 12  1  0  0  0  0
 17 15  1  0  0  0  0
 18 11  1  1  0  0  0
 19 18  1  0  0  0  0
 20 19  1  6  0  0  0
 20 21  1  0  0  0  0
 20 18  1  0  0  0  0
 21 22  1  6  0  0  0
 21 18  1  0  0  0  0
 23 22  1  0  0  0  0
 24 25  1  0  0  0  0
 24 23  1  0  0  0  0
 26 32  1  1  0  0  0
 26 29  1  0  0  0  0
 26 31  1  0  0  0  0
 28 27  1  0  0  0  0
 29  2  1  1  0  0  0
 29 30  1  0  0  0  0
 30 28  1  0  0  0  0
 31 27  1  0  0  0  0
 33 36  2  0  0  0  0
 33 34  1  0  0  0  0
 34 35  1  0  0  0  0
 35 32  1  0  0  0  0
 36 37  1  0  0  0  0
 37 35  2  0  0  0  0
 39 38  1  1  0  0  0
 39  3  1  0  0  0  0
 40 41  1  6  0  0  0
 40 39  1  0  0  0  0
 42 43  1  0  0  0  0
 43 40  1  0  0  0  0
 44 45  1  0  0  0  0
 45 43  1  0  0  0  0
M  END
>  <MODEL>
8

>  <REMARK>
 VINA RESULT:      -1.8      2.945      7.768
  Name = 
  12 active torsions:
  status: ('A' for Active; 'I' for Inactive)
    1  A    between atoms: C_1  and  N_9
    2  A    between atoms: C_3  and  C_4
    3  A    between atoms: C_11  and  C_43
    4  A    between atoms: C_19  and  N_32
    5  A    between atoms: N_20  and  C_23
    6  A    between atoms: N_20  and  C_35
    7  A    between atoms: C_23  and  C_26
    8  A    between atoms: N_24  and  N_38
    9  A    between atoms: C_26  and  C_33
   10  A    between atoms: C_30  and  N_32
   11  A    between atoms: C_37  and  C_40
   12  A    between atoms: C_37  and  C_43
                            x       y       z     vdW  Elec       q    Type
                         _______ _______ _______ _____ _____    ______ ____

>  <TORSDO>
F 12

$$$$
