=
 OpenBabel11072414403D

 26 28  0  0  1  0  0  0  0  0999 V2000
  161.3240  207.1680  149.6260 C   0  0  0  0  0  0  0  0  0  0  0  0
  160.6840  206.0750  147.7600 C   0  0  0  0  0  3  0  0  0  0  0  0
  161.0070  207.2510  147.3350 N   0  0  0  0  0  0  0  0  0  0  0  0
  160.8760  205.9960  149.1970 C   0  0  0  0  0  0  0  0  0  0  0  0
  161.4500  208.0830  148.4490 C   0  0  2  0  0  3  0  0  0  0  0  0
  162.8430  208.4510  148.2540 N   0  0  0  0  0  1  0  0  0  0  0  0
  162.5890  206.9980  151.6160 O   0  0  0  0  0  0  0  0  0  0  0  0
  161.6210  207.5440  151.0220 C   0  0  0  0  0  0  0  0  0  0  0  0
  160.8210  208.5230  151.6990 N   0  0  0  0  0  2  0  0  0  0  0  0
  161.0260  208.9570  153.0760 C   0  0  1  0  0  0  0  0  0  0  0  0
  162.2510  209.6300  153.1600 O   0  0  0  0  0  1  0  0  0  0  0  0
  159.9180  209.5940  157.0490 N   0  0  0  0  0  1  0  0  0  0  0  0
  159.9600  209.8290  153.4250 O   0  0  0  0  0  0  0  0  0  0  0  0
  161.0560  207.7150  153.9880 C   0  0  0  0  0  2  0  0  0  0  0  0
  160.0950  210.3610  154.7390 C   0  0  2  0  0  3  0  0  0  0  0  0
  160.3500  207.9460  155.3200 C   0  0  0  0  0  2  0  0  0  0  0  0
  160.8860  211.5120  154.7270 O   0  0  0  0  0  1  0  0  0  0  0  0
  160.6020  209.3660  155.7900 C   0  0  2  0  0  3  0  0  0  0  0  0
  160.6100  204.8620  150.0370 N   0  0  0  0  0  2  0  0  0  0  0  0
  161.1870  200.7550  149.1410 C   0  0  0  0  0  3  0  0  0  0  0  0
  160.9270  202.5410  150.7580 C   0  0  0  0  0  0  0  0  0  0  0  0
  161.0670  201.6780  148.1000 C   0  0  0  0  0  3  0  0  0  0  0  0
  160.8590  202.9600  152.1180 N   0  0  0  0  0  1  0  0  0  0  0  0
  160.8760  203.0330  148.3870 C   0  0  0  0  0  3  0  0  0  0  0  0
  160.8050  203.4770  149.7170 C   0  0  0  0  0  0  0  0  0  0  0  0
  161.1170  201.1860  150.4670 C   0  0  0  0  0  3  0  0  0  0  0  0
  1  8  1  0  0  0  0
  2  4  1  0  0  0  0
  3  2  2  0  0  0  0
  3  5  1  0  0  0  0
  4  1  2  0  0  0  0
  4 19  1  0  0  0  0
  5  6  1  6  0  0  0
  5  1  1  0  0  0  0
  8  7  2  0  0  0  0
  8  9  1  0  0  0  0
  9 10  1  0  0  0  0
 10 11  1  1  0  0  0
 10 13  1  0  0  0  0
 10 14  1  0  0  0  0
 13 15  1  0  0  0  0
 14 16  1  0  0  0  0
 15 17  1  6  0  0  0
 15 18  1  0  0  0  0
 16 18  1  0  0  0  0
 18 12  1  1  0  0  0
 20 26  1  0  0  0  0
 21 23  1  0  0  0  0
 22 24  1  0  0  0  0
 22 20  2  0  0  0  0
 24 25  2  0  0  0  0
 25 19  1  0  0  0  0
 25 21  1  0  0  0  0
 26 21  2  0  0  0  0
M  END
>  <MODEL>
1

>  <REMARK>
 VINA RESULT:      -8.1      0.000      0.000
  Name = 
  4 active torsions:
  status: ('A' for Active; 'I' for Inactive)
    1  A    between atoms: C_2  and  N_24
    2  A    between atoms: C_4  and  C_5
    3  A    between atoms: N_15  and  C_17
    4  A    between atoms: N_15  and  C_23
                            x       y       z     vdW  Elec       q    Type
                         _______ _______ _______ _____ _____    ______ ____

>  <TORSDO>
F 4

$$$$
=
 OpenBabel11072414403D

 26 28  0  0  1  0  0  0  0  0999 V2000
  161.2870  207.1280  152.4170 C   0  0  0  0  0  0  0  0  0  0  0  0
  161.2860  204.9200  151.9570 C   0  0  0  0  0  3  0  0  0  0  0  0
  161.5560  204.9740  153.2190 N   0  0  0  0  0  0  0  0  0  0  0  0
  161.1100  206.2620  151.4300 C   0  0  0  0  0  0  0  0  0  0  0  0
  161.5890  206.3620  153.6670 C   0  0  2  0  0  3  0  0  0  0  0  0
  160.5380  206.5790  154.6490 N   0  0  0  0  0  1  0  0  0  0  0  0
  162.2120  209.2210  151.8230 O   0  0  0  0  0  0  0  0  0  0  0  0
  161.2350  208.6000  152.3230 C   0  0  0  0  0  0  0  0  0  0  0  0
  160.0870  209.3210  152.7890 N   0  0  0  0  0  2  0  0  0  0  0  0
  159.9420  210.7720  152.7480 C   0  0  1  0  0  0  0  0  0  0  0  0
  160.6520  211.2660  151.6470 O   0  0  0  0  0  1  0  0  0  0  0  0
  158.3690  214.4530  153.9280 N   0  0  0  0  0  1  0  0  0  0  0  0
  158.5590  211.0710  152.6180 O   0  0  0  0  0  0  0  0  0  0  0  0
  160.5240  211.3650  154.0460 C   0  0  0  0  0  2  0  0  0  0  0  0
  158.3090  212.4690  152.5090 C   0  0  2  0  0  3  0  0  0  0  0  0
  159.7000  212.5310  154.5810 C   0  0  0  0  0  2  0  0  0  0  0  0
  158.4110  212.8860  151.1800 O   0  0  0  0  0  1  0  0  0  0  0  0
  159.1670  213.3520  153.4230 C   0  0  2  0  0  3  0  0  0  0  0  0
  160.8180  206.6170  150.0700 N   0  0  0  0  0  2  0  0  0  0  0  0
  162.1680  204.6970  146.5340 C   0  0  0  0  0  3  0  0  0  0  0  0
  161.9370  206.6920  147.8900 C   0  0  0  0  0  0  0  0  0  0  0  0
  161.5040  203.9540  147.5120 C   0  0  0  0  0  3  0  0  0  0  0  0
  162.1670  208.0880  148.0640 N   0  0  0  0  0  1  0  0  0  0  0  0
  161.0570  204.5790  148.6800 C   0  0  0  0  0  3  0  0  0  0  0  0
  161.2680  205.9520  148.8800 C   0  0  0  0  0  0  0  0  0  0  0  0
  162.3840  206.0640  146.7240 C   0  0  0  0  0  3  0  0  0  0  0  0
  1  5  1  0  0  0  0
  2  3  2  0  0  0  0
  3  5  1  0  0  0  0
  4  2  1  0  0  0  0
  4  1  2  0  0  0  0
  5  6  1  1  0  0  0
  7  8  2  0  0  0  0
  8  1  1  0  0  0  0
  8  9  1  0  0  0  0
 10 11  1  6  0  0  0
 10  9  1  0  0  0  0
 10 14  1  0  0  0  0
 13 10  1  0  0  0  0
 14 16  1  0  0  0  0
 15 17  1  6  0  0  0
 15 13  1  0  0  0  0
 15 18  1  0  0  0  0
 18 12  1  1  0  0  0
 18 16  1  0  0  0  0
 19  4  1  0  0  0  0
 20 26  2  0  0  0  0
 20 22  1  0  0  0  0
 21 23  1  0  0  0  0
 21 25  2  0  0  0  0
 22 24  2  0  0  0  0
 24 25  1  0  0  0  0
 25 19  1  0  0  0  0
 26 21  1  0  0  0  0
M  END
>  <MODEL>
2

>  <REMARK>
 VINA RESULT:      -7.7      2.436      4.202
  Name = 
  4 active torsions:
  status: ('A' for Active; 'I' for Inactive)
    1  A    between atoms: C_2  and  N_24
    2  A    between atoms: C_4  and  C_5
    3  A    between atoms: N_15  and  C_17
    4  A    between atoms: N_15  and  C_23
                            x       y       z     vdW  Elec       q    Type
                         _______ _______ _______ _____ _____    ______ ____

>  <TORSDO>
F 4

$$$$
=
 OpenBabel11072414403D

 26 28  0  0  1  0  0  0  0  0999 V2000
  161.0150  204.5850  150.4840 C   0  0  0  0  0  0  0  0  0  0  0  0
  161.2430  204.7910  152.7190 C   0  0  0  0  0  3  0  0  0  0  0  0
  160.6320  203.6630  152.5720 N   0  0  0  0  0  0  0  0  0  0  0  0
  161.4970  205.3900  151.4200 C   0  0  0  0  0  0  0  0  0  0  0  0
  160.4140  203.3900  151.1560 C   0  0  2  0  0  3  0  0  0  0  0  0
  161.1400  202.1890  150.7760 N   0  0  0  0  0  1  0  0  0  0  0  0
  160.5620  205.8980  148.5720 O   0  0  0  0  0  0  0  0  0  0  0  0
  161.0230  204.8170  149.0270 C   0  0  0  0  0  0  0  0  0  0  0  0
  161.5520  203.8280  148.1340 N   0  0  0  0  0  2  0  0  0  0  0  0
  161.5980  203.9570  146.6820 C   0  0  1  0  0  0  0  0  0  0  0  0
  161.6290  202.6770  146.1150 O   0  0  0  0  0  1  0  0  0  0  0  0
  161.4490  206.0230  143.0590 N   0  0  0  0  0  1  0  0  0  0  0  0
  160.4320  204.6530  146.2650 O   0  0  0  0  0  0  0  0  0  0  0  0
  162.8780  204.7240  146.2930 C   0  0  0  0  0  2  0  0  0  0  0  0
  160.3480  204.7830  144.8500 C   0  0  2  0  0  3  0  0  0  0  0  0
  162.6530  205.6960  145.1400 C   0  0  0  0  0  2  0  0  0  0  0  0
  159.7440  203.6570  144.2860 O   0  0  0  0  0  1  0  0  0  0  0  0
  161.6770  205.0930  144.1490 C   0  0  2  0  0  3  0  0  0  0  0  0
  162.1380  206.6500  151.1670 N   0  0  0  0  0  2  0  0  0  0  0  0
  160.9830  210.4870  152.5610 C   0  0  0  0  0  3  0  0  0  0  0  0
  161.7850  209.0460  150.7870 C   0  0  0  0  0  0  0  0  0  0  0  0
  160.9400  209.3960  153.4310 C   0  0  0  0  0  3  0  0  0  0  0  0
  162.2120  208.8880  149.4370 N   0  0  0  0  0  1  0  0  0  0  0  0
  161.3180  208.1280  152.9790 C   0  0  0  0  0  3  0  0  0  0  0  0
  161.7440  207.9410  151.6550 C   0  0  0  0  0  0  0  0  0  0  0  0
  161.4050  210.3120  151.2410 C   0  0  0  0  0  3  0  0  0  0  0  0
  1  5  1  0  0  0  0
  1  4  2  0  0  0  0
  3  2  2  0  0  0  0
  4  2  1  0  0  0  0
  5  6  1  6  0  0  0
  5  3  1  0  0  0  0
  7  8  2  0  0  0  0
  8  1  1  0  0  0  0
  9  8  1  0  0  0  0
 10 11  1  6  0  0  0
 10  9  1  0  0  0  0
 13 10  1  0  0  0  0
 14 10  1  0  0  0  0
 15 17  1  6  0  0  0
 15 13  1  0  0  0  0
 16 14  1  0  0  0  0
 18 12  1  6  0  0  0
 18 15  1  0  0  0  0
 18 16  1  0  0  0  0
 19  4  1  0  0  0  0
 19 25  1  0  0  0  0
 20 22  1  0  0  0  0
 21 26  1  0  0  0  0
 21 25  2  0  0  0  0
 23 21  1  0  0  0  0
 24 22  2  0  0  0  0
 25 24  1  0  0  0  0
 26 20  2  0  0  0  0
M  END
>  <MODEL>
3

>  <REMARK>
 VINA RESULT:      -7.5      3.378      8.228
  Name = 
  4 active torsions:
  status: ('A' for Active; 'I' for Inactive)
    1  A    between atoms: C_2  and  N_24
    2  A    between atoms: C_4  and  C_5
    3  A    between atoms: N_15  and  C_17
    4  A    between atoms: N_15  and  C_23
                            x       y       z     vdW  Elec       q    Type
                         _______ _______ _______ _____ _____    ______ ____

>  <TORSDO>
F 4

$$$$
=
 OpenBabel11072414403D

 26 28  0  0  1  0  0  0  0  0999 V2000
  161.4090  204.5760  151.1970 C   0  0  0  0  0  0  0  0  0  0  0  0
  160.7090  202.8200  149.9670 C   0  0  0  0  0  3  0  0  0  0  0  0
  160.9440  202.3100  151.1310 N   0  0  0  0  0  0  0  0  0  0  0  0
  160.9920  204.2440  149.9830 C   0  0  0  0  0  0  0  0  0  0  0  0
  161.4100  203.3450  152.0470 C   0  0  2  0  0  3  0  0  0  0  0  0
  160.4560  203.4940  153.1360 N   0  0  0  0  0  1  0  0  0  0  0  0
  163.0650  206.2040  151.6390 O   0  0  0  0  0  0  0  0  0  0  0  0
  161.8390  205.9130  151.6490 C   0  0  0  0  0  0  0  0  0  0  0  0
  160.8750  206.8770  152.0930 N   0  0  0  0  0  2  0  0  0  0  0  0
  161.1970  208.2190  152.5660 C   0  0  1  0  0  0  0  0  0  0  0  0
  162.3270  208.6810  151.8810 O   0  0  0  0  0  1  0  0  0  0  0  0
  160.5320  211.7380  154.7090 N   0  0  0  0  0  1  0  0  0  0  0  0
  160.0810  209.0580  152.3000 O   0  0  0  0  0  0  0  0  0  0  0  0
  161.5010  208.1530  154.0760 C   0  0  0  0  0  2  0  0  0  0  0  0
  160.3140  210.4130  152.6720 C   0  0  2  0  0  3  0  0  0  0  0  0
  160.9470  209.3500  154.8400 C   0  0  0  0  0  2  0  0  0  0  0  0
  160.9430  211.1080  151.6360 O   0  0  0  0  0  1  0  0  0  0  0  0
  161.0730  210.6000  153.9910 C   0  0  2  0  0  3  0  0  0  0  0  0
  160.8720  205.1540  148.8790 N   0  0  0  0  0  2  0  0  0  0  0  0
  162.1940  204.5980  144.8860 C   0  0  0  0  0  3  0  0  0  0  0  0
  161.9310  206.0070  146.8400 C   0  0  0  0  0  0  0  0  0  0  0  0
  161.5810  203.5420  145.5630 C   0  0  0  0  0  3  0  0  0  0  0  0
  162.1190  207.2690  147.4730 N   0  0  0  0  0  1  0  0  0  0  0  0
  161.1430  203.7170  146.8790 C   0  0  0  0  0  3  0  0  0  0  0  0
  161.3130  204.9490  147.5300 C   0  0  0  0  0  0  0  0  0  0  0  0
  162.3690  205.8280  145.5240 C   0  0  0  0  0  3  0  0  0  0  0  0
  1  8  1  0  0  0  0
  1  5  1  0  0  0  0
  2  4  1  0  0  0  0
  2  3  2  0  0  0  0
  3  5  1  0  0  0  0
  4  1  2  0  0  0  0
  5  6  1  1  0  0  0
  7  8  2  0  0  0  0
  8  9  1  0  0  0  0
  9 10  1  0  0  0  0
 10 11  1  6  0  0  0
 10 14  1  0  0  0  0
 13 10  1  0  0  0  0
 13 15  1  0  0  0  0
 14 16  1  0  0  0  0
 15 17  1  6  0  0  0
 15 18  1  0  0  0  0
 18 12  1  1  0  0  0
 18 16  1  0  0  0  0
 19  4  1  0  0  0  0
 20 26  2  0  0  0  0
 20 22  1  0  0  0  0
 21 23  1  0  0  0  0
 21 25  2  0  0  0  0
 22 24  2  0  0  0  0
 24 25  1  0  0  0  0
 25 19  1  0  0  0  0
 26 21  1  0  0  0  0
M  END
>  <MODEL>
4

>  <REMARK>
 VINA RESULT:      -7.4      1.792      3.795
  Name = 
  4 active torsions:
  status: ('A' for Active; 'I' for Inactive)
    1  A    between atoms: C_2  and  N_24
    2  A    between atoms: C_4  and  C_5
    3  A    between atoms: N_15  and  C_17
    4  A    between atoms: N_15  and  C_23
                            x       y       z     vdW  Elec       q    Type
                         _______ _______ _______ _____ _____    ______ ____

>  <TORSDO>
F 4

$$$$
=
 OpenBabel11072414403D

 26 28  0  0  1  0  0  0  0  0999 V2000
  161.3330  207.5720  150.1080 C   0  0  0  0  0  0  0  0  0  0  0  0
  161.2740  206.4490  148.1530 C   0  0  0  0  0  3  0  0  0  0  0  0
  161.3340  207.6890  147.7970 N   0  0  0  0  0  0  0  0  0  0  0  0
  161.2750  206.3480  149.6010 C   0  0  0  0  0  0  0  0  0  0  0  0
  161.3800  208.5480  148.9750 C   0  0  2  0  0  3  0  0  0  0  0  0
  162.6410  209.2730  148.9960 N   0  0  0  0  0  1  0  0  0  0  0  0
  161.8980  207.1930  152.3720 O   0  0  0  0  0  0  0  0  0  0  0  0
  161.3200  207.9390  151.5370 C   0  0  0  0  0  0  0  0  0  0  0  0
  160.6610  209.1350  151.9760 N   0  0  0  0  0  2  0  0  0  0  0  0
  160.5840  209.5810  153.3630 C   0  0  1  0  0  0  0  0  0  0  0  0
  160.3420  208.4720  154.1820 O   0  0  0  0  0  1  0  0  0  0  0  0
  160.9160  212.3440  156.4730 N   0  0  0  0  0  1  0  0  0  0  0  0
  161.8270  210.1820  153.7000 O   0  0  0  0  0  0  0  0  0  0  0  0
  159.4210  210.5850  153.4960 C   0  0  0  0  0  2  0  0  0  0  0  0
  161.8790  210.6030  155.0590 C   0  0  2  0  0  3  0  0  0  0  0  0
  159.7490  211.7430  154.4320 C   0  0  0  0  0  2  0  0  0  0  0  0
  162.2890  209.5550  155.8850 O   0  0  0  0  0  1  0  0  0  0  0  0
  160.5890  211.2410  155.5890 C   0  0  2  0  0  3  0  0  0  0  0  0
  161.2000  205.1420  150.3770 N   0  0  0  0  0  2  0  0  0  0  0  0
  160.9110  201.1460  148.9800 C   0  0  0  0  0  3  0  0  0  0  0  0
  160.9520  202.7410  150.8040 C   0  0  0  0  0  0  0  0  0  0  0  0
  161.0620  202.1880  148.0630 C   0  0  0  0  0  3  0  0  0  0  0  0
  160.8940  203.0020  152.2030 N   0  0  0  0  0  1  0  0  0  0  0  0
  161.1580  203.5080  148.5160 C   0  0  0  0  0  3  0  0  0  0  0  0
  161.1040  203.7970  149.8880 C   0  0  0  0  0  0  0  0  0  0  0  0
  160.8560  201.4230  150.3480 C   0  0  0  0  0  3  0  0  0  0  0  0
  1  8  1  0  0  0  0
  2  4  1  0  0  0  0
  3  2  2  0  0  0  0
  3  5  1  0  0  0  0
  4  1  2  0  0  0  0
  4 19  1  0  0  0  0
  5  6  1  6  0  0  0
  5  1  1  0  0  0  0
  8  9  1  0  0  0  0
  8  7  2  0  0  0  0
  9 10  1  0  0  0  0
 10 14  1  0  0  0  0
 10 13  1  0  0  0  0
 10 11  1  1  0  0  0
 13 15  1  0  0  0  0
 14 16  1  0  0  0  0
 15 18  1  0  0  0  0
 15 17  1  1  0  0  0
 16 18  1  0  0  0  0
 18 12  1  1  0  0  0
 20 26  1  0  0  0  0
 21 23  1  0  0  0  0
 22 24  1  0  0  0  0
 22 20  2  0  0  0  0
 24 25  2  0  0  0  0
 25 19  1  0  0  0  0
 25 21  1  0  0  0  0
 26 21  2  0  0  0  0
M  END
>  <MODEL>
5

>  <REMARK>
 VINA RESULT:      -7.2      1.243      1.613
  Name = 
  4 active torsions:
  status: ('A' for Active; 'I' for Inactive)
    1  A    between atoms: C_2  and  N_24
    2  A    between atoms: C_4  and  C_5
    3  A    between atoms: N_15  and  C_17
    4  A    between atoms: N_15  and  C_23
                            x       y       z     vdW  Elec       q    Type
                         _______ _______ _______ _____ _____    ______ ____

>  <TORSDO>
F 4

$$$$
=
 OpenBabel11072414403D

 26 28  0  0  1  0  0  0  0  0999 V2000
  161.0830  202.7250  149.9260 C   0  0  0  0  0  0  0  0  0  0  0  0
  161.2190  201.6280  147.9600 C   0  0  0  0  0  3  0  0  0  0  0  0
  160.7870  200.7330  148.7850 N   0  0  0  0  0  0  0  0  0  0  0  0
  161.4110  202.8900  148.6520 C   0  0  0  0  0  0  0  0  0  0  0  0
  160.6460  201.3070  150.1190 C   0  0  2  0  0  3  0  0  0  0  0  0
  159.2480  201.2670  150.5170 N   0  0  0  0  0  1  0  0  0  0  0  0
  160.7830  203.4320  152.1610 O   0  0  0  0  0  0  0  0  0  0  0  0
  161.1590  203.7360  150.9980 C   0  0  0  0  0  0  0  0  0  0  0  0
  161.6590  205.0520  150.7240 N   0  0  0  0  0  2  0  0  0  0  0  0
  161.7670  206.1230  151.7090 C   0  0  1  0  0  0  0  0  0  0  0  0
  163.0380  206.7020  151.6090 O   0  0  0  0  0  1  0  0  0  0  0  0
  160.3360  208.7390  154.6280 N   0  0  0  0  0  1  0  0  0  0  0  0
  160.7620  207.0850  151.4220 O   0  0  0  0  0  0  0  0  0  0  0  0
  161.5840  205.5220  153.1160 C   0  0  0  0  0  2  0  0  0  0  0  0
  160.8180  208.2100  152.2950 C   0  0  2  0  0  3  0  0  0  0  0  0
  160.7750  206.4250  154.0400 C   0  0  0  0  0  2  0  0  0  0  0  0
  161.7140  209.1650  151.8130 O   0  0  0  0  0  1  0  0  0  0  0  0
  161.1170  207.8760  153.7610 C   0  0  2  0  0  3  0  0  0  0  0  0
  161.8940  204.1160  148.0830 N   0  0  0  0  0  2  0  0  0  0  0  0
  160.7900  205.8610  144.3760 C   0  0  0  0  0  3  0  0  0  0  0  0
  160.7500  205.8630  146.7980 C   0  0  0  0  0  0  0  0  0  0  0  0
  161.5640  204.6990  144.3880 C   0  0  0  0  0  3  0  0  0  0  0  0
  160.3250  206.4700  148.0150 N   0  0  0  0  0  1  0  0  0  0  0  0
  161.9330  204.1180  145.6050 C   0  0  0  0  0  3  0  0  0  0  0  0
  161.5300  204.6930  146.8200 C   0  0  0  0  0  0  0  0  0  0  0  0
  160.3840  206.4410  145.5790 C   0  0  0  0  0  3  0  0  0  0  0  0
  1  5  1  0  0  0  0
  1  8  1  0  0  0  0
  2  4  1  0  0  0  0
  2  3  2  0  0  0  0
  3  5  1  0  0  0  0
  4  1  2  0  0  0  0
  5  6  1  6  0  0  0
  8  7  2  0  0  0  0
  9  8  1  0  0  0  0
  9 10  1  0  0  0  0
 10 11  1  6  0  0  0
 10 14  1  0  0  0  0
 13 10  1  0  0  0  0
 13 15  1  0  0  0  0
 14 16  1  0  0  0  0
 15 17  1  6  0  0  0
 15 18  1  0  0  0  0
 18 16  1  0  0  0  0
 18 12  1  1  0  0  0
 19  4  1  0  0  0  0
 20 22  2  0  0  0  0
 20 26  1  0  0  0  0
 21 25  1  0  0  0  0
 21 23  1  0  0  0  0
 22 24  1  0  0  0  0
 24 25  2  0  0  0  0
 25 19  1  0  0  0  0
 26 21  2  0  0  0  0
M  END
>  <MODEL>
6

>  <REMARK>
 VINA RESULT:      -7.1      2.164      4.594
  Name = 
  4 active torsions:
  status: ('A' for Active; 'I' for Inactive)
    1  A    between atoms: C_2  and  N_24
    2  A    between atoms: C_4  and  C_5
    3  A    between atoms: N_15  and  C_17
    4  A    between atoms: N_15  and  C_23
                            x       y       z     vdW  Elec       q    Type
                         _______ _______ _______ _____ _____    ______ ____

>  <TORSDO>
F 4

$$$$
=
 OpenBabel11072414403D

 26 28  0  0  1  0  0  0  0  0999 V2000
  161.2530  207.1750  151.8600 C   0  0  0  0  0  0  0  0  0  0  0  0
  160.6950  207.5970  154.0040 C   0  0  0  0  0  3  0  0  0  0  0  0
  160.8310  206.3130  153.9650 N   0  0  0  0  0  0  0  0  0  0  0  0
  160.9570  208.1630  152.6930 C   0  0  0  0  0  0  0  0  0  0  0  0
  161.1990  205.8870  152.6200 C   0  0  2  0  0  3  0  0  0  0  0  0
  162.5170  205.2730  152.6490 N   0  0  0  0  0  1  0  0  0  0  0  0
  161.9170  208.4050  149.9540 O   0  0  0  0  0  0  0  0  0  0  0  0
  161.5530  207.2920  150.4200 C   0  0  0  0  0  0  0  0  0  0  0  0
  161.4350  206.1540  149.5560 N   0  0  0  0  0  2  0  0  0  0  0  0
  161.7000  206.1670  148.1220 C   0  0  1  0  0  0  0  0  0  0  0  0
  162.8840  206.8750  147.8870 O   0  0  0  0  0  1  0  0  0  0  0  0
  161.0690  205.0630  144.1460 N   0  0  0  0  0  1  0  0  0  0  0  0
  161.8370  204.8200  147.6880 O   0  0  0  0  0  0  0  0  0  0  0  0
  160.5280  206.8690  147.4070 C   0  0  0  0  0  2  0  0  0  0  0  0
  162.1570  204.7210  146.3040 C   0  0  2  0  0  3  0  0  0  0  0  0
  160.1600  206.2030  146.0860 C   0  0  0  0  0  2  0  0  0  0  0  0
  163.5370  204.8070  146.1100 O   0  0  0  0  0  1  0  0  0  0  0  0
  161.4180  205.7110  145.3970 C   0  0  2  0  0  3  0  0  0  0  0  0
  160.8900  209.5500  152.3290 N   0  0  0  0  0  2  0  0  0  0  0  0
  158.9040  212.6600  154.4240 C   0  0  0  0  0  3  0  0  0  0  0  0
  160.7950  211.1670  154.1690 C   0  0  0  0  0  0  0  0  0  0  0  0
  158.3100  212.1040  153.2890 C   0  0  0  0  0  3  0  0  0  0  0  0
  162.0600  210.7030  154.6340 N   0  0  0  0  0  1  0  0  0  0  0  0
  158.9590  211.0800  152.5930 C   0  0  0  0  0  3  0  0  0  0  0  0
  160.2050  210.6010  153.0260 C   0  0  0  0  0  0  0  0  0  0  0  0
  160.1450  212.1920  154.8630 C   0  0  0  0  0  3  0  0  0  0  0  0
  1  5  1  0  0  0  0
  1  4  2  0  0  0  0
  3  2  2  0  0  0  0
  4  2  1  0  0  0  0
  5  6  1  1  0  0  0
  5  3  1  0  0  0  0
  7  8  2  0  0  0  0
  8  1  1  0  0  0  0
  9  8  1  0  0  0  0
 10 11  1  6  0  0  0
 10  9  1  0  0  0  0
 13 10  1  0  0  0  0
 14 10  1  0  0  0  0
 15 17  1  1  0  0  0
 15 13  1  0  0  0  0
 16 14  1  0  0  0  0
 18 12  1  6  0  0  0
 18 16  1  0  0  0  0
 18 15  1  0  0  0  0
 19  4  1  0  0  0  0
 19 25  1  0  0  0  0
 20 26  1  0  0  0  0
 21 23  1  0  0  0  0
 21 26  2  0  0  0  0
 22 20  2  0  0  0  0
 24 25  2  0  0  0  0
 24 22  1  0  0  0  0
 25 21  1  0  0  0  0
M  END
>  <MODEL>
7

>  <REMARK>
 VINA RESULT:      -6.9      2.939      8.254
  Name = 
  4 active torsions:
  status: ('A' for Active; 'I' for Inactive)
    1  A    between atoms: C_2  and  N_24
    2  A    between atoms: C_4  and  C_5
    3  A    between atoms: N_15  and  C_17
    4  A    between atoms: N_15  and  C_23
                            x       y       z     vdW  Elec       q    Type
                         _______ _______ _______ _____ _____    ______ ____

>  <TORSDO>
F 4

$$$$
=
 OpenBabel11072414403D

 26 28  0  0  1  0  0  0  0  0999 V2000
  161.7720  209.4170  150.5720 C   0  0  0  0  0  0  0  0  0  0  0  0
  162.2310  208.1460  148.7660 C   0  0  0  0  0  3  0  0  0  0  0  0
  161.9530  209.3060  148.2680 N   0  0  0  0  0  0  0  0  0  0  0  0
  162.1260  208.1910  150.2130 C   0  0  0  0  0  0  0  0  0  0  0  0
  161.6330  210.2470  149.3350 C   0  0  2  0  0  3  0  0  0  0  0  0
  162.6140  211.3200  149.3450 N   0  0  0  0  0  1  0  0  0  0  0  0
  162.4900  210.0870  152.7220 O   0  0  0  0  0  0  0  0  0  0  0  0
  161.5170  209.8990  151.9430 C   0  0  0  0  0  0  0  0  0  0  0  0
  160.1790  210.1540  152.3900 N   0  0  0  0  0  2  0  0  0  0  0  0
  159.8210  210.6230  153.7240 C   0  0  1  0  0  0  0  0  0  0  0  0
  159.9840  209.5700  154.6320 O   0  0  0  0  0  1  0  0  0  0  0  0
  158.7700  213.4840  156.5750 N   0  0  0  0  0  1  0  0  0  0  0  0
  160.6860  211.7000  154.0570 O   0  0  0  0  0  0  0  0  0  0  0  0
  158.3460  211.0710  153.7130 C   0  0  0  0  0  2  0  0  0  0  0  0
  160.4590  212.1970  155.3720 C   0  0  2  0  0  3  0  0  0  0  0  0
  158.1050  212.3220  154.5500 C   0  0  0  0  0  2  0  0  0  0  0  0
  161.1910  211.4650  156.3090 O   0  0  0  0  0  1  0  0  0  0  0  0
  158.9850  212.2860  155.7840 C   0  0  2  0  0  3  0  0  0  0  0  0
  162.3410  207.1000  151.1220 N   0  0  0  0  0  2  0  0  0  0  0  0
  160.5600  203.2500  151.0430 C   0  0  0  0  0  3  0  0  0  0  0  0
  161.3690  205.1700  152.2800 C   0  0  0  0  0  0  0  0  0  0  0  0
  160.9250  203.8660  149.8450 C   0  0  0  0  0  3  0  0  0  0  0  0
  161.5870  205.8180  153.5300 N   0  0  0  0  0  1  0  0  0  0  0  0
  161.5110  205.1350  149.8630 C   0  0  0  0  0  3  0  0  0  0  0  0
  161.7390  205.7980  151.0780 C   0  0  0  0  0  0  0  0  0  0  0  0
  160.7820  203.9010  152.2590 C   0  0  0  0  0  3  0  0  0  0  0  0
  1  8  1  0  0  0  0
  2  4  1  0  0  0  0
  3  2  2  0  0  0  0
  3  5  1  0  0  0  0
  4  1  2  0  0  0  0
  4 19  1  0  0  0  0
  5  6  1  1  0  0  0
  5  1  1  0  0  0  0
  8  9  1  0  0  0  0
  8  7  2  0  0  0  0
  9 10  1  0  0  0  0
 10 13  1  0  0  0  0
 10 11  1  1  0  0  0
 13 15  1  0  0  0  0
 14 10  1  0  0  0  0
 14 16  1  0  0  0  0
 15 18  1  0  0  0  0
 15 17  1  1  0  0  0
 16 18  1  0  0  0  0
 18 12  1  6  0  0  0
 20 26  1  0  0  0  0
 21 23  1  0  0  0  0
 22 24  1  0  0  0  0
 22 20  2  0  0  0  0
 24 25  2  0  0  0  0
 25 19  1  0  0  0  0
 25 21  1  0  0  0  0
 26 21  2  0  0  0  0
M  END
>  <MODEL>
8

>  <REMARK>
 VINA RESULT:      -6.8      2.223      2.976
  Name = 
  4 active torsions:
  status: ('A' for Active; 'I' for Inactive)
    1  A    between atoms: C_2  and  N_24
    2  A    between atoms: C_4  and  C_5
    3  A    between atoms: N_15  and  C_17
    4  A    between atoms: N_15  and  C_23
                            x       y       z     vdW  Elec       q    Type
                         _______ _______ _______ _____ _____    ______ ____

>  <TORSDO>
F 4

$$$$
=
 OpenBabel11072414403D

 26 28  0  0  1  0  0  0  0  0999 V2000
  161.8270  208.5750  149.2790 C   0  0  0  0  0  0  0  0  0  0  0  0
  162.2000  210.1030  150.8950 C   0  0  0  0  0  3  0  0  0  0  0  0
  162.4340  210.7470  149.8000 N   0  0  0  0  0  0  0  0  0  0  0  0
  161.8150  208.7360  150.5950 C   0  0  0  0  0  0  0  0  0  0  0  0
  162.2280  209.8730  148.6510 C   0  0  2  0  0  3  0  0  0  0  0  0
  161.1380  210.3890  147.8380 N   0  0  0  0  0  1  0  0  0  0  0  0
  160.3980  206.8030  148.6450 O   0  0  0  0  0  0  0  0  0  0  0  0
  161.5360  207.3340  148.5360 C   0  0  0  0  0  0  0  0  0  0  0  0
  162.5320  206.7360  147.6960 N   0  0  0  0  0  2  0  0  0  0  0  0
  162.3460  205.5090  146.9290 C   0  0  1  0  0  0  0  0  0  0  0  0
  163.5500  204.7940  146.9220 O   0  0  0  0  0  1  0  0  0  0  0  0
  160.1400  202.6460  144.8440 N   0  0  0  0  0  1  0  0  0  0  0  0
  161.3250  204.7480  147.5580 O   0  0  0  0  0  0  0  0  0  0  0  0
  161.9590  205.8810  145.4850 C   0  0  0  0  0  2  0  0  0  0  0  0
  161.1040  203.4950  146.9190 C   0  0  2  0  0  3  0  0  0  0  0  0
  160.9060  204.9480  144.8990 C   0  0  0  0  0  2  0  0  0  0  0  0
  161.9780  202.5260  147.4160 O   0  0  0  0  0  1  0  0  0  0  0  0
  161.1510  203.5340  145.3870 C   0  0  2  0  0  3  0  0  0  0  0  0
  161.4940  207.7070  151.5430 N   0  0  0  0  0  2  0  0  0  0  0  0
  160.2770  208.1610  155.5830 C   0  0  0  0  0  3  0  0  0  0  0  0
  160.9700  206.7510  153.7390 C   0  0  0  0  0  0  0  0  0  0  0  0
  160.3840  209.2870  154.7640 C   0  0  0  0  0  3  0  0  0  0  0  0
  161.2640  205.4500  153.2350 N   0  0  0  0  0  1  0  0  0  0  0  0
  160.7850  209.1450  153.4320 C   0  0  0  0  0  3  0  0  0  0  0  0
  161.0810  207.8780  152.9070 C   0  0  0  0  0  0  0  0  0  0  0  0
  160.5700  206.8950  155.0700 C   0  0  0  0  0  3  0  0  0  0  0  0
  1  4  2  0  0  0  0
  3  2  2  0  0  0  0
  4  2  1  0  0  0  0
  4 19  1  0  0  0  0
  5  6  1  6  0  0  0
  5  1  1  0  0  0  0
  5  3  1  0  0  0  0
  8  7  2  0  0  0  0
  8  1  1  0  0  0  0
  9  8  1  0  0  0  0
 10 11  1  6  0  0  0
 10 13  1  0  0  0  0
 10  9  1  0  0  0  0
 14 10  1  0  0  0  0
 15 17  1  1  0  0  0
 15 13  1  0  0  0  0
 16 18  1  0  0  0  0
 16 14  1  0  0  0  0
 18 12  1  6  0  0  0
 18 15  1  0  0  0  0
 19 25  1  0  0  0  0
 21 26  2  0  0  0  0
 22 20  2  0  0  0  0
 23 21  1  0  0  0  0
 24 22  1  0  0  0  0
 25 24  2  0  0  0  0
 25 21  1  0  0  0  0
 26 20  1  0  0  0  0
M  END
>  <MODEL>
9

>  <REMARK>
 VINA RESULT:      -6.7      3.224      7.500
  Name = 
  4 active torsions:
  status: ('A' for Active; 'I' for Inactive)
    1  A    between atoms: C_2  and  N_24
    2  A    between atoms: C_4  and  C_5
    3  A    between atoms: N_15  and  C_17
    4  A    between atoms: N_15  and  C_23
                            x       y       z     vdW  Elec       q    Type
                         _______ _______ _______ _____ _____    ______ ____

>  <TORSDO>
F 4

$$$$
