=
 OpenBabel11072409463D

 49 53  0  0  1  0  0  0  0  0999 V2000
  160.6050  206.3660  148.4900 C   0  0  1  0  0  3  0  0  0  0  0  0
  163.7660  207.3720  150.7740 O   0  0  0  0  0  0  0  0  0  0  0  0
  162.6240  205.9800  146.5150 C   0  0  0  0  0  0  0  0  0  0  0  0
  161.3030  206.5930  151.5930 C   0  0  2  0  0  3  0  0  0  0  0  0
  162.9300  206.8780  147.6900 C   0  0  0  0  0  2  0  0  0  0  0  0
  160.3590  205.2680  147.4450 C   0  0  0  0  0  2  0  0  0  0  0  0
  159.6200  206.2360  149.6620 C   0  0  0  0  0  2  0  0  0  0  0  0
  161.8840  208.8190  150.1210 O   0  0  0  0  0  0  0  0  0  0  0  0
  163.1890  206.1730  145.4460 O   0  0  0  0  0  0  0  0  0  0  0  0
  162.3240  207.4000  150.3550 S   0  0  0  0  0  0  0  0  0  0  0  0
  161.6300  204.8420  146.6820 C   0  0  1  0  0  3  0  0  0  0  0  0
  160.2290  205.6790  150.9580 C   0  0  1  0  0  3  0  0  0  0  0  0
  162.0870  206.4400  148.8820 C   0  0  1  0  0  3  0  0  0  0  0  0
  160.1730  201.9550  150.1310 C   0  0  0  0  0  3  0  0  0  0  0  0
  161.3070  201.5140  150.8190 C   0  0  0  0  0  3  0  0  0  0  0  0
  162.1110  202.4310  151.5030 C   0  0  0  0  0  3  0  0  0  0  0  0
  160.6320  204.2330  150.8270 C   0  0  0  0  0  0  0  0  0  0  0  0
  159.8370  203.3080  150.1360 C   0  0  0  0  0  3  0  0  0  0  0  0
  161.7700  203.7840  151.5120 C   0  0  0  0  0  3  0  0  0  0  0  0
  160.6950  207.5990  152.5200 C   0  0  0  0  0  3  0  0  0  0  0  0
  161.4630  208.4520  153.1980 C   0  0  0  0  0  3  0  0  0  0  0  0
  162.2880  210.7640  155.2370 C   0  0  0  0  0  2  0  0  0  0  0  0
  160.8460  209.4780  154.0960 C   0  0  1  0  0  3  0  0  0  0  0  0
  160.5780  209.1320  155.5970 C   0  0  2  0  0  0  0  0  0  0  0  0
  161.5860  210.6710  154.0220 O   0  0  0  0  0  0  0  0  0  0  0  0
  161.4370  210.1500  156.3220 C   0  0  0  0  0  2  0  0  0  0  0  0
  160.1620  206.7030  155.9670 O   0  0  0  0  0  0  0  0  0  0  0  0
  161.0810  207.7620  156.1400 C   0  0  2  0  0  3  0  0  0  0  0  0
  160.2350  207.2460  157.2610 C   0  0  0  0  0  2  0  0  0  0  0  0
  159.2010  209.2960  155.9390 O   0  0  0  0  0  0  0  0  0  0  0  0
  158.9120  210.6350  156.2690 C   0  0  0  0  0  2  0  0  0  0  0  0
  157.7590  212.4570  155.7900 C   0  0  0  0  0  1  0  0  0  0  0  0
  157.9820  211.1470  155.3600 O   0  0  0  0  0  0  0  0  0  0  0  0
  161.3380  204.0300  145.4060 C   0  0  1  0  0  3  0  0  0  0  0  0
  159.5540  200.8410  145.0660 O   0  0  0  0  0  0  0  0  0  0  0  0
  160.8560  202.6840  145.7190 N   0  0  0  0  0  0  0  0  0  0  0  0
  160.0560  201.9570  144.7740 C   0  0  0  0  0  3  0  0  0  0  0  0
  162.3030  202.7380  147.5670 O   0  0  0  0  0  1  0  0  0  0  0  0
  161.3020  200.6390  147.0030 C   0  0  0  0  0  1  0  0  0  0  0  0
  161.1460  202.1490  147.0480 C   0  0  2  0  0  3  0  0  0  0  0  0
  159.3320  204.1750  143.9970 O   0  0  0  0  0  1  0  0  0  0  0  0
  160.5790  204.7490  144.2560 C   0  0  2  0  0  3  0  0  0  0  0  0
  161.3460  204.9060  142.9510 C   0  0  0  0  0  2  0  0  0  0  0  0
  161.5250  206.2660  142.6520 O   0  0  0  0  0  0  0  0  0  0  0  0
  161.7640  206.3860  141.2630 C   0  0  2  0  0  3  0  0  0  0  0  0
  163.0400  205.9710  140.9200 F   0  0  0  0  0  0  0  0  0  0  0  0
  161.4810  207.7930  140.7430 C   0  0  0  0  0  2  0  0  0  0  0  0
  160.9880  208.0530  138.4850 C   0  0  0  0  0  1  0  0  0  0  0  0
  162.0790  207.9670  139.4340 N   0  0  0  0  0  2  0  0  0  0  0  0
  1  6  1  6  0  0  0
  1 13  1  0  0  0  0
  1  7  1  0  0  0  0
  3 11  1  0  0  0  0
  3  5  1  0  0  0  0
  4 20  1  6  0  0  0
  7 12  1  0  0  0  0
  8 10  2  0  0  0  0
  9  3  2  0  0  0  0
 10  2  2  0  0  0  0
 10  4  1  0  0  0  0
 11 34  1  6  0  0  0
 11  6  1  0  0  0  0
 12 17  1  6  0  0  0
 12  4  1  0  0  0  0
 13  5  1  6  0  0  0
 13 10  1  0  0  0  0
 14 18  2  0  0  0  0
 14 15  1  0  0  0  0
 15 16  2  0  0  0  0
 16 19  1  0  0  0  0
 17 19  2  0  0  0  0
 18 17  1  0  0  0  0
 20 21  2  0  0  0  0
 22 26  1  0  0  0  0
 23 21  1  1  0  0  0
 23 24  1  0  0  0  0
 24 30  1  1  0  0  0
 24 28  1  0  0  0  0
 24 26  1  0  0  0  0
 25 23  1  0  0  0  0
 25 22  1  0  0  0  0
 27 28  1  0  0  0  0
 27 29  1  0  0  0  0
 28 29  1  1  0  0  0
 30 31  1  0  0  0  0
 33 32  1  0  0  0  0
 33 31  1  0  0  0  0
 34 36  1  1  0  0  0
 36 40  1  0  0  0  0
 37 35  2  0  0  0  0
 37 36  1  0  0  0  0
 40 39  1  6  0  0  0
 40 38  1  0  0  0  0
 42 41  1  6  0  0  0
 42 34  1  0  0  0  0
 43 42  1  0  0  0  0
 44 43  1  0  0  0  0
 45 46  1  1  0  0  0
 45 44  1  0  0  0  0
 47 45  1  0  0  0  0
 48 49  1  0  0  0  0
 49 47  1  0  0  0  0
M  END
>  <MODEL>
1

>  <REMARK>
 VINA RESULT:      -2.1      0.000      0.000
  Name = 
  16 active torsions:
  status: ('A' for Active; 'I' for Inactive)
    1  A    between atoms: C_6  and  C_36
    2  A    between atoms: C_6  and  O_40
    3  A    between atoms: N_10  and  C_20
    4  A    between atoms: N_10  and  C_21
    5  A    between atoms: C_11  and  C_12
    6  A    between atoms: C_15  and  C_47
    7  A    between atoms: C_16  and  C_42
    8  A    between atoms: C_20  and  C_24
    9  A    between atoms: C_20  and  C_45
   10  A    between atoms: N_23  and  C_36
   11  A    between atoms: C_24  and  C_46
   12  A    between atoms: C_27  and  O_31
   13  A    between atoms: C_27  and  C_34
   14  A    between atoms: O_31  and  C_48
   15  A    between atoms: O_40  and  C_46
   16  A    between atoms: O_44  and  C_48
                            x       y       z     vdW  Elec       q    Type
                         _______ _______ _______ _____ _____    ______ ____

>  <TORSDO>
F 16

$$$$
=
 OpenBabel11072409463D

 49 53  0  0  1  0  0  0  0  0999 V2000
  160.2840  207.3630  152.4520 C   0  0  1  0  0  3  0  0  0  0  0  0
  163.8230  205.4410  152.4300 O   0  0  0  0  0  0  0  0  0  0  0  0
  161.1750  208.2040  155.0250 C   0  0  0  0  0  0  0  0  0  0  0  0
  162.2770  206.1030  150.3060 C   0  0  2  0  0  3  0  0  0  0  0  0
  161.7810  206.9570  154.4270 C   0  0  0  0  0  2  0  0  0  0  0  0
  159.8350  208.7530  152.9260 C   0  0  0  0  0  2  0  0  0  0  0  0
  160.0190  207.1860  150.9490 C   0  0  0  0  0  2  0  0  0  0  0  0
  161.5810  204.4270  152.3470 O   0  0  0  0  0  0  0  0  0  0  0  0
  161.1150  208.3210  156.2420 O   0  0  0  0  0  0  0  0  0  0  0  0
  162.3890  205.6590  152.0430 S   0  0  0  0  0  0  0  0  0  0  0  0
  160.6620  209.3020  154.1060 C   0  0  1  0  0  3  0  0  0  0  0  0
  161.2710  207.2510  150.0600 C   0  0  1  0  0  3  0  0  0  0  0  0
  161.7170  207.0550  152.9070 C   0  0  1  0  0  3  0  0  0  0  0  0
  162.7920  210.5720  151.1600 C   0  0  0  0  0  3  0  0  0  0  0  0
  162.7900  211.2780  149.9540 C   0  0  0  0  0  3  0  0  0  0  0  0
  162.3460  210.6570  148.7820 C   0  0  0  0  0  3  0  0  0  0  0  0
  161.8830  208.6280  150.0310 C   0  0  0  0  0  0  0  0  0  0  0  0
  162.3400  209.2540  151.1990 C   0  0  0  0  0  3  0  0  0  0  0  0
  161.8870  209.3400  148.8230 C   0  0  0  0  0  3  0  0  0  0  0  0
  161.9610  204.9030  149.4680 C   0  0  0  0  0  3  0  0  0  0  0  0
  160.7310  204.7090  148.9940 C   0  0  0  0  0  3  0  0  0  0  0  0
  161.3810  201.5930  148.7590 C   0  0  0  0  0  2  0  0  0  0  0  0
  160.4300  203.5250  148.1290 C   0  0  1  0  0  3  0  0  0  0  0  0
  161.3930  203.1600  146.9530 C   0  0  2  0  0  0  0  0  0  0  0  0
  160.2370  202.3910  148.9360 O   0  0  0  0  0  0  0  0  0  0  0  0
  161.8650  201.7720  147.3400 C   0  0  0  0  0  2  0  0  0  0  0  0
  162.5200  205.2930  146.3240 O   0  0  0  0  0  0  0  0  0  0  0  0
  162.7120  203.9760  146.7990 C   0  0  2  0  0  3  0  0  0  0  0  0
  162.9810  204.3610  145.3790 C   0  0  0  0  0  2  0  0  0  0  0  0
  160.7090  203.1310  145.6990 O   0  0  0  0  0  0  0  0  0  0  0  0
  160.4900  201.8080  145.2670 C   0  0  0  0  0  2  0  0  0  0  0  0
  159.0480  203.0970  144.2010 C   0  0  0  0  0  1  0  0  0  0  0  0
  159.3270  201.7600  144.4920 O   0  0  0  0  0  0  0  0  0  0  0  0
  160.0020  210.4990  154.8150 C   0  0  1  0  0  3  0  0  0  0  0  0
  163.1140  211.4660  156.5020 O   0  0  0  0  0  0  0  0  0  0  0  0
  160.9030  211.1160  155.7900 N   0  0  0  0  0  0  0  0  0  0  0  0
  162.3270  211.0270  155.6250 C   0  0  0  0  0  3  0  0  0  0  0  0
  159.0750  211.1510  157.2610 O   0  0  0  0  0  1  0  0  0  0  0  0
  160.1330  213.2370  156.7560 C   0  0  0  0  0  1  0  0  0  0  0  0
  160.3060  211.7430  156.9680 C   0  0  2  0  0  3  0  0  0  0  0  0
  157.8340  211.2010  153.8980 O   0  0  0  0  0  1  0  0  0  0  0  0
  159.1980  211.4990  153.9380 C   0  0  2  0  0  3  0  0  0  0  0  0
  159.7150  211.7020  152.5220 C   0  0  0  0  0  2  0  0  0  0  0  0
  158.8690  212.5720  151.8140 O   0  0  0  0  0  0  0  0  0  0  0  0
  159.5800  213.0700  150.6970 C   0  0  2  0  0  3  0  0  0  0  0  0
  160.8160  213.5820  151.0570 F   0  0  0  0  0  0  0  0  0  0  0  0
  158.7700  214.0880  149.8990 C   0  0  0  0  0  2  0  0  0  0  0  0
  157.1440  212.9290  148.7060 C   0  0  0  0  0  1  0  0  0  0  0  0
  157.3690  213.7170  149.9010 N   0  0  0  0  0  2  0  0  0  0  0  0
  1  7  1  6  0  0  0
  1 13  1  0  0  0  0
  1  6  1  0  0  0  0
  3  9  2  0  0  0  0
  4 20  1  6  0  0  0
  4 10  1  0  0  0  0
  5  3  1  0  0  0  0
  6 11  1  0  0  0  0
 10  8  2  0  0  0  0
 10  2  2  0  0  0  0
 10 13  1  0  0  0  0
 11 34  1  1  0  0  0
 11  3  1  0  0  0  0
 12 17  1  1  0  0  0
 12  4  1  0  0  0  0
 12  7  1  0  0  0  0
 13  5  1  1  0  0  0
 14 18  1  0  0  0  0
 15 14  2  0  0  0  0
 16 19  2  0  0  0  0
 16 15  1  0  0  0  0
 17 18  2  0  0  0  0
 19 17  1  0  0  0  0
 21 20  2  0  0  0  0
 22 25  1  0  0  0  0
 23 25  1  0  0  0  0
 23 21  1  1  0  0  0
 24 30  1  6  0  0  0
 24 26  1  0  0  0  0
 24 23  1  0  0  0  0
 26 22  1  0  0  0  0
 27 28  1  0  0  0  0
 28 29  1  6  0  0  0
 28 24  1  0  0  0  0
 29 27  1  0  0  0  0
 31 30  1  0  0  0  0
 32 33  1  0  0  0  0
 33 31  1  0  0  0  0
 34 36  1  6  0  0  0
 36 40  1  0  0  0  0
 37 36  1  0  0  0  0
 37 35  2  0  0  0  0
 40 39  1  6  0  0  0
 40 38  1  0  0  0  0
 42 41  1  6  0  0  0
 42 34  1  0  0  0  0
 43 42  1  0  0  0  0
 44 43  1  0  0  0  0
 45 46  1  1  0  0  0
 45 44  1  0  0  0  0
 47 49  1  0  0  0  0
 47 45  1  0  0  0  0
 48 49  1  0  0  0  0
M  END
>  <MODEL>
2

>  <REMARK>
 VINA RESULT:      -1.0      4.083     10.349
  Name = 
  16 active torsions:
  status: ('A' for Active; 'I' for Inactive)
    1  A    between atoms: C_6  and  C_36
    2  A    between atoms: C_6  and  O_40
    3  A    between atoms: N_10  and  C_20
    4  A    between atoms: N_10  and  C_21
    5  A    between atoms: C_11  and  C_12
    6  A    between atoms: C_15  and  C_47
    7  A    between atoms: C_16  and  C_42
    8  A    between atoms: C_20  and  C_24
    9  A    between atoms: C_20  and  C_45
   10  A    between atoms: N_23  and  C_36
   11  A    between atoms: C_24  and  C_46
   12  A    between atoms: C_27  and  O_31
   13  A    between atoms: C_27  and  C_34
   14  A    between atoms: O_31  and  C_48
   15  A    between atoms: O_40  and  C_46
   16  A    between atoms: O_44  and  C_48
                            x       y       z     vdW  Elec       q    Type
                         _______ _______ _______ _____ _____    ______ ____

>  <TORSDO>
F 16

$$$$
=
 OpenBabel11072409463D

 49 53  0  0  1  0  0  0  0  0999 V2000
  160.8150  205.9080  148.9950 C   0  0  1  0  0  3  0  0  0  0  0  0
  164.0630  206.3310  151.3380 O   0  0  0  0  0  0  0  0  0  0  0  0
  162.7820  205.4700  146.9800 C   0  0  0  0  0  0  0  0  0  0  0  0
  161.5240  205.7730  152.1010 C   0  0  2  0  0  3  0  0  0  0  0  0
  163.1860  206.2170  148.2280 C   0  0  0  0  0  2  0  0  0  0  0  0
  160.4460  204.9450  147.8580 C   0  0  0  0  0  2  0  0  0  0  0  0
  159.8180  205.7890  150.1580 C   0  0  0  0  0  2  0  0  0  0  0  0
  162.3650  208.0400  150.8310 O   0  0  0  0  0  0  0  0  0  0  0  0
  163.3690  205.6910  145.9280 O   0  0  0  0  0  0  0  0  0  0  0  0
  162.6360  206.5640  150.9330 S   0  0  0  0  0  0  0  0  0  0  0  0
  161.6620  204.4450  147.0510 C   0  0  1  0  0  3  0  0  0  0  0  0
  160.3530  205.0510  151.3950 C   0  0  1  0  0  3  0  0  0  0  0  0
  162.2940  205.7740  149.3820 C   0  0  1  0  0  3  0  0  0  0  0  0
  161.9010  201.5640  151.3880 C   0  0  0  0  0  3  0  0  0  0  0  0
  161.1150  200.9260  150.4250 C   0  0  0  0  0  3  0  0  0  0  0  0
  160.0560  201.6110  149.8220 C   0  0  0  0  0  3  0  0  0  0  0  0
  160.5850  203.5850  151.1320 C   0  0  0  0  0  0  0  0  0  0  0  0
  161.6390  202.8870  151.7400 C   0  0  0  0  0  3  0  0  0  0  0  0
  159.7980  202.9390  150.1690 C   0  0  0  0  0  3  0  0  0  0  0  0
  161.0330  206.7560  153.1190 C   0  0  0  0  0  3  0  0  0  0  0  0
  161.8620  207.2590  154.0340 C   0  0  0  0  0  3  0  0  0  0  0  0
  159.2070  208.1060  155.5890 C   0  0  0  0  0  2  0  0  0  0  0  0
  161.3730  208.2660  155.0270 C   0  0  1  0  0  3  0  0  0  0  0  0
  160.7380  209.6040  154.5250 C   0  0  2  0  0  0  0  0  0  0  0  0
  160.4910  207.6460  155.9290 O   0  0  0  0  0  0  0  0  0  0  0  0
  159.3320  209.5250  155.0860 C   0  0  0  0  0  2  0  0  0  0  0  0
  161.0160  211.0090  152.4850 O   0  0  0  0  0  0  0  0  0  0  0  0
  160.5200  209.7870  152.9930 C   0  0  2  0  0  3  0  0  0  0  0  0
  159.6260  210.9460  152.6790 C   0  0  0  0  0  2  0  0  0  0  0  0
  161.4270  210.7430  155.0420 O   0  0  0  0  0  0  0  0  0  0  0  0
  160.9500  211.0910  156.3210 C   0  0  0  0  0  2  0  0  0  0  0  0
  163.0900  210.8340  156.8060 C   0  0  0  0  0  1  0  0  0  0  0  0
  161.9900  211.6560  157.0660 O   0  0  0  0  0  0  0  0  0  0  0  0
  161.2820  203.7900  145.7090 C   0  0  1  0  0  3  0  0  0  0  0  0
  161.3020  200.3130  146.8830 O   0  0  0  0  0  0  0  0  0  0  0  0
  160.8730  202.3950  145.8840 N   0  0  0  0  0  0  0  0  0  0  0  0
  161.5780  201.5370  146.7940 C   0  0  0  0  0  3  0  0  0  0  0  0
  158.6030  201.8100  145.7770 O   0  0  0  0  0  1  0  0  0  0  0  0
  160.1400  200.5360  144.4580 C   0  0  0  0  0  1  0  0  0  0  0  0
  159.7880  201.8940  145.0420 C   0  0  2  0  0  3  0  0  0  0  0  0
  159.6800  203.8090  143.8470 O   0  0  0  0  0  1  0  0  0  0  0  0
  160.4000  204.6160  144.7320 C   0  0  2  0  0  3  0  0  0  0  0  0
  161.1170  205.7080  143.9530 C   0  0  0  0  0  2  0  0  0  0  0  0
  161.0360  205.4560  142.5730 O   0  0  0  0  0  0  0  0  0  0  0  0
  162.1770  206.0170  141.9530 C   0  0  2  0  0  3  0  0  0  0  0  0
  163.0360  206.5930  142.8750 F   0  0  0  0  0  0  0  0  0  0  0  0
  161.8130  207.0010  140.8460 C   0  0  0  0  0  2  0  0  0  0  0  0
  161.9300  207.4770  138.5710 C   0  0  0  0  0  1  0  0  0  0  0  0
  162.1200  206.4260  139.5510 N   0  0  0  0  0  2  0  0  0  0  0  0
  1  6  1  6  0  0  0
  1 13  1  0  0  0  0
  1  7  1  0  0  0  0
  3 11  1  0  0  0  0
  3  5  1  0  0  0  0
  4 20  1  1  0  0  0
  7 12  1  0  0  0  0
  8 10  2  0  0  0  0
  9  3  2  0  0  0  0
 10  2  2  0  0  0  0
 10  4  1  0  0  0  0
 11 34  1  6  0  0  0
 11  6  1  0  0  0  0
 12 17  1  6  0  0  0
 12  4  1  0  0  0  0
 13  5  1  6  0  0  0
 13 10  1  0  0  0  0
 14 18  1  0  0  0  0
 15 14  2  0  0  0  0
 16 19  2  0  0  0  0
 16 15  1  0  0  0  0
 17 18  2  0  0  0  0
 19 17  1  0  0  0  0
 20 21  2  0  0  0  0
 22 25  1  0  0  0  0
 23 21  1  6  0  0  0
 23 25  1  0  0  0  0
 24 23  1  0  0  0  0
 24 30  1  1  0  0  0
 24 26  1  0  0  0  0
 26 22  1  0  0  0  0
 27 29  1  0  0  0  0
 27 28  1  0  0  0  0
 28 29  1  1  0  0  0
 28 24  1  0  0  0  0
 30 31  1  0  0  0  0
 31 33  1  0  0  0  0
 32 33  1  0  0  0  0
 34 36  1  1  0  0  0
 36 37  1  0  0  0  0
 37 35  2  0  0  0  0
 40 39  1  1  0  0  0
 40 38  1  0  0  0  0
 40 36  1  0  0  0  0
 42 41  1  6  0  0  0
 42 34  1  0  0  0  0
 43 42  1  0  0  0  0
 44 43  1  0  0  0  0
 45 44  1  0  0  0  0
 45 46  1  1  0  0  0
 47 45  1  0  0  0  0
 48 49  1  0  0  0  0
 49 47  1  0  0  0  0
M  END
>  <MODEL>
3

>  <REMARK>
 VINA RESULT:      -0.5      1.315      2.398
  Name = 
  16 active torsions:
  status: ('A' for Active; 'I' for Inactive)
    1  A    between atoms: C_6  and  C_36
    2  A    between atoms: C_6  and  O_40
    3  A    between atoms: N_10  and  C_20
    4  A    between atoms: N_10  and  C_21
    5  A    between atoms: C_11  and  C_12
    6  A    between atoms: C_15  and  C_47
    7  A    between atoms: C_16  and  C_42
    8  A    between atoms: C_20  and  C_24
    9  A    between atoms: C_20  and  C_45
   10  A    between atoms: N_23  and  C_36
   11  A    between atoms: C_24  and  C_46
   12  A    between atoms: C_27  and  O_31
   13  A    between atoms: C_27  and  C_34
   14  A    between atoms: O_31  and  C_48
   15  A    between atoms: O_40  and  C_46
   16  A    between atoms: O_44  and  C_48
                            x       y       z     vdW  Elec       q    Type
                         _______ _______ _______ _____ _____    ______ ____

>  <TORSDO>
F 16

$$$$
=
 OpenBabel11072409463D

 49 53  0  0  1  0  0  0  0  0999 V2000
  160.1310  208.1470  152.8600 C   0  0  1  0  0  3  0  0  0  0  0  0
  163.5260  206.0380  153.3550 O   0  0  0  0  0  0  0  0  0  0  0  0
  161.1720  209.6360  155.0560 C   0  0  0  0  0  0  0  0  0  0  0  0
  161.9520  206.1630  151.1530 C   0  0  2  0  0  3  0  0  0  0  0  0
  161.6690  208.2260  154.8450 C   0  0  0  0  0  2  0  0  0  0  0  0
  159.7970  209.6450  152.9090 C   0  0  0  0  0  2  0  0  0  0  0  0
  159.7990  207.5570  151.4810 C   0  0  0  0  0  2  0  0  0  0  0  0
  161.2180  205.2190  153.6090 O   0  0  0  0  0  0  0  0  0  0  0  0
  161.1650  210.1100  156.1850 O   0  0  0  0  0  0  0  0  0  0  0  0
  162.0970  206.2410  152.9420 S   0  0  0  0  0  0  0  0  0  0  0  0
  160.7020  210.4510  153.8620 C   0  0  1  0  0  3  0  0  0  0  0  0
  161.0190  207.2620  150.5940 C   0  0  1  0  0  3  0  0  0  0  0  0
  161.5550  207.8770  153.3650 C   0  0  1  0  0  3  0  0  0  0  0  0
  162.9410  210.5570  150.6420 C   0  0  0  0  0  3  0  0  0  0  0  0
  162.8070  210.9620  149.3110 C   0  0  0  0  0  3  0  0  0  0  0  0
  162.1420  210.1410  148.3950 C   0  0  0  0  0  3  0  0  0  0  0  0
  161.7220  208.5190  150.1500 C   0  0  0  0  0  0  0  0  0  0  0  0
  162.4000  209.3420  151.0600 C   0  0  0  0  0  3  0  0  0  0  0  0
  161.5950  208.9280  148.8160 C   0  0  0  0  0  3  0  0  0  0  0  0
  161.5240  204.7980  150.7130 C   0  0  0  0  0  3  0  0  0  0  0  0
  160.8000  204.6360  149.6050 C   0  0  0  0  0  3  0  0  0  0  0  0
  161.5540  201.5690  150.0660 C   0  0  0  0  0  2  0  0  0  0  0  0
  160.4040  203.2650  149.1520 C   0  0  1  0  0  3  0  0  0  0  0  0
  161.1490  202.6030  147.9480 C   0  0  2  0  0  0  0  0  0  0  0  0
  160.4240  202.3850  150.2480 O   0  0  0  0  0  0  0  0  0  0  0  0
  161.7560  201.3670  148.5830 C   0  0  0  0  0  2  0  0  0  0  0  0
  162.2270  204.7540  147.2970 O   0  0  0  0  0  0  0  0  0  0  0  0
  162.3710  203.3490  147.3350 C   0  0  2  0  0  3  0  0  0  0  0  0
  162.0210  204.0830  146.0800 C   0  0  0  0  0  2  0  0  0  0  0  0
  160.2450  202.2430  146.9010 O   0  0  0  0  0  0  0  0  0  0  0  0
  160.5970  201.0060  146.3250 C   0  0  0  0  0  2  0  0  0  0  0  0
  159.3480  202.0230  144.8140 C   0  0  0  0  0  1  0  0  0  0  0  0
  160.3330  201.0420  144.9530 O   0  0  0  0  0  0  0  0  0  0  0  0
  160.1520  211.8510  154.1950 C   0  0  1  0  0  3  0  0  0  0  0  0
  160.1670  212.8570  150.6660 O   0  0  0  0  0  0  0  0  0  0  0  0
  159.8700  212.6250  152.9850 N   0  0  0  0  0  0  0  0  0  0  0  0
  160.3150  212.1580  151.7010 C   0  0  0  0  0  3  0  0  0  0  0  0
  159.1200  214.2570  154.4940 O   0  0  0  0  0  1  0  0  0  0  0  0
  157.8180  213.8880  152.5210 C   0  0  0  0  0  1  0  0  0  0  0  0
  159.2040  213.9160  153.1420 C   0  0  2  0  0  3  0  0  0  0  0  0
  159.6180  211.9460  156.5910 O   0  0  0  0  0  1  0  0  0  0  0  0
  159.0690  211.9510  155.3060 C   0  0  2  0  0  3  0  0  0  0  0  0
  157.9460  210.9280  155.2310 C   0  0  0  0  0  2  0  0  0  0  0  0
  157.1610  210.9800  156.3950 O   0  0  0  0  0  0  0  0  0  0  0  0
  155.8590  211.3980  156.0330 C   0  0  2  0  0  3  0  0  0  0  0  0
  154.9890  210.3270  155.9020 F   0  0  0  0  0  0  0  0  0  0  0  0
  155.8560  212.2690  154.7800 C   0  0  0  0  0  2  0  0  0  0  0  0
  156.0480  214.1420  156.1480 C   0  0  0  0  0  1  0  0  0  0  0  0
  155.2660  213.5600  155.0760 N   0  0  0  0  0  2  0  0  0  0  0  0
  1  7  1  6  0  0  0
  1  6  1  0  0  0  0
  1 13  1  0  0  0  0
  3  9  2  0  0  0  0
  4 20  1  1  0  0  0
  4 10  1  0  0  0  0
  5  3  1  0  0  0  0
  6 11  1  0  0  0  0
 10  2  2  0  0  0  0
 10 13  1  0  0  0  0
 10  8  2  0  0  0  0
 11 34  1  1  0  0  0
 11  3  1  0  0  0  0
 12 17  1  1  0  0  0
 12  4  1  0  0  0  0
 12  7  1  0  0  0  0
 13  5  1  1  0  0  0
 14 18  1  0  0  0  0
 15 14  2  0  0  0  0
 16 19  2  0  0  0  0
 16 15  1  0  0  0  0
 17 18  2  0  0  0  0
 19 17  1  0  0  0  0
 21 20  2  0  0  0  0
 22 25  1  0  0  0  0
 23 21  1  1  0  0  0
 23 25  1  0  0  0  0
 24 30  1  6  0  0  0
 24 26  1  0  0  0  0
 24 23  1  0  0  0  0
 26 22  1  0  0  0  0
 27 28  1  0  0  0  0
 28 29  1  6  0  0  0
 28 24  1  0  0  0  0
 29 27  1  0  0  0  0
 31 30  1  0  0  0  0
 32 33  1  0  0  0  0
 33 31  1  0  0  0  0
 34 36  1  6  0  0  0
 34 42  1  0  0  0  0
 35 37  2  0  0  0  0
 36 40  1  0  0  0  0
 37 36  1  0  0  0  0
 40 39  1  1  0  0  0
 40 38  1  0  0  0  0
 42 41  1  1  0  0  0
 43 42  1  0  0  0  0
 43 44  1  0  0  0  0
 45 46  1  6  0  0  0
 45 44  1  0  0  0  0
 47 49  1  0  0  0  0
 47 45  1  0  0  0  0
 49 48  1  0  0  0  0
M  END
>  <MODEL>
4

>  <REMARK>
 VINA RESULT:      -0.1      4.535     11.108
  Name = 
  16 active torsions:
  status: ('A' for Active; 'I' for Inactive)
    1  A    between atoms: C_6  and  C_36
    2  A    between atoms: C_6  and  O_40
    3  A    between atoms: N_10  and  C_20
    4  A    between atoms: N_10  and  C_21
    5  A    between atoms: C_11  and  C_12
    6  A    between atoms: C_15  and  C_47
    7  A    between atoms: C_16  and  C_42
    8  A    between atoms: C_20  and  C_24
    9  A    between atoms: C_20  and  C_45
   10  A    between atoms: N_23  and  C_36
   11  A    between atoms: C_24  and  C_46
   12  A    between atoms: C_27  and  O_31
   13  A    between atoms: C_27  and  C_34
   14  A    between atoms: O_31  and  C_48
   15  A    between atoms: O_40  and  C_46
   16  A    between atoms: O_44  and  C_48
                            x       y       z     vdW  Elec       q    Type
                         _______ _______ _______ _____ _____    ______ ____

>  <TORSDO>
F 16

$$$$
=
 OpenBabel11072409463D

 49 53  0  0  1  0  0  0  0  0999 V2000
  160.5570  208.4830  150.2740 C   0  0  1  0  0  3  0  0  0  0  0  0
  163.9560  210.3360  151.3850 O   0  0  0  0  0  0  0  0  0  0  0  0
  162.1760  207.6200  148.0930 C   0  0  0  0  0  0  0  0  0  0  0  0
  161.8220  209.7080  152.9320 C   0  0  2  0  0  3  0  0  0  0  0  0
  162.5940  208.8560  148.8530 C   0  0  0  0  0  2  0  0  0  0  0  0
  160.2480  207.1010  149.6800 C   0  0  0  0  0  2  0  0  0  0  0  0
  159.8480  208.6680  151.6250 C   0  0  0  0  0  2  0  0  0  0  0  0
  161.8150  211.3940  150.7830 O   0  0  0  0  0  0  0  0  0  0  0  0
  162.4890  207.5020  146.9150 O   0  0  0  0  0  0  0  0  0  0  0  0
  162.4670  210.1470  151.3140 S   0  0  0  0  0  0  0  0  0  0  0  0
  161.3860  206.5340  148.8060 C   0  0  1  0  0  3  0  0  0  0  0  0
  160.7670  208.5800  152.8530 C   0  0  1  0  0  3  0  0  0  0  0  0
  162.0660  208.7630  150.2800 C   0  0  1  0  0  3  0  0  0  0  0  0
  162.9600  205.4680  152.6140 C   0  0  0  0  0  3  0  0  0  0  0  0
  162.1670  204.5320  153.2820 C   0  0  0  0  0  3  0  0  0  0  0  0
  160.9520  204.9250  153.8520 C   0  0  0  0  0  3  0  0  0  0  0  0
  161.3140  207.1920  153.0620 C   0  0  0  0  0  0  0  0  0  0  0  0
  162.5360  206.7910  152.5030 C   0  0  0  0  0  3  0  0  0  0  0  0
  160.5240  206.2490  153.7350 C   0  0  0  0  0  3  0  0  0  0  0  0
  161.2880  210.9160  153.6380 C   0  0  0  0  0  3  0  0  0  0  0  0
  160.2190  210.8240  154.4300 C   0  0  0  0  0  3  0  0  0  0  0  0
  159.0110  211.6690  157.2610 C   0  0  0  0  0  2  0  0  0  0  0  0
  159.7110  212.0280  155.1590 C   0  0  1  0  0  3  0  0  0  0  0  0
  158.1850  212.3670  155.1280 C   0  0  2  0  0  0  0  0  0  0  0  0
  160.1480  211.9860  156.4950 O   0  0  0  0  0  0  0  0  0  0  0  0
  157.8060  212.2860  156.5940 C   0  0  0  0  0  2  0  0  0  0  0  0
  155.8720  211.7800  154.4090 O   0  0  0  0  0  0  0  0  0  0  0  0
  157.2200  211.3590  154.4350 C   0  0  2  0  0  3  0  0  0  0  0  0
  156.1930  210.8130  155.3770 C   0  0  0  0  0  2  0  0  0  0  0  0
  157.9450  213.6770  154.6140 O   0  0  0  0  0  0  0  0  0  0  0  0
  158.9560  214.0660  153.7120 C   0  0  0  0  0  2  0  0  0  0  0  0
  159.2600  213.7640  151.5460 C   0  0  0  0  0  1  0  0  0  0  0  0
  158.3850  214.3430  152.4670 O   0  0  0  0  0  0  0  0  0  0  0  0
  160.9510  205.3490  147.9240 C   0  0  1  0  0  3  0  0  0  0  0  0
  164.0220  204.7350  146.0110 O   0  0  0  0  0  0  0  0  0  0  0  0
  161.8450  205.1700  146.7780 N   0  0  0  0  0  0  0  0  0  0  0  0
  163.2180  204.7970  146.9760 C   0  0  0  0  0  3  0  0  0  0  0  0
  160.1950  206.2950  145.5460 O   0  0  0  0  0  1  0  0  0  0  0  0
  160.9570  204.1860  144.7120 C   0  0  0  0  0  1  0  0  0  0  0  0
  161.3150  205.4650  145.4490 C   0  0  2  0  0  3  0  0  0  0  0  0
  161.2990  203.7780  149.7790 O   0  0  0  0  0  1  0  0  0  0  0  0
  160.5310  204.0360  148.6420 C   0  0  2  0  0  3  0  0  0  0  0  0
  160.4810  202.7900  147.7700 C   0  0  0  0  0  2  0  0  0  0  0  0
  161.5990  201.9760  148.0190 O   0  0  0  0  0  0  0  0  0  0  0  0
  161.1480  200.6470  148.1970 C   0  0  2  0  0  3  0  0  0  0  0  0
  161.2470  200.2400  149.5170 F   0  0  0  0  0  0  0  0  0  0  0  0
  161.8470  199.6660  147.2600 C   0  0  0  0  0  2  0  0  0  0  0  0
  161.2810  198.3140  145.4540 C   0  0  0  0  0  1  0  0  0  0  0  0
  161.1950  199.6670  145.9650 N   0  0  0  0  0  2  0  0  0  0  0  0
  1  6  1  1  0  0  0
  1 13  1  0  0  0  0
  1  7  1  0  0  0  0
  3 11  1  0  0  0  0
  3  5  1  0  0  0  0
  4 20  1  6  0  0  0
  7 12  1  0  0  0  0
  8 10  2  0  0  0  0
  9  3  2  0  0  0  0
 10  2  2  0  0  0  0
 10  4  1  0  0  0  0
 11 34  1  6  0  0  0
 11  6  1  0  0  0  0
 12  4  1  0  0  0  0
 12 17  1  6  0  0  0
 13  5  1  6  0  0  0
 13 10  1  0  0  0  0
 14 15  1  0  0  0  0
 15 16  2  0  0  0  0
 17 19  2  0  0  0  0
 18 14  2  0  0  0  0
 18 17  1  0  0  0  0
 19 16  1  0  0  0  0
 20 21  2  0  0  0  0
 23 21  1  1  0  0  0
 23 25  1  0  0  0  0
 24 30  1  6  0  0  0
 24 23  1  0  0  0  0
 24 26  1  0  0  0  0
 25 22  1  0  0  0  0
 26 22  1  0  0  0  0
 27 28  1  0  0  0  0
 27 29  1  0  0  0  0
 28 24  1  0  0  0  0
 28 29  1  1  0  0  0
 31 30  1  0  0  0  0
 32 33  1  0  0  0  0
 33 31  1  0  0  0  0
 34 36  1  6  0  0  0
 34 42  1  0  0  0  0
 35 37  2  0  0  0  0
 36 37  1  0  0  0  0
 40 39  1  1  0  0  0
 40 38  1  0  0  0  0
 40 36  1  0  0  0  0
 42 41  1  1  0  0  0
 43 44  1  0  0  0  0
 43 42  1  0  0  0  0
 44 45  1  0  0  0  0
 45 46  1  1  0  0  0
 47 45  1  0  0  0  0
 48 49  1  0  0  0  0
 49 47  1  0  0  0  0
M  END
>  <MODEL>
5

>  <REMARK>
 VINA RESULT:       0.5      3.179      5.171
  Name = 
  16 active torsions:
  status: ('A' for Active; 'I' for Inactive)
    1  A    between atoms: C_6  and  C_36
    2  A    between atoms: C_6  and  O_40
    3  A    between atoms: N_10  and  C_20
    4  A    between atoms: N_10  and  C_21
    5  A    between atoms: C_11  and  C_12
    6  A    between atoms: C_15  and  C_47
    7  A    between atoms: C_16  and  C_42
    8  A    between atoms: C_20  and  C_24
    9  A    between atoms: C_20  and  C_45
   10  A    between atoms: N_23  and  C_36
   11  A    between atoms: C_24  and  C_46
   12  A    between atoms: C_27  and  O_31
   13  A    between atoms: C_27  and  C_34
   14  A    between atoms: O_31  and  C_48
   15  A    between atoms: O_40  and  C_46
   16  A    between atoms: O_44  and  C_48
                            x       y       z     vdW  Elec       q    Type
                         _______ _______ _______ _____ _____    ______ ____

>  <TORSDO>
F 16

$$$$
