=
 OpenBabel11072414213D

 62 67  0  0  1  0  0  0  0  0999 V2000
  159.5120  213.4230  144.9350 C   0  0  0  0  0  0  0  0  0  0  0  0
  158.6750  214.3500  145.0810 O   0  0  0  0  0  0  0  0  0  0  0  0
  159.8680  212.5850  146.0410 N   0  0  0  0  0  2  0  0  0  0  0  0
  159.5680  213.1630  141.4040 C   0  0  1  0  0  3  0  0  0  0  0  0
  160.7450  214.4500  143.0420 C   0  0  2  0  0  3  0  0  0  0  0  0
  160.1160  213.1850  143.5880 C   0  0  2  0  0  3  0  0  0  0  0  0
  159.1550  212.7190  142.6740 O   0  0  0  0  0  0  0  0  0  0  0  0
  160.3970  214.4210  141.5850 C   0  0  0  0  0  2  0  0  0  0  0  0
  162.5970  214.3790  143.2560 P   0  0  1  0  0  0  0  0  0  0  0  0
  162.6600  212.9020  144.1670 O   0  0  0  0  0  1  0  0  0  0  0  0
  162.9910  212.2270  141.6910 O   0  0  0  0  0  1  0  0  0  0  0  0
  163.0300  213.6220  141.6080 C   0  0  0  0  0  2  0  0  0  0  0  0
  160.3540  212.0540  140.6950 C   0  0  1  0  0  3  0  0  0  0  0  0
  159.6090  210.7290  140.8230 C   0  0  0  0  0  1  0  0  0  0  0  0
  160.6600  212.3920  139.2270 C   0  0  1  0  0  3  0  0  0  0  0  0
  162.1920  210.4700  138.5160 C   0  0  0  0  0  1  0  0  0  0  0  0
  162.6210  212.7790  137.6950 C   0  0  0  0  0  1  0  0  0  0  0  0
  162.0860  211.9510  138.8460 C   0  0  0  0  0  3  0  0  0  0  0  0
  159.6300  211.8600  138.3350 N   0  0  0  0  0  2  0  0  0  0  0  0
  158.4750  212.7450  138.3830 C   0  0  0  0  0  2  0  0  0  0  0  0
  157.7560  212.6900  137.1160 N   0  0  0  0  0  2  0  0  0  0  0  0
  154.5660  212.6320  139.6460 C   0  0  0  0  0  0  0  0  0  0  0  0
  155.1110  211.4310  139.4200 C   0  0  0  0  0  3  0  0  0  0  0  0
  156.3810  212.2810  137.3810 C   0  0  2  0  0  3  0  0  0  0  0  0
  155.4780  213.5230  137.5370 C   0  0  0  0  0  2  0  0  0  0  0  0
  155.1720  213.8440  138.9990 C   0  0  0  0  0  2  0  0  0  0  0  0
  156.3590  211.3070  138.5850 C   0  0  2  0  0  3  0  0  0  0  0  0
  157.0550  209.1200  139.2290 F   0  0  0  0  0  0  0  0  0  0  0  0
  157.5410  209.8050  137.1490 F   0  0  0  0  0  0  0  0  0  0  0  0
  156.5920  209.8550  138.1540 C   0  0  0  0  0  0  0  0  0  0  0  0
  155.4130  209.2970  137.6910 F   0  0  0  0  0  0  0  0  0  0  0  0
  152.6080  211.4730  140.4350 N   0  0  0  0  0  1  0  0  0  0  0  0
  153.3150  212.7410  140.4500 C   0  0  0  0  0  2  0  0  0  0  0  0
  159.2110  212.6470  147.3410 C   0  0  2  0  0  0  0  0  0  0  0  0
  160.0150  213.4280  148.3650 C   0  0  2  0  0  3  0  0  0  0  0  0
  159.8830  211.9080  148.4990 C   0  0  2  0  0  3  0  0  0  0  0  0
  157.6930  212.7840  147.3660 C   0  0  0  0  0  1  0  0  0  0  0  0
  161.8010  211.6010  147.1450 O   0  0  0  0  0  0  0  0  0  0  0  0
  161.1950  211.2600  148.1490 C   0  0  0  0  0  0  0  0  0  0  0  0
  161.7400  210.1700  149.0310 C   0  0  1  0  0  3  0  0  0  0  0  0
  161.6160  207.1180  149.4470 C   0  0  2  0  0  3  0  0  0  0  0  0
  161.2060  208.2580  147.4070 C   0  0  0  0  0  2  0  0  0  0  0  0
  161.5550  206.0050  148.4140 C   0  0  2  0  0  3  0  0  0  0  0  0
  160.6280  207.2020  148.3030 C   0  0  1  0  0  3  0  0  0  0  0  0
  162.7080  207.9700  149.1780 O   0  0  0  0  0  0  0  0  0  0  0  0
  162.2530  208.9350  148.2610 C   0  0  2  0  0  3  0  0  0  0  0  0
  160.7570  204.8340  148.9660 C   0  0  0  0  0  2  0  0  0  0  0  0
  161.2520  203.5100  148.3970 C   0  0  0  0  0  2  0  0  0  0  0  0
  160.4590  202.4580  148.8520 O   0  0  0  0  0  1  0  0  0  0  0  0
  162.8240  210.7590  149.9290 C   0  0  0  0  0  2  0  0  0  0  0  0
  162.5940  210.4200  151.3270 N   0  0  0  0  0  2  0  0  0  0  0  0
  161.1540  210.3330  151.5410 C   0  0  0  0  0  2  0  0  0  0  0  0
  160.7070  208.6610  154.9270 C   0  0  0  0  0  3  0  0  0  0  0  0
  160.1010  209.7000  155.6360 C   0  0  0  0  0  0  0  0  0  0  0  0
  160.8070  210.0910  152.9810 C   0  0  0  0  0  0  0  0  0  0  0  0
  159.8660  210.9200  154.9990 C   0  0  0  0  0  3  0  0  0  0  0  0
  160.2170  211.0890  153.6960 N   0  0  0  0  0  0  0  0  0  0  0  0
  159.7540  209.5310  156.9370 F   0  0  0  0  0  0  0  0  0  0  0  0
  161.0530  208.8500  153.5910 C   0  0  0  0  0  3  0  0  0  0  0  0
  159.1910  214.1070  149.4550 C   0  0  0  0  0  2  0  0  0  0  0  0
  159.6350  213.7010  150.7160 O   0  0  0  0  0  0  0  0  0  0  0  0
  158.7730  214.3180  151.6220 C   0  0  0  0  0  1  0  0  0  0  0  0
  1  2  2  0  0  0  0
  1  3  1  0  0  0  0
  3 34  1  0  0  0  0
  4 13  1  1  0  0  0
  4  8  1  0  0  0  0
  4  7  1  0  0  0  0
  5  9  1  6  0  0  0
  5  6  1  0  0  0  0
  6  1  1  1  0  0  0
  7  6  1  0  0  0  0
  8  5  1  0  0  0  0
  9 10  1  1  0  0  0
 12 11  1  0  0  0  0
 12  9  1  0  0  0  0
 13 14  1  6  0  0  0
 15 19  1  6  0  0  0
 15 13  1  0  0  0  0
 16 18  1  0  0  0  0
 17 18  1  0  0  0  0
 18 15  1  0  0  0  0
 19 20  1  0  0  0  0
 21 20  1  0  0  0  0
 22 33  1  0  0  0  0
 23 22  2  0  0  0  0
 24 21  1  1  0  0  0
 24 25  1  0  0  0  0
 24 27  1  0  0  0  0
 25 26  1  0  0  0  0
 26 22  1  0  0  0  0
 27 30  1  6  0  0  0
 27 23  1  0  0  0  0
 29 30  1  0  0  0  0
 30 28  1  0  0  0  0
 31 30  1  0  0  0  0
 32 33  1  0  0  0  0
 34 37  1  1  0  0  0
 34 35  1  0  0  0  0
 34 36  1  0  0  0  0
 35 36  1  0  0  0  0
 35 60  1  1  0  0  0
 36 39  1  6  0  0  0
 38 39  2  0  0  0  0
 39 40  1  0  0  0  0
 40 50  1  6  0  0  0
 41 45  1  6  0  0  0
 42 46  1  0  0  0  0
 43 47  1  1  0  0  0
 43 41  1  0  0  0  0
 44 42  1  6  0  0  0
 44 43  1  0  0  0  0
 44 41  1  0  0  0  0
 46 40  1  1  0  0  0
 46 45  1  0  0  0  0
 48 49  1  0  0  0  0
 48 47  1  0  0  0  0
 50 51  1  0  0  0  0
 51 52  1  0  0  0  0
 52 55  1  0  0  0  0
 53 54  1  0  0  0  0
 54 58  1  0  0  0  0
 55 59  1  0  0  0  0
 55 57  2  0  0  0  0
 56 54  2  0  0  0  0
 57 56  1  0  0  0  0
 59 53  2  0  0  0  0
 60 61  1  0  0  0  0
 61 62  1  0  0  0  0
M  END
>  <MODEL>
1

>  <REMARK>
 VINA RESULT:      -2.8      0.000      0.000
  Name = 
  24 active torsions:
  status: ('A' for Active; 'I' for Inactive)
    1  A    between atoms: C_1  and  C_30
    2  A    between atoms: P_2  and  C_10
    3  A    between atoms: P_2  and  C_31
    4  A    between atoms: C_3  and  C_47
    5  A    between atoms: C_4  and  C_60
    6  A    between atoms: N_8  and  C_12
    7  A    between atoms: N_8  and  C_29
    8  A    between atoms: N_9  and  C_12
    9  A    between atoms: N_9  and  C_23
   10  A    between atoms: C_14  and  C_39
   11  A    between atoms: C_15  and  C_46
   12  A    between atoms: C_15  and  C_53
   13  A    between atoms: C_15  and  C_62
   14  A    between atoms: O_16  and  C_32
   15  A    between atoms: C_20  and  C_47
   16  A    between atoms: C_29  and  C_30
   17  A    between atoms: C_29  and  C_52
   18  A    between atoms: C_32  and  C_40
   19  A    between atoms: C_33  and  N_57
   20  A    between atoms: C_34  and  N_35
   21  A    between atoms: C_34  and  C_37
   22  A    between atoms: N_35  and  C_46
   23  A    between atoms: C_42  and  C_62
   24  A    between atoms: C_45  and  C_55
                            x       y       z     vdW  Elec       q    Type
                         _______ _______ _______ _____ _____    ______ ____

>  <TORSDO>
F 24

$$$$
=
 OpenBabel11072414213D

 62 67  0  0  1  0  0  0  0  0999 V2000
  158.6880  212.5610  153.2660 C   0  0  0  0  0  0  0  0  0  0  0  0
  158.5120  213.6800  153.8110 O   0  0  0  0  0  0  0  0  0  0  0  0
  158.3060  212.3490  151.9020 N   0  0  0  0  0  2  0  0  0  0  0  0
  161.1250  210.1060  154.0220 C   0  0  1  0  0  3  0  0  0  0  0  0
  160.2040  212.0040  155.1500 C   0  0  2  0  0  3  0  0  0  0  0  0
  159.3230  211.4550  154.0480 C   0  0  2  0  0  3  0  0  0  0  0  0
  160.0930  210.6220  153.2170 O   0  0  0  0  0  0  0  0  0  0  0  0
  161.3910  211.0900  155.1450 C   0  0  0  0  0  2  0  0  0  0  0  0
  159.3160  211.8840  156.7870 P   0  0  1  0  0  0  0  0  0  0  0  0
  159.1360  213.5860  157.0700 O   0  0  0  0  0  1  0  0  0  0  0  0
  156.7030  212.5200  156.7060 O   0  0  0  0  0  1  0  0  0  0  0  0
  157.5910  211.6010  156.1370 C   0  0  0  0  0  2  0  0  0  0  0  0
  160.7320  208.7220  154.5510 C   0  0  1  0  0  3  0  0  0  0  0  0
  159.4910  208.8380  155.4310 C   0  0  0  0  0  1  0  0  0  0  0  0
  160.5340  207.6930  153.4270 C   0  0  1  0  0  3  0  0  0  0  0  0
  162.7160  206.9740  152.3000 C   0  0  0  0  0  1  0  0  0  0  0  0
  160.8410  207.8710  150.9330 C   0  0  0  0  0  1  0  0  0  0  0  0
  161.5340  207.9310  152.2790 C   0  0  0  0  0  3  0  0  0  0  0  0
  160.5620  206.3270  153.9470 N   0  0  0  0  0  2  0  0  0  0  0  0
  161.3420  205.5020  153.0380 C   0  0  0  0  0  2  0  0  0  0  0  0
  160.4560  204.8160  152.1060 N   0  0  0  0  0  2  0  0  0  0  0  0
  160.7770  203.4090  148.2990 C   0  0  0  0  0  0  0  0  0  0  0  0
  160.8400  202.4620  149.2420 C   0  0  0  0  0  3  0  0  0  0  0  0
  161.2690  204.1790  151.0760 C   0  0  2  0  0  3  0  0  0  0  0  0
  161.4850  205.1490  149.8950 C   0  0  0  0  0  2  0  0  0  0  0  0
  160.5720  204.8390  148.7090 C   0  0  0  0  0  2  0  0  0  0  0  0
  160.6360  202.8190  150.6930 C   0  0  2  0  0  3  0  0  0  0  0  0
  160.5830  200.4840  151.1720 F   0  0  0  0  0  0  0  0  0  0  0  0
  160.6690  201.9090  152.9020 F   0  0  0  0  0  0  0  0  0  0  0  0
  161.1070  201.6860  151.6100 C   0  0  0  0  0  0  0  0  0  0  0  0
  162.4890  201.6110  151.6080 F   0  0  0  0  0  0  0  0  0  0  0  0
  160.7040  201.6470  146.6590 N   0  0  0  0  0  1  0  0  0  0  0  0
  161.0080  203.0510  146.8700 C   0  0  0  0  0  2  0  0  0  0  0  0
  157.8300  213.4130  151.0260 C   0  0  2  0  0  0  0  0  0  0  0  0
  157.8440  213.0130  149.5610 C   0  0  2  0  0  3  0  0  0  0  0  0
  158.8500  214.0470  150.0790 C   0  0  2  0  0  3  0  0  0  0  0  0
  156.6790  214.2810  151.5200 C   0  0  0  0  0  1  0  0  0  0  0  0
  160.8340  213.3810  151.1860 O   0  0  0  0  0  0  0  0  0  0  0  0
  160.2200  213.4270  150.1320 C   0  0  0  0  0  0  0  0  0  0  0  0
  160.8370  212.8900  148.8690 C   0  0  1  0  0  3  0  0  0  0  0  0
  162.3620  213.0450  146.1950 C   0  0  2  0  0  3  0  0  0  0  0  0
  160.0990  213.6680  146.5390 C   0  0  0  0  0  2  0  0  0  0  0  0
  161.9790  213.7500  144.9050 C   0  0  2  0  0  3  0  0  0  0  0  0
  160.9730  212.8650  145.6200 C   0  0  1  0  0  3  0  0  0  0  0  0
  162.3020  213.9480  147.2780 O   0  0  0  0  0  0  0  0  0  0  0  0
  160.9740  213.9350  147.7430 C   0  0  2  0  0  3  0  0  0  0  0  0
  162.5290  212.9800  143.7140 C   0  0  0  0  0  2  0  0  0  0  0  0
  162.0250  213.5610  142.3990 C   0  0  0  0  0  2  0  0  0  0  0  0
  162.5900  212.8820  141.3200 O   0  0  0  0  0  1  0  0  0  0  0  0
  162.1820  212.2560  149.2100 C   0  0  0  0  0  2  0  0  0  0  0  0
  162.0450  210.8280  149.4620 N   0  0  0  0  0  2  0  0  0  0  0  0
  161.2630  210.2500  148.3740 C   0  0  0  0  0  2  0  0  0  0  0  0
  163.3790  207.1010  148.1110 C   0  0  0  0  0  3  0  0  0  0  0  0
  162.6390  206.3860  147.1680 C   0  0  0  0  0  0  0  0  0  0  0  0
  161.7580  208.8900  147.9770 C   0  0  0  0  0  0  0  0  0  0  0  0
  161.4640  206.9390  146.6530 C   0  0  0  0  0  3  0  0  0  0  0  0
  161.0540  208.1690  147.0620 N   0  0  0  0  0  0  0  0  0  0  0  0
  163.0490  205.1570  146.7640 F   0  0  0  0  0  0  0  0  0  0  0  0
  162.9460  208.3630  148.5110 C   0  0  0  0  0  3  0  0  0  0  0  0
  156.8040  213.7090  148.6890 C   0  0  0  0  0  2  0  0  0  0  0  0
  156.8290  213.1790  147.3960 O   0  0  0  0  0  0  0  0  0  0  0  0
  156.5630  214.2590  146.5540 C   0  0  0  0  0  1  0  0  0  0  0  0
  1  2  2  0  0  0  0
  3  1  1  0  0  0  0
  4 13  1  1  0  0  0
  4  8  1  0  0  0  0
  5  9  1  1  0  0  0
  6  1  1  6  0  0  0
  6  5  1  0  0  0  0
  7  4  1  0  0  0  0
  7  6  1  0  0  0  0
  8  5  1  0  0  0  0
  9 10  1  6  0  0  0
 12 11  1  0  0  0  0
 12  9  1  0  0  0  0
 13 14  1  6  0  0  0
 15 18  1  6  0  0  0
 15 19  1  0  0  0  0
 15 13  1  0  0  0  0
 17 18  1  0  0  0  0
 18 16  1  0  0  0  0
 20 19  1  0  0  0  0
 21 20  1  0  0  0  0
 22 26  1  0  0  0  0
 22 23  2  0  0  0  0
 23 27  1  0  0  0  0
 24 21  1  1  0  0  0
 25 24  1  0  0  0  0
 26 25  1  0  0  0  0
 27 24  1  0  0  0  0
 27 30  1  1  0  0  0
 28 30  1  0  0  0  0
 30 29  1  0  0  0  0
 31 30  1  0  0  0  0
 32 33  1  0  0  0  0
 33 22  1  0  0  0  0
 34 37  1  1  0  0  0
 34  3  1  0  0  0  0
 35 60  1  6  0  0  0
 35 36  1  0  0  0  0
 35 34  1  0  0  0  0
 36 39  1  1  0  0  0
 36 34  1  0  0  0  0
 39 38  2  0  0  0  0
 40 50  1  1  0  0  0
 40 39  1  0  0  0  0
 41 45  1  1  0  0  0
 42 46  1  0  0  0  0
 43 47  1  6  0  0  0
 43 44  1  0  0  0  0
 43 41  1  0  0  0  0
 44 41  1  0  0  0  0
 44 42  1  1  0  0  0
 45 46  1  0  0  0  0
 46 40  1  1  0  0  0
 48 47  1  0  0  0  0
 49 48  1  0  0  0  0
 50 51  1  0  0  0  0
 52 51  1  0  0  0  0
 53 59  1  0  0  0  0
 54 53  2  0  0  0  0
 55 52  1  0  0  0  0
 55 59  2  0  0  0  0
 56 57  2  0  0  0  0
 56 54  1  0  0  0  0
 57 55  1  0  0  0  0
 58 54  1  0  0  0  0
 61 60  1  0  0  0  0
 62 61  1  0  0  0  0
M  END
>  <MODEL>
2

>  <REMARK>
 VINA RESULT:      -1.4      5.502     11.441
  Name = 
  24 active torsions:
  status: ('A' for Active; 'I' for Inactive)
    1  A    between atoms: C_1  and  C_30
    2  A    between atoms: P_2  and  C_10
    3  A    between atoms: P_2  and  C_31
    4  A    between atoms: C_3  and  C_47
    5  A    between atoms: C_4  and  C_60
    6  A    between atoms: N_8  and  C_12
    7  A    between atoms: N_8  and  C_29
    8  A    between atoms: N_9  and  C_12
    9  A    between atoms: N_9  and  C_23
   10  A    between atoms: C_14  and  C_39
   11  A    between atoms: C_15  and  C_46
   12  A    between atoms: C_15  and  C_53
   13  A    between atoms: C_15  and  C_62
   14  A    between atoms: O_16  and  C_32
   15  A    between atoms: C_20  and  C_47
   16  A    between atoms: C_29  and  C_30
   17  A    between atoms: C_29  and  C_52
   18  A    between atoms: C_32  and  C_40
   19  A    between atoms: C_33  and  N_57
   20  A    between atoms: C_34  and  N_35
   21  A    between atoms: C_34  and  C_37
   22  A    between atoms: N_35  and  C_46
   23  A    between atoms: C_42  and  C_62
   24  A    between atoms: C_45  and  C_55
                            x       y       z     vdW  Elec       q    Type
                         _______ _______ _______ _____ _____    ______ ____

>  <TORSDO>
F 24

$$$$
