=
 OpenBabel11072415183D

 58 63  0  0  1  0  0  0  0  0999 V2000
  161.0690  206.8850  151.2870 C   0  0  0  0  0  0  0  0  0  0  0  0
  161.2630  207.3170  154.4530 C   0  0  0  0  0  2  0  0  0  0  0  0
  161.5270  208.1600  151.3530 C   0  0  0  0  0  0  0  0  0  0  0  0
  160.9360  205.9990  152.4880 C   0  0  0  0  0  2  0  0  0  0  0  0
  160.2650  206.7100  153.5680 N   0  0  0  0  0  2  0  0  0  0  0  0
  161.9290  208.8390  152.6500 C   0  0  2  0  0  3  0  0  0  0  0  0
  160.8770  207.0590  148.8780 N   0  0  0  0  0  0  0  0  0  0  0  0
  160.7510  206.3310  150.0450 O   0  0  0  0  0  0  0  0  0  0  0  0
  161.6580  208.9590  150.1030 C   0  0  0  0  0  0  0  0  0  0  0  0
  162.3770  207.9330  153.7160 N   0  0  0  0  0  2  0  0  0  0  0  0
  161.3380  208.4100  148.9260 C   0  0  0  0  0  3  0  0  0  0  0  0
  159.7370  210.1070  152.4310 C   0  0  0  0  0  3  0  0  0  0  0  0
  156.1520  210.9200  154.0440 O   0  0  0  0  0  0  0  0  0  0  0  0
  157.1180  211.4670  154.6420 C   0  0  0  0  0  0  0  0  0  0  0  0
  159.4640  212.2100  154.6580 C   0  0  0  0  0  3  0  0  0  0  0  0
  158.6180  210.6850  152.8600 C   0  0  0  0  0  3  0  0  0  0  0  0
  162.8650  210.6380  154.6350 C   0  0  0  0  0  1  0  0  0  0  0  0
  160.7730  211.9780  154.6200 C   0  0  0  0  0  3  0  0  0  0  0  0
  161.0400  209.9760  153.1190 C   0  0  0  0  0  0  0  0  0  0  0  0
  158.4520  211.3550  154.1150 N   0  0  0  0  0  0  0  0  0  0  0  0
  161.4900  210.8130  154.0770 C   0  0  0  0  0  0  0  0  0  0  0  0
  156.5410  213.5650  155.6130 O   0  0  0  0  0  0  0  0  0  0  0  0
  154.9560  212.8130  157.2060 C   0  0  0  0  0  2  0  0  0  0  0  0
  155.6980  211.6220  156.6740 C   0  0  0  0  0  2  0  0  0  0  0  0
  156.8520  212.2260  155.9070 C   0  0  1  0  0  3  0  0  0  0  0  0
  155.7570  213.9910  156.6960 C   0  0  0  0  0  2  0  0  0  0  0  0
  162.1300  210.2770  150.1810 O   0  0  0  0  0  0  0  0  0  0  0  0
  163.3810  212.1650  148.6100 O   0  0  0  0  0  0  0  0  0  0  0  0
  162.1140  211.3810  148.8590 P   0  0  1  0  0  4  0  0  0  0  0  0
  160.7840  211.3840  147.6180 C   0  0  0  0  0  2  0  0  0  0  0  0
  160.6320  212.7740  147.0220 C   0  0  0  0  0  2  0  0  0  0  0  0
  160.1760  212.3870  144.7570 C   0  0  0  0  0  2  0  0  0  0  0  0
  161.1170  214.4440  143.9540 C   0  0  0  0  0  2  0  0  0  0  0  0
  161.2160  212.8080  145.6910 N   0  0  0  0  0  0  0  0  0  0  0  0
  159.9890  213.4720  143.7170 C   0  0  1  0  0  3  0  0  0  0  0  0
  161.5110  214.2000  145.3880 C   0  0  0  0  0  2  0  0  0  0  0  0
  157.2320  212.0220  139.9270 O   0  0  0  0  0  1  0  0  0  0  0  0
  158.6390  213.0190  141.5630 C   0  0  1  0  0  3  0  0  0  0  0  0
  160.7010  211.3120  139.6540 O   0  0  0  0  0  0  0  0  0  0  0  0
  161.1010  213.3660  141.4790 N   0  0  0  0  0  2  0  0  0  0  0  0
  158.9910  213.2410  139.1780 O   0  0  0  0  0  1  0  0  0  0  0  0
  159.9870  212.8870  142.2980 C   0  0  1  0  0  3  0  0  0  0  0  0
  161.5050  211.0210  140.7660 C   0  0  2  0  0  3  0  0  0  0  0  0
  159.3880  211.0610  140.0770 C   0  0  0  0  0  2  0  0  0  0  0  0
  158.1190  214.4520  141.5280 C   0  0  0  0  0  1  0  0  0  0  0  0
  158.5660  212.3530  140.1670 C   0  0  0  0  0  0  0  0  0  0  0  0
  162.0940  212.2960  141.3750 C   0  0  0  0  0  2  0  0  0  0  0  0
  162.5970  210.0220  140.4050 C   0  0  0  0  0  2  0  0  0  0  0  0
  162.0240  208.6970  139.9340 C   0  0  0  0  0  1  0  0  0  0  0  0
  160.6990  206.3940  147.6030 C   0  0  0  0  0  2  0  0  0  0  0  0
  161.9940  206.4350  146.8040 C   0  0  1  0  0  3  0  0  0  0  0  0
  162.9890  207.0830  147.5420 O   0  0  0  0  0  1  0  0  0  0  0  0
  162.4430  205.0200  146.4940 C   0  0  0  0  0  2  0  0  0  0  0  0
  160.9310  203.1500  145.8570 C   0  0  0  0  0  3  0  0  0  0  0  0
  161.4350  204.3640  145.6130 C   0  0  0  0  0  3  0  0  0  0  0  0
  161.3420  202.3120  147.0240 C   0  0  0  0  0  2  0  0  0  0  0  0
  160.3070  201.9140  148.9360 C   0  0  0  0  0  1  0  0  0  0  0  0
  160.9380  202.9300  148.2070 O   0  0  0  0  0  0  0  0  0  0  0  0
  1  3  2  0  0  0  0
  1  4  1  0  0  0  0
  3  6  1  0  0  0  0
  4  5  1  0  0  0  0
  5  2  1  0  0  0  0
  6 19  1  1  0  0  0
  6 10  1  0  0  0  0
  7 11  1  0  0  0  0
  7  8  1  0  0  0  0
  8  1  1  0  0  0  0
  9 27  1  0  0  0  0
  9  3  1  0  0  0  0
 10  2  1  0  0  0  0
 11  9  2  0  0  0  0
 12 16  2  0  0  0  0
 12 19  1  0  0  0  0
 13 14  2  0  0  0  0
 16 20  1  0  0  0  0
 18 15  2  0  0  0  0
 19 21  2  0  0  0  0
 20 14  1  0  0  0  0
 20 15  1  0  0  0  0
 21 18  1  0  0  0  0
 21 17  1  0  0  0  0
 22 25  1  0  0  0  0
 22 26  1  0  0  0  0
 24 23  1  0  0  0  0
 25 14  1  6  0  0  0
 25 24  1  0  0  0  0
 26 23  1  0  0  0  0
 29 28  2  6  0  0  0
 29 27  1  0  0  0  0
 30 29  1  0  0  0  0
 31 30  1  0  0  0  0
 32 34  1  0  0  0  0
 33 36  1  0  0  0  0
 34 31  1  0  0  0  0
 35 33  1  6  0  0  0
 35 32  1  0  0  0  0
 36 34  1  0  0  0  0
 37 46  1  0  0  0  0
 38 45  1  6  0  0  0
 38 42  1  0  0  0  0
 39 44  1  0  0  0  0
 39 43  1  0  0  0  0
 41 46  1  0  0  0  0
 42 40  1  6  0  0  0
 42 35  1  0  0  0  0
 43 48  1  6  0  0  0
 43 47  1  0  0  0  0
 44 46  1  0  0  0  0
 46 38  1  0  0  0  0
 47 40  1  0  0  0  0
 49 48  1  0  0  0  0
 50  7  1  0  0  0  0
 51 52  1  1  0  0  0
 51 50  1  0  0  0  0
 53 51  1  0  0  0  0
 54 56  1  0  0  0  0
 55 54  2  0  0  0  0
 55 53  1  0  0  0  0
 56 58  1  0  0  0  0
 58 57  1  0  0  0  0
M  END
>  <MODEL>
1

>  <REMARK>
 VINA RESULT:      -5.3      0.000      0.000
  Name = 
  15 active torsions:
  status: ('A' for Active; 'I' for Inactive)
    1  A    between atoms: C_1  and  C_19
    2  A    between atoms: C_1  and  C_46
    3  A    between atoms: C_5  and  C_16
    4  A    between atoms: C_5  and  N_38
    5  A    between atoms: P_13  and  C_16
    6  A    between atoms: P_13  and  O_24
    7  A    between atoms: C_15  and  C_43
    8  A    between atoms: N_18  and  C_46
    9  A    between atoms: C_19  and  C_49
   10  A    between atoms: C_20  and  C_45
   11  A    between atoms: O_24  and  C_42
   12  A    between atoms: C_25  and  C_50
   13  A    between atoms: C_27  and  C_52
   14  A    between atoms: C_28  and  C_30
   15  A    between atoms: C_45  and  O_48
                            x       y       z     vdW  Elec       q    Type
                         _______ _______ _______ _____ _____    ______ ____

>  <TORSDO>
F 15

$$$$
=
 OpenBabel11072415183D

 58 63  0  0  1  0  0  0  0  0999 V2000
  161.0890  206.8120  150.7740 C   0  0  0  0  0  0  0  0  0  0  0  0
  161.1960  206.9980  153.9690 C   0  0  0  0  0  2  0  0  0  0  0  0
  161.6580  208.0320  150.9500 C   0  0  0  0  0  0  0  0  0  0  0  0
  160.8300  205.8590  151.9010 C   0  0  0  0  0  2  0  0  0  0  0  0
  160.1830  206.5510  153.0080 N   0  0  0  0  0  2  0  0  0  0  0  0
  162.0670  208.5760  152.3060 C   0  0  2  0  0  3  0  0  0  0  0  0
  161.0090  207.1740  148.3800 N   0  0  0  0  0  0  0  0  0  0  0  0
  160.7720  206.3790  149.4850 O   0  0  0  0  0  0  0  0  0  0  0  0
  161.9090  208.9020  149.7670 C   0  0  0  0  0  0  0  0  0  0  0  0
  162.3890  207.5590  153.3160 N   0  0  0  0  0  2  0  0  0  0  0  0
  161.5880  208.4690  148.5430 C   0  0  0  0  0  3  0  0  0  0  0  0
  160.0090  210.0550  152.1080 C   0  0  0  0  0  3  0  0  0  0  0  0
  156.4490  211.0810  153.6550 O   0  0  0  0  0  0  0  0  0  0  0  0
  157.4350  211.4900  154.3250 C   0  0  0  0  0  0  0  0  0  0  0  0
  159.8360  212.0090  154.4760 C   0  0  0  0  0  3  0  0  0  0  0  0
  158.9310  210.7020  152.5410 C   0  0  0  0  0  3  0  0  0  0  0  0
  163.0790  210.1340  154.4520 C   0  0  0  0  0  1  0  0  0  0  0  0
  161.1190  211.6600  154.4660 C   0  0  0  0  0  3  0  0  0  0  0  0
  161.2650  209.7550  152.8280 C   0  0  0  0  0  0  0  0  0  0  0  0
  158.7750  211.2930  153.8360 N   0  0  0  0  0  0  0  0  0  0  0  0
  161.7500  210.4760  153.8620 C   0  0  0  0  0  0  0  0  0  0  0  0
  156.4970  213.3850  155.4240 O   0  0  0  0  0  0  0  0  0  0  0  0
  155.4370  212.2770  157.2310 C   0  0  0  0  0  2  0  0  0  0  0  0
  156.3670  211.3100  156.5610 C   0  0  0  0  0  2  0  0  0  0  0  0
  157.1880  212.1780  155.6340 C   0  0  1  0  0  3  0  0  0  0  0  0
  155.8140  213.6130  156.6280 C   0  0  0  0  0  2  0  0  0  0  0  0
  162.4940  210.1610  149.9580 O   0  0  0  0  0  0  0  0  0  0  0  0
  163.2620  212.5330  148.7830 O   0  0  0  0  0  0  0  0  0  0  0  0
  162.1420  211.5390  148.9870 P   0  0  1  0  0  4  0  0  0  0  0  0
  160.6310  211.6530  147.9800 C   0  0  0  0  0  2  0  0  0  0  0  0
  160.5990  212.9800  147.2400 C   0  0  0  0  0  2  0  0  0  0  0  0
  160.2060  213.0690  144.9320 C   0  0  0  0  0  2  0  0  0  0  0  0
  162.0960  214.4530  144.4070 C   0  0  0  0  0  2  0  0  0  0  0  0
  161.2360  212.8370  145.9410 N   0  0  0  0  0  0  0  0  0  0  0  0
  160.6620  214.1910  144.0230 C   0  0  1  0  0  3  0  0  0  0  0  0
  162.1970  213.9220  145.8140 C   0  0  0  0  0  2  0  0  0  0  0  0
  162.9110  213.5980  139.7030 O   0  0  0  0  0  1  0  0  0  0  0  0
  161.8200  213.5220  141.8130 C   0  0  1  0  0  3  0  0  0  0  0  0
  159.3690  213.3490  139.6290 O   0  0  0  0  0  0  0  0  0  0  0  0
  159.5160  212.7430  142.3350 N   0  0  0  0  0  2  0  0  0  0  0  0
  161.4890  211.8710  140.0740 O   0  0  0  0  0  1  0  0  0  0  0  0
  160.4950  213.8100  142.5440 C   0  0  1  0  0  3  0  0  0  0  0  0
  158.5400  214.0850  140.4870 C   0  0  2  0  0  3  0  0  0  0  0  0
  160.5890  214.0400  139.6180 C   0  0  0  0  0  2  0  0  0  0  0  0
  162.6740  212.4740  142.5190 C   0  0  0  0  0  1  0  0  0  0  0  0
  161.7030  213.2330  140.2970 C   0  0  0  0  0  0  0  0  0  0  0  0
  158.2900  213.3360  141.7980 C   0  0  0  0  0  2  0  0  0  0  0  0
  157.2310  214.4530  139.8000 C   0  0  0  0  0  2  0  0  0  0  0  0
  156.9740  213.6030  138.5680 C   0  0  0  0  0  1  0  0  0  0  0  0
  160.8230  206.6190  147.0530 C   0  0  0  0  0  2  0  0  0  0  0  0
  161.9780  205.6920  146.7050 C   0  0  1  0  0  3  0  0  0  0  0  0
  163.0570  205.9300  147.5620 O   0  0  0  0  0  1  0  0  0  0  0  0
  161.5320  204.2500  146.8550 C   0  0  0  0  0  2  0  0  0  0  0  0
  160.4920  202.5340  145.3840 C   0  0  0  0  0  3  0  0  0  0  0  0
  160.9970  203.7600  145.5530 C   0  0  0  0  0  3  0  0  0  0  0  0
  160.4340  201.5150  146.4760 C   0  0  0  0  0  2  0  0  0  0  0  0
  161.4340  200.7220  148.2800 C   0  0  0  0  0  1  0  0  0  0  0  0
  161.6810  201.4200  147.0920 O   0  0  0  0  0  0  0  0  0  0  0  0
  1  3  2  0  0  0  0
  1  4  1  0  0  0  0
  3  6  1  0  0  0  0
  4  5  1  0  0  0  0
  5  2  1  0  0  0  0
  6 19  1  1  0  0  0
  6 10  1  0  0  0  0
  7 11  1  0  0  0  0
  7  8  1  0  0  0  0
  8  1  1  0  0  0  0
  9 27  1  0  0  0  0
  9  3  1  0  0  0  0
 10  2  1  0  0  0  0
 11  9  2  0  0  0  0
 12 16  2  0  0  0  0
 12 19  1  0  0  0  0
 13 14  2  0  0  0  0
 16 20  1  0  0  0  0
 18 15  2  0  0  0  0
 19 21  2  0  0  0  0
 20 14  1  0  0  0  0
 20 15  1  0  0  0  0
 21 17  1  0  0  0  0
 21 18  1  0  0  0  0
 22 25  1  0  0  0  0
 22 26  1  0  0  0  0
 24 23  1  0  0  0  0
 25 14  1  6  0  0  0
 25 24  1  0  0  0  0
 26 23  1  0  0  0  0
 29 28  2  6  0  0  0
 29 27  1  0  0  0  0
 30 29  1  0  0  0  0
 31 30  1  0  0  0  0
 32 34  1  0  0  0  0
 33 36  1  0  0  0  0
 34 31  1  0  0  0  0
 35 33  1  6  0  0  0
 35 32  1  0  0  0  0
 36 34  1  0  0  0  0
 37 46  1  0  0  0  0
 38 45  1  1  0  0  0
 38 42  1  0  0  0  0
 39 43  1  0  0  0  0
 41 46  1  0  0  0  0
 42 40  1  1  0  0  0
 42 35  1  0  0  0  0
 43 48  1  6  0  0  0
 43 47  1  0  0  0  0
 44 39  1  0  0  0  0
 44 46  1  0  0  0  0
 46 38  1  0  0  0  0
 47 40  1  0  0  0  0
 49 48  1  0  0  0  0
 50  7  1  0  0  0  0
 51 53  1  0  0  0  0
 51 50  1  0  0  0  0
 51 52  1  1  0  0  0
 54 55  2  0  0  0  0
 54 56  1  0  0  0  0
 55 53  1  0  0  0  0
 56 58  1  0  0  0  0
 58 57  1  0  0  0  0
M  END
>  <MODEL>
2

>  <REMARK>
 VINA RESULT:      -3.5      1.231      2.162
  Name = 
  15 active torsions:
  status: ('A' for Active; 'I' for Inactive)
    1  A    between atoms: C_1  and  C_19
    2  A    between atoms: C_1  and  C_46
    3  A    between atoms: C_5  and  C_16
    4  A    between atoms: C_5  and  N_38
    5  A    between atoms: P_13  and  C_16
    6  A    between atoms: P_13  and  O_24
    7  A    between atoms: C_15  and  C_43
    8  A    between atoms: N_18  and  C_46
    9  A    between atoms: C_19  and  C_49
   10  A    between atoms: C_20  and  C_45
   11  A    between atoms: O_24  and  C_42
   12  A    between atoms: C_25  and  C_50
   13  A    between atoms: C_27  and  C_52
   14  A    between atoms: C_28  and  C_30
   15  A    between atoms: C_45  and  O_48
                            x       y       z     vdW  Elec       q    Type
                         _______ _______ _______ _____ _____    ______ ____

>  <TORSDO>
F 15

$$$$
