=
 OpenBabel11072410173D

 37 41  0  0  1  0  0  0  0  0999 V2000
  159.2210  211.6980  153.6020 C   0  0  1  0  0  0  0  0  0  0  0  0
  158.5810  210.4680  153.7990 O   0  0  0  0  0  1  0  0  0  0  0  0
  161.0540  207.3660  154.7650 N   0  0  0  0  0  0  0  0  0  0  0  0
  161.1060  208.6890  154.4610 C   0  0  0  0  0  0  0  0  0  0  0  0
  161.1280  206.4170  153.7980 C   0  0  0  0  0  3  0  0  0  0  0  0
  160.9670  209.6910  155.5800 C   0  0  1  0  0  3  0  0  0  0  0  0
  160.7590  211.4870  153.7490 C   0  0  1  0  0  3  0  0  0  0  0  0
  161.3090  208.0870  152.1350 C   0  0  0  0  0  0  0  0  0  0  0  0
  161.2520  211.1400  155.1620 C   0  0  0  0  0  2  0  0  0  0  0  0
  161.2290  209.0850  153.1160 C   0  0  0  0  0  0  0  0  0  0  0  0
  161.3870  210.5310  152.7340 C   0  0  0  0  0  2  0  0  0  0  0  0
  161.4660  208.4280  150.7610 N   0  0  0  0  0  1  0  0  0  0  0  0
  161.2550  206.7790  152.4960 N   0  0  0  0  0  0  0  0  0  0  0  0
  159.7330  210.4810  157.2400 C   0  0  0  0  0  1  0  0  0  0  0  0
  159.7010  209.5940  156.1630 O   0  0  0  0  0  0  0  0  0  0  0  0
  157.1150  214.0240  152.1480 C   0  0  0  0  0  1  0  0  0  0  0  0
  158.8270  212.2190  152.1920 C   0  0  2  0  0  3  0  0  0  0  0  0
  159.1420  214.1980  150.7520 C   0  0  2  0  0  3  0  0  0  0  0  0
  159.9800  213.0560  150.2300 C   0  0  1  0  0  0  0  0  0  0  0  0
  160.6670  214.2810  150.7860 C   0  0  0  0  0  2  0  0  0  0  0  0
  159.8110  211.8310  151.0960 C   0  0  0  0  0  2  0  0  0  0  0  0
  158.5990  213.7290  152.0940 C   0  0  1  0  0  3  0  0  0  0  0  0
  161.0310  212.3110  148.0350 C   0  0  0  0  0  0  0  0  0  0  0  0
  159.2830  212.7400  146.5190 C   0  0  2  0  0  3  0  0  0  0  0  0
  159.9880  212.9100  148.7790 N   0  0  0  0  0  0  0  0  0  0  0  0
  158.9100  213.3150  147.8900 C   0  0  0  0  0  2  0  0  0  0  0  0
  160.7680  212.3040  146.5780 C   0  0  1  0  0  3  0  0  0  0  0  0
  162.0750  211.8460  148.5640 O   0  0  0  0  0  0  0  0  0  0  0  0
  158.9120  213.6900  145.3910 C   0  0  0  0  0  1  0  0  0  0  0  0
  161.7170  213.2450  145.8900 C   0  0  0  0  0  0  0  0  0  0  0  0
  162.0890  214.4440  146.4900 O   0  0  0  0  0  1  0  0  0  0  0  0
  162.1830  212.9430  144.7610 O   0  0  0  0  0  0  0  0  0  0  0  0
  158.6660  212.6800  154.6340 C   0  0  0  0  0  0  0  0  0  0  0  0
  159.2680  213.7300  154.8160 O   0  0  0  0  0  0  0  0  0  0  0  0
  157.4620  212.4220  155.5160 C   0  0  2  0  0  3  0  0  0  0  0  0
  156.3000  212.1460  154.7940 O   0  0  0  0  0  1  0  0  0  0  0  0
  157.2220  213.5910  156.4530 C   0  0  0  0  0  1  0  0  0  0  0  0
  1  2  1  1  0  0  0
  1 33  1  0  0  0  0
  4  3  1  0  0  0  0
  4  6  1  0  0  0  0
  5  3  2  0  0  0  0
  6 15  1  6  0  0  0
  7  1  1  1  0  0  0
  7  9  1  0  0  0  0
  8 13  2  0  0  0  0
  8 10  1  0  0  0  0
  9  6  1  0  0  0  0
 10  4  2  0  0  0  0
 11 10  1  0  0  0  0
 11  7  1  0  0  0  0
 12  8  1  0  0  0  0
 13  5  1  0  0  0  0
 15 14  1  0  0  0  0
 17  1  1  1  0  0  0
 18 20  1  1  0  0  0
 18 22  1  0  0  0  0
 19 25  1  6  0  0  0
 19 18  1  0  0  0  0
 19 20  1  0  0  0  0
 19 21  1  0  0  0  0
 21 17  1  0  0  0  0
 22 16  1  6  0  0  0
 22 17  1  0  0  0  0
 23 28  2  0  0  0  0
 23 25  1  0  0  0  0
 24 29  1  6  0  0  0
 24 27  1  0  0  0  0
 24 26  1  0  0  0  0
 26 25  1  0  0  0  0
 27 30  1  6  0  0  0
 27 23  1  0  0  0  0
 30 31  1  0  0  0  0
 32 30  2  0  0  0  0
 33 34  2  0  0  0  0
 33 35  1  0  0  0  0
 35 37  1  6  0  0  0
 36 35  1  0  0  0  0
M  END
>  <MODEL>
1

>  <REMARK>
 VINA RESULT:      -5.1      0.000      0.000
  Name = 
  7 active torsions:
  status: ('A' for Active; 'I' for Inactive)
    1  A    between atoms: C_4  and  C_18
    2  A    between atoms: C_7  and  O_32
    3  A    between atoms: C_8  and  C_21
    4  A    between atoms: C_8  and  C_25
    5  A    between atoms: C_10  and  C_25
    6  A    between atoms: C_13  and  C_25
    7  A    between atoms: N_16  and  C_22
                            x       y       z     vdW  Elec       q    Type
                         _______ _______ _______ _____ _____    ______ ____

>  <TORSDO>
F 7

$$$$
=
 OpenBabel11072410173D

 37 41  0  0  1  0  0  0  0  0999 V2000
  160.4280  211.0470  155.0410 C   0  0  1  0  0  0  0  0  0  0  0  0
  160.3840  212.3600  154.5530 O   0  0  0  0  0  1  0  0  0  0  0  0
  156.9040  214.3250  155.6030 N   0  0  0  0  0  0  0  0  0  0  0  0
  157.6100  213.2050  155.9060 C   0  0  0  0  0  0  0  0  0  0  0  0
  155.8430  214.2830  154.7570 C   0  0  0  0  0  3  0  0  0  0  0  0
  158.8080  213.3330  156.8140 C   0  0  1  0  0  3  0  0  0  0  0  0
  159.3670  210.9040  156.1750 C   0  0  1  0  0  3  0  0  0  0  0  0
  156.1400  211.9570  154.4580 C   0  0  0  0  0  0  0  0  0  0  0  0
  159.4010  211.9890  157.2610 C   0  0  0  0  0  2  0  0  0  0  0  0
  157.2420  211.9770  155.3250 C   0  0  0  0  0  0  0  0  0  0  0  0
  157.9290  210.6930  155.7000 C   0  0  0  0  0  2  0  0  0  0  0  0
  155.7030  210.7380  153.8650 N   0  0  0  0  0  1  0  0  0  0  0  0
  155.4690  213.1070  154.1930 N   0  0  0  0  0  0  0  0  0  0  0  0
  160.6780  214.4380  157.2400 C   0  0  0  0  0  1  0  0  0  0  0  0
  159.7910  214.1210  156.2110 O   0  0  0  0  0  0  0  0  0  0  0  0
  158.7810  211.0270  152.0020 C   0  0  0  0  0  1  0  0  0  0  0  0
  160.1560  210.0880  153.8500 C   0  0  2  0  0  3  0  0  0  0  0  0
  160.8340  209.7530  151.5010 C   0  0  2  0  0  3  0  0  0  0  0  0
  161.4740  208.6950  152.3650 C   0  0  1  0  0  0  0  0  0  0  0  0
  162.3500  209.7220  151.6880 C   0  0  0  0  0  2  0  0  0  0  0  0
  161.0800  208.8780  153.8120 C   0  0  0  0  0  2  0  0  0  0  0  0
  160.1930  210.7400  152.4660 C   0  0  1  0  0  3  0  0  0  0  0  0
  161.9760  207.0310  150.5050 C   0  0  0  0  0  0  0  0  0  0  0  0
  161.4670  204.9920  151.5620 C   0  0  2  0  0  3  0  0  0  0  0  0
  161.4840  207.3540  151.7920 N   0  0  0  0  0  0  0  0  0  0  0  0
  161.0340  206.1490  152.4700 C   0  0  0  0  0  2  0  0  0  0  0  0
  161.8560  205.5900  150.1880 C   0  0  1  0  0  3  0  0  0  0  0  0
  162.4530  207.8900  149.7150 O   0  0  0  0  0  0  0  0  0  0  0  0
  160.4300  203.8810  151.5350 C   0  0  0  0  0  1  0  0  0  0  0  0
  160.8230  205.3960  149.1130 C   0  0  0  0  0  0  0  0  0  0  0  0
  160.7360  204.1920  148.4200 O   0  0  0  0  0  0  0  0  0  0  0  0
  160.0270  206.3310  148.8390 O   0  0  0  0  0  1  0  0  0  0  0  0
  161.8510  210.7850  155.5370 C   0  0  0  0  0  0  0  0  0  0  0  0
  162.7800  210.9990  154.7700 O   0  0  0  0  0  0  0  0  0  0  0  0
  162.2030  210.2020  156.8890 C   0  0  2  0  0  3  0  0  0  0  0  0
  163.5360  210.4120  157.2490 O   0  0  0  0  0  1  0  0  0  0  0  0
  161.8840  208.7190  156.9350 C   0  0  0  0  0  1  0  0  0  0  0  0
  1  2  1  6  0  0  0
  1 33  1  0  0  0  0
  3  4  1  0  0  0  0
  4  6  1  0  0  0  0
  5  3  2  0  0  0  0
  6 15  1  6  0  0  0
  6  9  1  0  0  0  0
  7  1  1  6  0  0  0
  7  9  1  0  0  0  0
  8 10  1  0  0  0  0
 10 11  1  0  0  0  0
 10  4  2  0  0  0  0
 11  7  1  0  0  0  0
 12  8  1  0  0  0  0
 13  8  2  0  0  0  0
 13  5  1  0  0  0  0
 15 14  1  0  0  0  0
 17  1  1  1  0  0  0
 18 20  1  1  0  0  0
 18 19  1  0  0  0  0
 18 22  1  0  0  0  0
 19 20  1  6  0  0  0
 19 21  1  0  0  0  0
 21 17  1  0  0  0  0
 22 16  1  6  0  0  0
 22 17  1  0  0  0  0
 23 25  1  0  0  0  0
 24 29  1  6  0  0  0
 24 26  1  0  0  0  0
 25 19  1  0  0  0  0
 25 26  1  0  0  0  0
 27 30  1  6  0  0  0
 27 23  1  0  0  0  0
 27 24  1  0  0  0  0
 28 23  2  0  0  0  0
 31 30  2  0  0  0  0
 32 30  1  0  0  0  0
 33 35  1  0  0  0  0
 34 33  2  0  0  0  0
 35 37  1  6  0  0  0
 35 36  1  0  0  0  0
M  END
>  <MODEL>
2

>  <REMARK>
 VINA RESULT:      -4.8      3.624      6.362
  Name = 
  7 active torsions:
  status: ('A' for Active; 'I' for Inactive)
    1  A    between atoms: C_4  and  C_18
    2  A    between atoms: C_7  and  O_32
    3  A    between atoms: C_8  and  C_21
    4  A    between atoms: C_8  and  C_25
    5  A    between atoms: C_10  and  C_25
    6  A    between atoms: C_13  and  C_25
    7  A    between atoms: N_16  and  C_22
                            x       y       z     vdW  Elec       q    Type
                         _______ _______ _______ _____ _____    ______ ____

>  <TORSDO>
F 7

$$$$
=
 OpenBabel11072410173D

 37 41  0  0  1  0  0  0  0  0999 V2000
  158.9160  212.3110  152.0670 C   0  0  1  0  0  0  0  0  0  0  0  0
  157.7760  211.7130  152.6190 O   0  0  0  0  0  1  0  0  0  0  0  0
  156.8310  213.1360  156.3630 N   0  0  0  0  0  0  0  0  0  0  0  0
  157.8240  213.2020  155.4380 C   0  0  0  0  0  0  0  0  0  0  0  0
  156.7630  212.1140  157.2530 C   0  0  0  0  0  3  0  0  0  0  0  0
  157.8110  214.3390  154.4460 C   0  0  1  0  0  3  0  0  0  0  0  0
  159.6720  213.0760  153.1960 C   0  0  1  0  0  3  0  0  0  0  0  0
  158.7080  211.1420  156.3260 C   0  0  0  0  0  0  0  0  0  0  0  0
  159.0820  214.4370  153.5910 C   0  0  0  0  0  2  0  0  0  0  0  0
  158.7960  212.1840  155.3930 C   0  0  0  0  0  0  0  0  0  0  0  0
  159.9670  212.2570  154.4540 C   0  0  0  0  0  2  0  0  0  0  0  0
  159.6810  210.1010  156.3490 N   0  0  0  0  0  1  0  0  0  0  0  0
  157.6960  211.1290  157.2310 N   0  0  0  0  0  0  0  0  0  0  0  0
  155.6010  214.4530  154.4910 C   0  0  0  0  0  1  0  0  0  0  0  0
  156.6810  214.2560  153.6290 O   0  0  0  0  0  0  0  0  0  0  0  0
  161.5010  211.9440  149.8010 C   0  0  0  0  0  1  0  0  0  0  0  0
  159.7800  211.1880  151.4300 C   0  0  2  0  0  3  0  0  0  0  0  0
  162.0730  210.2810  151.5320 C   0  0  2  0  0  3  0  0  0  0  0  0
  161.1240  209.3290  152.2190 C   0  0  1  0  0  0  0  0  0  0  0  0
  162.1730  210.0440  153.0380 C   0  0  0  0  0  2  0  0  0  0  0  0
  159.7110  209.8620  152.1760 C   0  0  0  0  0  2  0  0  0  0  0  0
  161.2590  211.5320  151.2380 C   0  0  1  0  0  3  0  0  0  0  0  0
  161.9450  207.4120  150.7610 C   0  0  0  0  0  0  0  0  0  0  0  0
  161.7230  205.5880  152.2310 C   0  0  2  0  0  3  0  0  0  0  0  0
  161.3630  207.9170  151.9470 N   0  0  0  0  0  0  0  0  0  0  0  0
  161.0830  206.8270  152.8680 C   0  0  0  0  0  2  0  0  0  0  0  0
  162.0630  205.9360  150.7610 C   0  0  1  0  0  3  0  0  0  0  0  0
  162.3100  208.1470  149.8060 O   0  0  0  0  0  0  0  0  0  0  0  0
  160.8730  204.3450  152.4420 C   0  0  0  0  0  1  0  0  0  0  0  0
  161.1120  205.3550  149.7510 C   0  0  0  0  0  0  0  0  0  0  0  0
  161.4510  204.2150  149.0300 O   0  0  0  0  0  0  0  0  0  0  0  0
  159.9970  205.9050  149.5590 O   0  0  0  0  0  1  0  0  0  0  0  0
  158.4540  213.2390  150.9430 C   0  0  0  0  0  0  0  0  0  0  0  0
  159.0680  214.2830  150.7660 O   0  0  0  0  0  0  0  0  0  0  0  0
  157.2390  213.0070  150.0710 C   0  0  2  0  0  3  0  0  0  0  0  0
  157.5470  212.9050  148.7130 O   0  0  0  0  0  1  0  0  0  0  0  0
  156.2060  214.0970  150.2860 C   0  0  0  0  0  1  0  0  0  0  0  0
  1  2  1  1  0  0  0
  3  5  1  0  0  0  0
  4  3  2  0  0  0  0
  6 15  1  6  0  0  0
  6  4  1  0  0  0  0
  7  1  1  6  0  0  0
  7  9  1  0  0  0  0
  7 11  1  0  0  0  0
  8 12  1  0  0  0  0
  8 13  1  0  0  0  0
  9  6  1  0  0  0  0
 10  4  1  0  0  0  0
 10  8  2  0  0  0  0
 11 10  1  0  0  0  0
 13  5  2  0  0  0  0
 15 14  1  0  0  0  0
 17  1  1  1  0  0  0
 17 21  1  0  0  0  0
 18 19  1  0  0  0  0
 18 20  1  1  0  0  0
 19 25  1  6  0  0  0
 19 20  1  0  0  0  0
 21 19  1  0  0  0  0
 22 16  1  6  0  0  0
 22 17  1  0  0  0  0
 22 18  1  0  0  0  0
 23 25  1  0  0  0  0
 24 29  1  6  0  0  0
 24 26  1  0  0  0  0
 25 26  1  0  0  0  0
 27 30  1  6  0  0  0
 27 23  1  0  0  0  0
 27 24  1  0  0  0  0
 28 23  2  0  0  0  0
 31 30  2  0  0  0  0
 32 30  1  0  0  0  0
 33  1  1  0  0  0  0
 34 33  2  0  0  0  0
 35 37  1  6  0  0  0
 35 33  1  0  0  0  0
 36 35  1  0  0  0  0
M  END
>  <MODEL>
3

>  <REMARK>
 VINA RESULT:      -3.5      3.050      6.177
  Name = 
  7 active torsions:
  status: ('A' for Active; 'I' for Inactive)
    1  A    between atoms: C_4  and  C_18
    2  A    between atoms: C_7  and  O_32
    3  A    between atoms: C_8  and  C_21
    4  A    between atoms: C_8  and  C_25
    5  A    between atoms: C_10  and  C_25
    6  A    between atoms: C_13  and  C_25
    7  A    between atoms: N_16  and  C_22
                            x       y       z     vdW  Elec       q    Type
                         _______ _______ _______ _____ _____    ______ ____

>  <TORSDO>
F 7

$$$$
=
 OpenBabel11072410173D

 37 41  0  0  1  0  0  0  0  0999 V2000
  161.2300  207.6020  151.4260 C   0  0  1  0  0  0  0  0  0  0  0  0
  160.3270  207.7590  150.3660 O   0  0  0  0  0  1  0  0  0  0  0  0
  161.4830  210.4730  147.5300 N   0  0  0  0  0  0  0  0  0  0  0  0
  161.9540  209.8630  148.6490 C   0  0  0  0  0  0  0  0  0  0  0  0
  160.8910  211.6930  147.5890 C   0  0  0  0  0  3  0  0  0  0  0  0
  162.5570  208.4850  148.5190 C   0  0  1  0  0  3  0  0  0  0  0  0
  162.5310  208.3920  151.0900 C   0  0  1  0  0  3  0  0  0  0  0  0
  161.2060  211.7630  149.9310 C   0  0  0  0  0  0  0  0  0  0  0  0
  163.2460  207.9810  149.7940 C   0  0  0  0  0  2  0  0  0  0  0  0
  161.8170  210.5020  149.8960 C   0  0  0  0  0  0  0  0  0  0  0  0
  162.4040  209.9150  151.1490 C   0  0  0  0  0  2  0  0  0  0  0  0
  161.0670  212.4710  151.1590 N   0  0  0  0  0  1  0  0  0  0  0  0
  160.7560  212.3280  148.7810 N   0  0  0  0  0  0  0  0  0  0  0  0
  162.3030  206.5780  147.4250 C   0  0  0  0  0  1  0  0  0  0  0  0
  161.5890  207.5720  148.0960 O   0  0  0  0  0  0  0  0  0  0  0  0
  160.8320  206.6970  154.7380 C   0  0  0  0  0  1  0  0  0  0  0  0
  160.5390  208.1180  152.7180 C   0  0  2  0  0  3  0  0  0  0  0  0
  161.1150  209.1430  154.8880 C   0  0  2  0  0  3  0  0  0  0  0  0
  160.4860  210.1820  153.9910 C   0  0  1  0  0  0  0  0  0  0  0  0
  161.9380  210.3280  154.3850 C   0  0  0  0  0  2  0  0  0  0  0  0
  160.1280  209.5830  152.6520 C   0  0  0  0  0  2  0  0  0  0  0  0
  161.3390  207.9220  154.0080 C   0  0  1  0  0  3  0  0  0  0  0  0
  158.7090  210.7100  155.7330 C   0  0  0  0  0  0  0  0  0  0  0  0
  158.4470  213.0290  155.4360 C   0  0  2  0  0  3  0  0  0  0  0  0
  159.5420  211.0750  154.6500 N   0  0  0  0  0  0  0  0  0  0  0  0
  159.3480  212.4790  154.3250 C   0  0  0  0  0  2  0  0  0  0  0  0
  157.8490  211.8210  156.1990 C   0  0  1  0  0  3  0  0  0  0  0  0
  158.6980  209.5530  156.2340 O   0  0  0  0  0  0  0  0  0  0  0  0
  157.4460  214.0390  154.8990 C   0  0  0  0  0  1  0  0  0  0  0  0
  156.4140  211.5240  155.8620 C   0  0  0  0  0  0  0  0  0  0  0  0
  156.0740  210.9610  154.6360 O   0  0  0  0  0  0  0  0  0  0  0  0
  155.5120  211.7840  156.7000 O   0  0  0  0  0  1  0  0  0  0  0  0
  161.4850  206.1040  151.5990 C   0  0  0  0  0  0  0  0  0  0  0  0
  162.5800  205.7480  152.0120 O   0  0  0  0  0  0  0  0  0  0  0  0
  160.5090  205.0090  151.2230 C   0  0  2  0  0  3  0  0  0  0  0  0
  160.4560  203.9740  152.1580 O   0  0  0  0  0  1  0  0  0  0  0  0
  160.8310  204.4490  149.8500 C   0  0  0  0  0  1  0  0  0  0  0  0
  1  2  1  6  0  0  0
  1 33  1  0  0  0  0
  3  5  2  0  0  0  0
  3  4  1  0  0  0  0
  4 10  2  0  0  0  0
  5 13  1  0  0  0  0
  6 15  1  1  0  0  0
  6  4  1  0  0  0  0
  6  9  1  0  0  0  0
  7 11  1  0  0  0  0
  7  1  1  6  0  0  0
  8 12  1  0  0  0  0
  9  7  1  0  0  0  0
 10  8  1  0  0  0  0
 10 11  1  0  0  0  0
 13  8  2  0  0  0  0
 14 15  1  0  0  0  0
 17  1  1  6  0  0  0
 17 22  1  0  0  0  0
 18 20  1  6  0  0  0
 19 21  1  6  0  0  0
 19 20  1  0  0  0  0
 19 25  1  0  0  0  0
 19 18  1  0  0  0  0
 21 17  1  0  0  0  0
 22 16  1  1  0  0  0
 22 18  1  0  0  0  0
 23 27  1  0  0  0  0
 23 28  2  0  0  0  0
 24 29  1  6  0  0  0
 24 27  1  0  0  0  0
 25 23  1  0  0  0  0
 26 25  1  0  0  0  0
 26 24  1  0  0  0  0
 27 30  1  6  0  0  0
 30 32  1  0  0  0  0
 31 30  2  0  0  0  0
 33 34  2  0  0  0  0
 35 37  1  6  0  0  0
 35 33  1  0  0  0  0
 35 36  1  0  0  0  0
M  END
>  <MODEL>
4

>  <REMARK>
 VINA RESULT:      -3.4      2.828      7.798
  Name = 
  7 active torsions:
  status: ('A' for Active; 'I' for Inactive)
    1  A    between atoms: C_4  and  C_18
    2  A    between atoms: C_7  and  O_32
    3  A    between atoms: C_8  and  C_21
    4  A    between atoms: C_8  and  C_25
    5  A    between atoms: C_10  and  C_25
    6  A    between atoms: C_13  and  C_25
    7  A    between atoms: N_16  and  C_22
                            x       y       z     vdW  Elec       q    Type
                         _______ _______ _______ _____ _____    ______ ____

>  <TORSDO>
F 7

$$$$
=
 OpenBabel11072410173D

 37 41  0  0  1  0  0  0  0  0999 V2000
  160.2080  210.7410  152.7090 C   0  0  1  0  0  0  0  0  0  0  0  0
  159.1610  210.0030  153.2780 O   0  0  0  0  0  1  0  0  0  0  0  0
  159.9050  208.5890  157.0410 N   0  0  0  0  0  0  0  0  0  0  0  0
  160.5200  209.2700  156.0390 C   0  0  0  0  0  0  0  0  0  0  0  0
  159.9280  207.2340  157.0900 C   0  0  0  0  0  3  0  0  0  0  0  0
  160.4120  210.7750  156.0180 C   0  0  1  0  0  3  0  0  0  0  0  0
  161.4400  210.6700  153.6620 C   0  0  1  0  0  3  0  0  0  0  0  0
  161.2030  207.1570  155.1000 C   0  0  0  0  0  0  0  0  0  0  0  0
  161.3130  211.4530  154.9770 C   0  0  0  0  0  2  0  0  0  0  0  0
  161.1870  208.5560  155.0250 C   0  0  0  0  0  0  0  0  0  0  0  0
  161.9640  209.2610  153.9480 C   0  0  0  0  0  2  0  0  0  0  0  0
  161.8880  206.3830  154.1200 N   0  0  0  0  0  1  0  0  0  0  0  0
  160.5730  206.5280  156.1270 N   0  0  0  0  0  0  0  0  0  0  0  0
  158.7910  211.9720  156.9350 C   0  0  0  0  0  1  0  0  0  0  0  0
  159.0830  211.1620  155.8360 O   0  0  0  0  0  0  0  0  0  0  0  0
  161.9640  211.5140  149.8330 C   0  0  0  0  0  1  0  0  0  0  0  0
  160.5060  210.1390  151.3080 C   0  0  2  0  0  3  0  0  0  0  0  0
  162.3550  209.0880  150.0580 C   0  0  2  0  0  3  0  0  0  0  0  0
  161.3350  208.0380  150.4260 C   0  0  1  0  0  0  0  0  0  0  0  0
  162.7120  207.9760  151.0430 C   0  0  0  0  0  2  0  0  0  0  0  0
  160.1920  208.6540  151.1970 C   0  0  0  0  0  2  0  0  0  0  0  0
  161.9340  210.3480  150.7990 C   0  0  1  0  0  3  0  0  0  0  0  0
  160.6860  205.7170  149.6100 C   0  0  0  0  0  0  0  0  0  0  0  0
  160.4590  206.0870  147.2980 C   0  0  2  0  0  3  0  0  0  0  0  0
  161.0480  207.0640  149.3790 N   0  0  0  0  0  0  0  0  0  0  0  0
  161.0480  207.3430  147.9520 C   0  0  0  0  0  2  0  0  0  0  0  0
  160.4580  204.9590  148.3590 C   0  0  1  0  0  3  0  0  0  0  0  0
  160.5840  205.2190  150.7630 O   0  0  0  0  0  0  0  0  0  0  0  0
  161.1490  205.7640  145.9820 C   0  0  0  0  0  1  0  0  0  0  0  0
  161.5480  203.9400  148.1800 C   0  0  0  0  0  0  0  0  0  0  0  0
  162.7240  204.2660  147.5120 O   0  0  0  0  0  0  0  0  0  0  0  0
  161.3950  202.7790  148.6440 O   0  0  0  0  0  1  0  0  0  0  0  0
  159.7090  212.1720  152.5070 C   0  0  0  0  0  0  0  0  0  0  0  0
  160.4610  212.9770  151.9740 O   0  0  0  0  0  0  0  0  0  0  0  0
  158.3750  212.7010  152.9890 C   0  0  2  0  0  3  0  0  0  0  0  0
  157.5020  213.0240  151.9490 O   0  0  0  0  0  1  0  0  0  0  0  0
  158.5690  213.9040  153.8930 C   0  0  0  0  0  1  0  0  0  0  0  0
  1  2  1  1  0  0  0
  3  5  1  0  0  0  0
  4  3  2  0  0  0  0
  6 15  1  6  0  0  0
  6  4  1  0  0  0  0
  7  1  1  1  0  0  0
  7 11  1  0  0  0  0
  7  9  1  0  0  0  0
  8 13  1  0  0  0  0
  9  6  1  0  0  0  0
 10  8  2  0  0  0  0
 10  4  1  0  0  0  0
 11 10  1  0  0  0  0
 12  8  1  0  0  0  0
 13  5  2  0  0  0  0
 15 14  1  0  0  0  0
 17  1  1  1  0  0  0
 18 19  1  0  0  0  0
 18 22  1  0  0  0  0
 18 20  1  1  0  0  0
 19 25  1  6  0  0  0
 19 20  1  0  0  0  0
 19 21  1  0  0  0  0
 21 17  1  0  0  0  0
 22 16  1  6  0  0  0
 22 17  1  0  0  0  0
 23 28  2  0  0  0  0
 24 29  1  6  0  0  0
 24 26  1  0  0  0  0
 24 27  1  0  0  0  0
 25 23  1  0  0  0  0
 26 25  1  0  0  0  0
 27 30  1  6  0  0  0
 27 23  1  0  0  0  0
 30 32  1  0  0  0  0
 31 30  2  0  0  0  0
 33  1  1  0  0  0  0
 33 35  1  0  0  0  0
 34 33  2  0  0  0  0
 35 37  1  6  0  0  0
 36 35  1  0  0  0  0
M  END
>  <MODEL>
5

>  <REMARK>
 VINA RESULT:      -3.3      3.428      5.123
  Name = 
  7 active torsions:
  status: ('A' for Active; 'I' for Inactive)
    1  A    between atoms: C_4  and  C_18
    2  A    between atoms: C_7  and  O_32
    3  A    between atoms: C_8  and  C_21
    4  A    between atoms: C_8  and  C_25
    5  A    between atoms: C_10  and  C_25
    6  A    between atoms: C_13  and  C_25
    7  A    between atoms: N_16  and  C_22
                            x       y       z     vdW  Elec       q    Type
                         _______ _______ _______ _____ _____    ______ ____

>  <TORSDO>
F 7

$$$$
=
 OpenBabel11072410173D

 37 41  0  0  1  0  0  0  0  0999 V2000
  161.3240  206.7460  150.8500 C   0  0  1  0  0  0  0  0  0  0  0  0
  162.1760  205.6980  151.2210 O   0  0  0  0  0  1  0  0  0  0  0  0
  161.8210  202.7900  148.0960 N   0  0  0  0  0  0  0  0  0  0  0  0
  161.1510  203.8320  148.6530 C   0  0  0  0  0  0  0  0  0  0  0  0
  161.8810  201.5810  148.7100 C   0  0  0  0  0  3  0  0  0  0  0  0
  161.1670  205.1620  147.9420 C   0  0  1  0  0  3  0  0  0  0  0  0
  160.1120  206.1490  150.0720 C   0  0  1  0  0  3  0  0  0  0  0  0
  160.5840  202.4000  150.5090 C   0  0  0  0  0  0  0  0  0  0  0  0
  160.2110  206.2030  148.5400 C   0  0  0  0  0  2  0  0  0  0  0  0
  160.5130  203.6590  149.8970 C   0  0  0  0  0  0  0  0  0  0  0  0
  159.6800  204.7490  150.5110 C   0  0  0  0  0  2  0  0  0  0  0  0
  159.9320  202.1570  151.7520 N   0  0  0  0  0  1  0  0  0  0  0  0
  161.2660  201.3920  149.9050 N   0  0  0  0  0  0  0  0  0  0  0  0
  162.7390  205.8280  146.5330 C   0  0  0  0  0  1  0  0  0  0  0  0
  162.4680  205.6690  147.8920 O   0  0  0  0  0  0  0  0  0  0  0  0
  161.5820  206.4160  154.2820 C   0  0  0  0  0  1  0  0  0  0  0  0
  160.8890  207.4860  152.1450 C   0  0  2  0  0  3  0  0  0  0  0  0
  161.8610  208.8460  153.9610 C   0  0  2  0  0  3  0  0  0  0  0  0
  161.0590  209.7340  153.0400 C   0  0  1  0  0  0  0  0  0  0  0  0
  162.5570  209.9130  153.1180 C   0  0  0  0  0  2  0  0  0  0  0  0
  160.4560  208.9270  151.9140 C   0  0  0  0  0  2  0  0  0  0  0  0
  161.9240  207.4910  153.2720 C   0  0  1  0  0  3  0  0  0  0  0  0
  159.5730  210.5530  154.9360 C   0  0  0  0  0  0  0  0  0  0  0  0
  159.3410  212.8290  154.3890 C   0  0  2  0  0  3  0  0  0  0  0  0
  160.2490  210.7440  153.7090 N   0  0  0  0  0  0  0  0  0  0  0  0
  160.0530  212.1070  153.2390 C   0  0  0  0  0  2  0  0  0  0  0  0
  158.8250  211.7520  155.3750 C   0  0  1  0  0  3  0  0  0  0  0  0
  159.6000  209.4670  155.5750 O   0  0  0  0  0  0  0  0  0  0  0  0
  158.3040  213.8150  153.8760 C   0  0  0  0  0  1  0  0  0  0  0  0
  157.3480  211.4870  155.2840 C   0  0  0  0  0  0  0  0  0  0  0  0
  156.4940  211.8600  156.3170 O   0  0  0  0  0  1  0  0  0  0  0  0
  156.8800  210.9230  154.2600 O   0  0  0  0  0  0  0  0  0  0  0  0
  162.1360  207.7260  150.0020 C   0  0  0  0  0  0  0  0  0  0  0  0
  163.3500  207.5810  149.9550 O   0  0  0  0  0  0  0  0  0  0  0  0
  161.5620  208.9210  149.2710 C   0  0  2  0  0  3  0  0  0  0  0  0
  161.5240  208.7520  147.8860 O   0  0  0  0  0  1  0  0  0  0  0  0
  162.3310  210.1820  149.6160 C   0  0  0  0  0  1  0  0  0  0  0  0
  1  2  1  1  0  0  0
  3  4  2  0  0  0  0
  3  5  1  0  0  0  0
  4 10  1  0  0  0  0
  5 13  2  0  0  0  0
  6 15  1  1  0  0  0
  6  9  1  0  0  0  0
  6  4  1  0  0  0  0
  7 11  1  0  0  0  0
  7  1  1  1  0  0  0
  8 12  1  0  0  0  0
  9  7  1  0  0  0  0
 10  8  2  0  0  0  0
 10 11  1  0  0  0  0
 13  8  1  0  0  0  0
 14 15  1  0  0  0  0
 17  1  1  6  0  0  0
 17 22  1  0  0  0  0
 18 20  1  6  0  0  0
 19 21  1  6  0  0  0
 19 20  1  0  0  0  0
 19 25  1  0  0  0  0
 19 18  1  0  0  0  0
 21 17  1  0  0  0  0
 22 18  1  0  0  0  0
 22 16  1  1  0  0  0
 23 27  1  0  0  0  0
 23 28  2  0  0  0  0
 24 29  1  6  0  0  0
 24 27  1  0  0  0  0
 25 23  1  0  0  0  0
 26 25  1  0  0  0  0
 26 24  1  0  0  0  0
 27 30  1  6  0  0  0
 30 31  1  0  0  0  0
 32 30  2  0  0  0  0
 33  1  1  0  0  0  0
 34 33  2  0  0  0  0
 35 37  1  6  0  0  0
 35 33  1  0  0  0  0
 36 35  1  0  0  0  0
M  END
>  <MODEL>
6

>  <REMARK>
 VINA RESULT:      -3.1      3.704      7.836
  Name = 
  7 active torsions:
  status: ('A' for Active; 'I' for Inactive)
    1  A    between atoms: C_4  and  C_18
    2  A    between atoms: C_7  and  O_32
    3  A    between atoms: C_8  and  C_21
    4  A    between atoms: C_8  and  C_25
    5  A    between atoms: C_10  and  C_25
    6  A    between atoms: C_13  and  C_25
    7  A    between atoms: N_16  and  C_22
                            x       y       z     vdW  Elec       q    Type
                         _______ _______ _______ _____ _____    ______ ____

>  <TORSDO>
F 7

$$$$
=
 OpenBabel11072410173D

 37 41  0  0  1  0  0  0  0  0999 V2000
  161.3220  206.5410  150.6900 C   0  0  1  0  0  0  0  0  0  0  0  0
  162.1870  205.4680  150.9400 O   0  0  0  0  0  1  0  0  0  0  0  0
  161.9050  202.7920  147.6760 N   0  0  0  0  0  0  0  0  0  0  0  0
  161.2240  203.8060  148.2690 C   0  0  0  0  0  0  0  0  0  0  0  0
  161.9000  201.5390  148.1970 C   0  0  0  0  0  3  0  0  0  0  0  0
  161.3140  205.1860  147.6650 C   0  0  1  0  0  3  0  0  0  0  0  0
  160.1490  206.0360  149.7960 C   0  0  1  0  0  3  0  0  0  0  0  0
  160.5110  202.2540  149.9720 C   0  0  0  0  0  0  0  0  0  0  0  0
  160.3450  206.2040  148.2820 C   0  0  0  0  0  2  0  0  0  0  0  0
  160.5060  203.5570  149.4550 C   0  0  0  0  0  0  0  0  0  0  0  0
  159.6600  204.6190  150.0990 C   0  0  0  0  0  2  0  0  0  0  0  0
  159.7780  201.9360  151.1500 N   0  0  0  0  0  1  0  0  0  0  0  0
  161.2070  201.2780  149.3340 N   0  0  0  0  0  0  0  0  0  0  0  0
  163.0330  205.7810  146.4040 C   0  0  0  0  0  1  0  0  0  0  0  0
  162.6260  205.6600  147.7330 O   0  0  0  0  0  0  0  0  0  0  0  0
  161.6130  205.8280  154.0610 C   0  0  0  0  0  1  0  0  0  0  0  0
  160.8320  207.0840  152.0610 C   0  0  2  0  0  3  0  0  0  0  0  0
  161.6920  208.2940  154.0320 C   0  0  2  0  0  3  0  0  0  0  0  0
  160.8200  209.2170  153.2160 C   0  0  1  0  0  0  0  0  0  0  0  0
  162.2980  209.5060  153.3260 C   0  0  0  0  0  2  0  0  0  0  0  0
  160.2820  208.5030  151.9980 C   0  0  0  0  0  2  0  0  0  0  0  0
  161.8650  207.0390  153.1880 C   0  0  1  0  0  3  0  0  0  0  0  0
  159.2540  211.2050  153.4850 C   0  0  0  0  0  0  0  0  0  0  0  0
  158.4490  210.8640  155.6690 C   0  0  2  0  0  3  0  0  0  0  0  0
  159.9310  210.0720  153.9940 N   0  0  0  0  0  0  0  0  0  0  0  0
  159.5750  209.8630  155.3880 C   0  0  0  0  0  2  0  0  0  0  0  0
  158.4220  211.8840  154.5040 C   0  0  1  0  0  3  0  0  0  0  0  0
  159.3640  211.5950  152.2920 O   0  0  0  0  0  0  0  0  0  0  0  0
  158.5570  211.4530  157.0670 C   0  0  0  0  0  1  0  0  0  0  0  0
  159.0240  213.2210  154.8370 C   0  0  0  0  0  0  0  0  0  0  0  0
  160.0770  213.3210  155.7410 O   0  0  0  0  0  1  0  0  0  0  0  0
  158.5720  214.2600  154.2890 O   0  0  0  0  0  0  0  0  0  0  0  0
  162.1370  207.6450  150.0150 C   0  0  0  0  0  0  0  0  0  0  0  0
  163.3570  207.5930  150.0940 O   0  0  0  0  0  0  0  0  0  0  0  0
  161.5490  208.8520  149.3150 C   0  0  2  0  0  3  0  0  0  0  0  0
  161.6430  208.7820  147.9240 O   0  0  0  0  0  1  0  0  0  0  0  0
  162.1970  210.1300  149.8130 C   0  0  0  0  0  1  0  0  0  0  0  0
  1  2  1  1  0  0  0
  3  5  2  0  0  0  0
  3  4  1  0  0  0  0
  4 10  2  0  0  0  0
  5 13  1  0  0  0  0
  6 15  1  1  0  0  0
  6  4  1  0  0  0  0
  6  9  1  0  0  0  0
  7 11  1  0  0  0  0
  7  1  1  1  0  0  0
  8 12  1  0  0  0  0
  9  7  1  0  0  0  0
 10  8  1  0  0  0  0
 10 11  1  0  0  0  0
 13  8  2  0  0  0  0
 14 15  1  0  0  0  0
 17  1  1  6  0  0  0
 17 22  1  0  0  0  0
 18 20  1  6  0  0  0
 19 21  1  6  0  0  0
 19 20  1  0  0  0  0
 19 25  1  0  0  0  0
 19 18  1  0  0  0  0
 21 17  1  0  0  0  0
 22 18  1  0  0  0  0
 22 16  1  1  0  0  0
 23 25  1  0  0  0  0
 23 27  1  0  0  0  0
 24 29  1  1  0  0  0
 25 26  1  0  0  0  0
 26 24  1  0  0  0  0
 27 30  1  1  0  0  0
 27 24  1  0  0  0  0
 28 23  2  0  0  0  0
 30 31  1  0  0  0  0
 32 30  2  0  0  0  0
 33 34  2  0  0  0  0
 33  1  1  0  0  0  0
 35 37  1  1  0  0  0
 35 33  1  0  0  0  0
 36 35  1  0  0  0  0
M  END
>  <MODEL>
7

>  <REMARK>
 VINA RESULT:      -2.8      3.862      7.964
  Name = 
  7 active torsions:
  status: ('A' for Active; 'I' for Inactive)
    1  A    between atoms: C_4  and  C_18
    2  A    between atoms: C_7  and  O_32
    3  A    between atoms: C_8  and  C_21
    4  A    between atoms: C_8  and  C_25
    5  A    between atoms: C_10  and  C_25
    6  A    between atoms: C_13  and  C_25
    7  A    between atoms: N_16  and  C_22
                            x       y       z     vdW  Elec       q    Type
                         _______ _______ _______ _____ _____    ______ ____

>  <TORSDO>
F 7

$$$$
=
 OpenBabel11072410173D

 37 41  0  0  1  0  0  0  0  0999 V2000
  160.4000  209.9260  153.8340 C   0  0  1  0  0  0  0  0  0  0  0  0
  160.8520  211.2380  154.0260 O   0  0  0  0  0  1  0  0  0  0  0  0
  158.8380  213.1320  157.1160 N   0  0  0  0  0  0  0  0  0  0  0  0
  158.7570  212.0230  156.3360 C   0  0  0  0  0  0  0  0  0  0  0  0
  158.3890  214.3360  156.6780 C   0  0  0  0  0  3  0  0  0  0  0  0
  159.3210  210.7270  156.8650 C   0  0  1  0  0  3  0  0  0  0  0  0
  158.9940  209.7850  154.4930 C   0  0  1  0  0  3  0  0  0  0  0  0
  157.7460  213.3760  154.6150 C   0  0  0  0  0  0  0  0  0  0  0  0
  158.9900  209.5010  156.0030 C   0  0  0  0  0  2  0  0  0  0  0  0
  158.2080  212.1240  155.0430 C   0  0  0  0  0  0  0  0  0  0  0  0
  158.0080  210.9120  154.1770 C   0  0  0  0  0  2  0  0  0  0  0  0
  157.1520  213.5320  153.3300 N   0  0  0  0  0  1  0  0  0  0  0  0
  157.8480  214.4510  155.4390 N   0  0  0  0  0  0  0  0  0  0  0  0
  160.9310  212.1990  157.2410 C   0  0  0  0  0  1  0  0  0  0  0  0
  160.7020  210.8370  157.0430 O   0  0  0  0  0  0  0  0  0  0  0  0
  160.6910  211.6440  150.8480 C   0  0  0  0  0  1  0  0  0  0  0  0
  160.3680  209.6540  152.3050 C   0  0  2  0  0  3  0  0  0  0  0  0
  161.8990  209.5450  150.3730 C   0  0  2  0  0  3  0  0  0  0  0  0
  161.4690  208.1500  150.7540 C   0  0  1  0  0  0  0  0  0  0  0  0
  162.9160  208.5490  150.9250 C   0  0  0  0  0  2  0  0  0  0  0  0
  160.5340  208.1850  151.9390 C   0  0  0  0  0  2  0  0  0  0  0  0
  161.3790  210.4520  151.4790 C   0  0  1  0  0  3  0  0  0  0  0  0
  160.6230  205.9690  149.7500 C   0  0  0  0  0  0  0  0  0  0  0  0
  160.6660  206.4740  147.4520 C   0  0  2  0  0  3  0  0  0  0  0  0
  161.1670  207.2700  149.6310 N   0  0  0  0  0  0  0  0  0  0  0  0
  161.3380  207.6120  148.2280 C   0  0  0  0  0  2  0  0  0  0  0  0
  160.4250  205.3060  148.4410 C   0  0  1  0  0  3  0  0  0  0  0  0
  160.3500  205.4360  150.8580 O   0  0  0  0  0  0  0  0  0  0  0  0
  161.4340  206.1270  146.1860 C   0  0  0  0  0  1  0  0  0  0  0  0
  161.3940  204.1660  148.3020 C   0  0  0  0  0  0  0  0  0  0  0  0
  161.1210  202.9270  148.8720 O   0  0  0  0  0  1  0  0  0  0  0  0
  162.4640  204.3350  147.6600 O   0  0  0  0  0  0  0  0  0  0  0  0
  161.4320  208.9850  154.4550 C   0  0  0  0  0  0  0  0  0  0  0  0
  162.6080  209.3230  154.4380 O   0  0  0  0  0  0  0  0  0  0  0  0
  161.1240  207.6170  155.0270 C   0  0  2  0  0  3  0  0  0  0  0  0
  161.6420  207.4270  156.3100 O   0  0  0  0  0  1  0  0  0  0  0  0
  161.6230  206.5230  154.1020 C   0  0  0  0  0  1  0  0  0  0  0  0
  1  2  1  1  0  0  0
  1 33  1  0  0  0  0
  4  6  1  0  0  0  0
  4  3  2  0  0  0  0
  5  3  1  0  0  0  0
  6 15  1  6  0  0  0
  7  1  1  1  0  0  0
  7  9  1  0  0  0  0
  8 10  2  0  0  0  0
  8 13  1  0  0  0  0
  9  6  1  0  0  0  0
 10  4  1  0  0  0  0
 11  7  1  0  0  0  0
 11 10  1  0  0  0  0
 12  8  1  0  0  0  0
 13  5  2  0  0  0  0
 15 14  1  0  0  0  0
 17  1  1  1  0  0  0
 18 19  1  0  0  0  0
 18 20  1  1  0  0  0
 18 22  1  0  0  0  0
 19 25  1  6  0  0  0
 19 20  1  0  0  0  0
 19 21  1  0  0  0  0
 21 17  1  0  0  0  0
 22 16  1  6  0  0  0
 22 17  1  0  0  0  0
 23 28  2  0  0  0  0
 24 29  1  6  0  0  0
 24 26  1  0  0  0  0
 24 27  1  0  0  0  0
 25 23  1  0  0  0  0
 26 25  1  0  0  0  0
 27 30  1  6  0  0  0
 27 23  1  0  0  0  0
 30 31  1  0  0  0  0
 32 30  2  0  0  0  0
 33 35  1  0  0  0  0
 34 33  2  0  0  0  0
 35 37  1  6  0  0  0
 35 36  1  0  0  0  0
M  END
>  <MODEL>
8

>  <REMARK>
 VINA RESULT:      -2.4      3.730      6.154
  Name = 
  7 active torsions:
  status: ('A' for Active; 'I' for Inactive)
    1  A    between atoms: C_4  and  C_18
    2  A    between atoms: C_7  and  O_32
    3  A    between atoms: C_8  and  C_21
    4  A    between atoms: C_8  and  C_25
    5  A    between atoms: C_10  and  C_25
    6  A    between atoms: C_13  and  C_25
    7  A    between atoms: N_16  and  C_22
                            x       y       z     vdW  Elec       q    Type
                         _______ _______ _______ _____ _____    ______ ____

>  <TORSDO>
F 7

$$$$
=
 OpenBabel11072410173D

 37 41  0  0  1  0  0  0  0  0999 V2000
  161.7000  209.0780  151.8690 C   0  0  1  0  0  0  0  0  0  0  0  0
  160.3050  209.1400  151.9870 O   0  0  0  0  0  1  0  0  0  0  0  0
  159.1540  210.8250  155.6040 N   0  0  0  0  0  0  0  0  0  0  0  0
  160.2490  210.3090  154.9880 C   0  0  0  0  0  0  0  0  0  0  0  0
  158.2270  210.0210  156.1840 C   0  0  0  0  0  3  0  0  0  0  0  0
  161.2140  211.2570  154.3190 C   0  0  1  0  0  3  0  0  0  0  0  0
  162.3230  209.1740  153.2950 C   0  0  1  0  0  3  0  0  0  0  0  0
  159.4560  208.1030  155.5520 C   0  0  0  0  0  0  0  0  0  0  0  0
  162.5150  210.5950  153.8450 C   0  0  0  0  0  2  0  0  0  0  0  0
  160.4230  208.9120  154.9410 C   0  0  0  0  0  0  0  0  0  0  0  0
  161.6630  208.2940  154.3570 C   0  0  0  0  0  2  0  0  0  0  0  0
  159.5940  206.6850  155.5630 N   0  0  0  0  0  1  0  0  0  0  0  0
  158.3820  208.6730  156.1570 N   0  0  0  0  0  0  0  0  0  0  0  0
  159.7160  212.8220  153.8630 C   0  0  0  0  0  1  0  0  0  0  0  0
  160.5880  211.9160  153.2580 O   0  0  0  0  0  0  0  0  0  0  0  0
  162.6570  205.8490  152.6480 C   0  0  0  0  0  1  0  0  0  0  0  0
  162.0570  207.7450  151.1540 C   0  0  2  0  0  3  0  0  0  0  0  0
  161.1100  205.5010  150.7570 C   0  0  2  0  0  3  0  0  0  0  0  0
  161.0450  206.3090  149.4830 C   0  0  1  0  0  0  0  0  0  0  0  0
  159.7600  205.9090  150.1700 C   0  0  0  0  0  2  0  0  0  0  0  0
  161.6140  207.6910  149.6980 C   0  0  0  0  0  2  0  0  0  0  0  0
  161.5420  206.4790  151.8400 C   0  0  1  0  0  3  0  0  0  0  0  0
  161.9720  206.1510  147.1180 C   0  0  0  0  0  0  0  0  0  0  0  0
  161.9420  203.8250  146.7660 C   0  0  2  0  0  3  0  0  0  0  0  0
  161.3880  205.5750  148.2710 N   0  0  0  0  0  0  0  0  0  0  0  0
  161.2240  204.1420  148.0830 C   0  0  0  0  0  2  0  0  0  0  0  0
  162.2070  205.1660  146.0380 C   0  0  1  0  0  3  0  0  0  0  0  0
  162.2480  207.3770  147.0260 O   0  0  0  0  0  0  0  0  0  0  0  0
  161.2000  202.7670  145.9630 C   0  0  0  0  0  1  0  0  0  0  0  0
  161.2760  205.4440  144.8910 C   0  0  0  0  0  0  0  0  0  0  0  0
  161.6880  205.2480  143.5770 O   0  0  0  0  0  0  0  0  0  0  0  0
  160.1090  205.8560  145.1240 O   0  0  0  0  0  1  0  0  0  0  0  0
  162.1390  210.2270  150.9620 C   0  0  0  0  0  0  0  0  0  0  0  0
  163.2450  210.7190  151.1450 O   0  0  0  0  0  0  0  0  0  0  0  0
  161.2780  210.8670  149.8930 C   0  0  2  0  0  3  0  0  0  0  0  0
  161.8510  210.8160  148.6210 O   0  0  0  0  0  1  0  0  0  0  0  0
  160.9500  212.3030  150.2550 C   0  0  0  0  0  1  0  0  0  0  0  0
  1  2  1  1  0  0  0
  3  5  1  0  0  0  0
  4  3  2  0  0  0  0
  6 15  1  6  0  0  0
  6  4  1  0  0  0  0
  7  1  1  6  0  0  0
  7  9  1  0  0  0  0
  7 11  1  0  0  0  0
  8 12  1  0  0  0  0
  8 13  1  0  0  0  0
  9  6  1  0  0  0  0
 10  4  1  0  0  0  0
 10  8  2  0  0  0  0
 11 10  1  0  0  0  0
 13  5  2  0  0  0  0
 15 14  1  0  0  0  0
 17 22  1  0  0  0  0
 17  1  1  1  0  0  0
 18 20  1  1  0  0  0
 18 22  1  0  0  0  0
 19 25  1  6  0  0  0
 19 21  1  0  0  0  0
 19 20  1  0  0  0  0
 19 18  1  0  0  0  0
 21 17  1  0  0  0  0
 22 16  1  6  0  0  0
 23 25  1  0  0  0  0
 24 29  1  6  0  0  0
 24 26  1  0  0  0  0
 26 25  1  0  0  0  0
 27 30  1  6  0  0  0
 27 24  1  0  0  0  0
 27 23  1  0  0  0  0
 28 23  2  0  0  0  0
 30 32  1  0  0  0  0
 31 30  2  0  0  0  0
 33 34  2  0  0  0  0
 33  1  1  0  0  0  0
 35 37  1  1  0  0  0
 35 33  1  0  0  0  0
 36 35  1  0  0  0  0
M  END
>  <MODEL>
9

>  <REMARK>
 VINA RESULT:      -2.2      3.848      6.444
  Name = 
  7 active torsions:
  status: ('A' for Active; 'I' for Inactive)
    1  A    between atoms: C_4  and  C_18
    2  A    between atoms: C_7  and  O_32
    3  A    between atoms: C_8  and  C_21
    4  A    between atoms: C_8  and  C_25
    5  A    between atoms: C_10  and  C_25
    6  A    between atoms: C_13  and  C_25
    7  A    between atoms: N_16  and  C_22
                            x       y       z     vdW  Elec       q    Type
                         _______ _______ _______ _____ _____    ______ ____

>  <TORSDO>
F 7

$$$$
