=
 OpenBabel11072415273D

 70 75  0  0  1  0  0  0  0  0999 V2000
  162.6040  209.2630  149.9250 N   0  0  0  0  0  0  0  0  0  0  0  0
  162.9840  208.1430  149.0800 C   0  0  0  0  0  2  0  0  0  0  0  0
  161.8640  207.7700  148.2340 N   0  0  0  0  0  2  0  0  0  0  0  0
  162.0690  206.3880  147.8480 C   0  0  0  0  0  2  0  0  0  0  0  0
  162.1660  206.2930  146.3410 C   0  0  0  0  0  2  0  0  0  0  0  0
  161.0450  206.9080  145.7600 O   0  0  0  0  0  0  0  0  0  0  0  0
  159.8000  204.7920  145.6850 C   0  0  0  0  0  2  0  0  0  0  0  0
  158.2160  203.6050  143.9900 O   0  0  0  0  0  0  0  0  0  0  0  0
  159.6460  203.4600  144.4920 S   0  0  1  0  0  0  0  0  0  0  0  0
  161.2460  205.4680  143.7610 C   0  0  1  0  0  3  0  0  0  0  0  0
  160.3860  205.9770  144.9270 C   0  0  2  0  0  3  0  0  0  0  0  0
  160.6110  204.2130  143.1770 C   0  0  0  0  0  2  0  0  0  0  0  0
  161.4810  206.4550  142.7820 O   0  0  0  0  0  0  0  0  0  0  0  0
  162.1660  205.8790  141.8050 O   0  0  0  0  0  0  0  0  0  0  0  0
  163.4630  207.1610  140.4590 F   0  0  0  0  0  0  0  0  0  0  0  0
  161.4300  207.9120  141.0570 F   0  0  0  0  0  0  0  0  0  0  0  0
  162.1620  206.7830  140.7310 C   0  0  0  0  0  0  0  0  0  0  0  0
  161.6250  206.1920  139.5990 F   0  0  0  0  0  0  0  0  0  0  0  0
  162.7210  210.4560  149.1040 C   0  0  0  0  0  2  0  0  0  0  0  0
  161.0870  212.1630  149.6650 O   0  0  0  0  0  0  0  0  0  0  0  0
  161.7450  213.1950  149.1490 O   0  0  0  0  0  0  0  0  0  0  0  0
  160.9250  213.7530  148.1420 C   0  0  1  0  0  3  0  0  0  0  0  0
  160.4010  212.6770  147.1770 C   0  0  2  0  0  3  0  0  0  0  0  0
  161.1780  211.3700  147.3490 C   0  0  1  0  0  3  0  0  0  0  0  0
  161.3410  211.0420  148.8380 C   0  0  1  0  0  3  0  0  0  0  0  0
  160.5130  210.3250  146.7090 O   0  0  0  0  0  1  0  0  0  0  0  0
  159.2270  213.4140  145.1010 C   0  0  0  0  0  3  0  0  0  0  0  0
  160.4330  213.1630  145.7610 C   0  0  0  0  0  0  0  0  0  0  0  0
  159.2320  213.8800  143.7840 C   0  0  0  0  0  3  0  0  0  0  0  0
  161.6600  213.8460  143.7730 C   0  0  0  0  0  0  0  0  0  0  0  0
  161.6470  213.3810  145.0950 C   0  0  0  0  0  3  0  0  0  0  0  0
  160.4430  214.0960  143.1230 C   0  0  0  0  0  3  0  0  0  0  0  0
  164.0860  214.3690  143.8010 O   0  0  0  0  0  1  0  0  0  0  0  0
  162.9380  214.0630  143.0780 C   0  0  0  0  0  0  0  0  0  0  0  0
  163.0080  213.9670  141.8230 O   0  0  0  0  0  0  0  0  0  0  0  0
  159.8560  214.4500  148.7100 O   0  0  0  0  0  0  0  0  0  0  0  0
  158.7140  213.7660  148.2870 C   0  0  0  0  0  2  0  0  0  0  0  0
  156.2710  214.0910  148.3270 C   0  0  0  0  0  2  0  0  0  0  0  0
  156.6060  212.9560  149.2680 C   0  0  0  0  0  2  0  0  0  0  0  0
  157.5360  214.1470  149.1580 C   0  0  0  0  0  3  0  0  0  0  0  0
  161.1910  209.1170  150.2420 C   0  0  0  0  0  2  0  0  0  0  0  0
  161.0210  208.4930  151.6170 C   0  0  1  0  0  3  0  0  0  0  0  0
  159.8630  209.4690  152.6350 S   0  0  0  0  0  0  0  0  0  0  0  0
  160.9210  211.7560  154.5000 O   0  0  0  0  0  0  0  0  0  0  0  0
  161.5290  209.1620  155.5050 C   0  0  2  0  0  3  0  0  0  0  0  0
  161.8540  210.0900  156.6760 C   0  0  0  0  0  2  0  0  0  0  0  0
  160.0660  211.6040  155.6030 C   0  0  1  0  0  3  0  0  0  0  0  0
  161.3280  210.1830  153.9990 P   0  0  1  0  0  0  0  0  0  0  0  0
  162.6560  210.2560  153.2860 O   0  0  0  0  0  0  0  0  0  0  0  0
  160.8320  211.2210  156.8840 C   0  0  0  0  0  2  0  0  0  0  0  0
  160.3530  208.2830  155.8130 C   0  0  0  0  0  0  0  0  0  0  0  0
  159.2500  208.8280  156.4530 O   0  0  0  0  0  1  0  0  0  0  0  0
  160.3270  207.0770  155.4540 O   0  0  0  0  0  0  0  0  0  0  0  0
  159.2560  212.8450  155.8150 C   0  0  0  0  0  3  0  0  0  0  0  0
  158.1840  212.8520  156.6080 C   0  0  0  0  0  2  0  0  0  0  0  0
  160.4930  207.1500  151.4550 N   0  0  0  0  0  2  0  0  0  0  0  0
  161.6100  206.2120  151.5550 C   0  0  2  0  0  3  0  0  0  0  0  0
  160.8960  203.0060  149.6020 C   0  0  0  0  0  0  0  0  0  0  0  0
  161.3020  204.3090  149.9180 C   0  0  0  0  0  3  0  0  0  0  0  0
  160.2530  202.6710  151.9170 C   0  0  0  0  0  3  0  0  0  0  0  0
  161.2030  204.7960  151.2290 C   0  0  0  0  0  0  0  0  0  0  0  0
  160.3680  202.1900  150.6110 C   0  0  0  0  0  3  0  0  0  0  0  0
  160.6680  203.9680  152.2300 C   0  0  0  0  0  0  0  0  0  0  0  0
  160.5360  204.4300  153.5340 O   0  0  0  0  0  1  0  0  0  0  0  0
  161.7410  203.1200  147.3860 O   0  0  0  0  0  0  0  0  0  0  0  0
  161.0380  202.4980  148.2260 C   0  0  0  0  0  0  0  0  0  0  0  0
  160.3680  201.3090  147.8270 N   0  0  0  0  0  1  0  0  0  0  0  0
  162.2440  206.3080  152.8090 O   0  0  0  0  0  0  0  0  0  0  0  0
  163.9250  205.3760  151.8360 C   0  0  0  0  0  1  0  0  0  0  0  0
  163.5320  206.4920  152.5790 O   0  0  0  0  0  0  0  0  0  0  0  0
  1 41  1  0  0  0  0
  2  1  1  0  0  0  0
  3  2  1  0  0  0  0
  4  3  1  0  0  0  0
  5  4  1  0  0  0  0
  6  5  1  0  0  0  0
  9  8  2  6  0  0  0
  9  7  1  0  0  0  0
 10 13  1  6  0  0  0
 10 11  1  0  0  0  0
 11  7  1  0  0  0  0
 11  6  1  1  0  0  0
 12 10  1  0  0  0  0
 12  9  1  0  0  0  0
 14 13  1  0  0  0  0
 15 17  1  0  0  0  0
 17 16  1  0  0  0  0
 17 14  1  0  0  0  0
 18 17  1  0  0  0  0
 19  1  1  0  0  0  0
 21 20  1  0  0  0  0
 22 36  1  1  0  0  0
 22 21  1  0  0  0  0
 23 28  1  6  0  0  0
 23 24  1  0  0  0  0
 23 22  1  0  0  0  0
 24 26  1  6  0  0  0
 24 25  1  0  0  0  0
 25 19  1  6  0  0  0
 25 20  1  0  0  0  0
 27 28  1  0  0  0  0
 29 27  2  0  0  0  0
 30 31  1  0  0  0  0
 31 28  2  0  0  0  0
 32 30  2  0  0  0  0
 32 29  1  0  0  0  0
 34 30  1  0  0  0  0
 34 33  1  0  0  0  0
 35 34  2  0  0  0  0
 37 36  1  0  0  0  0
 37 40  1  0  0  0  0
 38 40  1  0  0  0  0
 38 39  1  0  0  0  0
 40 39  1  0  0  0  0
 42 41  1  6  0  0  0
 42 43  1  0  0  0  0
 43 48  1  0  0  0  0
 44 47  1  0  0  0  0
 45 51  1  1  0  0  0
 45 46  1  0  0  0  0
 46 50  1  0  0  0  0
 47 54  1  1  0  0  0
 47 50  1  0  0  0  0
 48 49  2  6  0  0  0
 48 44  1  0  0  0  0
 48 45  1  0  0  0  0
 51 52  1  0  0  0  0
 53 51  2  0  0  0  0
 54 55  2  0  0  0  0
 56 42  1  0  0  0  0
 57 56  1  1  0  0  0
 57 68  1  0  0  0  0
 58 59  2  0  0  0  0
 58 62  1  0  0  0  0
 59 61  1  0  0  0  0
 60 63  1  0  0  0  0
 61 57  1  0  0  0  0
 61 63  2  0  0  0  0
 62 60  2  0  0  0  0
 63 64  1  0  0  0  0
 65 66  2  0  0  0  0
 66 58  1  0  0  0  0
 67 66  1  0  0  0  0
 69 70  1  0  0  0  0
 70 68  1  0  0  0  0
M  END
>  <MODEL>
1

>  <REMARK>
 VINA RESULT:       0.5      0.000      0.000
  Name = 
  28 active torsions:
  status: ('A' for Active; 'I' for Inactive)
    1  A    between atoms: C_1  and  N_17
    2  A    between atoms: C_1  and  N_64
    3  A    between atoms: C_3  and  C_53
    4  A    between atoms: N_5  and  C_42
    5  A    between atoms: N_5  and  C_47
    6  A    between atoms: C_11  and  C_15
    7  A    between atoms: C_14  and  C_45
    8  A    between atoms: N_17  and  C_22
    9  A    between atoms: N_17  and  C_41
   10  A    between atoms: C_21  and  C_54
   11  A    between atoms: C_22  and  C_47
   12  A    between atoms: C_23  and  C_42
   13  A    between atoms: O_26  and  C_37
   14  A    between atoms: O_26  and  C_51
   15  A    between atoms: C_27  and  C_37
   16  A    between atoms: C_27  and  N_64
   17  A    between atoms: O_31  and  C_33
   18  A    between atoms: O_31  and  O_50
   19  A    between atoms: O_32  and  O_59
   20  A    between atoms: C_34  and  O_68
   21  A    between atoms: C_36  and  O_50
   22  A    between atoms: C_41  and  C_66
   23  A    between atoms: C_42  and  O_59
   24  A    between atoms: S_43  and  P_46
   25  A    between atoms: S_43  and  C_47
   26  A    between atoms: C_48  and  C_60
   27  A    between atoms: C_52  and  C_67
   28  A    between atoms: C_67  and  O_68
                            x       y       z     vdW  Elec       q    Type
                         _______ _______ _______ _____ _____    ______ ____

>  <TORSDO>
F 28

$$$$
=
 OpenBabel11072415273D

 70 75  0  0  1  0  0  0  0  0999 V2000
  161.9820  209.1900  149.4700 N   0  0  0  0  0  0  0  0  0  0  0  0
  162.8540  208.8840  150.5930 C   0  0  0  0  0  2  0  0  0  0  0  0
  162.6290  209.8450  151.6580 N   0  0  0  0  0  2  0  0  0  0  0  0
  161.1950  210.0010  151.7900 C   0  0  0  0  0  2  0  0  0  0  0  0
  160.8950  211.1920  152.6750 C   0  0  0  0  0  2  0  0  0  0  0  0
  159.6140  211.0480  153.2350 O   0  0  0  0  0  0  0  0  0  0  0  0
  160.8640  211.4860  155.3030 C   0  0  0  0  0  2  0  0  0  0  0  0
  160.7130  213.2020  157.2600 O   0  0  0  0  0  0  0  0  0  0  0  0
  160.4120  211.7280  157.0240 S   0  0  1  0  0  0  0  0  0  0  0  0
  158.3710  211.3070  155.3550 C   0  0  1  0  0  3  0  0  0  0  0  0
  159.5870  211.6840  154.4960 C   0  0  2  0  0  3  0  0  0  0  0  0
  158.6290  211.7140  156.8000 C   0  0  0  0  0  2  0  0  0  0  0  0
  157.1630  211.8360  154.8570 O   0  0  0  0  0  0  0  0  0  0  0  0
  157.3900  212.2190  153.6090 O   0  0  0  0  0  0  0  0  0  0  0  0
  157.7540  214.4520  153.4770 F   0  0  0  0  0  0  0  0  0  0  0  0
  155.8990  213.7050  154.5050 F   0  0  0  0  0  0  0  0  0  0  0  0
  156.7790  213.4740  153.4610 C   0  0  0  0  0  0  0  0  0  0  0  0
  156.0990  213.5430  152.2560 F   0  0  0  0  0  0  0  0  0  0  0  0
  162.1050  210.6180  149.2300 C   0  0  0  0  0  2  0  0  0  0  0  0
  160.4240  212.3580  149.0300 O   0  0  0  0  0  0  0  0  0  0  0  0
  161.2290  213.3130  148.5770 O   0  0  0  0  0  0  0  0  0  0  0  0
  160.7500  213.6940  147.3030 C   0  0  1  0  0  3  0  0  0  0  0  0
  160.4990  212.4740  146.4020 C   0  0  2  0  0  3  0  0  0  0  0  0
  161.1590  211.2240  146.9870 C   0  0  1  0  0  3  0  0  0  0  0  0
  160.8770  211.1290  148.4910 C   0  0  1  0  0  3  0  0  0  0  0  0
  160.6800  210.0810  146.3480 O   0  0  0  0  0  1  0  0  0  0  0  0
  162.1540  213.4200  144.7900 C   0  0  0  0  0  3  0  0  0  0  0  0
  160.9510  212.7400  144.9990 C   0  0  0  0  0  0  0  0  0  0  0  0
  162.6020  213.6680  143.4900 C   0  0  0  0  0  3  0  0  0  0  0  0
  160.6370  212.5580  142.5930 C   0  0  0  0  0  0  0  0  0  0  0  0
  160.1960  212.3100  143.8990 C   0  0  0  0  0  3  0  0  0  0  0  0
  161.8470  213.2390  142.3960 C   0  0  0  0  0  3  0  0  0  0  0  0
  158.5820  212.6670  141.2070 O   0  0  0  0  0  1  0  0  0  0  0  0
  159.8340  212.1110  141.4440 C   0  0  0  0  0  0  0  0  0  0  0  0
  160.2740  211.2270  140.6620 O   0  0  0  0  0  0  0  0  0  0  0  0
  159.5800  214.4500  147.4260 O   0  0  0  0  0  0  0  0  0  0  0  0
  158.8130  214.1080  146.3100 C   0  0  0  0  0  2  0  0  0  0  0  0
  156.4550  213.7700  145.6730 C   0  0  0  0  0  2  0  0  0  0  0  0
  157.0990  212.4100  145.8160 C   0  0  0  0  0  2  0  0  0  0  0  0
  157.4860  213.5330  146.7570 C   0  0  0  0  0  3  0  0  0  0  0  0
  162.5270  208.5260  148.2950 C   0  0  0  0  0  2  0  0  0  0  0  0
  162.0970  207.0690  148.2650 C   0  0  1  0  0  3  0  0  0  0  0  0
  160.7850  206.7540  149.4920 S   0  0  0  0  0  0  0  0  0  0  0  0
  161.8270  206.3780  152.4250 O   0  0  0  0  0  0  0  0  0  0  0  0
  161.6950  203.9200  150.9910 C   0  0  2  0  0  3  0  0  0  0  0  0
  161.9290  203.4840  152.4380 C   0  0  0  0  0  2  0  0  0  0  0  0
  160.7400  205.7010  152.9990 C   0  0  1  0  0  3  0  0  0  0  0  0
  162.0250  205.7170  150.8710 P   0  0  1  0  0  0  0  0  0  0  0  0
  163.4660  205.9150  150.4670 O   0  0  0  0  0  0  0  0  0  0  0  0
  161.1210  204.2850  153.4750 C   0  0  0  0  0  2  0  0  0  0  0  0
  160.3350  203.5120  150.5090 C   0  0  0  0  0  0  0  0  0  0  0  0
  159.2710  204.3880  150.6650 O   0  0  0  0  0  1  0  0  0  0  0  0
  160.1530  202.4160  149.9190 O   0  0  0  0  0  0  0  0  0  0  0  0
  160.1550  206.5020  154.1200 C   0  0  0  0  0  3  0  0  0  0  0  0
  160.7510  207.6020  154.5790 C   0  0  0  0  0  2  0  0  0  0  0  0
  161.5900  206.7620  146.9390 N   0  0  0  0  0  2  0  0  0  0  0  0
  162.3010  205.5830  146.4470 C   0  0  2  0  0  3  0  0  0  0  0  0
  160.6460  202.2320  145.6560 C   0  0  0  0  0  0  0  0  0  0  0  0
  161.4860  203.2000  146.2190 C   0  0  0  0  0  3  0  0  0  0  0  0
  159.5730  203.9630  144.3380 C   0  0  0  0  0  3  0  0  0  0  0  0
  161.3680  204.5510  145.8620 C   0  0  0  0  0  0  0  0  0  0  0  0
  159.6880  202.6230  144.7100 C   0  0  0  0  0  3  0  0  0  0  0  0
  160.4070  204.9280  144.9100 C   0  0  0  0  0  0  0  0  0  0  0  0
  160.2820  206.2550  144.5180 O   0  0  0  0  0  1  0  0  0  0  0  0
  160.6540  199.8990  145.2150 O   0  0  0  0  0  0  0  0  0  0  0  0
  160.7600  200.8210  146.0660 C   0  0  0  0  0  0  0  0  0  0  0  0
  160.9720  200.4850  147.4320 N   0  0  0  0  0  1  0  0  0  0  0  0
  163.1380  205.0410  147.4420 O   0  0  0  0  0  0  0  0  0  0  0  0
  164.0660  204.5430  145.5630 C   0  0  0  0  0  1  0  0  0  0  0  0
  164.3280  204.8690  146.8960 O   0  0  0  0  0  0  0  0  0  0  0  0
  1  2  1  0  0  0  0
  2  3  1  0  0  0  0
  3  4  1  0  0  0  0
  4  5  1  0  0  0  0
  5  6  1  0  0  0  0
  7  9  1  0  0  0  0
  9  8  2  6  0  0  0
 10 13  1  6  0  0  0
 10 12  1  0  0  0  0
 11  6  1  6  0  0  0
 11  7  1  0  0  0  0
 11 10  1  0  0  0  0
 12  9  1  0  0  0  0
 14 13  1  0  0  0  0
 17 15  1  0  0  0  0
 17 14  1  0  0  0  0
 17 16  1  0  0  0  0
 18 17  1  0  0  0  0
 19  1  1  0  0  0  0
 21 20  1  0  0  0  0
 22 36  1  1  0  0  0
 22 21  1  0  0  0  0
 23 28  1  6  0  0  0
 23 24  1  0  0  0  0
 23 22  1  0  0  0  0
 24 26  1  6  0  0  0
 24 25  1  0  0  0  0
 25 20  1  0  0  0  0
 25 19  1  1  0  0  0
 27 28  1  0  0  0  0
 29 27  2  0  0  0  0
 30 31  1  0  0  0  0
 31 28  2  0  0  0  0
 32 30  2  0  0  0  0
 32 29  1  0  0  0  0
 33 34  1  0  0  0  0
 34 30  1  0  0  0  0
 35 34  2  0  0  0  0
 37 40  1  0  0  0  0
 37 36  1  0  0  0  0
 38 39  1  0  0  0  0
 38 40  1  0  0  0  0
 39 40  1  0  0  0  0
 41  1  1  0  0  0  0
 42 41  1  6  0  0  0
 42 43  1  0  0  0  0
 43 48  1  0  0  0  0
 44 47  1  0  0  0  0
 45 51  1  1  0  0  0
 45 46  1  0  0  0  0
 46 50  1  0  0  0  0
 47 50  1  0  0  0  0
 47 54  1  1  0  0  0
 48 49  2  6  0  0  0
 48 45  1  0  0  0  0
 48 44  1  0  0  0  0
 51 52  1  0  0  0  0
 53 51  2  0  0  0  0
 54 55  2  0  0  0  0
 56 42  1  0  0  0  0
 57 56  1  1  0  0  0
 57 68  1  0  0  0  0
 58 66  1  0  0  0  0
 58 59  1  0  0  0  0
 60 62  1  0  0  0  0
 60 63  2  0  0  0  0
 61 59  2  0  0  0  0
 61 57  1  0  0  0  0
 62 58  2  0  0  0  0
 63 61  1  0  0  0  0
 64 63  1  0  0  0  0
 65 66  2  0  0  0  0
 66 67  1  0  0  0  0
 69 70  1  0  0  0  0
 70 68  1  0  0  0  0
M  END
>  <MODEL>
2

>  <REMARK>
 VINA RESULT:       0.6      3.818      7.511
  Name = 
  28 active torsions:
  status: ('A' for Active; 'I' for Inactive)
    1  A    between atoms: C_1  and  N_17
    2  A    between atoms: C_1  and  N_64
    3  A    between atoms: C_3  and  C_53
    4  A    between atoms: N_5  and  C_42
    5  A    between atoms: N_5  and  C_47
    6  A    between atoms: C_11  and  C_15
    7  A    between atoms: C_14  and  C_45
    8  A    between atoms: N_17  and  C_22
    9  A    between atoms: N_17  and  C_41
   10  A    between atoms: C_21  and  C_54
   11  A    between atoms: C_22  and  C_47
   12  A    between atoms: C_23  and  C_42
   13  A    between atoms: O_26  and  C_37
   14  A    between atoms: O_26  and  C_51
   15  A    between atoms: C_27  and  C_37
   16  A    between atoms: C_27  and  N_64
   17  A    between atoms: O_31  and  C_33
   18  A    between atoms: O_31  and  O_50
   19  A    between atoms: O_32  and  O_59
   20  A    between atoms: C_34  and  O_68
   21  A    between atoms: C_36  and  O_50
   22  A    between atoms: C_41  and  C_66
   23  A    between atoms: C_42  and  O_59
   24  A    between atoms: S_43  and  P_46
   25  A    between atoms: S_43  and  C_47
   26  A    between atoms: C_48  and  C_60
   27  A    between atoms: C_52  and  C_67
   28  A    between atoms: C_67  and  O_68
                            x       y       z     vdW  Elec       q    Type
                         _______ _______ _______ _____ _____    ______ ____

>  <TORSDO>
F 28

$$$$
=
 OpenBabel11072415273D

 70 75  0  0  1  0  0  0  0  0999 V2000
  161.7070  209.1450  149.0220 N   0  0  0  0  0  0  0  0  0  0  0  0
  162.5210  208.8690  150.1950 C   0  0  0  0  0  2  0  0  0  0  0  0
  162.5200  210.0260  151.0720 N   0  0  0  0  0  2  0  0  0  0  0  0
  161.1360  210.4170  151.2520 C   0  0  0  0  0  2  0  0  0  0  0  0
  160.9280  210.9010  152.6700 C   0  0  0  0  0  2  0  0  0  0  0  0
  159.6710  210.4750  153.1310 O   0  0  0  0  0  0  0  0  0  0  0  0
  158.6620  212.6380  153.7120 C   0  0  0  0  0  2  0  0  0  0  0  0
  157.5120  213.6680  155.8120 O   0  0  0  0  0  0  0  0  0  0  0  0
  158.8420  213.7870  155.0800 S   0  0  1  0  0  0  0  0  0  0  0  0
  160.3480  211.5880  155.2310 C   0  0  1  0  0  3  0  0  0  0  0  0
  159.2550  211.3170  154.1870 C   0  0  2  0  0  3  0  0  0  0  0  0
  159.9440  212.7850  156.0830 C   0  0  0  0  0  2  0  0  0  0  0  0
  160.6540  210.4550  156.0110 O   0  0  0  0  0  0  0  0  0  0  0  0
  161.5020  210.8460  156.9510 O   0  0  0  0  0  0  0  0  0  0  0  0
  162.9390  210.5030  155.2320 F   0  0  0  0  0  0  0  0  0  0  0  0
  162.8270  208.9810  156.8840 F   0  0  0  0  0  0  0  0  0  0  0  0
  162.7580  210.3330  156.5910 C   0  0  0  0  0  0  0  0  0  0  0  0
  163.7670  211.0060  157.2600 F   0  0  0  0  0  0  0  0  0  0  0  0
  161.9360  210.5380  148.6810 C   0  0  0  0  0  2  0  0  0  0  0  0
  160.3420  212.3550  148.4430 O   0  0  0  0  0  0  0  0  0  0  0  0
  161.1940  213.2590  147.9700 O   0  0  0  0  0  0  0  0  0  0  0  0
  160.7350  213.6370  146.6880 C   0  0  1  0  0  3  0  0  0  0  0  0
  160.4240  212.4120  145.8130 C   0  0  2  0  0  3  0  0  0  0  0  0
  161.0210  211.1430  146.4250 C   0  0  1  0  0  3  0  0  0  0  0  0
  160.7340  211.0940  147.9300 C   0  0  1  0  0  3  0  0  0  0  0  0
  160.4860  210.0130  145.8090 O   0  0  0  0  0  1  0  0  0  0  0  0
  162.2300  212.9430  144.1730 C   0  0  0  0  0  3  0  0  0  0  0  0
  160.8890  212.6250  144.4050 C   0  0  0  0  0  0  0  0  0  0  0  0
  162.6890  213.1340  142.8680 C   0  0  0  0  0  3  0  0  0  0  0  0
  160.4590  212.6950  142.0110 C   0  0  0  0  0  0  0  0  0  0  0  0
  160.0070  212.5020  143.3230 C   0  0  0  0  0  3  0  0  0  0  0  0
  161.8080  213.0110  141.7910 C   0  0  0  0  0  3  0  0  0  0  0  0
  160.0020  212.3070  139.6030 O   0  0  0  0  0  0  0  0  0  0  0  0
  159.5250  212.5730  140.8810 C   0  0  0  0  0  0  0  0  0  0  0  0
  158.2840  212.7020  141.0610 O   0  0  0  0  0  1  0  0  0  0  0  0
  159.6040  214.4520  146.7940 O   0  0  0  0  0  0  0  0  0  0  0  0
  158.6060  213.7740  146.0890 C   0  0  0  0  0  2  0  0  0  0  0  0
  156.1970  213.2500  146.1070 C   0  0  0  0  0  2  0  0  0  0  0  0
  156.9180  212.1520  146.8550 C   0  0  0  0  0  2  0  0  0  0  0  0
  157.3920  213.5860  146.9740 C   0  0  0  0  0  3  0  0  0  0  0  0
  162.2400  208.3580  147.9200 C   0  0  0  0  0  2  0  0  0  0  0  0
  161.8240  206.9020  148.0620 C   0  0  1  0  0  3  0  0  0  0  0  0
  160.5960  206.7050  149.3960 S   0  0  0  0  0  0  0  0  0  0  0  0
  161.8440  207.0030  152.2560 O   0  0  0  0  0  0  0  0  0  0  0  0
  161.7630  204.2940  151.3800 C   0  0  2  0  0  3  0  0  0  0  0  0
  162.1140  204.1850  152.8640 C   0  0  0  0  0  2  0  0  0  0  0  0
  160.8380  206.4160  153.0390 C   0  0  1  0  0  3  0  0  0  0  0  0
  161.9810  206.0370  150.8640 P   0  0  1  0  0  0  0  0  0  0  0  0
  163.3780  206.2070  150.3210 O   0  0  0  0  0  0  0  0  0  0  0  0
  161.3290  205.1510  153.7690 C   0  0  0  0  0  2  0  0  0  0  0  0
  160.4010  203.7350  151.0960 C   0  0  0  0  0  0  0  0  0  0  0  0
  160.2900  202.4460  150.5960 O   0  0  0  0  0  0  0  0  0  0  0  0
  159.3590  204.3920  151.3520 O   0  0  0  0  0  1  0  0  0  0  0  0
  160.2800  207.4100  154.0090 C   0  0  0  0  0  3  0  0  0  0  0  0
  160.3570  207.2200  155.3270 C   0  0  0  0  0  2  0  0  0  0  0  0
  161.2370  206.4630  146.8080 N   0  0  0  0  0  2  0  0  0  0  0  0
  162.0920  205.4160  146.2530 C   0  0  2  0  0  3  0  0  0  0  0  0
  160.8290  201.8190  145.9960 C   0  0  0  0  0  0  0  0  0  0  0  0
  161.5290  202.9570  146.4190 C   0  0  0  0  0  3  0  0  0  0  0  0
  159.6920  203.1670  144.3300 C   0  0  0  0  0  3  0  0  0  0  0  0
  161.3080  204.2030  145.8160 C   0  0  0  0  0  0  0  0  0  0  0  0
  159.9090  201.9330  144.9460 C   0  0  0  0  0  3  0  0  0  0  0  0
  160.3860  204.3020  144.7610 C   0  0  0  0  0  0  0  0  0  0  0  0
  160.1620  205.5180  144.1290 O   0  0  0  0  0  1  0  0  0  0  0  0
  161.0180  199.4530  145.9990 O   0  0  0  0  0  0  0  0  0  0  0  0
  161.0480  200.5230  146.6620 C   0  0  0  0  0  0  0  0  0  0  0  0
  161.2770  200.4660  148.0650 N   0  0  0  0  0  1  0  0  0  0  0  0
  163.1340  205.0840  147.1420 O   0  0  0  0  0  0  0  0  0  0  0  0
  164.6870  203.7080  146.5620 C   0  0  0  0  0  1  0  0  0  0  0  0
  164.2460  205.0280  146.4320 O   0  0  0  0  0  0  0  0  0  0  0  0
  1  2  1  0  0  0  0
  2  3  1  0  0  0  0
  3  4  1  0  0  0  0
  4  5  1  0  0  0  0
  5  6  1  0  0  0  0
  7 11  1  0  0  0  0
  7  9  1  0  0  0  0
  9  8  2  1  0  0  0
  9 12  1  0  0  0  0
 10 13  1  1  0  0  0
 10 12  1  0  0  0  0
 11  6  1  6  0  0  0
 11 10  1  0  0  0  0
 13 14  1  0  0  0  0
 15 17  1  0  0  0  0
 17 16  1  0  0  0  0
 17 14  1  0  0  0  0
 17 18  1  0  0  0  0
 19  1  1  0  0  0  0
 21 20  1  0  0  0  0
 22 36  1  1  0  0  0
 22 21  1  0  0  0  0
 23 28  1  6  0  0  0
 23 24  1  0  0  0  0
 23 22  1  0  0  0  0
 24 26  1  6  0  0  0
 24 25  1  0  0  0  0
 25 20  1  0  0  0  0
 25 19  1  1  0  0  0
 27 28  1  0  0  0  0
 29 27  2  0  0  0  0
 30 31  1  0  0  0  0
 31 28  2  0  0  0  0
 32 30  2  0  0  0  0
 32 29  1  0  0  0  0
 33 34  2  0  0  0  0
 34 35  1  0  0  0  0
 34 30  1  0  0  0  0
 37 36  1  0  0  0  0
 37 40  1  0  0  0  0
 38 39  1  0  0  0  0
 38 40  1  0  0  0  0
 39 40  1  0  0  0  0
 41  1  1  0  0  0  0
 42 41  1  6  0  0  0
 42 43  1  0  0  0  0
 43 48  1  0  0  0  0
 44 47  1  0  0  0  0
 45 51  1  1  0  0  0
 45 46  1  0  0  0  0
 46 50  1  0  0  0  0
 47 50  1  0  0  0  0
 47 54  1  1  0  0  0
 48 49  2  6  0  0  0
 48 45  1  0  0  0  0
 48 44  1  0  0  0  0
 51 53  1  0  0  0  0
 52 51  2  0  0  0  0
 54 55  2  0  0  0  0
 56 42  1  0  0  0  0
 57 56  1  1  0  0  0
 57 68  1  0  0  0  0
 58 59  1  0  0  0  0
 58 66  1  0  0  0  0
 60 63  2  0  0  0  0
 60 62  1  0  0  0  0
 61 57  1  0  0  0  0
 61 59  2  0  0  0  0
 62 58  2  0  0  0  0
 63 61  1  0  0  0  0
 64 63  1  0  0  0  0
 65 66  2  0  0  0  0
 66 67  1  0  0  0  0
 70 69  1  0  0  0  0
 70 68  1  0  0  0  0
M  END
>  <MODEL>
3

>  <REMARK>
 VINA RESULT:       1.2      3.956      7.535
  Name = 
  28 active torsions:
  status: ('A' for Active; 'I' for Inactive)
    1  A    between atoms: C_1  and  N_17
    2  A    between atoms: C_1  and  N_64
    3  A    between atoms: C_3  and  C_53
    4  A    between atoms: N_5  and  C_42
    5  A    between atoms: N_5  and  C_47
    6  A    between atoms: C_11  and  C_15
    7  A    between atoms: C_14  and  C_45
    8  A    between atoms: N_17  and  C_22
    9  A    between atoms: N_17  and  C_41
   10  A    between atoms: C_21  and  C_54
   11  A    between atoms: C_22  and  C_47
   12  A    between atoms: C_23  and  C_42
   13  A    between atoms: O_26  and  C_37
   14  A    between atoms: O_26  and  C_51
   15  A    between atoms: C_27  and  C_37
   16  A    between atoms: C_27  and  N_64
   17  A    between atoms: O_31  and  C_33
   18  A    between atoms: O_31  and  O_50
   19  A    between atoms: O_32  and  O_59
   20  A    between atoms: C_34  and  O_68
   21  A    between atoms: C_36  and  O_50
   22  A    between atoms: C_41  and  C_66
   23  A    between atoms: C_42  and  O_59
   24  A    between atoms: S_43  and  P_46
   25  A    between atoms: S_43  and  C_47
   26  A    between atoms: C_48  and  C_60
   27  A    between atoms: C_52  and  C_67
   28  A    between atoms: C_67  and  O_68
                            x       y       z     vdW  Elec       q    Type
                         _______ _______ _______ _____ _____    ______ ____

>  <TORSDO>
F 28

$$$$
=
 OpenBabel11072415273D

 70 75  0  0  1  0  0  0  0  0999 V2000
  162.0660  208.7800  149.8480 N   0  0  0  0  0  0  0  0  0  0  0  0
  161.7690  207.6090  150.6570 C   0  0  0  0  0  2  0  0  0  0  0  0
  162.5190  207.6740  151.8990 N   0  0  0  0  0  2  0  0  0  0  0  0
  161.7110  208.4230  152.8410 C   0  0  0  0  0  2  0  0  0  0  0  0
  160.4790  207.6210  153.2010 C   0  0  0  0  0  2  0  0  0  0  0  0
  160.3990  207.4870  154.5970 O   0  0  0  0  0  0  0  0  0  0  0  0
  162.0250  208.7210  155.9640 C   0  0  0  0  0  2  0  0  0  0  0  0
  162.5500  211.2280  156.4470 O   0  0  0  0  0  0  0  0  0  0  0  0
  161.9120  210.0480  157.1680 S   0  0  1  0  0  0  0  0  0  0  0  0
  159.5900  209.2730  156.1020 C   0  0  1  0  0  3  0  0  0  0  0  0
  160.7070  208.7270  155.2000 C   0  0  2  0  0  3  0  0  0  0  0  0
  160.1540  210.3730  156.9910 C   0  0  0  0  0  2  0  0  0  0  0  0
  158.4580  209.6960  155.3780 O   0  0  0  0  0  0  0  0  0  0  0  0
  157.7820  210.5250  156.1610 O   0  0  0  0  0  0  0  0  0  0  0  0
  155.6730  209.8170  155.7250 F   0  0  0  0  0  0  0  0  0  0  0  0
  156.8150  210.9040  154.1220 F   0  0  0  0  0  0  0  0  0  0  0  0
  156.5880  210.8240  155.4850 C   0  0  0  0  0  0  0  0  0  0  0  0
  156.0600  212.0210  155.9400 F   0  0  0  0  0  0  0  0  0  0  0  0
  162.6130  208.2870  148.5960 C   0  0  0  0  0  2  0  0  0  0  0  0
  162.0100  207.0770  146.5780 O   0  0  0  0  0  0  0  0  0  0  0  0
  162.9160  206.1120  146.6890 O   0  0  0  0  0  0  0  0  0  0  0  0
  162.2150  204.8880  146.7770 C   0  0  1  0  0  3  0  0  0  0  0  0
  161.0960  204.9490  147.8290 C   0  0  2  0  0  3  0  0  0  0  0  0
  161.2670  206.1740  148.7300 C   0  0  1  0  0  3  0  0  0  0  0  0
  161.5870  207.4130  147.8880 C   0  0  1  0  0  3  0  0  0  0  0  0
  160.1040  206.3950  149.4680 O   0  0  0  0  0  1  0  0  0  0  0  0
  161.0000  202.4570  147.9390 C   0  0  0  0  0  3  0  0  0  0  0  0
  161.0300  203.6780  148.6180 C   0  0  0  0  0  0  0  0  0  0  0  0
  160.9520  201.2580  148.6540 C   0  0  0  0  0  3  0  0  0  0  0  0
  160.9560  202.4960  150.7440 C   0  0  0  0  0  0  0  0  0  0  0  0
  161.0080  203.6940  150.0190 C   0  0  0  0  0  3  0  0  0  0  0  0
  160.9300  201.2770  150.0510 C   0  0  0  0  0  3  0  0  0  0  0  0
  162.0770  202.8110  152.9350 O   0  0  0  0  0  1  0  0  0  0  0  0
  160.9240  202.5220  152.2140 C   0  0  0  0  0  0  0  0  0  0  0  0
  159.8520  202.2890  152.8340 O   0  0  0  0  0  0  0  0  0  0  0  0
  161.6860  204.5350  145.5320 O   0  0  0  0  0  0  0  0  0  0  0  0
  161.3470  203.1860  145.6540 C   0  0  0  0  0  2  0  0  0  0  0  0
  160.0850  201.3390  144.6170 C   0  0  0  0  0  2  0  0  0  0  0  0
  159.1160  202.1690  145.4270 C   0  0  0  0  0  2  0  0  0  0  0  0
  160.2440  202.8440  144.6750 C   0  0  0  0  0  3  0  0  0  0  0  0
  160.8010  209.4210  149.5210 C   0  0  0  0  0  2  0  0  0  0  0  0
  160.9080  210.9260  149.7110 C   0  0  1  0  0  3  0  0  0  0  0  0
  161.4300  211.3310  151.4100 S   0  0  0  0  0  0  0  0  0  0  0  0
  159.5520  211.7860  153.8780 O   0  0  0  0  0  0  0  0  0  0  0  0
  158.4180  212.7550  151.4520 C   0  0  2  0  0  3  0  0  0  0  0  0
  157.5040  213.3310  152.5350 C   0  0  0  0  0  2  0  0  0  0  0  0
  159.6190  213.1830  153.9990 C   0  0  1  0  0  3  0  0  0  0  0  0
  159.4660  211.4610  152.2110 P   0  0  1  0  0  0  0  0  0  0  0  0
  158.7850  210.1260  152.0370 O   0  0  0  0  0  0  0  0  0  0  0  0
  158.2510  213.8540  153.7750 C   0  0  0  0  0  2  0  0  0  0  0  0
  159.1860  213.8360  150.7520 C   0  0  0  0  0  0  0  0  0  0  0  0
  160.4800  214.1210  151.1630 O   0  0  0  0  0  1  0  0  0  0  0  0
  158.7000  214.4510  149.7680 O   0  0  0  0  0  0  0  0  0  0  0  0
  160.1930  213.5690  155.3270 C   0  0  0  0  0  3  0  0  0  0  0  0
  159.4620  214.1990  156.2470 C   0  0  0  0  0  2  0  0  0  0  0  0
  161.8940  211.4410  148.7760 N   0  0  0  0  0  2  0  0  0  0  0  0
  161.4370  212.7510  148.3160 C   0  0  2  0  0  3  0  0  0  0  0  0
  161.5940  212.9450  144.5040 C   0  0  0  0  0  0  0  0  0  0  0  0
  161.9750  212.9210  145.8510 C   0  0  0  0  0  3  0  0  0  0  0  0
  159.2840  212.6390  145.1760 C   0  0  0  0  0  3  0  0  0  0  0  0
  161.0240  212.7400  146.8650 C   0  0  0  0  0  0  0  0  0  0  0  0
  160.2400  212.8050  144.1730 C   0  0  0  0  0  3  0  0  0  0  0  0
  159.6690  212.6050  146.5190 C   0  0  0  0  0  0  0  0  0  0  0  0
  158.7000  212.4480  147.5020 O   0  0  0  0  0  1  0  0  0  0  0  0
  163.5940  213.8710  143.6190 O   0  0  0  0  0  0  0  0  0  0  0  0
  162.6110  213.1020  143.4480 C   0  0  0  0  0  0  0  0  0  0  0  0
  162.4820  212.4000  142.2170 N   0  0  0  0  0  1  0  0  0  0  0  0
  162.3950  213.7480  148.5890 O   0  0  0  0  0  0  0  0  0  0  0  0
  164.3010  212.7460  148.5360 C   0  0  0  0  0  1  0  0  0  0  0  0
  163.4210  213.5300  147.7860 O   0  0  0  0  0  0  0  0  0  0  0  0
  1  2  1  0  0  0  0
  2  3  1  0  0  0  0
  3  4  1  0  0  0  0
  4  5  1  0  0  0  0
  5  6  1  0  0  0  0
  7  9  1  0  0  0  0
  9  8  2  6  0  0  0
 10 13  1  6  0  0  0
 10 12  1  0  0  0  0
 11  6  1  1  0  0  0
 11  7  1  0  0  0  0
 11 10  1  0  0  0  0
 12  9  1  0  0  0  0
 13 14  1  0  0  0  0
 16 17  1  0  0  0  0
 17 15  1  0  0  0  0
 17 18  1  0  0  0  0
 17 14  1  0  0  0  0
 19  1  1  0  0  0  0
 20 21  1  0  0  0  0
 20 25  1  0  0  0  0
 21 22  1  0  0  0  0
 22 36  1  6  0  0  0
 22 23  1  0  0  0  0
 23 28  1  1  0  0  0
 23 24  1  0  0  0  0
 24 26  1  6  0  0  0
 25 19  1  1  0  0  0
 25 24  1  0  0  0  0
 27 28  2  0  0  0  0
 27 29  1  0  0  0  0
 28 31  1  0  0  0  0
 29 32  2  0  0  0  0
 30 34  1  0  0  0  0
 31 30  2  0  0  0  0
 32 30  1  0  0  0  0
 34 35  2  0  0  0  0
 34 33  1  0  0  0  0
 36 37  1  0  0  0  0
 38 40  1  0  0  0  0
 38 39  1  0  0  0  0
 40 39  1  0  0  0  0
 40 37  1  0  0  0  0
 41  1  1  0  0  0  0
 42 41  1  1  0  0  0
 42 43  1  0  0  0  0
 43 48  1  0  0  0  0
 44 47  1  0  0  0  0
 45 51  1  1  0  0  0
 45 48  1  0  0  0  0
 45 46  1  0  0  0  0
 46 50  1  0  0  0  0
 47 54  1  1  0  0  0
 48 49  2  6  0  0  0
 48 44  1  0  0  0  0
 50 47  1  0  0  0  0
 51 52  1  0  0  0  0
 53 51  2  0  0  0  0
 54 55  2  0  0  0  0
 56 42  1  0  0  0  0
 57 68  1  6  0  0  0
 57 56  1  0  0  0  0
 58 59  1  0  0  0  0
 59 61  2  0  0  0  0
 60 63  2  0  0  0  0
 61 57  1  0  0  0  0
 62 58  2  0  0  0  0
 62 60  1  0  0  0  0
 63 61  1  0  0  0  0
 63 64  1  0  0  0  0
 66 65  2  0  0  0  0
 66 58  1  0  0  0  0
 67 66  1  0  0  0  0
 70 69  1  0  0  0  0
 70 68  1  0  0  0  0
M  END
>  <MODEL>
4

>  <REMARK>
 VINA RESULT:       1.3      4.091     10.244
  Name = 
  28 active torsions:
  status: ('A' for Active; 'I' for Inactive)
    1  A    between atoms: C_1  and  N_17
    2  A    between atoms: C_1  and  N_64
    3  A    between atoms: C_3  and  C_53
    4  A    between atoms: N_5  and  C_42
    5  A    between atoms: N_5  and  C_47
    6  A    between atoms: C_11  and  C_15
    7  A    between atoms: C_14  and  C_45
    8  A    between atoms: N_17  and  C_22
    9  A    between atoms: N_17  and  C_41
   10  A    between atoms: C_21  and  C_54
   11  A    between atoms: C_22  and  C_47
   12  A    between atoms: C_23  and  C_42
   13  A    between atoms: O_26  and  C_37
   14  A    between atoms: O_26  and  C_51
   15  A    between atoms: C_27  and  C_37
   16  A    between atoms: C_27  and  N_64
   17  A    between atoms: O_31  and  C_33
   18  A    between atoms: O_31  and  O_50
   19  A    between atoms: O_32  and  O_59
   20  A    between atoms: C_34  and  O_68
   21  A    between atoms: C_36  and  O_50
   22  A    between atoms: C_41  and  C_66
   23  A    between atoms: C_42  and  O_59
   24  A    between atoms: S_43  and  P_46
   25  A    between atoms: S_43  and  C_47
   26  A    between atoms: C_48  and  C_60
   27  A    between atoms: C_52  and  C_67
   28  A    between atoms: C_67  and  O_68
                            x       y       z     vdW  Elec       q    Type
                         _______ _______ _______ _____ _____    ______ ____

>  <TORSDO>
F 28

$$$$
=
 OpenBabel11072415273D

 70 75  0  0  1  0  0  0  0  0999 V2000
  162.0240  209.1380  149.7890 N   0  0  0  0  0  0  0  0  0  0  0  0
  163.0560  208.1200  149.6810 C   0  0  0  0  0  2  0  0  0  0  0  0
  163.0930  207.6070  148.3230 N   0  0  0  0  0  2  0  0  0  0  0  0
  163.1790  206.1640  148.4200 C   0  0  0  0  0  2  0  0  0  0  0  0
  163.5940  205.5910  147.0820 C   0  0  0  0  0  2  0  0  0  0  0  0
  162.9560  204.3550  146.8830 O   0  0  0  0  0  0  0  0  0  0  0  0
  162.1110  205.7710  145.0620 C   0  0  0  0  0  2  0  0  0  0  0  0
  161.4080  205.4110  142.5780 O   0  0  0  0  0  0  0  0  0  0  0  0
  160.7310  205.6650  143.9180 S   0  0  1  0  0  0  0  0  0  0  0  0
  160.9520  203.6290  145.6310 C   0  0  1  0  0  3  0  0  0  0  0  0
  162.2980  204.3700  145.6330 C   0  0  2  0  0  3  0  0  0  0  0  0
  160.1590  204.0310  144.3940 C   0  0  0  0  0  2  0  0  0  0  0  0
  161.0960  202.2320  145.7450 O   0  0  0  0  0  0  0  0  0  0  0  0
  159.9370  201.6910  145.4020 O   0  0  0  0  0  0  0  0  0  0  0  0
  160.8310  200.0960  144.0630 F   0  0  0  0  0  0  0  0  0  0  0  0
  158.9670  199.6260  145.2290 F   0  0  0  0  0  0  0  0  0  0  0  0
  160.1680  200.3140  145.2560 C   0  0  0  0  0  0  0  0  0  0  0  0
  160.9530  199.8400  146.2940 F   0  0  0  0  0  0  0  0  0  0  0  0
  161.6590  209.5000  148.4310 C   0  0  0  0  0  2  0  0  0  0  0  0
  161.7380  211.7650  149.3030 O   0  0  0  0  0  0  0  0  0  0  0  0
  162.8790  212.1240  148.7230 O   0  0  0  0  0  0  0  0  0  0  0  0
  162.5930  213.2210  147.8790 C   0  0  1  0  0  3  0  0  0  0  0  0
  161.3820  212.9390  146.9740 C   0  0  2  0  0  3  0  0  0  0  0  0
  161.0390  211.4480  146.9760 C   0  0  1  0  0  3  0  0  0  0  0  0
  161.0620  210.9000  148.4080 C   0  0  1  0  0  3  0  0  0  0  0  0
  159.7790  211.2420  146.4150 O   0  0  0  0  0  1  0  0  0  0  0  0
  162.8710  213.9740  145.2580 C   0  0  0  0  0  3  0  0  0  0  0  0
  161.6150  213.4570  145.5880 C   0  0  0  0  0  0  0  0  0  0  0  0
  163.1150  214.4500  143.9680 C   0  0  0  0  0  3  0  0  0  0  0  0
  160.8390  213.9020  143.3250 C   0  0  0  0  0  0  0  0  0  0  0  0
  160.6020  213.4220  144.6200 C   0  0  0  0  0  3  0  0  0  0  0  0
  162.1030  214.4150  143.0050 C   0  0  0  0  0  3  0  0  0  0  0  0
  160.0430  214.1790  140.9910 O   0  0  0  0  0  0  0  0  0  0  0  0
  159.7670  213.8700  142.3180 C   0  0  0  0  0  0  0  0  0  0  0  0
  158.5910  213.5580  142.6460 O   0  0  0  0  0  1  0  0  0  0  0  0
  162.3700  214.3750  148.6340 O   0  0  0  0  0  0  0  0  0  0  0  0
  160.9930  214.3940  148.8650 C   0  0  0  0  0  2  0  0  0  0  0  0
  159.2260  214.4530  150.5840 C   0  0  0  0  0  2  0  0  0  0  0  0
  160.0170  213.1790  150.7710 C   0  0  0  0  0  2  0  0  0  0  0  0
  160.7230  214.4520  150.3540 C   0  0  0  0  0  3  0  0  0  0  0  0
  160.8480  208.5130  150.3790 C   0  0  0  0  0  2  0  0  0  0  0  0
  161.0180  208.3870  151.8840 C   0  0  1  0  0  3  0  0  0  0  0  0
  160.0000  209.6230  152.7590 S   0  0  0  0  0  0  0  0  0  0  0  0
  161.1930  211.9420  154.4990 O   0  0  0  0  0  0  0  0  0  0  0  0
  161.9140  209.3650  155.4750 C   0  0  2  0  0  3  0  0  0  0  0  0
  162.3310  210.3100  156.6020 C   0  0  0  0  0  2  0  0  0  0  0  0
  160.4410  211.7940  155.6750 C   0  0  1  0  0  3  0  0  0  0  0  0
  161.5710  210.3670  153.9810 P   0  0  1  0  0  0  0  0  0  0  0  0
  162.8310  210.4440  153.1540 O   0  0  0  0  0  0  0  0  0  0  0  0
  161.3190  211.4340  156.8880 C   0  0  0  0  0  2  0  0  0  0  0  0
  160.7800  208.4790  155.8940 C   0  0  0  0  0  0  0  0  0  0  0  0
  160.7820  207.9340  157.1690 O   0  0  0  0  0  1  0  0  0  0  0  0
  159.8020  208.2640  155.1310 O   0  0  0  0  0  0  0  0  0  0  0  0
  159.6380  213.0290  155.9440 C   0  0  0  0  0  3  0  0  0  0  0  0
  158.6160  213.0260  156.8000 C   0  0  0  0  0  2  0  0  0  0  0  0
  160.5990  207.0560  152.2880 N   0  0  0  0  0  2  0  0  0  0  0  0
  161.6780  206.1260  151.9610 C   0  0  2  0  0  3  0  0  0  0  0  0
  161.1830  202.6050  150.5630 C   0  0  0  0  0  0  0  0  0  0  0  0
  161.5850  203.6660  151.3840 C   0  0  0  0  0  3  0  0  0  0  0  0
  160.0470  204.1870  149.1160 C   0  0  0  0  0  3  0  0  0  0  0  0
  161.2110  204.9850  151.0910 C   0  0  0  0  0  0  0  0  0  0  0  0
  160.4120  202.8760  149.4240 C   0  0  0  0  0  3  0  0  0  0  0  0
  160.4420  205.2420  149.9440 C   0  0  0  0  0  0  0  0  0  0  0  0
  160.0760  206.5410  149.6140 O   0  0  0  0  0  1  0  0  0  0  0  0
  161.1610  200.2610  150.1890 O   0  0  0  0  0  0  0  0  0  0  0  0
  161.5550  201.2210  150.9030 C   0  0  0  0  0  0  0  0  0  0  0  0
  162.3490  200.9520  152.0520 N   0  0  0  0  0  1  0  0  0  0  0  0
  162.3310  205.6740  153.1260 O   0  0  0  0  0  0  0  0  0  0  0  0
  163.9600  206.1440  151.7970 C   0  0  0  0  0  1  0  0  0  0  0  0
  163.5190  205.2300  152.7560 O   0  0  0  0  0  0  0  0  0  0  0  0
  1 41  1  0  0  0  0
  2  1  1  0  0  0  0
  3  4  1  0  0  0  0
  3  2  1  0  0  0  0
  5  4  1  0  0  0  0
  6  5  1  0  0  0  0
  7 11  1  0  0  0  0
  9  8  2  6  0  0  0
  9 12  1  0  0  0  0
  9  7  1  0  0  0  0
 10 11  1  0  0  0  0
 10 13  1  6  0  0  0
 11  6  1  1  0  0  0
 12 10  1  0  0  0  0
 14 13  1  0  0  0  0
 15 17  1  0  0  0  0
 16 17  1  0  0  0  0
 17 14  1  0  0  0  0
 17 18  1  0  0  0  0
 19  1  1  0  0  0  0
 21 20  1  0  0  0  0
 22 36  1  1  0  0  0
 22 21  1  0  0  0  0
 23 28  1  6  0  0  0
 23 24  1  0  0  0  0
 23 22  1  0  0  0  0
 24 26  1  1  0  0  0
 24 25  1  0  0  0  0
 25 19  1  6  0  0  0
 25 20  1  0  0  0  0
 27 28  1  0  0  0  0
 29 27  2  0  0  0  0
 30 31  1  0  0  0  0
 31 28  2  0  0  0  0
 32 30  2  0  0  0  0
 32 29  1  0  0  0  0
 33 34  2  0  0  0  0
 34 35  1  0  0  0  0
 34 30  1  0  0  0  0
 36 37  1  0  0  0  0
 37 40  1  0  0  0  0
 38 39  1  0  0  0  0
 40 38  1  0  0  0  0
 40 39  1  0  0  0  0
 42 41  1  6  0  0  0
 42 56  1  0  0  0  0
 42 43  1  0  0  0  0
 43 48  1  0  0  0  0
 44 47  1  0  0  0  0
 45 51  1  1  0  0  0
 45 46  1  0  0  0  0
 46 50  1  0  0  0  0
 47 54  1  1  0  0  0
 47 50  1  0  0  0  0
 48 49  2  6  0  0  0
 48 44  1  0  0  0  0
 48 45  1  0  0  0  0
 51 52  1  0  0  0  0
 53 51  2  0  0  0  0
 54 55  2  0  0  0  0
 57 56  1  1  0  0  0
 57 68  1  0  0  0  0
 58 66  1  0  0  0  0
 58 59  1  0  0  0  0
 60 62  1  0  0  0  0
 60 63  2  0  0  0  0
 61 59  2  0  0  0  0
 61 57  1  0  0  0  0
 62 58  2  0  0  0  0
 63 61  1  0  0  0  0
 64 63  1  0  0  0  0
 65 66  2  0  0  0  0
 66 67  1  0  0  0  0
 69 70  1  0  0  0  0
 70 68  1  0  0  0  0
M  END
>  <MODEL>
5

>  <REMARK>
 VINA RESULT:       2.5      2.461      3.151
  Name = 
  28 active torsions:
  status: ('A' for Active; 'I' for Inactive)
    1  A    between atoms: C_1  and  N_17
    2  A    between atoms: C_1  and  N_64
    3  A    between atoms: C_3  and  C_53
    4  A    between atoms: N_5  and  C_42
    5  A    between atoms: N_5  and  C_47
    6  A    between atoms: C_11  and  C_15
    7  A    between atoms: C_14  and  C_45
    8  A    between atoms: N_17  and  C_22
    9  A    between atoms: N_17  and  C_41
   10  A    between atoms: C_21  and  C_54
   11  A    between atoms: C_22  and  C_47
   12  A    between atoms: C_23  and  C_42
   13  A    between atoms: O_26  and  C_37
   14  A    between atoms: O_26  and  C_51
   15  A    between atoms: C_27  and  C_37
   16  A    between atoms: C_27  and  N_64
   17  A    between atoms: O_31  and  C_33
   18  A    between atoms: O_31  and  O_50
   19  A    between atoms: O_32  and  O_59
   20  A    between atoms: C_34  and  O_68
   21  A    between atoms: C_36  and  O_50
   22  A    between atoms: C_41  and  C_66
   23  A    between atoms: C_42  and  O_59
   24  A    between atoms: S_43  and  P_46
   25  A    between atoms: S_43  and  C_47
   26  A    between atoms: C_48  and  C_60
   27  A    between atoms: C_52  and  C_67
   28  A    between atoms: C_67  and  O_68
                            x       y       z     vdW  Elec       q    Type
                         _______ _______ _______ _____ _____    ______ ____

>  <TORSDO>
F 28

$$$$
