=
 OpenBabel11072412233D

 27 29  0  0  1  0  0  0  0  0999 V2000
  163.0210  207.6030  148.0630 C   0  0  0  0  0  1  0  0  0  0  0  0
  162.0200  207.0220  149.0520 C   0  0  2  0  0  3  0  0  0  0  0  0
  160.6140  202.9430  152.3330 N   0  0  0  0  0  1  0  0  0  0  0  0
  161.1300  203.6490  148.2410 C   0  0  0  0  0  0  0  0  0  0  0  0
  161.1190  202.3450  148.7410 C   0  0  0  0  0  3  0  0  0  0  0  0
  161.2740  203.9850  146.8680 N   0  0  0  0  0  0  0  0  0  0  0  0
  162.4220  206.2450  146.0910 O   0  0  0  0  0  0  0  0  0  0  0  0
  160.9570  206.0830  148.4460 C   0  0  1  0  0  3  0  0  0  0  0  0
  161.1680  205.6910  146.7050 S   0  0  0  0  0  0  0  0  0  0  0  0
  160.7910  204.5130  150.4720 C   0  0  0  0  0  3  0  0  0  0  0  0
  160.9530  202.1520  150.0790 N   0  0  0  0  0  0  0  0  0  0  0  0
  160.7900  203.1940  150.9450 C   0  0  0  0  0  0  0  0  0  0  0  0
  159.9540  206.0850  145.9120 O   0  0  0  0  0  0  0  0  0  0  0  0
  161.1540  203.0560  145.7570 C   0  0  0  0  0  1  0  0  0  0  0  0
  160.9740  204.7300  149.1040 C   0  0  0  0  0  0  0  0  0  0  0  0
  161.4850  208.0580  150.0510 C   0  0  2  0  0  3  0  0  0  0  0  0
  161.9890  210.4180  150.5330 C   0  0  0  0  0  2  0  0  0  0  0  0
  161.9040  209.4340  149.6400 C   0  0  0  0  0  3  0  0  0  0  0  0
  161.9080  207.7800  151.4880 C   0  0  0  0  0  2  0  0  0  0  0  0
  160.7900  207.8390  152.3380 O   0  0  0  0  0  0  0  0  0  0  0  0
  160.3610  209.7990  153.8330 C   0  0  0  0  0  2  0  0  0  0  0  0
  160.8000  210.2970  155.5240 S   0  0  0  0  0  0  0  0  0  0  0  0
  161.1380  208.5160  153.5320 C   0  0  1  0  0  3  0  0  0  0  0  0
  161.0620  208.5740  155.9210 C   0  0  0  0  0  0  0  0  0  0  0  0
  161.2380  207.6370  154.7790 C   0  0  1  0  0  3  0  0  0  0  0  0
  160.2230  206.6780  154.8110 O   0  0  0  0  0  1  0  0  0  0  0  0
  161.0480  208.1810  157.0760 O   0  0  0  0  0  0  0  0  0  0  0  0
  2  1  1  6  0  0  0
  2 16  1  0  0  0  0
  4  5  2  0  0  0  0
  4 15  1  0  0  0  0
  5 11  1  0  0  0  0
  6  4  1  0  0  0  0
  7  9  2  0  0  0  0
  8  2  1  1  0  0  0
  8 15  1  0  0  0  0
  9  6  1  0  0  0  0
  9  8  1  0  0  0  0
 10 12  1  0  0  0  0
 11 12  2  0  0  0  0
 12  3  1  0  0  0  0
 13  9  2  0  0  0  0
 14  6  1  0  0  0  0
 15 10  2  0  0  0  0
 16 18  1  6  0  0  0
 16 19  1  0  0  0  0
 18 17  2  0  0  0  0
 19 20  1  0  0  0  0
 21 22  1  0  0  0  0
 22 24  1  0  0  0  0
 23 20  1  6  0  0  0
 23 21  1  0  0  0  0
 23 25  1  0  0  0  0
 24 27  2  0  0  0  0
 25 26  1  6  0  0  0
 25 24  1  0  0  0  0
M  END
>  <MODEL>
1

>  <REMARK>
 VINA RESULT:      -7.5      0.000      0.000
  Name = 
  6 active torsions:
  status: ('A' for Active; 'I' for Inactive)
    1  A    between atoms: C_6  and  O_25
    2  A    between atoms: C_7  and  C_12
    3  A    between atoms: C_11  and  C_12
    4  A    between atoms: C_11  and  C_15
    5  A    between atoms: C_12  and  C_14
    6  A    between atoms: C_14  and  O_25
                            x       y       z     vdW  Elec       q    Type
                         _______ _______ _______ _____ _____    ______ ____

>  <TORSDO>
F 6

$$$$
=
 OpenBabel11072412233D

 27 29  0  0  1  0  0  0  0  0999 V2000
  163.0080  206.1330  151.0390 C   0  0  0  0  0  1  0  0  0  0  0  0
  161.5270  206.4610  150.9040 C   0  0  2  0  0  3  0  0  0  0  0  0
  159.9780  201.2970  150.3370 N   0  0  0  0  0  1  0  0  0  0  0  0
  161.5900  204.3690  147.9970 C   0  0  0  0  0  0  0  0  0  0  0  0
  161.6730  203.0390  147.5790 C   0  0  0  0  0  3  0  0  0  0  0  0
  162.0850  205.4790  147.2600 N   0  0  0  0  0  0  0  0  0  0  0  0
  162.9650  207.6750  148.4560 O   0  0  0  0  0  0  0  0  0  0  0  0
  160.9030  206.1530  149.5270 C   0  0  1  0  0  3  0  0  0  0  0  0
  161.7120  206.9180  148.1170 S   0  0  0  0  0  0  0  0  0  0  0  0
  160.4200  203.6740  149.9930 C   0  0  0  0  0  3  0  0  0  0  0  0
  161.1420  202.0640  148.3670 N   0  0  0  0  0  0  0  0  0  0  0  0
  160.5240  202.3490  149.5510 C   0  0  0  0  0  0  0  0  0  0  0  0
  160.7510  207.7760  147.3440 O   0  0  0  0  0  0  0  0  0  0  0  0
  162.4930  205.4480  145.8660 C   0  0  0  0  0  1  0  0  0  0  0  0
  160.9720  204.6850  149.2040 C   0  0  0  0  0  0  0  0  0  0  0  0
  161.1500  207.8220  151.5030 C   0  0  2  0  0  3  0  0  0  0  0  0
  162.0100  210.0060  150.7610 C   0  0  0  0  0  2  0  0  0  0  0  0
  162.2560  208.8060  151.2830 C   0  0  0  0  0  3  0  0  0  0  0  0
  160.7910  207.7490  152.9820 C   0  0  0  0  0  2  0  0  0  0  0  0
  160.3320  209.0000  153.4290 O   0  0  0  0  0  0  0  0  0  0  0  0
  161.2180  207.9250  155.5080 C   0  0  0  0  0  2  0  0  0  0  0  0
  161.7750  208.4730  157.1470 S   0  0  0  0  0  0  0  0  0  0  0  0
  160.6400  209.1540  154.8020 C   0  0  1  0  0  3  0  0  0  0  0  0
  162.0890  210.0920  156.4580 C   0  0  0  0  0  0  0  0  0  0  0  0
  161.4380  210.4090  155.1570 C   0  0  1  0  0  3  0  0  0  0  0  0
  162.4230  210.6760  154.2040 O   0  0  0  0  0  1  0  0  0  0  0  0
  162.8410  210.8800  157.0070 O   0  0  0  0  0  0  0  0  0  0  0  0
  2  1  1  6  0  0  0
  2 16  1  0  0  0  0
  4 15  1  0  0  0  0
  5  4  2  0  0  0  0
  5 11  1  0  0  0  0
  6  4  1  0  0  0  0
  6  9  1  0  0  0  0
  8  2  1  1  0  0  0
  9  7  2  0  0  0  0
  9  8  1  0  0  0  0
 11 12  2  0  0  0  0
 12 10  1  0  0  0  0
 12  3  1  0  0  0  0
 13  9  2  0  0  0  0
 14  6  1  0  0  0  0
 15  8  1  0  0  0  0
 15 10  2  0  0  0  0
 16 18  1  1  0  0  0
 16 19  1  0  0  0  0
 17 18  2  0  0  0  0
 19 20  1  0  0  0  0
 21 22  1  0  0  0  0
 23 20  1  6  0  0  0
 23 25  1  0  0  0  0
 23 21  1  0  0  0  0
 24 27  2  0  0  0  0
 24 22  1  0  0  0  0
 25 26  1  6  0  0  0
 25 24  1  0  0  0  0
M  END
>  <MODEL>
2

>  <REMARK>
 VINA RESULT:      -7.2      1.830      2.213
  Name = 
  6 active torsions:
  status: ('A' for Active; 'I' for Inactive)
    1  A    between atoms: C_6  and  O_25
    2  A    between atoms: C_7  and  C_12
    3  A    between atoms: C_11  and  C_12
    4  A    between atoms: C_11  and  C_15
    5  A    between atoms: C_12  and  C_14
    6  A    between atoms: C_14  and  O_25
                            x       y       z     vdW  Elec       q    Type
                         _______ _______ _______ _____ _____    ______ ____

>  <TORSDO>
F 6

$$$$
=
 OpenBabel11072412233D

 27 29  0  0  1  0  0  0  0  0999 V2000
  163.3200  205.7970  151.5570 C   0  0  0  0  0  1  0  0  0  0  0  0
  161.8160  206.0170  151.6600 C   0  0  2  0  0  3  0  0  0  0  0  0
  159.9660  201.1330  150.2110 N   0  0  0  0  0  1  0  0  0  0  0  0
  161.5060  204.5740  148.3960 C   0  0  0  0  0  0  0  0  0  0  0  0
  161.4840  203.3590  147.7100 C   0  0  0  0  0  3  0  0  0  0  0  0
  161.9860  205.7980  147.8550 N   0  0  0  0  0  0  0  0  0  0  0  0
  163.0810  207.6710  149.3790 O   0  0  0  0  0  0  0  0  0  0  0  0
  161.0530  206.0210  150.3200 C   0  0  1  0  0  3  0  0  0  0  0  0
  161.7660  207.0380  149.0210 S   0  0  0  0  0  0  0  0  0  0  0  0
  160.4920  203.5150  150.3170 C   0  0  0  0  0  3  0  0  0  0  0  0
  160.9790  202.2570  148.3330 N   0  0  0  0  0  0  0  0  0  0  0  0
  160.4880  202.3080  149.6050 C   0  0  0  0  0  0  0  0  0  0  0  0
  160.7820  208.0670  148.5400 O   0  0  0  0  0  0  0  0  0  0  0  0
  162.2610  206.0450  146.4510 C   0  0  0  0  0  1  0  0  0  0  0  0
  161.0190  204.6510  149.6990 C   0  0  0  0  0  0  0  0  0  0  0  0
  161.4340  207.1400  152.6340 C   0  0  2  0  0  3  0  0  0  0  0  0
  160.7740  207.1330  155.0050 C   0  0  0  0  0  2  0  0  0  0  0  0
  160.6800  206.5780  153.7980 C   0  0  0  0  0  3  0  0  0  0  0  0
  160.6390  208.2610  151.9760 C   0  0  0  0  0  2  0  0  0  0  0  0
  161.2830  209.4930  152.1800 O   0  0  0  0  0  0  0  0  0  0  0  0
  161.4410  210.7120  154.3600 C   0  0  0  0  0  2  0  0  0  0  0  0
  160.3950  211.8420  155.3240 S   0  0  0  0  0  0  0  0  0  0  0  0
  160.5980  210.2260  153.1780 C   0  0  1  0  0  3  0  0  0  0  0  0
  159.5370  212.2730  153.8160 C   0  0  0  0  0  0  0  0  0  0  0  0
  159.6910  211.3440  152.6630 C   0  0  1  0  0  3  0  0  0  0  0  0
  160.2780  212.0290  151.5970 O   0  0  0  0  0  1  0  0  0  0  0  0
  158.8960  213.3060  153.7250 O   0  0  0  0  0  0  0  0  0  0  0  0
  2  1  1  6  0  0  0
  2 16  1  0  0  0  0
  4 15  1  0  0  0  0
  5 11  1  0  0  0  0
  5  4  2  0  0  0  0
  6  4  1  0  0  0  0
  6  9  1  0  0  0  0
  8  2  1  1  0  0  0
  9  7  2  0  0  0  0
  9  8  1  0  0  0  0
 11 12  2  0  0  0  0
 12  3  1  0  0  0  0
 12 10  1  0  0  0  0
 13  9  2  0  0  0  0
 14  6  1  0  0  0  0
 15 10  2  0  0  0  0
 15  8  1  0  0  0  0
 16 19  1  6  0  0  0
 16 18  1  0  0  0  0
 18 17  2  0  0  0  0
 19 20  1  0  0  0  0
 21 22  1  0  0  0  0
 23 20  1  6  0  0  0
 23 21  1  0  0  0  0
 24 22  1  0  0  0  0
 25 26  1  6  0  0  0
 25 23  1  0  0  0  0
 25 24  1  0  0  0  0
 27 24  2  0  0  0  0
M  END
>  <MODEL>
3

>  <REMARK>
 VINA RESULT:      -7.0      2.300      3.308
  Name = 
  6 active torsions:
  status: ('A' for Active; 'I' for Inactive)
    1  A    between atoms: C_6  and  O_25
    2  A    between atoms: C_7  and  C_12
    3  A    between atoms: C_11  and  C_12
    4  A    between atoms: C_11  and  C_15
    5  A    between atoms: C_12  and  C_14
    6  A    between atoms: C_14  and  O_25
                            x       y       z     vdW  Elec       q    Type
                         _______ _______ _______ _____ _____    ______ ____

>  <TORSDO>
F 6

$$$$
=
 OpenBabel11072412233D

 27 29  0  0  1  0  0  0  0  0999 V2000
  162.3100  210.0590  152.7320 C   0  0  0  0  0  1  0  0  0  0  0  0
  160.8800  209.5880  152.5010 C   0  0  2  0  0  3  0  0  0  0  0  0
  157.6900  213.7740  151.2060 N   0  0  0  0  0  1  0  0  0  0  0  0
  159.5620  212.1790  154.5920 C   0  0  0  0  0  0  0  0  0  0  0  0
  159.1140  213.5020  154.5840 C   0  0  0  0  0  3  0  0  0  0  0  0
  160.1840  211.5440  155.7000 N   0  0  0  0  0  0  0  0  0  0  0  0
  161.9800  209.6190  155.3860 O   0  0  0  0  0  0  0  0  0  0  0  0
  159.8730  209.9590  153.6070 C   0  0  1  0  0  3  0  0  0  0  0  0
  160.5090  209.9100  155.2870 S   0  0  0  0  0  0  0  0  0  0  0  0
  158.7610  211.8890  152.3300 C   0  0  0  0  0  3  0  0  0  0  0  0
  158.5130  213.9900  153.4630 N   0  0  0  0  0  0  0  0  0  0  0  0
  158.3280  213.2220  152.3500 C   0  0  0  0  0  0  0  0  0  0  0  0
  159.7090  208.9660  156.1400 O   0  0  0  0  0  0  0  0  0  0  0  0
  160.2060  212.0560  157.0600 C   0  0  0  0  0  1  0  0  0  0  0  0
  159.3920  211.3770  153.4660 C   0  0  0  0  0  0  0  0  0  0  0  0
  160.7940  208.1410  151.9940 C   0  0  2  0  0  3  0  0  0  0  0  0
  161.8340  206.2220  153.1300 C   0  0  0  0  0  2  0  0  0  0  0  0
  160.9160  207.1860  153.1400 C   0  0  0  0  0  3  0  0  0  0  0  0
  161.8250  207.8180  150.9200 C   0  0  0  0  0  2  0  0  0  0  0  0
  161.1800  207.5140  149.7090 O   0  0  0  0  0  0  0  0  0  0  0  0
  160.6150  205.0820  149.8740 C   0  0  0  0  0  2  0  0  0  0  0  0
  161.0710  203.5550  149.0040 S   0  0  0  0  0  0  0  0  0  0  0  0
  161.5070  206.1940  149.3170 C   0  0  1  0  0  3  0  0  0  0  0  0
  161.5270  204.5440  147.5860 C   0  0  0  0  0  0  0  0  0  0  0  0
  161.7500  205.9960  147.8200 C   0  0  1  0  0  3  0  0  0  0  0  0
  160.8420  206.7300  147.0530 O   0  0  0  0  0  1  0  0  0  0  0  0
  161.6030  204.0550  146.4710 O   0  0  0  0  0  0  0  0  0  0  0  0
  2  1  1  1  0  0  0
  3 12  1  0  0  0  0
  4  6  1  0  0  0  0
  5  4  1  0  0  0  0
  6 14  1  0  0  0  0
  8  2  1  6  0  0  0
  8  9  1  0  0  0  0
  9  7  2  0  0  0  0
  9  6  1  0  0  0  0
  9 13  2  0  0  0  0
 10 12  2  0  0  0  0
 10 15  1  0  0  0  0
 11  5  2  0  0  0  0
 12 11  1  0  0  0  0
 15  8  1  0  0  0  0
 15  4  2  0  0  0  0
 16 19  1  6  0  0  0
 16  2  1  0  0  0  0
 16 18  1  0  0  0  0
 17 18  2  0  0  0  0
 20 19  1  0  0  0  0
 22 21  1  0  0  0  0
 23 20  1  6  0  0  0
 23 21  1  0  0  0  0
 24 25  1  0  0  0  0
 24 22  1  0  0  0  0
 25 26  1  6  0  0  0
 25 23  1  0  0  0  0
 27 24  2  0  0  0  0
M  END
>  <MODEL>
4

>  <REMARK>
 VINA RESULT:      -6.8      4.139      8.757
  Name = 
  6 active torsions:
  status: ('A' for Active; 'I' for Inactive)
    1  A    between atoms: C_6  and  O_25
    2  A    between atoms: C_7  and  C_12
    3  A    between atoms: C_11  and  C_12
    4  A    between atoms: C_11  and  C_15
    5  A    between atoms: C_12  and  C_14
    6  A    between atoms: C_14  and  O_25
                            x       y       z     vdW  Elec       q    Type
                         _______ _______ _______ _____ _____    ______ ____

>  <TORSDO>
F 6

$$$$
=
 OpenBabel11072412233D

 27 29  0  0  1  0  0  0  0  0999 V2000
  162.7050  207.8500  151.2670 C   0  0  0  0  0  1  0  0  0  0  0  0
  161.1860  207.7560  151.2190 C   0  0  2  0  0  3  0  0  0  0  0  0
  159.7080  212.8570  152.3070 N   0  0  0  0  0  1  0  0  0  0  0  0
  161.0790  209.4770  154.3580 C   0  0  0  0  0  0  0  0  0  0  0  0
  161.1590  210.7420  154.9420 C   0  0  0  0  0  3  0  0  0  0  0  0
  161.4950  208.2710  154.9860 N   0  0  0  0  0  0  0  0  0  0  0  0
  162.4150  206.2110  153.5930 O   0  0  0  0  0  0  0  0  0  0  0  0
  160.4690  207.9130  152.5750 C   0  0  1  0  0  3  0  0  0  0  0  0
  161.1560  206.9580  153.9330 S   0  0  0  0  0  0  0  0  0  0  0  0
  160.0740  210.4430  152.3850 C   0  0  0  0  0  3  0  0  0  0  0  0
  160.7080  211.8220  154.2440 N   0  0  0  0  0  0  0  0  0  0  0  0
  160.1730  211.7020  152.9940 C   0  0  0  0  0  0  0  0  0  0  0  0
  160.1230  206.0410  154.5250 O   0  0  0  0  0  0  0  0  0  0  0  0
  161.8000  208.1200  156.3980 C   0  0  0  0  0  1  0  0  0  0  0  0
  160.5450  209.3280  153.0810 C   0  0  0  0  0  0  0  0  0  0  0  0
  160.6780  206.6060  150.3380 C   0  0  2  0  0  3  0  0  0  0  0  0
  160.6630  204.2480  151.0420 C   0  0  0  0  0  2  0  0  0  0  0  0
  161.3650  205.3300  150.7110 C   0  0  0  0  0  3  0  0  0  0  0  0
  160.8330  206.8780  148.8470 C   0  0  0  0  0  2  0  0  0  0  0  0
  161.8290  206.0470  148.3070 O   0  0  0  0  0  0  0  0  0  0  0  0
  162.2060  205.8350  145.8420 C   0  0  0  0  0  2  0  0  0  0  0  0
  161.5800  204.7930  144.4920 S   0  0  0  0  0  0  0  0  0  0  0  0
  161.3760  205.4980  147.0840 C   0  0  1  0  0  3  0  0  0  0  0  0
  161.1280  203.5600  145.7040 C   0  0  0  0  0  0  0  0  0  0  0  0
  161.0360  204.0070  147.1200 C   0  0  1  0  0  3  0  0  0  0  0  0
  161.9550  203.2910  147.8890 O   0  0  0  0  0  1  0  0  0  0  0  0
  160.9510  202.3950  145.3880 O   0  0  0  0  0  0  0  0  0  0  0  0
  2  1  1  1  0  0  0
  3 12  1  0  0  0  0
  4  5  1  0  0  0  0
  4  6  1  0  0  0  0
  6 14  1  0  0  0  0
  7  9  2  0  0  0  0
  8  2  1  6  0  0  0
  8 15  1  0  0  0  0
  8  9  1  0  0  0  0
  9 13  2  0  0  0  0
  9  6  1  0  0  0  0
 10 12  2  0  0  0  0
 10 15  1  0  0  0  0
 11  5  2  0  0  0  0
 12 11  1  0  0  0  0
 15  4  2  0  0  0  0
 16 19  1  6  0  0  0
 16 18  1  0  0  0  0
 16  2  1  0  0  0  0
 18 17  2  0  0  0  0
 20 19  1  0  0  0  0
 21 23  1  0  0  0  0
 22 24  1  0  0  0  0
 22 21  1  0  0  0  0
 23 25  1  0  0  0  0
 23 20  1  1  0  0  0
 24 25  1  0  0  0  0
 25 26  1  1  0  0  0
 27 24  2  0  0  0  0
M  END
>  <MODEL>
5

>  <REMARK>
 VINA RESULT:      -6.8      3.387      8.164
  Name = 
  6 active torsions:
  status: ('A' for Active; 'I' for Inactive)
    1  A    between atoms: C_6  and  O_25
    2  A    between atoms: C_7  and  C_12
    3  A    between atoms: C_11  and  C_12
    4  A    between atoms: C_11  and  C_15
    5  A    between atoms: C_12  and  C_14
    6  A    between atoms: C_14  and  O_25
                            x       y       z     vdW  Elec       q    Type
                         _______ _______ _______ _____ _____    ______ ____

>  <TORSDO>
F 6

$$$$
=
 OpenBabel11072412233D

 27 29  0  0  1  0  0  0  0  0999 V2000
  162.9960  205.4120  146.4690 C   0  0  0  0  0  1  0  0  0  0  0  0
  161.9110  205.3170  147.5330 C   0  0  2  0  0  3  0  0  0  0  0  0
  160.7950  202.4510  151.9970 N   0  0  0  0  0  1  0  0  0  0  0  0
  161.1090  201.8420  147.8690 C   0  0  0  0  0  0  0  0  0  0  0  0
  161.1670  200.7630  148.7520 C   0  0  0  0  0  3  0  0  0  0  0  0
  161.1820  201.7310  146.4540 N   0  0  0  0  0  0  0  0  0  0  0  0
  162.2130  203.6540  144.9480 O   0  0  0  0  0  0  0  0  0  0  0  0
  160.8580  204.2120  147.3080 C   0  0  1  0  0  3  0  0  0  0  0  0
  161.0070  203.2960  145.7700 S   0  0  0  0  0  0  0  0  0  0  0  0
  160.8350  203.3580  149.7300 C   0  0  0  0  0  3  0  0  0  0  0  0
  161.0660  200.9970  150.0910 N   0  0  0  0  0  0  0  0  0  0  0  0
  160.9030  202.2560  150.5920 C   0  0  0  0  0  0  0  0  0  0  0  0
  159.7470  203.3950  144.9580 O   0  0  0  0  0  0  0  0  0  0  0  0
  161.0480  200.4970  145.6990 C   0  0  0  0  0  1  0  0  0  0  0  0
  160.9510  203.1370  148.3560 C   0  0  0  0  0  0  0  0  0  0  0  0
  161.3480  206.6830  147.9480 C   0  0  2  0  0  3  0  0  0  0  0  0
  162.2260  208.9380  148.3970 C   0  0  0  0  0  2  0  0  0  0  0  0
  162.4250  207.7210  147.8950 C   0  0  0  0  0  3  0  0  0  0  0  0
  160.6910  206.6690  149.3230 C   0  0  0  0  0  2  0  0  0  0  0  0
  161.6730  206.5830  150.3250 O   0  0  0  0  0  0  0  0  0  0  0  0
  161.5160  205.9650  152.7450 C   0  0  0  0  0  2  0  0  0  0  0  0
  160.8530  206.7110  154.2620 S   0  0  0  0  0  0  0  0  0  0  0  0
  161.0900  206.8670  151.5840 C   0  0  1  0  0  3  0  0  0  0  0  0
  160.9820  208.3150  153.4840 C   0  0  0  0  0  0  0  0  0  0  0  0
  161.1160  208.3370  152.0020 C   0  0  1  0  0  3  0  0  0  0  0  0
  162.3250  208.9460  151.6580 O   0  0  0  0  0  1  0  0  0  0  0  0
  161.0090  209.3400  154.1440 O   0  0  0  0  0  0  0  0  0  0  0  0
  2  1  1  6  0  0  0
  2 16  1  0  0  0  0
  4 15  2  0  0  0  0
  4  5  1  0  0  0  0
  5 11  2  0  0  0  0
  6  4  1  0  0  0  0
  7  9  2  0  0  0  0
  8  2  1  1  0  0  0
  8 15  1  0  0  0  0
  9  6  1  0  0  0  0
  9  8  1  0  0  0  0
 10 12  2  0  0  0  0
 11 12  1  0  0  0  0
 12  3  1  0  0  0  0
 13  9  2  0  0  0  0
 14  6  1  0  0  0  0
 15 10  1  0  0  0  0
 16 18  1  1  0  0  0
 16 19  1  0  0  0  0
 18 17  2  0  0  0  0
 19 20  1  0  0  0  0
 21 22  1  0  0  0  0
 23 20  1  6  0  0  0
 23 25  1  0  0  0  0
 23 21  1  0  0  0  0
 24 27  2  0  0  0  0
 24 22  1  0  0  0  0
 25 26  1  1  0  0  0
 25 24  1  0  0  0  0
M  END
>  <MODEL>
6

>  <REMARK>
 VINA RESULT:      -6.7      1.958      2.588
  Name = 
  6 active torsions:
  status: ('A' for Active; 'I' for Inactive)
    1  A    between atoms: C_6  and  O_25
    2  A    between atoms: C_7  and  C_12
    3  A    between atoms: C_11  and  C_12
    4  A    between atoms: C_11  and  C_15
    5  A    between atoms: C_12  and  C_14
    6  A    between atoms: C_14  and  O_25
                            x       y       z     vdW  Elec       q    Type
                         _______ _______ _______ _____ _____    ______ ____

>  <TORSDO>
F 6

$$$$
=
 OpenBabel11072412233D

 27 29  0  0  1  0  0  0  0  0999 V2000
  162.3170  209.8620  151.1890 C   0  0  0  0  0  1  0  0  0  0  0  0
  161.2550  208.7750  151.0850 C   0  0  2  0  0  3  0  0  0  0  0  0
  158.8530  213.1820  153.1320 N   0  0  0  0  0  1  0  0  0  0  0  0
  160.7030  209.6880  154.5040 C   0  0  0  0  0  0  0  0  0  0  0  0
  160.5310  210.7820  155.3540 C   0  0  0  0  0  3  0  0  0  0  0  0
  161.2950  208.4540  154.8860 N   0  0  0  0  0  0  0  0  0  0  0  0
  162.6260  206.9450  153.1600 O   0  0  0  0  0  0  0  0  0  0  0  0
  160.4600  208.4990  152.3770 C   0  0  1  0  0  3  0  0  0  0  0  0
  161.2420  207.3810  153.5470 S   0  0  0  0  0  0  0  0  0  0  0  0
  159.6340  210.9070  152.7110 C   0  0  0  0  0  3  0  0  0  0  0  0
  159.9290  211.9060  154.8730 N   0  0  0  0  0  0  0  0  0  0  0  0
  159.4820  211.9900  153.5860 C   0  0  0  0  0  0  0  0  0  0  0  0
  160.3600  206.1980  153.8350 O   0  0  0  0  0  0  0  0  0  0  0  0
  161.5570  208.0340  156.2510 C   0  0  0  0  0  1  0  0  0  0  0  0
  160.2620  209.7520  153.1840 C   0  0  0  0  0  0  0  0  0  0  0  0
  161.7380  207.5270  150.3340 C   0  0  2  0  0  3  0  0  0  0  0  0
  162.0550  207.2480  147.9090 C   0  0  0  0  0  2  0  0  0  0  0  0
  162.3460  207.9170  149.0230 C   0  0  0  0  0  3  0  0  0  0  0  0
  160.6420  206.4900  150.1240 C   0  0  0  0  0  2  0  0  0  0  0  0
  160.9500  205.3140  150.8290 O   0  0  0  0  0  0  0  0  0  0  0  0
  161.2470  204.0680  148.6800 C   0  0  0  0  0  2  0  0  0  0  0  0
  160.8260  202.4230  148.0340 S   0  0  0  0  0  0  0  0  0  0  0  0
  160.5840  204.1870  150.0540 C   0  0  1  0  0  3  0  0  0  0  0  0
  160.7430  201.8250  149.7160 C   0  0  0  0  0  0  0  0  0  0  0  0
  160.6150  202.8470  150.7900 C   0  0  1  0  0  3  0  0  0  0  0  0
  161.7170  202.7580  151.6440 O   0  0  0  0  0  1  0  0  0  0  0  0
  160.8380  200.6360  149.9720 O   0  0  0  0  0  0  0  0  0  0  0  0
  2  1  1  1  0  0  0
  3 12  1  0  0  0  0
  4  6  1  0  0  0  0
  4  5  1  0  0  0  0
  6 14  1  0  0  0  0
  7  9  2  0  0  0  0
  8  2  1  6  0  0  0
  8 15  1  0  0  0  0
  8  9  1  0  0  0  0
  9 13  2  0  0  0  0
  9  6  1  0  0  0  0
 10 15  1  0  0  0  0
 10 12  2  0  0  0  0
 11  5  2  0  0  0  0
 12 11  1  0  0  0  0
 15  4  2  0  0  0  0
 16 18  1  6  0  0  0
 16  2  1  0  0  0  0
 17 18  2  0  0  0  0
 19 16  1  0  0  0  0
 19 20  1  0  0  0  0
 21 23  1  0  0  0  0
 22 21  1  0  0  0  0
 22 24  1  0  0  0  0
 23 25  1  0  0  0  0
 23 20  1  1  0  0  0
 24 27  2  0  0  0  0
 24 25  1  0  0  0  0
 25 26  1  1  0  0  0
M  END
>  <MODEL>
7

>  <REMARK>
 VINA RESULT:      -6.5      3.716      7.512
  Name = 
  6 active torsions:
  status: ('A' for Active; 'I' for Inactive)
    1  A    between atoms: C_6  and  O_25
    2  A    between atoms: C_7  and  C_12
    3  A    between atoms: C_11  and  C_12
    4  A    between atoms: C_11  and  C_15
    5  A    between atoms: C_12  and  C_14
    6  A    between atoms: C_14  and  O_25
                            x       y       z     vdW  Elec       q    Type
                         _______ _______ _______ _____ _____    ______ ____

>  <TORSDO>
F 6

$$$$
=
 OpenBabel11072412233D

 27 29  0  0  1  0  0  0  0  0999 V2000
  163.2420  208.0040  148.2200 C   0  0  0  0  0  1  0  0  0  0  0  0
  162.2030  208.0090  149.3340 C   0  0  2  0  0  3  0  0  0  0  0  0
  161.0770  205.4530  153.9790 N   0  0  0  0  0  1  0  0  0  0  0  0
  161.2240  204.6070  149.8840 C   0  0  0  0  0  0  0  0  0  0  0  0
  161.2510  203.5760  150.8240 C   0  0  0  0  0  3  0  0  0  0  0  0
  161.2450  204.4170  148.4760 N   0  0  0  0  0  0  0  0  0  0  0  0
  162.3310  206.1960  146.8370 O   0  0  0  0  0  0  0  0  0  0  0  0
  161.0850  206.9550  149.2010 C   0  0  1  0  0  3  0  0  0  0  0  0
  161.1350  205.9510  147.7120 S   0  0  0  0  0  0  0  0  0  0  0  0
  161.0930  206.2340  151.6660 C   0  0  0  0  0  3  0  0  0  0  0  0
  161.2060  203.8870  152.1490 N   0  0  0  0  0  0  0  0  0  0  0  0
  161.1280  205.1780  152.5860 C   0  0  0  0  0  0  0  0  0  0  0  0
  159.8560  206.0770  146.9320 O   0  0  0  0  0  0  0  0  0  0  0  0
  161.0200  203.1540  147.7940 C   0  0  0  0  0  1  0  0  0  0  0  0
  161.1530  205.9330  150.3030 C   0  0  0  0  0  0  0  0  0  0  0  0
  161.7320  209.4180  149.7170 C   0  0  2  0  0  3  0  0  0  0  0  0
  161.9560  211.7090  148.8450 C   0  0  0  0  0  2  0  0  0  0  0  0
  162.3200  210.4290  148.7840 C   0  0  0  0  0  3  0  0  0  0  0  0
  162.0450  209.7830  151.1630 C   0  0  0  0  0  2  0  0  0  0  0  0
  160.9060  209.5910  151.9650 O   0  0  0  0  0  0  0  0  0  0  0  0
  159.3730  211.2020  153.1110 C   0  0  0  0  0  2  0  0  0  0  0  0
  159.4690  212.3520  154.5140 S   0  0  0  0  0  0  0  0  0  0  0  0
  160.7870  210.6620  152.8820 C   0  0  1  0  0  3  0  0  0  0  0  0
  160.8310  211.3910  155.1600 C   0  0  0  0  0  0  0  0  0  0  0  0
  161.5170  210.4710  154.2120 C   0  0  1  0  0  3  0  0  0  0  0  0
  161.3970  209.1600  154.6770 O   0  0  0  0  0  1  0  0  0  0  0  0
  161.1480  211.4520  156.3360 O   0  0  0  0  0  0  0  0  0  0  0  0
  2  1  1  6  0  0  0
  2 16  1  0  0  0  0
  4 15  2  0  0  0  0
  4  5  1  0  0  0  0
  5 11  2  0  0  0  0
  6  4  1  0  0  0  0
  7  9  2  0  0  0  0
  8  2  1  6  0  0  0
  8 15  1  0  0  0  0
  9  6  1  0  0  0  0
  9  8  1  0  0  0  0
 10 12  2  0  0  0  0
 11 12  1  0  0  0  0
 12  3  1  0  0  0  0
 13  9  2  0  0  0  0
 14  6  1  0  0  0  0
 15 10  1  0  0  0  0
 16 18  1  6  0  0  0
 16 19  1  0  0  0  0
 18 17  2  0  0  0  0
 19 20  1  0  0  0  0
 21 22  1  0  0  0  0
 22 24  1  0  0  0  0
 23 20  1  1  0  0  0
 23 21  1  0  0  0  0
 23 25  1  0  0  0  0
 24 27  2  0  0  0  0
 25 26  1  1  0  0  0
 25 24  1  0  0  0  0
M  END
>  <MODEL>
8

>  <REMARK>
 VINA RESULT:      -6.3      1.690      2.106
  Name = 
  6 active torsions:
  status: ('A' for Active; 'I' for Inactive)
    1  A    between atoms: C_6  and  O_25
    2  A    between atoms: C_7  and  C_12
    3  A    between atoms: C_11  and  C_12
    4  A    between atoms: C_11  and  C_15
    5  A    between atoms: C_12  and  C_14
    6  A    between atoms: C_14  and  O_25
                            x       y       z     vdW  Elec       q    Type
                         _______ _______ _______ _____ _____    ______ ____

>  <TORSDO>
F 6

$$$$
=
 OpenBabel11072412233D

 27 29  0  0  1  0  0  0  0  0999 V2000
  159.7080  206.2030  149.7610 C   0  0  0  0  0  1  0  0  0  0  0  0
  161.2300  206.1710  149.7950 C   0  0  2  0  0  3  0  0  0  0  0  0
  162.1980  204.7610  144.6520 N   0  0  0  0  0  1  0  0  0  0  0  0
  161.0390  202.9500  148.2410 C   0  0  0  0  0  0  0  0  0  0  0  0
  160.8210  202.3100  147.0200 C   0  0  0  0  0  3  0  0  0  0  0  0
  160.7040  202.4040  149.5090 N   0  0  0  0  0  0  0  0  0  0  0  0
  160.0350  203.9400  151.5650 O   0  0  0  0  0  0  0  0  0  0  0  0
  161.8670  204.7740  149.6490 C   0  0  1  0  0  3  0  0  0  0  0  0
  161.2050  203.5010  150.7310 S   0  0  0  0  0  0  0  0  0  0  0  0
  162.0450  204.8200  147.0880 C   0  0  0  0  0  3  0  0  0  0  0  0
  161.2060  202.9310  145.8700 N   0  0  0  0  0  0  0  0  0  0  0  0
  161.8070  204.1560  145.8770 C   0  0  0  0  0  0  0  0  0  0  0  0
  162.2870  202.9030  151.5850 O   0  0  0  0  0  0  0  0  0  0  0  0
  160.3480  201.0180  149.7610 C   0  0  0  0  0  1  0  0  0  0  0  0
  161.6430  204.2040  148.2750 C   0  0  0  0  0  0  0  0  0  0  0  0
  161.8290  207.0520  150.9000 C   0  0  2  0  0  3  0  0  0  0  0  0
  161.9030  206.2110  153.2110 C   0  0  0  0  0  2  0  0  0  0  0  0
  162.4120  206.1980  151.9810 C   0  0  0  0  0  3  0  0  0  0  0  0
  160.8310  208.0430  151.4850 C   0  0  0  0  0  2  0  0  0  0  0  0
  161.4700  209.2650  151.7600 O   0  0  0  0  0  0  0  0  0  0  0  0
  161.9570  210.1410  154.0530 C   0  0  0  0  0  2  0  0  0  0  0  0
  161.0670  211.0790  155.3290 S   0  0  0  0  0  0  0  0  0  0  0  0
  160.9440  209.8160  152.9530 C   0  0  1  0  0  3  0  0  0  0  0  0
  159.9830  211.7090  154.0550 C   0  0  0  0  0  0  0  0  0  0  0  0
  159.9620  210.9730  152.7620 C   0  0  1  0  0  3  0  0  0  0  0  0
  160.3730  211.8290  151.7380 O   0  0  0  0  0  1  0  0  0  0  0  0
  159.3300  212.7260  154.2240 O   0  0  0  0  0  0  0  0  0  0  0  0
  2  1  1  1  0  0  0
  2 16  1  0  0  0  0
  3 12  1  0  0  0  0
  4 15  1  0  0  0  0
  4  6  1  0  0  0  0
  5  4  2  0  0  0  0
  6 14  1  0  0  0  0
  6  9  1  0  0  0  0
  8  2  1  6  0  0  0
  8  9  1  0  0  0  0
  9  7  2  0  0  0  0
  9 13  2  0  0  0  0
 10 15  2  0  0  0  0
 11 12  2  0  0  0  0
 11  5  1  0  0  0  0
 12 10  1  0  0  0  0
 15  8  1  0  0  0  0
 16 19  1  1  0  0  0
 16 18  1  0  0  0  0
 18 17  2  0  0  0  0
 19 20  1  0  0  0  0
 21 22  1  0  0  0  0
 23 20  1  6  0  0  0
 23 21  1  0  0  0  0
 24 27  2  0  0  0  0
 24 22  1  0  0  0  0
 25 26  1  6  0  0  0
 25 23  1  0  0  0  0
 25 24  1  0  0  0  0
M  END
>  <MODEL>
9

>  <REMARK>
 VINA RESULT:      -6.2      2.819      4.049
  Name = 
  6 active torsions:
  status: ('A' for Active; 'I' for Inactive)
    1  A    between atoms: C_6  and  O_25
    2  A    between atoms: C_7  and  C_12
    3  A    between atoms: C_11  and  C_12
    4  A    between atoms: C_11  and  C_15
    5  A    between atoms: C_12  and  C_14
    6  A    between atoms: C_14  and  O_25
                            x       y       z     vdW  Elec       q    Type
                         _______ _______ _______ _____ _____    ______ ____

>  <TORSDO>
F 6

$$$$
