=
 OpenBabel11072411043D

 30 33  0  0  1  0  0  0  0  0999 V2000
  161.2030  203.9590  151.7730 C   0  0  0  0  0  2  0  0  0  0  0  0
  161.5060  205.9650  153.1430 C   0  0  0  0  0  2  0  0  0  0  0  0
  162.0530  207.3510  152.9310 C   0  0  0  0  0  3  0  0  0  0  0  0
  160.5810  207.5580  150.9680 C   0  0  0  0  0  2  0  0  0  0  0  0
  160.8780  206.0960  150.6000 C   0  0  2  0  0  3  0  0  0  0  0  0
  161.6200  208.1030  151.9100 C   0  0  0  0  0  0  0  0  0  0  0  0
  161.2610  205.2870  151.8210 C   0  0  0  0  0  0  0  0  0  0  0  0
  161.9090  206.0460  149.6570 O   0  0  0  0  0  0  0  0  0  0  0  0
  160.7610  204.9340  147.8640 C   0  0  2  0  0  3  0  0  0  0  0  0
  161.2830  206.2510  148.4240 C   0  0  2  0  0  3  0  0  0  0  0  0
  162.3160  206.3180  147.3220 C   0  0  0  0  0  2  0  0  0  0  0  0
  161.7920  203.8300  147.7920 C   0  0  0  0  0  2  0  0  0  0  0  0
  161.8590  204.9710  146.8020 C   0  0  1  0  0  0  0  0  0  0  0  0
  160.7000  205.8980  144.9370 O   0  0  0  0  0  0  0  0  0  0  0  0
  161.1970  204.8670  145.4650 C   0  0  0  0  0  0  0  0  0  0  0  0
  161.1260  203.6300  144.8180 O   0  0  0  0  0  0  0  0  0  0  0  0
  159.9080  202.9070  144.7160 C   0  0  0  0  0  2  0  0  0  0  0  0
  160.1210  201.4900  145.2070 C   0  0  0  0  0  1  0  0  0  0  0  0
  162.1750  209.4680  151.7000 C   0  0  0  0  0  2  0  0  0  0  0  0
  162.2010  210.1660  152.9370 O   0  0  0  0  0  0  0  0  0  0  0  0
  161.1050  210.9000  153.3920 C   0  0  0  0  0  0  0  0  0  0  0  0
  160.2790  211.3980  152.5800 O   0  0  0  0  0  0  0  0  0  0  0  0
  160.9120  211.1160  154.8570 C   0  0  2  0  0  3  0  0  0  0  0  0
  159.9740  208.9540  155.5340 N   0  0  0  0  0  0  0  0  0  0  0  0
  160.9380  209.8090  155.5850 C   0  0  0  0  0  0  0  0  0  0  0  0
  162.0580  209.3730  156.3360 N   0  0  0  0  0  0  0  0  0  0  0  0
  160.3870  207.8030  156.3200 C   0  0  0  0  0  2  0  0  0  0  0  0
  161.7520  208.1980  156.7760 C   0  0  0  0  0  3  0  0  0  0  0  0
  159.9530  212.5890  156.2050 C   0  0  0  0  0  1  0  0  0  0  0  0
  159.7070  211.7830  155.0920 O   0  0  0  0  0  0  0  0  0  0  0  0
  1  7  2  0  0  0  0
  3  2  1  0  0  0  0
  4  6  1  0  0  0  0
  5  8  1  6  0  0  0
  5  4  1  0  0  0  0
  5  7  1  0  0  0  0
  6  3  2  0  0  0  0
  7  2  1  0  0  0  0
  9 12  1  1  0  0  0
  9 10  1  0  0  0  0
 10  8  1  1  0  0  0
 11 10  1  0  0  0  0
 13 15  1  6  0  0  0
 13 11  1  0  0  0  0
 13 12  1  0  0  0  0
 13  9  1  0  0  0  0
 14 15  2  0  0  0  0
 16 15  1  0  0  0  0
 17 16  1  0  0  0  0
 17 18  1  0  0  0  0
 19  6  1  0  0  0  0
 19 20  1  0  0  0  0
 20 21  1  0  0  0  0
 22 21  2  0  0  0  0
 23 21  1  6  0  0  0
 23 30  1  0  0  0  0
 23 25  1  0  0  0  0
 24 25  2  0  0  0  0
 24 27  1  0  0  0  0
 25 26  1  0  0  0  0
 26 28  2  0  0  0  0
 27 28  1  0  0  0  0
 30 29  1  0  0  0  0
M  END
>  <MODEL>
1

>  <REMARK>
 VINA RESULT:      -6.8      0.000      0.000
  Name = 
  11 active torsions:
  status: ('A' for Active; 'I' for Inactive)
    1  A    between atoms: C_3  and  C_27
    2  A    between atoms: O_4  and  C_8
    3  A    between atoms: O_4  and  C_17
    4  A    between atoms: C_6  and  C_18
    5  A    between atoms: C_6  and  O_22
    6  A    between atoms: O_15  and  C_27
    7  A    between atoms: C_19  and  O_22
    8  A    between atoms: C_19  and  C_27
    9  A    between atoms: O_20  and  C_23
   10  A    between atoms: O_20  and  C_25
   11  A    between atoms: C_23  and  C_29
                            x       y       z     vdW  Elec       q    Type
                         _______ _______ _______ _____ _____    ______ ____

>  <TORSDO>
F 11

$$$$
=
 OpenBabel11072411043D

 30 33  0  0  1  0  0  0  0  0999 V2000
  161.0540  206.3960  153.7990 C   0  0  0  0  0  2  0  0  0  0  0  0
  161.2050  205.1520  151.6960 C   0  0  0  0  0  2  0  0  0  0  0  0
  160.9560  205.4470  150.2400 C   0  0  0  0  0  3  0  0  0  0  0  0
  162.4000  207.4290  150.4660 C   0  0  0  0  0  2  0  0  0  0  0  0
  161.7950  207.7030  151.8520 C   0  0  2  0  0  3  0  0  0  0  0  0
  161.5170  206.5160  149.6590 C   0  0  0  0  0  0  0  0  0  0  0  0
  161.2760  206.4310  152.4880 C   0  0  0  0  0  0  0  0  0  0  0  0
  160.7590  208.6330  151.7410 O   0  0  0  0  0  0  0  0  0  0  0  0
  159.6010  210.2880  153.0410 C   0  0  2  0  0  3  0  0  0  0  0  0
  160.5310  209.0820  153.0460 C   0  0  2  0  0  3  0  0  0  0  0  0
  161.6760  209.9570  153.5010 C   0  0  0  0  0  2  0  0  0  0  0  0
  160.0370  211.4140  152.1300 C   0  0  0  0  0  2  0  0  0  0  0  0
  160.7820  211.1780  153.4250 C   0  0  1  0  0  0  0  0  0  0  0  0
  159.7280  212.9720  154.5850 O   0  0  0  0  0  0  0  0  0  0  0  0
  160.4070  211.9140  154.6710 C   0  0  0  0  0  0  0  0  0  0  0  0
  160.8180  211.4300  155.9160 O   0  0  0  0  0  0  0  0  0  0  0  0
  159.9600  210.6540  156.7390 C   0  0  0  0  0  2  0  0  0  0  0  0
  160.5850  209.2950  156.9780 C   0  0  0  0  0  1  0  0  0  0  0  0
  161.2550  206.8080  148.2230 C   0  0  0  0  0  2  0  0  0  0  0  0
  162.4020  206.4740  147.4540 O   0  0  0  0  0  0  0  0  0  0  0  0
  162.4760  205.2920  146.7150 C   0  0  0  0  0  0  0  0  0  0  0  0
  163.5920  204.8030  146.3900 O   0  0  0  0  0  0  0  0  0  0  0  0
  161.2220  204.6030  146.2880 C   0  0  2  0  0  3  0  0  0  0  0  0
  161.3040  202.9440  148.0920 N   0  0  0  0  0  0  0  0  0  0  0  0
  161.1780  203.2120  146.8360 C   0  0  0  0  0  0  0  0  0  0  0  0
  160.9240  202.0770  146.0260 N   0  0  0  0  0  0  0  0  0  0  0  0
  161.1570  201.5050  148.2340 C   0  0  0  0  0  2  0  0  0  0  0  0
  160.9090  201.0670  146.8290 C   0  0  0  0  0  3  0  0  0  0  0  0
  160.8090  205.8920  144.5350 C   0  0  0  0  0  1  0  0  0  0  0  0
  161.1350  204.5830  144.8930 O   0  0  0  0  0  0  0  0  0  0  0  0
  2  7  1  0  0  0  0
  3  2  1  0  0  0  0
  4  5  1  0  0  0  0
  5  8  1  6  0  0  0
  5  7  1  0  0  0  0
  6  3  2  0  0  0  0
  6  4  1  0  0  0  0
  7  1  2  0  0  0  0
  9 12  1  6  0  0  0
  9 10  1  0  0  0  0
  9 13  1  0  0  0  0
 10  8  1  6  0  0  0
 10 11  1  0  0  0  0
 12 13  1  0  0  0  0
 13 11  1  0  0  0  0
 13 15  1  1  0  0  0
 14 15  2  0  0  0  0
 15 16  1  0  0  0  0
 16 17  1  0  0  0  0
 17 18  1  0  0  0  0
 19  6  1  0  0  0  0
 20 19  1  0  0  0  0
 21 20  1  0  0  0  0
 22 21  2  0  0  0  0
 23 30  1  6  0  0  0
 23 21  1  0  0  0  0
 23 25  1  0  0  0  0
 24 27  1  0  0  0  0
 25 24  2  0  0  0  0
 26 28  2  0  0  0  0
 26 25  1  0  0  0  0
 28 27  1  0  0  0  0
 29 30  1  0  0  0  0
M  END
>  <MODEL>
2

>  <REMARK>
 VINA RESULT:      -6.6      3.142      9.210
  Name = 
  11 active torsions:
  status: ('A' for Active; 'I' for Inactive)
    1  A    between atoms: C_3  and  C_27
    2  A    between atoms: O_4  and  C_8
    3  A    between atoms: O_4  and  C_17
    4  A    between atoms: C_6  and  C_18
    5  A    between atoms: C_6  and  O_22
    6  A    between atoms: O_15  and  C_27
    7  A    between atoms: C_19  and  O_22
    8  A    between atoms: C_19  and  C_27
    9  A    between atoms: O_20  and  C_23
   10  A    between atoms: O_20  and  C_25
   11  A    between atoms: C_23  and  C_29
                            x       y       z     vdW  Elec       q    Type
                         _______ _______ _______ _____ _____    ______ ____

>  <TORSDO>
F 11

$$$$
=
 OpenBabel11072411043D

 30 33  0  0  1  0  0  0  0  0999 V2000
  161.2550  203.6820  151.4810 C   0  0  0  0  0  2  0  0  0  0  0  0
  161.4680  205.4690  153.1410 C   0  0  0  0  0  2  0  0  0  0  0  0
  161.9690  206.8890  153.1480 C   0  0  0  0  0  3  0  0  0  0  0  0
  160.5160  207.3390  151.2120 C   0  0  0  0  0  2  0  0  0  0  0  0
  160.8700  205.9590  150.6350 C   0  0  2  0  0  3  0  0  0  0  0  0
  161.5230  207.7710  152.2430 C   0  0  0  0  0  0  0  0  0  0  0  0
  161.2650  204.9890  151.7280 C   0  0  0  0  0  0  0  0  0  0  0  0
  161.9130  206.0850  149.7140 O   0  0  0  0  0  0  0  0  0  0  0  0
  160.7620  205.0050  147.9040 C   0  0  2  0  0  3  0  0  0  0  0  0
  161.2870  206.3120  148.4840 C   0  0  2  0  0  3  0  0  0  0  0  0
  162.3200  206.3940  147.3830 C   0  0  0  0  0  2  0  0  0  0  0  0
  161.7900  203.8990  147.8130 C   0  0  0  0  0  2  0  0  0  0  0  0
  161.8590  205.0560  146.8420 C   0  0  1  0  0  0  0  0  0  0  0  0
  160.6660  206.0070  145.0110 O   0  0  0  0  0  0  0  0  0  0  0  0
  161.1960  204.9750  145.5040 C   0  0  0  0  0  0  0  0  0  0  0  0
  161.1610  203.7580  144.8170 O   0  0  0  0  0  0  0  0  0  0  0  0
  159.9690  202.9950  144.7060 C   0  0  0  0  0  2  0  0  0  0  0  0
  160.2050  201.6080  145.2680 C   0  0  0  0  0  1  0  0  0  0  0  0
  162.0320  209.1700  152.2490 C   0  0  0  0  0  2  0  0  0  0  0  0
  161.0830  210.0180  152.8810 O   0  0  0  0  0  0  0  0  0  0  0  0
  161.0640  210.2010  154.2650 C   0  0  0  0  0  0  0  0  0  0  0  0
  162.0350  210.7450  154.8570 O   0  0  0  0  0  0  0  0  0  0  0  0
  159.8900  209.7330  155.0590 C   0  0  2  0  0  3  0  0  0  0  0  0
  158.6210  211.3850  156.3530 N   0  0  0  0  0  0  0  0  0  0  0  0
  158.8930  210.8380  155.2170 C   0  0  0  0  0  0  0  0  0  0  0  0
  158.2160  211.4220  154.1170 N   0  0  0  0  0  0  0  0  0  0  0  0
  157.6540  212.4400  156.0940 C   0  0  0  0  0  2  0  0  0  0  0  0
  157.4840  212.3630  154.6130 C   0  0  0  0  0  3  0  0  0  0  0  0
  160.1600  207.8820  156.2450 C   0  0  0  0  0  1  0  0  0  0  0  0
  160.3080  209.2690  156.3090 O   0  0  0  0  0  0  0  0  0  0  0  0
  1  7  2  0  0  0  0
  2  3  1  0  0  0  0
  4  6  1  0  0  0  0
  5  8  1  6  0  0  0
  5  4  1  0  0  0  0
  5  7  1  0  0  0  0
  6 19  1  0  0  0  0
  6  3  2  0  0  0  0
  7  2  1  0  0  0  0
  9 12  1  1  0  0  0
  9 10  1  0  0  0  0
 10  8  1  1  0  0  0
 11 10  1  0  0  0  0
 13 15  1  6  0  0  0
 13 11  1  0  0  0  0
 13 12  1  0  0  0  0
 13  9  1  0  0  0  0
 14 15  2  0  0  0  0
 16 15  1  0  0  0  0
 17 16  1  0  0  0  0
 17 18  1  0  0  0  0
 19 20  1  0  0  0  0
 20 21  1  0  0  0  0
 21 22  2  0  0  0  0
 23 21  1  1  0  0  0
 23 25  1  0  0  0  0
 23 30  1  0  0  0  0
 25 24  2  0  0  0  0
 26 28  2  0  0  0  0
 26 25  1  0  0  0  0
 27 24  1  0  0  0  0
 28 27  1  0  0  0  0
 29 30  1  0  0  0  0
M  END
>  <MODEL>
3

>  <REMARK>
 VINA RESULT:      -6.5      1.363      2.260
  Name = 
  11 active torsions:
  status: ('A' for Active; 'I' for Inactive)
    1  A    between atoms: C_3  and  C_27
    2  A    between atoms: O_4  and  C_8
    3  A    between atoms: O_4  and  C_17
    4  A    between atoms: C_6  and  C_18
    5  A    between atoms: C_6  and  O_22
    6  A    between atoms: O_15  and  C_27
    7  A    between atoms: C_19  and  O_22
    8  A    between atoms: C_19  and  C_27
    9  A    between atoms: O_20  and  C_23
   10  A    between atoms: O_20  and  C_25
   11  A    between atoms: C_23  and  C_29
                            x       y       z     vdW  Elec       q    Type
                         _______ _______ _______ _____ _____    ______ ____

>  <TORSDO>
F 11

$$$$
=
 OpenBabel11072411043D

 30 33  0  0  1  0  0  0  0  0999 V2000
  160.9920  203.3600  152.0400 C   0  0  0  0  0  2  0  0  0  0  0  0
  161.1800  205.5650  153.0860 C   0  0  0  0  0  2  0  0  0  0  0  0
  161.7710  206.8980  152.7090 C   0  0  0  0  0  3  0  0  0  0  0  0
  160.5190  206.7750  150.5920 C   0  0  0  0  0  2  0  0  0  0  0  0
  160.8300  205.2730  150.5040 C   0  0  2  0  0  3  0  0  0  0  0  0
  161.4610  207.4700  151.5380 C   0  0  0  0  0  0  0  0  0  0  0  0
  161.0670  204.6770  151.8750 C   0  0  0  0  0  0  0  0  0  0  0  0
  161.9540  205.0690  149.6980 O   0  0  0  0  0  0  0  0  0  0  0  0
  160.6830  203.8080  148.0970 C   0  0  2  0  0  3  0  0  0  0  0  0
  161.4690  205.0800  148.3870 C   0  0  2  0  0  3  0  0  0  0  0  0
  162.5510  204.6390  147.4280 C   0  0  0  0  0  2  0  0  0  0  0  0
  161.4250  202.5270  148.4080 C   0  0  0  0  0  2  0  0  0  0  0  0
  161.8190  203.3340  147.1920 C   0  0  1  0  0  0  0  0  0  0  0  0
  160.6660  201.9260  145.6540 O   0  0  0  0  0  0  0  0  0  0  0  0
  161.2310  203.0350  145.8500 C   0  0  0  0  0  0  0  0  0  0  0  0
  161.3210  203.9790  144.8240 O   0  0  0  0  0  0  0  0  0  0  0  0
  160.2170  204.7910  144.4540 C   0  0  0  0  0  2  0  0  0  0  0  0
  160.3400  206.1450  145.1200 C   0  0  0  0  0  1  0  0  0  0  0  0
  162.0590  208.7820  151.1670 C   0  0  0  0  0  2  0  0  0  0  0  0
  162.3360  209.5270  152.3430 O   0  0  0  0  0  0  0  0  0  0  0  0
  161.3610  210.3050  152.9710 C   0  0  0  0  0  0  0  0  0  0  0  0
  160.5830  211.0310  152.2960 O   0  0  0  0  0  0  0  0  0  0  0  0
  161.2470  210.2930  154.4600 C   0  0  2  0  0  3  0  0  0  0  0  0
  160.1080  212.3870  155.0380 N   0  0  0  0  0  0  0  0  0  0  0  0
  160.0690  211.1050  154.8990 C   0  0  0  0  0  0  0  0  0  0  0  0
  158.7920  210.5370  155.1320 N   0  0  0  0  0  0  0  0  0  0  0  0
  158.7730  212.8120  155.4250 C   0  0  0  0  0  2  0  0  0  0  0  0
  158.0190  211.5230  155.4430 C   0  0  0  0  0  3  0  0  0  0  0  0
  162.5240  210.1190  156.2610 C   0  0  0  0  0  1  0  0  0  0  0  0
  162.4210  210.7830  155.0370 O   0  0  0  0  0  0  0  0  0  0  0  0
  3  2  1  0  0  0  0
  4  6  1  0  0  0  0
  5  8  1  6  0  0  0
  5  4  1  0  0  0  0
  5  7  1  0  0  0  0
  6  3  2  0  0  0  0
  7  1  2  0  0  0  0
  7  2  1  0  0  0  0
  9 10  1  0  0  0  0
  9 12  1  1  0  0  0
 10  8  1  1  0  0  0
 11 10  1  0  0  0  0
 13 15  1  6  0  0  0
 13 11  1  0  0  0  0
 13  9  1  0  0  0  0
 13 12  1  0  0  0  0
 14 15  2  0  0  0  0
 16 15  1  0  0  0  0
 17 16  1  0  0  0  0
 17 18  1  0  0  0  0
 19  6  1  0  0  0  0
 19 20  1  0  0  0  0
 20 21  1  0  0  0  0
 22 21  2  0  0  0  0
 23 21  1  6  0  0  0
 23 25  1  0  0  0  0
 23 30  1  0  0  0  0
 24 27  1  0  0  0  0
 25 24  2  0  0  0  0
 25 26  1  0  0  0  0
 26 28  2  0  0  0  0
 27 28  1  0  0  0  0
 30 29  1  0  0  0  0
M  END
>  <MODEL>
4

>  <REMARK>
 VINA RESULT:      -6.3      1.544      2.371
  Name = 
  11 active torsions:
  status: ('A' for Active; 'I' for Inactive)
    1  A    between atoms: C_3  and  C_27
    2  A    between atoms: O_4  and  C_8
    3  A    between atoms: O_4  and  C_17
    4  A    between atoms: C_6  and  C_18
    5  A    between atoms: C_6  and  O_22
    6  A    between atoms: O_15  and  C_27
    7  A    between atoms: C_19  and  O_22
    8  A    between atoms: C_19  and  C_27
    9  A    between atoms: O_20  and  C_23
   10  A    between atoms: O_20  and  C_25
   11  A    between atoms: C_23  and  C_29
                            x       y       z     vdW  Elec       q    Type
                         _______ _______ _______ _____ _____    ______ ____

>  <TORSDO>
F 11

$$$$
=
 OpenBabel11072411043D

 30 33  0  0  1  0  0  0  0  0999 V2000
  160.7000  207.6180  155.1030 C   0  0  0  0  0  2  0  0  0  0  0  0
  161.4780  206.3250  153.1760 C   0  0  0  0  0  2  0  0  0  0  0  0
  161.3170  206.4010  151.6810 C   0  0  0  0  0  3  0  0  0  0  0  0
  162.0190  208.7590  151.7950 C   0  0  0  0  0  2  0  0  0  0  0  0
  161.2050  208.9320  153.0860 C   0  0  2  0  0  3  0  0  0  0  0  0
  161.5710  207.5440  151.0280 C   0  0  0  0  0  0  0  0  0  0  0  0
  161.0470  207.6170  153.8190 C   0  0  0  0  0  0  0  0  0  0  0  0
  159.9460  209.4580  152.7840 O   0  0  0  0  0  0  0  0  0  0  0  0
  159.8990  211.2510  154.3830 C   0  0  2  0  0  3  0  0  0  0  0  0
  160.0870  210.8430  152.9270 C   0  0  2  0  0  3  0  0  0  0  0  0
  158.7970  211.5380  152.5570 C   0  0  0  0  0  2  0  0  0  0  0  0
  158.6180  210.7500  155.0140 C   0  0  0  0  0  2  0  0  0  0  0  0
  158.5570  211.8810  154.0130 C   0  0  1  0  0  0  0  0  0  0  0  0
  158.9320  214.2060  153.6490 O   0  0  0  0  0  0  0  0  0  0  0  0
  158.5900  213.3070  154.4630 C   0  0  0  0  0  0  0  0  0  0  0  0
  158.2510  213.6290  155.7800 O   0  0  0  0  0  0  0  0  0  0  0  0
  156.9700  214.1390  156.1210 C   0  0  0  0  0  2  0  0  0  0  0  0
  156.1230  213.0250  156.6990 C   0  0  0  0  0  1  0  0  0  0  0  0
  161.3970  207.6150  149.5510 C   0  0  0  0  0  2  0  0  0  0  0  0
  161.7870  206.3800  148.9670 O   0  0  0  0  0  0  0  0  0  0  0  0
  161.0770  205.8080  147.9100 C   0  0  0  0  0  0  0  0  0  0  0  0
  160.0470  206.3680  147.4470 O   0  0  0  0  0  0  0  0  0  0  0  0
  161.5290  204.5090  147.3300 C   0  0  2  0  0  3  0  0  0  0  0  0
  160.9650  203.5540  149.5170 N   0  0  0  0  0  0  0  0  0  0  0  0
  161.2140  203.3820  148.2630 C   0  0  0  0  0  0  0  0  0  0  0  0
  161.0960  202.0380  147.8290 N   0  0  0  0  0  0  0  0  0  0  0  0
  160.6610  202.2450  150.0710 C   0  0  0  0  0  2  0  0  0  0  0  0
  160.7730  201.3570  148.8770 C   0  0  0  0  0  3  0  0  0  0  0  0
  162.9870  204.8420  145.6960 C   0  0  0  0  0  1  0  0  0  0  0  0
  162.8990  204.5520  147.0590 O   0  0  0  0  0  0  0  0  0  0  0  0
  2  7  1  0  0  0  0
  3  2  1  0  0  0  0
  4  5  1  0  0  0  0
  5  8  1  6  0  0  0
  5  7  1  0  0  0  0
  6  3  2  0  0  0  0
  6  4  1  0  0  0  0
  7  1  2  0  0  0  0
  9 12  1  1  0  0  0
 10  8  1  1  0  0  0
 10  9  1  0  0  0  0
 11 10  1  0  0  0  0
 11 13  1  0  0  0  0
 13  9  1  0  0  0  0
 13 15  1  1  0  0  0
 13 12  1  0  0  0  0
 14 15  2  0  0  0  0
 15 16  1  0  0  0  0
 16 17  1  0  0  0  0
 17 18  1  0  0  0  0
 19  6  1  0  0  0  0
 20 19  1  0  0  0  0
 21 20  1  0  0  0  0
 22 21  2  0  0  0  0
 23 30  1  1  0  0  0
 23 21  1  0  0  0  0
 23 25  1  0  0  0  0
 24 27  1  0  0  0  0
 25 24  2  0  0  0  0
 26 25  1  0  0  0  0
 26 28  2  0  0  0  0
 28 27  1  0  0  0  0
 29 30  1  0  0  0  0
M  END
>  <MODEL>
5

>  <REMARK>
 VINA RESULT:      -6.3      3.125      9.309
  Name = 
  11 active torsions:
  status: ('A' for Active; 'I' for Inactive)
    1  A    between atoms: C_3  and  C_27
    2  A    between atoms: O_4  and  C_8
    3  A    between atoms: O_4  and  C_17
    4  A    between atoms: C_6  and  C_18
    5  A    between atoms: C_6  and  O_22
    6  A    between atoms: O_15  and  C_27
    7  A    between atoms: C_19  and  O_22
    8  A    between atoms: C_19  and  C_27
    9  A    between atoms: O_20  and  C_23
   10  A    between atoms: O_20  and  C_25
   11  A    between atoms: C_23  and  C_29
                            x       y       z     vdW  Elec       q    Type
                         _______ _______ _______ _____ _____    ______ ____

>  <TORSDO>
F 11

$$$$
=
 OpenBabel11072411043D

 30 33  0  0  1  0  0  0  0  0999 V2000
  161.9750  210.0710  148.6390 C   0  0  0  0  0  2  0  0  0  0  0  0
  162.0250  210.2110  151.0820 C   0  0  0  0  0  2  0  0  0  0  0  0
  161.4690  209.4060  152.2270 C   0  0  0  0  0  3  0  0  0  0  0  0
  162.4670  207.3980  151.2080 C   0  0  0  0  0  2  0  0  0  0  0  0
  162.0670  207.9140  149.8170 C   0  0  2  0  0  3  0  0  0  0  0  0
  161.6760  208.0840  152.2890 C   0  0  0  0  0  0  0  0  0  0  0  0
  161.9540  209.4230  149.8000 C   0  0  0  0  0  0  0  0  0  0  0  0
  160.8500  207.3440  149.4320 O   0  0  0  0  0  0  0  0  0  0  0  0
  160.5170  205.4960  147.9340 C   0  0  2  0  0  3  0  0  0  0  0  0
  161.0510  206.9110  148.1180 C   0  0  2  0  0  3  0  0  0  0  0  0
  162.4660  206.4070  147.9480 C   0  0  0  0  0  2  0  0  0  0  0  0
  161.0370  204.4930  148.9400 C   0  0  0  0  0  2  0  0  0  0  0  0
  161.9540  204.9850  147.8430 C   0  0  1  0  0  0  0  0  0  0  0  0
  162.8290  204.6850  145.6470 O   0  0  0  0  0  0  0  0  0  0  0  0
  162.0840  204.2330  146.5570 C   0  0  0  0  0  0  0  0  0  0  0  0
  161.3740  203.0440  146.3710 O   0  0  0  0  0  0  0  0  0  0  0  0
  160.5860  202.8150  145.2130 C   0  0  0  0  0  2  0  0  0  0  0  0
  160.0690  201.3910  145.2270 C   0  0  0  0  0  1  0  0  0  0  0  0
  161.1130  207.2930  153.4180 C   0  0  0  0  0  2  0  0  0  0  0  0
  160.3620  208.1470  154.2690 O   0  0  0  0  0  0  0  0  0  0  0  0
  160.6920  208.3240  155.6130 C   0  0  0  0  0  0  0  0  0  0  0  0
  160.6780  207.3520  156.4150 O   0  0  0  0  0  0  0  0  0  0  0  0
  161.0510  209.6840  156.1160 C   0  0  2  0  0  3  0  0  0  0  0  0
  160.4090  211.5860  154.7090 N   0  0  0  0  0  0  0  0  0  0  0  0
  160.0890  210.7050  155.5940 C   0  0  0  0  0  0  0  0  0  0  0  0
  158.7260  210.7400  155.9800 N   0  0  0  0  0  0  0  0  0  0  0  0
  159.2070  212.3550  154.4250 C   0  0  0  0  0  2  0  0  0  0  0  0
  158.1940  211.7030  155.3060 C   0  0  0  0  0  3  0  0  0  0  0  0
  163.0300  210.2340  156.9440 C   0  0  0  0  0  1  0  0  0  0  0  0
  162.3580  210.0070  155.7420 O   0  0  0  0  0  0  0  0  0  0  0  0
  1  7  2  0  0  0  0
  2  3  1  0  0  0  0
  3  6  2  0  0  0  0
  4  6  1  0  0  0  0
  5  8  1  1  0  0  0
  5  4  1  0  0  0  0
  6 19  1  0  0  0  0
  7  5  1  0  0  0  0
  7  2  1  0  0  0  0
  9 10  1  0  0  0  0
  9 12  1  1  0  0  0
 10  8  1  1  0  0  0
 11 10  1  0  0  0  0
 13 15  1  6  0  0  0
 13  9  1  0  0  0  0
 13 11  1  0  0  0  0
 13 12  1  0  0  0  0
 14 15  2  0  0  0  0
 16 15  1  0  0  0  0
 17 18  1  0  0  0  0
 17 16  1  0  0  0  0
 19 20  1  0  0  0  0
 20 21  1  0  0  0  0
 21 22  2  0  0  0  0
 23 21  1  6  0  0  0
 24 25  2  0  0  0  0
 25 26  1  0  0  0  0
 25 23  1  0  0  0  0
 27 24  1  0  0  0  0
 27 28  1  0  0  0  0
 28 26  2  0  0  0  0
 30 23  1  0  0  0  0
 30 29  1  0  0  0  0
M  END
>  <MODEL>
6

>  <REMARK>
 VINA RESULT:      -6.1      1.885      3.122
  Name = 
  11 active torsions:
  status: ('A' for Active; 'I' for Inactive)
    1  A    between atoms: C_3  and  C_27
    2  A    between atoms: O_4  and  C_8
    3  A    between atoms: O_4  and  C_17
    4  A    between atoms: C_6  and  C_18
    5  A    between atoms: C_6  and  O_22
    6  A    between atoms: O_15  and  C_27
    7  A    between atoms: C_19  and  O_22
    8  A    between atoms: C_19  and  C_27
    9  A    between atoms: O_20  and  C_23
   10  A    between atoms: O_20  and  C_25
   11  A    between atoms: C_23  and  C_29
                            x       y       z     vdW  Elec       q    Type
                         _______ _______ _______ _____ _____    ______ ____

>  <TORSDO>
F 11

$$$$
=
 OpenBabel11072411043D

 30 33  0  0  1  0  0  0  0  0999 V2000
  161.5460  207.4790  148.6840 C   0  0  0  0  0  2  0  0  0  0  0  0
  161.4930  208.5390  150.8900 C   0  0  0  0  0  2  0  0  0  0  0  0
  160.9920  208.1690  152.2610 C   0  0  0  0  0  3  0  0  0  0  0  0
  162.2460  206.0580  152.0720 C   0  0  0  0  0  2  0  0  0  0  0  0
  161.8410  205.9570  150.5930 C   0  0  2  0  0  3  0  0  0  0  0  0
  161.3450  207.0030  152.8190 C   0  0  0  0  0  0  0  0  0  0  0  0
  161.5570  207.3230  150.0050 C   0  0  0  0  0  0  0  0  0  0  0  0
  160.7110  205.1440  150.4670 O   0  0  0  0  0  0  0  0  0  0  0  0
  161.7740  203.7610  148.8160 C   0  0  2  0  0  3  0  0  0  0  0  0
  161.2120  203.8600  150.2280 C   0  0  2  0  0  3  0  0  0  0  0  0
  160.0860  202.9240  149.8540 C   0  0  0  0  0  2  0  0  0  0  0  0
  160.8200  204.2010  147.7280 C   0  0  0  0  0  2  0  0  0  0  0  0
  160.5890  202.8800  148.4260 C   0  0  1  0  0  0  0  0  0  0  0  0
  161.5300  200.7010  148.6450 O   0  0  0  0  0  0  0  0  0  0  0  0
  161.1380  201.6080  147.8620 C   0  0  0  0  0  0  0  0  0  0  0  0
  161.2220  201.4390  146.4770 O   0  0  0  0  0  0  0  0  0  0  0  0
  160.1230  200.9690  145.7120 C   0  0  0  0  0  2  0  0  0  0  0  0
  159.7240  202.0230  144.7020 C   0  0  0  0  0  1  0  0  0  0  0  0
  160.8350  206.6380  154.1700 C   0  0  0  0  0  2  0  0  0  0  0  0
  161.4560  207.4570  155.1500 O   0  0  0  0  0  0  0  0  0  0  0  0
  160.7140  208.1710  156.0920 C   0  0  0  0  0  0  0  0  0  0  0  0
  159.7880  207.6140  156.7410 O   0  0  0  0  0  0  0  0  0  0  0  0
  161.0050  209.6170  156.3260 C   0  0  2  0  0  3  0  0  0  0  0  0
  158.8240  210.4570  155.5830 N   0  0  0  0  0  0  0  0  0  0  0  0
  160.1100  210.4720  155.4840 C   0  0  0  0  0  0  0  0  0  0  0  0
  160.6090  211.4210  154.5570 N   0  0  0  0  0  0  0  0  0  0  0  0
  158.3170  211.4490  154.6470 C   0  0  0  0  0  2  0  0  0  0  0  0
  159.5710  212.0020  154.0560 C   0  0  0  0  0  3  0  0  0  0  0  0
  162.8860  210.3190  157.2610 C   0  0  0  0  0  1  0  0  0  0  0  0
  162.3470  209.8900  156.0470 O   0  0  0  0  0  0  0  0  0  0  0  0
  1  7  2  0  0  0  0
  2  3  1  0  0  0  0
  3  6  2  0  0  0  0
  4  6  1  0  0  0  0
  5  8  1  1  0  0  0
  5  4  1  0  0  0  0
  6 19  1  0  0  0  0
  7  5  1  0  0  0  0
  7  2  1  0  0  0  0
  9 12  1  6  0  0  0
  9 10  1  0  0  0  0
 10  8  1  6  0  0  0
 11 10  1  0  0  0  0
 12 13  1  0  0  0  0
 13 15  1  6  0  0  0
 13  9  1  0  0  0  0
 13 11  1  0  0  0  0
 15 14  2  0  0  0  0
 16 15  1  0  0  0  0
 17 16  1  0  0  0  0
 18 17  1  0  0  0  0
 19 20  1  0  0  0  0
 20 21  1  0  0  0  0
 21 23  1  0  0  0  0
 21 22  2  0  0  0  0
 23 30  1  6  0  0  0
 25 24  2  0  0  0  0
 25 23  1  0  0  0  0
 26 25  1  0  0  0  0
 27 24  1  0  0  0  0
 28 26  2  0  0  0  0
 28 27  1  0  0  0  0
 30 29  1  0  0  0  0
M  END
>  <MODEL>
7

>  <REMARK>
 VINA RESULT:      -6.0      2.122      3.361
  Name = 
  11 active torsions:
  status: ('A' for Active; 'I' for Inactive)
    1  A    between atoms: C_3  and  C_27
    2  A    between atoms: O_4  and  C_8
    3  A    between atoms: O_4  and  C_17
    4  A    between atoms: C_6  and  C_18
    5  A    between atoms: C_6  and  O_22
    6  A    between atoms: O_15  and  C_27
    7  A    between atoms: C_19  and  O_22
    8  A    between atoms: C_19  and  C_27
    9  A    between atoms: O_20  and  C_23
   10  A    between atoms: O_20  and  C_25
   11  A    between atoms: C_23  and  C_29
                            x       y       z     vdW  Elec       q    Type
                         _______ _______ _______ _____ _____    ______ ____

>  <TORSDO>
F 11

$$$$
=
 OpenBabel11072411043D

 30 33  0  0  1  0  0  0  0  0999 V2000
  162.3010  209.3860  149.2620 C   0  0  0  0  0  2  0  0  0  0  0  0
  162.1410  207.3570  147.9010 C   0  0  0  0  0  2  0  0  0  0  0  0
  162.1020  205.8750  148.1630 C   0  0  0  0  0  3  0  0  0  0  0  0
  160.2850  206.2780  149.7760 C   0  0  0  0  0  2  0  0  0  0  0  0
  161.0030  207.5490  150.2560 C   0  0  2  0  0  3  0  0  0  0  0  0
  161.2300  205.3640  149.0430 C   0  0  0  0  0  0  0  0  0  0  0  0
  161.8900  208.1240  149.1730 C   0  0  0  0  0  0  0  0  0  0  0  0
  161.7680  207.2600  151.3900 O   0  0  0  0  0  0  0  0  0  0  0  0
  160.4390  208.4800  152.9760 C   0  0  2  0  0  3  0  0  0  0  0  0
  160.8410  207.1170  152.4270 C   0  0  2  0  0  3  0  0  0  0  0  0
  161.5540  206.7980  153.7210 C   0  0  0  0  0  2  0  0  0  0  0  0
  161.6010  209.3610  153.3800 C   0  0  0  0  0  2  0  0  0  0  0  0
  161.2290  208.1800  154.2480 C   0  0  1  0  0  0  0  0  0  0  0  0
  159.9810  207.3340  156.0930 O   0  0  0  0  0  0  0  0  0  0  0  0
  160.2970  208.3420  155.4070 C   0  0  0  0  0  0  0  0  0  0  0  0
  159.7790  209.6030  155.7120 O   0  0  0  0  0  0  0  0  0  0  0  0
  159.9650  210.2010  156.9870 C   0  0  0  0  0  2  0  0  0  0  0  0
  161.4270  210.5510  157.1710 C   0  0  0  0  0  1  0  0  0  0  0  0
  161.2070  203.8990  149.3050 C   0  0  0  0  0  2  0  0  0  0  0  0
  160.5080  203.2400  148.2600 O   0  0  0  0  0  0  0  0  0  0  0  0
  161.0480  202.1420  147.5890 C   0  0  0  0  0  0  0  0  0  0  0  0
  161.5420  201.1740  148.2280 O   0  0  0  0  0  0  0  0  0  0  0  0
  161.0580  202.1150  146.0960 C   0  0  2  0  0  3  0  0  0  0  0  0
  162.6000  203.9530  145.5910 N   0  0  0  0  0  0  0  0  0  0  0  0
  161.4070  203.4640  145.5520 C   0  0  0  0  0  0  0  0  0  0  0  0
  160.4670  204.2880  144.8840 N   0  0  0  0  0  0  0  0  0  0  0  0
  162.5500  205.2460  144.9270 C   0  0  0  0  0  2  0  0  0  0  0  0
  161.1190  205.3380  144.5120 C   0  0  0  0  0  3  0  0  0  0  0  0
  160.0810  200.5400  144.8820 C   0  0  0  0  0  1  0  0  0  0  0  0
  159.8140  201.6990  145.6130 O   0  0  0  0  0  0  0  0  0  0  0  0
  2  3  1  0  0  0  0
  2  7  1  0  0  0  0
  3  6  2  0  0  0  0
  4  5  1  0  0  0  0
  5  8  1  1  0  0  0
  6 19  1  0  0  0  0
  6  4  1  0  0  0  0
  7  1  2  0  0  0  0
  7  5  1  0  0  0  0
  9 12  1  6  0  0  0
  9 13  1  0  0  0  0
 10  8  1  6  0  0  0
 10  9  1  0  0  0  0
 10 11  1  0  0  0  0
 11 13  1  0  0  0  0
 12 13  1  0  0  0  0
 13 15  1  1  0  0  0
 15 16  1  0  0  0  0
 15 14  2  0  0  0  0
 16 17  1  0  0  0  0
 17 18  1  0  0  0  0
 20 19  1  0  0  0  0
 21 22  2  0  0  0  0
 21 20  1  0  0  0  0
 23 30  1  6  0  0  0
 23 21  1  0  0  0  0
 25 24  2  0  0  0  0
 25 23  1  0  0  0  0
 26 25  1  0  0  0  0
 27 24  1  0  0  0  0
 28 26  2  0  0  0  0
 28 27  1  0  0  0  0
 29 30  1  0  0  0  0
M  END
>  <MODEL>
8

>  <REMARK>
 VINA RESULT:      -6.0      3.605      9.805
  Name = 
  11 active torsions:
  status: ('A' for Active; 'I' for Inactive)
    1  A    between atoms: C_3  and  C_27
    2  A    between atoms: O_4  and  C_8
    3  A    between atoms: O_4  and  C_17
    4  A    between atoms: C_6  and  C_18
    5  A    between atoms: C_6  and  O_22
    6  A    between atoms: O_15  and  C_27
    7  A    between atoms: C_19  and  O_22
    8  A    between atoms: C_19  and  C_27
    9  A    between atoms: O_20  and  C_23
   10  A    between atoms: O_20  and  C_25
   11  A    between atoms: C_23  and  C_29
                            x       y       z     vdW  Elec       q    Type
                         _______ _______ _______ _____ _____    ______ ____

>  <TORSDO>
F 11

$$$$
=
 OpenBabel11072411043D

 30 33  0  0  1  0  0  0  0  0999 V2000
  160.6240  204.2880  150.4140 C   0  0  0  0  0  2  0  0  0  0  0  0
  161.1310  206.0820  148.8290 C   0  0  0  0  0  2  0  0  0  0  0  0
  161.2000  207.5860  148.8760 C   0  0  0  0  0  3  0  0  0  0  0  0
  162.6760  207.3860  150.8380 C   0  0  0  0  0  2  0  0  0  0  0  0
  161.8180  206.2210  151.3550 C   0  0  2  0  0  3  0  0  0  0  0  0
  161.9260  208.2020  149.8190 C   0  0  0  0  0  0  0  0  0  0  0  0
  161.1100  205.5110  150.2220 C   0  0  0  0  0  0  0  0  0  0  0  0
  160.8800  206.6970  152.2750 O   0  0  0  0  0  0  0  0  0  0  0  0
  161.4920  207.0700  154.5680 C   0  0  2  0  0  3  0  0  0  0  0  0
  161.6000  207.5440  153.1240 C   0  0  2  0  0  3  0  0  0  0  0  0
  160.7760  208.7680  153.4560 C   0  0  0  0  0  2  0  0  0  0  0  0
  160.0760  206.8600  155.0560 C   0  0  0  0  0  2  0  0  0  0  0  0
  160.5960  208.2690  154.8750 C   0  0  1  0  0  0  0  0  0  0  0  0
  161.1550  208.5220  157.1770 O   0  0  0  0  0  0  0  0  0  0  0  0
  161.2120  209.0120  156.0170 C   0  0  0  0  0  0  0  0  0  0  0  0
  161.8340  210.2420  155.7930 O   0  0  0  0  0  0  0  0  0  0  0  0
  161.3040  211.4550  156.3070 C   0  0  0  0  0  2  0  0  0  0  0  0
  160.1350  211.8970  155.4530 C   0  0  0  0  0  1  0  0  0  0  0  0
  161.9800  209.6890  149.8680 C   0  0  0  0  0  2  0  0  0  0  0  0
  162.0720  210.2040  148.5470 O   0  0  0  0  0  0  0  0  0  0  0  0
  162.2940  211.5590  148.2980 C   0  0  0  0  0  0  0  0  0  0  0  0
  163.4600  211.9970  148.1050 O   0  0  0  0  0  0  0  0  0  0  0  0
  161.1410  212.5090  148.2770 C   0  0  2  0  0  3  0  0  0  0  0  0
  161.4650  212.9360  145.8840 N   0  0  0  0  0  0  0  0  0  0  0  0
  160.6660  212.7220  146.8740 C   0  0  0  0  0  0  0  0  0  0  0  0
  159.3000  212.6350  146.5070 N   0  0  0  0  0  0  0  0  0  0  0  0
  160.6400  213.0410  144.6910 C   0  0  0  0  0  2  0  0  0  0  0  0
  159.2660  212.8210  145.2300 C   0  0  0  0  0  3  0  0  0  0  0  0
  160.3680  214.1560  149.5400 C   0  0  0  0  0  1  0  0  0  0  0  0
  161.5080  213.7250  148.8590 O   0  0  0  0  0  0  0  0  0  0  0  0
  2  3  1  0  0  0  0
  2  7  1  0  0  0  0
  3  6  2  0  0  0  0
  4  5  1  0  0  0  0
  5  8  1  1  0  0  0
  6 19  1  0  0  0  0
  6  4  1  0  0  0  0
  7  1  2  0  0  0  0
  7  5  1  0  0  0  0
  9 13  1  0  0  0  0
  9 12  1  6  0  0  0
 10  8  1  6  0  0  0
 10 11  1  0  0  0  0
 10  9  1  0  0  0  0
 11 13  1  0  0  0  0
 13 12  1  0  0  0  0
 13 15  1  1  0  0  0
 15 14  2  0  0  0  0
 16 15  1  0  0  0  0
 16 17  1  0  0  0  0
 18 17  1  0  0  0  0
 20 19  1  0  0  0  0
 21 20  1  0  0  0  0
 22 21  2  0  0  0  0
 23 21  1  6  0  0  0
 23 30  1  0  0  0  0
 24 25  2  0  0  0  0
 25 23  1  0  0  0  0
 26 25  1  0  0  0  0
 27 28  1  0  0  0  0
 27 24  1  0  0  0  0
 28 26  2  0  0  0  0
 30 29  1  0  0  0  0
M  END
>  <MODEL>
9

>  <REMARK>
 VINA RESULT:      -5.8      4.284      8.263
  Name = 
  11 active torsions:
  status: ('A' for Active; 'I' for Inactive)
    1  A    between atoms: C_3  and  C_27
    2  A    between atoms: O_4  and  C_8
    3  A    between atoms: O_4  and  C_17
    4  A    between atoms: C_6  and  C_18
    5  A    between atoms: C_6  and  O_22
    6  A    between atoms: O_15  and  C_27
    7  A    between atoms: C_19  and  O_22
    8  A    between atoms: C_19  and  C_27
    9  A    between atoms: O_20  and  C_23
   10  A    between atoms: O_20  and  C_25
   11  A    between atoms: C_23  and  C_29
                            x       y       z     vdW  Elec       q    Type
                         _______ _______ _______ _____ _____    ______ ____

>  <TORSDO>
F 11

$$$$
