=
 OpenBabel11072412523D

 41 44  0  0  1  0  0  0  0  0999 V2000
  161.3920  208.0040  152.8200 N   0  0  0  0  0  0  0  0  0  0  0  0
  161.9720  210.1840  149.8160 C   0  0  0  0  0  3  0  0  0  0  0  0
  161.9940  209.0850  150.6760 C   0  0  0  0  0  3  0  0  0  0  0  0
  160.7170  210.3310  152.3080 C   0  0  0  0  0  3  0  0  0  0  0  0
  160.6990  211.4340  151.4520 C   0  0  0  0  0  3  0  0  0  0  0  0
  161.3290  211.3640  150.2060 C   0  0  0  0  0  0  0  0  0  0  0  0
  161.3680  209.1440  151.9350 C   0  0  0  0  0  0  0  0  0  0  0  0
  161.2810  212.5310  149.2770 C   0  0  0  0  0  2  0  0  0  0  0  0
  162.1030  212.2650  148.0200 C   0  0  2  0  0  3  0  0  0  0  0  0
  163.2790  213.0140  148.0640 O   0  0  0  0  0  1  0  0  0  0  0  0
  157.7910  212.3190  145.8440 O   0  0  0  0  0  0  0  0  0  0  0  0
  161.9080  213.1600  145.8180 O   0  0  0  0  0  0  0  0  0  0  0  0
  161.3270  212.6060  146.7900 C   0  0  0  0  0  0  0  0  0  0  0  0
  159.9250  212.3200  146.7550 N   0  0  0  0  0  2  0  0  0  0  0  0
  159.4670  213.6100  144.2690 S   0  0  0  0  0  1  0  0  0  0  0  0
  158.9910  212.6730  145.7250 C   0  0  0  0  0  0  0  0  0  0  0  0
  160.8330  208.0620  154.1680 C   0  0  0  0  0  2  0  0  0  0  0  0
  161.3180  208.8490  156.4720 C   0  0  2  0  0  3  0  0  0  0  0  0
  159.5380  211.9450  155.4970 C   0  0  1  0  0  3  0  0  0  0  0  0
  161.5140  209.1540  154.9850 C   0  0  2  0  0  3  0  0  0  0  0  0
  160.8750  211.4160  155.8970 C   0  0  0  0  0  2  0  0  0  0  0  0
  158.5920  210.9330  155.7730 O   0  0  0  0  0  0  0  0  0  0  0  0
  160.5390  209.9730  155.8160 C   0  0  2  0  0  0  0  0  0  0  0  0
  159.1870  209.7640  155.5330 O   0  0  0  0  0  0  0  0  0  0  0  0
  162.5050  209.3640  157.2610 C   0  0  0  0  0  1  0  0  0  0  0  0
  159.2150  213.1970  156.2900 C   0  0  0  0  0  2  0  0  0  0  0  0
  157.7940  213.6480  155.9920 C   0  0  0  0  0  1  0  0  0  0  0  0
  161.8740  206.7100  152.3500 C   0  0  0  0  0  2  0  0  0  0  0  0
  161.2030  205.5920  153.1240 C   0  0  0  0  0  2  0  0  0  0  0  0
  161.2100  204.3240  152.2860 C   0  0  0  0  0  2  0  0  0  0  0  0
  160.2170  204.4310  151.1370 C   0  0  0  0  0  2  0  0  0  0  0  0
  160.7420  203.8210  149.9210 N   0  0  0  0  0  0  0  0  0  0  0  0
  160.6330  202.3760  149.7550 C   0  0  0  0  0  1  0  0  0  0  0  0
  161.3320  204.6400  148.9000 C   0  0  0  0  0  0  0  0  0  0  0  0
  161.5440  205.8630  149.1170 O   0  0  0  0  0  0  0  0  0  0  0  0
  161.6450  204.0820  147.5480 C   0  0  0  0  0  2  0  0  0  0  0  0
  161.3310  205.3250  144.2130 C   0  0  0  0  0  2  0  0  0  0  0  0
  160.4720  206.2380  144.9520 N   0  0  0  0  0  2  0  0  0  0  0  0
  162.2370  204.6630  145.2120 C   0  0  0  0  0  2  0  0  0  0  0  0
  161.7660  205.2030  146.5310 C   0  0  1  0  0  3  0  0  0  0  0  0
  160.4700  205.8100  146.2910 N   0  0  0  0  0  2  0  0  0  0  0  0
  1 17  1  0  0  0  0
  2  6  2  0  0  0  0
  2  3  1  0  0  0  0
  3  7  2  0  0  0  0
  5  4  2  0  0  0  0
  6  5  1  0  0  0  0
  7  4  1  0  0  0  0
  7  1  1  0  0  0  0
  8  6  1  0  0  0  0
  9 10  1  1  0  0  0
  9  8  1  0  0  0  0
 12 13  2  0  0  0  0
 13  9  1  0  0  0  0
 14 13  1  0  0  0  0
 15 16  1  0  0  0  0
 16 11  2  0  0  0  0
 16 14  1  0  0  0  0
 18 25  1  1  0  0  0
 19 22  1  0  0  0  0
 19 21  1  0  0  0  0
 19 26  1  1  0  0  0
 20 17  1  6  0  0  0
 20 23  1  0  0  0  0
 20 18  1  0  0  0  0
 23 21  1  1  0  0  0
 23 18  1  0  0  0  0
 24 22  1  0  0  0  0
 24 23  1  0  0  0  0
 27 26  1  0  0  0  0
 28  1  1  0  0  0  0
 28 29  1  0  0  0  0
 30 29  1  0  0  0  0
 31 30  1  0  0  0  0
 32 31  1  0  0  0  0
 33 32  1  0  0  0  0
 34 35  2  0  0  0  0
 34 32  1  0  0  0  0
 36 34  1  0  0  0  0
 37 38  1  0  0  0  0
 37 39  1  0  0  0  0
 38 41  1  0  0  0  0
 39 40  1  0  0  0  0
 40 36  1  1  0  0  0
 41 40  1  0  0  0  0
M  END
>  <MODEL>
1

>  <REMARK>
 VINA RESULT:      -7.1      0.000      0.000
  Name = 
  14 active torsions:
  status: ('A' for Active; 'I' for Inactive)
    1  A    between atoms: C_3  and  C_13
    2  A    between atoms: C_3  and  C_25
    3  A    between atoms: C_4  and  C_8
    4  A    between atoms: C_4  and  C_24
    5  A    between atoms: C_5  and  C_6
    6  A    between atoms: C_8  and  C_36
    7  A    between atoms: N_10  and  C_13
    8  A    between atoms: C_12  and  C_35
    9  A    between atoms: N_18  and  C_35
   10  A    between atoms: N_18  and  C_38
   11  A    between atoms: N_18  and  C_41
   12  A    between atoms: C_25  and  C_38
   13  A    between atoms: C_31  and  C_39
   14  A    between atoms: C_32  and  C_39
                            x       y       z     vdW  Elec       q    Type
                         _______ _______ _______ _____ _____    ______ ____

>  <TORSDO>
F 14

$$$$
=
 OpenBabel11072412523D

 41 44  0  0  1  0  0  0  0  0999 V2000
  161.3380  206.7740  150.7680 N   0  0  0  0  0  0  0  0  0  0  0  0
  160.6280  209.1450  153.5950 C   0  0  0  0  0  3  0  0  0  0  0  0
  160.8540  208.6490  152.3090 C   0  0  0  0  0  3  0  0  0  0  0  0
  161.1240  206.4220  153.2100 C   0  0  0  0  0  3  0  0  0  0  0  0
  160.9040  206.9150  154.4980 C   0  0  0  0  0  3  0  0  0  0  0  0
  160.6590  208.2770  154.6930 C   0  0  0  0  0  0  0  0  0  0  0  0
  161.1070  207.2820  152.1000 C   0  0  0  0  0  0  0  0  0  0  0  0
  160.3910  208.8010  156.0650 C   0  0  0  0  0  2  0  0  0  0  0  0
  160.7700  210.2730  156.1750 C   0  0  2  0  0  3  0  0  0  0  0  0
  161.7010  210.4420  157.2000 O   0  0  0  0  0  1  0  0  0  0  0  0
  156.0910  211.0430  155.2550 O   0  0  0  0  0  0  0  0  0  0  0  0
  159.6390  212.0700  157.2600 O   0  0  0  0  0  0  0  0  0  0  0  0
  159.5670  211.1200  156.4350 C   0  0  0  0  0  0  0  0  0  0  0  0
  158.3440  210.8100  155.7590 N   0  0  0  0  0  2  0  0  0  0  0  0
  156.7830  212.7080  157.1800 S   0  0  0  0  0  1  0  0  0  0  0  0
  157.0620  211.4220  155.9580 C   0  0  0  0  0  0  0  0  0  0  0  0
  161.7460  205.3920  150.5300 C   0  0  0  0  0  2  0  0  0  0  0  0
  161.4450  203.3890  149.0960 C   0  0  2  0  0  3  0  0  0  0  0  0
  161.4390  205.7600  146.2530 C   0  0  1  0  0  3  0  0  0  0  0  0
  160.8360  204.7330  149.5000 C   0  0  2  0  0  3  0  0  0  0  0  0
  160.5840  204.7830  146.9920 C   0  0  0  0  0  2  0  0  0  0  0  0
  162.7680  205.5580  146.6870 O   0  0  0  0  0  0  0  0  0  0  0  0
  161.4970  204.5660  148.1400 C   0  0  2  0  0  0  0  0  0  0  0  0
  162.7130  205.2330  147.9790 O   0  0  0  0  0  0  0  0  0  0  0  0
  160.3410  202.4140  148.7390 C   0  0  0  0  0  1  0  0  0  0  0  0
  161.3310  205.5190  144.7590 C   0  0  0  0  0  2  0  0  0  0  0  0
  160.6050  204.2100  144.4960 C   0  0  0  0  0  1  0  0  0  0  0  0
  161.0560  207.6010  149.6000 C   0  0  0  0  0  2  0  0  0  0  0  0
  162.2940  208.3830  149.2060 C   0  0  0  0  0  2  0  0  0  0  0  0
  161.8780  209.6860  148.5440 C   0  0  0  0  0  2  0  0  0  0  0  0
  162.0750  210.8600  149.4930 C   0  0  0  0  0  2  0  0  0  0  0  0
  162.1500  212.1240  148.7680 N   0  0  0  0  0  0  0  0  0  0  0  0
  163.2370  212.3260  147.8180 C   0  0  0  0  0  1  0  0  0  0  0  0
  161.1500  213.1340  148.9750 C   0  0  0  0  0  0  0  0  0  0  0  0
  160.3010  213.0010  149.8960 O   0  0  0  0  0  0  0  0  0  0  0  0
  161.0560  214.3220  148.0710 C   0  0  0  0  0  2  0  0  0  0  0  0
  160.3070  213.1730  144.7730 C   0  0  0  0  0  2  0  0  0  0  0  0
  159.4470  212.3240  145.5850 N   0  0  0  0  0  2  0  0  0  0  0  0
  160.6920  214.3520  145.6200 C   0  0  0  0  0  2  0  0  0  0  0  0
  160.0670  214.0530  146.9510 C   0  0  1  0  0  3  0  0  0  0  0  0
  159.6980  212.6490  146.9290 N   0  0  0  0  0  2  0  0  0  0  0  0
  1  7  1  0  0  0  0
  2  6  1  0  0  0  0
  3  2  2  0  0  0  0
  4  5  1  0  0  0  0
  5  6  2  0  0  0  0
  6  8  1  0  0  0  0
  7  3  1  0  0  0  0
  7  4  2  0  0  0  0
  8  9  1  0  0  0  0
  9 13  1  0  0  0  0
  9 10  1  1  0  0  0
 11 16  2  0  0  0  0
 13 12  2  0  0  0  0
 14 16  1  0  0  0  0
 14 13  1  0  0  0  0
 16 15  1  0  0  0  0
 17  1  1  0  0  0  0
 18 25  1  6  0  0  0
 18 20  1  0  0  0  0
 19 26  1  6  0  0  0
 19 22  1  0  0  0  0
 19 21  1  0  0  0  0
 20 17  1  1  0  0  0
 22 24  1  0  0  0  0
 23 21  1  6  0  0  0
 23 18  1  0  0  0  0
 23 20  1  0  0  0  0
 24 23  1  0  0  0  0
 27 26  1  0  0  0  0
 28  1  1  0  0  0  0
 29 28  1  0  0  0  0
 30 29  1  0  0  0  0
 30 31  1  0  0  0  0
 32 34  1  0  0  0  0
 32 31  1  0  0  0  0
 33 32  1  0  0  0  0
 34 35  2  0  0  0  0
 36 34  1  0  0  0  0
 37 38  1  0  0  0  0
 37 39  1  0  0  0  0
 38 41  1  0  0  0  0
 39 40  1  0  0  0  0
 40 36  1  1  0  0  0
 41 40  1  0  0  0  0
M  END
>  <MODEL>
2

>  <REMARK>
 VINA RESULT:      -7.1      3.028      8.780
  Name = 
  14 active torsions:
  status: ('A' for Active; 'I' for Inactive)
    1  A    between atoms: C_3  and  C_13
    2  A    between atoms: C_3  and  C_25
    3  A    between atoms: C_4  and  C_8
    4  A    between atoms: C_4  and  C_24
    5  A    between atoms: C_5  and  C_6
    6  A    between atoms: C_8  and  C_36
    7  A    between atoms: N_10  and  C_13
    8  A    between atoms: C_12  and  C_35
    9  A    between atoms: N_18  and  C_35
   10  A    between atoms: N_18  and  C_38
   11  A    between atoms: N_18  and  C_41
   12  A    between atoms: C_25  and  C_38
   13  A    between atoms: C_31  and  C_39
   14  A    between atoms: C_32  and  C_39
                            x       y       z     vdW  Elec       q    Type
                         _______ _______ _______ _____ _____    ______ ____

>  <TORSDO>
F 14

$$$$
=
 OpenBabel11072412523D

 41 44  0  0  1  0  0  0  0  0999 V2000
  161.7190  209.3890  152.2360 N   0  0  0  0  0  0  0  0  0  0  0  0
  162.5080  206.0070  150.8010 C   0  0  0  0  0  3  0  0  0  0  0  0
  162.5060  207.3880  151.0100 C   0  0  0  0  0  3  0  0  0  0  0  0
  160.9300  207.1160  152.8240 C   0  0  0  0  0  3  0  0  0  0  0  0
  160.9250  205.7360  152.6140 C   0  0  0  0  0  3  0  0  0  0  0  0
  161.7110  205.1790  151.6010 C   0  0  0  0  0  0  0  0  0  0  0  0
  161.7160  207.9610  152.0230 C   0  0  0  0  0  0  0  0  0  0  0  0
  161.7330  203.7010  151.3970 C   0  0  0  0  0  2  0  0  0  0  0  0
  160.6260  203.2620  150.4440 C   0  0  2  0  0  3  0  0  0  0  0  0
  160.3710  201.9020  150.6170 O   0  0  0  0  0  1  0  0  0  0  0  0
  160.9330  206.5220  146.8920 O   0  0  0  0  0  0  0  0  0  0  0  0
  161.5070  202.6130  148.3250 O   0  0  0  0  0  0  0  0  0  0  0  0
  161.0020  203.5330  149.0230 C   0  0  0  0  0  0  0  0  0  0  0  0
  160.8070  204.8490  148.4950 N   0  0  0  0  0  2  0  0  0  0  0  0
  162.0960  204.3210  146.0220 S   0  0  0  0  0  1  0  0  0  0  0  0
  161.2080  205.3360  147.2070 C   0  0  0  0  0  0  0  0  0  0  0  0
  161.0870  209.9960  153.4040 C   0  0  0  0  0  2  0  0  0  0  0  0
  160.0330  212.2220  153.0960 C   0  0  2  0  0  3  0  0  0  0  0  0
  157.5680  211.1010  155.6210 C   0  0  1  0  0  3  0  0  0  0  0  0
  159.8010  210.7120  153.0090 C   0  0  2  0  0  3  0  0  0  0  0  0
  157.7120  211.4890  154.1860 C   0  0  0  0  0  2  0  0  0  0  0  0
  158.7620  211.4790  156.2740 O   0  0  0  0  0  0  0  0  0  0  0  0
  159.1940  211.5180  154.1470 C   0  0  2  0  0  0  0  0  0  0  0  0
  159.7580  211.2990  155.4050 O   0  0  0  0  0  0  0  0  0  0  0  0
  159.1780  212.9310  152.0650 C   0  0  0  0  0  1  0  0  0  0  0  0
  156.3820  211.8170  156.2380 C   0  0  0  0  0  2  0  0  0  0  0  0
  155.8480  212.8630  155.2720 C   0  0  0  0  0  1  0  0  0  0  0  0
  162.4610  210.2710  151.3410 C   0  0  0  0  0  2  0  0  0  0  0  0
  161.7520  210.3720  150.0050 C   0  0  0  0  0  2  0  0  0  0  0  0
  162.3280  211.5360  149.2160 C   0  0  0  0  0  2  0  0  0  0  0  0
  161.2300  212.5130  148.8180 C   0  0  0  0  0  2  0  0  0  0  0  0
  161.6150  213.2990  147.6510 N   0  0  0  0  0  0  0  0  0  0  0  0
  162.5820  214.3790  147.8170 C   0  0  0  0  0  1  0  0  0  0  0  0
  161.0650  212.9910  146.3610 C   0  0  0  0  0  0  0  0  0  0  0  0
  160.1320  212.1510  146.2580 O   0  0  0  0  0  0  0  0  0  0  0  0
  161.6260  213.6050  145.1170 C   0  0  0  0  0  2  0  0  0  0  0  0
  160.8460  213.3110  141.6430 C   0  0  0  0  0  2  0  0  0  0  0  0
  161.9910  212.4210  141.7660 N   0  0  0  0  0  2  0  0  0  0  0  0
  160.2980  213.5220  143.0250 C   0  0  0  0  0  2  0  0  0  0  0  0
  161.2530  212.7700  143.9050 C   0  0  1  0  0  3  0  0  0  0  0  0
  162.4300  212.4950  143.0990 N   0  0  0  0  0  2  0  0  0  0  0  0
  1 17  1  0  0  0  0
  2  3  2  0  0  0  0
  2  6  1  0  0  0  0
  3  7  1  0  0  0  0
  5  4  1  0  0  0  0
  6  5  2  0  0  0  0
  7  1  1  0  0  0  0
  7  4  2  0  0  0  0
  8  6  1  0  0  0  0
  9 10  1  6  0  0  0
  9  8  1  0  0  0  0
 11 16  2  0  0  0  0
 12 13  2  0  0  0  0
 13  9  1  0  0  0  0
 14 13  1  0  0  0  0
 15 16  1  0  0  0  0
 16 14  1  0  0  0  0
 18 25  1  6  0  0  0
 18 23  1  0  0  0  0
 19 26  1  1  0  0  0
 19 22  1  0  0  0  0
 20 18  1  0  0  0  0
 20 17  1  1  0  0  0
 20 23  1  0  0  0  0
 21 19  1  0  0  0  0
 23 21  1  6  0  0  0
 23 24  1  0  0  0  0
 24 22  1  0  0  0  0
 27 26  1  0  0  0  0
 28  1  1  0  0  0  0
 29 28  1  0  0  0  0
 30 29  1  0  0  0  0
 31 30  1  0  0  0  0
 32 33  1  0  0  0  0
 32 31  1  0  0  0  0
 34 32  1  0  0  0  0
 35 34  2  0  0  0  0
 36 34  1  0  0  0  0
 37 38  1  0  0  0  0
 37 39  1  0  0  0  0
 38 41  1  0  0  0  0
 39 40  1  0  0  0  0
 40 36  1  1  0  0  0
 41 40  1  0  0  0  0
M  END
>  <MODEL>
3

>  <REMARK>
 VINA RESULT:      -6.8      2.702      6.987
  Name = 
  14 active torsions:
  status: ('A' for Active; 'I' for Inactive)
    1  A    between atoms: C_3  and  C_13
    2  A    between atoms: C_3  and  C_25
    3  A    between atoms: C_4  and  C_8
    4  A    between atoms: C_4  and  C_24
    5  A    between atoms: C_5  and  C_6
    6  A    between atoms: C_8  and  C_36
    7  A    between atoms: N_10  and  C_13
    8  A    between atoms: C_12  and  C_35
    9  A    between atoms: N_18  and  C_35
   10  A    between atoms: N_18  and  C_38
   11  A    between atoms: N_18  and  C_41
   12  A    between atoms: C_25  and  C_38
   13  A    between atoms: C_31  and  C_39
   14  A    between atoms: C_32  and  C_39
                            x       y       z     vdW  Elec       q    Type
                         _______ _______ _______ _____ _____    ______ ____

>  <TORSDO>
F 14

$$$$
=
 OpenBabel11072412523D

 41 44  0  0  1  0  0  0  0  0999 V2000
  160.4670  210.2130  153.5910 N   0  0  0  0  0  0  0  0  0  0  0  0
  161.1790  206.5320  153.3460 C   0  0  0  0  0  3  0  0  0  0  0  0
  160.8100  207.7770  153.8610 C   0  0  0  0  0  3  0  0  0  0  0  0
  161.2670  208.8020  151.7190 C   0  0  0  0  0  3  0  0  0  0  0  0
  161.6420  207.5600  151.2030 C   0  0  0  0  0  3  0  0  0  0  0  0
  161.6010  206.4240  152.0160 C   0  0  0  0  0  0  0  0  0  0  0  0
  160.8510  208.9290  153.0550 C   0  0  0  0  0  0  0  0  0  0  0  0
  161.9700  205.0900  151.4560 C   0  0  0  0  0  2  0  0  0  0  0  0
  160.7900  204.4560  150.7270 C   0  0  2  0  0  3  0  0  0  0  0  0
  160.4630  203.2430  151.3330 O   0  0  0  0  0  1  0  0  0  0  0  0
  160.9530  201.3210  147.0550 O   0  0  0  0  0  0  0  0  0  0  0  0
  161.4730  205.2070  148.5690 O   0  0  0  0  0  0  0  0  0  0  0  0
  161.1070  204.2350  149.2830 C   0  0  0  0  0  0  0  0  0  0  0  0
  160.9560  202.9220  148.7350 N   0  0  0  0  0  2  0  0  0  0  0  0
  161.4590  203.7080  146.0550 S   0  0  0  0  0  1  0  0  0  0  0  0
  161.0950  202.5320  147.3620 C   0  0  0  0  0  0  0  0  0  0  0  0
  159.9670  210.3610  154.9560 C   0  0  0  0  0  2  0  0  0  0  0  0
  159.6330  211.9690  156.8160 C   0  0  2  0  0  3  0  0  0  0  0  0
  156.4710  212.8650  155.1120 C   0  0  1  0  0  3  0  0  0  0  0  0
  159.7660  211.8320  155.2980 C   0  0  2  0  0  3  0  0  0  0  0  0
  157.8070  213.4050  155.5060 C   0  0  0  0  0  2  0  0  0  0  0  0
  156.2970  211.6460  155.8030 O   0  0  0  0  0  0  0  0  0  0  0  0
  158.4120  212.1180  155.9280 C   0  0  2  0  0  0  0  0  0  0  0  0
  157.4950  211.0660  155.8830 O   0  0  0  0  0  0  0  0  0  0  0  0
  160.1830  213.3110  157.2590 C   0  0  0  0  0  1  0  0  0  0  0  0
  155.3800  213.8470  155.4950 C   0  0  0  0  0  2  0  0  0  0  0  0
  154.8800  213.5460  156.8980 C   0  0  0  0  0  1  0  0  0  0  0  0
  160.6780  211.4320  152.8190 C   0  0  0  0  0  2  0  0  0  0  0  0
  159.4730  211.7060  151.9400 C   0  0  0  0  0  2  0  0  0  0  0  0
  159.1700  213.1950  151.9490 C   0  0  0  0  0  2  0  0  0  0  0  0
  160.0010  213.9210  150.9010 C   0  0  0  0  0  2  0  0  0  0  0  0
  159.5960  213.5500  149.5490 N   0  0  0  0  0  0  0  0  0  0  0  0
  158.2220  213.8050  149.1320 C   0  0  0  0  0  1  0  0  0  0  0  0
  160.5470  212.9660  148.6460 C   0  0  0  0  0  0  0  0  0  0  0  0
  161.6860  212.6250  149.0630 O   0  0  0  0  0  0  0  0  0  0  0  0
  160.2340  212.8110  147.1910 C   0  0  0  0  0  2  0  0  0  0  0  0
  162.6090  213.5300  144.6210 C   0  0  0  0  0  2  0  0  0  0  0  0
  161.4470  214.2820  144.1700 N   0  0  0  0  0  2  0  0  0  0  0  0
  162.4080  213.2390  146.0810 C   0  0  0  0  0  2  0  0  0  0  0  0
  161.0460  213.7980  146.3710 C   0  0  1  0  0  3  0  0  0  0  0  0
  160.4120  214.0300  145.0850 N   0  0  0  0  0  2  0  0  0  0  0  0
  1 17  1  0  0  0  0
  2  3  1  0  0  0  0
  4  7  1  0  0  0  0
  5  4  2  0  0  0  0
  5  6  1  0  0  0  0
  6  2  2  0  0  0  0
  7  1  1  0  0  0  0
  7  3  2  0  0  0  0
  8  6  1  0  0  0  0
  9 10  1  1  0  0  0
  9  8  1  0  0  0  0
 11 16  2  0  0  0  0
 12 13  2  0  0  0  0
 13  9  1  0  0  0  0
 14 13  1  0  0  0  0
 15 16  1  0  0  0  0
 16 14  1  0  0  0  0
 18 25  1  6  0  0  0
 19 26  1  1  0  0  0
 19 21  1  0  0  0  0
 19 22  1  0  0  0  0
 20 17  1  1  0  0  0
 20 23  1  0  0  0  0
 20 18  1  0  0  0  0
 22 24  1  0  0  0  0
 23 21  1  6  0  0  0
 23 18  1  0  0  0  0
 24 23  1  0  0  0  0
 26 27  1  0  0  0  0
 28  1  1  0  0  0  0
 29 30  1  0  0  0  0
 29 28  1  0  0  0  0
 31 30  1  0  0  0  0
 32 31  1  0  0  0  0
 33 32  1  0  0  0  0
 34 35  2  0  0  0  0
 34 32  1  0  0  0  0
 36 34  1  0  0  0  0
 37 39  1  0  0  0  0
 38 37  1  0  0  0  0
 38 41  1  0  0  0  0
 39 40  1  0  0  0  0
 40 36  1  1  0  0  0
 41 40  1  0  0  0  0
M  END
>  <MODEL>
4

>  <REMARK>
 VINA RESULT:      -6.7      2.742      7.098
  Name = 
  14 active torsions:
  status: ('A' for Active; 'I' for Inactive)
    1  A    between atoms: C_3  and  C_13
    2  A    between atoms: C_3  and  C_25
    3  A    between atoms: C_4  and  C_8
    4  A    between atoms: C_4  and  C_24
    5  A    between atoms: C_5  and  C_6
    6  A    between atoms: C_8  and  C_36
    7  A    between atoms: N_10  and  C_13
    8  A    between atoms: C_12  and  C_35
    9  A    between atoms: N_18  and  C_35
   10  A    between atoms: N_18  and  C_38
   11  A    between atoms: N_18  and  C_41
   12  A    between atoms: C_25  and  C_38
   13  A    between atoms: C_31  and  C_39
   14  A    between atoms: C_32  and  C_39
                            x       y       z     vdW  Elec       q    Type
                         _______ _______ _______ _____ _____    ______ ____

>  <TORSDO>
F 14

$$$$
=
 OpenBabel11072412523D

 41 44  0  0  1  0  0  0  0  0999 V2000
  161.7210  210.5580  150.5800 N   0  0  0  0  0  0  0  0  0  0  0  0
  162.0750  210.2420  154.3070 C   0  0  0  0  0  3  0  0  0  0  0  0
  162.2940  210.0730  152.9390 C   0  0  0  0  0  3  0  0  0  0  0  0
  160.4620  211.5750  152.4550 C   0  0  0  0  0  3  0  0  0  0  0  0
  160.2370  211.7420  153.8230 C   0  0  0  0  0  3  0  0  0  0  0  0
  161.0400  211.0740  154.7510 C   0  0  0  0  0  0  0  0  0  0  0  0
  161.4900  210.7350  151.9940 C   0  0  0  0  0  0  0  0  0  0  0  0
  160.8220  211.2770  156.2140 C   0  0  0  0  0  2  0  0  0  0  0  0
  159.5840  210.5280  156.6940 C   0  0  2  0  0  3  0  0  0  0  0  0
  159.4980  209.2990  156.0390 O   0  0  0  0  0  1  0  0  0  0  0  0
  155.2140  210.6770  154.6410 O   0  0  0  0  0  0  0  0  0  0  0  0
  158.2240  212.4670  156.9640 O   0  0  0  0  0  0  0  0  0  0  0  0
  158.3450  211.3250  156.4470 C   0  0  0  0  0  0  0  0  0  0  0  0
  157.3030  210.7540  155.6470 N   0  0  0  0  0  2  0  0  0  0  0  0
  155.4500  212.8520  156.1140 S   0  0  0  0  0  1  0  0  0  0  0  0
  156.0030  211.3030  155.3940 C   0  0  0  0  0  0  0  0  0  0  0  0
  162.3370  209.3460  150.0450 C   0  0  0  0  0  2  0  0  0  0  0  0
  162.1410  206.9660  150.7200 C   0  0  2  0  0  3  0  0  0  0  0  0
  161.0940  206.3450  147.2240 C   0  0  1  0  0  3  0  0  0  0  0  0
  161.3800  208.1650  150.1500 C   0  0  2  0  0  3  0  0  0  0  0  0
  160.6140  206.3000  148.6370 C   0  0  0  0  0  2  0  0  0  0  0  0
  162.4960  206.5010  147.2680 O   0  0  0  0  0  0  0  0  0  0  0  0
  161.7670  207.0020  149.2500 C   0  0  2  0  0  0  0  0  0  0  0  0
  162.7730  207.2740  148.3190 O   0  0  0  0  0  0  0  0  0  0  0  0
  161.1960  206.0970  151.5260 C   0  0  0  0  0  1  0  0  0  0  0  0
  160.7300  205.0570  146.5090 C   0  0  0  0  0  2  0  0  0  0  0  0
  161.6320  203.9290  146.9820 C   0  0  0  0  0  1  0  0  0  0  0  0
  161.2360  211.5430  149.6200 C   0  0  0  0  0  2  0  0  0  0  0  0
  161.9200  211.3450  148.2810 C   0  0  0  0  0  2  0  0  0  0  0  0
  162.6130  212.6340  147.8740 C   0  0  0  0  0  2  0  0  0  0  0  0
  161.6000  213.6610  147.3860 C   0  0  0  0  0  2  0  0  0  0  0  0
  161.0560  213.2930  146.0830 N   0  0  0  0  0  0  0  0  0  0  0  0
  159.7810  212.5870  146.0270 C   0  0  0  0  0  1  0  0  0  0  0  0
  161.7580  213.6490  144.8820 C   0  0  0  0  0  0  0  0  0  0  0  0
  162.9190  214.1330  144.9500 O   0  0  0  0  0  0  0  0  0  0  0  0
  161.1090  213.5130  143.5400 C   0  0  0  0  0  2  0  0  0  0  0  0
  160.8840  211.0980  140.9180 C   0  0  0  0  0  2  0  0  0  0  0  0
  162.2360  211.6060  140.7370 N   0  0  0  0  0  2  0  0  0  0  0  0
  160.4560  211.4630  142.3110 C   0  0  0  0  0  2  0  0  0  0  0  0
  161.6100  212.2630  142.8390 C   0  0  1  0  0  3  0  0  0  0  0  0
  162.4260  212.6190  141.6920 N   0  0  0  0  0  2  0  0  0  0  0  0
  1  7  1  0  0  0  0
  2  6  1  0  0  0  0
  3  2  2  0  0  0  0
  4  5  1  0  0  0  0
  5  6  2  0  0  0  0
  6  8  1  0  0  0  0
  7  4  2  0  0  0  0
  7  3  1  0  0  0  0
  8  9  1  0  0  0  0
  9 10  1  6  0  0  0
 11 16  2  0  0  0  0
 13  9  1  0  0  0  0
 13 12  2  0  0  0  0
 14 13  1  0  0  0  0
 16 14  1  0  0  0  0
 16 15  1  0  0  0  0
 17  1  1  0  0  0  0
 18 25  1  1  0  0  0
 19 26  1  1  0  0  0
 19 22  1  0  0  0  0
 19 21  1  0  0  0  0
 20 17  1  6  0  0  0
 20 18  1  0  0  0  0
 22 24  1  0  0  0  0
 23 21  1  6  0  0  0
 23 20  1  0  0  0  0
 23 18  1  0  0  0  0
 24 23  1  0  0  0  0
 26 27  1  0  0  0  0
 28  1  1  0  0  0  0
 29 28  1  0  0  0  0
 30 29  1  0  0  0  0
 31 30  1  0  0  0  0
 32 31  1  0  0  0  0
 33 32  1  0  0  0  0
 34 35  2  0  0  0  0
 34 32  1  0  0  0  0
 36 34  1  0  0  0  0
 37 39  1  0  0  0  0
 38 37  1  0  0  0  0
 38 41  1  0  0  0  0
 39 40  1  0  0  0  0
 40 36  1  6  0  0  0
 41 40  1  0  0  0  0
M  END
>  <MODEL>
5

>  <REMARK>
 VINA RESULT:      -6.2      3.302      8.482
  Name = 
  14 active torsions:
  status: ('A' for Active; 'I' for Inactive)
    1  A    between atoms: C_3  and  C_13
    2  A    between atoms: C_3  and  C_25
    3  A    between atoms: C_4  and  C_8
    4  A    between atoms: C_4  and  C_24
    5  A    between atoms: C_5  and  C_6
    6  A    between atoms: C_8  and  C_36
    7  A    between atoms: N_10  and  C_13
    8  A    between atoms: C_12  and  C_35
    9  A    between atoms: N_18  and  C_35
   10  A    between atoms: N_18  and  C_38
   11  A    between atoms: N_18  and  C_41
   12  A    between atoms: C_25  and  C_38
   13  A    between atoms: C_31  and  C_39
   14  A    between atoms: C_32  and  C_39
                            x       y       z     vdW  Elec       q    Type
                         _______ _______ _______ _____ _____    ______ ____

>  <TORSDO>
F 14

$$$$
=
 OpenBabel11072412523D

 41 44  0  0  1  0  0  0  0  0999 V2000
  160.2390  212.4530  151.6620 N   0  0  0  0  0  0  0  0  0  0  0  0
  160.6480  208.8070  152.4710 C   0  0  0  0  0  3  0  0  0  0  0  0
  160.1590  210.1150  152.4700 C   0  0  0  0  0  3  0  0  0  0  0  0
  161.8380  210.7460  150.8480 C   0  0  0  0  0  3  0  0  0  0  0  0
  162.3330  209.4400  150.8520 C   0  0  0  0  0  3  0  0  0  0  0  0
  161.7410  208.4690  151.6650 C   0  0  0  0  0  0  0  0  0  0  0  0
  160.7490  211.1030  151.6600 C   0  0  0  0  0  0  0  0  0  0  0  0
  162.2470  207.0650  151.6450 C   0  0  0  0  0  2  0  0  0  0  0  0
  161.1020  206.0710  151.4820 C   0  0  2  0  0  3  0  0  0  0  0  0
  161.1630  205.1170  152.4970 O   0  0  0  0  0  1  0  0  0  0  0  0
  161.0070  206.6030  146.6810 O   0  0  0  0  0  0  0  0  0  0  0  0
  161.3420  204.1560  150.0820 O   0  0  0  0  0  0  0  0  0  0  0  0
  161.1590  205.4010  150.1470 C   0  0  0  0  0  0  0  0  0  0  0  0
  161.0330  206.2000  148.9660 N   0  0  0  0  0  2  0  0  0  0  0  0
  161.5970  204.0780  147.1670 S   0  0  0  0  0  1  0  0  0  0  0  0
  161.1770  205.7680  147.6060 C   0  0  0  0  0  0  0  0  0  0  0  0
  160.4090  213.3430  150.5160 C   0  0  0  0  0  2  0  0  0  0  0  0
  161.8980  213.4700  148.5340 C   0  0  2  0  0  3  0  0  0  0  0  0
  158.8600  212.7450  146.5460 C   0  0  1  0  0  3  0  0  0  0  0  0
  160.9320  212.5720  149.3090 C   0  0  2  0  0  3  0  0  0  0  0  0
  160.1930  212.1920  146.9290 C   0  0  0  0  0  2  0  0  0  0  0  0
  158.8480  214.1020  146.9350 O   0  0  0  0  0  0  0  0  0  0  0  0
  160.5130  213.1860  147.9820 C   0  0  2  0  0  0  0  0  0  0  0  0
  159.5490  214.1930  148.0650 O   0  0  0  0  0  0  0  0  0  0  0  0
  162.9620  212.6210  147.8670 C   0  0  0  0  0  1  0  0  0  0  0  0
  158.6590  212.6250  145.0470 C   0  0  0  0  0  2  0  0  0  0  0  0
  159.9540  212.1860  144.3830 C   0  0  0  0  0  1  0  0  0  0  0  0
  159.4290  212.9390  152.7730 C   0  0  0  0  0  2  0  0  0  0  0  0
  157.9690  212.9930  152.3670 C   0  0  0  0  0  2  0  0  0  0  0  0
  157.1280  213.3960  153.5670 C   0  0  0  0  0  2  0  0  0  0  0  0
  158.0040  213.6110  154.7930 C   0  0  0  0  0  2  0  0  0  0  0  0
  158.0640  212.4120  155.6220 N   0  0  0  0  0  0  0  0  0  0  0  0
  156.9060  211.5260  155.6620 C   0  0  0  0  0  1  0  0  0  0  0  0
  159.2560  212.1040  156.3610 C   0  0  0  0  0  0  0  0  0  0  0  0
  160.1920  212.9460  156.4260 O   0  0  0  0  0  0  0  0  0  0  0  0
  159.4380  210.7690  157.0100 C   0  0  0  0  0  2  0  0  0  0  0  0
  161.8900  208.2070  156.5720 C   0  0  0  0  0  2  0  0  0  0  0  0
  160.7350  207.6300  155.9000 N   0  0  0  0  0  2  0  0  0  0  0  0
  161.6440  209.6850  156.6850 C   0  0  0  0  0  2  0  0  0  0  0  0
  160.2650  209.8600  156.1170 C   0  0  1  0  0  3  0  0  0  0  0  0
  159.6720  208.5360  156.0550 N   0  0  0  0  0  2  0  0  0  0  0  0
  1 28  1  0  0  0  0
  3  2  1  0  0  0  0
  4  5  2  0  0  0  0
  4  7  1  0  0  0  0
  5  6  1  0  0  0  0
  6  2  2  0  0  0  0
  7  1  1  0  0  0  0
  7  3  2  0  0  0  0
  8  6  1  0  0  0  0
  9  8  1  0  0  0  0
  9 10  1  1  0  0  0
 11 16  2  0  0  0  0
 12 13  2  0  0  0  0
 13  9  1  0  0  0  0
 14 13  1  0  0  0  0
 15 16  1  0  0  0  0
 16 14  1  0  0  0  0
 17  1  1  0  0  0  0
 18 25  1  6  0  0  0
 18 20  1  0  0  0  0
 19 26  1  6  0  0  0
 19 21  1  0  0  0  0
 19 22  1  0  0  0  0
 20 17  1  1  0  0  0
 22 24  1  0  0  0  0
 23 21  1  6  0  0  0
 23 24  1  0  0  0  0
 23 18  1  0  0  0  0
 23 20  1  0  0  0  0
 27 26  1  0  0  0  0
 29 28  1  0  0  0  0
 29 30  1  0  0  0  0
 30 31  1  0  0  0  0
 31 32  1  0  0  0  0
 32 33  1  0  0  0  0
 32 34  1  0  0  0  0
 34 35  2  0  0  0  0
 34 36  1  0  0  0  0
 37 39  1  0  0  0  0
 38 41  1  0  0  0  0
 38 37  1  0  0  0  0
 40 39  1  0  0  0  0
 40 36  1  1  0  0  0
 41 40  1  0  0  0  0
M  END
>  <MODEL>
6

>  <REMARK>
 VINA RESULT:      -6.2      2.710      8.788
  Name = 
  14 active torsions:
  status: ('A' for Active; 'I' for Inactive)
    1  A    between atoms: C_3  and  C_13
    2  A    between atoms: C_3  and  C_25
    3  A    between atoms: C_4  and  C_8
    4  A    between atoms: C_4  and  C_24
    5  A    between atoms: C_5  and  C_6
    6  A    between atoms: C_8  and  C_36
    7  A    between atoms: N_10  and  C_13
    8  A    between atoms: C_12  and  C_35
    9  A    between atoms: N_18  and  C_35
   10  A    between atoms: N_18  and  C_38
   11  A    between atoms: N_18  and  C_41
   12  A    between atoms: C_25  and  C_38
   13  A    between atoms: C_31  and  C_39
   14  A    between atoms: C_32  and  C_39
                            x       y       z     vdW  Elec       q    Type
                         _______ _______ _______ _____ _____    ______ ____

>  <TORSDO>
F 14

$$$$
=
 OpenBabel11072412523D

 41 44  0  0  1  0  0  0  0  0999 V2000
  161.9280  209.0650  150.9100 N   0  0  0  0  0  0  0  0  0  0  0  0
  162.1650  207.4940  147.5060 C   0  0  0  0  0  3  0  0  0  0  0  0
  162.4370  208.3010  148.6110 C   0  0  0  0  0  3  0  0  0  0  0  0
  160.5660  207.3250  149.7910 C   0  0  0  0  0  3  0  0  0  0  0  0
  160.2880  206.5200  148.6850 C   0  0  0  0  0  3  0  0  0  0  0  0
  161.0840  206.6050  147.5390 C   0  0  0  0  0  0  0  0  0  0  0  0
  161.6410  208.2290  149.7680 C   0  0  0  0  0  0  0  0  0  0  0  0
  160.8070  205.7220  146.3680 C   0  0  0  0  0  2  0  0  0  0  0  0
  161.9820  204.7890  146.0950 C   0  0  2  0  0  3  0  0  0  0  0  0
  162.2880  204.8070  144.7340 O   0  0  0  0  0  1  0  0  0  0  0  0
  160.0830  200.5100  144.9000 O   0  0  0  0  0  0  0  0  0  0  0  0
  162.0310  202.9990  147.6710 O   0  0  0  0  0  0  0  0  0  0  0  0
  161.6720  203.3930  146.5290 C   0  0  0  0  0  0  0  0  0  0  0  0
  160.9960  202.5200  145.6180 N   0  0  0  0  0  2  0  0  0  0  0  0
  161.2330  200.2140  147.2550 S   0  0  0  0  0  1  0  0  0  0  0  0
  160.7140  201.1250  145.7970 C   0  0  0  0  0  0  0  0  0  0  0  0
  162.3180  208.5020  152.2000 C   0  0  0  0  0  2  0  0  0  0  0  0
  161.6230  207.1380  154.1530 C   0  0  2  0  0  3  0  0  0  0  0  0
  161.2310  204.3650  151.7310 C   0  0  1  0  0  3  0  0  0  0  0  0
  161.1890  207.6590  152.7820 C   0  0  2  0  0  3  0  0  0  0  0  0
  160.4710  205.2450  152.6670 C   0  0  0  0  0  2  0  0  0  0  0  0
  162.6020  204.5360  152.0230 O   0  0  0  0  0  0  0  0  0  0  0  0
  161.5690  206.1980  152.9630 C   0  0  2  0  0  0  0  0  0  0  0  0
  162.7730  205.8130  152.3690 O   0  0  0  0  0  0  0  0  0  0  0  0
  160.4110  206.9900  155.0510 C   0  0  0  0  0  1  0  0  0  0  0  0
  160.8270  202.9170  151.9360 C   0  0  0  0  0  2  0  0  0  0  0  0
  161.0590  202.1280  150.6570 C   0  0  0  0  0  1  0  0  0  0  0  0
  161.9510  210.5180  150.7780 C   0  0  0  0  0  2  0  0  0  0  0  0
  162.0370  210.9060  149.3150 C   0  0  0  0  0  2  0  0  0  0  0  0
  161.6620  212.3700  149.1590 C   0  0  0  0  0  2  0  0  0  0  0  0
  162.3240  212.9690  147.9250 C   0  0  0  0  0  2  0  0  0  0  0  0
  161.3750  213.1090  146.8270 N   0  0  0  0  0  0  0  0  0  0  0  0
  159.9470  213.0390  147.1180 C   0  0  0  0  0  1  0  0  0  0  0  0
  161.8470  213.3370  145.4900 C   0  0  0  0  0  0  0  0  0  0  0  0
  163.0780  213.2560  145.2340 O   0  0  0  0  0  0  0  0  0  0  0  0
  160.9060  213.7340  144.3970 C   0  0  0  0  0  2  0  0  0  0  0  0
  160.0070  211.8660  141.4870 C   0  0  0  0  0  2  0  0  0  0  0  0
  160.6470  213.0350  140.9020 N   0  0  0  0  0  2  0  0  0  0  0  0
  160.4400  211.7960  142.9240 C   0  0  0  0  0  2  0  0  0  0  0  0
  161.2760  213.0290  143.1040 C   0  0  1  0  0  3  0  0  0  0  0  0
  161.0010  213.8850  141.9640 N   0  0  0  0  0  2  0  0  0  0  0  0
  1 17  1  0  0  0  0
  2  6  2  0  0  0  0
  2  3  1  0  0  0  0
  3  7  2  0  0  0  0
  5  4  2  0  0  0  0
  6  5  1  0  0  0  0
  7  4  1  0  0  0  0
  7  1  1  0  0  0  0
  8  6  1  0  0  0  0
  9 10  1  6  0  0  0
  9  8  1  0  0  0  0
  9 13  1  0  0  0  0
 11 16  2  0  0  0  0
 13 12  2  0  0  0  0
 14 16  1  0  0  0  0
 14 13  1  0  0  0  0
 16 15  1  0  0  0  0
 18 25  1  1  0  0  0
 19 26  1  1  0  0  0
 19 22  1  0  0  0  0
 19 21  1  0  0  0  0
 20 17  1  6  0  0  0
 20 23  1  0  0  0  0
 20 18  1  0  0  0  0
 22 24  1  0  0  0  0
 23 21  1  6  0  0  0
 23 18  1  0  0  0  0
 24 23  1  0  0  0  0
 27 26  1  0  0  0  0
 28  1  1  0  0  0  0
 29 28  1  0  0  0  0
 30 29  1  0  0  0  0
 31 30  1  0  0  0  0
 32 33  1  0  0  0  0
 32 31  1  0  0  0  0
 34 32  1  0  0  0  0
 35 34  2  0  0  0  0
 36 34  1  0  0  0  0
 37 39  1  0  0  0  0
 38 37  1  0  0  0  0
 38 41  1  0  0  0  0
 39 40  1  0  0  0  0
 40 36  1  1  0  0  0
 41 40  1  0  0  0  0
M  END
>  <MODEL>
7

>  <REMARK>
 VINA RESULT:      -6.2      3.823      8.100
  Name = 
  14 active torsions:
  status: ('A' for Active; 'I' for Inactive)
    1  A    between atoms: C_3  and  C_13
    2  A    between atoms: C_3  and  C_25
    3  A    between atoms: C_4  and  C_8
    4  A    between atoms: C_4  and  C_24
    5  A    between atoms: C_5  and  C_6
    6  A    between atoms: C_8  and  C_36
    7  A    between atoms: N_10  and  C_13
    8  A    between atoms: C_12  and  C_35
    9  A    between atoms: N_18  and  C_35
   10  A    between atoms: N_18  and  C_38
   11  A    between atoms: N_18  and  C_41
   12  A    between atoms: C_25  and  C_38
   13  A    between atoms: C_31  and  C_39
   14  A    between atoms: C_32  and  C_39
                            x       y       z     vdW  Elec       q    Type
                         _______ _______ _______ _____ _____    ______ ____

>  <TORSDO>
F 14

$$$$
=
 OpenBabel11072412523D

 41 44  0  0  1  0  0  0  0  0999 V2000
  162.1080  209.7870  150.5320 N   0  0  0  0  0  0  0  0  0  0  0  0
  162.2010  207.7070  147.4050 C   0  0  0  0  0  3  0  0  0  0  0  0
  162.4900  208.7030  148.3400 C   0  0  0  0  0  3  0  0  0  0  0  0
  160.8270  207.7850  149.8360 C   0  0  0  0  0  3  0  0  0  0  0  0
  160.5330  206.7910  148.9010 C   0  0  0  0  0  3  0  0  0  0  0  0
  161.2170  206.7520  147.6820 C   0  0  0  0  0  0  0  0  0  0  0  0
  161.8050  208.7560  149.5680 C   0  0  0  0  0  0  0  0  0  0  0  0
  160.9270  205.6710  146.6950 C   0  0  0  0  0  2  0  0  0  0  0  0
  161.9990  204.5870  146.7370 C   0  0  2  0  0  3  0  0  0  0  0  0
  163.1080  204.9980  145.9970 O   0  0  0  0  0  1  0  0  0  0  0  0
  161.3850  199.8520  147.4720 O   0  0  0  0  0  0  0  0  0  0  0  0
  160.8780  203.2770  145.0890 O   0  0  0  0  0  0  0  0  0  0  0  0
  161.4770  203.2950  146.1980 C   0  0  0  0  0  0  0  0  0  0  0  0
  161.6440  202.1040  146.9740 N   0  0  0  0  0  2  0  0  0  0  0  0
  160.0820  200.4660  145.2620 S   0  0  0  0  0  1  0  0  0  0  0  0
  161.1170  200.8010  146.6910 C   0  0  0  0  0  0  0  0  0  0  0  0
  162.0900  211.2040  150.1780 C   0  0  0  0  0  2  0  0  0  0  0  0
  162.7130  212.6920  148.2920 C   0  0  2  0  0  3  0  0  0  0  0  0
  159.0840  212.8430  147.5710 C   0  0  1  0  0  3  0  0  0  0  0  0
  162.0200  211.3800  148.6660 C   0  0  2  0  0  3  0  0  0  0  0  0
  160.3900  212.3730  147.0200 C   0  0  0  0  0  2  0  0  0  0  0  0
  159.3770  213.6900  148.6630 O   0  0  0  0  0  0  0  0  0  0  0  0
  161.2000  212.5880  148.2440 C   0  0  2  0  0  0  0  0  0  0  0  0
  160.4630  213.1980  149.2610 O   0  0  0  0  0  0  0  0  0  0  0  0
  163.3360  212.5670  146.9160 C   0  0  0  0  0  1  0  0  0  0  0  0
  158.3130  213.6030  146.5080 C   0  0  0  0  0  2  0  0  0  0  0  0
  157.1460  212.7630  146.0150 C   0  0  0  0  0  1  0  0  0  0  0  0
  162.3300  209.4490  151.9340 C   0  0  0  0  0  2  0  0  0  0  0  0
  161.3750  210.2310  152.8150 C   0  0  0  0  0  2  0  0  0  0  0  0
  160.8330  209.3200  153.9030 C   0  0  0  0  0  2  0  0  0  0  0  0
  161.8260  208.2100  154.2220 C   0  0  0  0  0  2  0  0  0  0  0  0
  161.1980  206.8960  154.1440 N   0  0  0  0  0  0  0  0  0  0  0  0
  160.1270  206.5710  155.0800 C   0  0  0  0  0  1  0  0  0  0  0  0
  161.6170  205.9540  153.1440 C   0  0  0  0  0  0  0  0  0  0  0  0
  162.6320  206.1950  152.4380 O   0  0  0  0  0  0  0  0  0  0  0  0
  160.8290  204.7100  152.8780 C   0  0  0  0  0  2  0  0  0  0  0  0
  160.8310  201.9540  150.6050 C   0  0  0  0  0  2  0  0  0  0  0  0
  160.5110  203.0660  149.7220 N   0  0  0  0  0  2  0  0  0  0  0  0
  161.4350  202.5370  151.8510 C   0  0  0  0  0  2  0  0  0  0  0  0
  161.3460  204.0190  151.6290 C   0  0  1  0  0  3  0  0  0  0  0  0
  160.4260  204.2170  150.5230 N   0  0  0  0  0  2  0  0  0  0  0  0
  1 28  1  0  0  0  0
  2  6  2  0  0  0  0
  2  3  1  0  0  0  0
  3  7  2  0  0  0  0
  5  4  2  0  0  0  0
  6  5  1  0  0  0  0
  7  4  1  0  0  0  0
  7  1  1  0  0  0  0
  8  9  1  0  0  0  0
  8  6  1  0  0  0  0
  9 10  1  6  0  0  0
 12 13  2  0  0  0  0
 13  9  1  0  0  0  0
 13 14  1  0  0  0  0
 15 16  1  0  0  0  0
 16 14  1  0  0  0  0
 16 11  2  0  0  0  0
 17  1  1  0  0  0  0
 18 25  1  6  0  0  0
 18 20  1  0  0  0  0
 19 26  1  6  0  0  0
 19 22  1  0  0  0  0
 20 17  1  1  0  0  0
 21 19  1  0  0  0  0
 22 24  1  0  0  0  0
 23 21  1  6  0  0  0
 23 18  1  0  0  0  0
 23 20  1  0  0  0  0
 23 24  1  0  0  0  0
 27 26  1  0  0  0  0
 28 29  1  0  0  0  0
 29 30  1  0  0  0  0
 30 31  1  0  0  0  0
 32 31  1  0  0  0  0
 32 33  1  0  0  0  0
 34 32  1  0  0  0  0
 35 34  2  0  0  0  0
 36 34  1  0  0  0  0
 37 39  1  0  0  0  0
 38 41  1  0  0  0  0
 38 37  1  0  0  0  0
 40 39  1  0  0  0  0
 40 36  1  1  0  0  0
 41 40  1  0  0  0  0
M  END
>  <MODEL>
8

>  <REMARK>
 VINA RESULT:      -6.0      3.511      7.428
  Name = 
  14 active torsions:
  status: ('A' for Active; 'I' for Inactive)
    1  A    between atoms: C_3  and  C_13
    2  A    between atoms: C_3  and  C_25
    3  A    between atoms: C_4  and  C_8
    4  A    between atoms: C_4  and  C_24
    5  A    between atoms: C_5  and  C_6
    6  A    between atoms: C_8  and  C_36
    7  A    between atoms: N_10  and  C_13
    8  A    between atoms: C_12  and  C_35
    9  A    between atoms: N_18  and  C_35
   10  A    between atoms: N_18  and  C_38
   11  A    between atoms: N_18  and  C_41
   12  A    between atoms: C_25  and  C_38
   13  A    between atoms: C_31  and  C_39
   14  A    between atoms: C_32  and  C_39
                            x       y       z     vdW  Elec       q    Type
                         _______ _______ _______ _____ _____    ______ ____

>  <TORSDO>
F 14

$$$$
=
 OpenBabel11072412523D

 41 44  0  0  1  0  0  0  0  0999 V2000
  161.5130  209.0110  151.6060 N   0  0  0  0  0  0  0  0  0  0  0  0
  160.8290  206.2320  149.1720 C   0  0  0  0  0  3  0  0  0  0  0  0
  161.0680  207.5050  149.6930 C   0  0  0  0  0  3  0  0  0  0  0  0
  161.2220  206.5710  151.9180 C   0  0  0  0  0  3  0  0  0  0  0  0
  160.9780  205.2970  151.4010 C   0  0  0  0  0  3  0  0  0  0  0  0
  160.7780  205.1250  150.0280 C   0  0  0  0  0  0  0  0  0  0  0  0
  161.2650  207.6930  151.0730 C   0  0  0  0  0  0  0  0  0  0  0  0
  160.5510  203.7600  149.4700 C   0  0  0  0  0  2  0  0  0  0  0  0
  161.6450  203.3840  148.4780 C   0  0  2  0  0  3  0  0  0  0  0  0
  161.8150  204.4150  147.5550 O   0  0  0  0  0  1  0  0  0  0  0  0
  159.8850  201.3360  144.4720 O   0  0  0  0  0  0  0  0  0  0  0  0
  161.5750  201.0060  148.3060 O   0  0  0  0  0  0  0  0  0  0  0  0
  161.3100  202.1130  147.7650 C   0  0  0  0  0  0  0  0  0  0  0  0
  160.7190  202.1850  146.4640 N   0  0  0  0  0  2  0  0  0  0  0  0
  160.8360  199.3910  145.9790 S   0  0  0  0  0  1  0  0  0  0  0  0
  160.4340  201.0950  145.5770 C   0  0  0  0  0  0  0  0  0  0  0  0
  160.9840  209.4310  152.9010 C   0  0  0  0  0  2  0  0  0  0  0  0
  160.3700  211.8300  153.0640 C   0  0  2  0  0  3  0  0  0  0  0  0
  157.7990  210.7270  155.4880 C   0  0  1  0  0  3  0  0  0  0  0  0
  159.8500  210.4330  152.7200 C   0  0  2  0  0  3  0  0  0  0  0  0
  157.9790  211.3460  154.1410 C   0  0  0  0  0  2  0  0  0  0  0  0
  159.0590  210.7490  156.1260 O   0  0  0  0  0  0  0  0  0  0  0  0
  159.4370  211.1080  154.0190 C   0  0  2  0  0  0  0  0  0  0  0  0
  159.9800  210.5550  155.1810 O   0  0  0  0  0  0  0  0  0  0  0  0
  159.6420  212.8670  152.2310 C   0  0  0  0  0  1  0  0  0  0  0  0
  156.7880  211.5210  156.2950 C   0  0  0  0  0  2  0  0  0  0  0  0
  157.0930  213.0060  156.1920 C   0  0  0  0  0  1  0  0  0  0  0  0
  162.4040  209.9350  150.9150 C   0  0  0  0  0  2  0  0  0  0  0  0
  161.6000  210.8790  150.0420 C   0  0  0  0  0  2  0  0  0  0  0  0
  162.2030  210.9130  148.6480 C   0  0  0  0  0  2  0  0  0  0  0  0
  162.5800  212.3350  148.2570 C   0  0  0  0  0  2  0  0  0  0  0  0
  161.4920  212.9990  147.5470 N   0  0  0  0  0  0  0  0  0  0  0  0
  160.2530  213.2810  148.2640 C   0  0  0  0  0  1  0  0  0  0  0  0
  161.6570  213.3870  146.1740 C   0  0  0  0  0  0  0  0  0  0  0  0
  162.6750  213.0130  145.5330 O   0  0  0  0  0  0  0  0  0  0  0  0
  160.6670  214.2850  145.5020 C   0  0  0  0  0  2  0  0  0  0  0  0
  161.2420  212.3920  142.5270 C   0  0  0  0  0  2  0  0  0  0  0  0
  160.2070  211.6060  143.1830 N   0  0  0  0  0  2  0  0  0  0  0  0
  161.2130  213.7630  143.1410 C   0  0  0  0  0  2  0  0  0  0  0  0
  160.1710  213.6490  144.2150 C   0  0  1  0  0  3  0  0  0  0  0  0
  159.9320  212.2300  144.4110 N   0  0  0  0  0  2  0  0  0  0  0  0
  1 17  1  0  0  0  0
  2  3  2  0  0  0  0
  2  6  1  0  0  0  0
  3  7  1  0  0  0  0
  5  4  1  0  0  0  0
  6  5  2  0  0  0  0
  7  1  1  0  0  0  0
  7  4  2  0  0  0  0
  8  6  1  0  0  0  0
  9 10  1  6  0  0  0
  9  8  1  0  0  0  0
 11 16  2  0  0  0  0
 13 12  2  0  0  0  0
 13  9  1  0  0  0  0
 14 13  1  0  0  0  0
 16 15  1  0  0  0  0
 16 14  1  0  0  0  0
 18 25  1  6  0  0  0
 18 23  1  0  0  0  0
 19 22  1  0  0  0  0
 19 26  1  1  0  0  0
 20 17  1  1  0  0  0
 20 18  1  0  0  0  0
 20 23  1  0  0  0  0
 21 19  1  0  0  0  0
 23 21  1  1  0  0  0
 23 24  1  0  0  0  0
 24 22  1  0  0  0  0
 27 26  1  0  0  0  0
 28  1  1  0  0  0  0
 29 28  1  0  0  0  0
 30 29  1  0  0  0  0
 31 30  1  0  0  0  0
 32 31  1  0  0  0  0
 32 33  1  0  0  0  0
 34 32  1  0  0  0  0
 35 34  2  0  0  0  0
 36 34  1  0  0  0  0
 37 39  1  0  0  0  0
 37 38  1  0  0  0  0
 38 41  1  0  0  0  0
 39 40  1  0  0  0  0
 40 41  1  0  0  0  0
 40 36  1  1  0  0  0
M  END
>  <MODEL>
9

>  <REMARK>
 VINA RESULT:      -5.8      3.233      7.417
  Name = 
  14 active torsions:
  status: ('A' for Active; 'I' for Inactive)
    1  A    between atoms: C_3  and  C_13
    2  A    between atoms: C_3  and  C_25
    3  A    between atoms: C_4  and  C_8
    4  A    between atoms: C_4  and  C_24
    5  A    between atoms: C_5  and  C_6
    6  A    between atoms: C_8  and  C_36
    7  A    between atoms: N_10  and  C_13
    8  A    between atoms: C_12  and  C_35
    9  A    between atoms: N_18  and  C_35
   10  A    between atoms: N_18  and  C_38
   11  A    between atoms: N_18  and  C_41
   12  A    between atoms: C_25  and  C_38
   13  A    between atoms: C_31  and  C_39
   14  A    between atoms: C_32  and  C_39
                            x       y       z     vdW  Elec       q    Type
                         _______ _______ _______ _____ _____    ______ ____

>  <TORSDO>
F 14

$$$$
