=
 OpenBabel11072413413D

 67 71  0  0  1  0  0  0  0  0999 V2000
  161.9030  209.5870  150.3160 C   0  0  0  0  0  3  0  0  0  0  0  0
  161.4700  210.7600  150.8320 C   0  0  0  0  0  0  0  0  0  0  0  0
  159.1450  211.7860  152.0470 N   0  0  0  0  0  0  0  0  0  0  0  0
  161.0440  211.5600  155.4380 C   0  0  0  0  0  3  0  0  0  0  0  0
  162.5100  210.3230  153.0510 C   0  0  0  0  0  3  0  0  0  0  0  0
  157.8570  212.5080  153.8910 N   0  0  0  0  0  0  0  0  0  0  0  0
  158.0380  212.2910  152.4880 C   0  0  0  0  0  3  0  0  0  0  0  0
  158.9290  212.2200  154.7580 N   0  0  0  0  0  0  0  0  0  0  0  0
  162.8800  210.3600  154.3220 C   0  0  0  0  0  3  0  0  0  0  0  0
  162.2060  211.0020  155.3970 N   0  0  0  0  0  0  0  0  0  0  0  0
  160.2470  211.4350  152.9050 C   0  0  0  0  0  0  0  0  0  0  0  0
  160.0540  211.6990  154.3660 C   0  0  0  0  0  0  0  0  0  0  0  0
  161.3500  210.8810  152.3270 C   0  0  0  0  0  0  0  0  0  0  0  0
  156.7460  213.3560  154.3590 C   0  0  2  0  0  0  0  0  0  0  0  0
  157.2830  214.3710  155.1510 O   0  0  0  0  0  1  0  0  0  0  0  0
  155.7580  212.5510  155.2390 C   0  0  1  0  0  3  0  0  0  0  0  0
  155.7940  211.1810  154.9470 O   0  0  0  0  0  1  0  0  0  0  0  0
  157.2110  212.4480  157.2590 C   0  0  0  0  0  1  0  0  0  0  0  0
  155.5480  214.2750  157.1030 C   0  0  0  0  0  1  0  0  0  0  0  0
  155.8380  212.8270  156.7470 C   0  0  0  0  0  3  0  0  0  0  0  0
  154.6560  214.1560  153.4170 O   0  0  0  0  0  1  0  0  0  0  0  0
  156.0250  214.0290  153.1820 C   0  0  0  0  0  2  0  0  0  0  0  0
  162.2270  209.3080  148.9780 O   0  0  0  0  0  0  0  0  0  0  0  0
  162.7270  208.0640  148.5030 C   0  0  0  0  0  2  0  0  0  0  0  0
  161.6180  207.2580  147.8440 C   0  0  2  0  0  3  0  0  0  0  0  0
  161.2200  206.0860  148.7350 C   0  0  0  0  0  2  0  0  0  0  0  0
  160.8650  206.5250  150.0150 O   0  0  0  0  0  0  0  0  0  0  0  0
  161.8060  205.9380  150.8610 C   0  0  0  0  0  2  0  0  0  0  0  0
  161.6550  207.1500  153.1350 C   0  0  0  0  0  1  0  0  0  0  0  0
  160.6540  205.0650  152.7230 O   0  0  0  0  0  0  0  0  0  0  0  0
  161.3170  205.9850  152.2710 C   0  0  0  0  0  0  0  0  0  0  0  0
  162.0860  206.7480  146.4910 C   0  0  0  0  0  2  0  0  0  0  0  0
  159.8790  205.8870  146.2340 O   0  0  0  0  0  0  0  0  0  0  0  0
  161.0870  205.8230  145.8870 C   0  0  0  0  0  0  0  0  0  0  0  0
  161.5150  204.8340  144.9540 N   0  0  0  0  0  2  0  0  0  0  0  0
  160.6500  203.8090  144.5550 N   0  0  0  0  0  2  0  0  0  0  0  0
  160.4370  202.6590  145.3700 C   0  0  0  0  0  0  0  0  0  0  0  0
  159.2820  201.5780  144.9300 S   0  0  0  0  0  0  0  0  0  0  0  0
  161.2720  202.4290  146.5130 N   0  0  0  0  0  2  0  0  0  0  0  0
  160.8210  201.7060  147.6890 C   0  0  0  0  0  2  0  0  0  0  0  0
  161.0810  201.5980  150.1360 C   0  0  0  0  0  2  0  0  0  0  0  0
  161.1400  202.5140  148.9300 C   0  0  0  0  0  3  0  0  0  0  0  0
  159.9250  202.5270  149.8380 C   0  0  0  0  0  2  0  0  0  0  0  0
  161.2350  211.9720  149.9690 C   0  0  0  0  0  2  0  0  0  0  0  0
  162.2590  212.0700  148.8380 C   0  0  0  0  0  2  0  0  0  0  0  0
  161.7690  212.8510  147.6180 C   0  0  2  0  0  3  0  0  0  0  0  0
  160.9090  212.8920  144.7610 C   0  0  0  0  0  2  0  0  0  0  0  0
  161.9470  214.0220  144.7210 C   0  0  1  0  0  3  0  0  0  0  0  0
  160.0820  213.0090  145.8900 O   0  0  0  0  0  0  0  0  0  0  0  0
  160.6320  212.1480  146.8530 C   0  0  0  0  0  2  0  0  0  0  0  0
  162.5220  214.3170  146.1140 C   0  0  0  0  0  2  0  0  0  0  0  0
  162.8540  213.1230  146.7700 O   0  0  0  0  0  0  0  0  0  0  0  0
  163.0580  213.6380  143.7500 C   0  0  0  0  0  2  0  0  0  0  0  0
  162.5660  212.6620  142.6890 C   0  0  0  0  0  2  0  0  0  0  0  0
  162.6460  213.2440  141.3100 C   0  0  0  0  0  0  0  0  0  0  0  0
  162.7880  214.4490  141.1710 O   0  0  0  0  0  0  0  0  0  0  0  0
  162.6050  212.3620  140.0870 C   0  0  1  0  0  3  0  0  0  0  0  0
  157.9470  211.6560  138.1730 S   0  0  0  0  0  0  0  0  0  0  0  0
  160.3250  212.4460  139.1760 N   0  0  0  0  0  0  0  0  0  0  0  0
  159.6990  210.2420  139.6540 N   0  0  0  0  0  0  0  0  0  0  0  0
  161.2360  211.7930  139.8250 C   0  0  0  0  0  0  0  0  0  0  0  0
  160.8680  210.4380  140.1080 N   0  0  0  0  0  0  0  0  0  0  0  0
  159.2970  211.4720  139.0790 C   0  0  0  0  0  0  0  0  0  0  0  0
  162.4620  214.0670  138.4230 F   0  0  0  0  0  0  0  0  0  0  0  0
  163.2490  213.0150  138.8580 C   0  0  0  0  0  0  0  0  0  0  0  0
  164.5250  213.4940  139.1640 O   0  0  0  0  0  1  0  0  0  0  0  0
  163.3480  212.0860  137.8380 F   0  0  0  0  0  0  0  0  0  0  0  0
  1  2  2  0  0  0  0
  2 13  1  0  0  0  0
  3  7  2  0  0  0  0
  3 11  1  0  0  0  0
  5  9  2  0  0  0  0
  6 14  1  0  0  0  0
  6  8  1  0  0  0  0
  7  6  1  0  0  0  0
  9 10  1  0  0  0  0
 10  4  2  0  0  0  0
 11 12  1  0  0  0  0
 12  8  2  0  0  0  0
 12  4  1  0  0  0  0
 13 11  2  0  0  0  0
 13  5  1  0  0  0  0
 14 15  1  1  0  0  0
 14 16  1  0  0  0  0
 16 17  1  1  0  0  0
 16 20  1  0  0  0  0
 20 19  1  0  0  0  0
 20 18  1  0  0  0  0
 22 21  1  0  0  0  0
 22 14  1  0  0  0  0
 23  1  1  0  0  0  0
 24 23  1  0  0  0  0
 25 32  1  6  0  0  0
 25 24  1  0  0  0  0
 25 26  1  0  0  0  0
 26 27  1  0  0  0  0
 27 28  1  0  0  0  0
 28 31  1  0  0  0  0
 31 30  2  0  0  0  0
 31 29  1  0  0  0  0
 34 33  2  0  0  0  0
 34 32  1  0  0  0  0
 35 34  1  0  0  0  0
 36 35  1  0  0  0  0
 36 37  1  0  0  0  0
 37 39  1  0  0  0  0
 38 37  2  0  0  0  0
 39 40  1  0  0  0  0
 40 42  1  0  0  0  0
 42 43  1  0  0  0  0
 42 41  1  0  0  0  0
 43 41  1  0  0  0  0
 44  2  1  0  0  0  0
 45 44  1  0  0  0  0
 46 45  1  1  0  0  0
 47 49  1  0  0  0  0
 48 53  1  6  0  0  0
 48 47  1  0  0  0  0
 48 51  1  0  0  0  0
 49 50  1  0  0  0  0
 50 46  1  0  0  0  0
 51 52  1  0  0  0  0
 52 46  1  0  0  0  0
 54 53  1  0  0  0  0
 55 54  1  0  0  0  0
 56 55  2  0  0  0  0
 57 55  1  1  0  0  0
 58 63  2  0  0  0  0
 59 61  2  0  0  0  0
 60 62  2  0  0  0  0
 61 57  1  0  0  0  0
 61 62  1  0  0  0  0
 63 59  1  0  0  0  0
 63 60  1  0  0  0  0
 64 65  1  0  0  0  0
 65 66  1  0  0  0  0
 65 57  1  0  0  0  0
 67 65  1  0  0  0  0
M  END
>  <MODEL>
1

>  <REMARK>
 VINA RESULT:      -5.4      0.000      0.000
  Name = 
  28 active torsions:
  status: ('A' for Active; 'I' for Inactive)
    1  A    between atoms: C_1  and  C_46
    2  A    between atoms: C_3  and  N_42
    3  A    between atoms: C_3  and  N_50
    4  A    between atoms: C_6  and  C_45
    5  A    between atoms: C_8  and  C_45
    6  A    between atoms: C_8  and  C_64
    7  A    between atoms: C_8  and  C_65
    8  A    between atoms: C_12  and  C_62
    9  A    between atoms: C_13  and  C_48
   10  A    between atoms: C_14  and  O_52
   11  A    between atoms: C_16  and  C_51
   12  A    between atoms: N_17  and  C_62
   13  A    between atoms: C_21  and  C_63
   14  A    between atoms: C_22  and  C_54
   15  A    between atoms: C_22  and  C_62
   16  A    between atoms: C_26  and  C_46
   17  A    between atoms: C_26  and  C_57
   18  A    between atoms: C_30  and  C_51
   19  A    between atoms: C_30  and  C_61
   20  A    between atoms: C_34  and  O_38
   21  A    between atoms: C_34  and  C_56
   22  A    between atoms: O_38  and  C_65
   23  A    between atoms: N_42  and  N_67
   24  A    between atoms: C_47  and  C_51
   25  A    between atoms: C_48  and  N_50
   26  A    between atoms: O_52  and  C_64
   27  A    between atoms: C_57  and  C_60
   28  A    between atoms: C_61  and  C_63
                            x       y       z     vdW  Elec       q    Type
                         _______ _______ _______ _____ _____    ______ ____

>  <TORSDO>
F 28

$$$$
