=
 OpenBabel11072412213D

 68 74  0  0  1  0  0  0  0  0999 V2000
  160.9000  213.2660  149.9030 C   0  0  0  0  0  0  0  0  0  0  0  0
  159.6640  210.1510  157.1080 C   0  0  0  0  0  1  0  0  0  0  0  0
  160.0190  211.3990  156.3110 C   0  0  0  0  0  0  0  0  0  0  0  0
  161.3280  214.4420  149.7490 O   0  0  0  0  0  0  0  0  0  0  0  0
  160.9240  211.1040  155.0940 C   0  0  2  0  0  3  0  0  0  0  0  0
  160.1210  211.0590  152.9330 N   0  0  0  0  0  0  0  0  0  0  0  0
  160.4150  211.9850  154.0050 C   0  0  1  0  0  3  0  0  0  0  0  0
  160.7580  212.3420  157.2460 C   0  0  0  0  0  1  0  0  0  0  0  0
  160.6790  212.7710  151.2270 N   0  0  0  0  0  2  0  0  0  0  0  0
  158.8340  212.0240  155.8720 O   0  0  0  0  0  0  0  0  0  0  0  0
  160.7530  209.6930  154.5170 C   0  0  1  0  0  3  0  0  0  0  0  0
  160.6380  212.4450  148.7590 N   0  0  0  0  0  2  0  0  0  0  0  0
  158.0370  213.1060  153.7280 C   0  0  2  0  0  3  0  0  0  0  0  0
  160.2910  210.5300  150.6750 O   0  0  0  0  0  0  0  0  0  0  0  0
  159.1400  212.5180  154.5970 C   0  0  2  0  0  0  0  0  0  0  0  0
  160.0450  209.7540  153.2990 O   0  0  0  0  0  0  0  0  0  0  0  0
  160.3580  211.4160  151.5680 C   0  0  0  0  0  0  0  0  0  0  0  0
  158.9870  214.0180  154.5000 C   0  0  0  0  0  2  0  0  0  0  0  0
  156.8440  213.1720  155.8080 O   0  0  0  0  0  0  0  0  0  0  0  0
  156.8300  210.6930  153.9770 F   0  0  0  0  0  0  0  0  0  0  0  0
  156.6800  213.0440  154.4250 C   0  0  2  0  0  3  0  0  0  0  0  0
  155.2810  211.5460  155.5070 C   0  0  0  0  0  2  0  0  0  0  0  0
  155.7120  212.6470  156.3570 N   0  0  0  0  0  2  0  0  0  0  0  0
  155.9520  211.7440  154.1860 C   0  0  2  0  0  3  0  0  0  0  0  0
  162.0990  208.9740  154.3730 C   0  0  0  0  0  2  0  0  0  0  0  0
  161.3750  205.6390  152.1810 C   0  0  1  0  0  0  0  0  0  0  0  0
  160.6170  207.0840  153.9890 O   0  0  0  0  0  0  0  0  0  0  0  0
  161.0720  206.7120  151.3240 O   0  0  0  0  0  0  0  0  0  0  0  0
  162.6990  205.8050  152.5650 O   0  0  0  0  0  0  0  0  0  0  0  0
  160.5220  205.7650  153.4660 C   0  0  0  0  0  2  0  0  0  0  0  0
  161.9820  207.4860  154.0520 C   0  0  1  0  0  3  0  0  0  0  0  0
  162.6980  207.1840  152.7120 C   0  0  2  0  0  3  0  0  0  0  0  0
  161.9180  207.6880  151.6550 O   0  0  0  0  0  0  0  0  0  0  0  0
  161.1640  204.2850  151.4900 C   0  0  1  0  0  3  0  0  0  0  0  0
  160.7880  203.1900  152.4830 C   0  0  0  0  0  1  0  0  0  0  0  0
  160.1510  204.3460  150.3460 C   0  0  0  0  0  2  0  0  0  0  0  0
  160.7440  204.8400  149.1800 O   0  0  0  0  0  0  0  0  0  0  0  0
  160.6500  203.8000  148.2490 C   0  0  2  0  0  3  0  0  0  0  0  0
  160.8670  201.2760  148.2360 C   0  0  0  0  0  1  0  0  0  0  0  0
  160.3010  202.4910  148.9600 C   0  0  0  0  0  2  0  0  0  0  0  0
  161.9540  203.6900  147.4600 C   0  0  0  0  0  2  0  0  0  0  0  0
  162.5350  206.3040  147.7950 O   0  0  0  0  0  0  0  0  0  0  0  0
  162.4100  205.2530  146.7250 S   0  0  0  0  0  0  0  0  0  0  0  0
  163.7310  205.1070  146.0170 O   0  0  0  0  0  0  0  0  0  0  0  0
  161.2020  205.7370  145.5800 N   0  0  0  0  0  2  0  0  0  0  0  0
  161.3180  204.8650  144.4230 C   0  0  0  0  0  3  0  0  0  0  0  0
  160.2710  203.9450  144.4270 O   0  0  0  0  0  1  0  0  0  0  0  0
  161.2590  205.6280  143.2590 O   0  0  0  0  0  1  0  0  0  0  0  0
  161.0650  212.8100  147.4120 C   0  0  0  0  0  2  0  0  0  0  0  0
  159.8630  213.2310  146.5730 C   0  0  0  0  0  2  0  0  0  0  0  0
  159.4700  212.1190  145.6170 C   0  0  0  0  0  2  0  0  0  0  0  0
  160.5170  212.3000  140.7640 N   0  0  0  0  0  2  0  0  0  0  0  0
  158.7020  213.5390  141.5400 O   0  0  0  0  0  0  0  0  0  0  0  0
  159.1070  212.6740  144.2850 C   0  0  0  0  0  0  0  0  0  0  0  0
  158.2030  213.5480  144.1940 O   0  0  0  0  0  0  0  0  0  0  0  0
  159.6360  212.7330  141.7990 C   0  0  0  0  0  0  0  0  0  0  0  0
  159.8350  212.2440  143.1310 N   0  0  0  0  0  2  0  0  0  0  0  0
  160.7880  210.9790  137.9620 C   0  0  1  0  0  3  0  0  0  0  0  0
  159.7130  211.7550  138.6920 C   0  0  0  0  0  2  0  0  0  0  0  0
  161.7290  212.7810  138.8200 C   0  0  1  0  0  3  0  0  0  0  0  0
  162.0280  211.4880  138.3700 O   0  0  0  0  0  0  0  0  0  0  0  0
  160.4030  212.7820  139.4460 N   0  0  0  0  0  0  0  0  0  0  0  0
  161.6480  208.9570  138.8740 O   0  0  0  0  0  0  0  0  0  0  0  0
  160.6950  209.5240  138.2790 C   0  0  0  0  0  0  0  0  0  0  0  0
  159.5380  208.7710  137.9160 N   0  0  0  0  0  1  0  0  0  0  0  0
  162.8280  213.3470  139.7250 C   0  0  0  0  0  2  0  0  0  0  0  0
  164.1960  213.2160  139.0780 C   0  0  0  0  0  2  0  0  0  0  0  0
  165.0350  214.4450  139.3630 C   0  0  0  0  0  1  0  0  0  0  0  0
  1  9  1  0  0  0  0
  3  2  1  0  0  0  0
  3  8  1  0  0  0  0
  4  1  2  0  0  0  0
  5  3  1  1  0  0  0
  6 16  1  0  0  0  0
  7  6  1  6  0  0  0
  7 15  1  0  0  0  0
  7  5  1  0  0  0  0
  9 17  1  0  0  0  0
 10  3  1  0  0  0  0
 11 25  1  6  0  0  0
 11  5  1  0  0  0  0
 12  1  1  0  0  0  0
 13 21  1  0  0  0  0
 13 18  1  1  0  0  0
 13 15  1  0  0  0  0
 14 17  2  0  0  0  0
 15 18  1  1  0  0  0
 15 10  1  0  0  0  0
 16 11  1  0  0  0  0
 17  6  1  0  0  0  0
 19 23  1  0  0  0  0
 21 19  1  1  0  0  0
 22 23  1  0  0  0  0
 24 20  1  1  0  0  0
 24 21  1  0  0  0  0
 24 22  1  0  0  0  0
 26 34  1  6  0  0  0
 26 29  1  0  0  0  0
 26 30  1  0  0  0  0
 27 31  1  0  0  0  0
 28 33  1  0  0  0  0
 28 26  1  0  0  0  0
 29 32  1  0  0  0  0
 30 27  1  0  0  0  0
 31 25  1  6  0  0  0
 32 33  1  6  0  0  0
 32 31  1  0  0  0  0
 34 35  1  1  0  0  0
 36 34  1  0  0  0  0
 37 36  1  0  0  0  0
 38 41  1  1  0  0  0
 38 40  1  0  0  0  0
 38 37  1  0  0  0  0
 39 40  1  0  0  0  0
 43 41  1  0  0  0  0
 43 42  2  0  0  0  0
 44 43  2  0  0  0  0
 45 43  1  0  0  0  0
 46 47  1  0  0  0  0
 46 45  1  0  0  0  0
 48 46  1  0  0  0  0
 49 12  1  0  0  0  0
 50 49  1  0  0  0  0
 51 50  1  0  0  0  0
 52 56  1  0  0  0  0
 53 56  2  0  0  0  0
 54 51  1  0  0  0  0
 55 54  2  0  0  0  0
 56 57  1  0  0  0  0
 57 54  1  0  0  0  0
 58 64  1  1  0  0  0
 58 61  1  0  0  0  0
 58 59  1  0  0  0  0
 59 62  1  0  0  0  0
 60 62  1  0  0  0  0
 60 66  1  1  0  0  0
 61 60  1  0  0  0  0
 62 52  1  0  0  0  0
 64 63  2  0  0  0  0
 65 64  1  0  0  0  0
 67 68  1  0  0  0  0
 67 66  1  0  0  0  0
M  END
>  <MODEL>
1

>  <REMARK>
 VINA RESULT:      -4.3      0.000      0.000
  Name = 
  20 active torsions:
  status: ('A' for Active; 'I' for Inactive)
    1  A    between atoms: C_1  and  C_29
    2  A    between atoms: C_2  and  C_22
    3  A    between atoms: C_2  and  C_24
    4  A    between atoms: C_9  and  N_18
    5  A    between atoms: C_12  and  C_34
    6  A    between atoms: C_12  and  C_38
    7  A    between atoms: C_13  and  C_36
    8  A    between atoms: C_13  and  C_52
    9  A    between atoms: C_17  and  O_31
   10  A    between atoms: C_17  and  C_37
   11  A    between atoms: C_17  and  C_49
   12  A    between atoms: N_18  and  S_42
   13  A    between atoms: C_24  and  O_31
   14  A    between atoms: C_25  and  C_45
   15  A    between atoms: N_30  and  N_66
   16  A    between atoms: C_34  and  C_67
   17  A    between atoms: C_37  and  S_42
   18  A    between atoms: N_41  and  C_67
   19  A    between atoms: C_43  and  C_47
   20  A    between atoms: C_47  and  C_59
                            x       y       z     vdW  Elec       q    Type
                         _______ _______ _______ _____ _____    ______ ____

>  <TORSDO>
F 20

$$$$
=
 OpenBabel11072412213D

 68 74  0  0  1  0  0  0  0  0999 V2000
  160.9920  213.2830  149.6750 C   0  0  0  0  0  0  0  0  0  0  0  0
  159.9220  209.6850  156.6790 C   0  0  0  0  0  1  0  0  0  0  0  0
  160.2900  210.9760  155.9610 C   0  0  0  0  0  0  0  0  0  0  0  0
  161.4550  214.4530  149.5900 O   0  0  0  0  0  0  0  0  0  0  0  0
  161.1370  210.7440  154.6900 C   0  0  2  0  0  3  0  0  0  0  0  0
  160.2520  210.8840  152.5660 N   0  0  0  0  0  0  0  0  0  0  0  0
  160.6190  211.7190  153.6900 C   0  0  1  0  0  3  0  0  0  0  0  0
  161.0960  211.8230  156.9310 C   0  0  0  0  0  1  0  0  0  0  0  0
  160.8050  212.6990  150.9670 N   0  0  0  0  0  2  0  0  0  0  0  0
  159.1120  211.6690  155.6170 O   0  0  0  0  0  0  0  0  0  0  0  0
  160.8960  209.3850  154.0200 C   0  0  1  0  0  3  0  0  0  0  0  0
  160.6590  212.5580  148.4860 N   0  0  0  0  0  2  0  0  0  0  0  0
  158.2730  212.9320  153.5910 C   0  0  2  0  0  3  0  0  0  0  0  0
  160.3180  210.5180  150.2700 O   0  0  0  0  0  0  0  0  0  0  0  0
  159.3860  212.2460  154.3700 C   0  0  2  0  0  0  0  0  0  0  0  0
  160.1440  209.5580  152.8390 O   0  0  0  0  0  0  0  0  0  0  0  0
  160.4500  211.3330  151.2220 C   0  0  0  0  0  0  0  0  0  0  0  0
  159.2820  213.7540  154.3880 C   0  0  0  0  0  2  0  0  0  0  0  0
  156.4440  211.5550  154.3070 O   0  0  0  0  0  0  0  0  0  0  0  0
  156.0640  213.9230  152.3720 F   0  0  0  0  0  0  0  0  0  0  0  0
  156.9420  212.8620  154.3350 C   0  0  2  0  0  3  0  0  0  0  0  0
  154.6570  212.9160  153.9460 C   0  0  0  0  0  2  0  0  0  0  0  0
  155.1080  211.6710  154.5510 N   0  0  0  0  0  2  0  0  0  0  0  0
  155.8800  213.7500  153.7350 C   0  0  2  0  0  3  0  0  0  0  0  0
  162.2100  208.6360  153.7700 C   0  0  0  0  0  2  0  0  0  0  0  0
  161.4930  205.1990  151.7380 C   0  0  1  0  0  0  0  0  0  0  0  0
  160.6660  206.7980  153.3780 O   0  0  0  0  0  0  0  0  0  0  0  0
  161.3230  206.2250  150.7920 O   0  0  0  0  0  0  0  0  0  0  0  0
  162.7880  205.3260  152.2260 O   0  0  0  0  0  0  0  0  0  0  0  0
  160.5440  205.4530  152.9330 C   0  0  0  0  0  2  0  0  0  0  0  0
  162.0400  207.1370  153.5350 C   0  0  1  0  0  3  0  0  0  0  0  0
  162.8490  206.7110  152.2840 C   0  0  2  0  0  3  0  0  0  0  0  0
  162.1890  207.1790  151.1330 O   0  0  0  0  0  0  0  0  0  0  0  0
  161.2690  203.8130  151.1190 C   0  0  1  0  0  3  0  0  0  0  0  0
  160.4920  202.8900  152.0520 C   0  0  0  0  0  1  0  0  0  0  0  0
  160.6060  203.8700  149.7420 C   0  0  0  0  0  2  0  0  0  0  0  0
  161.5610  203.7940  148.7250 O   0  0  0  0  0  0  0  0  0  0  0  0
  160.9310  203.1160  147.6760 C   0  0  2  0  0  3  0  0  0  0  0  0
  160.8380  200.8320  146.5820 C   0  0  0  0  0  1  0  0  0  0  0  0
  161.0640  201.6050  147.8760 C   0  0  0  0  0  2  0  0  0  0  0  0
  161.5160  203.5680  146.3390 C   0  0  0  0  0  2  0  0  0  0  0  0
  162.7150  205.7480  145.2950 O   0  0  0  0  0  0  0  0  0  0  0  0
  161.6070  205.3490  146.2320 S   0  0  0  0  0  0  0  0  0  0  0  0
  160.3000  205.8870  145.7120 O   0  0  0  0  0  0  0  0  0  0  0  0
  161.9110  206.0160  147.8020 N   0  0  0  0  0  2  0  0  0  0  0  0
  162.1100  207.4470  147.6420 C   0  0  0  0  0  3  0  0  0  0  0  0
  161.0060  208.1290  148.1500 O   0  0  0  0  0  1  0  0  0  0  0  0
  163.2540  207.8360  148.3360 O   0  0  0  0  0  1  0  0  0  0  0  0
  161.0470  213.0080  147.1530 C   0  0  0  0  0  2  0  0  0  0  0  0
  159.8130  213.1860  146.2760 C   0  0  0  0  0  2  0  0  0  0  0  0
  159.7110  212.0550  145.2690 C   0  0  0  0  0  2  0  0  0  0  0  0
  159.4610  211.8840  140.3100 N   0  0  0  0  0  2  0  0  0  0  0  0
  161.2510  213.0190  141.2770 O   0  0  0  0  0  0  0  0  0  0  0  0
  160.3380  212.4440  143.9760 C   0  0  0  0  0  0  0  0  0  0  0  0
  161.4650  213.0090  143.9690 O   0  0  0  0  0  0  0  0  0  0  0  0
  160.1810  212.3740  141.4400 C   0  0  0  0  0  0  0  0  0  0  0  0
  159.6720  212.1150  142.7530 N   0  0  0  0  0  2  0  0  0  0  0  0
  158.1410  211.6730  137.5010 C   0  0  1  0  0  3  0  0  0  0  0  0
  158.8820  212.7460  138.2700 C   0  0  0  0  0  2  0  0  0  0  0  0
  159.9780  210.7630  138.3210 C   0  0  1  0  0  3  0  0  0  0  0  0
  158.6940  210.4360  137.8610 O   0  0  0  0  0  0  0  0  0  0  0  0
  159.9340  212.0640  138.9960 N   0  0  0  0  0  0  0  0  0  0  0  0
  155.9810  212.6670  137.4250 O   0  0  0  0  0  0  0  0  0  0  0  0
  156.6850  211.7040  137.8250 C   0  0  0  0  0  0  0  0  0  0  0  0
  156.0840  210.6520  138.5800 N   0  0  0  0  0  1  0  0  0  0  0  0
  160.5840  209.6510  139.1820 C   0  0  0  0  0  2  0  0  0  0  0  0
  161.6100  208.8480  138.4030 C   0  0  0  0  0  2  0  0  0  0  0  0
  161.7880  207.4760  139.0210 C   0  0  0  0  0  1  0  0  0  0  0  0
  1  9  1  0  0  0  0
  3  2  1  0  0  0  0
  3  8  1  0  0  0  0
  4  1  2  0  0  0  0
  5  3  1  1  0  0  0
  6 16  1  0  0  0  0
  7  6  1  6  0  0  0
  7 15  1  0  0  0  0
  7  5  1  0  0  0  0
  9 17  1  0  0  0  0
 10  3  1  0  0  0  0
 11 25  1  6  0  0  0
 11  5  1  0  0  0  0
 12  1  1  0  0  0  0
 13 21  1  0  0  0  0
 13 15  1  0  0  0  0
 13 18  1  1  0  0  0
 14 17  2  0  0  0  0
 15 18  1  1  0  0  0
 15 10  1  0  0  0  0
 16 11  1  0  0  0  0
 17  6  1  0  0  0  0
 19 23  1  0  0  0  0
 21 19  1  6  0  0  0
 22 23  1  0  0  0  0
 24 20  1  6  0  0  0
 24 22  1  0  0  0  0
 24 21  1  0  0  0  0
 26 34  1  6  0  0  0
 26 29  1  0  0  0  0
 26 30  1  0  0  0  0
 27 31  1  0  0  0  0
 28 33  1  0  0  0  0
 28 26  1  0  0  0  0
 29 32  1  0  0  0  0
 30 27  1  0  0  0  0
 31 25  1  6  0  0  0
 32 33  1  6  0  0  0
 32 31  1  0  0  0  0
 34 35  1  1  0  0  0
 36 34  1  0  0  0  0
 37 36  1  0  0  0  0
 38 41  1  6  0  0  0
 38 40  1  0  0  0  0
 38 37  1  0  0  0  0
 39 40  1  0  0  0  0
 42 43  2  0  0  0  0
 43 41  1  0  0  0  0
 43 45  1  0  0  0  0
 44 43  2  0  0  0  0
 46 45  1  0  0  0  0
 46 47  1  0  0  0  0
 46 48  1  0  0  0  0
 49 12  1  0  0  0  0
 50 49  1  0  0  0  0
 51 50  1  0  0  0  0
 52 56  1  0  0  0  0
 53 56  2  0  0  0  0
 54 51  1  0  0  0  0
 55 54  2  0  0  0  0
 56 57  1  0  0  0  0
 57 54  1  0  0  0  0
 58 64  1  1  0  0  0
 58 61  1  0  0  0  0
 58 59  1  0  0  0  0
 59 62  1  0  0  0  0
 60 62  1  0  0  0  0
 60 66  1  1  0  0  0
 61 60  1  0  0  0  0
 62 52  1  0  0  0  0
 63 64  2  0  0  0  0
 64 65  1  0  0  0  0
 67 68  1  0  0  0  0
 67 66  1  0  0  0  0
M  END
>  <MODEL>
2

>  <REMARK>
 VINA RESULT:      -4.3      1.756      2.435
  Name = 
  20 active torsions:
  status: ('A' for Active; 'I' for Inactive)
    1  A    between atoms: C_1  and  C_29
    2  A    between atoms: C_2  and  C_22
    3  A    between atoms: C_2  and  C_24
    4  A    between atoms: C_9  and  N_18
    5  A    between atoms: C_12  and  C_34
    6  A    between atoms: C_12  and  C_38
    7  A    between atoms: C_13  and  C_36
    8  A    between atoms: C_13  and  C_52
    9  A    between atoms: C_17  and  O_31
   10  A    between atoms: C_17  and  C_37
   11  A    between atoms: C_17  and  C_49
   12  A    between atoms: N_18  and  S_42
   13  A    between atoms: C_24  and  O_31
   14  A    between atoms: C_25  and  C_45
   15  A    between atoms: N_30  and  N_66
   16  A    between atoms: C_34  and  C_67
   17  A    between atoms: C_37  and  S_42
   18  A    between atoms: N_41  and  C_67
   19  A    between atoms: C_43  and  C_47
   20  A    between atoms: C_47  and  C_59
                            x       y       z     vdW  Elec       q    Type
                         _______ _______ _______ _____ _____    ______ ____

>  <TORSDO>
F 20

$$$$
=
 OpenBabel11072412213D

 68 74  0  0  1  0  0  0  0  0999 V2000
  161.1090  213.2910  149.7750 C   0  0  0  0  0  0  0  0  0  0  0  0
  159.4210  210.6940  157.0930 C   0  0  0  0  0  1  0  0  0  0  0  0
  159.8320  211.8820  156.2330 C   0  0  0  0  0  0  0  0  0  0  0  0
  161.5540  214.4530  149.5650 O   0  0  0  0  0  0  0  0  0  0  0  0
  160.8060  211.5010  155.0970 C   0  0  2  0  0  3  0  0  0  0  0  0
  160.1350  211.3050  152.8990 N   0  0  0  0  0  0  0  0  0  0  0  0
  160.3700  212.3040  153.9200 C   0  0  1  0  0  3  0  0  0  0  0  0
  160.5200  212.8870  157.1430 C   0  0  0  0  0  1  0  0  0  0  0  0
  160.8060  212.8910  151.1140 N   0  0  0  0  0  2  0  0  0  0  0  0
  158.6800  212.4780  155.6810 O   0  0  0  0  0  0  0  0  0  0  0  0
  160.6610  210.0520  154.6110 C   0  0  1  0  0  3  0  0  0  0  0  0
  160.9110  212.3930  148.6780 N   0  0  0  0  0  2  0  0  0  0  0  0
  158.0210  213.4090  153.4220 C   0  0  2  0  0  3  0  0  0  0  0  0
  160.4360  210.6180  150.6980 O   0  0  0  0  0  0  0  0  0  0  0  0
  159.0650  212.8800  154.3950 C   0  0  2  0  0  0  0  0  0  0  0  0
  160.0270  210.0290  153.3510 O   0  0  0  0  0  0  0  0  0  0  0  0
  160.4560  211.5640  151.5300 C   0  0  0  0  0  0  0  0  0  0  0  0
  158.9290  214.3700  154.1840 C   0  0  0  0  0  2  0  0  0  0  0  0
  156.1160  212.0960  154.0570 O   0  0  0  0  0  0  0  0  0  0  0  0
  155.9510  214.3190  151.9280 F   0  0  0  0  0  0  0  0  0  0  0  0
  156.6240  213.3990  154.0380 C   0  0  2  0  0  3  0  0  0  0  0  0
  154.3880  213.4360  153.4280 C   0  0  0  0  0  2  0  0  0  0  0  0
  154.7640  212.2360  154.1620 N   0  0  0  0  0  2  0  0  0  0  0  0
  155.6350  214.2470  153.2760 C   0  0  2  0  0  3  0  0  0  0  0  0
  162.0080  209.3220  154.5990 C   0  0  0  0  0  2  0  0  0  0  0  0
  161.2020  205.8590  152.6450 C   0  0  1  0  0  0  0  0  0  0  0  0
  160.5440  207.3870  154.4240 O   0  0  0  0  0  0  0  0  0  0  0  0
  160.8160  206.8790  151.7570 O   0  0  0  0  0  0  0  0  0  0  0  0
  162.5470  206.0700  152.9230 O   0  0  0  0  0  0  0  0  0  0  0  0
  160.4410  206.0400  153.9800 C   0  0  0  0  0  2  0  0  0  0  0  0
  161.9010  207.8160  154.3670 C   0  0  1  0  0  3  0  0  0  0  0  0
  162.5250  207.4550  152.9960 C   0  0  2  0  0  3  0  0  0  0  0  0
  161.6610  207.8860  151.9730 O   0  0  0  0  0  0  0  0  0  0  0  0
  160.9730  204.4660  152.0450 C   0  0  1  0  0  3  0  0  0  0  0  0
  159.9640  203.6560  152.8520 C   0  0  0  0  0  1  0  0  0  0  0  0
  160.5720  204.5070  150.5690 C   0  0  0  0  0  2  0  0  0  0  0  0
  161.6470  204.1460  149.7510 O   0  0  0  0  0  0  0  0  0  0  0  0
  161.0750  203.7970  148.5220 C   0  0  2  0  0  3  0  0  0  0  0  0
  160.7540  201.6980  147.1400 C   0  0  0  0  0  1  0  0  0  0  0  0
  160.6820  202.3190  148.5300 C   0  0  0  0  0  2  0  0  0  0  0  0
  162.0430  204.1250  147.3870 C   0  0  0  0  0  2  0  0  0  0  0  0
  162.4300  205.9670  145.4530 O   0  0  0  0  0  0  0  0  0  0  0  0
  161.8660  205.8160  146.8400 S   0  0  0  0  0  0  0  0  0  0  0  0
  160.4070  206.1870  146.8260 O   0  0  0  0  0  0  0  0  0  0  0  0
  162.7100  206.8730  147.9240 N   0  0  0  0  0  2  0  0  0  0  0  0
  161.7160  207.6410  148.6540 C   0  0  0  0  0  3  0  0  0  0  0  0
  161.6780  208.9430  148.1600 O   0  0  0  0  0  1  0  0  0  0  0  0
  160.4640  207.0490  148.4950 O   0  0  0  0  0  1  0  0  0  0  0  0
  161.4200  212.6610  147.3360 C   0  0  0  0  0  2  0  0  0  0  0  0
  160.3180  213.2460  146.4600 C   0  0  0  0  0  2  0  0  0  0  0  0
  159.7540  212.1810  145.5370 C   0  0  0  0  0  2  0  0  0  0  0  0
  159.9590  212.4400  140.5800 N   0  0  0  0  0  2  0  0  0  0  0  0
  158.3890  213.7640  141.6820 O   0  0  0  0  0  0  0  0  0  0  0  0
  159.2040  212.7960  144.2990 C   0  0  0  0  0  0  0  0  0  0  0  0
  158.3560  213.7250  144.3820 O   0  0  0  0  0  0  0  0  0  0  0  0
  159.2990  212.8950  141.7610 C   0  0  0  0  0  0  0  0  0  0  0  0
  159.6930  212.3570  143.0280 N   0  0  0  0  0  2  0  0  0  0  0  0
  159.3360  211.1590  137.8160 C   0  0  1  0  0  3  0  0  0  0  0  0
  158.6230  212.1130  138.7510 C   0  0  0  0  0  2  0  0  0  0  0  0
  160.7780  212.7220  138.4060 C   0  0  1  0  0  3  0  0  0  0  0  0
  160.7110  211.4060  137.9260 O   0  0  0  0  0  0  0  0  0  0  0  0
  159.6510  212.9670  139.3100 N   0  0  0  0  0  0  0  0  0  0  0  0
  157.8370  209.3850  138.3330 O   0  0  0  0  0  0  0  0  0  0  0  0
  159.0330  209.7430  138.1760 C   0  0  0  0  0  0  0  0  0  0  0  0
  160.0840  208.7920  138.3420 N   0  0  0  0  0  1  0  0  0  0  0  0
  162.1400  213.0410  139.0310 C   0  0  0  0  0  2  0  0  0  0  0  0
  163.2370  212.1820  138.4270 C   0  0  0  0  0  2  0  0  0  0  0  0
  164.6000  212.6980  138.8410 C   0  0  0  0  0  1  0  0  0  0  0  0
  1  9  1  0  0  0  0
  3  2  1  0  0  0  0
  3  8  1  0  0  0  0
  4  1  2  0  0  0  0
  5  3  1  1  0  0  0
  6 16  1  0  0  0  0
  7  6  1  6  0  0  0
  7 15  1  0  0  0  0
  7  5  1  0  0  0  0
  9 17  1  0  0  0  0
 10  3  1  0  0  0  0
 11 25  1  6  0  0  0
 11  5  1  0  0  0  0
 12  1  1  0  0  0  0
 13 21  1  0  0  0  0
 13 18  1  1  0  0  0
 13 15  1  0  0  0  0
 14 17  2  0  0  0  0
 15 18  1  1  0  0  0
 15 10  1  0  0  0  0
 16 11  1  0  0  0  0
 17  6  1  0  0  0  0
 19 23  1  0  0  0  0
 21 19  1  6  0  0  0
 22 23  1  0  0  0  0
 24 20  1  6  0  0  0
 24 22  1  0  0  0  0
 24 21  1  0  0  0  0
 26 34  1  6  0  0  0
 26 29  1  0  0  0  0
 26 30  1  0  0  0  0
 28 33  1  0  0  0  0
 28 26  1  0  0  0  0
 29 32  1  0  0  0  0
 30 27  1  0  0  0  0
 31 27  1  0  0  0  0
 31 25  1  6  0  0  0
 32 33  1  6  0  0  0
 32 31  1  0  0  0  0
 34 35  1  1  0  0  0
 36 34  1  0  0  0  0
 37 36  1  0  0  0  0
 38 41  1  6  0  0  0
 38 40  1  0  0  0  0
 38 37  1  0  0  0  0
 39 40  1  0  0  0  0
 42 43  2  0  0  0  0
 43 41  1  0  0  0  0
 43 45  1  0  0  0  0
 44 43  2  0  0  0  0
 45 46  1  0  0  0  0
 47 46  1  0  0  0  0
 48 46  1  0  0  0  0
 49 12  1  0  0  0  0
 50 49  1  0  0  0  0
 51 50  1  0  0  0  0
 52 56  1  0  0  0  0
 53 56  2  0  0  0  0
 54 55  2  0  0  0  0
 54 51  1  0  0  0  0
 56 57  1  0  0  0  0
 57 54  1  0  0  0  0
 58 61  1  0  0  0  0
 58 64  1  1  0  0  0
 58 59  1  0  0  0  0
 59 62  1  0  0  0  0
 60 66  1  1  0  0  0
 60 62  1  0  0  0  0
 61 60  1  0  0  0  0
 62 52  1  0  0  0  0
 64 63  2  0  0  0  0
 64 65  1  0  0  0  0
 67 68  1  0  0  0  0
 67 66  1  0  0  0  0
M  END
>  <MODEL>
3

>  <REMARK>
 VINA RESULT:      -4.2      1.358      1.774
  Name = 
  20 active torsions:
  status: ('A' for Active; 'I' for Inactive)
    1  A    between atoms: C_1  and  C_29
    2  A    between atoms: C_2  and  C_22
    3  A    between atoms: C_2  and  C_24
    4  A    between atoms: C_9  and  N_18
    5  A    between atoms: C_12  and  C_34
    6  A    between atoms: C_12  and  C_38
    7  A    between atoms: C_13  and  C_36
    8  A    between atoms: C_13  and  C_52
    9  A    between atoms: C_17  and  O_31
   10  A    between atoms: C_17  and  C_37
   11  A    between atoms: C_17  and  C_49
   12  A    between atoms: N_18  and  S_42
   13  A    between atoms: C_24  and  O_31
   14  A    between atoms: C_25  and  C_45
   15  A    between atoms: N_30  and  N_66
   16  A    between atoms: C_34  and  C_67
   17  A    between atoms: C_37  and  S_42
   18  A    between atoms: N_41  and  C_67
   19  A    between atoms: C_43  and  C_47
   20  A    between atoms: C_47  and  C_59
                            x       y       z     vdW  Elec       q    Type
                         _______ _______ _______ _____ _____    ______ ____

>  <TORSDO>
F 20

$$$$
=
 OpenBabel11072412213D

 68 74  0  0  1  0  0  0  0  0999 V2000
  161.1270  213.2930  149.6240 C   0  0  0  0  0  0  0  0  0  0  0  0
  159.3560  210.7350  156.9360 C   0  0  0  0  0  1  0  0  0  0  0  0
  159.7770  211.9190  156.0750 C   0  0  0  0  0  0  0  0  0  0  0  0
  161.5740  214.4530  149.4130 O   0  0  0  0  0  0  0  0  0  0  0  0
  160.7640  211.5310  154.9520 C   0  0  2  0  0  3  0  0  0  0  0  0
  160.1180  211.3240  152.7480 N   0  0  0  0  0  0  0  0  0  0  0  0
  160.3410  212.3280  153.7660 C   0  0  1  0  0  3  0  0  0  0  0  0
  160.4530  212.9280  156.9870 C   0  0  0  0  0  1  0  0  0  0  0  0
  160.8090  212.9000  150.9620 N   0  0  0  0  0  2  0  0  0  0  0  0
  158.6300  212.5100  155.5060 O   0  0  0  0  0  0  0  0  0  0  0  0
  160.6250  210.0800  154.4720 C   0  0  1  0  0  3  0  0  0  0  0  0
  160.9420  212.3890  148.5300 N   0  0  0  0  0  2  0  0  0  0  0  0
  157.9970  213.4290  153.2350 C   0  0  2  0  0  3  0  0  0  0  0  0
  160.4450  210.6240  150.5540 O   0  0  0  0  0  0  0  0  0  0  0  0
  159.0300  212.9060  154.2230 C   0  0  2  0  0  0  0  0  0  0  0  0
  160.0060  210.0500  153.2050 O   0  0  0  0  0  0  0  0  0  0  0  0
  160.4540  211.5750  151.3810 C   0  0  0  0  0  0  0  0  0  0  0  0
  158.8950  214.3950  154.0010 C   0  0  0  0  0  2  0  0  0  0  0  0
  156.0630  212.1270  153.8030 O   0  0  0  0  0  0  0  0  0  0  0  0
  155.9600  214.4240  151.7510 F   0  0  0  0  0  0  0  0  0  0  0  0
  156.5930  213.4220  153.8350 C   0  0  2  0  0  3  0  0  0  0  0  0
  154.3650  213.5170  153.2020 C   0  0  0  0  0  2  0  0  0  0  0  0
  154.7130  212.2860  153.8980 N   0  0  0  0  0  2  0  0  0  0  0  0
  155.6270  214.3110  153.0920 C   0  0  2  0  0  3  0  0  0  0  0  0
  161.9720  209.3500  154.4800 C   0  0  0  0  0  2  0  0  0  0  0  0
  161.2250  205.9620  152.3790 C   0  0  1  0  0  0  0  0  0  0  0  0
  160.5180  207.4210  154.1960 O   0  0  0  0  0  0  0  0  0  0  0  0
  160.8590  207.0130  151.5190 O   0  0  0  0  0  0  0  0  0  0  0  0
  162.5620  206.1640  152.6990 O   0  0  0  0  0  0  0  0  0  0  0  0
  160.4290  206.0920  153.7000 C   0  0  0  0  0  2  0  0  0  0  0  0
  161.8750  207.8550  154.1900 C   0  0  1  0  0  3  0  0  0  0  0  0
  162.5350  207.5450  152.8230 C   0  0  2  0  0  3  0  0  0  0  0  0
  161.6960  208.0130  151.7950 O   0  0  0  0  0  0  0  0  0  0  0  0
  161.0150  204.5920  151.7210 C   0  0  1  0  0  3  0  0  0  0  0  0
  159.6520  203.9980  152.0630 C   0  0  0  0  0  1  0  0  0  0  0  0
  161.2270  204.6140  150.2060 C   0  0  0  0  0  2  0  0  0  0  0  0
  160.6520  205.7550  149.6390 O   0  0  0  0  0  0  0  0  0  0  0  0
  161.3340  205.9530  148.4340 C   0  0  2  0  0  3  0  0  0  0  0  0
  162.7070  208.0820  148.4060 C   0  0  0  0  0  1  0  0  0  0  0  0
  161.3620  207.4420  148.0860 C   0  0  0  0  0  2  0  0  0  0  0  0
  160.6860  205.1210  147.3280 C   0  0  0  0  0  2  0  0  0  0  0  0
  163.1500  204.0210  147.3130 O   0  0  0  0  0  0  0  0  0  0  0  0
  161.8800  204.0750  146.5080 S   0  0  0  0  0  0  0  0  0  0  0  0
  161.3180  202.6850  146.3720 O   0  0  0  0  0  0  0  0  0  0  0  0
  162.2240  204.7050  144.9300 N   0  0  0  0  0  2  0  0  0  0  0  0
  161.0890  205.5160  144.5230 C   0  0  0  0  0  3  0  0  0  0  0  0
  161.3380  206.0660  143.2660 O   0  0  0  0  0  1  0  0  0  0  0  0
  159.9470  204.7200  144.4620 O   0  0  0  0  0  1  0  0  0  0  0  0
  161.4660  212.6490  147.1930 C   0  0  0  0  0  2  0  0  0  0  0  0
  160.4910  213.5140  146.4020 C   0  0  0  0  0  2  0  0  0  0  0  0
  159.7460  212.6730  145.3810 C   0  0  0  0  0  2  0  0  0  0  0  0
  161.2710  210.6800  141.0930 N   0  0  0  0  0  2  0  0  0  0  0  0
  161.2930  213.0020  141.2900 O   0  0  0  0  0  0  0  0  0  0  0  0
  160.2740  212.9200  144.0110 C   0  0  0  0  0  0  0  0  0  0  0  0
  160.5880  214.0890  143.6600 O   0  0  0  0  0  0  0  0  0  0  0  0
  161.0220  211.8870  141.8120 C   0  0  0  0  0  0  0  0  0  0  0  0
  160.4700  211.8090  143.1310 N   0  0  0  0  0  2  0  0  0  0  0  0
  160.1270  210.8700  138.2070 C   0  0  1  0  0  3  0  0  0  0  0  0
  161.1200  211.6620  139.0310 C   0  0  0  0  0  2  0  0  0  0  0  0
  161.5290  209.4350  139.1280 C   0  0  1  0  0  3  0  0  0  0  0  0
  160.2380  209.5260  138.5870 O   0  0  0  0  0  0  0  0  0  0  0  0
  161.8560  210.6890  139.8120 N   0  0  0  0  0  0  0  0  0  0  0  0
  158.5590  212.5220  138.8950 O   0  0  0  0  0  0  0  0  0  0  0  0
  158.7380  211.3620  138.4410 C   0  0  0  0  0  0  0  0  0  0  0  0
  157.6120  210.5320  138.1540 N   0  0  0  0  0  1  0  0  0  0  0  0
  161.6980  208.1970  140.0140 C   0  0  0  0  0  2  0  0  0  0  0  0
  162.2410  207.0220  139.2190 C   0  0  0  0  0  2  0  0  0  0  0  0
  161.9120  207.1820  137.7480 C   0  0  0  0  0  1  0  0  0  0  0  0
  1  9  1  0  0  0  0
  3  2  1  0  0  0  0
  3  8  1  0  0  0  0
  4  1  2  0  0  0  0
  5  3  1  1  0  0  0
  6 16  1  0  0  0  0
  7  6  1  6  0  0  0
  7 15  1  0  0  0  0
  7  5  1  0  0  0  0
  9 17  1  0  0  0  0
 10  3  1  0  0  0  0
 11 25  1  6  0  0  0
 11  5  1  0  0  0  0
 12  1  1  0  0  0  0
 13 21  1  0  0  0  0
 13 18  1  1  0  0  0
 13 15  1  0  0  0  0
 14 17  2  0  0  0  0
 15 18  1  1  0  0  0
 15 10  1  0  0  0  0
 16 11  1  0  0  0  0
 17  6  1  0  0  0  0
 19 23  1  0  0  0  0
 21 19  1  6  0  0  0
 22 23  1  0  0  0  0
 24 20  1  6  0  0  0
 24 22  1  0  0  0  0
 24 21  1  0  0  0  0
 26 34  1  6  0  0  0
 26 29  1  0  0  0  0
 26 30  1  0  0  0  0
 28 33  1  0  0  0  0
 28 26  1  0  0  0  0
 29 32  1  0  0  0  0
 30 27  1  0  0  0  0
 31 27  1  0  0  0  0
 31 25  1  6  0  0  0
 32 33  1  6  0  0  0
 32 31  1  0  0  0  0
 34 35  1  6  0  0  0
 36 34  1  0  0  0  0
 37 36  1  0  0  0  0
 38 41  1  6  0  0  0
 38 37  1  0  0  0  0
 40 39  1  0  0  0  0
 40 38  1  0  0  0  0
 43 42  2  0  0  0  0
 43 41  1  0  0  0  0
 44 43  2  0  0  0  0
 45 43  1  0  0  0  0
 46 45  1  0  0  0  0
 47 46  1  0  0  0  0
 48 46  1  0  0  0  0
 49 12  1  0  0  0  0
 50 49  1  0  0  0  0
 51 50  1  0  0  0  0
 52 56  1  0  0  0  0
 53 56  2  0  0  0  0
 54 51  1  0  0  0  0
 55 54  2  0  0  0  0
 56 57  1  0  0  0  0
 57 54  1  0  0  0  0
 58 64  1  1  0  0  0
 58 61  1  0  0  0  0
 58 59  1  0  0  0  0
 59 62  1  0  0  0  0
 60 62  1  0  0  0  0
 60 66  1  1  0  0  0
 61 60  1  0  0  0  0
 62 52  1  0  0  0  0
 64 63  2  0  0  0  0
 65 64  1  0  0  0  0
 67 66  1  0  0  0  0
 68 67  1  0  0  0  0
M  END
>  <MODEL>
4

>  <REMARK>
 VINA RESULT:      -3.3      1.660      2.430
  Name = 
  20 active torsions:
  status: ('A' for Active; 'I' for Inactive)
    1  A    between atoms: C_1  and  C_29
    2  A    between atoms: C_2  and  C_22
    3  A    between atoms: C_2  and  C_24
    4  A    between atoms: C_9  and  N_18
    5  A    between atoms: C_12  and  C_34
    6  A    between atoms: C_12  and  C_38
    7  A    between atoms: C_13  and  C_36
    8  A    between atoms: C_13  and  C_52
    9  A    between atoms: C_17  and  O_31
   10  A    between atoms: C_17  and  C_37
   11  A    between atoms: C_17  and  C_49
   12  A    between atoms: N_18  and  S_42
   13  A    between atoms: C_24  and  O_31
   14  A    between atoms: C_25  and  C_45
   15  A    between atoms: N_30  and  N_66
   16  A    between atoms: C_34  and  C_67
   17  A    between atoms: C_37  and  S_42
   18  A    between atoms: N_41  and  C_67
   19  A    between atoms: C_43  and  C_47
   20  A    between atoms: C_47  and  C_59
                            x       y       z     vdW  Elec       q    Type
                         _______ _______ _______ _____ _____    ______ ____

>  <TORSDO>
F 20

$$$$
=
 OpenBabel11072412213D

 68 74  0  0  1  0  0  0  0  0999 V2000
  160.6760  211.4870  147.4620 C   0  0  0  0  0  0  0  0  0  0  0  0
  162.0650  204.6100  151.1930 C   0  0  0  0  0  1  0  0  0  0  0  0
  161.0310  205.4940  150.5100 C   0  0  0  0  0  0  0  0  0  0  0  0
  159.5090  211.8530  147.1510 O   0  0  0  0  0  0  0  0  0  0  0  0
  161.2290  206.9980  150.8030 C   0  0  2  0  0  3  0  0  0  0  0  0
  162.1510  208.4510  149.2680 N   0  0  0  0  0  0  0  0  0  0  0  0
  160.9450  207.6900  149.5140 C   0  0  1  0  0  3  0  0  0  0  0  0
  159.6630  205.0780  151.0250 C   0  0  0  0  0  1  0  0  0  0  0  0
  160.8600  210.2270  148.1150 N   0  0  0  0  0  2  0  0  0  0  0  0
  161.0820  205.2790  149.1180 O   0  0  0  0  0  0  0  0  0  0  0  0
  162.6830  207.3880  151.1020 C   0  0  1  0  0  3  0  0  0  0  0  0
  161.7940  212.3270  147.1580 N   0  0  0  0  0  2  0  0  0  0  0  0
  161.0090  206.7360  147.0500 C   0  0  2  0  0  3  0  0  0  0  0  0
  163.1230  210.4740  148.6600 O   0  0  0  0  0  0  0  0  0  0  0  0
  160.8500  206.5390  148.5510 C   0  0  2  0  0  0  0  0  0  0  0  0
  163.2320  208.0780  150.0010 O   0  0  0  0  0  0  0  0  0  0  0  0
  162.0910  209.7520  148.6760 C   0  0  0  0  0  0  0  0  0  0  0  0
  159.6240  206.5660  147.6680 C   0  0  0  0  0  2  0  0  0  0  0  0
  162.8330  205.4140  146.2250 O   0  0  0  0  0  0  0  0  0  0  0  0
  160.6330  206.5240  144.3750 F   0  0  0  0  0  0  0  0  0  0  0  0
  161.4410  205.4450  146.3580 C   0  0  2  0  0  3  0  0  0  0  0  0
  161.9970  204.6260  144.2610 C   0  0  0  0  0  2  0  0  0  0  0  0
  163.0820  204.5210  145.2260 N   0  0  0  0  0  2  0  0  0  0  0  0
  160.8630  205.2950  144.9720 C   0  0  2  0  0  3  0  0  0  0  0  0
  162.7980  208.1860  152.4060 C   0  0  0  0  0  2  0  0  0  0  0  0
  160.1570  209.9550  154.9260 C   0  0  1  0  0  0  0  0  0  0  0  0
  161.4260  207.9440  154.4000 O   0  0  0  0  0  0  0  0  0  0  0  0
  161.3980  210.5450  155.2240 O   0  0  0  0  0  0  0  0  0  0  0  0
  159.9220  210.1930  153.5780 O   0  0  0  0  0  0  0  0  0  0  0  0
  160.2780  208.4210  155.0890 C   0  0  0  0  0  2  0  0  0  0  0  0
  161.4600  208.4790  153.0800 C   0  0  1  0  0  3  0  0  0  0  0  0
  161.2140  210.0080  153.1100 C   0  0  2  0  0  3  0  0  0  0  0  0
  162.0640  210.5870  154.0700 O   0  0  0  0  0  0  0  0  0  0  0  0
  159.0310  210.5310  155.7950 C   0  0  1  0  0  3  0  0  0  0  0  0
  159.0030  209.9030  157.1840 C   0  0  0  0  0  1  0  0  0  0  0  0
  159.0720  212.0570  155.8940 C   0  0  0  0  0  2  0  0  0  0  0  0
  159.1720  212.6370  154.6260 O   0  0  0  0  0  0  0  0  0  0  0  0
  158.0540  213.4710  154.5110 C   0  0  2  0  0  3  0  0  0  0  0  0
  155.7980  212.8320  155.4700 C   0  0  0  0  0  1  0  0  0  0  0  0
  156.7900  212.6290  154.3320 C   0  0  0  0  0  2  0  0  0  0  0  0
  158.2540  214.4520  153.3580 C   0  0  0  0  0  2  0  0  0  0  0  0
  159.7720  213.5530  151.3170 O   0  0  0  0  0  0  0  0  0  0  0  0
  158.3430  213.6090  151.7860 S   0  0  0  0  0  0  0  0  0  0  0  0
  157.8160  212.2070  151.9390 O   0  0  0  0  0  0  0  0  0  0  0  0
  157.3840  214.4520  150.6140 N   0  0  0  0  0  2  0  0  0  0  0  0
  156.6820  213.4560  149.8220 C   0  0  0  0  0  3  0  0  0  0  0  0
  155.4890  213.9970  149.3460 O   0  0  0  0  0  1  0  0  0  0  0  0
  157.4790  213.0750  148.7440 O   0  0  0  0  0  1  0  0  0  0  0  0
  161.6450  213.7090  146.7130 C   0  0  0  0  0  2  0  0  0  0  0  0
  162.7580  214.0730  145.7370 C   0  0  0  0  0  2  0  0  0  0  0  0
  162.9570  212.9610  144.7230 C   0  0  0  0  0  2  0  0  0  0  0  0
  162.2570  212.8970  139.8050 N   0  0  0  0  0  2  0  0  0  0  0  0
  160.4060  213.2740  141.1690 O   0  0  0  0  0  0  0  0  0  0  0  0
  161.9870  213.0930  143.6010 C   0  0  0  0  0  0  0  0  0  0  0  0
  160.7980  213.4370  143.8360 O   0  0  0  0  0  0  0  0  0  0  0  0
  161.6390  213.0270  141.0840 C   0  0  0  0  0  0  0  0  0  0  0  0
  162.4410  212.8790  142.2610 N   0  0  0  0  0  2  0  0  0  0  0  0
  161.6180  211.0610  137.3770 C   0  0  1  0  0  3  0  0  0  0  0  0
  160.8030  211.8480  138.3810 C   0  0  0  0  0  2  0  0  0  0  0  0
  162.4670  213.0960  137.4820 C   0  0  1  0  0  3  0  0  0  0  0  0
  162.7970  211.7780  137.1330 O   0  0  0  0  0  0  0  0  0  0  0  0
  161.5320  213.0790  138.6110 N   0  0  0  0  0  0  0  0  0  0  0  0
  161.9820  209.5160  139.1490 O   0  0  0  0  0  0  0  0  0  0  0  0
  161.9370  209.7030  137.9050 C   0  0  0  0  0  0  0  0  0  0  0  0
  162.1890  208.6150  137.0160 N   0  0  0  0  0  1  0  0  0  0  0  0
  163.7100  213.9550  137.7340 C   0  0  0  0  0  2  0  0  0  0  0  0
  164.6360  213.3000  138.7440 C   0  0  0  0  0  2  0  0  0  0  0  0
  166.0320  213.8770  138.6320 C   0  0  0  0  0  1  0  0  0  0  0  0
  1  9  1  0  0  0  0
  3  8  1  0  0  0  0
  3  2  1  0  0  0  0
  4  1  2  0  0  0  0
  5  3  1  6  0  0  0
  5 11  1  0  0  0  0
  6 16  1  0  0  0  0
  7  6  1  6  0  0  0
  7  5  1  0  0  0  0
  9 17  1  0  0  0  0
 10  3  1  0  0  0  0
 11 25  1  1  0  0  0
 12  1  1  0  0  0  0
 13 18  1  6  0  0  0
 13 15  1  0  0  0  0
 14 17  2  0  0  0  0
 15 18  1  6  0  0  0
 15 10  1  0  0  0  0
 15  7  1  0  0  0  0
 16 11  1  0  0  0  0
 17  6  1  0  0  0  0
 21 19  1  6  0  0  0
 21 13  1  0  0  0  0
 22 24  1  0  0  0  0
 22 23  1  0  0  0  0
 23 19  1  0  0  0  0
 24 20  1  6  0  0  0
 24 21  1  0  0  0  0
 26 30  1  0  0  0  0
 26 28  1  0  0  0  0
 26 34  1  1  0  0  0
 27 30  1  0  0  0  0
 29 26  1  0  0  0  0
 31 25  1  1  0  0  0
 31 32  1  0  0  0  0
 31 27  1  0  0  0  0
 32 29  1  1  0  0  0
 32 33  1  0  0  0  0
 33 28  1  0  0  0  0
 34 36  1  0  0  0  0
 34 35  1  1  0  0  0
 37 36  1  0  0  0  0
 38 41  1  6  0  0  0
 38 37  1  0  0  0  0
 40 38  1  0  0  0  0
 40 39  1  0  0  0  0
 42 43  2  0  0  0  0
 43 44  2  0  0  0  0
 43 41  1  0  0  0  0
 45 43  1  0  0  0  0
 46 45  1  0  0  0  0
 47 46  1  0  0  0  0
 48 46  1  0  0  0  0
 49 12  1  0  0  0  0
 50 49  1  0  0  0  0
 51 50  1  0  0  0  0
 52 56  1  0  0  0  0
 54 55  2  0  0  0  0
 54 51  1  0  0  0  0
 56 53  2  0  0  0  0
 56 57  1  0  0  0  0
 57 54  1  0  0  0  0
 58 64  1  1  0  0  0
 58 59  1  0  0  0  0
 59 62  1  0  0  0  0
 60 66  1  1  0  0  0
 60 62  1  0  0  0  0
 61 58  1  0  0  0  0
 61 60  1  0  0  0  0
 62 52  1  0  0  0  0
 64 63  2  0  0  0  0
 65 64  1  0  0  0  0
 66 67  1  0  0  0  0
 68 67  1  0  0  0  0
M  END
>  <MODEL>
5

>  <REMARK>
 VINA RESULT:      -3.0      2.910      7.548
  Name = 
  20 active torsions:
  status: ('A' for Active; 'I' for Inactive)
    1  A    between atoms: C_1  and  C_29
    2  A    between atoms: C_2  and  C_22
    3  A    between atoms: C_2  and  C_24
    4  A    between atoms: C_9  and  N_18
    5  A    between atoms: C_12  and  C_34
    6  A    between atoms: C_12  and  C_38
    7  A    between atoms: C_13  and  C_36
    8  A    between atoms: C_13  and  C_52
    9  A    between atoms: C_17  and  O_31
   10  A    between atoms: C_17  and  C_37
   11  A    between atoms: C_17  and  C_49
   12  A    between atoms: N_18  and  S_42
   13  A    between atoms: C_24  and  O_31
   14  A    between atoms: C_25  and  C_45
   15  A    between atoms: N_30  and  N_66
   16  A    between atoms: C_34  and  C_67
   17  A    between atoms: C_37  and  S_42
   18  A    between atoms: N_41  and  C_67
   19  A    between atoms: C_43  and  C_47
   20  A    between atoms: C_47  and  C_59
                            x       y       z     vdW  Elec       q    Type
                         _______ _______ _______ _____ _____    ______ ____

>  <TORSDO>
F 20

$$$$
=
 OpenBabel11072412213D

 68 74  0  0  1  0  0  0  0  0999 V2000
  161.1620  213.0700  149.4070 C   0  0  0  0  0  0  0  0  0  0  0  0
  159.0680  210.6680  156.6860 C   0  0  0  0  0  1  0  0  0  0  0  0
  159.6390  211.7990  155.8400 C   0  0  0  0  0  0  0  0  0  0  0  0
  161.7550  214.1660  149.2110 O   0  0  0  0  0  0  0  0  0  0  0  0
  160.5690  211.3010  154.7110 C   0  0  2  0  0  3  0  0  0  0  0  0
  159.9030  211.2080  152.5060 N   0  0  0  0  0  0  0  0  0  0  0  0
  160.2540  212.1610  153.5360 C   0  0  1  0  0  3  0  0  0  0  0  0
  160.4400  212.7000  156.7650 C   0  0  0  0  0  1  0  0  0  0  0  0
  160.7940  212.7050  150.7400 N   0  0  0  0  0  2  0  0  0  0  0  0
  158.5800  212.5410  155.2800 O   0  0  0  0  0  0  0  0  0  0  0  0
  160.2430  209.8870  154.2130 C   0  0  1  0  0  3  0  0  0  0  0  0
  160.8620  212.2120  148.3010 N   0  0  0  0  0  2  0  0  0  0  0  0
  158.0730  213.5640  153.0220 C   0  0  2  0  0  3  0  0  0  0  0  0
  160.1390  210.5010  150.3030 O   0  0  0  0  0  0  0  0  0  0  0  0
  159.0280  212.8980  154.0020 C   0  0  2  0  0  0  0  0  0  0  0  0
  159.6260  209.9540  152.9460 O   0  0  0  0  0  0  0  0  0  0  0  0
  160.2710  211.4320  151.1410 C   0  0  0  0  0  0  0  0  0  0  0  0
  159.0880  214.3950  153.8000 C   0  0  0  0  0  2  0  0  0  0  0  0
  156.1190  212.4780  153.8930 O   0  0  0  0  0  0  0  0  0  0  0  0
  156.0350  214.2490  151.3720 F   0  0  0  0  0  0  0  0  0  0  0  0
  156.6790  213.7310  153.6230 C   0  0  2  0  0  3  0  0  0  0  0  0
  154.4440  213.7390  153.0090 C   0  0  0  0  0  2  0  0  0  0  0  0
  154.7740  212.6900  153.9630 N   0  0  0  0  0  2  0  0  0  0  0  0
  155.7220  214.4530  152.7070 C   0  0  2  0  0  3  0  0  0  0  0  0
  161.4850  208.9880  154.2100 C   0  0  0  0  0  2  0  0  0  0  0  0
  161.8120  205.9030  151.5960 C   0  0  1  0  0  0  0  0  0  0  0  0
  162.9860  207.5890  152.9030 O   0  0  0  0  0  0  0  0  0  0  0  0
  161.4940  205.3060  152.8290 O   0  0  0  0  0  0  0  0  0  0  0  0
  160.7840  206.7960  151.3160 O   0  0  0  0  0  0  0  0  0  0  0  0
  163.0980  206.7480  151.7630 C   0  0  0  0  0  2  0  0  0  0  0  0
  161.7370  208.2740  152.8850 C   0  0  1  0  0  3  0  0  0  0  0  0
  160.5820  207.2820  152.5990 C   0  0  2  0  0  3  0  0  0  0  0  0
  160.7060  206.1770  153.4600 O   0  0  0  0  0  0  0  0  0  0  0  0
  161.9580  204.8600  150.4810 C   0  0  1  0  0  3  0  0  0  0  0  0
  161.6700  203.4480  150.9790 C   0  0  0  0  0  1  0  0  0  0  0  0
  161.1120  205.1790  149.2460 C   0  0  0  0  0  2  0  0  0  0  0  0
  161.0230  204.0670  148.4030 O   0  0  0  0  0  0  0  0  0  0  0  0
  161.9800  204.2820  147.4060 C   0  0  2  0  0  3  0  0  0  0  0  0
  161.1650  205.8790  145.6160 C   0  0  0  0  0  1  0  0  0  0  0  0
  161.9230  205.7340  146.9300 C   0  0  0  0  0  2  0  0  0  0  0  0
  161.7660  203.2960  146.2590 C   0  0  0  0  0  2  0  0  0  0  0  0
  159.3450  202.1120  146.1240 O   0  0  0  0  0  0  0  0  0  0  0  0
  160.7050  201.9430  146.7450 S   0  0  0  0  0  0  0  0  0  0  0  0
  161.3060  200.6440  146.2790 O   0  0  0  0  0  0  0  0  0  0  0  0
  160.5510  201.9110  148.4710 N   0  0  0  0  0  2  0  0  0  0  0  0
  160.9370  200.5850  148.9230 C   0  0  0  0  0  3  0  0  0  0  0  0
  162.1190  200.2040  148.2900 O   0  0  0  0  0  1  0  0  0  0  0  0
  161.1350  200.6040  150.3020 O   0  0  0  0  0  1  0  0  0  0  0  0
  161.4170  212.4200  146.9670 C   0  0  0  0  0  2  0  0  0  0  0  0
  160.3130  212.8100  145.9910 C   0  0  0  0  0  2  0  0  0  0  0  0
  160.9110  213.2640  144.6700 C   0  0  0  0  0  2  0  0  0  0  0  0
  160.8340  210.9660  140.2670 N   0  0  0  0  0  2  0  0  0  0  0  0
  158.8110  211.7180  141.1440 O   0  0  0  0  0  0  0  0  0  0  0  0
  160.0830  212.7890  143.5280 C   0  0  0  0  0  0  0  0  0  0  0  0
  158.8580  213.0790  143.4760 O   0  0  0  0  0  0  0  0  0  0  0  0
  160.0560  211.5840  141.2900 C   0  0  0  0  0  0  0  0  0  0  0  0
  160.7110  212.0520  142.4740 N   0  0  0  0  0  2  0  0  0  0  0  0
  161.2120  208.4380  138.4940 C   0  0  1  0  0  3  0  0  0  0  0  0
  160.0470  209.1010  139.1980 C   0  0  0  0  0  2  0  0  0  0  0  0
  161.2640  210.5880  137.9970 C   0  0  1  0  0  3  0  0  0  0  0  0
  162.0820  209.4510  138.0700 O   0  0  0  0  0  0  0  0  0  0  0  0
  160.2560  210.5280  139.0590 N   0  0  0  0  0  0  0  0  0  0  0  0
  161.9440  207.7440  140.6490 O   0  0  0  0  0  0  0  0  0  0  0  0
  161.9180  207.5000  139.4150 C   0  0  0  0  0  0  0  0  0  0  0  0
  162.5610  206.3300  138.9100 N   0  0  0  0  0  1  0  0  0  0  0  0
  162.0780  211.8860  138.0030 C   0  0  0  0  0  2  0  0  0  0  0  0
  161.1730  213.1020  138.1000 C   0  0  0  0  0  2  0  0  0  0  0  0
  160.0970  213.0470  137.0350 C   0  0  0  0  0  1  0  0  0  0  0  0
  1  9  1  0  0  0  0
  3  2  1  0  0  0  0
  3  8  1  0  0  0  0
  4  1  2  0  0  0  0
  5  3  1  1  0  0  0
  6 16  1  0  0  0  0
  7  6  1  6  0  0  0
  7 15  1  0  0  0  0
  7  5  1  0  0  0  0
  9 17  1  0  0  0  0
 10  3  1  0  0  0  0
 11 25  1  6  0  0  0
 11  5  1  0  0  0  0
 12  1  1  0  0  0  0
 13 21  1  0  0  0  0
 13 18  1  1  0  0  0
 13 15  1  0  0  0  0
 14 17  2  0  0  0  0
 15 18  1  1  0  0  0
 15 10  1  0  0  0  0
 16 11  1  0  0  0  0
 17  6  1  0  0  0  0
 19 23  1  0  0  0  0
 21 19  1  6  0  0  0
 22 23  1  0  0  0  0
 24 20  1  6  0  0  0
 24 22  1  0  0  0  0
 24 21  1  0  0  0  0
 26 34  1  6  0  0  0
 26 30  1  0  0  0  0
 26 28  1  0  0  0  0
 28 33  1  0  0  0  0
 29 26  1  0  0  0  0
 30 27  1  0  0  0  0
 31 27  1  0  0  0  0
 31 25  1  1  0  0  0
 32 29  1  6  0  0  0
 32 31  1  0  0  0  0
 32 33  1  0  0  0  0
 34 35  1  1  0  0  0
 36 34  1  0  0  0  0
 37 36  1  0  0  0  0
 38 41  1  6  0  0  0
 38 37  1  0  0  0  0
 39 40  1  0  0  0  0
 40 38  1  0  0  0  0
 41 43  1  0  0  0  0
 42 43  2  0  0  0  0
 43 45  1  0  0  0  0
 44 43  2  0  0  0  0
 45 46  1  0  0  0  0
 46 48  1  0  0  0  0
 47 46  1  0  0  0  0
 49 12  1  0  0  0  0
 50 49  1  0  0  0  0
 51 50  1  0  0  0  0
 52 56  1  0  0  0  0
 53 56  2  0  0  0  0
 54 51  1  0  0  0  0
 55 54  2  0  0  0  0
 56 57  1  0  0  0  0
 57 54  1  0  0  0  0
 58 59  1  0  0  0  0
 58 64  1  1  0  0  0
 60 66  1  1  0  0  0
 60 61  1  0  0  0  0
 60 62  1  0  0  0  0
 61 58  1  0  0  0  0
 62 59  1  0  0  0  0
 62 52  1  0  0  0  0
 64 63  2  0  0  0  0
 65 64  1  0  0  0  0
 66 67  1  0  0  0  0
 68 67  1  0  0  0  0
M  END
>  <MODEL>
6

>  <REMARK>
 VINA RESULT:      -1.7      1.907      2.777
  Name = 
  20 active torsions:
  status: ('A' for Active; 'I' for Inactive)
    1  A    between atoms: C_1  and  C_29
    2  A    between atoms: C_2  and  C_22
    3  A    between atoms: C_2  and  C_24
    4  A    between atoms: C_9  and  N_18
    5  A    between atoms: C_12  and  C_34
    6  A    between atoms: C_12  and  C_38
    7  A    between atoms: C_13  and  C_36
    8  A    between atoms: C_13  and  C_52
    9  A    between atoms: C_17  and  O_31
   10  A    between atoms: C_17  and  C_37
   11  A    between atoms: C_17  and  C_49
   12  A    between atoms: N_18  and  S_42
   13  A    between atoms: C_24  and  O_31
   14  A    between atoms: C_25  and  C_45
   15  A    between atoms: N_30  and  N_66
   16  A    between atoms: C_34  and  C_67
   17  A    between atoms: C_37  and  S_42
   18  A    between atoms: N_41  and  C_67
   19  A    between atoms: C_43  and  C_47
   20  A    between atoms: C_47  and  C_59
                            x       y       z     vdW  Elec       q    Type
                         _______ _______ _______ _____ _____    ______ ____

>  <TORSDO>
F 20

$$$$
=
 OpenBabel11072412213D

 68 74  0  0  1  0  0  0  0  0999 V2000
  160.3160  205.7260  144.9900 C   0  0  0  0  0  0  0  0  0  0  0  0
  162.1180  207.7950  152.4480 C   0  0  0  0  0  1  0  0  0  0  0  0
  161.0090  207.4750  151.4550 C   0  0  0  0  0  0  0  0  0  0  0  0
  159.1240  205.6900  144.5780 O   0  0  0  0  0  0  0  0  0  0  0  0
  161.2930  208.0120  150.0340 C   0  0  2  0  0  3  0  0  0  0  0  0
  161.9870  206.6490  148.3090 N   0  0  0  0  0  0  0  0  0  0  0  0
  160.8190  206.9440  149.1090 C   0  0  1  0  0  3  0  0  0  0  0  0
  159.7340  208.1230  151.9700 C   0  0  0  0  0  1  0  0  0  0  0  0
  160.5720  206.0880  146.3510 N   0  0  0  0  0  2  0  0  0  0  0  0
  160.8230  206.0790  151.3990 O   0  0  0  0  0  0  0  0  0  0  0  0
  162.7860  208.1320  149.7010 C   0  0  1  0  0  3  0  0  0  0  0  0
  161.3900  205.4050  144.1010 N   0  0  0  0  0  2  0  0  0  0  0  0
  160.4490  204.3680  149.5720 C   0  0  2  0  0  3  0  0  0  0  0  0
  162.8990  206.2840  146.2010 O   0  0  0  0  0  0  0  0  0  0  0  0
  160.5350  205.8090  150.0540 C   0  0  2  0  0  0  0  0  0  0  0  0
  163.1640  207.1070  148.8090 O   0  0  0  0  0  0  0  0  0  0  0  0
  161.8650  206.3340  146.9190 C   0  0  0  0  0  0  0  0  0  0  0  0
  159.1810  205.1650  149.8640 C   0  0  0  0  0  2  0  0  0  0  0  0
  161.9950  203.6140  151.2450 O   0  0  0  0  0  0  0  0  0  0  0  0
  161.0700  201.8110  148.9230 F   0  0  0  0  0  0  0  0  0  0  0  0
  160.7260  203.3800  150.7030 C   0  0  2  0  0  3  0  0  0  0  0  0
  161.7770  201.3540  151.1050 C   0  0  0  0  0  2  0  0  0  0  0  0
  162.3390  202.4550  151.8740 N   0  0  0  0  0  2  0  0  0  0  0  0
  160.6990  201.9410  150.2520 C   0  0  2  0  0  3  0  0  0  0  0  0
  163.1360  209.5260  149.1680 C   0  0  0  0  0  2  0  0  0  0  0  0
  161.1600  213.0400  148.7150 C   0  0  1  0  0  0  0  0  0  0  0  0
  161.9430  211.3370  150.2700 O   0  0  0  0  0  0  0  0  0  0  0  0
  162.5170  213.3570  148.5260 O   0  0  0  0  0  0  0  0  0  0  0  0
  160.8480  212.0720  147.7680 O   0  0  0  0  0  0  0  0  0  0  0  0
  160.9860  212.3750  150.1010 C   0  0  0  0  0  2  0  0  0  0  0  0
  161.9550  210.4930  149.1220 C   0  0  1  0  0  3  0  0  0  0  0  0
  162.0250  211.3410  147.8280 C   0  0  2  0  0  3  0  0  0  0  0  0
  163.0630  212.2830  147.9560 O   0  0  0  0  0  0  0  0  0  0  0  0
  160.2620  214.2740  148.5600 C   0  0  1  0  0  3  0  0  0  0  0  0
  159.5240  214.2790  147.2260 C   0  0  0  0  0  1  0  0  0  0  0  0
  159.2790  214.4500  149.7190 C   0  0  0  0  0  2  0  0  0  0  0  0
  158.0620  213.8230  149.4400 O   0  0  0  0  0  0  0  0  0  0  0  0
  157.4980  213.5380  150.6880 C   0  0  2  0  0  3  0  0  0  0  0  0
  155.4980  214.4520  149.4300 C   0  0  0  0  0  1  0  0  0  0  0  0
  156.1140  214.1820  150.7970 C   0  0  0  0  0  2  0  0  0  0  0  0
  158.4340  214.0070  151.8010 C   0  0  0  0  0  2  0  0  0  0  0  0
  158.0720  211.4490  152.5810 O   0  0  0  0  0  0  0  0  0  0  0  0
  158.6240  212.7620  153.0680 S   0  0  0  0  0  0  0  0  0  0  0  0
  160.0850  212.5960  153.3910 O   0  0  0  0  0  0  0  0  0  0  0  0
  157.7780  213.2490  154.4990 N   0  0  0  0  0  2  0  0  0  0  0  0
  156.6290  212.3730  154.6520 C   0  0  0  0  0  3  0  0  0  0  0  0
  157.0460  211.1440  155.1590 O   0  0  0  0  0  1  0  0  0  0  0  0
  155.7170  212.9510  155.5330 O   0  0  0  0  0  1  0  0  0  0  0  0
  161.2070  205.2630  142.6600 C   0  0  0  0  0  2  0  0  0  0  0  0
  161.6530  206.5320  141.9430 C   0  0  0  0  0  2  0  0  0  0  0  0
  162.3380  206.1860  140.6330 C   0  0  0  0  0  2  0  0  0  0  0  0
  160.6410  210.7300  139.5590 N   0  0  0  0  0  2  0  0  0  0  0  0
  161.1270  209.2960  137.7880 O   0  0  0  0  0  0  0  0  0  0  0  0
  161.9530  207.1520  139.5680 C   0  0  0  0  0  0  0  0  0  0  0  0
  161.9280  206.7830  138.3630 O   0  0  0  0  0  0  0  0  0  0  0  0
  161.1130  209.4910  139.0330 C   0  0  0  0  0  0  0  0  0  0  0  0
  161.5620  208.4770  139.9400 N   0  0  0  0  0  2  0  0  0  0  0  0
  159.4510  213.5560  140.0840 C   0  0  1  0  0  3  0  0  0  0  0  0
  160.6070  213.0020  139.2790 C   0  0  0  0  0  2  0  0  0  0  0  0
  158.6920  211.8500  138.9070 C   0  0  1  0  0  3  0  0  0  0  0  0
  158.4230  212.6040  140.0590 O   0  0  0  0  0  0  0  0  0  0  0  0
  160.1420  211.7480  138.7220 N   0  0  0  0  0  0  0  0  0  0  0  0
  161.0860  213.7380  141.8030 O   0  0  0  0  0  0  0  0  0  0  0  0
  159.8710  213.8270  141.4900 C   0  0  0  0  0  0  0  0  0  0  0  0
  158.9090  214.1890  142.4810 N   0  0  0  0  0  1  0  0  0  0  0  0
  157.9840  210.4920  138.9270 C   0  0  0  0  0  2  0  0  0  0  0  0
  156.4790  210.6530  138.8030 C   0  0  0  0  0  2  0  0  0  0  0  0
  155.9330  209.7180  137.7430 C   0  0  0  0  0  1  0  0  0  0  0  0
  1  9  1  0  0  0  0
  3  8  1  0  0  0  0
  3  2  1  0  0  0  0
  4  1  2  0  0  0  0
  5  3  1  1  0  0  0
  6 16  1  0  0  0  0
  7  6  1  6  0  0  0
  7  5  1  0  0  0  0
  7 15  1  0  0  0  0
  9 17  1  0  0  0  0
 10  3  1  0  0  0  0
 11 25  1  6  0  0  0
 11  5  1  0  0  0  0
 12  1  1  0  0  0  0
 13 18  1  1  0  0  0
 13 15  1  0  0  0  0
 13 21  1  0  0  0  0
 14 17  2  0  0  0  0
 15 18  1  1  0  0  0
 15 10  1  0  0  0  0
 16 11  1  0  0  0  0
 17  6  1  0  0  0  0
 19 23  1  0  0  0  0
 21 19  1  6  0  0  0
 22 23  1  0  0  0  0
 24 20  1  6  0  0  0
 24 21  1  0  0  0  0
 24 22  1  0  0  0  0
 26 34  1  6  0  0  0
 26 30  1  0  0  0  0
 28 26  1  0  0  0  0
 29 26  1  0  0  0  0
 30 27  1  0  0  0  0
 31 25  1  1  0  0  0
 31 27  1  0  0  0  0
 32 29  1  1  0  0  0
 32 33  1  0  0  0  0
 32 31  1  0  0  0  0
 33 28  1  0  0  0  0
 34 35  1  6  0  0  0
 34 36  1  0  0  0  0
 37 36  1  0  0  0  0
 37 38  1  0  0  0  0
 38 40  1  1  0  0  0
 38 41  1  0  0  0  0
 39 40  1  0  0  0  0
 41 43  1  0  0  0  0
 42 43  2  0  0  0  0
 43 44  2  0  0  0  0
 43 45  1  0  0  0  0
 45 46  1  0  0  0  0
 46 47  1  0  0  0  0
 46 48  1  0  0  0  0
 49 12  1  0  0  0  0
 50 49  1  0  0  0  0
 51 50  1  0  0  0  0
 53 56  2  0  0  0  0
 54 57  1  0  0  0  0
 54 51  1  0  0  0  0
 55 54  2  0  0  0  0
 56 52  1  0  0  0  0
 56 57  1  0  0  0  0
 58 64  1  1  0  0  0
 59 58  1  0  0  0  0
 60 66  1  1  0  0  0
 60 61  1  0  0  0  0
 61 58  1  0  0  0  0
 62 60  1  0  0  0  0
 62 59  1  0  0  0  0
 62 52  1  0  0  0  0
 64 63  2  0  0  0  0
 64 65  1  0  0  0  0
 67 66  1  0  0  0  0
 68 67  1  0  0  0  0
M  END
>  <MODEL>
7

>  <REMARK>
 VINA RESULT:      -1.7      3.117      8.801
  Name = 
  20 active torsions:
  status: ('A' for Active; 'I' for Inactive)
    1  A    between atoms: C_1  and  C_29
    2  A    between atoms: C_2  and  C_22
    3  A    between atoms: C_2  and  C_24
    4  A    between atoms: C_9  and  N_18
    5  A    between atoms: C_12  and  C_34
    6  A    between atoms: C_12  and  C_38
    7  A    between atoms: C_13  and  C_36
    8  A    between atoms: C_13  and  C_52
    9  A    between atoms: C_17  and  O_31
   10  A    between atoms: C_17  and  C_37
   11  A    between atoms: C_17  and  C_49
   12  A    between atoms: N_18  and  S_42
   13  A    between atoms: C_24  and  O_31
   14  A    between atoms: C_25  and  C_45
   15  A    between atoms: N_30  and  N_66
   16  A    between atoms: C_34  and  C_67
   17  A    between atoms: C_37  and  S_42
   18  A    between atoms: N_41  and  C_67
   19  A    between atoms: C_43  and  C_47
   20  A    between atoms: C_47  and  C_59
                            x       y       z     vdW  Elec       q    Type
                         _______ _______ _______ _____ _____    ______ ____

>  <TORSDO>
F 20

$$$$
