=
 OpenBabel11072412513D

 41 42  0  0  1  0  0  0  0  0999 V2000
  160.6210  208.5660  152.0870 C   0  0  0  0  0  2  0  0  0  0  0  0
  161.1340  209.2100  154.3470 C   0  0  2  0  0  3  0  0  0  0  0  0
  160.3490  209.6410  153.1250 C   0  0  0  0  0  2  0  0  0  0  0  0
  159.9510  207.0290  154.8970 C   0  0  0  0  0  1  0  0  0  0  0  0
  161.2170  207.3650  152.8190 C   0  0  2  0  0  3  0  0  0  0  0  0
  161.1870  207.6860  154.3030 C   0  0  1  0  0  3  0  0  0  0  0  0
  161.4110  211.2650  155.8310 C   0  0  0  0  0  2  0  0  0  0  0  0
  159.0690  211.2500  156.4350 C   0  0  1  0  0  3  0  0  0  0  0  0
  159.3340  210.0500  155.7400 O   0  0  0  0  0  0  0  0  0  0  0  0
  161.1900  209.0050  156.8210 C   0  0  0  0  0  1  0  0  0  0  0  0
  160.3110  212.0530  156.3770 C   0  0  0  0  0  0  0  0  0  0  0  0
  160.4260  213.1950  156.7910 O   0  0  0  0  0  0  0  0  0  0  0  0
  160.7450  209.9000  155.6700 C   0  0  1  0  0  0  0  0  0  0  0  0
  156.5810  211.0750  155.9190 C   0  0  0  0  0  1  0  0  0  0  0  0
  157.8260  211.9460  155.8570 C   0  0  2  0  0  3  0  0  0  0  0  0
  158.0720  212.4210  154.4300 C   0  0  0  0  0  2  0  0  0  0  0  0
  155.9580  214.2760  154.9820 O   0  0  0  0  0  1  0  0  0  0  0  0
  156.7960  213.5960  153.9210 P   0  0  0  0  0  2  0  0  0  0  0  0
  158.4600  213.7060  154.4340 O   0  0  0  0  0  0  0  0  0  0  0  0
  158.0850  214.2530  151.6070 C   0  0  0  0  0  1  0  0  0  0  0  0
  156.7240  214.3420  152.2670 C   0  0  0  0  0  1  0  0  0  0  0  0
  162.5380  207.1800  152.4030 O   0  0  0  0  0  0  0  0  0  0  0  0
  161.9270  206.5960  148.3470 C   0  0  1  0  0  3  0  0  0  0  0  0
  161.3710  205.8970  150.7370 C   0  0  1  0  0  3  0  0  0  0  0  0
  162.4570  206.9430  151.0270 C   0  0  1  0  0  3  0  0  0  0  0  0
  162.1250  208.0640  148.7750 C   0  0  0  0  0  2  0  0  0  0  0  0
  159.6440  206.4040  149.1350 O   0  0  0  0  0  1  0  0  0  0  0  0
  160.9330  205.8600  149.2600 C   0  0  1  0  0  3  0  0  0  0  0  0
  161.8110  204.6320  151.1330 O   0  0  0  0  0  1  0  0  0  0  0  0
  162.1300  208.2480  150.3030 C   0  0  0  0  0  2  0  0  0  0  0  0
  161.5160  206.4890  146.8850 C   0  0  0  0  0  2  0  0  0  0  0  0
  161.6750  205.0620  146.3750 C   0  0  1  0  0  3  0  0  0  0  0  0
  161.0850  202.1510  146.4380 O   0  0  0  0  0  0  0  0  0  0  0  0
  160.4210  203.5600  144.6700 N   0  0  0  0  0  2  0  0  0  0  0  0
  160.7590  205.8260  144.3340 O   0  0  0  0  0  0  0  0  0  0  0  0
  160.5020  202.2880  145.3310 C   0  0  0  0  0  0  0  0  0  0  0  0
  160.9380  204.8350  145.0880 C   0  0  0  0  0  0  0  0  0  0  0  0
  159.8380  201.1120  144.7070 C   0  0  0  0  0  2  0  0  0  0  0  0
  160.4550  199.9410  145.1440 O   0  0  0  0  0  1  0  0  0  0  0  0
  164.2360  204.2910  146.2110 C   0  0  0  0  0  3  0  0  0  0  0  0
  163.0800  204.6400  146.2840 C   0  0  0  0  0  0  0  0  0  0  0  0
  1  5  1  0  0  0  0
  1  3  1  0  0  0  0
  2  3  1  6  0  0  0
  2 13  1  0  0  0  0
  5 22  1  6  0  0  0
  5  6  1  0  0  0  0
  6  2  1  0  0  0  0
  6  4  1  6  0  0  0
  7 11  1  0  0  0  0
  8 15  1  6  0  0  0
  9  8  1  0  0  0  0
 11  8  1  0  0  0  0
 11 12  2  0  0  0  0
 13  9  1  0  0  0  0
 13  7  1  0  0  0  0
 13 10  1  1  0  0  0
 15 14  1  6  0  0  0
 16 19  1  0  0  0  0
 16 15  1  0  0  0  0
 18 19  1  0  0  0  0
 18 17  1  0  0  0  0
 20 21  1  0  0  0  0
 23 31  1  6  0  0  0
 23 26  1  0  0  0  0
 23 28  1  0  0  0  0
 24 25  1  0  0  0  0
 24 29  1  6  0  0  0
 25 22  1  1  0  0  0
 26 30  1  0  0  0  0
 28 27  1  1  0  0  0
 28 24  1  0  0  0  0
 30 25  1  0  0  0  0
 32 41  1  6  0  0  0
 32 31  1  0  0  0  0
 34 37  1  0  0  0  0
 34 36  1  0  0  0  0
 35 37  2  0  0  0  0
 36 33  2  0  0  0  0
 37 32  1  0  0  0  0
 38 39  1  0  0  0  0
 38 36  1  0  0  0  0
 40 41  3  0  0  0  0
M  END
>  <MODEL>
1

>  <REMARK>
 VINA RESULT:      -7.2      0.000      0.000
  Name = 
  11 active torsions:
  status: ('A' for Active; 'I' for Inactive)
    1  A    between atoms: C_1  and  C_7
    2  A    between atoms: C_1  and  C_38
    3  A    between atoms: C_1  and  C_39
    4  A    between atoms: C_4  and  C_19
    5  A    between atoms: C_5  and  C_38
    6  A    between atoms: C_8  and  C_34
    7  A    between atoms: C_13  and  P_22
    8  A    between atoms: C_14  and  C_19
    9  A    between atoms: C_15  and  O_30
   10  A    between atoms: C_23  and  C_36
   11  A    between atoms: O_30  and  C_37
                            x       y       z     vdW  Elec       q    Type
                         _______ _______ _______ _____ _____    ______ ____

>  <TORSDO>
F 11

$$$$
=
 OpenBabel11072412513D

 41 42  0  0  1  0  0  0  0  0999 V2000
  160.9240  208.9180  151.6580 C   0  0  0  0  0  2  0  0  0  0  0  0
  161.5400  209.0340  153.9790 C   0  0  2  0  0  3  0  0  0  0  0  0
  160.8870  209.8320  152.8690 C   0  0  0  0  0  2  0  0  0  0  0  0
  159.8930  207.1100  154.1820 C   0  0  0  0  0  1  0  0  0  0  0  0
  161.2270  207.5070  152.1580 C   0  0  2  0  0  3  0  0  0  0  0  0
  161.2520  207.5680  153.6760 C   0  0  1  0  0  3  0  0  0  0  0  0
  162.4520  210.4230  155.9140 C   0  0  0  0  0  2  0  0  0  0  0  0
  160.2660  211.3360  156.4000 C   0  0  1  0  0  3  0  0  0  0  0  0
  160.0910  210.3030  155.4550 O   0  0  0  0  0  0  0  0  0  0  0  0
  161.1560  208.3540  156.3360 C   0  0  0  0  0  1  0  0  0  0  0  0
  161.7250  211.4960  156.5840 C   0  0  0  0  0  0  0  0  0  0  0  0
  162.2550  212.3650  157.2580 O   0  0  0  0  0  0  0  0  0  0  0  0
  161.2990  209.5570  155.4100 C   0  0  1  0  0  0  0  0  0  0  0  0
  160.0170  213.8560  156.6740 C   0  0  0  0  0  1  0  0  0  0  0  0
  159.5310  212.6090  155.9520 C   0  0  2  0  0  3  0  0  0  0  0  0
  158.0220  212.4600  156.1070 C   0  0  0  0  0  2  0  0  0  0  0  0
  157.8970  214.2690  153.8870 O   0  0  0  0  0  1  0  0  0  0  0  0
  157.1530  213.6350  155.0410 P   0  0  0  0  0  2  0  0  0  0  0  0
  157.4970  211.9250  154.9940 O   0  0  0  0  0  0  0  0  0  0  0  0
  154.8880  213.9690  153.5550 C   0  0  0  0  0  1  0  0  0  0  0  0
  155.3450  213.7910  154.9890 C   0  0  0  0  0  1  0  0  0  0  0  0
  162.4780  207.1070  151.6820 O   0  0  0  0  0  0  0  0  0  0  0  0
  161.3140  204.1900  148.9820 C   0  0  1  0  0  3  0  0  0  0  0  0
  161.8320  204.8070  151.4020 C   0  0  1  0  0  3  0  0  0  0  0  0
  162.2060  206.1310  150.7190 C   0  0  1  0  0  3  0  0  0  0  0  0
  160.7800  205.6050  148.6870 C   0  0  0  0  0  2  0  0  0  0  0  0
  159.7790  203.7050  150.7920 O   0  0  0  0  0  1  0  0  0  0  0  0
  161.1400  203.8040  150.4590 C   0  0  1  0  0  3  0  0  0  0  0  0
  162.9710  204.2240  151.9630 O   0  0  0  0  0  1  0  0  0  0  0  0
  161.0570  206.6000  149.8280 C   0  0  0  0  0  2  0  0  0  0  0  0
  160.6850  203.1510  148.0630 C   0  0  0  0  0  2  0  0  0  0  0  0
  161.5780  202.8700  146.8610 C   0  0  1  0  0  3  0  0  0  0  0  0
  161.9920  199.9500  147.2180 O   0  0  0  0  0  0  0  0  0  0  0  0
  160.7030  200.8620  145.4690 N   0  0  0  0  0  2  0  0  0  0  0  0
  160.2340  203.0640  144.9260 O   0  0  0  0  0  0  0  0  0  0  0  0
  161.2740  199.7670  146.2000 C   0  0  0  0  0  0  0  0  0  0  0  0
  160.8140  202.2740  145.7150 C   0  0  0  0  0  0  0  0  0  0  0  0
  160.9690  198.3770  145.7660 C   0  0  0  0  0  2  0  0  0  0  0  0
  161.8160  198.0170  144.7200 O   0  0  0  0  0  1  0  0  0  0  0  0
  163.0130  205.0040  146.1080 C   0  0  0  0  0  3  0  0  0  0  0  0
  162.3650  204.0410  146.4470 C   0  0  0  0  0  0  0  0  0  0  0  0
  1  5  1  0  0  0  0
  1  3  1  0  0  0  0
  2  3  1  6  0  0  0
  2 13  1  0  0  0  0
  5 22  1  6  0  0  0
  5  6  1  0  0  0  0
  6  2  1  0  0  0  0
  6  4  1  1  0  0  0
  7 11  1  0  0  0  0
  8 15  1  6  0  0  0
  8 11  1  0  0  0  0
  9  8  1  0  0  0  0
 11 12  2  0  0  0  0
 13  9  1  0  0  0  0
 13  7  1  0  0  0  0
 13 10  1  1  0  0  0
 15 16  1  0  0  0  0
 15 14  1  1  0  0  0
 17 18  1  0  0  0  0
 19 18  1  0  0  0  0
 19 16  1  0  0  0  0
 20 21  1  0  0  0  0
 23 31  1  6  0  0  0
 23 28  1  0  0  0  0
 24 29  1  6  0  0  0
 25 24  1  0  0  0  0
 25 22  1  1  0  0  0
 26 23  1  0  0  0  0
 26 30  1  0  0  0  0
 28 27  1  1  0  0  0
 28 24  1  0  0  0  0
 30 25  1  0  0  0  0
 32 41  1  6  0  0  0
 32 31  1  0  0  0  0
 34 37  1  0  0  0  0
 34 36  1  0  0  0  0
 35 37  2  0  0  0  0
 36 33  2  0  0  0  0
 37 32  1  0  0  0  0
 38 36  1  0  0  0  0
 39 38  1  0  0  0  0
 40 41  3  0  0  0  0
M  END
>  <MODEL>
2

>  <REMARK>
 VINA RESULT:      -5.9      1.657      2.145
  Name = 
  11 active torsions:
  status: ('A' for Active; 'I' for Inactive)
    1  A    between atoms: C_1  and  C_7
    2  A    between atoms: C_1  and  C_38
    3  A    between atoms: C_1  and  C_39
    4  A    between atoms: C_4  and  C_19
    5  A    between atoms: C_5  and  C_38
    6  A    between atoms: C_8  and  C_34
    7  A    between atoms: C_13  and  P_22
    8  A    between atoms: C_14  and  C_19
    9  A    between atoms: C_15  and  O_30
   10  A    between atoms: C_23  and  C_36
   11  A    between atoms: O_30  and  C_37
                            x       y       z     vdW  Elec       q    Type
                         _______ _______ _______ _____ _____    ______ ____

>  <TORSDO>
F 11

$$$$
=
 OpenBabel11072412513D

 41 42  0  0  1  0  0  0  0  0999 V2000
  162.0090  206.2320  153.4410 C   0  0  0  0  0  2  0  0  0  0  0  0
  160.5850  207.7360  154.6620 C   0  0  2  0  0  3  0  0  0  0  0  0
  161.7760  206.8130  154.8240 C   0  0  0  0  0  2  0  0  0  0  0  0
  161.5560  209.4490  153.0560 C   0  0  0  0  0  1  0  0  0  0  0  0
  161.2320  207.0920  152.4460 C   0  0  2  0  0  3  0  0  0  0  0  0
  160.6370  208.2510  153.2270 C   0  0  1  0  0  3  0  0  0  0  0  0
  161.4840  209.7810  155.8930 C   0  0  0  0  0  2  0  0  0  0  0  0
  159.2690  210.7300  156.1090 C   0  0  1  0  0  3  0  0  0  0  0  0
  159.1190  209.4120  155.6270 O   0  0  0  0  0  0  0  0  0  0  0  0
  160.3110  207.9750  157.1180 C   0  0  0  0  0  1  0  0  0  0  0  0
  160.7240  211.0000  156.1480 C   0  0  0  0  0  0  0  0  0  0  0  0
  161.2290  212.0760  156.4230 O   0  0  0  0  0  0  0  0  0  0  0  0
  160.3620  208.7480  155.8050 C   0  0  1  0  0  0  0  0  0  0  0  0
  156.9590  211.6110  155.5010 C   0  0  0  0  0  1  0  0  0  0  0  0
  158.4560  211.7140  155.2540 C   0  0  2  0  0  3  0  0  0  0  0  0
  158.7620  211.5410  153.7710 C   0  0  0  0  0  2  0  0  0  0  0  0
  158.2870  214.3650  153.6320 O   0  0  0  0  0  1  0  0  0  0  0  0
  158.4050  213.0660  152.8650 P   0  0  0  0  0  2  0  0  0  0  0  0
  159.8440  212.2630  153.4390 O   0  0  0  0  0  0  0  0  0  0  0  0
  159.9040  213.9320  150.7550 C   0  0  0  0  0  1  0  0  0  0  0  0
  158.5970  213.2310  151.0670 C   0  0  0  0  0  1  0  0  0  0  0  0
  160.2080  206.3300  151.8780 O   0  0  0  0  0  0  0  0  0  0  0  0
  161.7170  203.8540  148.9200 C   0  0  1  0  0  3  0  0  0  0  0  0
  160.5330  204.0540  151.1710 C   0  0  1  0  0  3  0  0  0  0  0  0
  160.8370  205.5370  150.9130 C   0  0  1  0  0  3  0  0  0  0  0  0
  161.0760  205.1620  148.4150 C   0  0  0  0  0  2  0  0  0  0  0  0
  159.6340  202.7080  149.3870 O   0  0  0  0  0  1  0  0  0  0  0  0
  160.8380  203.1470  149.9630 C   0  0  1  0  0  3  0  0  0  0  0  0
  161.2430  203.6100  152.2890 O   0  0  0  0  0  1  0  0  0  0  0  0
  160.3430  205.9370  149.5240 C   0  0  0  0  0  2  0  0  0  0  0  0
  162.0660  202.9200  147.7690 C   0  0  0  0  0  2  0  0  0  0  0  0
  161.5670  203.4760  146.4410 C   0  0  1  0  0  3  0  0  0  0  0  0
  160.1030  205.1650  144.4850 O   0  0  0  0  0  0  0  0  0  0  0  0
  162.4540  205.0330  144.5640 N   0  0  0  0  0  2  0  0  0  0  0  0
  163.8540  203.7990  145.9350 O   0  0  0  0  0  0  0  0  0  0  0  0
  161.2180  205.5280  144.0270 C   0  0  0  0  0  0  0  0  0  0  0  0
  162.6690  204.1030  145.6400 C   0  0  0  0  0  0  0  0  0  0  0  0
  161.2630  206.5310  142.9290 C   0  0  0  0  0  2  0  0  0  0  0  0
  161.9750  206.0120  141.8500 O   0  0  0  0  0  1  0  0  0  0  0  0
  160.1890  201.6790  145.0080 C   0  0  0  0  0  3  0  0  0  0  0  0
  160.8110  202.4890  145.6550 C   0  0  0  0  0  0  0  0  0  0  0  0
  1  3  1  0  0  0  0
  2  3  1  1  0  0  0
  2 13  1  0  0  0  0
  5 22  1  1  0  0  0
  5  6  1  0  0  0  0
  5  1  1  0  0  0  0
  6  4  1  1  0  0  0
  6  2  1  0  0  0  0
  7 11  1  0  0  0  0
  8 15  1  6  0  0  0
  8 11  1  0  0  0  0
  9 13  1  0  0  0  0
  9  8  1  0  0  0  0
 11 12  2  0  0  0  0
 13  7  1  0  0  0  0
 13 10  1  1  0  0  0
 15 14  1  6  0  0  0
 16 15  1  0  0  0  0
 18 19  1  0  0  0  0
 18 17  1  0  0  0  0
 19 16  1  0  0  0  0
 20 21  1  0  0  0  0
 23 31  1  6  0  0  0
 23 28  1  0  0  0  0
 24 29  1  1  0  0  0
 25 24  1  0  0  0  0
 25 22  1  1  0  0  0
 26 23  1  0  0  0  0
 26 30  1  0  0  0  0
 28 27  1  6  0  0  0
 28 24  1  0  0  0  0
 30 25  1  0  0  0  0
 32 41  1  6  0  0  0
 32 31  1  0  0  0  0
 34 37  1  0  0  0  0
 36 33  2  0  0  0  0
 36 34  1  0  0  0  0
 37 35  2  0  0  0  0
 37 32  1  0  0  0  0
 38 36  1  0  0  0  0
 39 38  1  0  0  0  0
 40 41  3  0  0  0  0
M  END
>  <MODEL>
3

>  <REMARK>
 VINA RESULT:      -5.7      1.798      2.850
  Name = 
  11 active torsions:
  status: ('A' for Active; 'I' for Inactive)
    1  A    between atoms: C_1  and  C_7
    2  A    between atoms: C_1  and  C_38
    3  A    between atoms: C_1  and  C_39
    4  A    between atoms: C_4  and  C_19
    5  A    between atoms: C_5  and  C_38
    6  A    between atoms: C_8  and  C_34
    7  A    between atoms: C_13  and  P_22
    8  A    between atoms: C_14  and  C_19
    9  A    between atoms: C_15  and  O_30
   10  A    between atoms: C_23  and  C_36
   11  A    between atoms: O_30  and  C_37
                            x       y       z     vdW  Elec       q    Type
                         _______ _______ _______ _____ _____    ______ ____

>  <TORSDO>
F 11

$$$$
=
 OpenBabel11072412513D

 41 42  0  0  1  0  0  0  0  0999 V2000
  162.6930  207.2550  151.1660 C   0  0  0  0  0  2  0  0  0  0  0  0
  161.1330  208.5450  152.4630 C   0  0  2  0  0  3  0  0  0  0  0  0
  161.9920  207.2980  152.5120 C   0  0  0  0  0  2  0  0  0  0  0  0
  162.9350  210.3260  152.2660 C   0  0  0  0  0  1  0  0  0  0  0  0
  162.5450  208.6340  150.5280 C   0  0  2  0  0  3  0  0  0  0  0  0
  161.8590  209.5270  151.5480 C   0  0  1  0  0  3  0  0  0  0  0  0
  161.6880  209.7620  154.6350 C   0  0  0  0  0  2  0  0  0  0  0  0
  159.5560  210.9050  154.6370 C   0  0  1  0  0  3  0  0  0  0  0  0
  159.5090  209.9270  153.6210 O   0  0  0  0  0  0  0  0  0  0  0  0
  160.1200  207.8440  154.6190 C   0  0  0  0  0  1  0  0  0  0  0  0
  160.9360  210.8920  155.1720 C   0  0  0  0  0  0  0  0  0  0  0  0
  161.3730  211.6730  156.0010 O   0  0  0  0  0  0  0  0  0  0  0  0
  160.6080  209.0490  153.8230 C   0  0  1  0  0  0  0  0  0  0  0  0
  158.4010  213.1140  155.1580 C   0  0  0  0  0  1  0  0  0  0  0  0
  159.0890  212.2670  154.0990 C   0  0  2  0  0  3  0  0  0  0  0  0
  158.1840  212.1000  152.8840 C   0  0  0  0  0  2  0  0  0  0  0  0
  159.5190  214.4460  151.9180 O   0  0  0  0  0  1  0  0  0  0  0  0
  158.3220  213.5300  151.7860 P   0  0  0  0  0  2  0  0  0  0  0  0
  158.9260  211.8930  151.7840 O   0  0  0  0  0  0  0  0  0  0  0  0
  158.2870  213.7110  149.0630 C   0  0  0  0  0  1  0  0  0  0  0  0
  157.3570  213.7170  150.2590 C   0  0  0  0  0  1  0  0  0  0  0  0
  161.7510  208.5310  149.3830 O   0  0  0  0  0  0  0  0  0  0  0  0
  161.7620  204.6340  147.9780 C   0  0  1  0  0  3  0  0  0  0  0  0
  160.3980  206.6840  148.6460 C   0  0  1  0  0  3  0  0  0  0  0  0
  161.8010  207.1800  149.0260 C   0  0  1  0  0  3  0  0  0  0  0  0
  162.9230  205.5150  147.4760 C   0  0  0  0  0  2  0  0  0  0  0  0
  160.0710  205.5850  146.5280 O   0  0  0  0  0  1  0  0  0  0  0  0
  160.4080  205.3520  147.8710 C   0  0  1  0  0  3  0  0  0  0  0  0
  159.6110  206.5600  149.7930 O   0  0  0  0  0  1  0  0  0  0  0  0
  162.7550  206.9990  147.8480 C   0  0  0  0  0  2  0  0  0  0  0  0
  161.7300  203.2890  147.2660 C   0  0  0  0  0  2  0  0  0  0  0  0
  160.8950  202.2780  148.0430 C   0  0  1  0  0  3  0  0  0  0  0  0
  160.0150  201.2140  145.4120 O   0  0  0  0  0  0  0  0  0  0  0  0
  161.3580  199.9890  146.9100 N   0  0  0  0  0  2  0  0  0  0  0  0
  162.1640  200.5350  149.0120 O   0  0  0  0  0  0  0  0  0  0  0  0
  160.6460  200.1570  145.6760 C   0  0  0  0  0  0  0  0  0  0  0  0
  161.4960  200.9040  148.0120 C   0  0  0  0  0  0  0  0  0  0  0  0
  160.6950  199.0670  144.6650 C   0  0  0  0  0  2  0  0  0  0  0  0
  161.6720  198.1400  145.0230 O   0  0  0  0  0  1  0  0  0  0  0  0
  160.3470  203.0750  150.5410 C   0  0  0  0  0  3  0  0  0  0  0  0
  160.5950  202.7160  149.4140 C   0  0  0  0  0  0  0  0  0  0  0  0
  1  3  1  0  0  0  0
  2  3  1  1  0  0  0
  2 13  1  0  0  0  0
  5 22  1  6  0  0  0
  5  1  1  0  0  0  0
  5  6  1  0  0  0  0
  6  4  1  1  0  0  0
  6  2  1  0  0  0  0
  7 11  1  0  0  0  0
  8 15  1  6  0  0  0
  8 11  1  0  0  0  0
  9 13  1  0  0  0  0
  9  8  1  0  0  0  0
 11 12  2  0  0  0  0
 13 10  1  1  0  0  0
 13  7  1  0  0  0  0
 15 14  1  1  0  0  0
 16 15  1  0  0  0  0
 18 17  1  0  0  0  0
 19 18  1  0  0  0  0
 19 16  1  0  0  0  0
 20 21  1  0  0  0  0
 23 31  1  6  0  0  0
 24 25  1  0  0  0  0
 24 29  1  1  0  0  0
 25 22  1  6  0  0  0
 26 30  1  0  0  0  0
 26 23  1  0  0  0  0
 28 27  1  6  0  0  0
 28 23  1  0  0  0  0
 28 24  1  0  0  0  0
 30 25  1  0  0  0  0
 32 31  1  1  0  0  0
 32 41  1  0  0  0  0
 33 36  2  0  0  0  0
 34 37  1  0  0  0  0
 36 34  1  0  0  0  0
 37 32  1  0  0  0  0
 37 35  2  0  0  0  0
 38 39  1  0  0  0  0
 38 36  1  0  0  0  0
 41 40  3  0  0  0  0
M  END
>  <MODEL>
4

>  <REMARK>
 VINA RESULT:      -5.1      2.071      3.182
  Name = 
  11 active torsions:
  status: ('A' for Active; 'I' for Inactive)
    1  A    between atoms: C_1  and  C_7
    2  A    between atoms: C_1  and  C_38
    3  A    between atoms: C_1  and  C_39
    4  A    between atoms: C_4  and  C_19
    5  A    between atoms: C_5  and  C_38
    6  A    between atoms: C_8  and  C_34
    7  A    between atoms: C_13  and  P_22
    8  A    between atoms: C_14  and  C_19
    9  A    between atoms: C_15  and  O_30
   10  A    between atoms: C_23  and  C_36
   11  A    between atoms: O_30  and  C_37
                            x       y       z     vdW  Elec       q    Type
                         _______ _______ _______ _____ _____    ______ ____

>  <TORSDO>
F 11

$$$$
=
 OpenBabel11072412513D

 41 42  0  0  1  0  0  0  0  0999 V2000
  162.6980  207.0120  151.0340 C   0  0  0  0  0  2  0  0  0  0  0  0
  161.2070  208.3580  152.3560 C   0  0  2  0  0  3  0  0  0  0  0  0
  162.0130  207.0750  152.3870 C   0  0  0  0  0  2  0  0  0  0  0  0
  163.0800  210.0630  152.1510 C   0  0  0  0  0  1  0  0  0  0  0  0
  162.6010  208.4010  150.4070 C   0  0  2  0  0  3  0  0  0  0  0  0
  161.9640  209.3140  151.4400 C   0  0  1  0  0  3  0  0  0  0  0  0
  161.6960  209.8600  154.3570 C   0  0  0  0  0  2  0  0  0  0  0  0
  159.3830  210.5530  154.5100 C   0  0  1  0  0  3  0  0  0  0  0  0
  159.4460  209.4930  153.5800 O   0  0  0  0  0  0  0  0  0  0  0  0
  160.5650  207.6760  154.6550 C   0  0  0  0  0  1  0  0  0  0  0  0
  160.7800  210.8640  154.8890 C   0  0  0  0  0  0  0  0  0  0  0  0
  161.1210  211.7910  155.6040 O   0  0  0  0  0  0  0  0  0  0  0  0
  160.7170  208.8740  153.7240 C   0  0  1  0  0  0  0  0  0  0  0  0
  157.1810  211.8300  154.4740 C   0  0  0  0  0  1  0  0  0  0  0  0
  158.5960  211.7370  153.9270 C   0  0  2  0  0  3  0  0  0  0  0  0
  158.5750  211.6900  152.4040 C   0  0  0  0  0  2  0  0  0  0  0  0
  159.3160  214.4530  152.5880 O   0  0  0  0  0  1  0  0  0  0  0  0
  158.7610  213.3510  151.7130 P   0  0  0  0  0  2  0  0  0  0  0  0
  159.7970  211.9620  151.9190 O   0  0  0  0  0  0  0  0  0  0  0  0
  160.1390  213.9730  149.4410 C   0  0  0  0  0  1  0  0  0  0  0  0
  158.7310  213.7040  149.9320 C   0  0  0  0  0  1  0  0  0  0  0  0
  161.7930  208.3390  149.2690 O   0  0  0  0  0  0  0  0  0  0  0  0
  161.6820  204.4690  147.7940 C   0  0  1  0  0  3  0  0  0  0  0  0
  160.3800  206.5270  148.5570 C   0  0  1  0  0  3  0  0  0  0  0  0
  161.8060  206.9940  148.8860 C   0  0  1  0  0  3  0  0  0  0  0  0
  162.8350  205.3410  147.2590 C   0  0  0  0  0  2  0  0  0  0  0  0
  159.9460  205.4730  146.4350 O   0  0  0  0  0  1  0  0  0  0  0  0
  160.3350  205.2100  147.7580 C   0  0  1  0  0  3  0  0  0  0  0  0
  159.6400  206.3930  149.7340 O   0  0  0  0  0  1  0  0  0  0  0  0
  162.7060  206.8210  147.6650 C   0  0  0  0  0  2  0  0  0  0  0  0
  161.5980  203.1380  147.0600 C   0  0  0  0  0  2  0  0  0  0  0  0
  161.4200  201.9830  148.0380 C   0  0  1  0  0  3  0  0  0  0  0  0
  162.2980  202.7870  150.7590 O   0  0  0  0  0  0  0  0  0  0  0  0
  160.0380  202.4600  150.1820 N   0  0  0  0  0  2  0  0  0  0  0  0
  159.0660  201.8130  148.1820 O   0  0  0  0  0  0  0  0  0  0  0  0
  161.0870  202.7950  151.1020 C   0  0  0  0  0  0  0  0  0  0  0  0
  160.1300  202.0790  148.7980 C   0  0  0  0  0  0  0  0  0  0  0  0
  160.7250  203.2060  152.4850 C   0  0  0  0  0  2  0  0  0  0  0  0
  161.1720  204.5050  152.7200 O   0  0  0  0  0  1  0  0  0  0  0  0
  161.7270  199.5830  146.8860 C   0  0  0  0  0  3  0  0  0  0  0  0
  161.5880  200.6660  147.4050 C   0  0  0  0  0  0  0  0  0  0  0  0
  1  3  1  0  0  0  0
  2  3  1  1  0  0  0
  2 13  1  0  0  0  0
  5 22  1  6  0  0  0
  5  1  1  0  0  0  0
  5  6  1  0  0  0  0
  6  4  1  1  0  0  0
  6  2  1  0  0  0  0
  7 11  1  0  0  0  0
  8 15  1  6  0  0  0
  8 11  1  0  0  0  0
  9 13  1  0  0  0  0
  9  8  1  0  0  0  0
 11 12  2  0  0  0  0
 13  7  1  0  0  0  0
 13 10  1  1  0  0  0
 15 14  1  1  0  0  0
 16 15  1  0  0  0  0
 18 19  1  0  0  0  0
 18 17  1  0  0  0  0
 19 16  1  0  0  0  0
 20 21  1  0  0  0  0
 23 31  1  6  0  0  0
 24 25  1  0  0  0  0
 24 29  1  1  0  0  0
 25 22  1  6  0  0  0
 26 30  1  0  0  0  0
 26 23  1  0  0  0  0
 28 27  1  6  0  0  0
 28 23  1  0  0  0  0
 28 24  1  0  0  0  0
 30 25  1  0  0  0  0
 32 31  1  6  0  0  0
 32 37  1  0  0  0  0
 33 36  2  0  0  0  0
 34 36  1  0  0  0  0
 35 37  2  0  0  0  0
 36 38  1  0  0  0  0
 37 34  1  0  0  0  0
 38 39  1  0  0  0  0
 40 41  3  0  0  0  0
 41 32  1  0  0  0  0
M  END
>  <MODEL>
5

>  <REMARK>
 VINA RESULT:      -5.1      2.237      3.815
  Name = 
  11 active torsions:
  status: ('A' for Active; 'I' for Inactive)
    1  A    between atoms: C_1  and  C_7
    2  A    between atoms: C_1  and  C_38
    3  A    between atoms: C_1  and  C_39
    4  A    between atoms: C_4  and  C_19
    5  A    between atoms: C_5  and  C_38
    6  A    between atoms: C_8  and  C_34
    7  A    between atoms: C_13  and  P_22
    8  A    between atoms: C_14  and  C_19
    9  A    between atoms: C_15  and  O_30
   10  A    between atoms: C_23  and  C_36
   11  A    between atoms: O_30  and  C_37
                            x       y       z     vdW  Elec       q    Type
                         _______ _______ _______ _____ _____    ______ ____

>  <TORSDO>
F 11

$$$$
=
 OpenBabel11072412513D

 41 42  0  0  1  0  0  0  0  0999 V2000
  161.7800  206.3270  152.9950 C   0  0  0  0  0  2  0  0  0  0  0  0
  160.6100  207.6680  154.6120 C   0  0  2  0  0  3  0  0  0  0  0  0
  161.6570  206.5800  154.4870 C   0  0  0  0  0  2  0  0  0  0  0  0
  161.7910  209.5720  153.4120 C   0  0  0  0  0  1  0  0  0  0  0  0
  161.1190  207.5010  152.2750 C   0  0  2  0  0  3  0  0  0  0  0  0
  160.7110  208.5050  153.3400 C   0  0  1  0  0  3  0  0  0  0  0  0
  161.7610  209.3040  156.1940 C   0  0  0  0  0  2  0  0  0  0  0  0
  159.6530  210.3090  156.8250 C   0  0  1  0  0  3  0  0  0  0  0  0
  159.3600  209.1540  156.0670 O   0  0  0  0  0  0  0  0  0  0  0  0
  160.5400  207.3350  157.0710 C   0  0  0  0  0  1  0  0  0  0  0  0
  161.1240  210.4720  156.7920 C   0  0  0  0  0  0  0  0  0  0  0  0
  161.7340  211.4200  157.2610 O   0  0  0  0  0  0  0  0  0  0  0  0
  160.5560  208.3920  155.9730 C   0  0  1  0  0  0  0  0  0  0  0  0
  157.5480  211.7260  157.0360 C   0  0  0  0  0  1  0  0  0  0  0  0
  158.8610  211.5160  156.2980 C   0  0  2  0  0  3  0  0  0  0  0  0
  158.6140  211.4030  154.7980 C   0  0  0  0  0  2  0  0  0  0  0  0
  159.0550  214.2360  154.7970 O   0  0  0  0  0  1  0  0  0  0  0  0
  158.5030  213.0450  154.0460 P   0  0  0  0  0  2  0  0  0  0  0  0
  159.7100  211.7870  154.1230 O   0  0  0  0  0  0  0  0  0  0  0  0
  156.7360  213.7880  152.1040 C   0  0  0  0  0  1  0  0  0  0  0  0
  158.1640  213.3170  152.2830 C   0  0  0  0  0  1  0  0  0  0  0  0
  159.9850  207.0470  151.5960 O   0  0  0  0  0  0  0  0  0  0  0  0
  161.5150  206.6520  147.7670 C   0  0  1  0  0  3  0  0  0  0  0  0
  161.4810  207.9670  149.9520 C   0  0  1  0  0  3  0  0  0  0  0  0
  160.3810  206.9400  150.2590 C   0  0  1  0  0  3  0  0  0  0  0  0
  161.2540  205.3260  148.5080 C   0  0  0  0  0  2  0  0  0  0  0  0
  163.5450  207.2210  148.9590 O   0  0  0  0  0  1  0  0  0  0  0  0
  162.2510  207.6710  148.6500 C   0  0  1  0  0  3  0  0  0  0  0  0
  160.9320  209.2500  149.8980 O   0  0  0  0  0  1  0  0  0  0  0  0
  160.8960  205.5280  149.9910 C   0  0  0  0  0  2  0  0  0  0  0  0
  162.2530  206.4260  146.4540 C   0  0  0  0  0  2  0  0  0  0  0  0
  162.2550  204.9510  146.0730 C   0  0  1  0  0  3  0  0  0  0  0  0
  161.2970  202.1810  146.5640 O   0  0  0  0  0  0  0  0  0  0  0  0
  160.6770  203.4400  144.6710 N   0  0  0  0  0  2  0  0  0  0  0  0
  161.2790  205.5780  144.0140 O   0  0  0  0  0  0  0  0  0  0  0  0
  160.6460  202.2610  145.4890 C   0  0  0  0  0  0  0  0  0  0  0  0
  161.3890  204.6730  144.8800 C   0  0  0  0  0  0  0  0  0  0  0  0
  159.7850  201.1220  145.0730 C   0  0  0  0  0  2  0  0  0  0  0  0
  160.4620  199.9220  145.2850 O   0  0  0  0  0  1  0  0  0  0  0  0
  164.7240  203.9530  145.7710 C   0  0  0  0  0  3  0  0  0  0  0  0
  163.6090  204.4030  145.9080 C   0  0  0  0  0  0  0  0  0  0  0  0
  1  3  1  0  0  0  0
  2  3  1  1  0  0  0
  2 13  1  0  0  0  0
  5 22  1  1  0  0  0
  5  1  1  0  0  0  0
  5  6  1  0  0  0  0
  6  4  1  1  0  0  0
  6  2  1  0  0  0  0
  7 11  1  0  0  0  0
  8 15  1  6  0  0  0
  9  8  1  0  0  0  0
 11  8  1  0  0  0  0
 11 12  2  0  0  0  0
 13  9  1  0  0  0  0
 13  7  1  0  0  0  0
 13 10  1  1  0  0  0
 15 14  1  1  0  0  0
 16 15  1  0  0  0  0
 18 19  1  0  0  0  0
 18 17  1  0  0  0  0
 19 16  1  0  0  0  0
 20 21  1  0  0  0  0
 23 31  1  6  0  0  0
 23 26  1  0  0  0  0
 23 28  1  0  0  0  0
 24 29  1  6  0  0  0
 24 25  1  0  0  0  0
 25 22  1  1  0  0  0
 26 30  1  0  0  0  0
 28 27  1  1  0  0  0
 28 24  1  0  0  0  0
 30 25  1  0  0  0  0
 32 41  1  6  0  0  0
 32 31  1  0  0  0  0
 34 37  1  0  0  0  0
 34 36  1  0  0  0  0
 35 37  2  0  0  0  0
 36 33  2  0  0  0  0
 37 32  1  0  0  0  0
 38 39  1  0  0  0  0
 38 36  1  0  0  0  0
 40 41  3  0  0  0  0
M  END
>  <MODEL>
6

>  <REMARK>
 VINA RESULT:      -4.9      1.339      2.034
  Name = 
  11 active torsions:
  status: ('A' for Active; 'I' for Inactive)
    1  A    between atoms: C_1  and  C_7
    2  A    between atoms: C_1  and  C_38
    3  A    between atoms: C_1  and  C_39
    4  A    between atoms: C_4  and  C_19
    5  A    between atoms: C_5  and  C_38
    6  A    between atoms: C_8  and  C_34
    7  A    between atoms: C_13  and  P_22
    8  A    between atoms: C_14  and  C_19
    9  A    between atoms: C_15  and  O_30
   10  A    between atoms: C_23  and  C_36
   11  A    between atoms: O_30  and  C_37
                            x       y       z     vdW  Elec       q    Type
                         _______ _______ _______ _____ _____    ______ ____

>  <TORSDO>
F 11

$$$$
=
 OpenBabel11072412513D

 41 42  0  0  1  0  0  0  0  0999 V2000
  160.6850  207.1570  151.1870 C   0  0  0  0  0  2  0  0  0  0  0  0
  161.0640  204.8140  151.5720 C   0  0  2  0  0  3  0  0  0  0  0  0
  160.4300  205.7830  150.5940 C   0  0  0  0  0  2  0  0  0  0  0  0
  163.5010  205.5030  151.3740 C   0  0  0  0  0  1  0  0  0  0  0  0
  161.7660  207.0020  152.2550 C   0  0  2  0  0  3  0  0  0  0  0  0
  162.2330  205.5570  152.2100 C   0  0  1  0  0  3  0  0  0  0  0  0
  160.0220  202.5390  151.0770 C   0  0  0  0  0  2  0  0  0  0  0  0
  161.2830  202.3140  149.0250 C   0  0  1  0  0  3  0  0  0  0  0  0
  161.7930  203.4350  149.7130 O   0  0  0  0  0  0  0  0  0  0  0  0
  162.3440  202.7160  151.9240 C   0  0  0  0  0  1  0  0  0  0  0  0
  160.1120  201.8420  149.7990 C   0  0  0  0  0  0  0  0  0  0  0  0
  159.3600  200.9460  149.4530 O   0  0  0  0  0  0  0  0  0  0  0  0
  161.2950  203.3840  151.0430 C   0  0  1  0  0  0  0  0  0  0  0  0
  161.1910  201.4940  146.6160 C   0  0  0  0  0  1  0  0  0  0  0  0
  160.9840  202.6680  147.5600 C   0  0  2  0  0  3  0  0  0  0  0  0
  161.8060  203.8670  147.1030 C   0  0  0  0  0  2  0  0  0  0  0  0
  160.1300  203.7770  144.7800 O   0  0  0  0  0  1  0  0  0  0  0  0
  161.4150  204.2930  145.3890 P   0  0  0  0  0  2  0  0  0  0  0  0
  161.0130  204.9400  146.9590 O   0  0  0  0  0  0  0  0  0  0  0  0
  161.5150  205.8710  143.1650 C   0  0  0  0  0  1  0  0  0  0  0  0
  162.2310  205.6360  144.4800 C   0  0  0  0  0  1  0  0  0  0  0  0
  161.2190  207.2820  153.5090 O   0  0  0  0  0  0  0  0  0  0  0  0
  159.9920  211.2370  153.3750 C   0  0  1  0  0  3  0  0  0  0  0  0
  160.4660  209.1700  154.7950 C   0  0  1  0  0  3  0  0  0  0  0  0
  160.6990  208.5750  153.3990 C   0  0  1  0  0  3  0  0  0  0  0  0
  161.1060  210.8620  152.3780 C   0  0  0  0  0  2  0  0  0  0  0  0
  161.4160  211.3180  155.3330 O   0  0  0  0  0  1  0  0  0  0  0  0
  160.2790  210.7000  154.7860 C   0  0  1  0  0  3  0  0  0  0  0  0
  159.3620  208.5610  155.3940 O   0  0  0  0  0  1  0  0  0  0  0  0
  161.6740  209.4510  152.6140 C   0  0  0  0  0  2  0  0  0  0  0  0
  159.7400  212.7380  153.3970 C   0  0  0  0  0  2  0  0  0  0  0  0
  158.9450  213.1780  152.1740 C   0  0  1  0  0  3  0  0  0  0  0  0
  157.4360  213.3490  149.6210 O   0  0  0  0  0  0  0  0  0  0  0  0
  156.6860  214.3320  151.6260 N   0  0  0  0  0  2  0  0  0  0  0  0
  157.6470  214.3920  153.7330 O   0  0  0  0  0  0  0  0  0  0  0  0
  156.5600  214.0150  150.2320 C   0  0  0  0  0  0  0  0  0  0  0  0
  157.7400  213.9910  152.5440 C   0  0  0  0  0  0  0  0  0  0  0  0
  155.3370  214.4490  149.5050 C   0  0  0  0  0  2  0  0  0  0  0  0
  155.5290  214.2940  148.1330 O   0  0  0  0  0  1  0  0  0  0  0  0
  160.4560  214.4110  150.3350 C   0  0  0  0  0  3  0  0  0  0  0  0
  159.7750  213.8540  151.1650 C   0  0  0  0  0  0  0  0  0  0  0  0
  1  5  1  0  0  0  0
  2  3  1  6  0  0  0
  2  6  1  0  0  0  0
  3  1  1  0  0  0  0
  5 22  1  1  0  0  0
  6  4  1  6  0  0  0
  6  5  1  0  0  0  0
  8 15  1  6  0  0  0
  8  9  1  0  0  0  0
  8 11  1  0  0  0  0
  9 13  1  0  0  0  0
 11  7  1  0  0  0  0
 12 11  2  0  0  0  0
 13  7  1  0  0  0  0
 13  2  1  0  0  0  0
 13 10  1  1  0  0  0
 15 14  1  6  0  0  0
 16 15  1  0  0  0  0
 17 18  1  0  0  0  0
 18 19  1  0  0  0  0
 19 16  1  0  0  0  0
 20 21  1  0  0  0  0
 23 31  1  1  0  0  0
 23 28  1  0  0  0  0
 24 29  1  6  0  0  0
 25 22  1  1  0  0  0
 25 24  1  0  0  0  0
 26 30  1  0  0  0  0
 26 23  1  0  0  0  0
 28 24  1  0  0  0  0
 28 27  1  6  0  0  0
 30 25  1  0  0  0  0
 32 41  1  6  0  0  0
 32 37  1  0  0  0  0
 32 31  1  0  0  0  0
 33 36  2  0  0  0  0
 34 37  1  0  0  0  0
 36 34  1  0  0  0  0
 37 35  2  0  0  0  0
 38 36  1  0  0  0  0
 39 38  1  0  0  0  0
 40 41  3  0  0  0  0
M  END
>  <MODEL>
7

>  <REMARK>
 VINA RESULT:      -4.8      3.850     10.225
  Name = 
  11 active torsions:
  status: ('A' for Active; 'I' for Inactive)
    1  A    between atoms: C_1  and  C_7
    2  A    between atoms: C_1  and  C_38
    3  A    between atoms: C_1  and  C_39
    4  A    between atoms: C_4  and  C_19
    5  A    between atoms: C_5  and  C_38
    6  A    between atoms: C_8  and  C_34
    7  A    between atoms: C_13  and  P_22
    8  A    between atoms: C_14  and  C_19
    9  A    between atoms: C_15  and  O_30
   10  A    between atoms: C_23  and  C_36
   11  A    between atoms: O_30  and  C_37
                            x       y       z     vdW  Elec       q    Type
                         _______ _______ _______ _____ _____    ______ ____

>  <TORSDO>
F 11

$$$$
=
 OpenBabel11072412513D

 41 42  0  0  1  0  0  0  0  0999 V2000
  161.0850  206.3170  152.7670 C   0  0  0  0  0  2  0  0  0  0  0  0
  161.6770  204.4370  151.3890 C   0  0  2  0  0  3  0  0  0  0  0  0
  161.2060  204.8040  152.7820 C   0  0  0  0  0  2  0  0  0  0  0  0
  159.6870  205.2240  150.0190 C   0  0  0  0  0  1  0  0  0  0  0  0
  161.1030  206.7630  151.3060 C   0  0  2  0  0  3  0  0  0  0  0  0
  161.1150  205.5050  150.4550 C   0  0  1  0  0  3  0  0  0  0  0  0
  160.0770  202.4670  151.1350 C   0  0  0  0  0  2  0  0  0  0  0  0
  161.1590  201.7430  149.0960 C   0  0  1  0  0  3  0  0  0  0  0  0
  161.9620  202.7560  149.6630 O   0  0  0  0  0  0  0  0  0  0  0  0
  162.4000  202.1230  151.9250 C   0  0  0  0  0  1  0  0  0  0  0  0
  159.9390  201.6570  149.9290 C   0  0  0  0  0  0  0  0  0  0  0  0
  158.9720  200.9540  149.6850 O   0  0  0  0  0  0  0  0  0  0  0  0
  161.5190  202.9530  150.9990 C   0  0  1  0  0  0  0  0  0  0  0  0
  161.2050  200.8320  146.7190 C   0  0  0  0  0  1  0  0  0  0  0  0
  160.9020  202.0280  147.6080 C   0  0  2  0  0  3  0  0  0  0  0  0
  161.6790  203.2500  147.1370 C   0  0  0  0  0  2  0  0  0  0  0  0
  159.9080  203.1610  144.8850 O   0  0  0  0  0  1  0  0  0  0  0  0
  161.2070  203.6940  145.4480 P   0  0  0  0  0  2  0  0  0  0  0  0
  160.8590  204.3090  147.0440 O   0  0  0  0  0  0  0  0  0  0  0  0
  162.2820  206.2030  145.4770 C   0  0  0  0  0  1  0  0  0  0  0  0
  161.9560  205.0680  144.5270 C   0  0  0  0  0  1  0  0  0  0  0  0
  162.2610  207.5070  151.0650 O   0  0  0  0  0  0  0  0  0  0  0  0
  161.4190  210.7360  148.6100 C   0  0  1  0  0  3  0  0  0  0  0  0
  162.2940  209.9030  150.8570 C   0  0  1  0  0  3  0  0  0  0  0  0
  161.8500  208.5650  150.2490 C   0  0  1  0  0  3  0  0  0  0  0  0
  161.9560  209.4860  147.8860 C   0  0  0  0  0  2  0  0  0  0  0  0
  163.5520  211.4520  149.5080 O   0  0  0  0  0  1  0  0  0  0  0  0
  162.2450  211.0770  149.8600 C   0  0  1  0  0  3  0  0  0  0  0  0
  161.5130  210.1990  151.9770 O   0  0  0  0  0  1  0  0  0  0  0  0
  162.4550  208.3990  148.8560 C   0  0  0  0  0  2  0  0  0  0  0  0
  161.3220  211.9300  147.6710 C   0  0  0  0  0  2  0  0  0  0  0  0
  159.9410  212.5700  147.7370 C   0  0  1  0  0  3  0  0  0  0  0  0
  157.1060  212.5780  148.6240 O   0  0  0  0  0  0  0  0  0  0  0  0
  158.7090  214.1050  149.4280 N   0  0  0  0  0  2  0  0  0  0  0  0
  160.9520  214.3580  148.9060 O   0  0  0  0  0  0  0  0  0  0  0  0
  157.3880  213.5490  149.3740 C   0  0  0  0  0  0  0  0  0  0  0  0
  159.8910  213.7110  148.7080 C   0  0  0  0  0  0  0  0  0  0  0  0
  156.3350  214.1120  150.2620 C   0  0  0  0  0  2  0  0  0  0  0  0
  156.8860  214.4180  151.5040 O   0  0  0  0  0  1  0  0  0  0  0  0
  158.9980  213.2640  145.3260 C   0  0  0  0  0  3  0  0  0  0  0  0
  159.4230  212.9510  146.4140 C   0  0  0  0  0  0  0  0  0  0  0  0
  1  3  1  0  0  0  0
  2  3  1  1  0  0  0
  5 22  1  1  0  0  0
  5  1  1  0  0  0  0
  6  4  1  1  0  0  0
  6  5  1  0  0  0  0
  6  2  1  0  0  0  0
  8 15  1  6  0  0  0
  8  9  1  0  0  0  0
  8 11  1  0  0  0  0
  9 13  1  0  0  0  0
 11  7  1  0  0  0  0
 12 11  2  0  0  0  0
 13  7  1  0  0  0  0
 13  2  1  0  0  0  0
 13 10  1  1  0  0  0
 15 14  1  6  0  0  0
 16 15  1  0  0  0  0
 17 18  1  0  0  0  0
 18 19  1  0  0  0  0
 19 16  1  0  0  0  0
 21 20  1  0  0  0  0
 23 31  1  6  0  0  0
 23 28  1  0  0  0  0
 24 29  1  1  0  0  0
 25 24  1  0  0  0  0
 25 22  1  1  0  0  0
 26 23  1  0  0  0  0
 26 30  1  0  0  0  0
 28 27  1  6  0  0  0
 28 24  1  0  0  0  0
 30 25  1  0  0  0  0
 31 32  1  0  0  0  0
 32 41  1  6  0  0  0
 32 37  1  0  0  0  0
 33 36  2  0  0  0  0
 36 34  1  0  0  0  0
 36 38  1  0  0  0  0
 37 35  2  0  0  0  0
 37 34  1  0  0  0  0
 38 39  1  0  0  0  0
 40 41  3  0  0  0  0
M  END
>  <MODEL>
8

>  <REMARK>
 VINA RESULT:      -4.8      4.368      9.720
  Name = 
  11 active torsions:
  status: ('A' for Active; 'I' for Inactive)
    1  A    between atoms: C_1  and  C_7
    2  A    between atoms: C_1  and  C_38
    3  A    between atoms: C_1  and  C_39
    4  A    between atoms: C_4  and  C_19
    5  A    between atoms: C_5  and  C_38
    6  A    between atoms: C_8  and  C_34
    7  A    between atoms: C_13  and  P_22
    8  A    between atoms: C_14  and  C_19
    9  A    between atoms: C_15  and  O_30
   10  A    between atoms: C_23  and  C_36
   11  A    between atoms: O_30  and  C_37
                            x       y       z     vdW  Elec       q    Type
                         _______ _______ _______ _____ _____    ______ ____

>  <TORSDO>
F 11

$$$$
=
 OpenBabel11072412513D

 41 42  0  0  1  0  0  0  0  0999 V2000
  160.4730  207.0540  151.3260 C   0  0  0  0  0  2  0  0  0  0  0  0
  160.8890  204.6920  151.5000 C   0  0  2  0  0  3  0  0  0  0  0  0
  160.3260  205.7470  150.5690 C   0  0  0  0  0  2  0  0  0  0  0  0
  163.3100  205.4540  151.6350 C   0  0  0  0  0  1  0  0  0  0  0  0
  161.4430  206.8080  152.4800 C   0  0  2  0  0  3  0  0  0  0  0  0
  161.9610  205.3880  152.3330 C   0  0  1  0  0  3  0  0  0  0  0  0
  160.0320  202.3770  150.8630 C   0  0  0  0  0  2  0  0  0  0  0  0
  161.2180  202.4240  148.7550 C   0  0  1  0  0  3  0  0  0  0  0  0
  161.6570  203.5320  149.5120 O   0  0  0  0  0  0  0  0  0  0  0  0
  162.3630  202.6990  151.6360 C   0  0  0  0  0  1  0  0  0  0  0  0
  160.1280  201.7910  149.5300 C   0  0  0  0  0  0  0  0  0  0  0  0
  159.4430  200.8590  149.1410 O   0  0  0  0  0  0  0  0  0  0  0  0
  161.2220  203.3340  150.8500 C   0  0  1  0  0  0  0  0  0  0  0  0
  160.8390  201.7110  146.3400 C   0  0  0  0  0  1  0  0  0  0  0  0
  160.8260  202.8610  147.3350 C   0  0  2  0  0  3  0  0  0  0  0  0
  161.7130  203.9980  146.8420 C   0  0  0  0  0  2  0  0  0  0  0  0
  159.8380  204.1500  144.6790 O   0  0  0  0  0  1  0  0  0  0  0  0
  161.2140  204.5240  145.1850 P   0  0  0  0  0  2  0  0  0  0  0  0
  161.0140  205.1430  146.8040 O   0  0  0  0  0  0  0  0  0  0  0  0
  161.5820  205.8210  142.8120 C   0  0  0  0  0  1  0  0  0  0  0  0
  162.0690  205.8230  144.2470 C   0  0  0  0  0  1  0  0  0  0  0  0
  160.7610  206.9390  153.6930 O   0  0  0  0  0  0  0  0  0  0  0  0
  160.2680  211.0280  154.1370 C   0  0  1  0  0  3  0  0  0  0  0  0
  160.6740  208.7690  155.2510 C   0  0  1  0  0  3  0  0  0  0  0  0
  160.4700  208.3020  153.8020 C   0  0  1  0  0  3  0  0  0  0  0  0
  161.0370  210.5940  152.8740 C   0  0  0  0  0  2  0  0  0  0  0  0
  162.0920  210.6660  155.6890 O   0  0  0  0  0  1  0  0  0  0  0  0
  160.7680  210.3000  155.3950 C   0  0  1  0  0  3  0  0  0  0  0  0
  159.6440  208.2790  156.0580 O   0  0  0  0  0  1  0  0  0  0  0  0
  161.3810  209.0940  152.8660 C   0  0  0  0  0  2  0  0  0  0  0  0
  160.3010  212.5380  154.3240 C   0  0  0  0  0  2  0  0  0  0  0  0
  158.8970  213.1280  154.2760 C   0  0  1  0  0  3  0  0  0  0  0  0
  159.3760  214.4530  151.6600 O   0  0  0  0  0  0  0  0  0  0  0  0
  157.8910  212.6450  151.9330 N   0  0  0  0  0  2  0  0  0  0  0  0
  157.2980  211.4470  153.8240 O   0  0  0  0  0  0  0  0  0  0  0  0
  158.5590  213.6430  151.1480 C   0  0  0  0  0  0  0  0  0  0  0  0
  157.9980  212.3740  153.3420 C   0  0  0  0  0  0  0  0  0  0  0  0
  158.3110  213.6890  149.6820 C   0  0  0  0  0  2  0  0  0  0  0  0
  156.9400  213.7530  149.4420 O   0  0  0  0  0  1  0  0  0  0  0  0
  157.8020  213.4180  156.7040 C   0  0  0  0  0  3  0  0  0  0  0  0
  158.2970  213.2860  155.6080 C   0  0  0  0  0  0  0  0  0  0  0  0
  1  5  1  0  0  0  0
  2  3  1  6  0  0  0
  2  6  1  0  0  0  0
  3  1  1  0  0  0  0
  5 22  1  1  0  0  0
  6  4  1  6  0  0  0
  6  5  1  0  0  0  0
  8 15  1  6  0  0  0
  8  9  1  0  0  0  0
  8 11  1  0  0  0  0
  9 13  1  0  0  0  0
 11  7  1  0  0  0  0
 12 11  2  0  0  0  0
 13  7  1  0  0  0  0
 13  2  1  0  0  0  0
 13 10  1  1  0  0  0
 15 14  1  6  0  0  0
 16 15  1  0  0  0  0
 17 18  1  0  0  0  0
 18 19  1  0  0  0  0
 19 16  1  0  0  0  0
 20 21  1  0  0  0  0
 23 31  1  1  0  0  0
 23 28  1  0  0  0  0
 24 28  1  0  0  0  0
 24 29  1  1  0  0  0
 25 22  1  1  0  0  0
 25 24  1  0  0  0  0
 26 23  1  0  0  0  0
 28 27  1  6  0  0  0
 30 26  1  0  0  0  0
 30 25  1  0  0  0  0
 32 31  1  1  0  0  0
 32 41  1  0  0  0  0
 34 37  1  0  0  0  0
 36 33  2  0  0  0  0
 36 34  1  0  0  0  0
 37 35  2  0  0  0  0
 37 32  1  0  0  0  0
 38 36  1  0  0  0  0
 39 38  1  0  0  0  0
 41 40  3  0  0  0  0
M  END
>  <MODEL>
9

>  <REMARK>
 VINA RESULT:      -4.7      3.569     10.364
  Name = 
  11 active torsions:
  status: ('A' for Active; 'I' for Inactive)
    1  A    between atoms: C_1  and  C_7
    2  A    between atoms: C_1  and  C_38
    3  A    between atoms: C_1  and  C_39
    4  A    between atoms: C_4  and  C_19
    5  A    between atoms: C_5  and  C_38
    6  A    between atoms: C_8  and  C_34
    7  A    between atoms: C_13  and  P_22
    8  A    between atoms: C_14  and  C_19
    9  A    between atoms: C_15  and  O_30
   10  A    between atoms: C_23  and  C_36
   11  A    between atoms: O_30  and  C_37
                            x       y       z     vdW  Elec       q    Type
                         _______ _______ _______ _____ _____    ______ ____

>  <TORSDO>
F 11

$$$$
