=
 OpenBabel11072415293D

 59 65  0  0  1  0  0  0  0  0999 V2000
  162.0440  209.3280  150.0150 C   0  0  0  0  0  0  0  0  0  0  0  0
  161.6340  211.2470  148.1000 N   0  0  0  0  0  0  0  0  0  0  0  0
  162.0260  209.0050  148.6930 N   0  0  0  0  0  0  0  0  0  0  0  0
  161.8260  209.9510  147.7420 C   0  0  0  0  0  3  0  0  0  0  0  0
  161.6270  211.6240  149.4080 C   0  0  0  0  0  0  0  0  0  0  0  0
  161.8410  210.6600  150.4090 C   0  0  0  0  0  0  0  0  0  0  0  0
  162.2580  208.3120  150.9970 N   0  0  0  0  0  2  0  0  0  0  0  0
  161.8670  211.1090  152.1550 S   0  0  0  0  0  0  0  0  0  0  0  0
  160.0530  211.1670  152.2650 C   0  0  2  0  0  3  0  0  0  0  0  0
  154.0130  214.4240  153.8320 C   0  0  0  0  0  1  0  0  0  0  0  0
  157.5150  213.3370  153.1790 C   0  0  0  0  0  0  0  0  0  0  0  0
  156.2850  213.8440  153.0520 C   0  0  0  0  0  3  0  0  0  0  0  0
  158.0180  213.1090  150.7110 C   0  0  0  0  0  1  0  0  0  0  0  0
  158.2930  213.2350  154.4290 C   0  0  1  0  0  3  0  0  0  0  0  0
  155.7070  213.8610  155.5850 C   0  0  0  0  0  2  0  0  0  0  0  0
  157.6550  212.2580  155.4280 C   0  0  0  0  0  2  0  0  0  0  0  0
  159.5750  212.7530  154.0650 O   0  0  0  0  0  0  0  0  0  0  0  0
  159.5910  212.5690  152.6510 C   0  0  2  0  0  3  0  0  0  0  0  0
  156.1360  212.3980  155.5710 C   0  0  0  0  0  2  0  0  0  0  0  0
  155.4880  214.4520  154.1810 C   0  0  2  0  0  3  0  0  0  0  0  0
  158.2740  212.8410  152.1160 N   0  0  0  0  0  0  0  0  0  0  0  0
  159.5510  210.1110  153.2410 C   0  0  0  0  0  2  0  0  0  0  0  0
  162.1270  210.5770  156.0750 C   0  0  0  0  0  2  0  0  0  0  0  0
  160.9790  210.8940  155.1090 C   0  0  0  0  0  2  0  0  0  0  0  0
  160.6600  209.7150  154.1950 C   0  0  1  0  0  3  0  0  0  0  0  0
  160.2170  208.5010  155.0380 C   0  0  2  0  0  3  0  0  0  0  0  0
  162.2560  209.0880  156.4190 C   0  0  0  0  0  2  0  0  0  0  0  0
  160.9040  208.3780  156.4120 C   0  0  0  0  0  2  0  0  0  0  0  0
  160.1760  207.2870  154.3180 O   0  0  0  0  0  0  0  0  0  0  0  0
  161.4350  206.6750  154.3960 C   0  0  0  0  0  1  0  0  0  0  0  0
  162.3910  206.9080  150.6430 C   0  0  0  0  0  2  0  0  0  0  0  0
  161.1300  206.1630  151.0510 C   0  0  0  0  0  2  0  0  0  0  0  0
  161.1650  204.6840  150.6600 C   0  0  1  0  0  3  0  0  0  0  0  0
  160.2540  203.8190  151.5280 C   0  0  0  0  0  3  0  0  0  0  0  0
  160.7160  202.3740  151.4700 C   0  0  0  0  0  2  0  0  0  0  0  0
  161.0550  203.2290  152.6730 C   0  0  0  0  0  2  0  0  0  0  0  0
  160.9750  204.4490  149.1570 C   0  0  0  0  0  2  0  0  0  0  0  0
  162.1930  203.9710  148.5120 N   0  0  0  0  0  2  0  0  0  0  0  0
  161.8190  203.3500  147.3100 N   0  0  0  0  0  0  0  0  0  0  0  0
  161.0030  202.3230  147.6570 O   0  0  0  0  0  1  0  0  0  0  0  0
  160.9980  203.9170  145.0750 C   0  0  0  0  0  3  0  0  0  0  0  0
  160.7630  206.2220  144.4400 N   0  0  0  0  0  2  0  0  0  0  0  0
  160.8490  204.8300  144.1140 C   0  0  0  0  0  3  0  0  0  0  0  0
  160.7500  206.6830  145.8260 C   0  0  0  0  0  2  0  0  0  0  0  0
  161.5690  205.7310  146.6940 C   0  0  0  0  0  2  0  0  0  0  0  0
  161.0210  204.3050  146.5350 C   0  0  2  0  0  3  0  0  0  0  0  0
  161.4400  213.0700  149.7480 C   0  0  0  0  0  2  0  0  0  0  0  0
  161.3600  213.8650  148.5320 N   0  0  0  0  0  2  0  0  0  0  0  0
  159.9500  214.0560  148.2400 C   0  0  0  0  0  2  0  0  0  0  0  0
  159.4220  212.8800  147.4430 C   0  0  0  0  0  2  0  0  0  0  0  0
  158.3700  213.3420  146.5530 N   0  0  0  0  0  2  0  0  0  0  0  0
  157.5380  214.4510  144.6990 O   0  0  0  0  0  0  0  0  0  0  0  0
  158.5580  214.0550  145.3230 C   0  0  0  0  0  0  0  0  0  0  0  0
  159.8180  214.3400  144.7800 O   0  0  0  0  0  0  0  0  0  0  0  0
  160.5580  213.4610  143.9470 C   0  0  0  0  0  2  0  0  0  0  0  0
  160.2320  212.5230  141.5880 C   0  0  1  0  0  3  0  0  0  0  0  0
  161.4460  213.4270  141.6330 C   0  0  0  0  0  2  0  0  0  0  0  0
  160.4960  211.3460  142.2990 O   0  0  0  0  0  1  0  0  0  0  0  0
  160.2410  213.7590  142.4880 C   0  0  2  0  0  3  0  0  0  0  0  0
  1  6  1  0  0  0  0
  1  7  1  0  0  0  0
  2  5  1  0  0  0  0
  3  1  2  0  0  0  0
  4  2  2  0  0  0  0
  4  3  1  0  0  0  0
  5 47  1  0  0  0  0
  5  6  2  0  0  0  0
  6  8  1  0  0  0  0
  8  9  1  0  0  0  0
  9 22  1  1  0  0  0
 11 14  1  0  0  0  0
 12 11  2  0  0  0  0
 12 20  1  0  0  0  0
 13 21  1  0  0  0  0
 14 16  1  1  0  0  0
 16 19  1  0  0  0  0
 17 14  1  0  0  0  0
 18  9  1  1  0  0  0
 18 17  1  0  0  0  0
 19 15  1  0  0  0  0
 20 10  1  6  0  0  0
 20 15  1  0  0  0  0
 21 18  1  0  0  0  0
 21 11  1  0  0  0  0
 23 27  1  0  0  0  0
 24 23  1  0  0  0  0
 25 22  1  6  0  0  0
 25 26  1  0  0  0  0
 25 24  1  0  0  0  0
 26 29  1  6  0  0  0
 26 28  1  0  0  0  0
 28 27  1  0  0  0  0
 29 30  1  0  0  0  0
 31  7  1  0  0  0  0
 31 32  1  0  0  0  0
 33 37  1  6  0  0  0
 33 32  1  0  0  0  0
 33 34  1  0  0  0  0
 34 36  1  0  0  0  0
 35 34  1  0  0  0  0
 35 36  1  0  0  0  0
 38 37  1  0  0  0  0
 39 40  1  0  0  0  0
 39 38  1  0  0  0  0
 41 46  1  0  0  0  0
 42 44  1  0  0  0  0
 43 42  1  0  0  0  0
 43 41  2  0  0  0  0
 44 45  1  0  0  0  0
 46 45  1  0  0  0  0
 46 39  1  1  0  0  0
 48 47  1  0  0  0  0
 49 48  1  0  0  0  0
 50 49  1  0  0  0  0
 51 50  1  0  0  0  0
 52 53  2  0  0  0  0
 53 51  1  0  0  0  0
 54 53  1  0  0  0  0
 55 54  1  0  0  0  0
 56 57  1  0  0  0  0
 56 58  1  1  0  0  0
 56 59  1  0  0  0  0
 57 59  1  0  0  0  0
 59 55  1  1  0  0  0
M  END
>  <MODEL>
1

>  <REMARK>
 VINA RESULT:      -4.5      0.000      0.000
  Name = 
  22 active torsions:
  status: ('A' for Active; 'I' for Inactive)
    1  A    between atoms: N_3  and  C_10
    2  A    between atoms: N_3  and  C_35
    3  A    between atoms: C_6  and  O_18
    4  A    between atoms: C_6  and  C_59
    5  A    between atoms: C_8  and  C_30
    6  A    between atoms: C_8  and  C_57
    7  A    between atoms: C_9  and  N_12
    8  A    between atoms: C_9  and  C_35
    9  A    between atoms: C_10  and  C_48
   10  A    between atoms: O_13  and  C_36
   11  A    between atoms: N_16  and  N_28
   12  A    between atoms: N_16  and  C_54
   13  A    between atoms: O_18  and  C_58
   14  A    between atoms: C_21  and  C_41
   15  A    between atoms: C_26  and  C_57
   16  A    between atoms: N_28  and  C_56
   17  A    between atoms: C_30  and  N_55
   18  A    between atoms: C_33  and  S_34
   19  A    between atoms: C_33  and  C_41
   20  A    between atoms: C_33  and  C_47
   21  A    between atoms: S_34  and  C_53
   22  A    between atoms: C_54  and  C_57
                            x       y       z     vdW  Elec       q    Type
                         _______ _______ _______ _____ _____    ______ ____

>  <TORSDO>
F 22

$$$$
=
 OpenBabel11072415293D

 59 65  0  0  1  0  0  0  0  0999 V2000
  161.5150  208.7530  149.6820 C   0  0  0  0  0  0  0  0  0  0  0  0
  160.7200  208.2200  152.2510 N   0  0  0  0  0  0  0  0  0  0  0  0
  160.8970  207.5820  149.9940 N   0  0  0  0  0  0  0  0  0  0  0  0
  160.5000  207.3140  151.2630 C   0  0  0  0  0  3  0  0  0  0  0  0
  161.3470  209.4000  151.9990 C   0  0  0  0  0  0  0  0  0  0  0  0
  161.7590  209.7010  150.6880 C   0  0  0  0  0  0  0  0  0  0  0  0
  161.9230  209.0110  148.3370 N   0  0  0  0  0  2  0  0  0  0  0  0
  162.5720  211.2620  150.2940 S   0  0  0  0  0  0  0  0  0  0  0  0
  160.9960  212.1050  149.9560 C   0  0  2  0  0  3  0  0  0  0  0  0
  162.3820  212.7570  143.0860 C   0  0  0  0  0  1  0  0  0  0  0  0
  161.5850  213.1370  146.7050 C   0  0  0  0  0  0  0  0  0  0  0  0
  162.2250  213.0610  145.5340 C   0  0  0  0  0  3  0  0  0  0  0  0
  163.5990  212.7590  148.1880 C   0  0  0  0  0  1  0  0  0  0  0  0
  160.1880  213.5630  146.9100 C   0  0  1  0  0  3  0  0  0  0  0  0
  160.1130  213.2290  144.0290 C   0  0  0  0  0  2  0  0  0  0  0  0
  159.1870  212.5770  146.2890 C   0  0  0  0  0  2  0  0  0  0  0  0
  159.9840  213.6080  148.3120 O   0  0  0  0  0  0  0  0  0  0  0  0
  161.2050  213.2300  148.9460 C   0  0  2  0  0  3  0  0  0  0  0  0
  159.5600  212.0930  144.8840 C   0  0  0  0  0  2  0  0  0  0  0  0
  161.6260  213.4500  144.2030 C   0  0  2  0  0  3  0  0  0  0  0  0
  162.1690  212.8430  147.9400 N   0  0  0  0  0  0  0  0  0  0  0  0
  160.3810  212.6090  151.2540 C   0  0  0  0  0  2  0  0  0  0  0  0
  157.0380  213.2790  149.4490 C   0  0  0  0  0  2  0  0  0  0  0  0
  158.3590  212.5960  149.8200 C   0  0  0  0  0  2  0  0  0  0  0  0
  159.0650  213.3070  150.9710 C   0  0  1  0  0  3  0  0  0  0  0  0
  158.1750  213.2800  152.2310 C   0  0  2  0  0  3  0  0  0  0  0  0
  156.3730  214.0210  150.6150 C   0  0  0  0  0  2  0  0  0  0  0  0
  156.6610  213.3540  151.9580 C   0  0  0  0  0  2  0  0  0  0  0  0
  158.6060  214.1490  153.2570 O   0  0  0  0  0  0  0  0  0  0  0  0
  157.5120  214.4520  154.0790 C   0  0  0  0  0  1  0  0  0  0  0  0
  161.7660  208.0270  147.2780 C   0  0  0  0  0  2  0  0  0  0  0  0
  162.2870  206.6820  147.7570 C   0  0  0  0  0  2  0  0  0  0  0  0
  162.0530  205.5610  146.7420 C   0  0  1  0  0  3  0  0  0  0  0  0
  161.7280  206.0840  145.3450 C   0  0  0  0  0  3  0  0  0  0  0  0
  161.3320  204.9260  144.4460 C   0  0  0  0  0  2  0  0  0  0  0  0
  160.2660  205.8260  145.0340 C   0  0  0  0  0  2  0  0  0  0  0  0
  163.1540  204.4940  146.7510 C   0  0  0  0  0  2  0  0  0  0  0  0
  162.6780  203.2110  147.2580 N   0  0  0  0  0  2  0  0  0  0  0  0
  161.2770  203.2130  147.1610 N   0  0  0  0  0  0  0  0  0  0  0  0
  160.9620  202.2430  146.2670 O   0  0  0  0  0  1  0  0  0  0  0  0
  161.0340  203.8540  149.5100 C   0  0  0  0  0  3  0  0  0  0  0  0
  161.0720  202.1640  151.2180 N   0  0  0  0  0  2  0  0  0  0  0  0
  161.1610  203.5310  150.7990 C   0  0  0  0  0  3  0  0  0  0  0  0
  160.7580  201.0940  150.2750 C   0  0  0  0  0  2  0  0  0  0  0  0
  161.3000  201.4480  148.8930 C   0  0  0  0  0  2  0  0  0  0  0  0
  160.7340  202.8090  148.4610 C   0  0  2  0  0  3  0  0  0  0  0  0
  161.5390  210.3760  153.1170 C   0  0  0  0  0  2  0  0  0  0  0  0
  160.2640  210.9700  153.4910 N   0  0  0  0  0  2  0  0  0  0  0  0
  160.1330  210.8250  154.9300 C   0  0  0  0  0  2  0  0  0  0  0  0
  161.2450  211.5800  155.6310 C   0  0  0  0  0  2  0  0  0  0  0  0
  162.0440  210.6420  156.4030 N   0  0  0  0  0  2  0  0  0  0  0  0
  164.0180  209.7900  157.2610 O   0  0  0  0  0  0  0  0  0  0  0  0
  163.4580  210.7240  156.6270 C   0  0  0  0  0  0  0  0  0  0  0  0
  164.2530  211.7850  156.1720 O   0  0  0  0  0  0  0  0  0  0  0  0
  165.5990  212.0120  156.5610 C   0  0  0  0  0  2  0  0  0  0  0  0
  167.8960  212.5930  155.5950 C   0  0  1  0  0  3  0  0  0  0  0  0
  167.0690  213.8480  155.7790 C   0  0  0  0  0  2  0  0  0  0  0  0
  168.2640  212.0850  156.8460 O   0  0  0  0  0  1  0  0  0  0  0  0
  166.3830  212.5590  155.3770 C   0  0  2  0  0  3  0  0  0  0  0  0
  1  3  2  0  0  0  0
  1  6  1  0  0  0  0
  3  4  1  0  0  0  0
  4  2  2  0  0  0  0
  5  2  1  0  0  0  0
  5 47  1  0  0  0  0
  6  5  2  0  0  0  0
  7  1  1  0  0  0  0
  8  6  1  0  0  0  0
  9  8  1  0  0  0  0
  9 22  1  1  0  0  0
 11 14  1  0  0  0  0
 11 21  1  0  0  0  0
 12 11  2  0  0  0  0
 14 16  1  6  0  0  0
 14 17  1  0  0  0  0
 15 20  1  0  0  0  0
 15 19  1  0  0  0  0
 17 18  1  0  0  0  0
 18  9  1  1  0  0  0
 19 16  1  0  0  0  0
 20 10  1  6  0  0  0
 20 12  1  0  0  0  0
 21 13  1  0  0  0  0
 21 18  1  0  0  0  0
 23 24  1  0  0  0  0
 23 27  1  0  0  0  0
 24 25  1  0  0  0  0
 25 22  1  1  0  0  0
 25 26  1  0  0  0  0
 26 29  1  1  0  0  0
 27 28  1  0  0  0  0
 28 26  1  0  0  0  0
 29 30  1  0  0  0  0
 31 32  1  0  0  0  0
 31  7  1  0  0  0  0
 33 37  1  6  0  0  0
 33 32  1  0  0  0  0
 34 33  1  0  0  0  0
 35 36  1  0  0  0  0
 35 34  1  0  0  0  0
 36 34  1  0  0  0  0
 37 38  1  0  0  0  0
 39 38  1  0  0  0  0
 40 39  1  0  0  0  0
 41 43  2  0  0  0  0
 43 42  1  0  0  0  0
 44 42  1  0  0  0  0
 45 44  1  0  0  0  0
 46 39  1  6  0  0  0
 46 45  1  0  0  0  0
 46 41  1  0  0  0  0
 47 48  1  0  0  0  0
 48 49  1  0  0  0  0
 49 50  1  0  0  0  0
 50 51  1  0  0  0  0
 51 53  1  0  0  0  0
 53 52  2  0  0  0  0
 54 55  1  0  0  0  0
 54 53  1  0  0  0  0
 56 57  1  0  0  0  0
 56 58  1  1  0  0  0
 59 56  1  0  0  0  0
 59 57  1  0  0  0  0
 59 55  1  1  0  0  0
M  END
>  <MODEL>
2

>  <REMARK>
 VINA RESULT:      -3.1      2.699      8.235
  Name = 
  22 active torsions:
  status: ('A' for Active; 'I' for Inactive)
    1  A    between atoms: N_3  and  C_10
    2  A    between atoms: N_3  and  C_35
    3  A    between atoms: C_6  and  O_18
    4  A    between atoms: C_6  and  C_59
    5  A    between atoms: C_8  and  C_30
    6  A    between atoms: C_8  and  C_57
    7  A    between atoms: C_9  and  N_12
    8  A    between atoms: C_9  and  C_35
    9  A    between atoms: C_10  and  C_48
   10  A    between atoms: O_13  and  C_36
   11  A    between atoms: N_16  and  N_28
   12  A    between atoms: N_16  and  C_54
   13  A    between atoms: O_18  and  C_58
   14  A    between atoms: C_21  and  C_41
   15  A    between atoms: C_26  and  C_57
   16  A    between atoms: N_28  and  C_56
   17  A    between atoms: C_30  and  N_55
   18  A    between atoms: C_33  and  S_34
   19  A    between atoms: C_33  and  C_41
   20  A    between atoms: C_33  and  C_47
   21  A    between atoms: S_34  and  C_53
   22  A    between atoms: C_54  and  C_57
                            x       y       z     vdW  Elec       q    Type
                         _______ _______ _______ _____ _____    ______ ____

>  <TORSDO>
F 22

$$$$
=
 OpenBabel11072415293D

 59 65  0  0  1  0  0  0  0  0999 V2000
  161.5830  208.8670  149.4650 C   0  0  0  0  0  0  0  0  0  0  0  0
  160.6570  208.6500  152.0360 N   0  0  0  0  0  0  0  0  0  0  0  0
  160.9330  207.7470  149.8830 N   0  0  0  0  0  0  0  0  0  0  0  0
  160.4710  207.6360  151.1530 C   0  0  0  0  0  3  0  0  0  0  0  0
  161.3140  209.7860  151.6780 C   0  0  0  0  0  0  0  0  0  0  0  0
  161.7940  209.9250  150.3640 C   0  0  0  0  0  0  0  0  0  0  0  0
  162.0590  208.9590  148.1210 N   0  0  0  0  0  2  0  0  0  0  0  0
  162.6490  211.4200  149.8280 S   0  0  0  0  0  0  0  0  0  0  0  0
  161.0940  212.3200  149.5450 C   0  0  2  0  0  3  0  0  0  0  0  0
  162.3520  212.6320  142.6270 C   0  0  0  0  0  1  0  0  0  0  0  0
  161.6290  213.1920  146.2370 C   0  0  0  0  0  0  0  0  0  0  0  0
  162.2450  213.0530  145.0590 C   0  0  0  0  0  3  0  0  0  0  0  0
  163.6670  212.8650  147.6980 C   0  0  0  0  0  1  0  0  0  0  0  0
  160.2390  213.6390  146.4490 C   0  0  1  0  0  3  0  0  0  0  0  0
  160.1060  213.1690  143.5890 C   0  0  0  0  0  2  0  0  0  0  0  0
  159.2180  212.6340  145.8950 C   0  0  0  0  0  2  0  0  0  0  0  0
  160.0630  213.7530  147.8510 O   0  0  0  0  0  0  0  0  0  0  0  0
  161.2920  213.3940  148.4790 C   0  0  2  0  0  3  0  0  0  0  0  0
  159.5600  212.0810  144.5070 C   0  0  0  0  0  2  0  0  0  0  0  0
  161.6230  213.3840  143.7230 C   0  0  2  0  0  3  0  0  0  0  0  0
  162.2340  212.9510  147.4740 N   0  0  0  0  0  0  0  0  0  0  0  0
  160.5780  212.9030  150.8530 C   0  0  0  0  0  2  0  0  0  0  0  0
  157.0640  213.2760  149.3060 C   0  0  0  0  0  2  0  0  0  0  0  0
  158.4520  212.6940  149.5970 C   0  0  0  0  0  2  0  0  0  0  0  0
  159.2020  213.5050  150.6490 C   0  0  1  0  0  3  0  0  0  0  0  0
  158.4200  213.4920  151.9790 C   0  0  2  0  0  3  0  0  0  0  0  0
  156.4500  214.0390  150.4870 C   0  0  0  0  0  2  0  0  0  0  0  0
  156.8870  213.4610  151.8310 C   0  0  0  0  0  2  0  0  0  0  0  0
  158.8770  214.4380  152.9220 O   0  0  0  0  0  0  0  0  0  0  0  0
  158.5130  214.0060  154.2050 C   0  0  0  0  0  1  0  0  0  0  0  0
  161.9380  207.8580  147.1790 C   0  0  0  0  0  2  0  0  0  0  0  0
  162.2750  206.5530  147.8820 C   0  0  0  0  0  2  0  0  0  0  0  0
  161.7480  205.3260  147.1350 C   0  0  1  0  0  3  0  0  0  0  0  0
  162.1840  205.2880  145.6730 C   0  0  0  0  0  3  0  0  0  0  0  0
  161.2900  204.3370  144.8980 C   0  0  0  0  0  2  0  0  0  0  0  0
  161.0720  205.8310  144.7960 C   0  0  0  0  0  2  0  0  0  0  0  0
  161.9990  204.0080  147.8790 C   0  0  0  0  0  2  0  0  0  0  0  0
  160.7580  203.3440  148.2630 N   0  0  0  0  0  2  0  0  0  0  0  0
  161.0600  201.9950  148.5080 N   0  0  0  0  0  0  0  0  0  0  0  0
  159.9330  201.4470  149.0270 O   0  0  0  0  0  1  0  0  0  0  0  0
  160.2380  201.7130  146.2200 C   0  0  0  0  0  3  0  0  0  0  0  0
  160.5220  199.6060  145.1010 N   0  0  0  0  0  2  0  0  0  0  0  0
  159.9050  200.8930  145.2220 C   0  0  0  0  0  3  0  0  0  0  0  0
  161.5880  199.1820  146.0060 C   0  0  0  0  0  2  0  0  0  0  0  0
  161.3860  199.8200  147.3770 C   0  0  0  0  0  2  0  0  0  0  0  0
  161.3120  201.3460  147.2170 C   0  0  2  0  0  3  0  0  0  0  0  0
  161.4680  210.8860  152.6820 C   0  0  0  0  0  2  0  0  0  0  0  0
  160.4560  210.7630  153.7200 N   0  0  0  0  0  2  0  0  0  0  0  0
  161.1550  210.6980  154.9910 C   0  0  0  0  0  2  0  0  0  0  0  0
  161.7870  209.3320  155.1660 C   0  0  0  0  0  2  0  0  0  0  0  0
  160.7400  208.3470  155.3820 N   0  0  0  0  0  2  0  0  0  0  0  0
  159.7460  206.2690  155.1530 O   0  0  0  0  0  0  0  0  0  0  0  0
  160.7660  206.9790  154.9510 C   0  0  0  0  0  0  0  0  0  0  0  0
  161.8660  206.3920  154.3100 O   0  0  0  0  0  0  0  0  0  0  0  0
  161.8240  205.7800  153.0300 C   0  0  0  0  0  2  0  0  0  0  0  0
  161.0870  203.4530  152.2600 C   0  0  1  0  0  3  0  0  0  0  0  0
  160.2590  204.5210  151.5780 C   0  0  0  0  0  2  0  0  0  0  0  0
  162.3960  203.4860  151.7650 O   0  0  0  0  0  1  0  0  0  0  0  0
  160.7160  204.7350  153.0050 C   0  0  2  0  0  3  0  0  0  0  0  0
  1  3  2  0  0  0  0
  1  6  1  0  0  0  0
  3  4  1  0  0  0  0
  4  2  2  0  0  0  0
  5  2  1  0  0  0  0
  5 47  1  0  0  0  0
  6  5  2  0  0  0  0
  7  1  1  0  0  0  0
  8  6  1  0  0  0  0
  9  8  1  0  0  0  0
  9 22  1  1  0  0  0
 11 14  1  0  0  0  0
 11 21  1  0  0  0  0
 12 11  2  0  0  0  0
 14 16  1  1  0  0  0
 14 17  1  0  0  0  0
 15 20  1  0  0  0  0
 15 19  1  0  0  0  0
 17 18  1  0  0  0  0
 18  9  1  1  0  0  0
 19 16  1  0  0  0  0
 20 10  1  6  0  0  0
 20 12  1  0  0  0  0
 21 13  1  0  0  0  0
 21 18  1  0  0  0  0
 23 24  1  0  0  0  0
 23 27  1  0  0  0  0
 24 25  1  0  0  0  0
 25 22  1  1  0  0  0
 25 26  1  0  0  0  0
 26 29  1  6  0  0  0
 27 28  1  0  0  0  0
 28 26  1  0  0  0  0
 29 30  1  0  0  0  0
 31 32  1  0  0  0  0
 31  7  1  0  0  0  0
 33 37  1  1  0  0  0
 33 32  1  0  0  0  0
 34 33  1  0  0  0  0
 35 34  1  0  0  0  0
 36 35  1  0  0  0  0
 36 34  1  0  0  0  0
 37 38  1  0  0  0  0
 38 39  1  0  0  0  0
 39 40  1  0  0  0  0
 41 46  1  0  0  0  0
 42 43  1  0  0  0  0
 42 44  1  0  0  0  0
 43 41  2  0  0  0  0
 44 45  1  0  0  0  0
 46 45  1  0  0  0  0
 46 39  1  1  0  0  0
 47 48  1  0  0  0  0
 48 49  1  0  0  0  0
 49 50  1  0  0  0  0
 50 51  1  0  0  0  0
 53 52  2  0  0  0  0
 53 51  1  0  0  0  0
 54 53  1  0  0  0  0
 55 54  1  0  0  0  0
 56 58  1  6  0  0  0
 56 59  1  0  0  0  0
 57 56  1  0  0  0  0
 57 59  1  0  0  0  0
 59 55  1  6  0  0  0
M  END
>  <MODEL>
3

>  <REMARK>
 VINA RESULT:      -2.9      2.148      7.909
  Name = 
  22 active torsions:
  status: ('A' for Active; 'I' for Inactive)
    1  A    between atoms: N_3  and  C_10
    2  A    between atoms: N_3  and  C_35
    3  A    between atoms: C_6  and  O_18
    4  A    between atoms: C_6  and  C_59
    5  A    between atoms: C_8  and  C_30
    6  A    between atoms: C_8  and  C_57
    7  A    between atoms: C_9  and  N_12
    8  A    between atoms: C_9  and  C_35
    9  A    between atoms: C_10  and  C_48
   10  A    between atoms: O_13  and  C_36
   11  A    between atoms: N_16  and  N_28
   12  A    between atoms: N_16  and  C_54
   13  A    between atoms: O_18  and  C_58
   14  A    between atoms: C_21  and  C_41
   15  A    between atoms: C_26  and  C_57
   16  A    between atoms: N_28  and  C_56
   17  A    between atoms: C_30  and  N_55
   18  A    between atoms: C_33  and  S_34
   19  A    between atoms: C_33  and  C_41
   20  A    between atoms: C_33  and  C_47
   21  A    between atoms: S_34  and  C_53
   22  A    between atoms: C_54  and  C_57
                            x       y       z     vdW  Elec       q    Type
                         _______ _______ _______ _____ _____    ______ ____

>  <TORSDO>
F 22

$$$$
=
 OpenBabel11072415293D

 59 65  0  0  1  0  0  0  0  0999 V2000
  161.2530  211.1160  150.5760 C   0  0  0  0  0  0  0  0  0  0  0  0
  159.5530  211.1310  152.7270 N   0  0  0  0  0  0  0  0  0  0  0  0
  160.3210  212.0950  150.7250 N   0  0  0  0  0  0  0  0  0  0  0  0
  159.4790  212.1080  151.7880 C   0  0  0  0  0  3  0  0  0  0  0  0
  160.4560  210.1180  152.6220 C   0  0  0  0  0  0  0  0  0  0  0  0
  161.3430  210.0900  151.5310 C   0  0  0  0  0  0  0  0  0  0  0  0
  162.1290  211.1260  149.4470 N   0  0  0  0  0  2  0  0  0  0  0  0
  162.5760  208.7860  151.3560 S   0  0  0  0  0  0  0  0  0  0  0  0
  161.5980  207.8990  150.1060 C   0  0  2  0  0  3  0  0  0  0  0  0
  160.1940  201.0060  149.8590 C   0  0  0  0  0  1  0  0  0  0  0  0
  160.4590  204.6580  150.5390 C   0  0  0  0  0  0  0  0  0  0  0  0
  160.0750  203.4640  150.0770 C   0  0  0  0  0  3  0  0  0  0  0  0
  159.3270  206.0610  148.7660 C   0  0  0  0  0  1  0  0  0  0  0  0
  161.1230  204.9230  151.8300 C   0  0  1  0  0  3  0  0  0  0  0  0
  161.4260  202.0380  151.7760 C   0  0  0  0  0  2  0  0  0  0  0  0
  162.5300  204.3090  151.8920 C   0  0  0  0  0  2  0  0  0  0  0  0
  161.2260  206.3310  151.9470 O   0  0  0  0  0  0  0  0  0  0  0  0
  160.6480  206.9130  150.7800 C   0  0  2  0  0  3  0  0  0  0  0  0
  162.6240  202.8790  151.3480 C   0  0  0  0  0  2  0  0  0  0  0  0
  160.2160  202.1650  150.8350 C   0  0  2  0  0  3  0  0  0  0  0  0
  160.2600  205.8640  149.8620 N   0  0  0  0  0  0  0  0  0  0  0  0
  162.5190  207.2120  149.1070 C   0  0  0  0  0  2  0  0  0  0  0  0
  160.5560  207.3610  145.7890 C   0  0  0  0  0  2  0  0  0  0  0  0
  161.4090  207.8220  146.9760 C   0  0  0  0  0  2  0  0  0  0  0  0
  161.7150  206.6780  147.9380 C   0  0  1  0  0  3  0  0  0  0  0  0
  162.5150  205.5780  147.2100 C   0  0  2  0  0  3  0  0  0  0  0  0
  160.7440  205.8820  145.4260 C   0  0  0  0  0  2  0  0  0  0  0  0
  162.1610  205.3960  145.7210 C   0  0  0  0  0  2  0  0  0  0  0  0
  162.5990  204.3620  147.9230 O   0  0  0  0  0  0  0  0  0  0  0  0
  162.0510  203.3400  147.1350 C   0  0  0  0  0  1  0  0  0  0  0  0
  162.0190  212.1180  148.3910 C   0  0  0  0  0  2  0  0  0  0  0  0
  161.0610  211.6160  147.3230 C   0  0  0  0  0  2  0  0  0  0  0  0
  160.6580  212.7080  146.3300 C   0  0  1  0  0  3  0  0  0  0  0  0
  159.4540  213.5230  146.7980 C   0  0  0  0  0  3  0  0  0  0  0  0
  158.4890  213.7160  145.6430 C   0  0  0  0  0  2  0  0  0  0  0  0
  158.2000  212.6750  146.7030 C   0  0  0  0  0  2  0  0  0  0  0  0
  161.8360  213.5750  145.8700 C   0  0  0  0  0  2  0  0  0  0  0  0
  162.4530  213.0690  144.6480 N   0  0  0  0  0  2  0  0  0  0  0  0
  161.4420  212.9590  143.6800 N   0  0  0  0  0  0  0  0  0  0  0  0
  161.1900  214.2220  143.2560 O   0  0  0  0  0  1  0  0  0  0  0  0
  162.6550  213.1460  141.5630 C   0  0  0  0  0  3  0  0  0  0  0  0
  162.1180  211.6690  139.7460 N   0  0  0  0  0  2  0  0  0  0  0  0
  162.7280  212.8570  140.2630 C   0  0  0  0  0  3  0  0  0  0  0  0
  161.4720  210.6970  140.6250 C   0  0  0  0  0  2  0  0  0  0  0  0
  160.8790  211.4110  141.8370 C   0  0  0  0  0  2  0  0  0  0  0  0
  161.9840  212.2110  142.5420 C   0  0  2  0  0  3  0  0  0  0  0  0
  160.5160  209.0800  153.6990 C   0  0  0  0  0  2  0  0  0  0  0  0
  160.8770  209.6940  154.9680 N   0  0  0  0  0  2  0  0  0  0  0  0
  160.1480  208.9880  156.0060 C   0  0  0  0  0  2  0  0  0  0  0  0
  159.8360  209.9280  157.1530 C   0  0  0  0  0  2  0  0  0  0  0  0
  160.3360  211.2550  156.8310 N   0  0  0  0  0  2  0  0  0  0  0  0
  160.1320  213.4550  156.1430 O   0  0  0  0  0  0  0  0  0  0  0  0
  159.5410  212.3910  156.4640 C   0  0  0  0  0  0  0  0  0  0  0  0
  158.1390  212.3770  156.4370 O   0  0  0  0  0  0  0  0  0  0  0  0
  157.3190  213.5350  156.4410 C   0  0  0  0  0  2  0  0  0  0  0  0
  155.7590  213.5240  154.4130 C   0  0  1  0  0  3  0  0  0  0  0  0
  155.2260  214.4520  155.4830 C   0  0  0  0  0  2  0  0  0  0  0  0
  156.9140  214.0740  153.8460 O   0  0  0  0  0  1  0  0  0  0  0  0
  155.9430  213.1830  155.8920 C   0  0  2  0  0  3  0  0  0  0  0  0
  1  3  2  0  0  0  0
  1  6  1  0  0  0  0
  3  4  1  0  0  0  0
  4  2  2  0  0  0  0
  5  2  1  0  0  0  0
  5 47  1  0  0  0  0
  6  5  2  0  0  0  0
  7  1  1  0  0  0  0
  8  6  1  0  0  0  0
  9 22  1  6  0  0  0
  9  8  1  0  0  0  0
 11 14  1  0  0  0  0
 12 11  2  0  0  0  0
 12 20  1  0  0  0  0
 13 21  1  0  0  0  0
 14 16  1  6  0  0  0
 14 17  1  0  0  0  0
 18  9  1  6  0  0  0
 18 17  1  0  0  0  0
 19 15  1  0  0  0  0
 19 16  1  0  0  0  0
 20 10  1  6  0  0  0
 20 15  1  0  0  0  0
 21 11  1  0  0  0  0
 21 18  1  0  0  0  0
 23 24  1  0  0  0  0
 24 25  1  0  0  0  0
 25 22  1  1  0  0  0
 26 29  1  1  0  0  0
 26 25  1  0  0  0  0
 27 28  1  0  0  0  0
 27 23  1  0  0  0  0
 28 26  1  0  0  0  0
 30 29  1  0  0  0  0
 31  7  1  0  0  0  0
 32 31  1  0  0  0  0
 33 37  1  1  0  0  0
 33 34  1  0  0  0  0
 33 32  1  0  0  0  0
 35 36  1  0  0  0  0
 35 34  1  0  0  0  0
 36 34  1  0  0  0  0
 38 37  1  0  0  0  0
 39 38  1  0  0  0  0
 40 39  1  0  0  0  0
 41 46  1  0  0  0  0
 42 43  1  0  0  0  0
 42 44  1  0  0  0  0
 43 41  2  0  0  0  0
 44 45  1  0  0  0  0
 45 46  1  0  0  0  0
 46 39  1  1  0  0  0
 47 48  1  0  0  0  0
 48 49  1  0  0  0  0
 49 50  1  0  0  0  0
 51 50  1  0  0  0  0
 52 53  2  0  0  0  0
 53 51  1  0  0  0  0
 54 55  1  0  0  0  0
 54 53  1  0  0  0  0
 56 58  1  1  0  0  0
 56 57  1  0  0  0  0
 56 59  1  0  0  0  0
 57 59  1  0  0  0  0
 59 55  1  1  0  0  0
M  END
>  <MODEL>
4

>  <REMARK>
 VINA RESULT:      -2.6      2.246      9.572
  Name = 
  22 active torsions:
  status: ('A' for Active; 'I' for Inactive)
    1  A    between atoms: N_3  and  C_10
    2  A    between atoms: N_3  and  C_35
    3  A    between atoms: C_6  and  O_18
    4  A    between atoms: C_6  and  C_59
    5  A    between atoms: C_8  and  C_30
    6  A    between atoms: C_8  and  C_57
    7  A    between atoms: C_9  and  N_12
    8  A    between atoms: C_9  and  C_35
    9  A    between atoms: C_10  and  C_48
   10  A    between atoms: O_13  and  C_36
   11  A    between atoms: N_16  and  N_28
   12  A    between atoms: N_16  and  C_54
   13  A    between atoms: O_18  and  C_58
   14  A    between atoms: C_21  and  C_41
   15  A    between atoms: C_26  and  C_57
   16  A    between atoms: N_28  and  C_56
   17  A    between atoms: C_30  and  N_55
   18  A    between atoms: C_33  and  S_34
   19  A    between atoms: C_33  and  C_41
   20  A    between atoms: C_33  and  C_47
   21  A    between atoms: S_34  and  C_53
   22  A    between atoms: C_54  and  C_57
                            x       y       z     vdW  Elec       q    Type
                         _______ _______ _______ _____ _____    ______ ____

>  <TORSDO>
F 22

$$$$
=
 OpenBabel11072415293D

 59 65  0  0  1  0  0  0  0  0999 V2000
  161.5360  209.2190  149.4950 C   0  0  0  0  0  0  0  0  0  0  0  0
  161.3820  211.4140  147.8600 N   0  0  0  0  0  0  0  0  0  0  0  0
  161.2970  209.0830  148.1620 N   0  0  0  0  0  0  0  0  0  0  0  0
  161.2230  210.1660  147.3490 C   0  0  0  0  0  3  0  0  0  0  0  0
  161.6070  211.6090  149.1880 C   0  0  0  0  0  0  0  0  0  0  0  0
  161.6960  210.5000  150.0470 C   0  0  0  0  0  0  0  0  0  0  0  0
  161.6100  208.0610  150.3300 N   0  0  0  0  0  2  0  0  0  0  0  0
  162.0190  210.7000  151.8100 S   0  0  0  0  0  0  0  0  0  0  0  0
  160.2500  210.7310  152.2260 C   0  0  2  0  0  3  0  0  0  0  0  0
  154.3990  214.4510  153.4400 C   0  0  0  0  0  1  0  0  0  0  0  0
  157.8260  213.0210  153.1600 C   0  0  0  0  0  0  0  0  0  0  0  0
  156.7050  213.7150  152.9440 C   0  0  0  0  0  3  0  0  0  0  0  0
  158.7720  213.2160  150.8230 C   0  0  0  0  0  1  0  0  0  0  0  0
  158.3310  212.5610  154.4680 C   0  0  1  0  0  3  0  0  0  0  0  0
  155.6500  213.3140  155.2840 C   0  0  0  0  0  2  0  0  0  0  0  0
  157.4110  211.5080  155.1040 C   0  0  0  0  0  2  0  0  0  0  0  0
  159.6010  211.9810  154.2270 O   0  0  0  0  0  0  0  0  0  0  0  0
  159.8730  212.0810  152.8300 C   0  0  2  0  0  3  0  0  0  0  0  0
  155.9160  211.8350  155.0180 C   0  0  0  0  0  2  0  0  0  0  0  0
  155.7720  214.1960  154.0300 C   0  0  2  0  0  3  0  0  0  0  0  0
  158.7210  212.6400  152.1560 N   0  0  0  0  0  0  0  0  0  0  0  0
  159.9080  209.5740  153.1550 C   0  0  0  0  0  2  0  0  0  0  0  0
  162.8650  210.7090  155.3570 C   0  0  0  0  0  2  0  0  0  0  0  0
  161.7820  210.7490  154.2730 C   0  0  0  0  0  2  0  0  0  0  0  0
  160.9250  209.4870  154.2750 C   0  0  1  0  0  3  0  0  0  0  0  0
  160.2010  209.3450  155.6310 C   0  0  2  0  0  3  0  0  0  0  0  0
  162.4940  209.8530  156.5750 C   0  0  0  0  0  2  0  0  0  0  0  0
  160.9920  209.8640  156.8470 C   0  0  0  0  0  2  0  0  0  0  0  0
  159.6160  208.0760  155.8390 O   0  0  0  0  0  0  0  0  0  0  0  0
  160.5020  207.2900  156.5890 C   0  0  0  0  0  1  0  0  0  0  0  0
  161.3690  206.7220  149.8200 C   0  0  0  0  0  2  0  0  0  0  0  0
  162.3410  205.7510  150.4690 C   0  0  0  0  0  2  0  0  0  0  0  0
  161.6540  204.7790  151.4310 C   0  0  1  0  0  3  0  0  0  0  0  0
  160.7120  205.4780  152.4090 C   0  0  0  0  0  3  0  0  0  0  0  0
  160.9920  204.9950  153.8200 C   0  0  0  0  0  2  0  0  0  0  0  0
  161.5180  206.3380  153.3630 C   0  0  0  0  0  2  0  0  0  0  0  0
  161.0140  203.5770  150.7250 C   0  0  0  0  0  2  0  0  0  0  0  0
  161.3730  203.5090  149.3130 N   0  0  0  0  0  2  0  0  0  0  0  0
  161.2110  202.1770  148.9000 N   0  0  0  0  0  0  0  0  0  0  0  0
  159.9370  201.8380  149.2190 O   0  0  0  0  0  1  0  0  0  0  0  0
  161.6690  203.5070  146.8970 C   0  0  0  0  0  3  0  0  0  0  0  0
  160.5180  203.0120  144.8470 N   0  0  0  0  0  2  0  0  0  0  0  0
  161.3030  203.8820  145.6700 C   0  0  0  0  0  3  0  0  0  0  0  0
  160.1640  201.6630  145.2810 C   0  0  0  0  0  2  0  0  0  0  0  0
  160.0240  201.6300  146.8010 C   0  0  0  0  0  2  0  0  0  0  0  0
  161.3250  202.1390  147.4390 C   0  0  2  0  0  3  0  0  0  0  0  0
  161.8050  213.0030  149.6950 C   0  0  0  0  0  2  0  0  0  0  0  0
  162.3530  213.8480  148.6450 N   0  0  0  0  0  2  0  0  0  0  0  0
  162.3840  213.0520  147.4310 C   0  0  0  0  0  2  0  0  0  0  0  0
  161.8380  213.8570  146.2690 C   0  0  0  0  0  2  0  0  0  0  0  0
  162.9180  214.1450  145.3400 N   0  0  0  0  0  2  0  0  0  0  0  0
  163.9730  214.0920  143.2800 O   0  0  0  0  0  0  0  0  0  0  0  0
  162.9280  213.8440  143.9370 C   0  0  0  0  0  0  0  0  0  0  0  0
  161.8380  213.2790  143.2600 O   0  0  0  0  0  0  0  0  0  0  0  0
  161.8010  213.0140  141.8670 C   0  0  0  0  0  2  0  0  0  0  0  0
  160.1340  211.3940  140.7970 C   0  0  1  0  0  3  0  0  0  0  0  0
  160.3050  212.6240  139.9300 C   0  0  0  0  0  2  0  0  0  0  0  0
  161.3010  210.6240  140.7570 O   0  0  0  0  0  1  0  0  0  0  0  0
  160.3620  212.7640  141.4360 C   0  0  2  0  0  3  0  0  0  0  0  0
  1  6  1  0  0  0  0
  1  7  1  0  0  0  0
  2  5  1  0  0  0  0
  3  1  2  0  0  0  0
  4  2  2  0  0  0  0
  4  3  1  0  0  0  0
  5 47  1  0  0  0  0
  5  6  2  0  0  0  0
  6  8  1  0  0  0  0
  8  9  1  0  0  0  0
  9 22  1  1  0  0  0
 11 14  1  0  0  0  0
 12 11  2  0  0  0  0
 12 20  1  0  0  0  0
 13 21  1  0  0  0  0
 14 16  1  6  0  0  0
 17 14  1  0  0  0  0
 18  9  1  6  0  0  0
 18 17  1  0  0  0  0
 19 16  1  0  0  0  0
 19 15  1  0  0  0  0
 20 10  1  6  0  0  0
 20 15  1  0  0  0  0
 21 18  1  0  0  0  0
 21 11  1  0  0  0  0
 23 27  1  0  0  0  0
 24 25  1  0  0  0  0
 24 23  1  0  0  0  0
 25 22  1  6  0  0  0
 25 26  1  0  0  0  0
 26 29  1  1  0  0  0
 26 28  1  0  0  0  0
 27 28  1  0  0  0  0
 29 30  1  0  0  0  0
 31  7  1  0  0  0  0
 31 32  1  0  0  0  0
 33 32  1  6  0  0  0
 33 34  1  0  0  0  0
 34 36  1  0  0  0  0
 34 35  1  0  0  0  0
 36 35  1  0  0  0  0
 37 33  1  0  0  0  0
 38 37  1  0  0  0  0
 39 40  1  0  0  0  0
 39 38  1  0  0  0  0
 41 46  1  0  0  0  0
 42 44  1  0  0  0  0
 42 43  1  0  0  0  0
 43 41  2  0  0  0  0
 44 45  1  0  0  0  0
 45 46  1  0  0  0  0
 46 39  1  1  0  0  0
 48 47  1  0  0  0  0
 49 48  1  0  0  0  0
 50 49  1  0  0  0  0
 51 50  1  0  0  0  0
 52 53  2  0  0  0  0
 53 51  1  0  0  0  0
 54 53  1  0  0  0  0
 55 54  1  0  0  0  0
 56 58  1  6  0  0  0
 56 59  1  0  0  0  0
 57 56  1  0  0  0  0
 57 59  1  0  0  0  0
 59 55  1  6  0  0  0
M  END
>  <MODEL>
5

>  <REMARK>
 VINA RESULT:      -2.2      1.621      2.132
  Name = 
  22 active torsions:
  status: ('A' for Active; 'I' for Inactive)
    1  A    between atoms: N_3  and  C_10
    2  A    between atoms: N_3  and  C_35
    3  A    between atoms: C_6  and  O_18
    4  A    between atoms: C_6  and  C_59
    5  A    between atoms: C_8  and  C_30
    6  A    between atoms: C_8  and  C_57
    7  A    between atoms: C_9  and  N_12
    8  A    between atoms: C_9  and  C_35
    9  A    between atoms: C_10  and  C_48
   10  A    between atoms: O_13  and  C_36
   11  A    between atoms: N_16  and  N_28
   12  A    between atoms: N_16  and  C_54
   13  A    between atoms: O_18  and  C_58
   14  A    between atoms: C_21  and  C_41
   15  A    between atoms: C_26  and  C_57
   16  A    between atoms: N_28  and  C_56
   17  A    between atoms: C_30  and  N_55
   18  A    between atoms: C_33  and  S_34
   19  A    between atoms: C_33  and  C_41
   20  A    between atoms: C_33  and  C_47
   21  A    between atoms: S_34  and  C_53
   22  A    between atoms: C_54  and  C_57
                            x       y       z     vdW  Elec       q    Type
                         _______ _______ _______ _____ _____    ______ ____

>  <TORSDO>
F 22

$$$$
=
 OpenBabel11072415293D

 59 65  0  0  1  0  0  0  0  0999 V2000
  161.3860  211.4920  150.0280 C   0  0  0  0  0  0  0  0  0  0  0  0
  162.3870  208.9430  150.1500 N   0  0  0  0  0  0  0  0  0  0  0  0
  162.4600  211.1250  149.2770 N   0  0  0  0  0  0  0  0  0  0  0  0
  162.9580  209.8650  149.3330 C   0  0  0  0  0  3  0  0  0  0  0  0
  161.3210  209.2590  150.9340 C   0  0  0  0  0  0  0  0  0  0  0  0
  160.7850  210.5580  150.8860 C   0  0  0  0  0  0  0  0  0  0  0  0
  160.8810  212.8270  149.9500 N   0  0  0  0  0  2  0  0  0  0  0  0
  159.3570  211.0230  151.8840 S   0  0  0  0  0  0  0  0  0  0  0  0
  160.1540  210.5070  153.4350 C   0  0  2  0  0  3  0  0  0  0  0  0
  154.5950  214.4480  155.1970 C   0  0  0  0  0  1  0  0  0  0  0  0
  157.7900  212.5550  154.9200 C   0  0  0  0  0  0  0  0  0  0  0  0
  156.8610  213.5150  154.8820 C   0  0  0  0  0  3  0  0  0  0  0  0
  159.4230  213.6350  153.3190 C   0  0  0  0  0  1  0  0  0  0  0  0
  157.8220  211.4060  155.8450 C   0  0  1  0  0  3  0  0  0  0  0  0
  155.1050  212.2880  156.3510 C   0  0  0  0  0  2  0  0  0  0  0  0
  156.6550  210.4370  155.6020 C   0  0  0  0  0  2  0  0  0  0  0  0
  159.0440  210.7300  155.6040 O   0  0  0  0  0  0  0  0  0  0  0  0
  159.7400  211.4320  154.5750 C   0  0  2  0  0  3  0  0  0  0  0  0
  155.2980  211.1160  155.3930 C   0  0  0  0  0  2  0  0  0  0  0  0
  155.6890  213.6120  155.8300 C   0  0  2  0  0  3  0  0  0  0  0  0
  158.9100  212.5120  154.0850 N   0  0  0  0  0  0  0  0  0  0  0  0
  161.6660  210.4590  153.2580 C   0  0  0  0  0  2  0  0  0  0  0  0
  163.1450  211.0800  156.7670 C   0  0  0  0  0  2  0  0  0  0  0  0
  162.4370  211.3570  155.4360 C   0  0  0  0  0  2  0  0  0  0  0  0
  162.3320  210.1040  154.5720 C   0  0  1  0  0  3  0  0  0  0  0  0
  161.5050  209.0280  155.3060 C   0  0  2  0  0  3  0  0  0  0  0  0
  162.9950  209.6350  157.2610 C   0  0  0  0  0  2  0  0  0  0  0  0
  161.6620  209.0200  156.8390 C   0  0  0  0  0  2  0  0  0  0  0  0
  161.5900  207.7440  154.7250 O   0  0  0  0  0  0  0  0  0  0  0  0
  160.6410  206.9100  155.3340 C   0  0  0  0  0  1  0  0  0  0  0  0
  161.5200  213.8510  149.1400 C   0  0  0  0  0  2  0  0  0  0  0  0
  160.6430  214.1660  147.9390 C   0  0  0  0  0  2  0  0  0  0  0  0
  160.7680  213.1230  146.8260 C   0  0  1  0  0  3  0  0  0  0  0  0
  159.5140  212.2670  146.6700 C   0  0  0  0  0  3  0  0  0  0  0  0
  158.3520  212.9300  147.3870 C   0  0  0  0  0  2  0  0  0  0  0  0
  158.4700  213.0360  145.8820 C   0  0  0  0  0  2  0  0  0  0  0  0
  161.2740  213.7090  145.5010 C   0  0  0  0  0  2  0  0  0  0  0  0
  161.5210  212.6780  144.4990 N   0  0  0  0  0  2  0  0  0  0  0  0
  161.8860  213.3260  143.3080 N   0  0  0  0  0  0  0  0  0  0  0  0
  163.1810  213.6970  143.4640 O   0  0  0  0  0  1  0  0  0  0  0  0
  162.7100  212.7780  141.0700 C   0  0  0  0  0  3  0  0  0  0  0  0
  161.2760  211.6350  139.5170 N   0  0  0  0  0  2  0  0  0  0  0  0
  162.4430  212.4120  139.8150 C   0  0  0  0  0  3  0  0  0  0  0  0
  160.3920  211.1490  140.5730 C   0  0  0  0  0  2  0  0  0  0  0  0
  160.3930  212.1320  141.7410 C   0  0  0  0  0  2  0  0  0  0  0  0
  161.8360  212.3420  142.2230 C   0  0  2  0  0  3  0  0  0  0  0  0
  160.7110  208.1980  151.7960 C   0  0  0  0  0  2  0  0  0  0  0  0
  160.8960  206.8890  151.1890 N   0  0  0  0  0  2  0  0  0  0  0  0
  160.7840  207.0660  149.7520 C   0  0  0  0  0  2  0  0  0  0  0  0
  161.2810  205.8260  149.0360 C   0  0  0  0  0  2  0  0  0  0  0  0
  161.5500  206.1550  147.6460 N   0  0  0  0  0  2  0  0  0  0  0  0
  161.8830  205.6630  145.4090 O   0  0  0  0  0  0  0  0  0  0  0  0
  161.5600  205.2330  146.5470 C   0  0  0  0  0  0  0  0  0  0  0  0
  161.2360  203.8750  146.6750 O   0  0  0  0  0  0  0  0  0  0  0  0
  161.6470  203.0430  147.7490 C   0  0  0  0  0  2  0  0  0  0  0  0
  159.8800  201.6060  148.9150 C   0  0  1  0  0  3  0  0  0  0  0  0
  161.2200  200.9020  148.9220 C   0  0  0  0  0  2  0  0  0  0  0  0
  159.9230  202.7090  149.7760 O   0  0  0  0  0  1  0  0  0  0  0  0
  160.8360  201.7550  147.7320 C   0  0  2  0  0  3  0  0  0  0  0  0
  1  6  1  0  0  0  0
  2  5  1  0  0  0  0
  3  4  1  0  0  0  0
  3  1  2  0  0  0  0
  4  2  2  0  0  0  0
  5 47  1  0  0  0  0
  6  5  2  0  0  0  0
  6  8  1  0  0  0  0
  7  1  1  0  0  0  0
  8  9  1  0  0  0  0
  9 22  1  6  0  0  0
 11 14  1  0  0  0  0
 12 11  2  0  0  0  0
 12 20  1  0  0  0  0
 13 21  1  0  0  0  0
 14 16  1  6  0  0  0
 17 14  1  0  0  0  0
 18  9  1  6  0  0  0
 18 17  1  0  0  0  0
 19 16  1  0  0  0  0
 19 15  1  0  0  0  0
 20 10  1  6  0  0  0
 20 15  1  0  0  0  0
 21 18  1  0  0  0  0
 21 11  1  0  0  0  0
 23 27  1  0  0  0  0
 24 23  1  0  0  0  0
 25 22  1  6  0  0  0
 25 26  1  0  0  0  0
 25 24  1  0  0  0  0
 26 29  1  6  0  0  0
 26 28  1  0  0  0  0
 28 27  1  0  0  0  0
 29 30  1  0  0  0  0
 31  7  1  0  0  0  0
 32 31  1  0  0  0  0
 33 37  1  6  0  0  0
 33 32  1  0  0  0  0
 34 33  1  0  0  0  0
 34 35  1  0  0  0  0
 36 34  1  0  0  0  0
 36 35  1  0  0  0  0
 38 37  1  0  0  0  0
 39 40  1  0  0  0  0
 39 38  1  0  0  0  0
 41 46  1  0  0  0  0
 42 43  1  0  0  0  0
 42 44  1  0  0  0  0
 43 41  2  0  0  0  0
 44 45  1  0  0  0  0
 45 46  1  0  0  0  0
 46 39  1  1  0  0  0
 48 47  1  0  0  0  0
 49 48  1  0  0  0  0
 50 49  1  0  0  0  0
 51 50  1  0  0  0  0
 52 53  2  0  0  0  0
 53 54  1  0  0  0  0
 53 51  1  0  0  0  0
 54 55  1  0  0  0  0
 56 57  1  0  0  0  0
 56 58  1  1  0  0  0
 59 55  1  1  0  0  0
 59 56  1  0  0  0  0
 59 57  1  0  0  0  0
M  END
>  <MODEL>
6

>  <REMARK>
 VINA RESULT:      -1.7      2.114      7.108
  Name = 
  22 active torsions:
  status: ('A' for Active; 'I' for Inactive)
    1  A    between atoms: N_3  and  C_10
    2  A    between atoms: N_3  and  C_35
    3  A    between atoms: C_6  and  O_18
    4  A    between atoms: C_6  and  C_59
    5  A    between atoms: C_8  and  C_30
    6  A    between atoms: C_8  and  C_57
    7  A    between atoms: C_9  and  N_12
    8  A    between atoms: C_9  and  C_35
    9  A    between atoms: C_10  and  C_48
   10  A    between atoms: O_13  and  C_36
   11  A    between atoms: N_16  and  N_28
   12  A    between atoms: N_16  and  C_54
   13  A    between atoms: O_18  and  C_58
   14  A    between atoms: C_21  and  C_41
   15  A    between atoms: C_26  and  C_57
   16  A    between atoms: N_28  and  C_56
   17  A    between atoms: C_30  and  N_55
   18  A    between atoms: C_33  and  S_34
   19  A    between atoms: C_33  and  C_41
   20  A    between atoms: C_33  and  C_47
   21  A    between atoms: S_34  and  C_53
   22  A    between atoms: C_54  and  C_57
                            x       y       z     vdW  Elec       q    Type
                         _______ _______ _______ _____ _____    ______ ____

>  <TORSDO>
F 22

$$$$
