=
 OpenBabel11072411473D

 53 59  0  0  1  0  0  0  0  0999 V2000
  160.7290  205.3960  150.8010 C   0  0  1  0  0  3  0  0  0  0  0  0
  162.4550  206.6100  151.9550 O   0  0  0  0  0  1  0  0  0  0  0  0
  161.1690  206.0800  152.1200 C   0  0  2  0  0  0  0  0  0  0  0  0
  161.2010  205.0580  153.2600 C   0  0  0  0  0  1  0  0  0  0  0  0
  160.2640  207.1500  152.4280 O   0  0  0  0  0  0  0  0  0  0  0  0
  161.3990  209.0750  151.5630 C   0  0  0  0  0  3  0  0  0  0  0  0
  160.5900  211.3310  152.0470 N   0  0  1  0  0  0  0  0  0  0  0  0
  161.3790  211.9020  155.8240 C   0  0  0  0  0  2  0  0  0  0  0  0
  161.2100  209.6210  154.6000 C   0  0  1  0  0  3  0  0  0  0  0  0
  159.6700  213.3490  156.0110 C   0  0  1  0  0  3  0  0  0  0  0  0
  157.8790  212.6450  152.8180 C   0  0  0  0  0  2  0  0  0  0  0  0
  158.3310  213.4910  155.2730 C   0  0  2  0  0  3  0  0  0  0  0  0
  161.7690  210.5160  151.7220 C   0  0  2  0  0  3  0  0  0  0  0  0
  157.4230  212.4840  155.6090 O   0  0  0  0  0  1  0  0  0  0  0  0
  160.6120  208.5090  152.4850 C   0  0  0  0  0  0  0  0  0  0  0  0
  160.0870  209.3580  153.6150 C   0  0  2  0  0  3  0  0  0  0  0  0
  158.5240  213.6750  153.7600 C   0  0  0  0  0  2  0  0  0  0  0  0
  161.5520  211.1200  154.5090 C   0  0  1  0  0  3  0  0  0  0  0  0
  159.5860  213.9720  157.2550 O   0  0  0  0  0  1  0  0  0  0  0  0
  158.2200  211.1690  153.0900 C   0  0  0  0  0  2  0  0  0  0  0  0
  159.6970  210.7470  153.0880 C   0  0  2  0  0  0  0  0  0  0  0  0
  162.3750  211.0050  150.5010 N   0  0  0  0  0  1  0  0  0  0  0  0
  160.0230  212.0020  156.1900 O   0  0  0  0  0  0  0  0  0  0  0  0
  160.6420  211.7890  153.4720 C   0  0  2  0  0  3  0  0  0  0  0  0
  160.9550  209.0380  156.0000 C   0  0  2  0  0  3  0  0  0  0  0  0
  162.2480  208.5430  156.6170 C   0  0  0  0  0  1  0  0  0  0  0  0
  160.0240  207.9960  155.9580 O   0  0  0  0  0  1  0  0  0  0  0  0
  162.0330  206.5210  149.0850 O   0  0  0  0  0  1  0  0  0  0  0  0
  159.8340  206.0700  148.6550 F   0  0  0  0  0  0  0  0  0  0  0  0
  160.7540  206.4010  149.6330 C   0  0  1  0  0  3  0  0  0  0  0  0
  162.6490  203.9790  151.2650 O   0  0  0  0  0  1  0  0  0  0  0  0
  161.4870  204.0710  150.4980 C   0  0  1  0  0  3  0  0  0  0  0  0
  160.9270  202.1590  152.0450 C   0  0  0  0  0  1  0  0  0  0  0  0
  160.6770  202.7820  150.6870 C   0  0  2  0  0  3  0  0  0  0  0  0
  160.9190  201.8100  149.6280 N   0  0  0  0  0  2  0  0  0  0  0  0
  159.8140  201.7730  148.8440 O   0  0  0  0  0  0  0  0  0  0  0  0
  160.2390  200.4850  145.3290 C   0  0  0  0  0  2  0  0  0  0  0  0
  160.1380  200.8840  147.8160 C   0  0  2  0  0  3  0  0  0  0  0  0
  161.3890  199.5530  145.6320 C   0  0  0  0  0  3  0  0  0  0  0  0
  161.5360  200.3040  148.0120 C   0  0  0  0  0  2  0  0  0  0  0  0
  161.9450  199.4410  146.8490 C   0  0  0  0  0  3  0  0  0  0  0  0
  159.9850  201.5280  146.4270 C   0  0  1  0  0  3  0  0  0  0  0  0
  160.5520  203.9300  147.2040 C   0  0  0  0  0  1  0  0  0  0  0  0
  160.7570  202.8380  146.1610 C   0  0  2  0  0  3  0  0  0  0  0  0
  160.6110  203.3420  144.7190 C   0  0  1  0  0  3  0  0  0  0  0  0
  159.2720  203.4350  144.3310 O   0  0  0  0  0  1  0  0  0  0  0  0
  160.8120  205.7750  145.2750 C   0  0  0  0  0  0  0  0  0  0  0  0
  161.3760  204.6580  144.4960 C   0  0  1  0  0  3  0  0  0  0  0  0
  163.1140  204.4150  146.3900 C   0  0  0  0  0  2  0  0  0  0  0  0
  162.8720  204.6360  144.9040 C   0  0  2  0  0  3  0  0  0  0  0  0
  161.7660  206.3920  146.0530 O   0  0  0  0  0  0  0  0  0  0  0  0
  163.0590  205.8320  145.8530 C   0  0  1  0  0  3  0  0  0  0  0  0
  159.6060  206.1450  145.2380 O   0  0  0  0  0  0  0  0  0  0  0  0
  1 30  1  6  0  0  0
  1  3  1  0  0  0  0
  2  3  1  0  0  0  0
  3  5  1  0  0  0  0
  3  4  1  1  0  0  0
  5 15  1  0  0  0  0
  6 13  1  0  0  0  0
  6 15  2  0  0  0  0
  7 21  1  0  0  0  0
  7 24  1  0  0  0  0
  8 23  1  0  0  0  0
  9 25  1  0  0  0  0
 10 23  1  0  0  0  0
 10 19  1  0  0  0  0
 11 20  1  0  0  0  0
 11 17  1  0  0  0  0
 12 14  1  0  0  0  0
 12 10  1  0  0  0  0
 13  7  1  0  0  0  0
 15 16  1  0  0  0  0
 16  9  1  0  0  0  0
 17 12  1  0  0  0  0
 18  9  1  0  0  0  0
 18  8  1  0  0  0  0
 21 20  1  0  0  0  0
 21 24  1  0  0  0  0
 21 16  1  0  0  0  0
 22 13  1  0  0  0  0
 24 18  1  0  0  0  0
 25 26  1  0  0  0  0
 27 25  1  0  0  0  0
 28 30  1  0  0  0  0
 29 30  1  0  0  0  0
 32 34  1  0  0  0  0
 32  1  1  0  0  0  0
 32 31  1  0  0  0  0
 34 33  1  0  0  0  0
 35 34  1  0  0  0  0
 36 35  1  0  0  0  0
 37 39  1  0  0  0  0
 37 42  1  0  0  0  0
 38 40  1  0  0  0  0
 38 36  1  0  0  0  0
 39 41  2  0  0  0  0
 41 40  1  0  0  0  0
 42 38  1  0  0  0  0
 44 42  1  0  0  0  0
 44 43  1  0  0  0  0
 45 44  1  0  0  0  0
 46 45  1  0  0  0  0
 47 51  1  0  0  0  0
 48 45  1  0  0  0  0
 48 50  1  0  0  0  0
 48 47  1  0  0  0  0
 50 52  1  0  0  0  0
 50 49  1  0  0  0  0
 52 51  1  0  0  0  0
 52 49  1  0  0  0  0
 53 47  2  0  0  0  0
M  END
>  <MODEL>
1

>  <REMARK>
 VINA RESULT:      -4.8      0.000      0.000
  Name = 
  13 active torsions:
  status: ('A' for Active; 'I' for Inactive)
    1  A    between atoms: C_3  and  C_5
    2  A    between atoms: C_8  and  C_12
    3  A    between atoms: C_8  and  C_46
    4  A    between atoms: N_11  and  O_18
    5  A    between atoms: N_11  and  C_37
    6  A    between atoms: O_17  and  C_19
    7  A    between atoms: O_17  and  C_28
    8  A    between atoms: O_18  and  C_23
    9  A    between atoms: C_19  and  C_39
   10  A    between atoms: C_31  and  C_39
   11  A    between atoms: C_37  and  C_45
   12  A    between atoms: C_39  and  C_45
   13  A    between atoms: C_44  and  C_46
                            x       y       z     vdW  Elec       q    Type
                         _______ _______ _______ _____ _____    ______ ____

>  <TORSDO>
F 13

$$$$
=
 OpenBabel11072411473D

 53 59  0  0  1  0  0  0  0  0999 V2000
  160.9190  211.4540  148.5510 C   0  0  1  0  0  3  0  0  0  0  0  0
  159.5960  213.1050  149.6950 O   0  0  0  0  0  1  0  0  0  0  0  0
  160.9140  212.6590  149.5240 C   0  0  2  0  0  0  0  0  0  0  0  0
  161.7500  213.8060  148.9500 C   0  0  0  0  0  1  0  0  0  0  0  0
  161.4310  212.2460  150.7970 O   0  0  0  0  0  0  0  0  0  0  0  0
  160.7160  210.2420  151.9000 C   0  0  0  0  0  3  0  0  0  0  0  0
  160.0030  210.2840  154.2390 N   0  0  1  0  0  0  0  0  0  0  0  0
  156.5690  212.1350  154.2200 C   0  0  0  0  0  2  0  0  0  0  0  0
  158.3950  212.2290  152.3790 C   0  0  1  0  0  3  0  0  0  0  0  0
  156.8860  212.8420  156.3290 C   0  0  1  0  0  3  0  0  0  0  0  0
  160.5130  212.0780  156.7270 C   0  0  0  0  0  2  0  0  0  0  0  0
  158.1440  213.1500  157.1540 C   0  0  2  0  0  3  0  0  0  0  0  0
  159.8630  209.5980  152.9460 C   0  0  2  0  0  3  0  0  0  0  0  0
  158.7840  214.3210  156.7410 O   0  0  0  0  0  1  0  0  0  0  0  0
  160.6960  211.5760  151.7870 C   0  0  0  0  0  0  0  0  0  0  0  0
  159.8580  212.3750  152.7520 C   0  0  2  0  0  3  0  0  0  0  0  0
  159.0770  211.9340  157.2580 C   0  0  0  0  0  2  0  0  0  0  0  0
  157.7210  211.4120  153.4970 C   0  0  1  0  0  3  0  0  0  0  0  0
  155.7940  213.5170  156.8720 O   0  0  0  0  0  1  0  0  0  0  0  0
  160.6550  212.5710  155.2770 C   0  0  0  0  0  2  0  0  0  0  0  0
  159.9630  211.7720  154.1610 C   0  0  2  0  0  0  0  0  0  0  0  0
  160.2340  208.2060  153.0940 N   0  0  0  0  0  1  0  0  0  0  0  0
  157.0420  213.2180  154.9860 O   0  0  0  0  0  0  0  0  0  0  0  0
  158.7610  211.0530  154.5650 C   0  0  2  0  0  3  0  0  0  0  0  0
  157.7250  213.5500  151.9680 C   0  0  2  0  0  3  0  0  0  0  0  0
  156.6280  213.3000  150.9520 C   0  0  0  0  0  1  0  0  0  0  0  0
  158.6560  214.4530  151.4430 O   0  0  0  0  0  1  0  0  0  0  0  0
  159.5020  212.4760  146.8610 O   0  0  0  0  0  1  0  0  0  0  0  0
  161.7560  212.8290  146.7430 F   0  0  0  0  0  0  0  0  0  0  0  0
  160.7660  211.9300  147.0940 C   0  0  1  0  0  3  0  0  0  0  0  0
  162.9360  210.9250  149.8030 O   0  0  0  0  0  1  0  0  0  0  0  0
  162.1160  210.4820  148.7640 C   0  0  1  0  0  3  0  0  0  0  0  0
  162.7420  208.3470  149.9540 C   0  0  0  0  0  1  0  0  0  0  0  0
  161.7460  209.0170  149.0300 C   0  0  2  0  0  3  0  0  0  0  0  0
  161.5920  208.2480  147.8010 N   0  0  0  0  0  2  0  0  0  0  0  0
  162.1870  207.0450  147.9920 O   0  0  0  0  0  0  0  0  0  0  0  0
  162.5250  204.2960  145.4390 C   0  0  0  0  0  2  0  0  0  0  0  0
  162.0730  206.3940  146.7610 C   0  0  2  0  0  3  0  0  0  0  0  0
  161.3040  204.6690  144.6310 C   0  0  0  0  0  3  0  0  0  0  0  0
  160.6480  206.4810  146.2250 C   0  0  0  0  0  2  0  0  0  0  0  0
  160.4820  205.6790  144.9620 C   0  0  0  0  0  3  0  0  0  0  0  0
  162.5600  204.9360  146.8340 C   0  0  1  0  0  3  0  0  0  0  0  0
  160.9600  202.9690  147.3510 C   0  0  0  0  0  1  0  0  0  0  0  0
  161.9150  204.0220  147.8990 C   0  0  2  0  0  3  0  0  0  0  0  0
  161.3410  204.7990  149.0920 C   0  0  1  0  0  3  0  0  0  0  0  0
  159.9440  204.8120  149.0840 O   0  0  0  0  0  1  0  0  0  0  0  0
  161.1810  204.8280  151.5900 C   0  0  0  0  0  0  0  0  0  0  0  0
  161.9140  204.2950  150.4280 C   0  0  1  0  0  3  0  0  0  0  0  0
  160.4690  202.1700  150.6840 C   0  0  0  0  0  2  0  0  0  0  0  0
  161.8720  202.7580  150.6320 C   0  0  2  0  0  3  0  0  0  0  0  0
  160.7410  203.8240  152.4240 O   0  0  0  0  0  0  0  0  0  0  0  0
  161.1630  202.5400  151.9800 C   0  0  1  0  0  3  0  0  0  0  0  0
  160.9800  206.0520  151.8190 O   0  0  0  0  0  0  0  0  0  0  0  0
  1 30  1  6  0  0  0
  1 32  1  0  0  0  0
  1  3  1  0  0  0  0
  3  4  1  6  0  0  0
  3  2  1  0  0  0  0
  3  5  1  0  0  0  0
  5 15  1  0  0  0  0
  6 13  1  0  0  0  0
  7 24  1  0  0  0  0
  8 23  1  0  0  0  0
  9 16  1  0  0  0  0
  9 18  1  0  0  0  0
 10 19  1  0  0  0  0
 10 12  1  0  0  0  0
 11 17  1  0  0  0  0
 12 17  1  0  0  0  0
 13 22  1  0  0  0  0
 13  7  1  0  0  0  0
 14 12  1  0  0  0  0
 15  6  2  0  0  0  0
 15 16  1  0  0  0  0
 16 21  1  0  0  0  0
 18  8  1  0  0  0  0
 18 24  1  0  0  0  0
 20 11  1  0  0  0  0
 21  7  1  0  0  0  0
 21 24  1  0  0  0  0
 21 20  1  0  0  0  0
 23 10  1  0  0  0  0
 25  9  1  0  0  0  0
 26 25  1  0  0  0  0
 27 25  1  0  0  0  0
 28 30  1  0  0  0  0
 29 30  1  0  0  0  0
 32 34  1  0  0  0  0
 32 31  1  0  0  0  0
 34 33  1  0  0  0  0
 35 36  1  0  0  0  0
 35 34  1  0  0  0  0
 37 42  1  0  0  0  0
 38 42  1  0  0  0  0
 38 36  1  0  0  0  0
 39 41  2  0  0  0  0
 39 37  1  0  0  0  0
 40 38  1  0  0  0  0
 41 40  1  0  0  0  0
 42 44  1  0  0  0  0
 43 44  1  0  0  0  0
 44 45  1  0  0  0  0
 45 48  1  0  0  0  0
 46 45  1  0  0  0  0
 47 53  2  0  0  0  0
 47 51  1  0  0  0  0
 48 50  1  0  0  0  0
 48 47  1  0  0  0  0
 49 52  1  0  0  0  0
 50 49  1  0  0  0  0
 50 52  1  0  0  0  0
 52 51  1  0  0  0  0
M  END
>  <MODEL>
2

>  <REMARK>
 VINA RESULT:      -4.7      2.747      5.525
  Name = 
  13 active torsions:
  status: ('A' for Active; 'I' for Inactive)
    1  A    between atoms: C_3  and  C_5
    2  A    between atoms: C_8  and  C_12
    3  A    between atoms: C_8  and  C_46
    4  A    between atoms: N_11  and  O_18
    5  A    between atoms: N_11  and  C_37
    6  A    between atoms: O_17  and  C_19
    7  A    between atoms: O_17  and  C_28
    8  A    between atoms: O_18  and  C_23
    9  A    between atoms: C_19  and  C_39
   10  A    between atoms: C_31  and  C_39
   11  A    between atoms: C_37  and  C_45
   12  A    between atoms: C_39  and  C_45
   13  A    between atoms: C_44  and  C_46
                            x       y       z     vdW  Elec       q    Type
                         _______ _______ _______ _____ _____    ______ ____

>  <TORSDO>
F 13

$$$$
=
 OpenBabel11072411473D

 53 59  0  0  1  0  0  0  0  0999 V2000
  162.1280  207.4860  152.0180 C   0  0  1  0  0  3  0  0  0  0  0  0
  160.2790  208.9930  152.3260 O   0  0  0  0  0  1  0  0  0  0  0  0
  161.6480  208.8450  152.5860 C   0  0  2  0  0  0  0  0  0  0  0  0
  162.4020  209.9960  151.9140 C   0  0  0  0  0  1  0  0  0  0  0  0
  161.8540  208.8690  154.0060 O   0  0  0  0  0  0  0  0  0  0  0  0
  162.2460  210.5030  155.7150 C   0  0  0  0  0  3  0  0  0  0  0  0
  160.8110  212.4730  155.9190 N   0  0  1  0  0  0  0  0  0  0  0  0
  157.4080  211.1120  157.2570 C   0  0  0  0  0  2  0  0  0  0  0  0
  159.2690  209.7470  156.0720 C   0  0  1  0  0  3  0  0  0  0  0  0
  156.2960  212.8080  156.2890 C   0  0  1  0  0  3  0  0  0  0  0  0
  158.9640  214.1300  154.0460 C   0  0  0  0  0  2  0  0  0  0  0  0
  156.5700  213.6680  155.0470 C   0  0  2  0  0  3  0  0  0  0  0  0
  161.6910  211.5400  156.6390 C   0  0  2  0  0  3  0  0  0  0  0  0
  156.3900  212.9630  153.8540 O   0  0  0  0  0  1  0  0  0  0  0  0
  161.4140  209.8860  154.8680 C   0  0  0  0  0  0  0  0  0  0  0  0
  159.9640  210.2980  154.8420 C   0  0  2  0  0  3  0  0  0  0  0  0
  157.9170  214.4000  155.1400 C   0  0  0  0  0  2  0  0  0  0  0  0
  158.9120  210.9470  156.9680 C   0  0  1  0  0  3  0  0  0  0  0  0
  154.9350  212.8390  156.5880 O   0  0  0  0  0  1  0  0  0  0  0  0
  159.3250  212.6540  153.8010 C   0  0  0  0  0  2  0  0  0  0  0  0
  159.8500  211.8240  154.9820 C   0  0  2  0  0  0  0  0  0  0  0  0
  162.7730  212.2760  157.2590 N   0  0  0  0  0  1  0  0  0  0  0  0
  156.6980  211.4770  156.0970 O   0  0  0  0  0  0  0  0  0  0  0  0
  159.3790  212.2440  156.2950 C   0  0  2  0  0  3  0  0  0  0  0  0
  158.1480  208.7440  155.7540 C   0  0  2  0  0  3  0  0  0  0  0  0
  158.6910  207.3290  155.7150 C   0  0  0  0  0  1  0  0  0  0  0  0
  157.5250  209.0430  154.5380 O   0  0  0  0  0  1  0  0  0  0  0  0
  162.2570  206.4820  154.2290 O   0  0  0  0  0  1  0  0  0  0  0  0
  160.3420  206.1940  153.0170 F   0  0  0  0  0  0  0  0  0  0  0  0
  161.7160  206.3310  152.9500 C   0  0  1  0  0  3  0  0  0  0  0  0
  160.3640  207.4380  150.3450 O   0  0  0  0  0  1  0  0  0  0  0  0
  161.7360  207.2550  150.5300 C   0  0  1  0  0  3  0  0  0  0  0  0
  161.5860  209.1810  148.9070 C   0  0  0  0  0  1  0  0  0  0  0  0
  162.4830  208.1150  149.5030 C   0  0  2  0  0  3  0  0  0  0  0  0
  163.0960  207.3170  148.4480 N   0  0  0  0  0  2  0  0  0  0  0  0
  162.3800  206.1730  148.3280 O   0  0  0  0  0  0  0  0  0  0  0  0
  162.2730  204.7110  144.8580 C   0  0  0  0  0  2  0  0  0  0  0  0
  162.0840  206.0800  146.9660 C   0  0  2  0  0  3  0  0  0  0  0  0
  160.9780  205.3700  144.4410 C   0  0  0  0  0  3  0  0  0  0  0  0
  160.6080  206.3650  146.7040 C   0  0  0  0  0  2  0  0  0  0  0  0
  160.2510  206.1480  145.2580 C   0  0  0  0  0  3  0  0  0  0  0  0
  162.5100  204.7250  146.3740 C   0  0  1  0  0  3  0  0  0  0  0  0
  160.9620  202.6570  146.2180 C   0  0  0  0  0  1  0  0  0  0  0  0
  161.9620  203.4500  147.0510 C   0  0  2  0  0  3  0  0  0  0  0  0
  161.4970  203.6860  148.4950 C   0  0  1  0  0  3  0  0  0  0  0  0
  160.1390  204.0080  148.5600 O   0  0  0  0  0  1  0  0  0  0  0  0
  161.6180  202.8010  150.8340 C   0  0  0  0  0  0  0  0  0  0  0  0
  161.8620  202.5040  149.4100 C   0  0  1  0  0  3  0  0  0  0  0  0
  159.5710  201.3120  149.4250 C   0  0  0  0  0  2  0  0  0  0  0  0
  161.0650  201.1980  149.1600 C   0  0  2  0  0  3  0  0  0  0  0  0
  160.8140  201.8530  151.4260 O   0  0  0  0  0  0  0  0  0  0  0  0
  160.4800  200.8010  150.5260 C   0  0  1  0  0  3  0  0  0  0  0  0
  162.0910  203.7910  151.4560 O   0  0  0  0  0  0  0  0  0  0  0  0
  1 32  1  6  0  0  0
  1  3  1  0  0  0  0
  1 30  1  0  0  0  0
  2  3  1  0  0  0  0
  3  4  1  6  0  0  0
  3  5  1  0  0  0  0
  5 15  1  0  0  0  0
  6 13  1  0  0  0  0
  7 24  1  0  0  0  0
  7 13  1  0  0  0  0
  9 18  1  0  0  0  0
 10 19  1  0  0  0  0
 11 17  1  0  0  0  0
 12 17  1  0  0  0  0
 12 10  1  0  0  0  0
 13 22  1  0  0  0  0
 14 12  1  0  0  0  0
 15  6  2  0  0  0  0
 16 15  1  0  0  0  0
 16 21  1  0  0  0  0
 16  9  1  0  0  0  0
 18  8  1  0  0  0  0
 20 11  1  0  0  0  0
 20 21  1  0  0  0  0
 21  7  1  0  0  0  0
 21 24  1  0  0  0  0
 23 10  1  0  0  0  0
 23  8  1  0  0  0  0
 24 18  1  0  0  0  0
 25  9  1  0  0  0  0
 26 25  1  0  0  0  0
 27 25  1  0  0  0  0
 30 29  1  0  0  0  0
 30 28  1  0  0  0  0
 31 32  1  0  0  0  0
 33 34  1  0  0  0  0
 34 32  1  0  0  0  0
 35 34  1  0  0  0  0
 36 35  1  0  0  0  0
 37 42  1  0  0  0  0
 38 36  1  0  0  0  0
 39 37  1  0  0  0  0
 39 41  2  0  0  0  0
 40 38  1  0  0  0  0
 41 40  1  0  0  0  0
 42 38  1  0  0  0  0
 42 44  1  0  0  0  0
 43 44  1  0  0  0  0
 44 45  1  0  0  0  0
 45 46  1  0  0  0  0
 45 48  1  0  0  0  0
 47 51  1  0  0  0  0
 47 53  2  0  0  0  0
 48 47  1  0  0  0  0
 49 52  1  0  0  0  0
 50 48  1  0  0  0  0
 50 49  1  0  0  0  0
 50 52  1  0  0  0  0
 52 51  1  0  0  0  0
M  END
>  <MODEL>
3

>  <REMARK>
 VINA RESULT:      -3.7      2.259      4.548
  Name = 
  13 active torsions:
  status: ('A' for Active; 'I' for Inactive)
    1  A    between atoms: C_3  and  C_5
    2  A    between atoms: C_8  and  C_12
    3  A    between atoms: C_8  and  C_46
    4  A    between atoms: N_11  and  O_18
    5  A    between atoms: N_11  and  C_37
    6  A    between atoms: O_17  and  C_19
    7  A    between atoms: O_17  and  C_28
    8  A    between atoms: O_18  and  C_23
    9  A    between atoms: C_19  and  C_39
   10  A    between atoms: C_31  and  C_39
   11  A    between atoms: C_37  and  C_45
   12  A    between atoms: C_39  and  C_45
   13  A    between atoms: C_44  and  C_46
                            x       y       z     vdW  Elec       q    Type
                         _______ _______ _______ _____ _____    ______ ____

>  <TORSDO>
F 13

$$$$
=
 OpenBabel11072411473D

 53 59  0  0  1  0  0  0  0  0999 V2000
  160.3240  212.9160  148.2610 C   0  0  1  0  0  3  0  0  0  0  0  0
  162.4810  213.8410  148.7890 O   0  0  0  0  0  1  0  0  0  0  0  0
  161.5900  212.8220  149.1500 C   0  0  2  0  0  0  0  0  0  0  0  0
  162.2800  211.4700  148.9470 C   0  0  0  0  0  1  0  0  0  0  0  0
  161.2200  212.9970  150.5260 O   0  0  0  0  0  0  0  0  0  0  0  0
  160.9860  210.6860  151.1160 C   0  0  0  0  0  3  0  0  0  0  0  0
  160.6270  210.0150  153.4400 N   0  0  1  0  0  0  0  0  0  0  0  0
  156.9860  211.1470  154.2700 C   0  0  0  0  0  2  0  0  0  0  0  0
  158.4870  212.0290  152.3460 C   0  0  1  0  0  3  0  0  0  0  0  0
  157.4980  211.3570  156.4480 C   0  0  1  0  0  3  0  0  0  0  0  0
  161.2170  211.2010  156.2540 C   0  0  0  0  0  2  0  0  0  0  0  0
  158.8020  211.6780  157.1930 C   0  0  2  0  0  3  0  0  0  0  0  0
  160.4040  209.6560  152.0320 C   0  0  2  0  0  3  0  0  0  0  0  0
  159.1890  213.0120  157.0460 O   0  0  0  0  0  1  0  0  0  0  0  0
  160.7480  211.9780  151.3690 C   0  0  0  0  0  0  0  0  0  0  0  0
  159.9490  212.3460  152.5930 C   0  0  2  0  0  3  0  0  0  0  0  0
  159.9130  210.6680  156.8700 C   0  0  0  0  0  2  0  0  0  0  0  0
  158.1160  210.8510  153.2660 C   0  0  1  0  0  3  0  0  0  0  0  0
  156.4080  211.6630  157.2610 O   0  0  0  0  0  1  0  0  0  0  0  0
  161.0690  212.0540  154.9820 C   0  0  0  0  0  2  0  0  0  0  0  0
  160.3500  211.4430  153.7700 C   0  0  2  0  0  0  0  0  0  0  0  0
  160.9990  208.3650  151.7610 N   0  0  0  0  0  1  0  0  0  0  0  0
  157.3970  212.0750  155.2460 O   0  0  0  0  0  0  0  0  0  0  0  0
  159.3430  210.4370  154.0870 C   0  0  2  0  0  3  0  0  0  0  0  0
  157.5720  213.2630  152.3750 C   0  0  2  0  0  3  0  0  0  0  0  0
  158.2110  214.3850  153.1700 C   0  0  0  0  0  1  0  0  0  0  0  0
  156.3190  212.9580  152.9160 O   0  0  0  0  0  1  0  0  0  0  0  0
  158.1430  213.9890  148.2760 O   0  0  0  0  0  1  0  0  0  0  0  0
  159.5830  214.4370  149.9920 F   0  0  0  0  0  0  0  0  0  0  0  0
  159.4810  214.1470  148.6440 C   0  0  1  0  0  3  0  0  0  0  0  0
  160.5220  211.4940  146.2980 O   0  0  0  0  0  1  0  0  0  0  0  0
  160.6210  212.8160  146.7360 C   0  0  1  0  0  3  0  0  0  0  0  0
  158.4980  212.9670  145.3810 C   0  0  0  0  0  1  0  0  0  0  0  0
  159.7490  213.6940  145.8300 C   0  0  2  0  0  3  0  0  0  0  0  0
  160.4820  214.2070  144.6780 N   0  0  0  0  0  2  0  0  0  0  0  0
  159.8730  213.7370  143.5610 O   0  0  0  0  0  0  0  0  0  0  0  0
  161.5520  211.9780  140.6840 C   0  0  0  0  0  2  0  0  0  0  0  0
  160.9110  213.2180  142.7830 C   0  0  2  0  0  3  0  0  0  0  0  0
  162.8470  212.7550  140.7480 C   0  0  0  0  0  3  0  0  0  0  0  0
  162.0010  214.2600  142.5570 C   0  0  0  0  0  2  0  0  0  0  0  0
  163.0640  213.7540  141.6190 C   0  0  0  0  0  3  0  0  0  0  0  0
  160.3990  212.6390  141.4530 C   0  0  1  0  0  3  0  0  0  0  0  0
  158.4190  214.2910  141.2430 C   0  0  0  0  0  1  0  0  0  0  0  0
  159.5660  213.5700  140.5450 C   0  0  2  0  0  3  0  0  0  0  0  0
  159.1520  212.9110  139.2220 C   0  0  1  0  0  3  0  0  0  0  0  0
  160.2540  212.4210  138.5160 O   0  0  0  0  0  1  0  0  0  0  0  0
  156.9530  211.9700  138.4830 C   0  0  0  0  0  0  0  0  0  0  0  0
  158.0710  211.8370  139.4350 C   0  0  1  0  0  3  0  0  0  0  0  0
  159.0090  210.0300  137.8470 C   0  0  0  0  0  2  0  0  0  0  0  0
  158.5430  210.3720  139.2540 C   0  0  2  0  0  3  0  0  0  0  0  0
  156.7180  210.7970  137.8010 O   0  0  0  0  0  0  0  0  0  0  0  0
  157.5720  209.7460  138.2380 C   0  0  1  0  0  3  0  0  0  0  0  0
  156.2740  213.0180  138.3080 O   0  0  0  0  0  0  0  0  0  0  0  0
  1 32  1  6  0  0  0
  1 30  1  0  0  0  0
  1  3  1  0  0  0  0
  2  3  1  0  0  0  0
  3  4  1  6  0  0  0
  3  5  1  0  0  0  0
  5 15  1  0  0  0  0
  6 15  2  0  0  0  0
  6 13  1  0  0  0  0
  7 21  1  0  0  0  0
  7 24  1  0  0  0  0
  8 23  1  0  0  0  0
  9 25  1  0  0  0  0
  9 16  1  0  0  0  0
  9 18  1  0  0  0  0
 10 12  1  0  0  0  0
 10 19  1  0  0  0  0
 11 17  1  0  0  0  0
 13  7  1  0  0  0  0
 14 12  1  0  0  0  0
 15 16  1  0  0  0  0
 16 21  1  0  0  0  0
 17 12  1  0  0  0  0
 18 24  1  0  0  0  0
 18  8  1  0  0  0  0
 20 11  1  0  0  0  0
 21 24  1  0  0  0  0
 21 20  1  0  0  0  0
 22 13  1  0  0  0  0
 23 10  1  0  0  0  0
 25 27  1  0  0  0  0
 25 26  1  0  0  0  0
 28 30  1  0  0  0  0
 30 29  1  0  0  0  0
 31 32  1  0  0  0  0
 33 34  1  0  0  0  0
 34 32  1  0  0  0  0
 35 34  1  0  0  0  0
 36 35  1  0  0  0  0
 37 39  1  0  0  0  0
 37 42  1  0  0  0  0
 38 36  1  0  0  0  0
 39 41  2  0  0  0  0
 40 38  1  0  0  0  0
 41 40  1  0  0  0  0
 42 38  1  0  0  0  0
 44 43  1  0  0  0  0
 44 42  1  0  0  0  0
 45 48  1  0  0  0  0
 45 44  1  0  0  0  0
 46 45  1  0  0  0  0
 47 48  1  0  0  0  0
 49 52  1  0  0  0  0
 49 50  1  0  0  0  0
 50 48  1  0  0  0  0
 51 52  1  0  0  0  0
 51 47  1  0  0  0  0
 52 50  1  0  0  0  0
 53 47  2  0  0  0  0
M  END
>  <MODEL>
4

>  <REMARK>
 VINA RESULT:      -3.4      6.215      8.764
  Name = 
  13 active torsions:
  status: ('A' for Active; 'I' for Inactive)
    1  A    between atoms: C_3  and  C_5
    2  A    between atoms: C_8  and  C_12
    3  A    between atoms: C_8  and  C_46
    4  A    between atoms: N_11  and  O_18
    5  A    between atoms: N_11  and  C_37
    6  A    between atoms: O_17  and  C_19
    7  A    between atoms: O_17  and  C_28
    8  A    between atoms: O_18  and  C_23
    9  A    between atoms: C_19  and  C_39
   10  A    between atoms: C_31  and  C_39
   11  A    between atoms: C_37  and  C_45
   12  A    between atoms: C_39  and  C_45
   13  A    between atoms: C_44  and  C_46
                            x       y       z     vdW  Elec       q    Type
                         _______ _______ _______ _____ _____    ______ ____

>  <TORSDO>
F 13

$$$$
=
 OpenBabel11072411473D

 53 59  0  0  1  0  0  0  0  0999 V2000
  161.6680  207.8180  153.7810 C   0  0  1  0  0  3  0  0  0  0  0  0
  162.2620  209.1730  155.6780 O   0  0  0  0  0  1  0  0  0  0  0  0
  161.3790  209.1060  154.5930 C   0  0  2  0  0  0  0  0  0  0  0  0
  159.9440  209.0840  155.1280 C   0  0  0  0  0  1  0  0  0  0  0  0
  161.5860  210.2540  153.7560 O   0  0  0  0  0  0  0  0  0  0  0  0
  160.6260  211.9390  152.3470 C   0  0  0  0  0  3  0  0  0  0  0  0
  158.2620  212.5360  152.5400 N   0  0  1  0  0  0  0  0  0  0  0  0
  157.9720  214.4470  155.9280 C   0  0  0  0  0  2  0  0  0  0  0  0
  159.8770  212.8410  155.2090 C   0  0  1  0  0  3  0  0  0  0  0  0
  155.8260  213.8170  156.1530 C   0  0  1  0  0  3  0  0  0  0  0  0
  155.6570  211.1640  153.5400 C   0  0  0  0  0  2  0  0  0  0  0  0
  155.0350  212.5960  155.6630 C   0  0  2  0  0  3  0  0  0  0  0  0
  159.6000  213.0120  152.1610 C   0  0  2  0  0  3  0  0  0  0  0  0
  155.3760  211.4260  156.3460 O   0  0  0  0  0  1  0  0  0  0  0  0
  160.6240  211.2410  153.4900 C   0  0  0  0  0  0  0  0  0  0  0  0
  159.5590  211.5290  154.5170 C   0  0  2  0  0  3  0  0  0  0  0  0
  155.0760  212.4590  154.1340 C   0  0  0  0  0  2  0  0  0  0  0  0
  158.8040  213.8560  154.7750 C   0  0  1  0  0  3  0  0  0  0  0  0
  155.1800  214.3830  157.2510 O   0  0  0  0  0  1  0  0  0  0  0  0
  157.0650  210.7700  154.0160 C   0  0  0  0  0  2  0  0  0  0  0  0
  158.2120  211.7740  153.8200 C   0  0  2  0  0  0  0  0  0  0  0  0
  159.5880  213.4430  150.7790 N   0  0  0  0  0  1  0  0  0  0  0  0
  157.1390  213.4750  156.5130 O   0  0  0  0  0  0  0  0  0  0  0  0
  157.8170  213.1770  153.8180 C   0  0  2  0  0  3  0  0  0  0  0  0
  160.1460  212.6970  156.7160 C   0  0  2  0  0  3  0  0  0  0  0  0
  161.6330  212.7490  157.0020 C   0  0  0  0  0  1  0  0  0  0  0  0
  159.6110  211.5070  157.2190 O   0  0  0  0  0  1  0  0  0  0  0  0
  160.4670  206.8620  155.6670 O   0  0  0  0  0  1  0  0  0  0  0  0
  159.7910  206.3060  153.5560 F   0  0  0  0  0  0  0  0  0  0  0  0
  160.8750  206.6270  154.3520 C   0  0  1  0  0  3  0  0  0  0  0  0
  162.2380  209.0920  151.7900 O   0  0  0  0  0  1  0  0  0  0  0  0
  161.5020  207.9960  152.2440 C   0  0  1  0  0  3  0  0  0  0  0  0
  163.0890  206.0600  151.9340 C   0  0  0  0  0  1  0  0  0  0  0  0
  161.8710  206.7770  151.3890 C   0  0  2  0  0  3  0  0  0  0  0  0
  162.0650  207.1170  149.9850 N   0  0  0  0  0  2  0  0  0  0  0  0
  161.0380  206.5760  149.2850 O   0  0  0  0  0  0  0  0  0  0  0  0
  162.9810  205.3510  146.3000 C   0  0  0  0  0  2  0  0  0  0  0  0
  161.4970  206.5230  147.9670 C   0  0  2  0  0  3  0  0  0  0  0  0
  161.9800  205.7950  145.2580 C   0  0  0  0  0  3  0  0  0  0  0  0
  160.3350  206.5560  146.9790 C   0  0  0  0  0  2  0  0  0  0  0  0
  160.8080  206.3750  145.5620 C   0  0  0  0  0  3  0  0  0  0  0  0
  162.4090  205.3070  147.7230 C   0  0  1  0  0  3  0  0  0  0  0  0
  161.0850  203.2270  146.9410 C   0  0  0  0  0  1  0  0  0  0  0  0
  161.8440  203.9130  148.0700 C   0  0  2  0  0  3  0  0  0  0  0  0
  161.0950  203.8820  149.4100 C   0  0  1  0  0  3  0  0  0  0  0  0
  159.7120  203.8000  149.2340 O   0  0  0  0  0  1  0  0  0  0  0  0
  160.9170  202.7270  151.6250 C   0  0  0  0  0  0  0  0  0  0  0  0
  161.6330  202.7780  150.3370 C   0  0  1  0  0  3  0  0  0  0  0  0
  160.0870  200.8550  149.5760 C   0  0  0  0  0  2  0  0  0  0  0  0
  161.5160  201.3330  149.7870 C   0  0  2  0  0  3  0  0  0  0  0  0
  160.4230  201.4690  151.8880 O   0  0  0  0  0  0  0  0  0  0  0  0
  160.7880  200.5320  150.8810 C   0  0  1  0  0  3  0  0  0  0  0  0
  160.7740  203.7040  152.4100 O   0  0  0  0  0  0  0  0  0  0  0  0
  1 32  1  6  0  0  0
  1 30  1  0  0  0  0
  1  3  1  0  0  0  0
  3  4  1  1  0  0  0
  3  2  1  0  0  0  0
  5  3  1  0  0  0  0
  6 15  2  0  0  0  0
  7 24  1  0  0  0  0
  7 21  1  0  0  0  0
  8 23  1  0  0  0  0
  9 25  1  0  0  0  0
 10 23  1  0  0  0  0
 10 19  1  0  0  0  0
 11 20  1  0  0  0  0
 11 17  1  0  0  0  0
 12 10  1  0  0  0  0
 12 14  1  0  0  0  0
 13  6  1  0  0  0  0
 13  7  1  0  0  0  0
 15  5  1  0  0  0  0
 15 16  1  0  0  0  0
 16  9  1  0  0  0  0
 17 12  1  0  0  0  0
 18  9  1  0  0  0  0
 18  8  1  0  0  0  0
 21 20  1  0  0  0  0
 21 16  1  0  0  0  0
 22 13  1  0  0  0  0
 24 21  1  0  0  0  0
 24 18  1  0  0  0  0
 25 26  1  0  0  0  0
 25 27  1  0  0  0  0
 29 30  1  0  0  0  0
 30 28  1  0  0  0  0
 31 32  1  0  0  0  0
 34 33  1  0  0  0  0
 34 32  1  0  0  0  0
 35 34  1  0  0  0  0
 36 35  1  0  0  0  0
 37 42  1  0  0  0  0
 38 36  1  0  0  0  0
 39 41  2  0  0  0  0
 39 37  1  0  0  0  0
 40 38  1  0  0  0  0
 41 40  1  0  0  0  0
 42 38  1  0  0  0  0
 42 44  1  0  0  0  0
 43 44  1  0  0  0  0
 44 45  1  0  0  0  0
 45 48  1  0  0  0  0
 46 45  1  0  0  0  0
 47 51  1  0  0  0  0
 47 53  2  0  0  0  0
 48 47  1  0  0  0  0
 49 50  1  0  0  0  0
 49 52  1  0  0  0  0
 50 48  1  0  0  0  0
 50 52  1  0  0  0  0
 52 51  1  0  0  0  0
M  END
>  <MODEL>
5

>  <REMARK>
 VINA RESULT:      -3.3      2.251      4.700
  Name = 
  13 active torsions:
  status: ('A' for Active; 'I' for Inactive)
    1  A    between atoms: C_3  and  C_5
    2  A    between atoms: C_8  and  C_12
    3  A    between atoms: C_8  and  C_46
    4  A    between atoms: N_11  and  O_18
    5  A    between atoms: N_11  and  C_37
    6  A    between atoms: O_17  and  C_19
    7  A    between atoms: O_17  and  C_28
    8  A    between atoms: O_18  and  C_23
    9  A    between atoms: C_19  and  C_39
   10  A    between atoms: C_31  and  C_39
   11  A    between atoms: C_37  and  C_45
   12  A    between atoms: C_39  and  C_45
   13  A    between atoms: C_44  and  C_46
                            x       y       z     vdW  Elec       q    Type
                         _______ _______ _______ _____ _____    ______ ____

>  <TORSDO>
F 13

$$$$
=
 OpenBabel11072411473D

 53 59  0  0  1  0  0  0  0  0999 V2000
  161.6820  208.9870  154.2230 C   0  0  1  0  0  3  0  0  0  0  0  0
  161.5010  210.0050  152.0520 O   0  0  0  0  0  1  0  0  0  0  0  0
  162.0210  210.2110  153.3360 C   0  0  2  0  0  0  0  0  0  0  0  0
  163.5390  210.3840  153.2300 C   0  0  0  0  0  1  0  0  0  0  0  0
  161.4180  211.3880  153.8960 O   0  0  0  0  0  0  0  0  0  0  0  0
  159.8390  212.2350  152.3040 C   0  0  0  0  0  3  0  0  0  0  0  0
  157.4340  211.9970  152.6760 N   0  0  1  0  0  0  0  0  0  0  0  0
  156.6130  214.4500  155.5970 C   0  0  0  0  0  2  0  0  0  0  0  0
  158.9420  213.4860  154.9870 C   0  0  1  0  0  3  0  0  0  0  0  0
  154.8650  213.1850  156.2300 C   0  0  1  0  0  3  0  0  0  0  0  0
  155.5700  210.0900  154.2750 C   0  0  0  0  0  2  0  0  0  0  0  0
  154.5610  211.6850  156.1150 C   0  0  2  0  0  3  0  0  0  0  0  0
  158.4820  212.8030  152.0330 C   0  0  2  0  0  3  0  0  0  0  0  0
  155.3420  210.9110  156.9770 O   0  0  0  0  0  1  0  0  0  0  0  0
  160.1480  211.8810  153.5580 C   0  0  0  0  0  0  0  0  0  0  0  0
  159.1010  212.0190  154.6330 C   0  0  2  0  0  3  0  0  0  0  0  0
  154.5800  211.2030  154.6560 C   0  0  0  0  0  2  0  0  0  0  0  0
  157.5500  213.9240  154.4950 C   0  0  1  0  0  3  0  0  0  0  0  0
  154.1070  213.7390  157.2590 O   0  0  0  0  0  1  0  0  0  0  0  0
  157.0450  210.3400  154.6350 C   0  0  0  0  0  2  0  0  0  0  0  0
  157.7280  211.6010  154.0830 C   0  0  2  0  0  0  0  0  0  0  0  0
  158.2470  212.8540  150.6060 N   0  0  0  0  0  1  0  0  0  0  0  0
  156.2270  213.4210  156.4780 O   0  0  0  0  0  0  0  0  0  0  0  0
  156.8420  212.7320  153.8390 C   0  0  2  0  0  3  0  0  0  0  0  0
  159.3140  213.8150  156.4420 C   0  0  2  0  0  3  0  0  0  0  0  0
  160.7090  214.4030  156.5180 C   0  0  0  0  0  1  0  0  0  0  0  0
  159.2340  212.6830  157.2590 O   0  0  0  0  0  1  0  0  0  0  0  0
  159.8680  208.9800  155.8410 O   0  0  0  0  0  1  0  0  0  0  0  0
  162.0150  209.0520  156.6200 F   0  0  0  0  0  0  0  0  0  0  0  0
  161.1640  209.4410  155.6020 C   0  0  1  0  0  3  0  0  0  0  0  0
  160.4300  208.3590  152.2350 O   0  0  0  0  0  1  0  0  0  0  0  0
  160.7620  207.9440  153.5260 C   0  0  1  0  0  3  0  0  0  0  0  0
  161.7840  206.0230  154.8020 C   0  0  0  0  0  1  0  0  0  0  0  0
  161.3140  206.5150  153.4480 C   0  0  2  0  0  3  0  0  0  0  0  0
  162.3780  206.3810  152.4600 N   0  0  0  0  0  2  0  0  0  0  0  0
  162.7990  205.0930  152.4820 O   0  0  0  0  0  0  0  0  0  0  0  0
  159.6780  204.2840  150.5350 C   0  0  0  0  0  2  0  0  0  0  0  0
  161.7010  204.3530  152.0360 C   0  0  2  0  0  3  0  0  0  0  0  0
  159.8910  202.7890  150.4940 C   0  0  0  0  0  3  0  0  0  0  0  0
  162.1200  202.9480  151.6140 C   0  0  0  0  0  2  0  0  0  0  0  0
  160.9700  202.1840  151.0160 C   0  0  0  0  0  3  0  0  0  0  0  0
  160.9370  205.0760  150.9130 C   0  0  1  0  0  3  0  0  0  0  0  0
  162.4330  206.8540  149.7750 C   0  0  0  0  0  1  0  0  0  0  0  0
  161.7420  205.5010  149.6650 C   0  0  2  0  0  3  0  0  0  0  0  0
  160.9620  205.3220  148.3550 C   0  0  1  0  0  3  0  0  0  0  0  0
  160.3480  206.5090  147.9470 O   0  0  0  0  0  1  0  0  0  0  0  0
  161.3250  203.4070  146.7840 C   0  0  0  0  0  0  0  0  0  0  0  0
  161.8390  204.7080  147.2500 C   0  0  1  0  0  3  0  0  0  0  0  0
  160.6500  205.7380  145.2030 C   0  0  0  0  0  2  0  0  0  0  0  0
  161.9600  205.5480  145.9530 C   0  0  2  0  0  3  0  0  0  0  0  0
  161.1490  203.3840  145.4190 O   0  0  0  0  0  0  0  0  0  0  0  0
  161.5690  204.5990  144.8070 C   0  0  1  0  0  3  0  0  0  0  0  0
  161.0820  202.4180  147.5280 O   0  0  0  0  0  0  0  0  0  0  0  0
  1 32  1  6  0  0  0
  1 30  1  0  0  0  0
  2  3  1  0  0  0  0
  3  4  1  6  0  0  0
  3  5  1  0  0  0  0
  3  1  1  0  0  0  0
  6 15  2  0  0  0  0
  7 24  1  0  0  0  0
  7 21  1  0  0  0  0
  8 23  1  0  0  0  0
  9 25  1  0  0  0  0
 10 23  1  0  0  0  0
 10 19  1  0  0  0  0
 11 20  1  0  0  0  0
 11 17  1  0  0  0  0
 12 10  1  0  0  0  0
 12 14  1  0  0  0  0
 13  6  1  0  0  0  0
 13  7  1  0  0  0  0
 15  5  1  0  0  0  0
 15 16  1  0  0  0  0
 16  9  1  0  0  0  0
 17 12  1  0  0  0  0
 18  9  1  0  0  0  0
 18  8  1  0  0  0  0
 21 16  1  0  0  0  0
 21 20  1  0  0  0  0
 22 13  1  0  0  0  0
 24 21  1  0  0  0  0
 24 18  1  0  0  0  0
 25 26  1  0  0  0  0
 25 27  1  0  0  0  0
 30 28  1  0  0  0  0
 30 29  1  0  0  0  0
 31 32  1  0  0  0  0
 34 32  1  0  0  0  0
 34 33  1  0  0  0  0
 35 36  1  0  0  0  0
 35 34  1  0  0  0  0
 37 42  1  0  0  0  0
 38 36  1  0  0  0  0
 39 37  1  0  0  0  0
 39 41  2  0  0  0  0
 40 38  1  0  0  0  0
 41 40  1  0  0  0  0
 42 38  1  0  0  0  0
 44 43  1  0  0  0  0
 44 42  1  0  0  0  0
 45 44  1  0  0  0  0
 46 45  1  0  0  0  0
 47 48  1  0  0  0  0
 47 53  2  0  0  0  0
 48 45  1  0  0  0  0
 49 50  1  0  0  0  0
 50 48  1  0  0  0  0
 51 47  1  0  0  0  0
 52 49  1  0  0  0  0
 52 51  1  0  0  0  0
 52 50  1  0  0  0  0
M  END
>  <MODEL>
6

>  <REMARK>
 VINA RESULT:      -3.1      2.394      4.729
  Name = 
  13 active torsions:
  status: ('A' for Active; 'I' for Inactive)
    1  A    between atoms: C_3  and  C_5
    2  A    between atoms: C_8  and  C_12
    3  A    between atoms: C_8  and  C_46
    4  A    between atoms: N_11  and  O_18
    5  A    between atoms: N_11  and  C_37
    6  A    between atoms: O_17  and  C_19
    7  A    between atoms: O_17  and  C_28
    8  A    between atoms: O_18  and  C_23
    9  A    between atoms: C_19  and  C_39
   10  A    between atoms: C_31  and  C_39
   11  A    between atoms: C_37  and  C_45
   12  A    between atoms: C_39  and  C_45
   13  A    between atoms: C_44  and  C_46
                            x       y       z     vdW  Elec       q    Type
                         _______ _______ _______ _____ _____    ______ ____

>  <TORSDO>
F 13

$$$$
=
 OpenBabel11072411473D

 53 59  0  0  1  0  0  0  0  0999 V2000
  161.2570  204.2520  152.3900 C   0  0  1  0  0  3  0  0  0  0  0  0
  162.6130  205.8340  151.1870 O   0  0  0  0  0  1  0  0  0  0  0  0
  161.9120  205.6560  152.3870 C   0  0  2  0  0  0  0  0  0  0  0  0
  162.8960  205.7830  153.5540 C   0  0  0  0  0  1  0  0  0  0  0  0
  160.8900  206.6590  152.4790 O   0  0  0  0  0  0  0  0  0  0  0  0
  161.9470  208.6780  151.7370 C   0  0  0  0  0  3  0  0  0  0  0  0
  160.9200  210.8580  152.1550 N   0  0  1  0  0  0  0  0  0  0  0  0
  161.3040  211.4390  155.9940 C   0  0  0  0  0  2  0  0  0  0  0  0
  161.4300  209.1680  154.7460 C   0  0  1  0  0  3  0  0  0  0  0  0
  159.4750  212.7450  156.0260 C   0  0  1  0  0  3  0  0  0  0  0  0
  158.0540  211.9460  152.6740 C   0  0  0  0  0  2  0  0  0  0  0  0
  158.2050  212.7920  155.1650 C   0  0  2  0  0  3  0  0  0  0  0  0
  162.1860  210.1410  151.9390 C   0  0  2  0  0  3  0  0  0  0  0  0
  157.3510  211.7130  155.4070 O   0  0  0  0  0  1  0  0  0  0  0  0
  161.1230  208.0400  152.5770 C   0  0  0  0  0  0  0  0  0  0  0  0
  160.4300  208.8310  153.6570 C   0  0  2  0  0  3  0  0  0  0  0  0
  158.5250  213.0110  153.6780 C   0  0  0  0  0  2  0  0  0  0  0  0
  161.6600  210.6900  154.6960 C   0  0  1  0  0  3  0  0  0  0  0  0
  159.2260  213.3430  157.2600 O   0  0  0  0  0  1  0  0  0  0  0  0
  158.4830  210.4980  152.9680 C   0  0  0  0  0  2  0  0  0  0  0  0
  159.9830  210.1930  153.1040 C   0  0  2  0  0  0  0  0  0  0  0  0
  162.8630  210.6920  150.7840 N   0  0  0  0  0  1  0  0  0  0  0  0
  159.9150  211.4280  156.2290 O   0  0  0  0  0  0  0  0  0  0  0  0
  160.8020  211.3000  153.5810 C   0  0  2  0  0  3  0  0  0  0  0  0
  161.0910  208.5490  156.1120 C   0  0  2  0  0  3  0  0  0  0  0  0
  162.3300  208.4600  156.9810 C   0  0  0  0  0  1  0  0  0  0  0  0
  160.5240  207.2780  155.9700 O   0  0  0  0  0  1  0  0  0  0  0  0
  159.3360  204.6520  150.9540 O   0  0  0  0  0  1  0  0  0  0  0  0
  159.0900  203.2260  152.7230 F   0  0  0  0  0  0  0  0  0  0  0  0
  159.7260  204.3660  152.2640 C   0  0  1  0  0  3  0  0  0  0  0  0
  162.3580  202.1160  152.0160 O   0  0  0  0  0  1  0  0  0  0  0  0
  161.8930  203.2620  151.3700 C   0  0  1  0  0  3  0  0  0  0  0  0
  160.7760  201.3300  150.1930 C   0  0  0  0  0  1  0  0  0  0  0  0
  160.9880  202.8310  150.2090 C   0  0  2  0  0  3  0  0  0  0  0  0
  161.4810  203.2900  148.9160 N   0  0  0  0  0  2  0  0  0  0  0  0
  160.6280  204.2420  148.4650 O   0  0  0  0  0  0  0  0  0  0  0  0
  163.1070  206.8700  147.4020 C   0  0  0  0  0  2  0  0  0  0  0  0
  161.3630  205.4280  148.5120 C   0  0  2  0  0  3  0  0  0  0  0  0
  162.3910  208.0400  148.0350 C   0  0  0  0  0  3  0  0  0  0  0  0
  160.4530  206.6300  148.7470 C   0  0  0  0  0  2  0  0  0  0  0  0
  161.2170  207.9250  148.6770 C   0  0  0  0  0  3  0  0  0  0  0  0
  162.2330  205.6170  147.2560 C   0  0  1  0  0  3  0  0  0  0  0  0
  160.1540  206.2390  145.8470 C   0  0  0  0  0  1  0  0  0  0  0  0
  161.5230  205.5710  145.8860 C   0  0  2  0  0  3  0  0  0  0  0  0
  161.5350  204.1740  145.2480 C   0  0  1  0  0  3  0  0  0  0  0  0
  162.7270  203.4930  145.5050 O   0  0  0  0  0  1  0  0  0  0  0  0
  159.5400  202.8720  144.4790 C   0  0  0  0  0  0  0  0  0  0  0  0
  160.2960  203.3560  145.6490 C   0  0  1  0  0  3  0  0  0  0  0  0
  161.3900  201.0180  145.7180 C   0  0  0  0  0  2  0  0  0  0  0  0
  160.5830  202.0690  146.4660 C   0  0  2  0  0  3  0  0  0  0  0  0
  159.3500  201.5080  144.5190 O   0  0  0  0  0  0  0  0  0  0  0  0
  159.8760  200.9320  145.7090 C   0  0  1  0  0  3  0  0  0  0  0  0
  159.1020  203.6030  143.5490 O   0  0  0  0  0  0  0  0  0  0  0  0
  1 32  1  6  0  0  0
  2  3  1  0  0  0  0
  3  1  1  0  0  0  0
  3  5  1  0  0  0  0
  3  4  1  1  0  0  0
  5 15  1  0  0  0  0
  6 13  1  0  0  0  0
  6 15  2  0  0  0  0
  7 21  1  0  0  0  0
  7 24  1  0  0  0  0
  8 23  1  0  0  0  0
  9 25  1  0  0  0  0
 10 23  1  0  0  0  0
 10 19  1  0  0  0  0
 11 20  1  0  0  0  0
 11 17  1  0  0  0  0
 12 14  1  0  0  0  0
 12 10  1  0  0  0  0
 13  7  1  0  0  0  0
 15 16  1  0  0  0  0
 16  9  1  0  0  0  0
 17 12  1  0  0  0  0
 18  9  1  0  0  0  0
 18  8  1  0  0  0  0
 20 21  1  0  0  0  0
 21 24  1  0  0  0  0
 21 16  1  0  0  0  0
 22 13  1  0  0  0  0
 24 18  1  0  0  0  0
 25 26  1  0  0  0  0
 27 25  1  0  0  0  0
 28 30  1  0  0  0  0
 30  1  1  0  0  0  0
 30 29  1  0  0  0  0
 32 31  1  0  0  0  0
 33 34  1  0  0  0  0
 34 32  1  0  0  0  0
 35 34  1  0  0  0  0
 36 38  1  0  0  0  0
 36 35  1  0  0  0  0
 37 39  1  0  0  0  0
 38 40  1  0  0  0  0
 39 41  2  0  0  0  0
 41 40  1  0  0  0  0
 42 37  1  0  0  0  0
 42 38  1  0  0  0  0
 43 44  1  0  0  0  0
 44 42  1  0  0  0  0
 45 46  1  0  0  0  0
 45 48  1  0  0  0  0
 45 44  1  0  0  0  0
 47 51  1  0  0  0  0
 47 48  1  0  0  0  0
 48 50  1  0  0  0  0
 49 50  1  0  0  0  0
 51 52  1  0  0  0  0
 52 49  1  0  0  0  0
 52 50  1  0  0  0  0
 53 47  2  0  0  0  0
M  END
>  <MODEL>
7

>  <REMARK>
 VINA RESULT:      -3.0      1.483      3.181
  Name = 
  13 active torsions:
  status: ('A' for Active; 'I' for Inactive)
    1  A    between atoms: C_3  and  C_5
    2  A    between atoms: C_8  and  C_12
    3  A    between atoms: C_8  and  C_46
    4  A    between atoms: N_11  and  O_18
    5  A    between atoms: N_11  and  C_37
    6  A    between atoms: O_17  and  C_19
    7  A    between atoms: O_17  and  C_28
    8  A    between atoms: O_18  and  C_23
    9  A    between atoms: C_19  and  C_39
   10  A    between atoms: C_31  and  C_39
   11  A    between atoms: C_37  and  C_45
   12  A    between atoms: C_39  and  C_45
   13  A    between atoms: C_44  and  C_46
                            x       y       z     vdW  Elec       q    Type
                         _______ _______ _______ _____ _____    ______ ____

>  <TORSDO>
F 13

$$$$
=
 OpenBabel11072411473D

 53 59  0  0  1  0  0  0  0  0999 V2000
  162.0600  207.9550  151.4170 C   0  0  1  0  0  3  0  0  0  0  0  0
  160.3790  209.5070  152.1580 O   0  0  0  0  0  1  0  0  0  0  0  0
  161.7650  209.3030  152.1210 C   0  0  2  0  0  0  0  0  0  0  0  0
  162.4100  210.4570  151.3480 C   0  0  0  0  0  1  0  0  0  0  0  0
  162.2620  209.2580  153.4660 O   0  0  0  0  0  0  0  0  0  0  0  0
  162.6660  210.5710  155.4310 C   0  0  0  0  0  3  0  0  0  0  0  0
  161.1600  212.3960  156.0500 N   0  0  1  0  0  0  0  0  0  0  0  0
  157.8840  210.6460  157.2440 C   0  0  0  0  0  2  0  0  0  0  0  0
  159.7430  209.6140  155.7570 C   0  0  1  0  0  3  0  0  0  0  0  0
  156.6580  212.4330  156.6490 C   0  0  1  0  0  3  0  0  0  0  0  0
  159.1590  214.2730  154.5870 C   0  0  0  0  0  2  0  0  0  0  0  0
  156.8370  213.5180  155.5770 C   0  0  2  0  0  3  0  0  0  0  0  0
  162.1120  211.3920  156.5510 C   0  0  2  0  0  3  0  0  0  0  0  0
  156.6310  213.0330  154.2830 O   0  0  0  0  0  1  0  0  0  0  0  0
  161.8210  210.0780  154.5170 C   0  0  0  0  0  0  0  0  0  0  0  0
  160.3560  210.4150  154.6240 C   0  0  2  0  0  3  0  0  0  0  0  0
  158.1550  214.2870  155.7510 C   0  0  0  0  0  2  0  0  0  0  0  0
  159.3780  210.6120  156.8720 C   0  0  1  0  0  3  0  0  0  0  0  0
  155.3130  212.3410  157.0010 O   0  0  0  0  0  1  0  0  0  0  0  0
  159.5700  212.8870  154.0600 C   0  0  0  0  0  2  0  0  0  0  0  0
  160.1850  211.8820  155.0470 C   0  0  2  0  0  0  0  0  0  0  0  0
  163.1900  212.0560  157.2540 N   0  0  0  0  0  1  0  0  0  0  0  0
  157.1060  211.1810  156.1990 O   0  0  0  0  0  0  0  0  0  0  0  0
  159.7590  212.0310  156.4320 C   0  0  2  0  0  3  0  0  0  0  0  0
  158.6520  208.6320  155.3030 C   0  0  2  0  0  3  0  0  0  0  0  0
  158.9350  207.2380  155.8270 C   0  0  0  0  0  1  0  0  0  0  0  0
  158.5420  208.5980  153.9090 O   0  0  0  0  0  1  0  0  0  0  0  0
  160.4200  206.3420  152.2020 O   0  0  0  0  0  1  0  0  0  0  0  0
  162.6190  205.7210  152.1610 F   0  0  0  0  0  0  0  0  0  0  0  0
  161.7410  206.7720  152.3500 C   0  0  1  0  0  3  0  0  0  0  0  0
  161.6170  208.9900  149.2610 O   0  0  0  0  0  1  0  0  0  0  0  0
  161.4110  207.8290  150.0080 C   0  0  1  0  0  3  0  0  0  0  0  0
  162.3960  207.0560  147.8180 C   0  0  0  0  0  1  0  0  0  0  0  0
  161.8660  206.6270  149.1710 C   0  0  2  0  0  3  0  0  0  0  0  0
  160.8160  205.6270  149.0130 N   0  0  0  0  0  2  0  0  0  0  0  0
  161.4120  204.4510  148.7000 O   0  0  0  0  0  0  0  0  0  0  0  0
  159.2180  201.4410  149.2600 C   0  0  0  0  0  2  0  0  0  0  0  0
  160.6840  203.4860  149.4010 C   0  0  2  0  0  3  0  0  0  0  0  0
  159.7830  201.0740  150.6130 C   0  0  0  0  0  3  0  0  0  0  0  0
  161.5230  202.8660  150.5140 C   0  0  0  0  0  2  0  0  0  0  0  0
  160.7920  201.7410  151.1960 C   0  0  0  0  0  3  0  0  0  0  0  0
  160.1030  202.4110  148.4660 C   0  0  1  0  0  3  0  0  0  0  0  0
  162.4260  201.3060  148.1860 C   0  0  0  0  0  1  0  0  0  0  0  0
  161.0900  201.6610  147.5450 C   0  0  2  0  0  3  0  0  0  0  0  0
  161.2340  202.3100  146.1610 C   0  0  1  0  0  3  0  0  0  0  0  0
  160.2720  201.8430  145.2620 O   0  0  0  0  0  1  0  0  0  0  0  0
  162.4790  204.4280  145.6780 C   0  0  0  0  0  0  0  0  0  0  0  0
  161.2530  203.8460  146.2520 C   0  0  1  0  0  3  0  0  0  0  0  0
  160.1260  204.3740  143.9890 C   0  0  0  0  0  2  0  0  0  0  0  0
  160.1080  204.5700  145.4980 C   0  0  2  0  0  3  0  0  0  0  0  0
  162.1980  205.3780  144.7220 O   0  0  0  0  0  0  0  0  0  0  0  0
  160.7990  205.5960  144.5830 C   0  0  1  0  0  3  0  0  0  0  0  0
  163.6540  204.1150  146.0170 O   0  0  0  0  0  0  0  0  0  0  0  0
  1 32  1  6  0  0  0
  1  3  1  0  0  0  0
  1 30  1  0  0  0  0
  3  4  1  6  0  0  0
  3  2  1  0  0  0  0
  3  5  1  0  0  0  0
  5 15  1  0  0  0  0
  6 13  1  0  0  0  0
  7 24  1  0  0  0  0
  7 13  1  0  0  0  0
  9 18  1  0  0  0  0
 10 19  1  0  0  0  0
 11 17  1  0  0  0  0
 12 17  1  0  0  0  0
 12 10  1  0  0  0  0
 13 22  1  0  0  0  0
 14 12  1  0  0  0  0
 15 16  1  0  0  0  0
 15  6  2  0  0  0  0
 16 21  1  0  0  0  0
 16  9  1  0  0  0  0
 18  8  1  0  0  0  0
 20 11  1  0  0  0  0
 20 21  1  0  0  0  0
 21  7  1  0  0  0  0
 21 24  1  0  0  0  0
 23 10  1  0  0  0  0
 23  8  1  0  0  0  0
 24 18  1  0  0  0  0
 25  9  1  0  0  0  0
 25 26  1  0  0  0  0
 27 25  1  0  0  0  0
 28 30  1  0  0  0  0
 29 30  1  0  0  0  0
 31 32  1  0  0  0  0
 33 34  1  0  0  0  0
 34 32  1  0  0  0  0
 35 34  1  0  0  0  0
 36 35  1  0  0  0  0
 36 38  1  0  0  0  0
 37 39  1  0  0  0  0
 38 40  1  0  0  0  0
 39 41  2  0  0  0  0
 40 41  1  0  0  0  0
 42 37  1  0  0  0  0
 42 38  1  0  0  0  0
 44 43  1  0  0  0  0
 44 42  1  0  0  0  0
 45 48  1  0  0  0  0
 45 44  1  0  0  0  0
 46 45  1  0  0  0  0
 47 53  2  0  0  0  0
 47 48  1  0  0  0  0
 49 52  1  0  0  0  0
 49 50  1  0  0  0  0
 50 48  1  0  0  0  0
 51 47  1  0  0  0  0
 52 51  1  0  0  0  0
 52 50  1  0  0  0  0
M  END
>  <MODEL>
8

>  <REMARK>
 VINA RESULT:      -2.7      2.157      3.597
  Name = 
  13 active torsions:
  status: ('A' for Active; 'I' for Inactive)
    1  A    between atoms: C_3  and  C_5
    2  A    between atoms: C_8  and  C_12
    3  A    between atoms: C_8  and  C_46
    4  A    between atoms: N_11  and  O_18
    5  A    between atoms: N_11  and  C_37
    6  A    between atoms: O_17  and  C_19
    7  A    between atoms: O_17  and  C_28
    8  A    between atoms: O_18  and  C_23
    9  A    between atoms: C_19  and  C_39
   10  A    between atoms: C_31  and  C_39
   11  A    between atoms: C_37  and  C_45
   12  A    between atoms: C_39  and  C_45
   13  A    between atoms: C_44  and  C_46
                            x       y       z     vdW  Elec       q    Type
                         _______ _______ _______ _____ _____    ______ ____

>  <TORSDO>
F 13

$$$$
