=
 OpenBabel11072411353D

 25 26  0  0  1  0  0  0  0  0999 V2000
  161.9340  206.9810  151.7860 N   0  0  0  0  0  0  0  0  0  0  0  0
  160.7430  207.4700  153.7900 C   0  0  0  0  0  0  0  0  0  0  0  0
  161.4030  209.2310  152.3490 C   0  0  0  0  0  3  0  0  0  0  0  0
  161.3240  206.5380  152.9170 C   0  0  0  0  0  0  0  0  0  0  0  0
  160.0990  207.0500  154.9900 N   0  0  0  0  0  1  0  0  0  0  0  0
  160.7960  208.7930  153.4830 N   0  0  0  0  0  0  0  0  0  0  0  0
  161.9890  208.3050  151.4830 C   0  0  0  0  0  0  0  0  0  0  0  0
  161.3100  205.0740  153.2210 C   0  0  0  0  0  2  0  0  0  0  0  0
  160.8770  204.9260  150.7600 C   0  0  0  0  0  3  0  0  0  0  0  0
  160.6970  204.1800  149.5910 C   0  0  0  0  0  3  0  0  0  0  0  0
  161.1420  204.2790  151.9710 C   0  0  0  0  0  0  0  0  0  0  0  0
  161.0390  202.1360  150.8450 C   0  0  0  0  0  3  0  0  0  0  0  0
  160.7790  202.7840  149.6320 C   0  0  0  0  0  0  0  0  0  0  0  0
  161.2190  202.8830  152.0130 C   0  0  0  0  0  3  0  0  0  0  0  0
  161.4920  200.6630  148.3010 O   0  0  0  0  0  0  0  0  0  0  0  0
  160.5480  201.8480  148.1420 S   0  0  2  0  0  0  0  0  0  0  0  0
  161.3030  202.8540  146.8550 C   0  0  0  0  0  1  0  0  0  0  0  0
  162.6490  208.7620  150.2280 C   0  0  0  0  0  2  0  0  0  0  0  0
  161.8460  208.3280  149.0070 C   0  0  1  0  0  3  0  0  0  0  0  0
  161.4420  209.4760  148.1920 N   0  0  0  0  0  2  0  0  0  0  0  0
  162.1610  210.5610  148.5750 O   0  0  0  0  0  1  0  0  0  0  0  0
  162.0700  206.5370  147.2720 C   0  0  0  0  0  3  0  0  0  0  0  0
  162.6250  207.3310  148.1980 C   0  0  0  0  0  3  0  0  0  0  0  0
  160.4150  206.2270  145.6050 O   0  0  0  0  0  1  0  0  0  0  0  0
  160.6080  206.5450  146.9500 C   0  0  0  0  0  2  0  0  0  0  0  0
  1  4  1  0  0  0  0
  2  5  1  0  0  0  0
  3  6  2  0  0  0  0
  4  8  1  0  0  0  0
  4  2  2  0  0  0  0
  6  2  1  0  0  0  0
  7  1  2  0  0  0  0
  7  3  1  0  0  0  0
  9 11  1  0  0  0  0
 10 13  1  0  0  0  0
 10  9  2  0  0  0  0
 11 14  2  0  0  0  0
 11  8  1  0  0  0  0
 12 14  1  0  0  0  0
 13 12  2  0  0  0  0
 16 17  1  6  0  0  0
 16 15  2  0  0  0  0
 16 13  1  0  0  0  0
 18  7  1  0  0  0  0
 19 23  1  6  0  0  0
 19 18  1  0  0  0  0
 20 21  1  0  0  0  0
 20 19  1  0  0  0  0
 22 23  2  0  0  0  0
 24 25  1  0  0  0  0
 25 22  1  0  0  0  0
M  END
>  <MODEL>
1

>  <REMARK>
 VINA RESULT:      -7.4      0.000      0.000
  Name = 
  8 active torsions:
  status: ('A' for Active; 'I' for Inactive)
    1  A    between atoms: S_2  and  C_20
    2  A    between atoms: N_5  and  C_12
    3  A    between atoms: C_10  and  C_24
    4  A    between atoms: C_12  and  C_23
    5  A    between atoms: C_12  and  C_25
    6  A    between atoms: C_13  and  C_24
    7  A    between atoms: C_15  and  C_19
    8  A    between atoms: C_22  and  C_25
                            x       y       z     vdW  Elec       q    Type
                         _______ _______ _______ _____ _____    ______ ____

>  <TORSDO>
F 8

$$$$
=
 OpenBabel11072411353D

 25 26  0  0  1  0  0  0  0  0999 V2000
  161.1630  205.6460  150.3040 N   0  0  0  0  0  0  0  0  0  0  0  0
  161.2950  203.3810  151.0290 C   0  0  0  0  0  0  0  0  0  0  0  0
  160.6700  203.8720  148.7970 C   0  0  0  0  0  3  0  0  0  0  0  0
  161.4220  204.7530  151.2950 C   0  0  0  0  0  0  0  0  0  0  0  0
  161.5510  202.4110  152.0410 N   0  0  0  0  0  1  0  0  0  0  0  0
  160.9250  202.9750  149.7860 N   0  0  0  0  0  0  0  0  0  0  0  0
  160.7880  205.2370  149.0630 C   0  0  0  0  0  0  0  0  0  0  0  0
  161.8060  205.2500  152.6520 C   0  0  0  0  0  2  0  0  0  0  0  0
  161.9590  207.6030  151.8090 C   0  0  0  0  0  3  0  0  0  0  0  0
  161.6990  208.9700  151.9420 C   0  0  0  0  0  3  0  0  0  0  0  0
  161.5080  206.7050  152.7830 C   0  0  0  0  0  0  0  0  0  0  0  0
  160.5440  208.5460  154.0290 C   0  0  0  0  0  3  0  0  0  0  0  0
  160.9900  209.4430  153.0520 C   0  0  0  0  0  0  0  0  0  0  0  0
  160.8040  207.1790  153.8950 C   0  0  0  0  0  3  0  0  0  0  0  0
  160.8150  211.4490  154.7020 O   0  0  0  0  0  0  0  0  0  0  0  0
  160.6670  211.1810  153.2100 S   0  0  2  0  0  0  0  0  0  0  0  0
  158.9020  211.3430  152.8970 C   0  0  0  0  0  1  0  0  0  0  0  0
  160.5270  206.2380  147.9890 C   0  0  0  0  0  2  0  0  0  0  0  0
  161.8290  206.6670  147.3230 C   0  0  1  0  0  3  0  0  0  0  0  0
  162.6130  207.5490  148.1910 N   0  0  0  0  0  2  0  0  0  0  0  0
  161.8810  208.6600  148.4630 O   0  0  0  0  0  1  0  0  0  0  0  0
  162.5040  204.8760  145.7090 C   0  0  0  0  0  3  0  0  0  0  0  0
  162.6240  205.4620  146.9080 C   0  0  0  0  0  3  0  0  0  0  0  0
  160.5230  204.4220  144.4880 O   0  0  0  0  0  1  0  0  0  0  0  0
  161.5540  205.3490  144.6520 C   0  0  0  0  0  2  0  0  0  0  0  0
  1  4  1  0  0  0  0
  2  4  2  0  0  0  0
  2  5  1  0  0  0  0
  3  7  1  0  0  0  0
  3  6  2  0  0  0  0
  4  8  1  0  0  0  0
  6  2  1  0  0  0  0
  7  1  2  0  0  0  0
  8 11  1  0  0  0  0
  9 10  2  0  0  0  0
  9 11  1  0  0  0  0
 10 13  1  0  0  0  0
 11 14  2  0  0  0  0
 13 16  1  0  0  0  0
 13 12  2  0  0  0  0
 14 12  1  0  0  0  0
 16 17  1  1  0  0  0
 16 15  2  0  0  0  0
 18  7  1  0  0  0  0
 19 23  1  1  0  0  0
 19 18  1  0  0  0  0
 19 20  1  0  0  0  0
 20 21  1  0  0  0  0
 22 23  2  0  0  0  0
 24 25  1  0  0  0  0
 25 22  1  0  0  0  0
M  END
>  <MODEL>
2

>  <REMARK>
 VINA RESULT:      -7.3      3.146      5.612
  Name = 
  8 active torsions:
  status: ('A' for Active; 'I' for Inactive)
    1  A    between atoms: S_2  and  C_20
    2  A    between atoms: N_5  and  C_12
    3  A    between atoms: C_10  and  C_24
    4  A    between atoms: C_12  and  C_23
    5  A    between atoms: C_12  and  C_25
    6  A    between atoms: C_13  and  C_24
    7  A    between atoms: C_15  and  C_19
    8  A    between atoms: C_22  and  C_25
                            x       y       z     vdW  Elec       q    Type
                         _______ _______ _______ _____ _____    ______ ____

>  <TORSDO>
F 8

$$$$
=
 OpenBabel11072411353D

 25 26  0  0  1  0  0  0  0  0999 V2000
  161.3600  207.4170  150.9370 N   0  0  0  0  0  0  0  0  0  0  0  0
  161.8810  208.9680  149.2060 C   0  0  0  0  0  0  0  0  0  0  0  0
  160.8900  206.8860  148.6660 C   0  0  0  0  0  3  0  0  0  0  0  0
  161.8600  208.6250  150.5670 C   0  0  0  0  0  0  0  0  0  0  0  0
  162.4030  210.2210  148.7730 N   0  0  0  0  0  1  0  0  0  0  0  0
  161.3930  208.0900  148.2900 N   0  0  0  0  0  0  0  0  0  0  0  0
  160.8760  206.5390  150.0180 C   0  0  0  0  0  0  0  0  0  0  0  0
  162.4050  209.5480  151.6090 C   0  0  0  0  0  2  0  0  0  0  0  0
  160.4780  211.0860  152.0480 C   0  0  0  0  0  3  0  0  0  0  0  0
  159.4660  211.5750  152.8800 C   0  0  0  0  0  3  0  0  0  0  0  0
  161.3110  210.0520  152.4880 C   0  0  0  0  0  0  0  0  0  0  0  0
  160.1230  210.0000  154.6000 C   0  0  0  0  0  3  0  0  0  0  0  0
  159.2860  211.0310  154.1560 C   0  0  0  0  0  0  0  0  0  0  0  0
  161.1350  209.5130  153.7670 C   0  0  0  0  0  3  0  0  0  0  0  0
  156.7190  211.1340  154.5700 O   0  0  0  0  0  0  0  0  0  0  0  0
  157.9990  211.6600  155.2030 S   0  0  2  0  0  0  0  0  0  0  0  0
  157.9710  213.4290  154.8720 C   0  0  0  0  0  1  0  0  0  0  0  0
  160.3160  205.2280  150.4540 C   0  0  0  0  0  2  0  0  0  0  0  0
  161.3620  204.1260  150.3280 C   0  0  1  0  0  3  0  0  0  0  0  0
  161.8370  203.6810  151.6410 N   0  0  0  0  0  2  0  0  0  0  0  0
  160.8270  203.8100  152.5390 O   0  0  0  0  0  1  0  0  0  0  0  0
  161.0570  202.8120  148.2190 C   0  0  0  0  0  3  0  0  0  0  0  0
  160.8170  202.9790  149.5260 C   0  0  0  0  0  3  0  0  0  0  0  0
  161.5150  203.6840  146.0630 O   0  0  0  0  0  1  0  0  0  0  0  0
  161.8860  203.7590  147.4060 C   0  0  0  0  0  2  0  0  0  0  0  0
  2  4  2  0  0  0  0
  3  7  1  0  0  0  0
  4  1  1  0  0  0  0
  4  8  1  0  0  0  0
  5  2  1  0  0  0  0
  6  3  2  0  0  0  0
  6  2  1  0  0  0  0
  7 18  1  0  0  0  0
  7  1  2  0  0  0  0
  8 11  1  0  0  0  0
  9 11  2  0  0  0  0
  9 10  1  0  0  0  0
 10 13  2  0  0  0  0
 11 14  1  0  0  0  0
 13 12  1  0  0  0  0
 13 16  1  0  0  0  0
 14 12  2  0  0  0  0
 15 16  2  0  0  0  0
 16 17  1  6  0  0  0
 19 23  1  1  0  0  0
 19 18  1  0  0  0  0
 19 20  1  0  0  0  0
 20 21  1  0  0  0  0
 22 23  2  0  0  0  0
 24 25  1  0  0  0  0
 25 22  1  0  0  0  0
M  END
>  <MODEL>
3

>  <REMARK>
 VINA RESULT:      -7.0      3.771      7.036
  Name = 
  8 active torsions:
  status: ('A' for Active; 'I' for Inactive)
    1  A    between atoms: S_2  and  C_20
    2  A    between atoms: N_5  and  C_12
    3  A    between atoms: C_10  and  C_24
    4  A    between atoms: C_12  and  C_23
    5  A    between atoms: C_12  and  C_25
    6  A    between atoms: C_13  and  C_24
    7  A    between atoms: C_15  and  C_19
    8  A    between atoms: C_22  and  C_25
                            x       y       z     vdW  Elec       q    Type
                         _______ _______ _______ _____ _____    ______ ____

>  <TORSDO>
F 8

$$$$
=
 OpenBabel11072411353D

 25 26  0  0  1  0  0  0  0  0999 V2000
  161.7560  206.2380  150.4110 N   0  0  0  0  0  0  0  0  0  0  0  0
  160.9590  204.2750  151.5010 C   0  0  0  0  0  0  0  0  0  0  0  0
  160.7150  204.5060  149.1560 C   0  0  0  0  0  3  0  0  0  0  0  0
  161.5880  205.5290  151.5580 C   0  0  0  0  0  0  0  0  0  0  0  0
  160.7550  203.5020  152.6800 N   0  0  0  0  0  1  0  0  0  0  0  0
  160.5400  203.7950  150.3000 N   0  0  0  0  0  0  0  0  0  0  0  0
  161.3330  205.7560  149.2120 C   0  0  0  0  0  0  0  0  0  0  0  0
  162.0460  206.1100  152.8580 C   0  0  0  0  0  2  0  0  0  0  0  0
  161.2330  208.3390  152.0570 C   0  0  0  0  0  3  0  0  0  0  0  0
  160.6380  209.5820  152.2930 C   0  0  0  0  0  3  0  0  0  0  0  0
  161.3890  207.4250  153.1050 C   0  0  0  0  0  0  0  0  0  0  0  0
  160.3600  209.0030  154.6300 C   0  0  0  0  0  3  0  0  0  0  0  0
  160.1990  209.9150  153.5790 C   0  0  0  0  0  0  0  0  0  0  0  0
  160.9550  207.7610  154.3930 C   0  0  0  0  0  3  0  0  0  0  0  0
  160.0310  212.3860  152.7790 O   0  0  0  0  0  0  0  0  0  0  0  0
  159.4460  211.4960  153.8670 S   0  0  2  0  0  0  0  0  0  0  0  0
  160.2040  212.0870  155.3880 C   0  0  0  0  0  1  0  0  0  0  0  0
  161.5460  206.5470  147.9670 C   0  0  0  0  0  2  0  0  0  0  0  0
  161.1230  205.7470  146.7400 C   0  0  1  0  0  3  0  0  0  0  0  0
  160.2860  206.5440  145.8400 N   0  0  0  0  0  2  0  0  0  0  0  0
  160.5570  206.1870  144.5590 O   0  0  0  0  0  1  0  0  0  0  0  0
  162.4590  203.9250  145.6610 C   0  0  0  0  0  3  0  0  0  0  0  0
  162.3310  205.2070  146.0290 C   0  0  0  0  0  3  0  0  0  0  0  0
  160.4870  202.8600  144.8880 O   0  0  0  0  0  1  0  0  0  0  0  0
  161.4160  202.8840  145.9290 C   0  0  0  0  0  2  0  0  0  0  0  0
  1  4  1  0  0  0  0
  2  4  2  0  0  0  0
  2  5  1  0  0  0  0
  3  7  1  0  0  0  0
  3  6  2  0  0  0  0
  4  8  1  0  0  0  0
  6  2  1  0  0  0  0
  7  1  2  0  0  0  0
  8 11  1  0  0  0  0
  9 10  2  0  0  0  0
  9 11  1  0  0  0  0
 10 13  1  0  0  0  0
 11 14  2  0  0  0  0
 13 16  1  0  0  0  0
 13 12  2  0  0  0  0
 14 12  1  0  0  0  0
 15 16  2  0  0  0  0
 16 17  1  1  0  0  0
 18  7  1  0  0  0  0
 19 23  1  6  0  0  0
 19 18  1  0  0  0  0
 20 19  1  0  0  0  0
 21 20  1  0  0  0  0
 22 25  1  0  0  0  0
 22 23  2  0  0  0  0
 24 25  1  0  0  0  0
M  END
>  <MODEL>
4

>  <REMARK>
 VINA RESULT:      -6.8      3.201      6.031
  Name = 
  8 active torsions:
  status: ('A' for Active; 'I' for Inactive)
    1  A    between atoms: S_2  and  C_20
    2  A    between atoms: N_5  and  C_12
    3  A    between atoms: C_10  and  C_24
    4  A    between atoms: C_12  and  C_23
    5  A    between atoms: C_12  and  C_25
    6  A    between atoms: C_13  and  C_24
    7  A    between atoms: C_15  and  C_19
    8  A    between atoms: C_22  and  C_25
                            x       y       z     vdW  Elec       q    Type
                         _______ _______ _______ _____ _____    ______ ____

>  <TORSDO>
F 8

$$$$
=
 OpenBabel11072411353D

 25 26  0  0  1  0  0  0  0  0999 V2000
  162.0840  207.5460  150.1960 N   0  0  0  0  0  0  0  0  0  0  0  0
  162.0070  209.7800  149.3710 C   0  0  0  0  0  0  0  0  0  0  0  0
  162.2260  209.3860  151.6970 C   0  0  0  0  0  3  0  0  0  0  0  0
  161.9890  208.3960  149.1390 C   0  0  0  0  0  0  0  0  0  0  0  0
  161.9030  210.7060  148.2940 N   0  0  0  0  0  1  0  0  0  0  0  0
  162.1270  210.2400  150.6450 N   0  0  0  0  0  0  0  0  0  0  0  0
  162.2000  208.0090  151.4690 C   0  0  0  0  0  0  0  0  0  0  0  0
  161.8370  207.8410  147.7590 C   0  0  0  0  0  2  0  0  0  0  0  0
  160.8800  205.7700  148.7900 C   0  0  0  0  0  3  0  0  0  0  0  0
  160.7460  204.3790  148.8460 C   0  0  0  0  0  3  0  0  0  0  0  0
  161.6770  206.3590  147.8030 C   0  0  0  0  0  0  0  0  0  0  0  0
  162.2160  204.1630  146.9320 C   0  0  0  0  0  3  0  0  0  0  0  0
  161.4130  203.5740  147.9160 C   0  0  0  0  0  0  0  0  0  0  0  0
  162.3480  205.5540  146.8770 C   0  0  0  0  0  3  0  0  0  0  0  0
  160.6390  201.4360  146.6490 O   0  0  0  0  0  0  0  0  0  0  0  0
  161.2380  201.8100  147.9980 S   0  0  2  0  0  0  0  0  0  0  0  0
  159.9000  201.5440  149.1730 C   0  0  0  0  0  1  0  0  0  0  0  0
  162.3200  207.0550  152.6070 C   0  0  0  0  0  2  0  0  0  0  0  0
  160.9460  206.5660  153.0490 C   0  0  1  0  0  3  0  0  0  0  0  0
  160.6080  205.2790  152.4360 N   0  0  0  0  0  2  0  0  0  0  0  0
  161.7550  204.5990  152.1840 O   0  0  0  0  0  1  0  0  0  0  0  0
  160.6540  207.5570  155.3300 C   0  0  0  0  0  3  0  0  0  0  0  0
  160.8760  206.4920  154.5480 C   0  0  0  0  0  3  0  0  0  0  0  0
  161.5270  209.7560  155.1920 O   0  0  0  0  0  1  0  0  0  0  0  0
  160.4630  208.9440  154.7980 C   0  0  0  0  0  2  0  0  0  0  0  0
  1  7  1  0  0  0  0
  2  6  2  0  0  0  0
  4  2  1  0  0  0  0
  4  1  2  0  0  0  0
  5  2  1  0  0  0  0
  6  3  1  0  0  0  0
  7  3  2  0  0  0  0
  7 18  1  0  0  0  0
  8 11  1  0  0  0  0
  8  4  1  0  0  0  0
  9 10  1  0  0  0  0
 11  9  2  0  0  0  0
 12 13  1  0  0  0  0
 13 16  1  0  0  0  0
 13 10  2  0  0  0  0
 14 12  2  0  0  0  0
 14 11  1  0  0  0  0
 15 16  2  0  0  0  0
 16 17  1  1  0  0  0
 19 18  1  1  0  0  0
 19 23  1  0  0  0  0
 20 19  1  0  0  0  0
 21 20  1  0  0  0  0
 23 22  2  0  0  0  0
 25 24  1  0  0  0  0
 25 22  1  0  0  0  0
M  END
>  <MODEL>
5

>  <REMARK>
 VINA RESULT:      -6.6      2.380      5.135
  Name = 
  8 active torsions:
  status: ('A' for Active; 'I' for Inactive)
    1  A    between atoms: S_2  and  C_20
    2  A    between atoms: N_5  and  C_12
    3  A    between atoms: C_10  and  C_24
    4  A    between atoms: C_12  and  C_23
    5  A    between atoms: C_12  and  C_25
    6  A    between atoms: C_13  and  C_24
    7  A    between atoms: C_15  and  C_19
    8  A    between atoms: C_22  and  C_25
                            x       y       z     vdW  Elec       q    Type
                         _______ _______ _______ _____ _____    ______ ____

>  <TORSDO>
F 8

$$$$
=
 OpenBabel11072411353D

 25 26  0  0  1  0  0  0  0  0999 V2000
  161.4860  208.3260  149.8160 N   0  0  0  0  0  0  0  0  0  0  0  0
  161.3330  208.4040  152.1920 C   0  0  0  0  0  0  0  0  0  0  0  0
  162.0380  210.3200  150.9910 C   0  0  0  0  0  3  0  0  0  0  0  0
  161.1930  207.6990  150.9860 C   0  0  0  0  0  0  0  0  0  0  0  0
  161.0430  207.7840  153.4420 N   0  0  0  0  0  1  0  0  0  0  0  0
  161.7500  209.6970  152.1630 N   0  0  0  0  0  0  0  0  0  0  0  0
  161.9070  209.6190  149.7910 C   0  0  0  0  0  0  0  0  0  0  0  0
  160.7590  206.2690  150.9670 C   0  0  0  0  0  2  0  0  0  0  0  0
  161.3190  204.3540  149.4540 C   0  0  0  0  0  3  0  0  0  0  0  0
  161.4960  203.8140  148.1760 C   0  0  0  0  0  3  0  0  0  0  0  0
  160.9240  205.6880  149.6040 C   0  0  0  0  0  0  0  0  0  0  0  0
  160.8930  205.9460  147.1950 C   0  0  0  0  0  3  0  0  0  0  0  0
  161.2820  204.6090  147.0450 C   0  0  0  0  0  0  0  0  0  0  0  0
  160.7160  206.4840  148.4720 C   0  0  0  0  0  3  0  0  0  0  0  0
  160.5710  204.7200  144.5440 O   0  0  0  0  0  0  0  0  0  0  0  0
  161.5110  203.9130  145.4290 S   0  0  2  0  0  0  0  0  0  0  0  0
  160.7500  202.2850  145.5260 C   0  0  0  0  0  1  0  0  0  0  0  0
  162.2050  210.2870  148.4930 C   0  0  0  0  0  2  0  0  0  0  0  0
  162.1030  211.8020  148.6290 C   0  0  1  0  0  3  0  0  0  0  0  0
  163.2550  212.4750  148.0240 N   0  0  0  0  0  2  0  0  0  0  0  0
  162.9430  212.8170  146.7480 O   0  0  0  0  0  1  0  0  0  0  0  0
  160.0660  213.2560  148.5980 C   0  0  0  0  0  3  0  0  0  0  0  0
  160.8120  212.2930  148.0400 C   0  0  0  0  0  3  0  0  0  0  0  0
  159.7110  213.3860  150.9380 O   0  0  0  0  0  1  0  0  0  0  0  0
  160.4300  213.9420  149.8780 C   0  0  0  0  0  2  0  0  0  0  0  0
  1  4  1  0  0  0  0
  2  5  1  0  0  0  0
  3  6  2  0  0  0  0
  4  2  2  0  0  0  0
  6  2  1  0  0  0  0
  7  1  2  0  0  0  0
  7  3  1  0  0  0  0
  8  4  1  0  0  0  0
  9 11  1  0  0  0  0
 10  9  2  0  0  0  0
 11  8  1  0  0  0  0
 12 14  1  0  0  0  0
 13 12  2  0  0  0  0
 13 10  1  0  0  0  0
 14 11  2  0  0  0  0
 15 16  2  0  0  0  0
 16 17  1  1  0  0  0
 16 13  1  0  0  0  0
 18 19  1  0  0  0  0
 18  7  1  0  0  0  0
 19 23  1  6  0  0  0
 20 19  1  0  0  0  0
 21 20  1  0  0  0  0
 22 25  1  0  0  0  0
 23 22  2  0  0  0  0
 25 24  1  0  0  0  0
M  END
>  <MODEL>
6

>  <REMARK>
 VINA RESULT:      -6.6      2.671      4.105
  Name = 
  8 active torsions:
  status: ('A' for Active; 'I' for Inactive)
    1  A    between atoms: S_2  and  C_20
    2  A    between atoms: N_5  and  C_12
    3  A    between atoms: C_10  and  C_24
    4  A    between atoms: C_12  and  C_23
    5  A    between atoms: C_12  and  C_25
    6  A    between atoms: C_13  and  C_24
    7  A    between atoms: C_15  and  C_19
    8  A    between atoms: C_22  and  C_25
                            x       y       z     vdW  Elec       q    Type
                         _______ _______ _______ _____ _____    ______ ____

>  <TORSDO>
F 8

$$$$
=
 OpenBabel11072411353D

 25 26  0  0  1  0  0  0  0  0999 V2000
  161.3440  203.8640  149.2290 N   0  0  0  0  0  0  0  0  0  0  0  0
  160.4840  201.6570  149.4870 C   0  0  0  0  0  0  0  0  0  0  0  0
  161.2070  202.4010  147.3580 C   0  0  0  0  0  3  0  0  0  0  0  0
  160.8260  202.9020  150.0380 C   0  0  0  0  0  0  0  0  0  0  0  0
  159.9310  200.6230  150.2970 N   0  0  0  0  0  1  0  0  0  0  0  0
  160.6850  201.4380  148.1610 N   0  0  0  0  0  0  0  0  0  0  0  0
  161.5400  203.6430  147.9020 C   0  0  0  0  0  0  0  0  0  0  0  0
  160.6030  203.1990  151.4870 C   0  0  0  0  0  2  0  0  0  0  0  0
  161.2050  205.0580  153.0520 C   0  0  0  0  0  3  0  0  0  0  0  0
  161.4010  206.4160  153.3230 C   0  0  0  0  0  3  0  0  0  0  0  0
  160.8350  204.6450  151.7680 C   0  0  0  0  0  0  0  0  0  0  0  0
  160.8470  206.9510  151.0260 C   0  0  0  0  0  3  0  0  0  0  0  0
  161.2240  207.3640  152.3100 C   0  0  0  0  0  0  0  0  0  0  0  0
  160.6510  205.5940  150.7570 C   0  0  0  0  0  3  0  0  0  0  0  0
  160.0780  209.6860  152.5780 O   0  0  0  0  0  0  0  0  0  0  0  0
  161.4740  209.0840  152.6660 S   0  0  2  0  0  0  0  0  0  0  0  0
  162.3310  209.7250  151.2180 C   0  0  0  0  0  1  0  0  0  0  0  0
  162.1260  204.7090  147.0420 C   0  0  0  0  0  2  0  0  0  0  0  0
  161.6560  206.0870  147.4940 C   0  0  1  0  0  3  0  0  0  0  0  0
  162.7160  207.0890  147.3580 N   0  0  0  0  0  2  0  0  0  0  0  0
  162.6100  207.9800  148.3770 O   0  0  0  0  0  1  0  0  0  0  0  0
  160.2190  206.1980  145.4460 C   0  0  0  0  0  3  0  0  0  0  0  0
  160.4220  206.4910  146.7380 C   0  0  0  0  0  3  0  0  0  0  0  0
  160.6280  204.2640  144.1370 O   0  0  0  0  0  1  0  0  0  0  0  0
  161.2060  205.4450  144.6080 C   0  0  0  0  0  2  0  0  0  0  0  0
  1  4  1  0  0  0  0
  2  4  2  0  0  0  0
  2  5  1  0  0  0  0
  3  7  1  0  0  0  0
  3  6  2  0  0  0  0
  4  8  1  0  0  0  0
  6  2  1  0  0  0  0
  7  1  2  0  0  0  0
  8 11  1  0  0  0  0
  9 10  1  0  0  0  0
 11  9  2  0  0  0  0
 12 13  1  0  0  0  0
 13 16  1  0  0  0  0
 13 10  2  0  0  0  0
 14 12  2  0  0  0  0
 14 11  1  0  0  0  0
 15 16  2  0  0  0  0
 16 17  1  6  0  0  0
 18 19  1  0  0  0  0
 18  7  1  0  0  0  0
 19 23  1  6  0  0  0
 20 19  1  0  0  0  0
 20 21  1  0  0  0  0
 22 23  2  0  0  0  0
 24 25  1  0  0  0  0
 25 22  1  0  0  0  0
M  END
>  <MODEL>
7

>  <REMARK>
 VINA RESULT:      -6.5      3.189      5.497
  Name = 
  8 active torsions:
  status: ('A' for Active; 'I' for Inactive)
    1  A    between atoms: S_2  and  C_20
    2  A    between atoms: N_5  and  C_12
    3  A    between atoms: C_10  and  C_24
    4  A    between atoms: C_12  and  C_23
    5  A    between atoms: C_12  and  C_25
    6  A    between atoms: C_13  and  C_24
    7  A    between atoms: C_15  and  C_19
    8  A    between atoms: C_22  and  C_25
                            x       y       z     vdW  Elec       q    Type
                         _______ _______ _______ _____ _____    ______ ____

>  <TORSDO>
F 8

$$$$
=
 OpenBabel11072411353D

 25 26  0  0  1  0  0  0  0  0999 V2000
  161.2060  207.3040  151.4470 N   0  0  0  0  0  0  0  0  0  0  0  0
  161.9560  209.3450  150.4740 C   0  0  0  0  0  0  0  0  0  0  0  0
  161.7290  209.1710  152.8260 C   0  0  0  0  0  3  0  0  0  0  0  0
  161.5280  208.0160  150.3340 C   0  0  0  0  0  0  0  0  0  0  0  0
  162.2970  210.1300  149.3350 N   0  0  0  0  0  1  0  0  0  0  0  0
  162.0470  209.8880  151.7170 N   0  0  0  0  0  0  0  0  0  0  0  0
  161.2950  207.8510  152.6880 C   0  0  0  0  0  0  0  0  0  0  0  0
  161.3900  207.3810  148.9880 C   0  0  0  0  0  2  0  0  0  0  0  0
  161.4400  205.0670  148.0330 C   0  0  0  0  0  3  0  0  0  0  0  0
  161.2250  203.6900  148.1480 C   0  0  0  0  0  3  0  0  0  0  0  0
  161.1830  205.9100  149.1190 C   0  0  0  0  0  0  0  0  0  0  0  0
  160.4870  203.9980  150.4350 C   0  0  0  0  0  3  0  0  0  0  0  0
  160.7490  203.1540  149.3500 C   0  0  0  0  0  0  0  0  0  0  0  0
  160.7020  205.3740  150.3190 C   0  0  0  0  0  3  0  0  0  0  0  0
  161.4210  200.9710  150.5980 O   0  0  0  0  0  0  0  0  0  0  0  0
  160.4790  201.4050  149.4840 S   0  0  2  0  0  0  0  0  0  0  0  0
  161.2080  200.7200  147.9870 C   0  0  0  0  0  1  0  0  0  0  0  0
  160.9520  207.0420  153.8920 C   0  0  0  0  0  2  0  0  0  0  0  0
  160.4570  207.9380  155.0210 C   0  0  1  0  0  3  0  0  0  0  0  0
  159.3360  207.3280  155.7410 N   0  0  0  0  0  2  0  0  0  0  0  0
  159.8140  206.6880  156.8370 O   0  0  0  0  0  1  0  0  0  0  0  0
  161.7090  209.4600  156.5650 C   0  0  0  0  0  3  0  0  0  0  0  0
  161.5850  208.2750  155.9540 C   0  0  0  0  0  3  0  0  0  0  0  0
  161.2080  211.4550  155.3870 O   0  0  0  0  0  1  0  0  0  0  0  0
  160.7420  210.5890  156.3770 C   0  0  0  0  0  2  0  0  0  0  0  0
  1  7  1  0  0  0  0
  2  6  2  0  0  0  0
  4  2  1  0  0  0  0
  4  1  2  0  0  0  0
  5  2  1  0  0  0  0
  6  3  1  0  0  0  0
  7  3  2  0  0  0  0
  7 18  1  0  0  0  0
  8 11  1  0  0  0  0
  8  4  1  0  0  0  0
  9 10  2  0  0  0  0
  9 11  1  0  0  0  0
 10 13  1  0  0  0  0
 11 14  2  0  0  0  0
 13 16  1  0  0  0  0
 13 12  2  0  0  0  0
 14 12  1  0  0  0  0
 16 17  1  6  0  0  0
 16 15  2  0  0  0  0
 19 18  1  6  0  0  0
 19 20  1  0  0  0  0
 19 23  1  0  0  0  0
 20 21  1  0  0  0  0
 23 22  2  0  0  0  0
 24 25  1  0  0  0  0
 25 22  1  0  0  0  0
M  END
>  <MODEL>
8

>  <REMARK>
 VINA RESULT:      -6.4      2.923      5.477
  Name = 
  8 active torsions:
  status: ('A' for Active; 'I' for Inactive)
    1  A    between atoms: S_2  and  C_20
    2  A    between atoms: N_5  and  C_12
    3  A    between atoms: C_10  and  C_24
    4  A    between atoms: C_12  and  C_23
    5  A    between atoms: C_12  and  C_25
    6  A    between atoms: C_13  and  C_24
    7  A    between atoms: C_15  and  C_19
    8  A    between atoms: C_22  and  C_25
                            x       y       z     vdW  Elec       q    Type
                         _______ _______ _______ _____ _____    ______ ____

>  <TORSDO>
F 8

$$$$
=
 OpenBabel11072411353D

 25 26  0  0  1  0  0  0  0  0999 V2000
  160.4430  211.7430  151.8480 N   0  0  0  0  0  0  0  0  0  0  0  0
  160.0820  210.3790  153.7680 C   0  0  0  0  0  0  0  0  0  0  0  0
  158.5720  212.1340  153.2660 C   0  0  0  0  0  3  0  0  0  0  0  0
  160.8390  210.7050  152.6320 C   0  0  0  0  0  0  0  0  0  0  0  0
  160.4650  209.3040  154.6210 N   0  0  0  0  0  1  0  0  0  0  0  0
  158.9670  211.1010  154.0550 N   0  0  0  0  0  0  0  0  0  0  0  0
  159.3290  212.4650  152.1400 C   0  0  0  0  0  0  0  0  0  0  0  0
  162.0860  209.9550  152.2870 C   0  0  0  0  0  2  0  0  0  0  0  0
  161.9640  209.1940  149.9050 C   0  0  0  0  0  3  0  0  0  0  0  0
  161.6760  208.2200  148.9440 C   0  0  0  0  0  3  0  0  0  0  0  0
  161.8020  208.9080  151.2650 C   0  0  0  0  0  0  0  0  0  0  0  0
  161.0560  206.6720  150.7010 C   0  0  0  0  0  3  0  0  0  0  0  0
  161.2240  206.9570  149.3410 C   0  0  0  0  0  0  0  0  0  0  0  0
  161.3430  207.6470  151.6610 C   0  0  0  0  0  3  0  0  0  0  0  0
  161.1650  204.4100  148.8080 O   0  0  0  0  0  0  0  0  0  0  0  0
  160.8610  205.7290  148.1120 S   0  0  2  0  0  0  0  0  0  0  0  0
  162.1750  205.9080  146.8940 C   0  0  0  0  0  1  0  0  0  0  0  0
  158.9080  213.5870  151.2530 C   0  0  0  0  0  2  0  0  0  0  0  0
  159.3350  213.3260  149.8130 C   0  0  1  0  0  3  0  0  0  0  0  0
  158.2310  213.5450  148.8750 N   0  0  0  0  0  2  0  0  0  0  0  0
  157.1120  212.9580  149.3700 O   0  0  0  0  0  1  0  0  0  0  0  0
  161.5140  213.7570  148.6580 C   0  0  0  0  0  3  0  0  0  0  0  0
  160.5260  214.1720  149.4620 C   0  0  0  0  0  3  0  0  0  0  0  0
  161.0550  212.4640  146.7250 O   0  0  0  0  0  1  0  0  0  0  0  0
  161.5490  212.3980  148.0290 C   0  0  0  0  0  2  0  0  0  0  0  0
  1  7  2  0  0  0  0
  1  4  1  0  0  0  0
  2  6  1  0  0  0  0
  2  5  1  0  0  0  0
  3  6  2  0  0  0  0
  4  2  2  0  0  0  0
  7  3  1  0  0  0  0
  8  4  1  0  0  0  0
  9 11  1  0  0  0  0
 10 13  1  0  0  0  0
 10  9  2  0  0  0  0
 11 14  2  0  0  0  0
 11  8  1  0  0  0  0
 12 14  1  0  0  0  0
 13 12  2  0  0  0  0
 16 17  1  6  0  0  0
 16 15  2  0  0  0  0
 16 13  1  0  0  0  0
 18  7  1  0  0  0  0
 19 23  1  6  0  0  0
 19 18  1  0  0  0  0
 20 21  1  0  0  0  0
 20 19  1  0  0  0  0
 22 23  2  0  0  0  0
 24 25  1  0  0  0  0
 25 22  1  0  0  0  0
M  END
>  <MODEL>
9

>  <REMARK>
 VINA RESULT:      -6.2      3.473      4.930
  Name = 
  8 active torsions:
  status: ('A' for Active; 'I' for Inactive)
    1  A    between atoms: S_2  and  C_20
    2  A    between atoms: N_5  and  C_12
    3  A    between atoms: C_10  and  C_24
    4  A    between atoms: C_12  and  C_23
    5  A    between atoms: C_12  and  C_25
    6  A    between atoms: C_13  and  C_24
    7  A    between atoms: C_15  and  C_19
    8  A    between atoms: C_22  and  C_25
                            x       y       z     vdW  Elec       q    Type
                         _______ _______ _______ _____ _____    ______ ____

>  <TORSDO>
F 8

$$$$
