=
 OpenBabel11072410263D

 51 56  0  0  1  0  0  0  0  0999 V2000
  160.8050  210.9190  152.9820 C   0  0  2  0  0  3  0  0  0  0  0  0
  160.2740  209.5180  153.3350 C   0  0  2  0  0  3  0  0  0  0  0  0
  159.3690  210.4700  155.4950 C   0  0  1  0  0  3  0  0  0  0  0  0
  160.1740  209.3370  154.8510 C   0  0  0  0  0  2  0  0  0  0  0  0
  159.9660  211.9910  153.6850 C   0  0  0  0  0  2  0  0  0  0  0  0
  159.8850  211.8020  155.1410 N   0  0  0  0  0  0  0  0  0  0  0  0
  160.2010  212.5870  151.1730 C   0  0  0  0  0  2  0  0  0  0  0  0
  161.6470  212.8160  149.2160 N   0  0  0  0  0  0  0  0  0  0  0  0
  162.2030  211.0690  150.8380 C   0  0  0  0  0  2  0  0  0  0  0  0
  160.8140  211.2200  151.4770 C   0  0  0  0  0  3  0  0  0  0  0  0
  162.1400  211.4470  149.3590 C   0  0  0  0  0  2  0  0  0  0  0  0
  161.6360  213.0950  147.8920 O   0  0  0  0  0  1  0  0  0  0  0  0
  160.2590  212.8530  149.6700 C   0  0  0  0  0  2  0  0  0  0  0  0
  161.5230  207.3120  153.6560 C   0  0  0  0  0  1  0  0  0  0  0  0
  161.0910  208.4000  152.6790 C   0  0  1  0  0  3  0  0  0  0  0  0
  160.3460  207.8170  151.4880 C   0  0  0  0  0  2  0  0  0  0  0  0
  161.0890  208.0850  150.1820 C   0  0  0  0  0  2  0  0  0  0  0  0
  161.9100  206.8780  149.7460 C   0  0  2  0  0  3  0  0  0  0  0  0
  162.8720  207.2540  148.6320 C   0  0  0  0  0  1  0  0  0  0  0  0
  160.9800  205.7720  149.2770 C   0  0  0  0  0  2  0  0  0  0  0  0
  161.5820  203.0840  151.6820 C   0  0  0  0  0  2  0  0  0  0  0  0
  161.5760  204.4630  151.2330 N   0  0  0  0  0  2  0  0  0  0  0  0
  160.4670  203.3300  149.3940 C   0  0  2  0  0  3  0  0  0  0  0  0
  161.4610  204.4210  149.7830 C   0  0  1  0  0  3  0  0  0  0  0  0
  160.2780  202.1950  150.7970 S   0  0  0  0  0  0  0  0  0  0  0  0
  161.9580  201.4990  148.3990 C   0  0  0  0  0  1  0  0  0  0  0  0
  160.8770  202.5410  148.1380 C   0  0  2  0  0  3  0  0  0  0  0  0
  160.6270  205.5010  145.1760 C   0  0  0  0  0  0  0  0  0  0  0  0
  160.6420  204.0530  144.7770 C   0  0  0  0  0  2  0  0  0  0  0  0
  163.3820  204.6450  146.6660 C   0  0  0  0  0  2  0  0  0  0  0  0
  163.0890  205.5280  145.4550 C   0  0  0  0  0  2  0  0  0  0  0  0
  161.2270  203.4160  146.9330 C   0  0  2  0  0  3  0  0  0  0  0  0
  160.3450  203.1840  145.8510 O   0  0  0  0  0  0  0  0  0  0  0  0
  159.5310  206.1200  145.2230 O   0  0  0  0  0  0  0  0  0  0  0  0
  161.8070  206.1490  145.5500 O   0  0  0  0  0  0  0  0  0  0  0  0
  162.7050  203.2850  146.5610 C   0  0  0  0  0  2  0  0  0  0  0  0
  161.1970  212.0040  155.7520 C   0  0  0  0  0  2  0  0  0  0  0  0
  161.3420  211.0990  156.9640 C   0  0  0  0  0  2  0  0  0  0  0  0
  162.6740  209.1320  157.1610 O   0  0  0  0  0  0  0  0  0  0  0  0
  162.6430  210.3710  156.9240 C   0  0  0  0  0  0  0  0  0  0  0  0
  163.8540  211.0740  156.6570 N   0  0  0  0  0  1  0  0  0  0  0  0
  157.9600  210.3540  155.1320 N   0  0  0  0  0  2  0  0  0  0  0  0
  154.7450  214.0420  156.6210 C   0  0  0  0  0  2  0  0  0  0  0  0
  156.5650  212.0660  156.4520 C   0  0  1  0  0  3  0  0  0  0  0  0
  157.0370  211.4470  155.1750 C   0  0  2  0  0  3  0  0  0  0  0  0
  156.5050  212.0150  154.0970 C   0  0  0  0  0  3  0  0  0  0  0  0
  156.0690  214.4090  156.3080 O   0  0  0  0  0  0  0  0  0  0  0  0
  155.6220  213.0750  154.4410 N   0  0  0  0  0  0  0  0  0  0  0  0
  155.6530  213.1350  155.8860 C   0  0  2  0  0  0  0  0  0  0  0  0
  155.7560  211.0600  157.2580 C   0  0  0  0  0  2  0  0  0  0  0  0
  154.3950  211.2530  157.0200 O   0  0  0  0  0  1  0  0  0  0  0  0
  1 10  1  6  0  0  0
  1  2  1  0  0  0  0
  1  5  1  0  0  0  0
  2 15  1  1  0  0  0
  2  4  1  0  0  0  0
  3 42  1  6  0  0  0
  4  3  1  0  0  0  0
  5  6  1  0  0  0  0
  6  3  1  0  0  0  0
  6 37  1  0  0  0  0
  7 10  1  0  0  0  0
  8 11  1  0  0  0  0
  8 13  1  0  0  0  0
  9 10  1  0  0  0  0
 11  9  1  0  0  0  0
 12  8  1  0  0  0  0
 13  7  1  0  0  0  0
 15 14  1  1  0  0  0
 16 15  1  0  0  0  0
 17 16  1  0  0  0  0
 18 19  1  6  0  0  0
 18 17  1  0  0  0  0
 20 18  1  0  0  0  0
 22 21  1  0  0  0  0
 23 27  1  6  0  0  0
 23 24  1  0  0  0  0
 23 25  1  0  0  0  0
 24 20  1  1  0  0  0
 24 22  1  0  0  0  0
 25 21  1  0  0  0  0
 27 26  1  1  0  0  0
 28 34  2  0  0  0  0
 28 35  1  0  0  0  0
 29 28  1  0  0  0  0
 29 33  1  0  0  0  0
 31 35  1  0  0  0  0
 31 30  1  0  0  0  0
 32 27  1  1  0  0  0
 33 32  1  0  0  0  0
 36 30  1  0  0  0  0
 36 32  1  0  0  0  0
 37 38  1  0  0  0  0
 40 38  1  0  0  0  0
 40 39  2  0  0  0  0
 41 40  1  0  0  0  0
 44 50  1  1  0  0  0
 45 42  1  1  0  0  0
 45 44  1  0  0  0  0
 46 48  2  0  0  0  0
 46 45  1  0  0  0  0
 47 43  1  0  0  0  0
 48 49  1  0  0  0  0
 49 47  1  0  0  0  0
 49 44  1  0  0  0  0
 49 43  1  1  0  0  0
 51 50  1  0  0  0  0
M  END
>  <MODEL>
1

>  <REMARK>
 VINA RESULT:      -3.8      0.000      0.000
  Name = 
  15 active torsions:
  status: ('A' for Active; 'I' for Inactive)
    1  A    between atoms: C_3  and  C_18
    2  A    between atoms: C_4  and  C_31
    3  A    between atoms: C_4  and  C_42
    4  A    between atoms: C_5  and  C_31
    5  A    between atoms: C_5  and  C_47
    6  A    between atoms: C_6  and  C_9
    7  A    between atoms: C_6  and  C_46
    8  A    between atoms: C_9  and  N_50
    9  A    between atoms: C_10  and  C_25
   10  A    between atoms: C_13  and  N_28
   11  A    between atoms: C_14  and  C_47
   12  A    between atoms: C_16  and  C_21
   13  A    between atoms: C_16  and  C_35
   14  A    between atoms: C_24  and  N_28
   15  A    between atoms: C_38  and  C_42
                            x       y       z     vdW  Elec       q    Type
                         _______ _______ _______ _____ _____    ______ ____

>  <TORSDO>
F 15

$$$$
=
 OpenBabel11072410263D

 51 56  0  0  1  0  0  0  0  0999 V2000
  161.5440  210.7070  156.2380 C   0  0  2  0  0  3  0  0  0  0  0  0
  160.9420  209.5940  155.3600 C   0  0  2  0  0  3  0  0  0  0  0  0
  158.9400  211.0820  154.9500 C   0  0  1  0  0  3  0  0  0  0  0  0
  159.4150  209.6790  155.3400 C   0  0  0  0  0  2  0  0  0  0  0  0
  161.0000  212.0710  155.8020 C   0  0  0  0  0  2  0  0  0  0  0  0
  159.5310  212.1330  155.7940 N   0  0  0  0  0  0  0  0  0  0  0  0
  163.5990  211.0850  154.8050 C   0  0  0  0  0  2  0  0  0  0  0  0
  165.5530  212.1910  155.7700 N   0  0  0  0  0  0  0  0  0  0  0  0
  163.6710  211.7100  157.2600 C   0  0  0  0  0  2  0  0  0  0  0  0
  163.0780  210.7640  156.2050 C   0  0  0  0  0  3  0  0  0  0  0  0
  165.1910  211.7590  157.1190 C   0  0  0  0  0  2  0  0  0  0  0  0
  166.9040  212.2340  155.7190 O   0  0  0  0  0  1  0  0  0  0  0  0
  165.1240  211.1590  154.8290 C   0  0  0  0  0  2  0  0  0  0  0  0
  161.3170  207.9280  157.2600 C   0  0  0  0  0  1  0  0  0  0  0  0
  161.4320  208.2000  155.7640 C   0  0  1  0  0  3  0  0  0  0  0  0
  160.7320  207.1250  154.9460 C   0  0  0  0  0  2  0  0  0  0  0  0
  160.4830  207.5910  153.5140 C   0  0  0  0  0  2  0  0  0  0  0  0
  161.0360  206.6000  152.4980 C   0  0  2  0  0  3  0  0  0  0  0  0
  161.5930  205.3700  153.1930 C   0  0  0  0  0  1  0  0  0  0  0  0
  162.1240  207.2690  151.6750 C   0  0  0  0  0  2  0  0  0  0  0  0
  161.8140  209.7040  148.9660 C   0  0  0  0  0  2  0  0  0  0  0  0
  162.0280  209.2940  150.3400 N   0  0  0  0  0  2  0  0  0  0  0  0
  161.9260  207.1600  149.1870 C   0  0  2  0  0  3  0  0  0  0  0  0
  161.5290  207.9310  150.4430 C   0  0  1  0  0  3  0  0  0  0  0  0
  162.3390  208.3530  147.8840 S   0  0  0  0  0  0  0  0  0  0  0  0
  160.1260  205.4450  149.8050 C   0  0  0  0  0  1  0  0  0  0  0  0
  160.8380  206.1950  148.6850 C   0  0  2  0  0  3  0  0  0  0  0  0
  161.1260  202.8040  146.2340 C   0  0  0  0  0  0  0  0  0  0  0  0
  162.2940  203.1980  147.0920 C   0  0  0  0  0  2  0  0  0  0  0  0
  161.4640  205.8530  145.1710 C   0  0  0  0  0  2  0  0  0  0  0  0
  161.7170  204.4940  144.5210 C   0  0  0  0  0  2  0  0  0  0  0  0
  161.3030  205.2410  147.5840 C   0  0  2  0  0  3  0  0  0  0  0  0
  161.9390  204.0980  148.1230 O   0  0  0  0  0  0  0  0  0  0  0  0
  160.3590  201.8820  146.6170 O   0  0  0  0  0  0  0  0  0  0  0  0
  160.8520  203.4870  145.0460 O   0  0  0  0  0  0  0  0  0  0  0  0
  162.1380  205.9710  146.5310 C   0  0  0  0  0  2  0  0  0  0  0  0
  159.0110  212.0270  157.1550 C   0  0  0  0  0  2  0  0  0  0  0  0
  157.5320  211.6810  157.1130 C   0  0  0  0  0  2  0  0  0  0  0  0
  155.5740  212.6690  156.1800 O   0  0  0  0  0  0  0  0  0  0  0  0
  156.7310  212.8500  156.6480 C   0  0  0  0  0  0  0  0  0  0  0  0
  157.2810  214.1640  156.6950 N   0  0  0  0  0  1  0  0  0  0  0  0
  159.2260  211.3360  153.5410 N   0  0  0  0  0  0  0  0  0  0  0  0
  157.5310  214.3050  149.7390 C   0  0  0  0  0  2  0  0  0  0  0  0
  158.7540  212.4680  151.2800 C   0  0  1  0  0  3  0  0  0  0  0  0
  158.5080  212.2830  152.7440 C   0  0  0  0  0  0  0  0  0  0  0  0
  157.5640  213.0910  153.2170 C   0  0  0  0  0  3  0  0  0  0  0  0
  156.8220  213.1190  150.0140 O   0  0  0  0  0  0  0  0  0  0  0  0
  157.0250  213.9250  152.2000 N   0  0  0  0  0  0  0  0  0  0  0  0
  157.7320  213.5510  150.9950 C   0  0  2  0  0  0  0  0  0  0  0  0
  160.1600  213.0010  151.0450 C   0  0  0  0  0  2  0  0  0  0  0  0
  160.1890  214.3750  151.2860 O   0  0  0  0  0  1  0  0  0  0  0  0
  1 10  1  6  0  0  0
  2 15  1  1  0  0  0
  2  1  1  0  0  0  0
  3 42  1  6  0  0  0
  3  4  1  0  0  0  0
  3  6  1  0  0  0  0
  4  2  1  0  0  0  0
  5  1  1  0  0  0  0
  6  5  1  0  0  0  0
  6 37  1  0  0  0  0
  7 13  1  0  0  0  0
  7 10  1  0  0  0  0
  8 11  1  0  0  0  0
 10  9  1  0  0  0  0
 11  9  1  0  0  0  0
 12  8  1  0  0  0  0
 13  8  1  0  0  0  0
 15 14  1  1  0  0  0
 16 15  1  0  0  0  0
 17 16  1  0  0  0  0
 18 19  1  1  0  0  0
 18 17  1  0  0  0  0
 20 18  1  0  0  0  0
 21 22  1  0  0  0  0
 22 24  1  0  0  0  0
 23 27  1  6  0  0  0
 23 24  1  0  0  0  0
 24 20  1  1  0  0  0
 25 21  1  0  0  0  0
 25 23  1  0  0  0  0
 27 26  1  1  0  0  0
 28 34  2  0  0  0  0
 28 29  1  0  0  0  0
 29 33  1  0  0  0  0
 30 36  1  0  0  0  0
 31 35  1  0  0  0  0
 31 30  1  0  0  0  0
 32 33  1  0  0  0  0
 32 27  1  1  0  0  0
 35 28  1  0  0  0  0
 36 32  1  0  0  0  0
 38 37  1  0  0  0  0
 39 40  2  0  0  0  0
 40 41  1  0  0  0  0
 40 38  1  0  0  0  0
 43 47  1  0  0  0  0
 44 50  1  1  0  0  0
 44 45  1  0  0  0  0
 45 46  1  0  0  0  0
 45 42  2  0  0  0  0
 47 49  1  0  0  0  0
 48 46  2  0  0  0  0
 49 43  1  6  0  0  0
 49 44  1  0  0  0  0
 49 48  1  0  0  0  0
 50 51  1  0  0  0  0
M  END
>  <MODEL>
2

>  <REMARK>
 VINA RESULT:      -3.6      2.351      4.954
  Name = 
  15 active torsions:
  status: ('A' for Active; 'I' for Inactive)
    1  A    between atoms: C_3  and  C_18
    2  A    between atoms: C_4  and  C_31
    3  A    between atoms: C_4  and  C_42
    4  A    between atoms: C_5  and  C_31
    5  A    between atoms: C_5  and  C_47
    6  A    between atoms: C_6  and  C_9
    7  A    between atoms: C_6  and  C_46
    8  A    between atoms: C_9  and  N_50
    9  A    between atoms: C_10  and  C_25
   10  A    between atoms: C_13  and  N_28
   11  A    between atoms: C_14  and  C_47
   12  A    between atoms: C_16  and  C_21
   13  A    between atoms: C_16  and  C_35
   14  A    between atoms: C_24  and  N_28
   15  A    between atoms: C_38  and  C_42
                            x       y       z     vdW  Elec       q    Type
                         _______ _______ _______ _____ _____    ______ ____

>  <TORSDO>
F 15

$$$$
=
 OpenBabel11072410263D

 51 56  0  0  1  0  0  0  0  0999 V2000
  160.8620  210.8400  155.3720 C   0  0  2  0  0  3  0  0  0  0  0  0
  160.4890  210.1450  154.0490 C   0  0  2  0  0  3  0  0  0  0  0  0
  158.7200  211.9140  153.6870 C   0  0  1  0  0  3  0  0  0  0  0  0
  159.0280  210.4140  153.6830 C   0  0  0  0  0  2  0  0  0  0  0  0
  160.4980  212.3270  155.3050 C   0  0  0  0  0  2  0  0  0  0  0  0
  159.0900  212.5630  154.9560 N   0  0  0  0  0  0  0  0  0  0  0  0
  163.2500  211.0770  154.5590 C   0  0  0  0  0  2  0  0  0  0  0  0
  164.9710  211.8780  156.0980 N   0  0  0  0  0  0  0  0  0  0  0  0
  162.7240  211.5140  157.0000 C   0  0  0  0  0  2  0  0  0  0  0  0
  162.3480  210.7200  155.7400 C   0  0  0  0  0  3  0  0  0  0  0  0
  164.2250  211.3960  157.2600 C   0  0  0  0  0  2  0  0  0  0  0  0
  166.2850  211.7670  156.4010 O   0  0  0  0  0  1  0  0  0  0  0  0
  164.7140  210.9720  154.9820 C   0  0  0  0  0  2  0  0  0  0  0  0
  160.0510  207.8770  155.1400 C   0  0  0  0  0  1  0  0  0  0  0  0
  160.8090  208.6470  154.0640 C   0  0  1  0  0  3  0  0  0  0  0  0
  160.5950  208.0370  152.6860 C   0  0  0  0  0  2  0  0  0  0  0  0
  161.8790  207.4070  152.1520 C   0  0  0  0  0  2  0  0  0  0  0  0
  162.0500  205.9770  152.6480 C   0  0  2  0  0  3  0  0  0  0  0  0
  163.3780  205.4020  152.1860 C   0  0  0  0  0  1  0  0  0  0  0  0
  160.9060  205.1200  152.1330 C   0  0  0  0  0  2  0  0  0  0  0  0
  161.0900  202.0360  150.1780 C   0  0  0  0  0  2  0  0  0  0  0  0
  161.0170  202.8070  151.4040 N   0  0  0  0  0  2  0  0  0  0  0  0
  160.7710  204.5290  149.7100 C   0  0  2  0  0  3  0  0  0  0  0  0
  161.3970  204.1680  151.0540 C   0  0  1  0  0  3  0  0  0  0  0  0
  160.3070  202.9950  148.8590 S   0  0  0  0  0  0  0  0  0  0  0  0
  161.5150  206.8710  148.9860 C   0  0  0  0  0  1  0  0  0  0  0  0
  161.6920  205.3680  148.8070 C   0  0  2  0  0  3  0  0  0  0  0  0
  161.1880  203.0970  145.3170 C   0  0  0  0  0  0  0  0  0  0  0  0
  162.5500  203.6240  145.6670 C   0  0  0  0  0  2  0  0  0  0  0  0
  160.4090  206.2390  145.5730 C   0  0  0  0  0  2  0  0  0  0  0  0
  160.4970  205.2860  144.3820 C   0  0  0  0  0  2  0  0  0  0  0  0
  161.6510  204.9750  147.3290 C   0  0  2  0  0  3  0  0  0  0  0  0
  162.6530  204.0250  147.0180 O   0  0  0  0  0  0  0  0  0  0  0  0
  160.9020  201.8980  145.5740 O   0  0  0  0  0  0  0  0  0  0  0  0
  160.2200  203.9380  144.7610 O   0  0  0  0  0  0  0  0  0  0  0  0
  161.6710  206.2090  146.4250 C   0  0  0  0  0  2  0  0  0  0  0  0
  158.2160  212.0910  156.0270 C   0  0  0  0  0  2  0  0  0  0  0  0
  156.9270  212.8960  156.0290 C   0  0  0  0  0  2  0  0  0  0  0  0
  154.7060  212.2420  155.4600 O   0  0  0  0  0  0  0  0  0  0  0  0
  155.7430  211.9940  156.1330 C   0  0  0  0  0  0  0  0  0  0  0  0
  155.7650  210.8770  157.0180 N   0  0  0  0  0  1  0  0  0  0  0  0
  159.3870  212.5680  152.5650 N   0  0  0  0  0  2  0  0  0  0  0  0
  157.9820  214.4520  148.0240 C   0  0  0  0  0  2  0  0  0  0  0  0
  159.1700  213.1780  150.0750 C   0  0  1  0  0  3  0  0  0  0  0  0
  158.6900  213.2080  151.4910 C   0  0  2  0  0  3  0  0  0  0  0  0
  157.5600  213.8930  151.6410 C   0  0  0  0  0  3  0  0  0  0  0  0
  157.4280  213.2210  148.4250 O   0  0  0  0  0  0  0  0  0  0  0  0
  157.0950  214.4190  150.4050 N   0  0  0  0  0  0  0  0  0  0  0  0
  158.0630  213.9810  149.4230 C   0  0  2  0  0  0  0  0  0  0  0  0
  160.4940  213.9160  149.9520 C   0  0  0  0  0  2  0  0  0  0  0  0
  161.0450  213.6880  148.6900 O   0  0  0  0  0  1  0  0  0  0  0  0
  1 10  1  6  0  0  0
  2 15  1  1  0  0  0
  2  1  1  0  0  0  0
  3 42  1  6  0  0  0
  3  6  1  0  0  0  0
  4  3  1  0  0  0  0
  4  2  1  0  0  0  0
  5  1  1  0  0  0  0
  6  5  1  0  0  0  0
  6 37  1  0  0  0  0
  7 13  1  0  0  0  0
  7 10  1  0  0  0  0
  8 12  1  0  0  0  0
  8 11  1  0  0  0  0
  9 11  1  0  0  0  0
 10  9  1  0  0  0  0
 13  8  1  0  0  0  0
 15 14  1  1  0  0  0
 16 15  1  0  0  0  0
 17 18  1  0  0  0  0
 17 16  1  0  0  0  0
 18 19  1  6  0  0  0
 20 18  1  0  0  0  0
 21 22  1  0  0  0  0
 23 27  1  6  0  0  0
 23 24  1  0  0  0  0
 24 22  1  0  0  0  0
 24 20  1  1  0  0  0
 25 23  1  0  0  0  0
 25 21  1  0  0  0  0
 27 26  1  6  0  0  0
 28 34  2  0  0  0  0
 28 29  1  0  0  0  0
 29 33  1  0  0  0  0
 30 36  1  0  0  0  0
 31 35  1  0  0  0  0
 31 30  1  0  0  0  0
 32 27  1  1  0  0  0
 33 32  1  0  0  0  0
 35 28  1  0  0  0  0
 36 32  1  0  0  0  0
 37 38  1  0  0  0  0
 38 40  1  0  0  0  0
 39 40  2  0  0  0  0
 40 41  1  0  0  0  0
 43 47  1  0  0  0  0
 44 50  1  1  0  0  0
 44 45  1  0  0  0  0
 45 46  1  0  0  0  0
 45 42  1  1  0  0  0
 47 49  1  0  0  0  0
 48 46  2  0  0  0  0
 49 43  1  6  0  0  0
 49 44  1  0  0  0  0
 49 48  1  0  0  0  0
 51 50  1  0  0  0  0
M  END
>  <MODEL>
3

>  <REMARK>
 VINA RESULT:      -3.5      2.005      5.039
  Name = 
  15 active torsions:
  status: ('A' for Active; 'I' for Inactive)
    1  A    between atoms: C_3  and  C_18
    2  A    between atoms: C_4  and  C_31
    3  A    between atoms: C_4  and  C_42
    4  A    between atoms: C_5  and  C_31
    5  A    between atoms: C_5  and  C_47
    6  A    between atoms: C_6  and  C_9
    7  A    between atoms: C_6  and  C_46
    8  A    between atoms: C_9  and  N_50
    9  A    between atoms: C_10  and  C_25
   10  A    between atoms: C_13  and  N_28
   11  A    between atoms: C_14  and  C_47
   12  A    between atoms: C_16  and  C_21
   13  A    between atoms: C_16  and  C_35
   14  A    between atoms: C_24  and  N_28
   15  A    between atoms: C_38  and  C_42
                            x       y       z     vdW  Elec       q    Type
                         _______ _______ _______ _____ _____    ______ ____

>  <TORSDO>
F 15

$$$$
=
 OpenBabel11072410263D

 51 56  0  0  1  0  0  0  0  0999 V2000
  160.7990  210.3500  154.7960 C   0  0  2  0  0  3  0  0  0  0  0  0
  160.7470  210.2440  153.2610 C   0  0  2  0  0  3  0  0  0  0  0  0
  158.5970  211.5720  153.3020 C   0  0  1  0  0  3  0  0  0  0  0  0
  159.3050  210.3290  152.7560 C   0  0  0  0  0  2  0  0  0  0  0  0
  160.0480  211.6010  155.2620 C   0  0  0  0  0  2  0  0  0  0  0  0
  158.6630  211.6620  154.7700 N   0  0  0  0  0  0  0  0  0  0  0  0
  163.1820  211.1290  154.4270 C   0  0  0  0  0  2  0  0  0  0  0  0
  164.5170  211.8680  156.3360 N   0  0  0  0  0  0  0  0  0  0  0  0
  162.2840  210.9730  156.7920 C   0  0  0  0  0  2  0  0  0  0  0  0
  162.2240  210.3990  155.3680 C   0  0  0  0  0  3  0  0  0  0  0  0
  163.7370  211.0480  157.2610 C   0  0  0  0  0  2  0  0  0  0  0  0
  165.7800  211.9120  156.8170 O   0  0  0  0  0  1  0  0  0  0  0  0
  164.5750  211.1770  155.0500 C   0  0  0  0  0  2  0  0  0  0  0  0
  160.8580  207.6920  153.2420 C   0  0  0  0  0  1  0  0  0  0  0  0
  161.4640  208.9960  152.7360 C   0  0  1  0  0  3  0  0  0  0  0  0
  161.5450  209.0210  151.2170 C   0  0  0  0  0  2  0  0  0  0  0  0
  162.1280  207.7210  150.6690 C   0  0  0  0  0  2  0  0  0  0  0  0
  161.2640  207.1440  149.5560 C   0  0  2  0  0  3  0  0  0  0  0  0
  160.6760  205.8050  149.9690 C   0  0  0  0  0  1  0  0  0  0  0  0
  162.0990  206.9780  148.2970 C   0  0  0  0  0  2  0  0  0  0  0  0
  160.0010  205.8980  145.5040 C   0  0  0  0  0  2  0  0  0  0  0  0
  160.3010  206.6690  146.6950 N   0  0  0  0  0  2  0  0  0  0  0  0
  162.4180  205.5600  146.2650 C   0  0  2  0  0  3  0  0  0  0  0  0
  161.4280  206.0080  147.3370 C   0  0  1  0  0  3  0  0  0  0  0  0
  161.5590  205.5190  144.6670 S   0  0  0  0  0  0  0  0  0  0  0  0
  164.0070  203.7220  145.4540 C   0  0  0  0  0  1  0  0  0  0  0  0
  163.0560  204.1900  146.5490 C   0  0  2  0  0  3  0  0  0  0  0  0
  161.0020  200.5340  146.5780 C   0  0  0  0  0  0  0  0  0  0  0  0
  160.2680  201.7920  146.2140 C   0  0  0  0  0  2  0  0  0  0  0  0
  161.6950  202.2530  149.2430 C   0  0  0  0  0  2  0  0  0  0  0  0
  160.8120  201.0320  148.9980 C   0  0  0  0  0  2  0  0  0  0  0  0
  162.0560  203.0950  146.9230 C   0  0  2  0  0  3  0  0  0  0  0  0
  161.1350  202.8560  145.8750 O   0  0  0  0  0  0  0  0  0  0  0  0
  161.4020  199.7630  145.6660 O   0  0  0  0  0  0  0  0  0  0  0  0
  161.2930  200.2390  147.9130 O   0  0  0  0  0  0  0  0  0  0  0  0
  161.3930  203.3840  148.2700 C   0  0  0  0  0  2  0  0  0  0  0  0
  157.8650  210.5950  155.3680 C   0  0  0  0  0  2  0  0  0  0  0  0
  156.4170  211.0430  155.4850 C   0  0  0  0  0  2  0  0  0  0  0  0
  156.7120  212.6910  157.1820 O   0  0  0  0  0  0  0  0  0  0  0  0
  156.3390  212.4400  156.0040 C   0  0  0  0  0  0  0  0  0  0  0  0
  155.8090  213.4810  155.1890 N   0  0  0  0  0  1  0  0  0  0  0  0
  159.1510  212.7760  152.6900 N   0  0  0  0  0  2  0  0  0  0  0  0
  158.6210  214.3900  147.8660 C   0  0  0  0  0  2  0  0  0  0  0  0
  159.4100  213.2540  150.1750 C   0  0  1  0  0  3  0  0  0  0  0  0
  158.6650  213.3420  151.4680 C   0  0  2  0  0  3  0  0  0  0  0  0
  157.5150  214.0020  151.3590 C   0  0  0  0  0  3  0  0  0  0  0  0
  158.0220  213.1650  148.2200 O   0  0  0  0  0  0  0  0  0  0  0  0
  157.2890  214.4520  150.0300 N   0  0  0  0  0  0  0  0  0  0  0  0
  158.4370  213.9920  149.2790 C   0  0  2  0  0  0  0  0  0  0  0  0
  160.7200  214.0230  150.2690 C   0  0  0  0  0  2  0  0  0  0  0  0
  161.5850  213.6060  149.2560 O   0  0  0  0  0  1  0  0  0  0  0  0
  1  5  1  0  0  0  0
  1 10  1  6  0  0  0
  2 15  1  1  0  0  0
  2  1  1  0  0  0  0
  3 42  1  6  0  0  0
  3  6  1  0  0  0  0
  4  2  1  0  0  0  0
  4  3  1  0  0  0  0
  6  5  1  0  0  0  0
  6 37  1  0  0  0  0
  7 13  1  0  0  0  0
  7 10  1  0  0  0  0
  8 12  1  0  0  0  0
  8 11  1  0  0  0  0
  9 11  1  0  0  0  0
 10  9  1  0  0  0  0
 13  8  1  0  0  0  0
 15 14  1  6  0  0  0
 16 15  1  0  0  0  0
 17 16  1  0  0  0  0
 18 19  1  1  0  0  0
 18 17  1  0  0  0  0
 20 18  1  0  0  0  0
 21 22  1  0  0  0  0
 22 24  1  0  0  0  0
 23 27  1  1  0  0  0
 23 24  1  0  0  0  0
 24 20  1  1  0  0  0
 25 21  1  0  0  0  0
 25 23  1  0  0  0  0
 27 26  1  6  0  0  0
 28 35  1  0  0  0  0
 29 28  1  0  0  0  0
 31 30  1  0  0  0  0
 32 27  1  6  0  0  0
 32 36  1  0  0  0  0
 33 29  1  0  0  0  0
 33 32  1  0  0  0  0
 34 28  2  0  0  0  0
 35 31  1  0  0  0  0
 36 30  1  0  0  0  0
 37 38  1  0  0  0  0
 38 40  1  0  0  0  0
 40 39  2  0  0  0  0
 41 40  1  0  0  0  0
 43 47  1  0  0  0  0
 44 50  1  1  0  0  0
 44 45  1  0  0  0  0
 45 42  1  1  0  0  0
 46 45  1  0  0  0  0
 47 49  1  0  0  0  0
 48 46  2  0  0  0  0
 49 43  1  6  0  0  0
 49 48  1  0  0  0  0
 49 44  1  0  0  0  0
 51 50  1  0  0  0  0
M  END
>  <MODEL>
4

>  <REMARK>
 VINA RESULT:      -3.4      2.269      5.398
  Name = 
  15 active torsions:
  status: ('A' for Active; 'I' for Inactive)
    1  A    between atoms: C_3  and  C_18
    2  A    between atoms: C_4  and  C_31
    3  A    between atoms: C_4  and  C_42
    4  A    between atoms: C_5  and  C_31
    5  A    between atoms: C_5  and  C_47
    6  A    between atoms: C_6  and  C_9
    7  A    between atoms: C_6  and  C_46
    8  A    between atoms: C_9  and  N_50
    9  A    between atoms: C_10  and  C_25
   10  A    between atoms: C_13  and  N_28
   11  A    between atoms: C_14  and  C_47
   12  A    between atoms: C_16  and  C_21
   13  A    between atoms: C_16  and  C_35
   14  A    between atoms: C_24  and  N_28
   15  A    between atoms: C_38  and  C_42
                            x       y       z     vdW  Elec       q    Type
                         _______ _______ _______ _____ _____    ______ ____

>  <TORSDO>
F 15

$$$$
=
 OpenBabel11072410263D

 51 56  0  0  1  0  0  0  0  0999 V2000
  160.8020  210.6150  155.3970 C   0  0  2  0  0  3  0  0  0  0  0  0
  160.5130  210.3190  153.9140 C   0  0  2  0  0  3  0  0  0  0  0  0
  158.5220  211.8690  154.0550 C   0  0  1  0  0  3  0  0  0  0  0  0
  159.0260  210.4960  153.6010 C   0  0  0  0  0  2  0  0  0  0  0  0
  160.2440  211.9900  155.7770 C   0  0  0  0  0  2  0  0  0  0  0  0
  158.8140  212.1380  155.4730 N   0  0  0  0  0  0  0  0  0  0  0  0
  163.1700  210.9730  154.5690 C   0  0  0  0  0  2  0  0  0  0  0  0
  164.8520  211.8830  156.0900 N   0  0  0  0  0  0  0  0  0  0  0  0
  162.6330  211.4070  157.0080 C   0  0  0  0  0  2  0  0  0  0  0  0
  162.2940  210.5800  155.7590 C   0  0  0  0  0  3  0  0  0  0  0  0
  164.1400  211.3740  157.2610 C   0  0  0  0  0  2  0  0  0  0  0  0
  166.1720  211.8470  156.3860 O   0  0  0  0  0  1  0  0  0  0  0  0
  164.6390  210.9520  154.9850 C   0  0  0  0  0  2  0  0  0  0  0  0
  160.8290  207.8610  154.5360 C   0  0  0  0  0  1  0  0  0  0  0  0
  161.0280  208.9430  153.4800 C   0  0  1  0  0  3  0  0  0  0  0  0
  160.4220  208.5380  152.1440 C   0  0  0  0  0  2  0  0  0  0  0  0
  161.3990  207.7010  151.3220 C   0  0  0  0  0  2  0  0  0  0  0  0
  161.2700  206.2170  151.6380 C   0  0  2  0  0  3  0  0  0  0  0  0
  162.6120  205.6350  152.0480 C   0  0  0  0  0  1  0  0  0  0  0  0
  160.7360  205.4810  150.4210 C   0  0  0  0  0  2  0  0  0  0  0  0
  161.5020  202.1670  151.7600 C   0  0  0  0  0  2  0  0  0  0  0  0
  161.4940  203.6170  151.7770 N   0  0  0  0  0  2  0  0  0  0  0  0
  160.1560  203.1290  149.8110 C   0  0  2  0  0  3  0  0  0  0  0  0
  161.2220  204.0410  150.4120 C   0  0  1  0  0  3  0  0  0  0  0  0
  160.0810  201.6050  150.7920 S   0  0  0  0  0  0  0  0  0  0  0  0
  161.2070  201.5070  148.1290 C   0  0  0  0  0  1  0  0  0  0  0  0
  160.4010  202.7850  148.3320 C   0  0  2  0  0  3  0  0  0  0  0  0
  162.3870  206.3360  147.3120 C   0  0  0  0  0  0  0  0  0  0  0  0
  160.9080  206.2220  147.0790 C   0  0  0  0  0  2  0  0  0  0  0  0
  162.4170  203.6460  145.4930 C   0  0  0  0  0  2  0  0  0  0  0  0
  162.8870  205.0760  145.2370 C   0  0  0  0  0  2  0  0  0  0  0  0
  160.9690  203.9390  147.5040 C   0  0  2  0  0  3  0  0  0  0  0  0
  160.3180  205.1590  147.8010 O   0  0  0  0  0  0  0  0  0  0  0  0
  162.8100  206.9460  148.3290 O   0  0  0  0  0  0  0  0  0  0  0  0
  163.2940  205.7240  146.4420 O   0  0  0  0  0  0  0  0  0  0  0  0
  160.9870  203.5980  146.0130 C   0  0  0  0  0  2  0  0  0  0  0  0
  158.0200  211.2510  156.3190 C   0  0  0  0  0  2  0  0  0  0  0  0
  157.1580  212.0770  157.2600 C   0  0  0  0  0  2  0  0  0  0  0  0
  154.9120  211.3590  156.9130 O   0  0  0  0  0  0  0  0  0  0  0  0
  155.7840  212.2450  156.7040 C   0  0  0  0  0  0  0  0  0  0  0  0
  155.4650  213.3830  155.9070 N   0  0  0  0  0  1  0  0  0  0  0  0
  159.0850  212.9160  153.2080 N   0  0  0  0  0  2  0  0  0  0  0  0
  157.9570  214.1360  148.3720 C   0  0  0  0  0  2  0  0  0  0  0  0
  159.0150  213.1650  150.6490 C   0  0  1  0  0  3  0  0  0  0  0  0
  158.4560  213.3980  152.0160 C   0  0  2  0  0  3  0  0  0  0  0  0
  157.3260  214.0990  152.0020 C   0  0  0  0  0  3  0  0  0  0  0  0
  157.3700  212.9750  148.9120 O   0  0  0  0  0  0  0  0  0  0  0  0
  156.9370  214.4440  150.6790 N   0  0  0  0  0  0  0  0  0  0  0  0
  157.9540  213.8690  149.8260 C   0  0  2  0  0  0  0  0  0  0  0  0
  160.3520  213.8760  150.4970 C   0  0  0  0  0  2  0  0  0  0  0  0
  161.3510  212.9450  150.2150 O   0  0  0  0  0  1  0  0  0  0  0  0
  1 10  1  6  0  0  0
  1  5  1  0  0  0  0
  2 15  1  1  0  0  0
  2  1  1  0  0  0  0
  3 42  1  6  0  0  0
  3  6  1  0  0  0  0
  4  2  1  0  0  0  0
  4  3  1  0  0  0  0
  6  5  1  0  0  0  0
  6 37  1  0  0  0  0
  7 13  1  0  0  0  0
  7 10  1  0  0  0  0
  8 12  1  0  0  0  0
  8 11  1  0  0  0  0
  9 11  1  0  0  0  0
 10  9  1  0  0  0  0
 13  8  1  0  0  0  0
 15 14  1  1  0  0  0
 16 15  1  0  0  0  0
 17 18  1  0  0  0  0
 17 16  1  0  0  0  0
 18 19  1  6  0  0  0
 20 18  1  0  0  0  0
 21 22  1  0  0  0  0
 23 27  1  6  0  0  0
 23 24  1  0  0  0  0
 23 25  1  0  0  0  0
 24 20  1  1  0  0  0
 24 22  1  0  0  0  0
 25 21  1  0  0  0  0
 27 26  1  1  0  0  0
 28 34  2  0  0  0  0
 29 28  1  0  0  0  0
 29 33  1  0  0  0  0
 30 36  1  0  0  0  0
 31 30  1  0  0  0  0
 31 35  1  0  0  0  0
 32 33  1  0  0  0  0
 32 27  1  1  0  0  0
 35 28  1  0  0  0  0
 36 32  1  0  0  0  0
 37 38  1  0  0  0  0
 40 39  2  0  0  0  0
 40 38  1  0  0  0  0
 41 40  1  0  0  0  0
 43 47  1  0  0  0  0
 44 50  1  1  0  0  0
 44 45  1  0  0  0  0
 45 42  1  1  0  0  0
 46 45  1  0  0  0  0
 47 49  1  0  0  0  0
 48 46  2  0  0  0  0
 49 43  1  6  0  0  0
 49 44  1  0  0  0  0
 49 48  1  0  0  0  0
 51 50  1  0  0  0  0
M  END
>  <MODEL>
5

>  <REMARK>
 VINA RESULT:      -2.1      1.932      4.708
  Name = 
  15 active torsions:
  status: ('A' for Active; 'I' for Inactive)
    1  A    between atoms: C_3  and  C_18
    2  A    between atoms: C_4  and  C_31
    3  A    between atoms: C_4  and  C_42
    4  A    between atoms: C_5  and  C_31
    5  A    between atoms: C_5  and  C_47
    6  A    between atoms: C_6  and  C_9
    7  A    between atoms: C_6  and  C_46
    8  A    between atoms: C_9  and  N_50
    9  A    between atoms: C_10  and  C_25
   10  A    between atoms: C_13  and  N_28
   11  A    between atoms: C_14  and  C_47
   12  A    between atoms: C_16  and  C_21
   13  A    between atoms: C_16  and  C_35
   14  A    between atoms: C_24  and  N_28
   15  A    between atoms: C_38  and  C_42
                            x       y       z     vdW  Elec       q    Type
                         _______ _______ _______ _____ _____    ______ ____

>  <TORSDO>
F 15

$$$$
=
 OpenBabel11072410263D

 51 56  0  0  1  0  0  0  0  0999 V2000
  161.3680  210.0550  153.7950 C   0  0  2  0  0  3  0  0  0  0  0  0
  160.5310  208.8580  154.2830 C   0  0  2  0  0  3  0  0  0  0  0  0
  160.8970  209.6450  156.6570 C   0  0  1  0  0  3  0  0  0  0  0  0
  160.9360  208.4500  155.7010 C   0  0  0  0  0  2  0  0  0  0  0  0
  161.2990  211.1950  154.8170 C   0  0  0  0  0  2  0  0  0  0  0  0
  161.6950  210.7830  156.1710 N   0  0  0  0  0  0  0  0  0  0  0  0
  160.2060  211.9400  152.5630 C   0  0  0  0  0  2  0  0  0  0  0  0
  161.0200  212.6210  150.3620 N   0  0  0  0  0  0  0  0  0  0  0  0
  162.0850  210.6840  151.4150 C   0  0  0  0  0  2  0  0  0  0  0  0
  160.9330  210.6020  152.4280 C   0  0  0  0  0  3  0  0  0  0  0  0
  161.5850  211.2970  150.1070 C   0  0  0  0  0  2  0  0  0  0  0  0
  160.6180  213.1130  149.1680 O   0  0  0  0  0  1  0  0  0  0  0  0
  159.8200  212.4560  151.1790 C   0  0  0  0  0  2  0  0  0  0  0  0
  161.0490  208.0590  151.9120 C   0  0  0  0  0  1  0  0  0  0  0  0
  160.5810  207.6740  153.3110 C   0  0  1  0  0  3  0  0  0  0  0  0
  161.4160  206.5400  153.8870 C   0  0  0  0  0  2  0  0  0  0  0  0
  162.2010  205.8180  152.7950 C   0  0  0  0  0  2  0  0  0  0  0  0
  161.2840  205.0200  151.8780 C   0  0  2  0  0  3  0  0  0  0  0  0
  160.7900  203.7620  152.5720 C   0  0  0  0  0  1  0  0  0  0  0  0
  162.0280  204.6530  150.6060 C   0  0  0  0  0  2  0  0  0  0  0  0
  159.7090  206.6070  148.5640 C   0  0  0  0  0  2  0  0  0  0  0  0
  160.1460  205.9420  149.7760 N   0  0  0  0  0  2  0  0  0  0  0  0
  162.0960  205.7180  148.3470 C   0  0  2  0  0  3  0  0  0  0  0  0
  161.2090  205.0300  149.3820 C   0  0  1  0  0  3  0  0  0  0  0  0
  161.1770  207.1110  147.6340 S   0  0  0  0  0  0  0  0  0  0  0  0
  162.6490  205.4540  145.8600 C   0  0  0  0  0  1  0  0  0  0  0  0
  162.5760  204.7820  147.2260 C   0  0  2  0  0  3  0  0  0  0  0  0
  160.0910  201.5660  148.2610 C   0  0  0  0  0  0  0  0  0  0  0  0
  161.5610  201.3320  148.0650 C   0  0  0  0  0  2  0  0  0  0  0  0
  160.3490  202.7740  145.2580 C   0  0  0  0  0  2  0  0  0  0  0  0
  159.6800  201.5200  145.8170 C   0  0  0  0  0  2  0  0  0  0  0  0
  161.8250  203.4520  147.1520 C   0  0  2  0  0  3  0  0  0  0  0  0
  162.3170  202.5260  148.1020 O   0  0  0  0  0  0  0  0  0  0  0  0
  159.6310  201.6850  149.4270 O   0  0  0  0  0  0  0  0  0  0  0  0
  159.2390  201.7100  147.1620 O   0  0  0  0  0  0  0  0  0  0  0  0
  161.7930  202.9090  145.7230 C   0  0  0  0  0  2  0  0  0  0  0  0
  163.1150  210.4420  156.2030 C   0  0  0  0  0  2  0  0  0  0  0  0
  163.8540  211.4080  157.1130 C   0  0  0  0  0  2  0  0  0  0  0  0
  166.0000  212.4420  157.2060 O   0  0  0  0  0  0  0  0  0  0  0  0
  165.1670  211.7920  156.5180 C   0  0  0  0  0  0  0  0  0  0  0  0
  165.4670  211.4630  155.1640 N   0  0  0  0  0  1  0  0  0  0  0  0
  159.5160  210.0540  156.8950 N   0  0  0  0  0  2  0  0  0  0  0  0
  156.8130  214.2780  155.8950 C   0  0  0  0  0  2  0  0  0  0  0  0
  157.7040  211.7640  156.2520 C   0  0  1  0  0  3  0  0  0  0  0  0
  159.0570  211.4040  156.7800 C   0  0  0  0  0  0  0  0  0  0  0  0
  159.7790  212.4680  157.1210 C   0  0  0  0  0  3  0  0  0  0  0  0
  156.7530  213.7520  157.2000 O   0  0  0  0  0  0  0  0  0  0  0  0
  159.0700  213.6800  156.8970 N   0  0  0  0  0  2  0  0  0  0  0  0
  157.7850  213.2720  156.3750 C   0  0  2  0  0  0  0  0  0  0  0  0
  157.5870  211.3640  154.7880 C   0  0  0  0  0  2  0  0  0  0  0  0
  156.6920  210.3010  154.6610 O   0  0  0  0  0  1  0  0  0  0  0  0
  1 10  1  6  0  0  0
  1  2  1  0  0  0  0
  1  5  1  0  0  0  0
  2 15  1  6  0  0  0
  2  4  1  0  0  0  0
  3 42  1  6  0  0  0
  4  3  1  0  0  0  0
  5  6  1  0  0  0  0
  6 37  1  0  0  0  0
  6  3  1  0  0  0  0
  8 13  1  0  0  0  0
  9 10  1  0  0  0  0
 10  7  1  0  0  0  0
 11  8  1  0  0  0  0
 11  9  1  0  0  0  0
 12  8  1  0  0  0  0
 13  7  1  0  0  0  0
 15 14  1  6  0  0  0
 15 16  1  0  0  0  0
 17 16  1  0  0  0  0
 18 19  1  1  0  0  0
 18 17  1  0  0  0  0
 20 18  1  0  0  0  0
 21 22  1  0  0  0  0
 23 27  1  6  0  0  0
 23 24  1  0  0  0  0
 24 22  1  0  0  0  0
 24 20  1  1  0  0  0
 25 23  1  0  0  0  0
 25 21  1  0  0  0  0
 27 26  1  6  0  0  0
 28 34  2  0  0  0  0
 29 33  1  0  0  0  0
 29 28  1  0  0  0  0
 30 36  1  0  0  0  0
 30 31  1  0  0  0  0
 31 35  1  0  0  0  0
 32 27  1  6  0  0  0
 32 33  1  0  0  0  0
 35 28  1  0  0  0  0
 36 32  1  0  0  0  0
 37 38  1  0  0  0  0
 40 38  1  0  0  0  0
 40 39  2  0  0  0  0
 41 40  1  0  0  0  0
 43 47  1  0  0  0  0
 44 50  1  6  0  0  0
 44 49  1  0  0  0  0
 44 45  1  0  0  0  0
 45 42  1  0  0  0  0
 45 46  2  0  0  0  0
 48 46  1  0  0  0  0
 49 43  1  6  0  0  0
 49 48  1  0  0  0  0
 49 47  1  0  0  0  0
 51 50  1  0  0  0  0
M  END
>  <MODEL>
6

>  <REMARK>
 VINA RESULT:      -1.7      2.107      3.156
  Name = 
  15 active torsions:
  status: ('A' for Active; 'I' for Inactive)
    1  A    between atoms: C_3  and  C_18
    2  A    between atoms: C_4  and  C_31
    3  A    between atoms: C_4  and  C_42
    4  A    between atoms: C_5  and  C_31
    5  A    between atoms: C_5  and  C_47
    6  A    between atoms: C_6  and  C_9
    7  A    between atoms: C_6  and  C_46
    8  A    between atoms: C_9  and  N_50
    9  A    between atoms: C_10  and  C_25
   10  A    between atoms: C_13  and  N_28
   11  A    between atoms: C_14  and  C_47
   12  A    between atoms: C_16  and  C_21
   13  A    between atoms: C_16  and  C_35
   14  A    between atoms: C_24  and  N_28
   15  A    between atoms: C_38  and  C_42
                            x       y       z     vdW  Elec       q    Type
                         _______ _______ _______ _____ _____    ______ ____

>  <TORSDO>
F 15

$$$$
=
 OpenBabel11072410263D

 51 56  0  0  1  0  0  0  0  0999 V2000
  160.9600  208.7930  153.9230 C   0  0  2  0  0  3  0  0  0  0  0  0
  161.7710  209.8670  153.1760 C   0  0  2  0  0  3  0  0  0  0  0  0
  162.2960  210.9360  155.4050 C   0  0  1  0  0  3  0  0  0  0  0  0
  161.8120  211.1730  153.9720 C   0  0  0  0  0  2  0  0  0  0  0  0
  161.4870  208.6360  155.3530 C   0  0  0  0  0  2  0  0  0  0  0  0
  161.5140  209.9010  156.1020 N   0  0  0  0  0  0  0  0  0  0  0  0
  162.3620  207.0850  152.6820 C   0  0  0  0  0  2  0  0  0  0  0  0
  161.9580  204.7030  153.0450 N   0  0  0  0  0  0  0  0  0  0  0  0
  160.4550  206.2890  154.1490 C   0  0  0  0  0  2  0  0  0  0  0  0
  160.9800  207.4150  153.2460 C   0  0  0  0  0  3  0  0  0  0  0  0
  160.5680  204.9470  153.4270 C   0  0  0  0  0  2  0  0  0  0  0  0
  161.9920  203.4970  152.4340 O   0  0  0  0  0  1  0  0  0  0  0  0
  162.3390  205.6980  152.0460 C   0  0  0  0  0  2  0  0  0  0  0  0
  160.7910  211.5080  151.4810 C   0  0  0  0  0  1  0  0  0  0  0  0
  161.2740  210.0860  151.7440 C   0  0  1  0  0  3  0  0  0  0  0  0
  162.3300  209.6590  150.7360 C   0  0  0  0  0  2  0  0  0  0  0  0
  161.7870  209.7000  149.3100 C   0  0  0  0  0  2  0  0  0  0  0  0
  161.2040  208.3560  148.8930 C   0  0  2  0  0  3  0  0  0  0  0  0
  160.9360  207.4850  150.1080 C   0  0  0  0  0  1  0  0  0  0  0  0
  162.1670  207.6530  147.9510 C   0  0  0  0  0  2  0  0  0  0  0  0
  160.0000  206.1960  145.3920 C   0  0  0  0  0  2  0  0  0  0  0  0
  160.3420  207.1460  146.4320 N   0  0  0  0  0  2  0  0  0  0  0  0
  162.4100  205.8990  146.1900 C   0  0  2  0  0  3  0  0  0  0  0  0
  161.4490  206.5610  147.1730 C   0  0  1  0  0  3  0  0  0  0  0  0
  161.5330  205.6190  144.6260 S   0  0  0  0  0  0  0  0  0  0  0  0
  164.0090  203.9460  145.7480 C   0  0  0  0  0  1  0  0  0  0  0  0
  162.9990  204.5730  146.7020 C   0  0  2  0  0  3  0  0  0  0  0  0
  161.0330  200.9240  147.3430 C   0  0  0  0  0  0  0  0  0  0  0  0
  160.3840  201.9740  146.4870 C   0  0  0  0  0  2  0  0  0  0  0  0
  161.0920  203.3610  149.4870 C   0  0  0  0  0  2  0  0  0  0  0  0
  160.3000  202.0570  149.4210 C   0  0  0  0  0  2  0  0  0  0  0  0
  161.9530  203.5530  147.1540 C   0  0  2  0  0  3  0  0  0  0  0  0
  161.2930  202.9640  146.0490 O   0  0  0  0  0  0  0  0  0  0  0  0
  161.6360  199.9640  146.7960 O   0  0  0  0  0  0  0  0  0  0  0  0
  161.0210  201.0340  148.7360 O   0  0  0  0  0  0  0  0  0  0  0  0
  161.0020  204.1530  148.1900 C   0  0  0  0  0  2  0  0  0  0  0  0
  160.1550  210.3810  156.3370 C   0  0  0  0  0  2  0  0  0  0  0  0
  160.2010  211.7190  157.0560 C   0  0  0  0  0  2  0  0  0  0  0  0
  158.1220  212.3370  156.0670 O   0  0  0  0  0  0  0  0  0  0  0  0
  159.2820  212.6980  156.4050 C   0  0  0  0  0  0  0  0  0  0  0  0
  159.7230  214.0250  156.1290 N   0  0  0  0  0  1  0  0  0  0  0  0
  163.7150  210.5940  155.4070 N   0  0  0  0  0  2  0  0  0  0  0  0
  167.7370  213.7410  155.6650 C   0  0  0  0  0  2  0  0  0  0  0  0
  165.7030  212.1500  154.9090 C   0  0  1  0  0  3  0  0  0  0  0  0
  164.7460  211.4840  155.8460 C   0  0  0  0  0  0  0  0  0  0  0  0
  164.9610  211.8040  157.1190 C   0  0  0  0  0  3  0  0  0  0  0  0
  166.4530  214.3170  155.6130 O   0  0  0  0  0  0  0  0  0  0  0  0
  166.0510  212.7060  157.2590 N   0  0  0  0  0  2  0  0  0  0  0  0
  166.5160  212.9450  155.9100 C   0  0  2  0  0  0  0  0  0  0  0  0
  166.5820  211.1110  154.2280 C   0  0  0  0  0  2  0  0  0  0  0  0
  167.9170  211.3280  154.5700 O   0  0  0  0  0  1  0  0  0  0  0  0
  1 10  1  6  0  0  0
  1  5  1  0  0  0  0
  2 15  1  6  0  0  0
  2  1  1  0  0  0  0
  2  4  1  0  0  0  0
  3 42  1  6  0  0  0
  3  6  1  0  0  0  0
  4  3  1  0  0  0  0
  5  6  1  0  0  0  0
  6 37  1  0  0  0  0
  7 10  1  0  0  0  0
  8 11  1  0  0  0  0
 10  9  1  0  0  0  0
 11  9  1  0  0  0  0
 12  8  1  0  0  0  0
 13  7  1  0  0  0  0
 13  8  1  0  0  0  0
 15 14  1  1  0  0  0
 16 15  1  0  0  0  0
 17 16  1  0  0  0  0
 18 17  1  0  0  0  0
 18 19  1  1  0  0  0
 20 18  1  0  0  0  0
 21 22  1  0  0  0  0
 22 24  1  0  0  0  0
 23 27  1  1  0  0  0
 23 24  1  0  0  0  0
 24 20  1  6  0  0  0
 25 21  1  0  0  0  0
 25 23  1  0  0  0  0
 27 26  1  6  0  0  0
 28 35  1  0  0  0  0
 29 28  1  0  0  0  0
 31 30  1  0  0  0  0
 32 27  1  6  0  0  0
 32 36  1  0  0  0  0
 33 29  1  0  0  0  0
 33 32  1  0  0  0  0
 34 28  2  0  0  0  0
 35 31  1  0  0  0  0
 36 30  1  0  0  0  0
 37 38  1  0  0  0  0
 39 40  2  0  0  0  0
 40 38  1  0  0  0  0
 41 40  1  0  0  0  0
 42 45  1  0  0  0  0
 44 50  1  1  0  0  0
 44 45  1  0  0  0  0
 44 49  1  0  0  0  0
 45 46  2  0  0  0  0
 46 48  1  0  0  0  0
 47 43  1  0  0  0  0
 47 49  1  0  0  0  0
 49 43  1  6  0  0  0
 49 48  1  0  0  0  0
 50 51  1  0  0  0  0
M  END
>  <MODEL>
7

>  <REMARK>
 VINA RESULT:      -1.6      2.982      6.334
  Name = 
  15 active torsions:
  status: ('A' for Active; 'I' for Inactive)
    1  A    between atoms: C_3  and  C_18
    2  A    between atoms: C_4  and  C_31
    3  A    between atoms: C_4  and  C_42
    4  A    between atoms: C_5  and  C_31
    5  A    between atoms: C_5  and  C_47
    6  A    between atoms: C_6  and  C_9
    7  A    between atoms: C_6  and  C_46
    8  A    between atoms: C_9  and  N_50
    9  A    between atoms: C_10  and  C_25
   10  A    between atoms: C_13  and  N_28
   11  A    between atoms: C_14  and  C_47
   12  A    between atoms: C_16  and  C_21
   13  A    between atoms: C_16  and  C_35
   14  A    between atoms: C_24  and  N_28
   15  A    between atoms: C_38  and  C_42
                            x       y       z     vdW  Elec       q    Type
                         _______ _______ _______ _____ _____    ______ ____

>  <TORSDO>
F 15

$$$$
=
 OpenBabel11072410263D

 51 56  0  0  1  0  0  0  0  0999 V2000
  160.0990  209.9300  154.6690 C   0  0  2  0  0  3  0  0  0  0  0  0
  161.0150  209.0940  155.5820 C   0  0  2  0  0  3  0  0  0  0  0  0
  163.0000  210.3290  154.6200 C   0  0  1  0  0  3  0  0  0  0  0  0
  162.4140  208.9600  154.9770 C   0  0  0  0  0  2  0  0  0  0  0  0
  160.7670  211.2680  154.3370 C   0  0  0  0  0  2  0  0  0  0  0  0
  162.1080  211.1160  153.7530 N   0  0  0  0  0  0  0  0  0  0  0  0
  158.8220  210.9410  156.6090 C   0  0  0  0  0  2  0  0  0  0  0  0
  156.6830  212.0480  156.1960 N   0  0  0  0  0  0  0  0  0  0  0  0
  157.7750  210.9490  154.3010 C   0  0  0  0  0  2  0  0  0  0  0  0
  158.7150  210.2140  155.2690 C   0  0  0  0  0  3  0  0  0  0  0  0
  156.4470  211.2510  154.9940 C   0  0  0  0  0  2  0  0  0  0  0  0
  155.4730  212.2980  156.7470 O   0  0  0  0  0  1  0  0  0  0  0  0
  157.4240  211.2270  157.1510 C   0  0  0  0  0  2  0  0  0  0  0  0
  159.2050  207.8230  156.8590 C   0  0  0  0  0  1  0  0  0  0  0  0
  160.4100  207.7310  155.9300 C   0  0  1  0  0  3  0  0  0  0  0  0
  160.0820  206.9490  154.6660 C   0  0  0  0  0  2  0  0  0  0  0  0
  161.0590  205.7950  154.4570 C   0  0  0  0  0  2  0  0  0  0  0  0
  161.4670  205.6620  152.9960 C   0  0  2  0  0  3  0  0  0  0  0  0
  161.4870  207.0210  152.3170 C   0  0  0  0  0  1  0  0  0  0  0  0
  160.4970  204.7380  152.2790 C   0  0  0  0  0  2  0  0  0  0  0  0
  161.4370  201.8550  150.2350 C   0  0  0  0  0  2  0  0  0  0  0  0
  161.1730  202.5460  151.4820 N   0  0  0  0  0  2  0  0  0  0  0  0
  160.5200  204.2090  149.8380 C   0  0  2  0  0  3  0  0  0  0  0  0
  161.2100  203.9690  151.1780 C   0  0  1  0  0  3  0  0  0  0  0  0
  160.4480  202.6350  148.9360 S   0  0  0  0  0  0  0  0  0  0  0  0
  160.6210  206.6710  149.1370 C   0  0  0  0  0  1  0  0  0  0  0  0
  161.2110  205.2750  148.9710 C   0  0  2  0  0  3  0  0  0  0  0  0
  161.1410  203.0320  145.4270 C   0  0  0  0  0  0  0  0  0  0  0  0
  162.4450  203.5830  145.9290 C   0  0  0  0  0  2  0  0  0  0  0  0
  160.2720  206.1550  145.6230 C   0  0  0  0  0  2  0  0  0  0  0  0
  160.5100  205.2170  144.4410 C   0  0  0  0  0  2  0  0  0  0  0  0
  161.3410  204.8980  147.4940 C   0  0  2  0  0  3  0  0  0  0  0  0
  162.3910  203.9720  147.2870 O   0  0  0  0  0  0  0  0  0  0  0  0
  160.8530  201.8250  145.6410 O   0  0  0  0  0  0  0  0  0  0  0  0
  160.2220  203.8600  144.7760 O   0  0  0  0  0  0  0  0  0  0  0  0
  161.4330  206.1410  146.6080 C   0  0  0  0  0  2  0  0  0  0  0  0
  162.0200  210.4930  152.4350 C   0  0  0  0  0  2  0  0  0  0  0  0
  161.5830  211.5250  151.4080 C   0  0  0  0  0  2  0  0  0  0  0  0
  161.8430  211.8800  149.0650 O   0  0  0  0  0  0  0  0  0  0  0  0
  161.9200  211.0690  150.0280 C   0  0  0  0  0  0  0  0  0  0  0  0
  162.2910  209.7140  149.7880 N   0  0  0  0  0  1  0  0  0  0  0  0
  163.3200  211.0720  155.8350 N   0  0  0  0  0  2  0  0  0  0  0  0
  167.7850  213.5170  155.3560 C   0  0  0  0  0  2  0  0  0  0  0  0
  165.3500  212.4230  155.0150 C   0  0  1  0  0  3  0  0  0  0  0  0
  164.5860  211.6940  156.0750 C   0  0  0  0  0  0  0  0  0  0  0  0
  165.2100  211.6850  157.2490 C   0  0  0  0  0  3  0  0  0  0  0  0
  166.6770  214.2540  155.8160 O   0  0  0  0  0  0  0  0  0  0  0  0
  166.4490  212.3790  157.1940 N   0  0  0  0  0  2  0  0  0  0  0  0
  166.5520  212.8550  155.8310 C   0  0  2  0  0  0  0  0  0  0  0  0
  165.7800  211.4600  153.9190 C   0  0  0  0  0  2  0  0  0  0  0  0
  166.9690  210.8280  154.2870 O   0  0  0  0  0  1  0  0  0  0  0  0
  1 10  1  1  0  0  0
  1  2  1  0  0  0  0
  2 15  1  6  0  0  0
  3  4  1  0  0  0  0
  3 42  1  1  0  0  0
  4  2  1  0  0  0  0
  5  1  1  0  0  0  0
  6  5  1  0  0  0  0
  6  3  1  0  0  0  0
  7 13  1  0  0  0  0
  8 12  1  0  0  0  0
  8 13  1  0  0  0  0
  9 11  1  0  0  0  0
  9 10  1  0  0  0  0
 10  7  1  0  0  0  0
 11  8  1  0  0  0  0
 15 14  1  6  0  0  0
 16 15  1  0  0  0  0
 17 16  1  0  0  0  0
 18 19  1  6  0  0  0
 18 17  1  0  0  0  0
 20 18  1  0  0  0  0
 21 22  1  0  0  0  0
 23 27  1  6  0  0  0
 23 24  1  0  0  0  0
 24 22  1  0  0  0  0
 24 20  1  1  0  0  0
 25 23  1  0  0  0  0
 25 21  1  0  0  0  0
 27 26  1  6  0  0  0
 28 34  2  0  0  0  0
 28 29  1  0  0  0  0
 29 33  1  0  0  0  0
 30 36  1  0  0  0  0
 31 35  1  0  0  0  0
 31 30  1  0  0  0  0
 32 27  1  1  0  0  0
 33 32  1  0  0  0  0
 35 28  1  0  0  0  0
 36 32  1  0  0  0  0
 37  6  1  0  0  0  0
 38 37  1  0  0  0  0
 39 40  2  0  0  0  0
 40 38  1  0  0  0  0
 41 40  1  0  0  0  0
 42 45  1  0  0  0  0
 43 47  1  0  0  0  0
 44 50  1  6  0  0  0
 44 49  1  0  0  0  0
 44 45  1  0  0  0  0
 45 46  2  0  0  0  0
 47 49  1  0  0  0  0
 48 46  1  0  0  0  0
 49 43  1  6  0  0  0
 49 48  1  0  0  0  0
 50 51  1  0  0  0  0
M  END
>  <MODEL>
8

>  <REMARK>
 VINA RESULT:      -1.2      2.456      6.192
  Name = 
  15 active torsions:
  status: ('A' for Active; 'I' for Inactive)
    1  A    between atoms: C_3  and  C_18
    2  A    between atoms: C_4  and  C_31
    3  A    between atoms: C_4  and  C_42
    4  A    between atoms: C_5  and  C_31
    5  A    between atoms: C_5  and  C_47
    6  A    between atoms: C_6  and  C_9
    7  A    between atoms: C_6  and  C_46
    8  A    between atoms: C_9  and  N_50
    9  A    between atoms: C_10  and  C_25
   10  A    between atoms: C_13  and  N_28
   11  A    between atoms: C_14  and  C_47
   12  A    between atoms: C_16  and  C_21
   13  A    between atoms: C_16  and  C_35
   14  A    between atoms: C_24  and  N_28
   15  A    between atoms: C_38  and  C_42
                            x       y       z     vdW  Elec       q    Type
                         _______ _______ _______ _____ _____    ______ ____

>  <TORSDO>
F 15

$$$$
