=
 OpenBabel11072413363D

 43 47  0  0  1  0  0  0  0  0999 V2000
  161.6340  208.8820  148.7460 C   0  0  1  0  0  3  0  0  0  0  0  0
  159.0080  213.1040  156.5430 C   0  0  0  0  0  2  0  0  0  0  0  0
  161.7810  208.6340  150.2540 C   0  0  1  0  0  3  0  0  0  0  0  0
  157.0740  209.9210  153.5130 O   0  0  0  0  0  0  0  0  0  0  0  0
  160.9540  214.4460  151.1550 C   0  0  0  0  0  3  0  0  0  0  0  0
  160.5440  212.8950  148.8930 C   0  0  0  0  0  0  0  0  0  0  0  0
  162.6860  213.7100  148.0090 N   0  0  0  0  0  1  0  0  0  0  0  0
  159.8710  209.6420  153.0870 C   0  0  0  0  0  2  0  0  0  0  0  0
  163.4780  206.9880  150.7610 O   0  0  0  0  0  1  0  0  0  0  0  0
  157.4790  213.1110  151.8700 C   0  0  0  0  0  2  0  0  0  0  0  0
  161.4260  206.0550  149.8270 C   0  0  2  0  0  0  0  0  0  0  0  0
  162.2210  205.7540  148.5500 C   0  0  0  0  0  2  0  0  0  0  0  0
  159.0970  214.1060  153.4810 C   0  0  0  0  0  0  0  0  0  0  0  0
  156.8740  213.0930  154.3620 C   0  0  2  0  0  0  0  0  0  0  0  0
  161.6940  213.6860  149.0300 C   0  0  0  0  0  0  0  0  0  0  0  0
  160.2640  214.4530  153.8130 O   0  0  0  0  0  0  0  0  0  0  0  0
  161.6900  210.2500  148.4790 O   0  0  0  0  0  0  0  0  0  0  0  0
  161.0460  209.5840  152.1320 C   0  0  0  0  0  2  0  0  0  0  0  0
  160.3260  212.0520  147.6760 C   0  0  0  0  0  2  0  0  0  0  0  0
  157.7110  210.9450  153.1450 C   0  0  0  0  0  0  0  0  0  0  0  0
  162.6830  208.1580  147.9180 C   0  0  0  0  0  2  0  0  0  0  0  0
  160.6200  209.0640  150.9060 O   0  0  0  0  0  0  0  0  0  0  0  0
  156.8320  212.1770  155.6090 C   0  0  0  0  0  2  0  0  0  0  0  0
  158.4630  214.3980  155.9310 C   0  0  0  0  0  2  0  0  0  0  0  0
  161.8660  214.4410  150.1480 N   0  0  0  0  0  0  0  0  0  0  0  0
  160.4120  210.5700  148.0100 C   0  0  0  0  0  2  0  0  0  0  0  0
  156.9850  212.2640  153.0470 C   0  0  2  0  0  3  0  0  0  0  0  0
  159.7920  213.6640  151.0750 C   0  0  0  0  0  0  0  0  0  0  0  0
  162.1150  206.8230  147.4640 C   0  0  0  0  0  2  0  0  0  0  0  0
  157.9760  214.1960  154.4900 C   0  0  1  0  0  3  0  0  0  0  0  0
  159.1040  210.8500  152.8420 N   0  0  0  0  0  2  0  0  0  0  0  0
  160.1110  206.4010  149.4960 O   0  0  0  0  0  1  0  0  0  0  0  0
  158.8160  213.6440  152.1430 N   0  0  0  0  0  0  0  0  0  0  0  0
  158.2340  211.8500  156.1200 C   0  0  0  0  0  2  0  0  0  0  0  0
  159.5980  212.8930  149.9210 C   0  0  0  0  0  3  0  0  0  0  0  0
  162.0970  207.1780  150.6540 C   0  0  2  0  0  3  0  0  0  0  0  0
  154.9820  214.1850  155.3050 O   0  0  0  0  0  0  0  0  0  0  0  0
  155.5470  213.7930  154.2950 C   0  0  0  0  0  3  0  0  0  0  0  0
  161.4080  204.7650  150.6530 C   0  0  0  0  0  2  0  0  0  0  0  0
  160.5260  203.6650  150.0630 C   0  0  0  0  0  2  0  0  0  0  0  0
  160.8730  201.2230  149.6730 O   0  0  0  0  0  0  0  0  0  0  0  0
  161.3940  202.1660  151.6980 O   0  0  0  0  0  1  0  0  0  0  0  0
  160.9540  202.3150  150.5290 C   0  0  0  0  0  0  0  0  0  0  0  0
  1 21  1  6  0  0  0
  1  3  1  0  0  0  0
  3 36  1  0  0  0  0
  3 22  1  1  0  0  0
  6 15  2  0  0  0  0
  6 35  1  0  0  0  0
  7 15  1  0  0  0  0
 10 33  1  0  0  0  0
 11 32  1  6  0  0  0
 11 39  1  0  0  0  0
 11 36  1  0  0  0  0
 12 11  1  0  0  0  0
 13 16  2  0  0  0  0
 13 30  1  0  0  0  0
 14 38  1  6  0  0  0
 14 30  1  0  0  0  0
 14 23  1  0  0  0  0
 15 25  1  0  0  0  0
 17  1  1  0  0  0  0
 18  8  1  0  0  0  0
 19 26  1  0  0  0  0
 19  6  1  0  0  0  0
 20  4  2  0  0  0  0
 22 18  1  0  0  0  0
 23 34  1  0  0  0  0
 24  2  1  0  0  0  0
 25  5  2  0  0  0  0
 26 17  1  0  0  0  0
 27 10  1  6  0  0  0
 27 20  1  0  0  0  0
 27 14  1  0  0  0  0
 28  5  1  0  0  0  0
 28 33  1  0  0  0  0
 29 21  1  0  0  0  0
 29 12  1  0  0  0  0
 30 24  1  1  0  0  0
 31  8  1  0  0  0  0
 31 20  1  0  0  0  0
 33 13  1  0  0  0  0
 34  2  1  0  0  0  0
 35 28  2  0  0  0  0
 36  9  1  6  0  0  0
 38 37  2  0  0  0  0
 40 43  1  0  0  0  0
 40 39  1  0  0  0  0
 41 43  2  0  0  0  0
 43 42  1  0  0  0  0
M  END
>  <MODEL>
1

>  <REMARK>
 VINA RESULT:       5.0      0.000      0.000
  Name = 
  4 active torsions:
  status: ('A' for Active; 'I' for Inactive)
    1  A    between atoms: C_7  and  C_11
    2  A    between atoms: C_7  and  C_37
    3  A    between atoms: C_11  and  C_16
    4  A    between atoms: C_19  and  C_28
                            x       y       z     vdW  Elec       q    Type
                         _______ _______ _______ _____ _____    ______ ____

>  <TORSDO>
F 4

$$$$
=
 OpenBabel11072413363D

 43 47  0  0  1  0  0  0  0  0999 V2000
  161.1860  204.5750  151.9230 C   0  0  1  0  0  3  0  0  0  0  0  0
  159.3190  212.5180  147.5730 C   0  0  0  0  0  2  0  0  0  0  0  0
  160.4200  205.0050  150.6640 C   0  0  1  0  0  3  0  0  0  0  0  0
  162.8900  209.3100  147.5320 O   0  0  0  0  0  0  0  0  0  0  0  0
  159.8100  210.4130  153.0440 C   0  0  0  0  0  3  0  0  0  0  0  0
  161.4340  208.2900  153.7820 C   0  0  0  0  0  0  0  0  0  0  0  0
  159.8170  207.7320  155.5460 N   0  0  0  0  0  1  0  0  0  0  0  0
  160.6670  207.8300  148.5080 C   0  0  0  0  0  2  0  0  0  0  0  0
  158.9660  203.2660  149.8260 O   0  0  0  0  0  1  0  0  0  0  0  0
  162.7590  210.9800  150.7310 C   0  0  0  0  0  2  0  0  0  0  0  0
  161.3380  202.8680  149.4200 C   0  0  2  0  0  0  0  0  0  0  0  0
  161.2610  201.7430  150.4610 C   0  0  0  0  0  2  0  0  0  0  0  0
  160.4540  211.9010  150.5250 C   0  0  0  0  0  0  0  0  0  0  0  0
  162.1750  212.3280  148.6280 C   0  0  2  0  0  0  0  0  0  0  0  0
  160.2350  208.5530  154.4600 C   0  0  0  0  0  0  0  0  0  0  0  0
  159.2230  211.8890  150.8050 O   0  0  0  0  0  0  0  0  0  0  0  0
  161.0370  205.5350  152.9250 O   0  0  0  0  0  0  0  0  0  0  0  0
  160.0710  206.9040  149.5490 C   0  0  0  0  0  2  0  0  0  0  0  0
  162.3080  207.1400  154.1750 C   0  0  0  0  0  2  0  0  0  0  0  0
  162.3310  209.7260  148.5820 C   0  0  0  0  0  0  0  0  0  0  0  0
  160.7520  203.2180  152.4500 C   0  0  0  0  0  2  0  0  0  0  0  0
  161.0790  206.0890  150.0730 O   0  0  0  0  0  0  0  0  0  0  0  0
  161.8010  212.1730  147.1350 C   0  0  0  0  0  2  0  0  0  0  0  0
  159.8650  213.4900  148.6240 C   0  0  0  0  0  2  0  0  0  0  0  0
  159.4610  209.6050  154.0800 N   0  0  0  0  0  0  0  0  0  0  0  0
  162.3200  206.0640  153.0990 C   0  0  0  0  0  2  0  0  0  0  0  0
  162.8010  211.0200  149.2000 C   0  0  2  0  0  3  0  0  0  0  0  0
  160.9930  210.1870  152.3250 C   0  0  0  0  0  0  0  0  0  0  0  0
  161.6690  202.1500  151.8750 C   0  0  0  0  0  2  0  0  0  0  0  0
  160.9730  212.8560  149.4770 C   0  0  1  0  0  3  0  0  0  0  0  0
  161.2570  208.9830  149.1630 N   0  0  0  0  0  2  0  0  0  0  0  0
  162.5870  203.4940  149.4930 O   0  0  0  0  0  1  0  0  0  0  0  0
  161.3760  211.0260  151.2100 N   0  0  0  0  0  0  0  0  0  0  0  0
  160.3910  211.6090  146.9600 C   0  0  0  0  0  2  0  0  0  0  0  0
  161.8050  209.1140  152.7180 C   0  0  0  0  0  3  0  0  0  0  0  0
  160.1970  203.8940  149.6180 C   0  0  2  0  0  3  0  0  0  0  0  0
  163.2200  214.3750  148.0100 O   0  0  0  0  0  0  0  0  0  0  0  0
  163.2600  213.3650  148.6970 C   0  0  0  0  0  3  0  0  0  0  0  0
  161.1910  202.2100  148.0440 C   0  0  0  0  0  2  0  0  0  0  0  0
  161.5820  203.1190  146.8790 C   0  0  0  0  0  2  0  0  0  0  0  0
  160.5960  203.7080  144.6620 O   0  0  0  0  0  0  0  0  0  0  0  0
  160.4810  201.5590  145.4540 O   0  0  0  0  0  1  0  0  0  0  0  0
  160.8560  202.7470  145.6320 C   0  0  0  0  0  0  0  0  0  0  0  0
  1 21  1  1  0  0  0
  1 17  1  0  0  0  0
  2 24  1  0  0  0  0
  3 22  1  6  0  0  0
  3  1  1  0  0  0  0
  4 20  2  0  0  0  0
  5 25  1  0  0  0  0
  6 19  1  0  0  0  0
  6 15  1  0  0  0  0
  8 31  1  0  0  0  0
  8 18  1  0  0  0  0
 10 33  1  0  0  0  0
 11 32  1  1  0  0  0
 11 36  1  0  0  0  0
 11 12  1  0  0  0  0
 12 29  1  0  0  0  0
 13 16  2  0  0  0  0
 13 33  1  0  0  0  0
 14 38  1  1  0  0  0
 14 27  1  0  0  0  0
 14 30  1  0  0  0  0
 15  7  1  0  0  0  0
 17 26  1  0  0  0  0
 18 22  1  0  0  0  0
 20 31  1  0  0  0  0
 20 27  1  0  0  0  0
 23 14  1  0  0  0  0
 25 15  2  0  0  0  0
 26 19  1  0  0  0  0
 27 10  1  1  0  0  0
 28 35  1  0  0  0  0
 28  5  2  0  0  0  0
 29 21  1  0  0  0  0
 30 24  1  6  0  0  0
 30 13  1  0  0  0  0
 33 28  1  0  0  0  0
 34 23  1  0  0  0  0
 34  2  1  0  0  0  0
 35  6  2  0  0  0  0
 36  9  1  1  0  0  0
 36  3  1  0  0  0  0
 37 38  2  0  0  0  0
 39 11  1  0  0  0  0
 40 39  1  0  0  0  0
 41 43  2  0  0  0  0
 42 43  1  0  0  0  0
 43 40  1  0  0  0  0
M  END
>  <MODEL>
2

>  <REMARK>
 VINA RESULT:       5.4      3.047      6.421
  Name = 
  4 active torsions:
  status: ('A' for Active; 'I' for Inactive)
    1  A    between atoms: C_7  and  C_11
    2  A    between atoms: C_7  and  C_37
    3  A    between atoms: C_11  and  C_16
    4  A    between atoms: C_19  and  C_28
                            x       y       z     vdW  Elec       q    Type
                         _______ _______ _______ _____ _____    ______ ____

>  <TORSDO>
F 4

$$$$
=
 OpenBabel11072413363D

 43 47  0  0  1  0  0  0  0  0999 V2000
  160.9300  206.5780  152.5910 C   0  0  1  0  0  3  0  0  0  0  0  0
  159.6390  212.8660  145.9360 C   0  0  0  0  0  2  0  0  0  0  0  0
  160.4570  206.5770  151.1310 C   0  0  1  0  0  3  0  0  0  0  0  0
  163.3160  210.2230  147.5290 O   0  0  0  0  0  0  0  0  0  0  0  0
  158.9580  212.2900  151.7510 C   0  0  0  0  0  3  0  0  0  0  0  0
  160.4950  210.6430  153.3680 C   0  0  0  0  0  0  0  0  0  0  0  0
  158.5460  210.3520  154.8350 N   0  0  0  0  0  1  0  0  0  0  0  0
  161.0250  208.7720  148.3840 C   0  0  0  0  0  2  0  0  0  0  0  0
  159.3550  204.5150  150.5160 O   0  0  0  0  0  1  0  0  0  0  0  0
  162.3270  212.6170  150.0450 C   0  0  0  0  0  2  0  0  0  0  0  0
  161.7770  204.3260  150.7440 C   0  0  2  0  0  0  0  0  0  0  0  0
  161.5280  203.5000  152.0130 C   0  0  0  0  0  2  0  0  0  0  0  0
  160.0820  213.1610  149.1140 C   0  0  0  0  0  0  0  0  0  0  0  0
  162.1710  213.3060  147.5790 C   0  0  2  0  0  0  0  0  0  0  0  0
  159.1550  210.9180  153.6790 C   0  0  0  0  0  0  0  0  0  0  0  0
  158.8240  213.0670  149.1210 O   0  0  0  0  0  0  0  0  0  0  0  0
  160.4880  207.7340  153.2360 O   0  0  0  0  0  0  0  0  0  0  0  0
  160.2600  208.0730  149.4900 C   0  0  0  0  0  2  0  0  0  0  0  0
  161.3220  209.7480  154.2360 C   0  0  0  0  0  2  0  0  0  0  0  0
  162.4990  210.8170  148.2830 C   0  0  0  0  0  0  0  0  0  0  0  0
  160.4710  205.3550  153.3680 C   0  0  0  0  0  2  0  0  0  0  0  0
  161.1660  207.5490  150.4170 O   0  0  0  0  0  0  0  0  0  0  0  0
  162.1700  212.7330  146.1420 C   0  0  0  0  0  2  0  0  0  0  0  0
  159.8580  214.1320  146.7700 C   0  0  0  0  0  2  0  0  0  0  0  0
  158.4280  211.7340  152.8710 N   0  0  0  0  0  0  0  0  0  0  0  0
  161.6570  208.4460  153.5240 C   0  0  0  0  0  2  0  0  0  0  0  0
  162.7270  212.2740  148.6060 C   0  0  2  0  0  3  0  0  0  0  0  0
  160.2900  212.0390  151.3860 C   0  0  0  0  0  0  0  0  0  0  0  0
  161.5640  204.3000  153.3140 C   0  0  0  0  0  2  0  0  0  0  0  0
  160.7710  213.8780  147.9770 C   0  0  1  0  0  3  0  0  0  0  0  0
  161.3690  210.1180  148.8060 N   0  0  0  0  0  2  0  0  0  0  0  0
  162.9310  205.1010  150.9030 O   0  0  0  0  0  1  0  0  0  0  0  0
  160.8700  212.6110  150.1910 N   0  0  0  0  0  0  0  0  0  0  0  0
  160.8800  211.9730  145.8360 C   0  0  0  0  0  2  0  0  0  0  0  0
  161.0530  211.2110  152.2210 C   0  0  0  0  0  3  0  0  0  0  0  0
  160.5590  205.2180  150.4080 C   0  0  2  0  0  3  0  0  0  0  0  0
  164.1480  214.4320  148.2780 O   0  0  0  0  0  0  0  0  0  0  0  0
  163.1410  214.4530  147.5860 C   0  0  0  0  0  3  0  0  0  0  0  0
  162.0000  203.3290  149.6030 C   0  0  0  0  0  2  0  0  0  0  0  0
  161.4540  203.7980  148.2550 C   0  0  0  0  0  2  0  0  0  0  0  0
  160.9160  201.4000  147.8200 O   0  0  0  0  0  1  0  0  0  0  0  0
  161.3700  202.8250  146.0820 O   0  0  0  0  0  0  0  0  0  0  0  0
  161.2480  202.6540  147.3220 C   0  0  0  0  0  0  0  0  0  0  0  0
  1 17  1  0  0  0  0
  1 21  1  1  0  0  0
  2 24  1  0  0  0  0
  3 22  1  6  0  0  0
  3  1  1  0  0  0  0
  4 20  2  0  0  0  0
  5 25  1  0  0  0  0
  6 15  1  0  0  0  0
  6 19  1  0  0  0  0
  8 31  1  0  0  0  0
  8 18  1  0  0  0  0
 10 33  1  0  0  0  0
 11 32  1  1  0  0  0
 11 12  1  0  0  0  0
 12 29  1  0  0  0  0
 13 16  2  0  0  0  0
 13 33  1  0  0  0  0
 14 38  1  6  0  0  0
 14 30  1  0  0  0  0
 14 27  1  0  0  0  0
 15  7  1  0  0  0  0
 17 26  1  0  0  0  0
 18 22  1  0  0  0  0
 20 27  1  0  0  0  0
 20 31  1  0  0  0  0
 23 14  1  0  0  0  0
 25 15  2  0  0  0  0
 26 19  1  0  0  0  0
 27 10  1  1  0  0  0
 28  5  2  0  0  0  0
 28 35  1  0  0  0  0
 29 21  1  0  0  0  0
 30 24  1  6  0  0  0
 30 13  1  0  0  0  0
 33 28  1  0  0  0  0
 34  2  1  0  0  0  0
 34 23  1  0  0  0  0
 35  6  2  0  0  0  0
 36  9  1  1  0  0  0
 36 11  1  0  0  0  0
 36  3  1  0  0  0  0
 38 37  2  0  0  0  0
 39 11  1  0  0  0  0
 40 39  1  0  0  0  0
 42 43  2  0  0  0  0
 43 41  1  0  0  0  0
 43 40  1  0  0  0  0
M  END
>  <MODEL>
3

>  <REMARK>
 VINA RESULT:       7.2      2.664      6.166
  Name = 
  4 active torsions:
  status: ('A' for Active; 'I' for Inactive)
    1  A    between atoms: C_7  and  C_11
    2  A    between atoms: C_7  and  C_37
    3  A    between atoms: C_11  and  C_16
    4  A    between atoms: C_19  and  C_28
                            x       y       z     vdW  Elec       q    Type
                         _______ _______ _______ _____ _____    ______ ____

>  <TORSDO>
F 4

$$$$
=
 OpenBabel11072413363D

 43 47  0  0  1  0  0  0  0  0999 V2000
  160.9090  207.6020  153.0730 C   0  0  1  0  0  3  0  0  0  0  0  0
  159.3680  212.3550  145.2930 C   0  0  0  0  0  2  0  0  0  0  0  0
  160.4510  207.2840  151.6430 C   0  0  1  0  0  3  0  0  0  0  0  0
  163.1580  210.2780  147.3820 O   0  0  0  0  0  0  0  0  0  0  0  0
  158.6600  212.9220  151.1060 C   0  0  0  0  0  3  0  0  0  0  0  0
  160.2610  211.7130  153.0200 C   0  0  0  0  0  0  0  0  0  0  0  0
  158.3160  211.6220  154.5170 N   0  0  0  0  0  1  0  0  0  0  0  0
  160.9350  208.9120  148.5120 C   0  0  0  0  0  2  0  0  0  0  0  0
  159.4610  205.0870  151.4550 O   0  0  0  0  0  1  0  0  0  0  0  0
  162.0250  213.0730  149.3670 C   0  0  0  0  0  2  0  0  0  0  0  0
  161.8870  205.0730  151.7150 C   0  0  2  0  0  0  0  0  0  0  0  0
  161.6680  204.5060  153.1240 C   0  0  0  0  0  2  0  0  0  0  0  0
  159.7640  213.3040  148.3480 C   0  0  0  0  0  0  0  0  0  0  0  0
  161.8590  213.2460  146.8130 C   0  0  2  0  0  0  0  0  0  0  0  0
  158.9070  211.9750  153.2700 C   0  0  0  0  0  0  0  0  0  0  0  0
  158.5120  213.1480  148.3740 O   0  0  0  0  0  0  0  0  0  0  0  0
  160.4030  208.8400  153.4740 O   0  0  0  0  0  0  0  0  0  0  0  0
  160.1960  208.4090  149.7350 C   0  0  0  0  0  2  0  0  0  0  0  0
  161.1250  211.0530  154.0490 C   0  0  0  0  0  2  0  0  0  0  0  0
  162.3050  210.9680  148.0020 C   0  0  0  0  0  0  0  0  0  0  0  0
  160.5050  206.5380  154.0790 C   0  0  0  0  0  2  0  0  0  0  0  0
  161.1170  208.1290  150.7490 O   0  0  0  0  0  0  0  0  0  0  0  0
  161.9010  212.3970  145.5200 C   0  0  0  0  0  2  0  0  0  0  0  0
  159.5150  213.7730  145.8560 C   0  0  0  0  0  2  0  0  0  0  0  0
  158.1470  212.5740  152.3150 N   0  0  0  0  0  0  0  0  0  0  0  0
  161.5320  209.6540  153.6130 C   0  0  0  0  0  2  0  0  0  0  0  0
  162.4550  212.4700  148.0260 C   0  0  2  0  0  3  0  0  0  0  0  0
  160.0060  212.6710  150.7990 C   0  0  0  0  0  0  0  0  0  0  0  0
  161.6510  205.5510  154.2380 C   0  0  0  0  0  2  0  0  0  0  0  0
  160.4280  213.8130  147.0890 C   0  0  1  0  0  3  0  0  0  0  0  0
  161.2060  210.3310  148.6550 N   0  0  0  0  0  2  0  0  0  0  0  0
  162.9990  205.9230  151.7140 O   0  0  0  0  0  1  0  0  0  0  0  0
  160.5680  213.0210  149.5120 N   0  0  0  0  0  0  0  0  0  0  0  0
  160.6540  211.5250  145.3740 C   0  0  0  0  0  2  0  0  0  0  0  0
  160.8020  212.0680  151.7820 C   0  0  0  0  0  3  0  0  0  0  0  0
  160.6290  205.8150  151.2070 C   0  0  2  0  0  3  0  0  0  0  0  0
  163.5730  214.4360  145.6700 O   0  0  0  0  0  0  0  0  0  0  0  0
  162.7690  214.4190  146.5900 C   0  0  0  0  0  3  0  0  0  0  0  0
  162.1720  203.8800  150.7960 C   0  0  0  0  0  2  0  0  0  0  0  0
  161.0940  203.6430  149.7390 C   0  0  0  0  0  2  0  0  0  0  0  0
  160.5560  201.6770  148.2960 O   0  0  0  0  0  0  0  0  0  0  0  0
  160.8230  201.4230  150.5600 O   0  0  0  0  0  1  0  0  0  0  0  0
  160.8160  202.1890  149.5620 C   0  0  0  0  0  0  0  0  0  0  0  0
  1 17  1  0  0  0  0
  1 21  1  1  0  0  0
  2 34  1  0  0  0  0
  2 24  1  0  0  0  0
  3 22  1  6  0  0  0
  3  1  1  0  0  0  0
  4 20  2  0  0  0  0
  5 25  1  0  0  0  0
  6 15  1  0  0  0  0
  6 19  1  0  0  0  0
  8 31  1  0  0  0  0
  8 18  1  0  0  0  0
 10 33  1  0  0  0  0
 11 32  1  1  0  0  0
 11 12  1  0  0  0  0
 12 29  1  0  0  0  0
 13 16  2  0  0  0  0
 13 33  1  0  0  0  0
 14 38  1  6  0  0  0
 14 30  1  0  0  0  0
 14 27  1  0  0  0  0
 15  7  1  0  0  0  0
 17 26  1  0  0  0  0
 18 22  1  0  0  0  0
 20 27  1  0  0  0  0
 20 31  1  0  0  0  0
 21 29  1  0  0  0  0
 23 14  1  0  0  0  0
 25 15  2  0  0  0  0
 26 19  1  0  0  0  0
 27 10  1  1  0  0  0
 28  5  2  0  0  0  0
 28 35  1  0  0  0  0
 30 24  1  6  0  0  0
 30 13  1  0  0  0  0
 33 28  1  0  0  0  0
 34 23  1  0  0  0  0
 35  6  2  0  0  0  0
 36  9  1  1  0  0  0
 36  3  1  0  0  0  0
 36 11  1  0  0  0  0
 37 38  2  0  0  0  0
 39 11  1  0  0  0  0
 40 39  1  0  0  0  0
 41 43  2  0  0  0  0
 43 40  1  0  0  0  0
 43 42  1  0  0  0  0
M  END
>  <MODEL>
4

>  <REMARK>
 VINA RESULT:       7.5      2.520      6.245
  Name = 
  4 active torsions:
  status: ('A' for Active; 'I' for Inactive)
    1  A    between atoms: C_7  and  C_11
    2  A    between atoms: C_7  and  C_37
    3  A    between atoms: C_11  and  C_16
    4  A    between atoms: C_19  and  C_28
                            x       y       z     vdW  Elec       q    Type
                         _______ _______ _______ _____ _____    ______ ____

>  <TORSDO>
F 4

$$$$
