=
 OpenBabel11072414343D

 36 40  0  0  1  0  0  0  0  0999 V2000
  161.2670  206.3440  150.6870 N   0  0  0  0  0  0  0  0  0  0  0  0
  161.1860  200.2810  148.3890 O   0  0  0  0  0  0  0  0  0  0  0  0
  161.0980  204.1970  149.5720 C   0  0  0  0  0  0  0  0  0  0  0  0
  160.6300  202.5270  147.7590 C   0  0  1  0  0  3  0  0  0  0  0  0
  161.0300  203.2960  150.5620 C   0  0  0  0  0  0  0  0  0  0  0  0
  161.0910  201.8330  150.2260 C   0  0  0  0  0  2  0  0  0  0  0  0
  161.2140  204.9520  147.5150 C   0  0  0  0  0  0  0  0  0  0  0  0
  160.5660  201.4570  148.8420 C   0  0  1  0  0  0  0  0  0  0  0  0
  161.0640  203.8320  148.2660 N   0  0  0  0  0  0  0  0  0  0  0  0
  161.2550  205.5710  149.6480 C   0  0  0  0  0  0  0  0  0  0  0  0
  161.0020  203.5900  151.9270 O   0  0  0  0  0  0  0  0  0  0  0  0
  161.1120  206.0400  152.0740 C   0  0  0  0  0  0  0  0  0  0  0  0
  161.7230  201.4920  147.9100 C   0  0  1  0  0  3  0  0  0  0  0  0
  160.9940  204.8200  152.5880 C   0  0  0  0  0  3  0  0  0  0  0  0
  161.3500  206.0470  148.3570 C   0  0  0  0  0  0  0  0  0  0  0  0
  162.0790  204.3240  145.3480 N   0  0  0  0  0  1  0  0  0  0  0  0
  160.1930  205.7030  145.3250 N   0  0  0  0  0  2  0  0  0  0  0  0
  161.2050  204.9900  146.0280 C   0  0  0  0  0  0  0  0  0  0  0  0
  161.4500  207.4890  147.9710 C   0  0  0  0  0  2  0  0  0  0  0  0
  162.6130  208.1400  148.7000 C   0  0  0  0  0  2  0  0  0  0  0  0
  162.1920  209.4540  149.2500 C   0  0  0  0  0  0  0  0  0  0  0  0
  161.9880  210.5340  148.4010 O   0  0  0  0  0  0  0  0  0  0  0  0
  162.0400  209.5930  150.4900 O   0  0  0  0  0  1  0  0  0  0  0  0
  161.0420  207.1860  153.0280 C   0  0  0  0  0  2  0  0  0  0  0  0
  160.7680  206.6980  154.4440 C   0  0  0  0  0  2  0  0  0  0  0  0
  160.3180  207.8540  155.3240 C   0  0  0  0  0  2  0  0  0  0  0  0
  161.5090  208.6670  155.8170 C   0  0  2  0  0  3  0  0  0  0  0  0
  161.8560  208.2570  157.1040 O   0  0  0  0  0  1  0  0  0  0  0  0
  161.2440  210.1770  155.7930 C   0  0  0  0  0  2  0  0  0  0  0  0
  160.0820  211.5140  153.9800 N   0  0  0  0  0  2  0  0  0  0  0  0
  162.1660  210.5260  153.6240 O   0  0  0  0  0  0  0  0  0  0  0  0
  161.2040  210.7430  154.4070 C   0  0  0  0  0  0  0  0  0  0  0  0
  159.9980  212.0650  152.6360 C   0  0  0  0  0  2  0  0  0  0  0  0
  157.6760  212.5480  153.3970 O   0  0  0  0  0  1  0  0  0  0  0  0
  158.6100  212.5240  152.3690 C   0  0  0  0  0  0  0  0  0  0  0  0
  158.2720  212.8580  151.2040 O   0  0  0  0  0  0  0  0  0  0  0  0
  1 12  1  0  0  0  0
  2  8  1  0  0  0  0
  3 10  1  0  0  0  0
  3  5  2  0  0  0  0
  4 13  1  0  0  0  0
  4  9  1  1  0  0  0
  4  8  1  0  0  0  0
  5 11  1  0  0  0  0
  6  5  1  0  0  0  0
  7  9  1  0  0  0  0
  7 15  2  0  0  0  0
  8  6  1  1  0  0  0
  9  3  1  0  0  0  0
 10  1  2  0  0  0  0
 11 14  1  0  0  0  0
 12 14  2  0  0  0  0
 12 24  1  0  0  0  0
 13  2  1  6  0  0  0
 13  8  1  0  0  0  0
 15 10  1  0  0  0  0
 16 18  1  0  0  0  0
 17 18  2  0  0  0  0
 18  7  1  0  0  0  0
 19 15  1  0  0  0  0
 19 20  1  0  0  0  0
 20 21  1  0  0  0  0
 21 23  1  0  0  0  0
 22 21  2  0  0  0  0
 24 25  1  0  0  0  0
 25 26  1  0  0  0  0
 26 27  1  0  0  0  0
 27 28  1  1  0  0  0
 29 27  1  0  0  0  0
 30 32  1  0  0  0  0
 31 32  2  0  0  0  0
 32 29  1  0  0  0  0
 33 30  1  0  0  0  0
 35 33  1  0  0  0  0
 35 34  1  0  0  0  0
 36 35  2  0  0  0  0
M  END
>  <MODEL>
1

>  <REMARK>
 VINA RESULT:      -7.8      0.000      0.000
  Name = 
  12 active torsions:
  status: ('A' for Active; 'I' for Inactive)
    1  A    between atoms: N_3  and  C_9
    2  A    between atoms: C_5  and  C_12
    3  A    between atoms: C_5  and  C_36
    4  A    between atoms: C_6  and  C_8
    5  A    between atoms: C_6  and  C_30
    6  A    between atoms: C_8  and  C_29
    7  A    between atoms: C_9  and  C_13
    8  A    between atoms: C_12  and  C_18
    9  A    between atoms: C_19  and  C_20
   10  A    between atoms: C_19  and  C_30
   11  A    between atoms: C_20  and  C_33
   12  A    between atoms: C_22  and  C_31
                            x       y       z     vdW  Elec       q    Type
                         _______ _______ _______ _____ _____    ______ ____

>  <TORSDO>
F 12

$$$$
=
 OpenBabel11072414343D

 36 40  0  0  1  0  0  0  0  0999 V2000
  161.9270  207.9920  151.0910 N   0  0  0  0  0  0  0  0  0  0  0  0
  159.8410  212.8020  154.9080 O   0  0  0  0  0  0  0  0  0  0  0  0
  160.9950  209.5690  152.6810 C   0  0  0  0  0  0  0  0  0  0  0  0
  159.7580  210.4140  154.6940 C   0  0  1  0  0  3  0  0  0  0  0  0
  160.9020  210.7250  152.0100 C   0  0  0  0  0  0  0  0  0  0  0  0
  160.5200  211.9740  152.7520 C   0  0  0  0  0  2  0  0  0  0  0  0
  160.8770  208.1940  154.3870 C   0  0  0  0  0  0  0  0  0  0  0  0
  159.6460  211.7600  153.9860 C   0  0  1  0  0  0  0  0  0  0  0  0
  160.6030  209.4570  153.9750 N   0  0  0  0  0  0  0  0  0  0  0  0
  161.5070  208.3520  152.2620 C   0  0  0  0  0  0  0  0  0  0  0  0
  161.2300  210.9120  150.6650 O   0  0  0  0  0  0  0  0  0  0  0  0
  161.9860  208.7170  149.8620 C   0  0  0  0  0  0  0  0  0  0  0  0
  160.5590  211.6150  155.1500 C   0  0  1  0  0  3  0  0  0  0  0  0
  161.6690  209.9980  149.7050 C   0  0  0  0  0  3  0  0  0  0  0  0
  161.4560  207.4900  153.3390 C   0  0  0  0  0  0  0  0  0  0  0  0
  159.4790  207.0020  155.9560 N   0  0  0  0  0  2  0  0  0  0  0  0
  161.5160  207.7770  156.8000 N   0  0  0  0  0  1  0  0  0  0  0  0
  160.5750  207.6520  155.7390 C   0  0  0  0  0  0  0  0  0  0  0  0
  161.8380  206.0450  153.3090 C   0  0  0  0  0  2  0  0  0  0  0  0
  160.6510  205.2040  152.8710 C   0  0  0  0  0  2  0  0  0  0  0  0
  161.1180  204.0740  152.0270 C   0  0  0  0  0  0  0  0  0  0  0  0
  160.7310  202.7740  152.3250 O   0  0  0  0  0  1  0  0  0  0  0  0
  161.8820  204.2930  151.0540 O   0  0  0  0  0  0  0  0  0  0  0  0
  162.4060  207.9690  148.6390 C   0  0  0  0  0  2  0  0  0  0  0  0
  161.8980  206.5340  148.6790 C   0  0  0  0  0  2  0  0  0  0  0  0
  160.7990  206.3340  147.6470 C   0  0  0  0  0  2  0  0  0  0  0  0
  161.3750  206.2420  146.2390 C   0  0  2  0  0  3  0  0  0  0  0  0
  160.3360  206.2230  145.3080 O   0  0  0  0  0  1  0  0  0  0  0  0
  162.2820  205.0200  146.0500 C   0  0  0  0  0  2  0  0  0  0  0  0
  161.5050  202.9850  147.3460 N   0  0  0  0  0  2  0  0  0  0  0  0
  160.9530  203.2870  145.0980 O   0  0  0  0  0  0  0  0  0  0  0  0
  161.5400  203.7230  146.1240 C   0  0  0  0  0  0  0  0  0  0  0  0
  160.8090  201.7120  147.4520 C   0  0  0  0  0  2  0  0  0  0  0  0
  161.4560  200.9050  149.7190 O   0  0  0  0  0  1  0  0  0  0  0  0
  160.4870  201.4370  148.8770 C   0  0  0  0  0  0  0  0  0  0  0  0
  159.3260  201.6540  149.3120 O   0  0  0  0  0  0  0  0  0  0  0  0
  1 10  2  0  0  0  0
  3  9  1  0  0  0  0
  4  9  1  6  0  0  0
  4 13  1  0  0  0  0
  5  3  2  0  0  0  0
  5  6  1  0  0  0  0
  7 18  1  0  0  0  0
  8  6  1  6  0  0  0
  8  4  1  0  0  0  0
  8  2  1  0  0  0  0
  8 13  1  0  0  0  0
  9  7  1  0  0  0  0
 10  3  1  0  0  0  0
 10 15  1  0  0  0  0
 11  5  1  0  0  0  0
 12  1  1  0  0  0  0
 13  2  1  1  0  0  0
 14 12  2  0  0  0  0
 14 11  1  0  0  0  0
 15  7  2  0  0  0  0
 18 16  2  0  0  0  0
 18 17  1  0  0  0  0
 19 15  1  0  0  0  0
 20 19  1  0  0  0  0
 21 22  1  0  0  0  0
 21 20  1  0  0  0  0
 23 21  2  0  0  0  0
 24 25  1  0  0  0  0
 24 12  1  0  0  0  0
 26 25  1  0  0  0  0
 27 28  1  6  0  0  0
 27 26  1  0  0  0  0
 29 32  1  0  0  0  0
 29 27  1  0  0  0  0
 30 33  1  0  0  0  0
 31 32  2  0  0  0  0
 32 30  1  0  0  0  0
 33 35  1  0  0  0  0
 35 36  2  0  0  0  0
 35 34  1  0  0  0  0
M  END
>  <MODEL>
2

>  <REMARK>
 VINA RESULT:      -7.8      2.105      9.222
  Name = 
  12 active torsions:
  status: ('A' for Active; 'I' for Inactive)
    1  A    between atoms: N_3  and  C_9
    2  A    between atoms: C_5  and  C_12
    3  A    between atoms: C_5  and  C_36
    4  A    between atoms: C_6  and  C_8
    5  A    between atoms: C_6  and  C_30
    6  A    between atoms: C_8  and  C_29
    7  A    between atoms: C_9  and  C_13
    8  A    between atoms: C_12  and  C_18
    9  A    between atoms: C_19  and  C_20
   10  A    between atoms: C_19  and  C_30
   11  A    between atoms: C_20  and  C_33
   12  A    between atoms: C_22  and  C_31
                            x       y       z     vdW  Elec       q    Type
                         _______ _______ _______ _____ _____    ______ ____

>  <TORSDO>
F 12

$$$$
=
 OpenBabel11072414343D

 36 40  0  0  1  0  0  0  0  0999 V2000
  161.1260  207.0050  150.3900 N   0  0  0  0  0  0  0  0  0  0  0  0
  162.1230  203.8770  144.7970 O   0  0  0  0  0  0  0  0  0  0  0  0
  161.5490  205.5790  148.4740 C   0  0  0  0  0  0  0  0  0  0  0  0
  162.0030  203.4900  147.1610 C   0  0  1  0  0  3  0  0  0  0  0  0
  162.0280  206.4000  147.5290 C   0  0  0  0  0  0  0  0  0  0  0  0
  162.2370  205.8730  146.1380 C   0  0  0  0  0  2  0  0  0  0  0  0
  160.8380  203.7060  149.3690 C   0  0  0  0  0  0  0  0  0  0  0  0
  162.5360  204.3780  146.0440 C   0  0  1  0  0  0  0  0  0  0  0  0
  161.3950  204.2490  148.2580 N   0  0  0  0  0  0  0  0  0  0  0  0
  161.1000  205.8790  149.7500 C   0  0  0  0  0  0  0  0  0  0  0  0
  162.2700  207.7670  147.6880 O   0  0  0  0  0  0  0  0  0  0  0  0
  161.6310  208.2830  150.0030 C   0  0  0  0  0  0  0  0  0  0  0  0
  161.2340  203.6810  145.8720 C   0  0  1  0  0  3  0  0  0  0  0  0
  162.1320  208.5860  148.8090 C   0  0  0  0  0  3  0  0  0  0  0  0
  160.6320  204.7080  150.3080 C   0  0  0  0  0  0  0  0  0  0  0  0
  161.2790  201.5200  150.3000 N   0  0  0  0  0  1  0  0  0  0  0  0
  159.3670  201.6870  148.9670 N   0  0  0  0  0  2  0  0  0  0  0  0
  160.5300  202.2620  149.5520 C   0  0  0  0  0  0  0  0  0  0  0  0
  160.1240  204.5590  151.7070 C   0  0  0  0  0  2  0  0  0  0  0  0
  161.2900  204.3810  152.6640 C   0  0  0  0  0  2  0  0  0  0  0  0
  161.5880  205.6700  153.3420 C   0  0  0  0  0  0  0  0  0  0  0  0
  160.7000  206.1880  154.2760 O   0  0  0  0  0  1  0  0  0  0  0  0
  162.6350  206.3020  153.0520 O   0  0  0  0  0  0  0  0  0  0  0  0
  161.6320  209.3660  151.0310 C   0  0  0  0  0  2  0  0  0  0  0  0
  160.6660  209.0400  152.1630 C   0  0  0  0  0  2  0  0  0  0  0  0
  161.1780  209.6100  153.4760 C   0  0  0  0  0  2  0  0  0  0  0  0
  160.6950  211.0410  153.6820 C   0  0  2  0  0  3  0  0  0  0  0  0
  160.7500  211.3630  155.0380 O   0  0  0  0  0  1  0  0  0  0  0  0
  159.2800  211.2710  153.1370 C   0  0  0  0  0  2  0  0  0  0  0  0
  159.9960  212.6770  151.1530 N   0  0  0  0  0  2  0  0  0  0  0  0
  158.3410  213.4010  152.6310 O   0  0  0  0  0  0  0  0  0  0  0  0
  159.1680  212.5090  152.3030 C   0  0  0  0  0  0  0  0  0  0  0  0
  159.9280  213.8730  150.3280 C   0  0  0  0  0  2  0  0  0  0  0  0
  161.7670  213.3660  148.7250 O   0  0  0  0  0  1  0  0  0  0  0  0
  160.4110  213.5630  148.9570 C   0  0  0  0  0  0  0  0  0  0  0  0
  159.5960  213.5110  148.0010 O   0  0  0  0  0  0  0  0  0  0  0  0
  2  8  1  0  0  0  0
  3 10  1  0  0  0  0
  4  9  1  1  0  0  0
  5 11  1  0  0  0  0
  5  3  2  0  0  0  0
  6  5  1  0  0  0  0
  7 18  1  0  0  0  0
  7 15  2  0  0  0  0
  8  6  1  1  0  0  0
  8  4  1  0  0  0  0
  9  3  1  0  0  0  0
  9  7  1  0  0  0  0
 10 15  1  0  0  0  0
 10  1  2  0  0  0  0
 11 14  1  0  0  0  0
 12  1  1  0  0  0  0
 12 24  1  0  0  0  0
 13  2  1  6  0  0  0
 13  8  1  0  0  0  0
 13  4  1  0  0  0  0
 14 12  2  0  0  0  0
 15 19  1  0  0  0  0
 17 18  2  0  0  0  0
 18 16  1  0  0  0  0
 19 20  1  0  0  0  0
 20 21  1  0  0  0  0
 21 22  1  0  0  0  0
 23 21  2  0  0  0  0
 24 25  1  0  0  0  0
 25 26  1  0  0  0  0
 26 27  1  0  0  0  0
 27 28  1  1  0  0  0
 29 27  1  0  0  0  0
 30 32  1  0  0  0  0
 32 31  2  0  0  0  0
 32 29  1  0  0  0  0
 33 30  1  0  0  0  0
 34 35  1  0  0  0  0
 35 33  1  0  0  0  0
 36 35  2  0  0  0  0
M  END
>  <MODEL>
3

>  <REMARK>
 VINA RESULT:      -7.5      2.163      4.201
  Name = 
  12 active torsions:
  status: ('A' for Active; 'I' for Inactive)
    1  A    between atoms: N_3  and  C_9
    2  A    between atoms: C_5  and  C_12
    3  A    between atoms: C_5  and  C_36
    4  A    between atoms: C_6  and  C_8
    5  A    between atoms: C_6  and  C_30
    6  A    between atoms: C_8  and  C_29
    7  A    between atoms: C_9  and  C_13
    8  A    between atoms: C_12  and  C_18
    9  A    between atoms: C_19  and  C_20
   10  A    between atoms: C_19  and  C_30
   11  A    between atoms: C_20  and  C_33
   12  A    between atoms: C_22  and  C_31
                            x       y       z     vdW  Elec       q    Type
                         _______ _______ _______ _____ _____    ______ ____

>  <TORSDO>
F 12

$$$$
=
 OpenBabel11072414343D

 36 40  0  0  1  0  0  0  0  0999 V2000
  161.1880  205.9270  151.1450 N   0  0  0  0  0  0  0  0  0  0  0  0
  161.2780  200.3310  147.8690 O   0  0  0  0  0  0  0  0  0  0  0  0
  161.0840  203.9920  149.6860 C   0  0  0  0  0  0  0  0  0  0  0  0
  160.6740  202.6380  147.6140 C   0  0  1  0  0  3  0  0  0  0  0  0
  161.0270  202.9380  150.5110 C   0  0  0  0  0  0  0  0  0  0  0  0
  161.1270  201.5530  149.9370 C   0  0  0  0  0  2  0  0  0  0  0  0
  161.2020  205.0820  147.7850 C   0  0  0  0  0  0  0  0  0  0  0  0
  160.6250  201.4010  148.5030 C   0  0  1  0  0  0  0  0  0  0  0  0
  161.0710  203.8500  148.3370 N   0  0  0  0  0  0  0  0  0  0  0  0
  161.2060  205.3380  149.9920 C   0  0  0  0  0  0  0  0  0  0  0  0
  160.9790  202.9990  151.9060 O   0  0  0  0  0  0  0  0  0  0  0  0
  161.0270  205.3920  152.4600 C   0  0  0  0  0  0  0  0  0  0  0  0
  161.7900  201.6170  147.6060 C   0  0  1  0  0  3  0  0  0  0  0  0
  160.9340  204.1010  152.7620 C   0  0  0  0  0  3  0  0  0  0  0  0
  161.3020  206.0250  148.7990 C   0  0  0  0  0  0  0  0  0  0  0  0
  162.1690  204.9420  145.5750 N   0  0  0  0  0  2  0  0  0  0  0  0
  160.1180  206.0530  145.7150 N   0  0  0  0  0  1  0  0  0  0  0  0
  161.2060  205.3680  146.3250 C   0  0  0  0  0  0  0  0  0  0  0  0
  161.3710  207.5120  148.6610 C   0  0  0  0  0  2  0  0  0  0  0  0
  162.3170  208.0860  149.7020 C   0  0  0  0  0  2  0  0  0  0  0  0
  162.2070  209.5680  149.7210 C   0  0  0  0  0  0  0  0  0  0  0  0
  162.0100  210.2680  148.5380 O   0  0  0  0  0  0  0  0  0  0  0  0
  162.3130  210.1890  150.8080 O   0  0  0  0  0  1  0  0  0  0  0  0
  160.9200  206.3610  153.5900 C   0  0  0  0  0  2  0  0  0  0  0  0
  160.9880  207.7960  153.0850 C   0  0  0  0  0  2  0  0  0  0  0  0
  161.0850  208.7640  154.2530 C   0  0  0  0  0  2  0  0  0  0  0  0
  161.1530  210.2080  153.7680 C   0  0  2  0  0  3  0  0  0  0  0  0
  161.5890  211.0300  154.8070 O   0  0  0  0  0  1  0  0  0  0  0  0
  159.8140  210.7100  153.2170 C   0  0  0  0  0  2  0  0  0  0  0  0
  158.3190  210.8920  155.2560 N   0  0  0  0  0  2  0  0  0  0  0  0
  159.0390  212.7850  154.0950 O   0  0  0  0  0  0  0  0  0  0  0  0
  159.0440  211.5300  154.2050 C   0  0  0  0  0  0  0  0  0  0  0  0
  157.5460  211.6540  156.2240 C   0  0  0  0  0  2  0  0  0  0  0  0
  155.5440  210.6620  155.1210 O   0  0  0  0  0  0  0  0  0  0  0  0
  156.1300  211.7360  155.7790 C   0  0  0  0  0  0  0  0  0  0  0  0
  155.4730  212.7920  155.9680 O   0  0  0  0  0  1  0  0  0  0  0  0
  1 12  1  0  0  0  0
  2  8  1  0  0  0  0
  3 10  1  0  0  0  0
  3  5  2  0  0  0  0
  4  9  1  1  0  0  0
  4  8  1  0  0  0  0
  5 11  1  0  0  0  0
  6  5  1  0  0  0  0
  7  9  1  0  0  0  0
  7 15  2  0  0  0  0
  8  6  1  1  0  0  0
  9  3  1  0  0  0  0
 10  1  2  0  0  0  0
 11 14  1  0  0  0  0
 12 14  2  0  0  0  0
 12 24  1  0  0  0  0
 13  4  1  0  0  0  0
 13  2  1  6  0  0  0
 13  8  1  0  0  0  0
 15 10  1  0  0  0  0
 16 18  2  0  0  0  0
 17 18  1  0  0  0  0
 18  7  1  0  0  0  0
 19 15  1  0  0  0  0
 19 20  1  0  0  0  0
 20 21  1  0  0  0  0
 21 23  1  0  0  0  0
 22 21  2  0  0  0  0
 25 24  1  0  0  0  0
 25 26  1  0  0  0  0
 27 26  1  0  0  0  0
 27 28  1  1  0  0  0
 29 27  1  0  0  0  0
 29 32  1  0  0  0  0
 30 33  1  0  0  0  0
 31 32  2  0  0  0  0
 32 30  1  0  0  0  0
 34 35  2  0  0  0  0
 35 36  1  0  0  0  0
 35 33  1  0  0  0  0
M  END
>  <MODEL>
4

>  <REMARK>
 VINA RESULT:      -7.4      1.521      2.018
  Name = 
  12 active torsions:
  status: ('A' for Active; 'I' for Inactive)
    1  A    between atoms: N_3  and  C_9
    2  A    between atoms: C_5  and  C_12
    3  A    between atoms: C_5  and  C_36
    4  A    between atoms: C_6  and  C_8
    5  A    between atoms: C_6  and  C_30
    6  A    between atoms: C_8  and  C_29
    7  A    between atoms: C_9  and  C_13
    8  A    between atoms: C_12  and  C_18
    9  A    between atoms: C_19  and  C_20
   10  A    between atoms: C_19  and  C_30
   11  A    between atoms: C_20  and  C_33
   12  A    between atoms: C_22  and  C_31
                            x       y       z     vdW  Elec       q    Type
                         _______ _______ _______ _____ _____    ______ ____

>  <TORSDO>
F 12

$$$$
=
 OpenBabel11072414343D

 36 40  0  0  1  0  0  0  0  0999 V2000
  161.1240  209.5130  151.1050 N   0  0  0  0  0  0  0  0  0  0  0  0
  160.2180  206.7560  156.9050 O   0  0  0  0  0  0  0  0  0  0  0  0
  160.8390  208.7670  153.3950 C   0  0  0  0  0  0  0  0  0  0  0  0
  160.6330  208.8910  155.8920 C   0  0  1  0  0  3  0  0  0  0  0  0
  161.1840  207.4720  153.3840 C   0  0  0  0  0  0  0  0  0  0  0  0
  160.9590  206.6440  154.6170 C   0  0  0  0  0  2  0  0  0  0  0  0
  160.1000  210.6670  154.2070 C   0  0  0  0  0  0  0  0  0  0  0  0
  160.9980  207.4120  155.9370 C   0  0  1  0  0  0  0  0  0  0  0  0
  160.4380  209.3940  154.5290 N   0  0  0  0  0  0  0  0  0  0  0  0
  160.7710  209.6640  152.3420 C   0  0  0  0  0  0  0  0  0  0  0  0
  161.6600  206.7680  152.2750 O   0  0  0  0  0  0  0  0  0  0  0  0
  161.7030  208.3930  150.4330 C   0  0  0  0  0  0  0  0  0  0  0  0
  159.6050  207.8350  156.2380 C   0  0  1  0  0  3  0  0  0  0  0  0
  161.9300  207.2010  150.9760 C   0  0  0  0  0  3  0  0  0  0  0  0
  160.2860  210.8540  152.8440 C   0  0  0  0  0  0  0  0  0  0  0  0
  160.4860  212.4240  155.8210 N   0  0  0  0  0  1  0  0  0  0  0  0
  158.2460  211.9530  155.3510 N   0  0  0  0  0  2  0  0  0  0  0  0
  159.6340  211.6980  155.1730 C   0  0  0  0  0  0  0  0  0  0  0  0
  160.1260  212.1210  152.0650 C   0  0  0  0  0  2  0  0  0  0  0  0
  158.6530  212.3940  151.8180 C   0  0  0  0  0  2  0  0  0  0  0  0
  158.5020  213.5480  150.8940 C   0  0  0  0  0  0  0  0  0  0  0  0
  159.5990  214.3400  150.5820 O   0  0  0  0  0  1  0  0  0  0  0  0
  157.3740  213.8190  150.4100 O   0  0  0  0  0  0  0  0  0  0  0  0
  162.1210  208.5800  149.0130 C   0  0  0  0  0  2  0  0  0  0  0  0
  162.3810  207.2390  148.3410 C   0  0  0  0  0  2  0  0  0  0  0  0
  161.1510  206.7850  147.5720 C   0  0  0  0  0  2  0  0  0  0  0  0
  161.5230  206.2900  146.1790 C   0  0  2  0  0  3  0  0  0  0  0  0
  160.3630  206.0170  145.4540 O   0  0  0  0  0  1  0  0  0  0  0  0
  162.4330  205.0560  146.2130 C   0  0  0  0  0  2  0  0  0  0  0  0
  161.4220  203.4650  147.9080 N   0  0  0  0  0  2  0  0  0  0  0  0
  161.3310  203.0300  145.6160 O   0  0  0  0  0  0  0  0  0  0  0  0
  161.6980  203.7960  146.5470 C   0  0  0  0  0  0  0  0  0  0  0  0
  160.7260  202.2410  148.2720 C   0  0  0  0  0  2  0  0  0  0  0  0
  160.5720  203.0790  150.6130 O   0  0  0  0  0  1  0  0  0  0  0  0
  160.8240  202.0280  149.7400 C   0  0  0  0  0  0  0  0  0  0  0  0
  161.1680  200.9050  150.1900 O   0  0  0  0  0  0  0  0  0  0  0  0
  1 10  2  0  0  0  0
  3  9  1  0  0  0  0
  4  9  1  6  0  0  0
  4  8  1  0  0  0  0
  4 13  1  0  0  0  0
  5  3  2  0  0  0  0
  5  6  1  0  0  0  0
  7  9  1  0  0  0  0
  7 18  1  0  0  0  0
  8  6  1  6  0  0  0
  8 13  1  0  0  0  0
  8  2  1  0  0  0  0
 10 15  1  0  0  0  0
 10  3  1  0  0  0  0
 11  5  1  0  0  0  0
 12 14  2  0  0  0  0
 12  1  1  0  0  0  0
 13  2  1  1  0  0  0
 14 11  1  0  0  0  0
 15  7  2  0  0  0  0
 18 17  2  0  0  0  0
 18 16  1  0  0  0  0
 19 15  1  0  0  0  0
 20 19  1  0  0  0  0
 21 20  1  0  0  0  0
 22 21  1  0  0  0  0
 23 21  2  0  0  0  0
 24 12  1  0  0  0  0
 25 24  1  0  0  0  0
 26 25  1  0  0  0  0
 27 28  1  6  0  0  0
 27 29  1  0  0  0  0
 27 26  1  0  0  0  0
 29 32  1  0  0  0  0
 30 33  1  0  0  0  0
 31 32  2  0  0  0  0
 32 30  1  0  0  0  0
 33 35  1  0  0  0  0
 35 36  2  0  0  0  0
 35 34  1  0  0  0  0
M  END
>  <MODEL>
5

>  <REMARK>
 VINA RESULT:      -7.3      2.053      8.706
  Name = 
  12 active torsions:
  status: ('A' for Active; 'I' for Inactive)
    1  A    between atoms: N_3  and  C_9
    2  A    between atoms: C_5  and  C_12
    3  A    between atoms: C_5  and  C_36
    4  A    between atoms: C_6  and  C_8
    5  A    between atoms: C_6  and  C_30
    6  A    between atoms: C_8  and  C_29
    7  A    between atoms: C_9  and  C_13
    8  A    between atoms: C_12  and  C_18
    9  A    between atoms: C_19  and  C_20
   10  A    between atoms: C_19  and  C_30
   11  A    between atoms: C_20  and  C_33
   12  A    between atoms: C_22  and  C_31
                            x       y       z     vdW  Elec       q    Type
                         _______ _______ _______ _____ _____    ______ ____

>  <TORSDO>
F 12

$$$$
=
 OpenBabel11072414343D

 36 40  0  0  1  0  0  0  0  0999 V2000
  161.2140  206.2180  151.1960 N   0  0  0  0  0  0  0  0  0  0  0  0
  161.1510  200.4630  148.2070 O   0  0  0  0  0  0  0  0  0  0  0  0
  161.0550  204.2150  149.8370 C   0  0  0  0  0  0  0  0  0  0  0  0
  160.6030  202.7690  147.8370 C   0  0  1  0  0  3  0  0  0  0  0  0
  160.9760  203.2060  150.7150 C   0  0  0  0  0  0  0  0  0  0  0  0
  161.0390  201.7920  150.2110 C   0  0  0  0  0  2  0  0  0  0  0  0
  161.1920  205.2040  147.8830 C   0  0  0  0  0  0  0  0  0  0  0  0
  160.5270  201.5800  148.7880 C   0  0  1  0  0  0  0  0  0  0  0  0
  161.0330  204.0050  148.4970 N   0  0  0  0  0  0  0  0  0  0  0  0
  161.2120  205.5710  150.0740 C   0  0  0  0  0  0  0  0  0  0  0  0
  160.9350  203.3390  152.1050 O   0  0  0  0  0  0  0  0  0  0  0  0
  161.0460  205.7550  152.5370 C   0  0  0  0  0  0  0  0  0  0  0  0
  161.6940  201.7210  147.8770 C   0  0  1  0  0  3  0  0  0  0  0  0
  160.9210  204.4830  152.9040 C   0  0  0  0  0  3  0  0  0  0  0  0
  161.3200  206.1940  148.8480 C   0  0  0  0  0  0  0  0  0  0  0  0
  160.2060  206.0080  145.8290 N   0  0  0  0  0  1  0  0  0  0  0  0
  162.3220  205.0360  145.6250 N   0  0  0  0  0  2  0  0  0  0  0  0
  161.1970  205.4160  146.4100 C   0  0  0  0  0  0  0  0  0  0  0  0
  161.4260  207.6710  148.6340 C   0  0  0  0  0  2  0  0  0  0  0  0
  162.2900  208.2900  149.7190 C   0  0  0  0  0  2  0  0  0  0  0  0
  162.1980  209.7720  149.6520 C   0  0  0  0  0  0  0  0  0  0  0  0
  162.3540  210.5340  150.8030 O   0  0  0  0  0  1  0  0  0  0  0  0
  161.9570  210.3350  148.5550 O   0  0  0  0  0  0  0  0  0  0  0  0
  160.9680  206.7820  153.6170 C   0  0  0  0  0  2  0  0  0  0  0  0
  161.0290  208.1880  153.0360 C   0  0  0  0  0  2  0  0  0  0  0  0
  161.0850  209.2200  154.1510 C   0  0  0  0  0  2  0  0  0  0  0  0
  160.7540  210.6130  153.6300 C   0  0  2  0  0  3  0  0  0  0  0  0
  160.7980  211.5290  154.6820 O   0  0  0  0  0  1  0  0  0  0  0  0
  159.3930  210.6740  152.9270 C   0  0  0  0  0  2  0  0  0  0  0  0
  159.9180  212.7330  151.5430 N   0  0  0  0  0  2  0  0  0  0  0  0
  157.9810  212.5910  152.8380 O   0  0  0  0  0  0  0  0  0  0  0  0
  159.0460  212.0470  152.4420 C   0  0  0  0  0  0  0  0  0  0  0  0
  159.6230  214.0740  151.0640 C   0  0  0  0  0  2  0  0  0  0  0  0
  157.6450  213.8190  149.5710 O   0  0  0  0  0  1  0  0  0  0  0  0
  159.0160  213.9980  149.7100 C   0  0  0  0  0  0  0  0  0  0  0  0
  159.7480  214.0620  148.6880 O   0  0  0  0  0  0  0  0  0  0  0  0
  1 12  1  0  0  0  0
  2  8  1  0  0  0  0
  3 10  1  0  0  0  0
  3  5  2  0  0  0  0
  4 13  1  0  0  0  0
  4  9  1  1  0  0  0
  4  8  1  0  0  0  0
  5 11  1  0  0  0  0
  6  5  1  0  0  0  0
  7  9  1  0  0  0  0
  7 15  2  0  0  0  0
  8  6  1  1  0  0  0
  9  3  1  0  0  0  0
 10  1  2  0  0  0  0
 11 14  1  0  0  0  0
 12 14  2  0  0  0  0
 12 24  1  0  0  0  0
 13  2  1  6  0  0  0
 13  8  1  0  0  0  0
 15 10  1  0  0  0  0
 16 18  1  0  0  0  0
 17 18  2  0  0  0  0
 18  7  1  0  0  0  0
 19 15  1  0  0  0  0
 19 20  1  0  0  0  0
 21 20  1  0  0  0  0
 21 22  1  0  0  0  0
 23 21  2  0  0  0  0
 25 24  1  0  0  0  0
 25 26  1  0  0  0  0
 27 26  1  0  0  0  0
 27 28  1  1  0  0  0
 29 27  1  0  0  0  0
 30 32  1  0  0  0  0
 32 31  2  0  0  0  0
 32 29  1  0  0  0  0
 33 30  1  0  0  0  0
 34 35  1  0  0  0  0
 35 33  1  0  0  0  0
 36 35  2  0  0  0  0
M  END
>  <MODEL>
6

>  <REMARK>
 VINA RESULT:      -7.3      1.227      2.080
  Name = 
  12 active torsions:
  status: ('A' for Active; 'I' for Inactive)
    1  A    between atoms: N_3  and  C_9
    2  A    between atoms: C_5  and  C_12
    3  A    between atoms: C_5  and  C_36
    4  A    between atoms: C_6  and  C_8
    5  A    between atoms: C_6  and  C_30
    6  A    between atoms: C_8  and  C_29
    7  A    between atoms: C_9  and  C_13
    8  A    between atoms: C_12  and  C_18
    9  A    between atoms: C_19  and  C_20
   10  A    between atoms: C_19  and  C_30
   11  A    between atoms: C_20  and  C_33
   12  A    between atoms: C_22  and  C_31
                            x       y       z     vdW  Elec       q    Type
                         _______ _______ _______ _____ _____    ______ ____

>  <TORSDO>
F 12

$$$$
=
 OpenBabel11072414343D

 36 40  0  0  1  0  0  0  0  0999 V2000
  161.1030  206.8800  150.3360 N   0  0  0  0  0  0  0  0  0  0  0  0
  162.1120  203.9360  144.6460 O   0  0  0  0  0  0  0  0  0  0  0  0
  161.5280  205.5170  148.3750 C   0  0  0  0  0  0  0  0  0  0  0  0
  161.9770  203.4700  146.9960 C   0  0  1  0  0  3  0  0  0  0  0  0
  162.0170  206.3670  147.4610 C   0  0  0  0  0  0  0  0  0  0  0  0
  162.2300  205.8850  146.0550 C   0  0  0  0  0  2  0  0  0  0  0  0
  160.8010  203.6200  149.2030 C   0  0  0  0  0  0  0  0  0  0  0  0
  162.5210  204.3930  145.9110 C   0  0  1  0  0  0  0  0  0  0  0  0
  161.3670  204.1960  148.1140 N   0  0  0  0  0  0  0  0  0  0  0  0
  161.0740  205.7770  149.6580 C   0  0  0  0  0  0  0  0  0  0  0  0
  162.2660  207.7260  147.6670 O   0  0  0  0  0  0  0  0  0  0  0  0
  161.6180  208.1680  149.9950 C   0  0  0  0  0  0  0  0  0  0  0  0
  161.2160  203.7100  145.7100 C   0  0  1  0  0  3  0  0  0  0  0  0
  162.1270  208.5080  148.8150 C   0  0  0  0  0  3  0  0  0  0  0  0
  160.5950  204.5910  150.1740 C   0  0  0  0  0  0  0  0  0  0  0  0
  159.5880  201.6250  148.5810 N   0  0  0  0  0  2  0  0  0  0  0  0
  161.2050  201.3490  150.2450 N   0  0  0  0  0  1  0  0  0  0  0  0
  160.4830  202.1720  149.3360 C   0  0  0  0  0  0  0  0  0  0  0  0
  160.0790  204.3980  151.5650 C   0  0  0  0  0  2  0  0  0  0  0  0
  161.2380  204.1740  152.5200 C   0  0  0  0  0  2  0  0  0  0  0  0
  161.6240  205.4610  153.1560 C   0  0  0  0  0  0  0  0  0  0  0  0
  160.8030  206.0370  154.1170 O   0  0  0  0  0  1  0  0  0  0  0  0
  162.6840  206.0380  152.8070 O   0  0  0  0  0  0  0  0  0  0  0  0
  161.6190  209.2150  151.0600 C   0  0  0  0  0  2  0  0  0  0  0  0
  160.6370  208.8630  152.1690 C   0  0  0  0  0  2  0  0  0  0  0  0
  161.0600  209.5150  153.4760 C   0  0  0  0  0  2  0  0  0  0  0  0
  160.0230  210.5290  153.9460 C   0  0  2  0  0  3  0  0  0  0  0  0
  160.5600  211.8150  153.8740 O   0  0  0  0  0  1  0  0  0  0  0  0
  159.5170  210.2420  155.3640 C   0  0  0  0  0  2  0  0  0  0  0  0
  157.2050  211.1080  154.7910 N   0  0  0  0  0  2  0  0  0  0  0  0
  158.2240  211.6000  156.8330 O   0  0  0  0  0  0  0  0  0  0  0  0
  158.2880  211.0200  155.7160 C   0  0  0  0  0  0  0  0  0  0  0  0
  156.0020  211.8700  155.0900 C   0  0  0  0  0  2  0  0  0  0  0  0
  157.1650  213.6500  153.7900 O   0  0  0  0  0  0  0  0  0  0  0  0
  155.9780  213.1080  154.2670 C   0  0  0  0  0  0  0  0  0  0  0  0
  154.8840  213.6840  154.0320 O   0  0  0  0  0  1  0  0  0  0  0  0
  2  8  1  0  0  0  0
  3 10  1  0  0  0  0
  4  9  1  1  0  0  0
  5 11  1  0  0  0  0
  5  3  2  0  0  0  0
  6  5  1  0  0  0  0
  7 18  1  0  0  0  0
  7 15  2  0  0  0  0
  8  6  1  1  0  0  0
  8  4  1  0  0  0  0
  9  3  1  0  0  0  0
  9  7  1  0  0  0  0
 10 15  1  0  0  0  0
 10  1  2  0  0  0  0
 11 14  1  0  0  0  0
 12  1  1  0  0  0  0
 12 24  1  0  0  0  0
 13  2  1  6  0  0  0
 13  8  1  0  0  0  0
 13  4  1  0  0  0  0
 14 12  2  0  0  0  0
 15 19  1  0  0  0  0
 16 18  2  0  0  0  0
 18 17  1  0  0  0  0
 19 20  1  0  0  0  0
 20 21  1  0  0  0  0
 21 22  1  0  0  0  0
 23 21  2  0  0  0  0
 24 25  1  0  0  0  0
 25 26  1  0  0  0  0
 26 27  1  0  0  0  0
 27 28  1  1  0  0  0
 27 29  1  0  0  0  0
 29 32  1  0  0  0  0
 30 33  1  0  0  0  0
 30 32  1  0  0  0  0
 32 31  2  0  0  0  0
 34 35  2  0  0  0  0
 35 33  1  0  0  0  0
 36 35  1  0  0  0  0
M  END
>  <MODEL>
7

>  <REMARK>
 VINA RESULT:      -7.3      2.244      4.147
  Name = 
  12 active torsions:
  status: ('A' for Active; 'I' for Inactive)
    1  A    between atoms: N_3  and  C_9
    2  A    between atoms: C_5  and  C_12
    3  A    between atoms: C_5  and  C_36
    4  A    between atoms: C_6  and  C_8
    5  A    between atoms: C_6  and  C_30
    6  A    between atoms: C_8  and  C_29
    7  A    between atoms: C_9  and  C_13
    8  A    between atoms: C_12  and  C_18
    9  A    between atoms: C_19  and  C_20
   10  A    between atoms: C_19  and  C_30
   11  A    between atoms: C_20  and  C_33
   12  A    between atoms: C_22  and  C_31
                            x       y       z     vdW  Elec       q    Type
                         _______ _______ _______ _____ _____    ______ ____

>  <TORSDO>
F 12

$$$$
=
 OpenBabel11072414343D

 36 40  0  0  1  0  0  0  0  0999 V2000
  162.0140  208.8280  148.3810 N   0  0  0  0  0  0  0  0  0  0  0  0
  161.2840  205.1300  153.6580 O   0  0  0  0  0  0  0  0  0  0  0  0
  161.5810  207.2480  150.1690 C   0  0  0  0  0  0  0  0  0  0  0  0
  160.7950  205.1560  151.3100 C   0  0  1  0  0  3  0  0  0  0  0  0
  161.5770  207.9840  151.2900 C   0  0  0  0  0  0  0  0  0  0  0  0
  161.5070  207.2910  152.6200 C   0  0  0  0  0  2  0  0  0  0  0  0
  161.4940  205.4460  148.9210 C   0  0  0  0  0  0  0  0  0  0  0  0
  160.7960  205.9390  152.6170 C   0  0  1  0  0  0  0  0  0  0  0  0
  161.3660  205.9090  150.1890 N   0  0  0  0  0  0  0  0  0  0  0  0
  161.8290  207.6410  148.8640 C   0  0  0  0  0  0  0  0  0  0  0  0
  161.7320  209.3710  151.3510 O   0  0  0  0  0  0  0  0  0  0  0  0
  162.0090  210.1050  149.0220 C   0  0  0  0  0  0  0  0  0  0  0  0
  161.8320  204.9000  152.3810 C   0  0  1  0  0  3  0  0  0  0  0  0
  161.8790  210.3110  150.3290 C   0  0  0  0  0  3  0  0  0  0  0  0
  161.7970  206.5070  148.0790 C   0  0  0  0  0  0  0  0  0  0  0  0
  161.9810  203.5410  147.5170 N   0  0  0  0  0  2  0  0  0  0  0  0
  160.4380  203.1670  149.2320 N   0  0  0  0  0  1  0  0  0  0  0  0
  161.3070  204.0290  148.5060 C   0  0  0  0  0  0  0  0  0  0  0  0
  161.9390  206.4820  146.5900 C   0  0  0  0  0  2  0  0  0  0  0  0
  160.5950  206.1820  145.9480 C   0  0  0  0  0  2  0  0  0  0  0  0
  160.7900  205.3310  144.7450 C   0  0  0  0  0  0  0  0  0  0  0  0
  161.4790  205.8260  143.6450 O   0  0  0  0  0  0  0  0  0  0  0  0
  160.3120  204.1700  144.7160 O   0  0  0  0  0  1  0  0  0  0  0  0
  162.1260  211.3140  148.1550 C   0  0  0  0  0  2  0  0  0  0  0  0
  161.5750  212.5450  148.8610 C   0  0  0  0  0  2  0  0  0  0  0  0
  161.9620  213.8060  148.1050 C   0  0  0  0  0  2  0  0  0  0  0  0
  161.8250  213.6110  146.6000 C   0  0  2  0  0  3  0  0  0  0  0  0
  162.7190  214.4530  145.9360 O   0  0  0  0  0  1  0  0  0  0  0  0
  160.3960  213.8510  146.1000 C   0  0  0  0  0  2  0  0  0  0  0  0
  160.2400  213.2990  143.6320 N   0  0  0  0  0  2  0  0  0  0  0  0
  159.4510  211.8300  145.2660 O   0  0  0  0  0  0  0  0  0  0  0  0
  160.0010  212.9300  144.9900 C   0  0  0  0  0  0  0  0  0  0  0  0
  159.8550  212.4370  142.5250 C   0  0  0  0  0  2  0  0  0  0  0  0
  162.3300  212.2030  142.3680 O   0  0  0  0  0  1  0  0  0  0  0  0
  161.0700  211.8490  141.9030 C   0  0  0  0  0  0  0  0  0  0  0  0
  160.9570  211.0550  140.9330 O   0  0  0  0  0  0  0  0  0  0  0  0
  1 10  2  0  0  0  0
  1 12  1  0  0  0  0
  3  9  1  0  0  0  0
  3  5  2  0  0  0  0
  4  9  1  6  0  0  0
  4 13  1  0  0  0  0
  4  8  1  0  0  0  0
  5 11  1  0  0  0  0
  5  6  1  0  0  0  0
  7  9  1  0  0  0  0
  8  6  1  6  0  0  0
  8  2  1  0  0  0  0
 10  3  1  0  0  0  0
 12 14  2  0  0  0  0
 13  8  1  0  0  0  0
 13  2  1  1  0  0  0
 14 11  1  0  0  0  0
 15 10  1  0  0  0  0
 15  7  2  0  0  0  0
 16 18  2  0  0  0  0
 18  7  1  0  0  0  0
 18 17  1  0  0  0  0
 19 15  1  0  0  0  0
 20 19  1  0  0  0  0
 21 20  1  0  0  0  0
 22 21  2  0  0  0  0
 23 21  1  0  0  0  0
 24 25  1  0  0  0  0
 24 12  1  0  0  0  0
 26 25  1  0  0  0  0
 27 28  1  6  0  0  0
 27 26  1  0  0  0  0
 29 27  1  0  0  0  0
 30 32  1  0  0  0  0
 32 31  2  0  0  0  0
 32 29  1  0  0  0  0
 33 30  1  0  0  0  0
 35 34  1  0  0  0  0
 35 33  1  0  0  0  0
 36 35  2  0  0  0  0
M  END
>  <MODEL>
8

>  <REMARK>
 VINA RESULT:      -6.7      3.929      7.217
  Name = 
  12 active torsions:
  status: ('A' for Active; 'I' for Inactive)
    1  A    between atoms: N_3  and  C_9
    2  A    between atoms: C_5  and  C_12
    3  A    between atoms: C_5  and  C_36
    4  A    between atoms: C_6  and  C_8
    5  A    between atoms: C_6  and  C_30
    6  A    between atoms: C_8  and  C_29
    7  A    between atoms: C_9  and  C_13
    8  A    between atoms: C_12  and  C_18
    9  A    between atoms: C_19  and  C_20
   10  A    between atoms: C_19  and  C_30
   11  A    between atoms: C_20  and  C_33
   12  A    between atoms: C_22  and  C_31
                            x       y       z     vdW  Elec       q    Type
                         _______ _______ _______ _____ _____    ______ ____

>  <TORSDO>
F 12

$$$$
=
 OpenBabel11072414343D

 36 40  0  0  1  0  0  0  0  0999 V2000
  162.0320  209.1450  149.0210 N   0  0  0  0  0  0  0  0  0  0  0  0
  160.9250  206.9560  155.0240 O   0  0  0  0  0  0  0  0  0  0  0  0
  161.4760  208.0820  151.1290 C   0  0  0  0  0  0  0  0  0  0  0  0
  160.6310  206.3400  152.7250 C   0  0  1  0  0  3  0  0  0  0  0  0
  161.3690  209.0880  152.0080 C   0  0  0  0  0  0  0  0  0  0  0  0
  161.2010  208.7710  153.4660 C   0  0  0  0  0  2  0  0  0  0  0  0
  161.5190  206.0110  150.4060 C   0  0  0  0  0  0  0  0  0  0  0  0
  160.5120  207.4420  153.7720 C   0  0  1  0  0  0  0  0  0  0  0  0
  161.2810  206.7890  151.4900 N   0  0  0  0  0  0  0  0  0  0  0  0
  161.8250  208.1230  149.7890 C   0  0  0  0  0  0  0  0  0  0  0  0
  161.4990  210.4460  151.7070 O   0  0  0  0  0  0  0  0  0  0  0  0
  161.9550  210.5450  149.2950 C   0  0  0  0  0  0  0  0  0  0  0  0
  161.5800  206.4160  153.9010 C   0  0  1  0  0  3  0  0  0  0  0  0
  161.7150  211.0860  150.4860 C   0  0  0  0  0  3  0  0  0  0  0  0
  161.8750  206.8210  149.3360 C   0  0  0  0  0  0  0  0  0  0  0  0
  160.8260  203.9420  149.3660 N   0  0  0  0  0  2  0  0  0  0  0  0
  161.9410  203.7260  151.4090 N   0  0  0  0  0  1  0  0  0  0  0  0
  161.3880  204.5290  150.3720 C   0  0  0  0  0  0  0  0  0  0  0  0
  162.1380  206.4060  147.9230 C   0  0  0  0  0  2  0  0  0  0  0  0
  160.8390  206.3960  147.1350 C   0  0  0  0  0  2  0  0  0  0  0  0
  161.0330  205.6710  145.8530 C   0  0  0  0  0  0  0  0  0  0  0  0
  162.0390  204.7210  145.7330 O   0  0  0  0  0  1  0  0  0  0  0  0
  160.2980  205.9340  144.8680 O   0  0  0  0  0  0  0  0  0  0  0  0
  162.1250  211.4830  148.1470 C   0  0  0  0  0  2  0  0  0  0  0  0
  161.4330  212.8110  148.4240 C   0  0  0  0  0  2  0  0  0  0  0  0
  160.1510  212.9190  147.6120 C   0  0  0  0  0  2  0  0  0  0  0  0
  160.4310  212.7910  146.1200 C   0  0  2  0  0  3  0  0  0  0  0  0
  161.1700  213.8920  145.6860 O   0  0  0  0  0  1  0  0  0  0  0  0
  159.1510  212.6470  145.2880 C   0  0  0  0  0  2  0  0  0  0  0  0
  160.2240  211.5430  143.2750 N   0  0  0  0  0  2  0  0  0  0  0  0
  158.9160  213.4640  143.0630 O   0  0  0  0  0  0  0  0  0  0  0  0
  159.4130  212.5850  143.8160 C   0  0  0  0  0  0  0  0  0  0  0  0
  160.5160  211.4600  141.8520 C   0  0  0  0  0  2  0  0  0  0  0  0
  162.4780  211.7200  140.3390 O   0  0  0  0  0  0  0  0  0  0  0  0
  161.9280  211.8520  141.6080 C   0  0  0  0  0  0  0  0  0  0  0  0
  162.6370  212.2730  142.5590 O   0  0  0  0  0  1  0  0  0  0  0  0
  1 12  1  0  0  0  0
  1 10  2  0  0  0  0
  3  9  1  0  0  0  0
  3  5  2  0  0  0  0
  4  9  1  6  0  0  0
  4  8  1  0  0  0  0
  4 13  1  0  0  0  0
  5  6  1  0  0  0  0
  7  9  1  0  0  0  0
  8  6  1  6  0  0  0
  8 13  1  0  0  0  0
  8  2  1  0  0  0  0
 10  3  1  0  0  0  0
 11  5  1  0  0  0  0
 12 14  2  0  0  0  0
 13  2  1  1  0  0  0
 14 11  1  0  0  0  0
 15 10  1  0  0  0  0
 15  7  2  0  0  0  0
 16 18  2  0  0  0  0
 18  7  1  0  0  0  0
 18 17  1  0  0  0  0
 19 15  1  0  0  0  0
 20 19  1  0  0  0  0
 21 20  1  0  0  0  0
 22 21  1  0  0  0  0
 23 21  2  0  0  0  0
 24 25  1  0  0  0  0
 24 12  1  0  0  0  0
 26 25  1  0  0  0  0
 27 28  1  6  0  0  0
 27 26  1  0  0  0  0
 29 27  1  0  0  0  0
 30 32  1  0  0  0  0
 31 32  2  0  0  0  0
 32 29  1  0  0  0  0
 33 30  1  0  0  0  0
 34 35  2  0  0  0  0
 35 33  1  0  0  0  0
 35 36  1  0  0  0  0
M  END
>  <MODEL>
9

>  <REMARK>
 VINA RESULT:      -6.7      4.044      7.873
  Name = 
  12 active torsions:
  status: ('A' for Active; 'I' for Inactive)
    1  A    between atoms: N_3  and  C_9
    2  A    between atoms: C_5  and  C_12
    3  A    between atoms: C_5  and  C_36
    4  A    between atoms: C_6  and  C_8
    5  A    between atoms: C_6  and  C_30
    6  A    between atoms: C_8  and  C_29
    7  A    between atoms: C_9  and  C_13
    8  A    between atoms: C_12  and  C_18
    9  A    between atoms: C_19  and  C_20
   10  A    between atoms: C_19  and  C_30
   11  A    between atoms: C_20  and  C_33
   12  A    between atoms: C_22  and  C_31
                            x       y       z     vdW  Elec       q    Type
                         _______ _______ _______ _____ _____    ______ ____

>  <TORSDO>
F 12

$$$$
