=
 OpenBabel11072410173D

 37 42  0  0  1  0  0  0  0  0999 V2000
  160.8540  210.6720  153.1960 O   0  0  0  0  0  0  0  0  0  0  0  0
  158.0010  211.7990  154.7840 C   0  0  0  0  0  3  0  0  0  0  0  0
  159.3560  213.6860  154.1010 C   0  0  0  0  0  3  0  0  0  0  0  0
  160.2570  212.7510  146.7720 N   0  0  0  0  0  0  0  0  0  0  0  0
  162.4470  209.2900  151.2920 O   0  0  0  0  0  0  0  0  0  0  0  0
  157.1700  213.3350  153.1080 C   0  0  0  0  0  0  0  0  0  0  0  0
  162.3360  209.3480  154.1950 C   0  0  0  0  0  2  0  0  0  0  0  0
  161.0110  212.6280  148.0290 C   0  0  1  0  0  3  0  0  0  0  0  0
  160.2300  212.1210  155.7190 O   0  0  0  0  0  0  0  0  0  0  0  0
  158.3530  214.0800  153.2100 C   0  0  0  0  0  3  0  0  0  0  0  0
  157.1050  214.2400  148.7080 C   0  0  2  0  0  3  0  0  0  0  0  0
  161.6020  209.5160  150.2000 C   0  0  1  0  0  3  0  0  0  0  0  0
  161.6690  210.7050  154.3570 C   0  0  2  0  0  3  0  0  0  0  0  0
  158.8910  213.2010  146.7860 C   0  0  0  0  0  0  0  0  0  0  0  0
  161.4560  209.1820  152.6630 P   0  0  1  0  0  0  0  0  0  0  0  0
  156.9920  212.2020  153.9090 C   0  0  0  0  0  3  0  0  0  0  0  0
  160.8410  210.8280  155.6450 C   0  0  2  0  0  3  0  0  0  0  0  0
  159.1930  212.5320  154.8740 C   0  0  0  0  0  0  0  0  0  0  0  0
  161.3840  211.2130  148.2860 C   0  0  2  0  0  3  0  0  0  0  0  0
  160.4150  208.0830  152.6420 O   0  0  0  0  0  0  0  0  0  0  0  0
  158.2170  213.2030  145.7200 O   0  0  0  0  0  0  0  0  0  0  0  0
  156.4550  214.4530  151.0270 N   0  0  0  0  0  2  0  0  0  0  0  0
  156.1580  213.6950  152.1670 N   0  0  0  0  0  2  0  0  0  0  0  0
  161.7630  210.9740  149.7420 C   0  0  0  0  0  2  0  0  0  0  0  0
  156.9140  213.5150  150.0150 C   0  0  2  0  0  3  0  0  0  0  0  0
  158.2730  213.6480  147.9900 N   0  0  0  0  0  0  0  0  0  0  0  0
  158.2400  213.9660  149.4490 C   0  0  1  0  0  3  0  0  0  0  0  0
  162.3060  212.1420  147.7690 O   0  0  0  0  0  0  0  0  0  0  0  0
  163.0060  208.6120  148.4800 O   0  0  0  0  0  0  0  0  0  0  0  0
  161.9330  208.5190  149.1300 C   0  0  0  0  0  0  0  0  0  0  0  0
  161.0610  207.4690  148.8750 O   0  0  0  0  0  1  0  0  0  0  0  0
  160.8870  212.4260  145.4900 C   0  0  0  0  0  2  0  0  0  0  0  0
  162.4120  214.4530  144.6600 C   0  0  0  0  0  3  0  0  0  0  0  0
  161.7230  213.5400  145.0340 C   0  0  0  0  0  0  0  0  0  0  0  0
  159.8320  209.7010  155.8640 C   0  0  0  0  0  2  0  0  0  0  0  0
  160.2280  208.8620  157.0630 C   0  0  0  0  0  2  0  0  0  0  0  0
  160.1510  207.5080  156.7390 O   0  0  0  0  0  1  0  0  0  0  0  0
  1 13  1  0  0  0  0
  2 18  1  0  0  0  0
  3 18  2  0  0  0  0
  4 14  1  0  0  0  0
  4  8  1  0  0  0  0
  5 15  1  0  0  0  0
  6 10  2  0  0  0  0
  6 16  1  0  0  0  0
  8 28  1  6  0  0  0
  8 19  1  0  0  0  0
 10  3  1  0  0  0  0
 11 26  1  6  0  0  0
 11 27  1  0  0  0  0
 11 25  1  0  0  0  0
 12 30  1  6  0  0  0
 12  5  1  0  0  0  0
 13  7  1  1  0  0  0
 13 17  1  0  0  0  0
 14 26  1  0  0  0  0
 15 20  2  6  0  0  0
 15  1  1  0  0  0  0
 15  7  1  0  0  0  0
 16  2  2  0  0  0  0
 17  9  1  0  0  0  0
 17 35  1  6  0  0  0
 18  9  1  0  0  0  0
 19 24  1  1  0  0  0
 21 14  2  0  0  0  0
 22 23  1  0  0  0  0
 23  6  1  0  0  0  0
 24 12  1  0  0  0  0
 25 22  1  1  0  0  0
 27 26  1  6  0  0  0
 27 25  1  0  0  0  0
 28 19  1  0  0  0  0
 29 30  2  0  0  0  0
 31 30  1  0  0  0  0
 32  4  1  0  0  0  0
 33 34  3  0  0  0  0
 34 32  1  0  0  0  0
 35 36  1  0  0  0  0
 37 36  1  0  0  0  0
M  END
>  <MODEL>
1

>  <REMARK>
 VINA RESULT:      -4.7      0.000      0.000
  Name = 
  5 active torsions:
  status: ('A' for Active; 'I' for Inactive)
    1  A    between atoms: N_4  and  C_14
    2  A    between atoms: C_11  and  C_16
    3  A    between atoms: C_14  and  C_19
    4  A    between atoms: C_22  and  C_32
    5  A    between atoms: C_23  and  C_32
                            x       y       z     vdW  Elec       q    Type
                         _______ _______ _______ _____ _____    ______ ____

>  <TORSDO>
F 5

$$$$
=
 OpenBabel11072410173D

 37 42  0  0  1  0  0  0  0  0999 V2000
  161.0250  209.5190  153.2980 O   0  0  0  0  0  0  0  0  0  0  0  0
  158.2970  210.5770  155.1320 C   0  0  0  0  0  3  0  0  0  0  0  0
  159.8770  212.3950  154.8960 C   0  0  0  0  0  3  0  0  0  0  0  0
  160.7960  213.0910  147.5420 N   0  0  0  0  0  0  0  0  0  0  0  0
  162.4780  208.4380  151.1080 O   0  0  0  0  0  0  0  0  0  0  0  0
  157.6840  212.5490  153.8700 C   0  0  0  0  0  0  0  0  0  0  0  0
  162.3220  207.8310  153.9460 C   0  0  0  0  0  2  0  0  0  0  0  0
  161.5060  212.5900  148.7290 C   0  0  1  0  0  3  0  0  0  0  0  0
  160.5310  210.4040  156.0950 O   0  0  0  0  0  0  0  0  0  0  0  0
  158.9440  213.1030  154.1310 C   0  0  0  0  0  3  0  0  0  0  0  0
  157.8070  214.4530  149.8030 C   0  0  2  0  0  3  0  0  0  0  0  0
  161.6860  209.0120  150.1080 C   0  0  1  0  0  3  0  0  0  0  0  0
  161.8160  209.1830  154.4270 C   0  0  2  0  0  3  0  0  0  0  0  0
  159.4920  213.6860  147.6740 C   0  0  0  0  0  0  0  0  0  0  0  0
  161.4560  208.1330  152.4260 P   0  0  1  0  0  0  0  0  0  0  0  0
  157.3580  211.2900  154.3860 C   0  0  0  0  0  3  0  0  0  0  0  0
  160.9850  209.1010  155.7160 C   0  0  2  0  0  3  0  0  0  0  0  0
  159.5650  211.1210  155.3800 C   0  0  0  0  0  0  0  0  0  0  0  0
  161.7050  211.1210  148.6440 C   0  0  2  0  0  3  0  0  0  0  0  0
  160.2940  207.2010  152.1590 O   0  0  0  0  0  0  0  0  0  0  0  0
  158.8430  214.0160  146.6450 O   0  0  0  0  0  0  0  0  0  0  0  0
  157.1440  214.1970  152.1140 N   0  0  0  0  0  2  0  0  0  0  0  0
  156.7380  213.2350  153.0490 N   0  0  0  0  0  2  0  0  0  0  0  0
  162.0270  210.5060  150.0010 C   0  0  0  0  0  2  0  0  0  0  0  0
  157.5080  213.4730  150.9070 C   0  0  2  0  0  3  0  0  0  0  0  0
  158.9100  213.9110  148.9550 N   0  0  0  0  0  0  0  0  0  0  0  0
  158.8880  213.8820  150.4480 C   0  0  1  0  0  3  0  0  0  0  0  0
  162.7400  212.0270  148.3490 O   0  0  0  0  0  0  0  0  0  0  0  0
  163.0430  208.2810  148.2710 O   0  0  0  0  0  0  0  0  0  0  0  0
  161.9170  208.2590  148.8320 C   0  0  0  0  0  0  0  0  0  0  0  0
  160.8860  207.5080  148.2800 O   0  0  0  0  0  1  0  0  0  0  0  0
  161.4060  213.0020  146.2140 C   0  0  0  0  0  2  0  0  0  0  0  0
  159.7330  211.8260  144.4980 C   0  0  0  0  0  3  0  0  0  0  0  0
  160.4880  212.3550  145.2720 C   0  0  0  0  0  0  0  0  0  0  0  0
  159.8470  208.0830  155.6750 C   0  0  0  0  0  2  0  0  0  0  0  0
  159.7220  207.3760  157.0110 C   0  0  0  0  0  2  0  0  0  0  0  0
  160.8430  206.5770  157.2300 O   0  0  0  0  0  1  0  0  0  0  0  0
  1 13  1  0  0  0  0
  2 18  1  0  0  0  0
  3 18  2  0  0  0  0
  4 14  1  0  0  0  0
  4  8  1  0  0  0  0
  5 15  1  0  0  0  0
  6 10  2  0  0  0  0
  6 16  1  0  0  0  0
  8 28  1  6  0  0  0
 10  3  1  0  0  0  0
 11 26  1  6  0  0  0
 11 27  1  0  0  0  0
 11 25  1  0  0  0  0
 12 30  1  6  0  0  0
 12  5  1  0  0  0  0
 13  7  1  6  0  0  0
 13 17  1  0  0  0  0
 14 26  1  0  0  0  0
 15 20  2  6  0  0  0
 15  1  1  0  0  0  0
 15  7  1  0  0  0  0
 16  2  2  0  0  0  0
 17 35  1  6  0  0  0
 17  9  1  0  0  0  0
 18  9  1  0  0  0  0
 19  8  1  0  0  0  0
 19 24  1  1  0  0  0
 21 14  2  0  0  0  0
 22 23  1  0  0  0  0
 23  6  1  0  0  0  0
 24 12  1  0  0  0  0
 25 22  1  1  0  0  0
 27 26  1  6  0  0  0
 27 25  1  0  0  0  0
 28 19  1  0  0  0  0
 29 30  2  0  0  0  0
 31 30  1  0  0  0  0
 32  4  1  0  0  0  0
 33 34  3  0  0  0  0
 34 32  1  0  0  0  0
 35 36  1  0  0  0  0
 36 37  1  0  0  0  0
M  END
>  <MODEL>
2

>  <REMARK>
 VINA RESULT:      -3.9      1.117      1.350
  Name = 
  5 active torsions:
  status: ('A' for Active; 'I' for Inactive)
    1  A    between atoms: N_4  and  C_14
    2  A    between atoms: C_11  and  C_16
    3  A    between atoms: C_14  and  C_19
    4  A    between atoms: C_22  and  C_32
    5  A    between atoms: C_23  and  C_32
                            x       y       z     vdW  Elec       q    Type
                         _______ _______ _______ _____ _____    ______ ____

>  <TORSDO>
F 5

$$$$
