=
 OpenBabel11072410303D

 32 35  0  0  1  0  0  0  0  0999 V2000
  161.3260  207.7560  152.9950 C   0  0  0  0  0  0  0  0  0  0  0  0
  163.0990  204.6990  145.9480 C   0  0  0  0  0  1  0  0  0  0  0  0
  161.5550  208.8050  149.5280 N   0  0  0  0  0  0  0  0  0  0  0  0
  161.1640  206.0660  146.7540 C   0  0  0  0  0  0  0  0  0  0  0  0
  161.8540  209.9400  150.0880 C   0  0  0  0  0  0  0  0  0  0  0  0
  160.9150  204.3950  149.0680 C   0  0  2  0  0  3  0  0  0  0  0  0
  161.5030  208.3740  154.2630 N   0  0  0  0  0  1  0  0  0  0  0  0
  160.4320  204.3560  151.5640 C   0  0  0  0  0  2  0  0  0  0  0  0
  160.8360  205.7830  151.6490 C   0  0  0  0  0  0  0  0  0  0  0  0
  161.3110  207.8850  150.5810 C   0  0  0  0  0  0  0  0  0  0  0  0
  161.8610  209.9030  151.5920 C   0  0  2  0  0  0  0  0  0  0  0  0
  160.9850  206.5230  150.4610 C   0  0  0  0  0  0  0  0  0  0  0  0
  161.1550  203.6580  150.4110 C   0  0  1  0  0  3  0  0  0  0  0  0
  162.0560  204.0950  148.1090 C   0  0  0  0  0  2  0  0  0  0  0  0
  161.1090  206.7230  145.7220 O   0  0  0  0  0  0  0  0  0  0  0  0
  160.9930  206.3970  152.9060 C   0  0  0  0  0  3  0  0  0  0  0  0
  161.7890  204.6840  146.7210 C   0  0  2  0  0  3  0  0  0  0  0  0
  160.8420  210.8620  152.1770 C   0  0  0  0  0  1  0  0  0  0  0  0
  163.1390  210.1650  152.0870 O   0  0  0  0  0  1  0  0  0  0  0  0
  161.4800  208.4800  151.8080 C   0  0  0  0  0  0  0  0  0  0  0  0
  160.8390  205.8580  149.1900 N   0  0  0  0  0  0  0  0  0  0  0  0
  160.4870  206.6130  147.9880 C   0  0  0  0  0  2  0  0  0  0  0  0
  161.8450  201.3390  151.0490 C   0  0  0  0  0  1  0  0  0  0  0  0
  160.7360  202.1710  150.4090 C   0  0  2  0  0  3  0  0  0  0  0  0
  161.1430  200.5480  148.6490 O   0  0  0  0  0  1  0  0  0  0  0  0
  160.3220  201.6100  149.0360 C   0  0  1  0  0  3  0  0  0  0  0  0
  158.8970  201.0980  149.1040 C   0  0  0  0  0  1  0  0  0  0  0  0
  162.1540  211.0890  149.3520 O   0  0  0  0  0  0  0  0  0  0  0  0
  161.5940  211.3280  148.0970 C   0  0  0  0  0  3  0  0  0  0  0  0
  161.3490  212.5640  147.6690 C   0  0  0  0  0  3  0  0  0  0  0  0
  161.6820  213.7690  148.4870 C   0  0  0  0  0  2  0  0  0  0  0  0
  162.8500  214.3580  147.9940 O   0  0  0  0  0  1  0  0  0  0  0  0
  1  7  1  0  0  0  0
  3  5  2  0  0  0  0
  3 10  1  0  0  0  0
  4 22  1  0  0  0  0
  5 11  1  0  0  0  0
  6 14  1  6  0  0  0
  6 21  1  0  0  0  0
  6 13  1  0  0  0  0
  8  9  1  0  0  0  0
  9 16  2  0  0  0  0
 10 20  1  0  0  0  0
 11 20  1  0  0  0  0
 11 19  1  0  0  0  0
 11 18  1  1  0  0  0
 12 10  2  0  0  0  0
 12  9  1  0  0  0  0
 13 24  1  6  0  0  0
 13  8  1  0  0  0  0
 15  4  2  0  0  0  0
 16  1  1  0  0  0  0
 17  2  1  6  0  0  0
 17  4  1  0  0  0  0
 17 14  1  0  0  0  0
 20  1  2  0  0  0  0
 21 12  1  0  0  0  0
 22 21  1  0  0  0  0
 24 23  1  6  0  0  0
 25 26  1  0  0  0  0
 26 27  1  1  0  0  0
 26 24  1  0  0  0  0
 28  5  1  0  0  0  0
 29 28  1  0  0  0  0
 30 29  2  0  0  0  0
 30 31  1  0  0  0  0
 32 31  1  0  0  0  0
M  END
>  <MODEL>
1

>  <REMARK>
 VINA RESULT:      -8.4      0.000      0.000
  Name = 
  5 active torsions:
  status: ('A' for Active; 'I' for Inactive)
    1  A    between atoms: C_1  and  C_30
    2  A    between atoms: C_6  and  O_9
    3  A    between atoms: C_7  and  O_9
    4  A    between atoms: C_16  and  C_28
    5  A    between atoms: C_25  and  C_28
                            x       y       z     vdW  Elec       q    Type
                         _______ _______ _______ _____ _____    ______ ____

>  <TORSDO>
F 5

$$$$
=
 OpenBabel11072410303D

 32 35  0  0  1  0  0  0  0  0999 V2000
  161.1080  203.7930  150.9590 C   0  0  0  0  0  0  0  0  0  0  0  0
  159.7650  211.5180  151.7690 C   0  0  0  0  0  1  0  0  0  0  0  0
  161.6030  206.8720  149.1040 N   0  0  0  0  0  0  0  0  0  0  0  0
  161.8070  210.2200  151.1310 C   0  0  0  0  0  0  0  0  0  0  0  0
  161.4700  206.0650  148.0940 C   0  0  0  0  0  0  0  0  0  0  0  0
  161.3670  208.4090  153.3060 C   0  0  2  0  0  3  0  0  0  0  0  0
  160.8840  202.4270  150.6320 N   0  0  0  0  0  1  0  0  0  0  0  0
  161.4690  205.9780  154.0420 C   0  0  0  0  0  2  0  0  0  0  0  0
  161.3630  205.5590  152.6200 C   0  0  0  0  0  0  0  0  0  0  0  0
  161.4960  206.0800  150.2770 C   0  0  0  0  0  0  0  0  0  0  0  0
  161.2400  204.6290  148.4800 C   0  0  2  0  0  0  0  0  0  0  0  0
  161.5440  206.5210  151.6100 C   0  0  0  0  0  0  0  0  0  0  0  0
  160.7890  207.3310  154.2580 C   0  0  1  0  0  3  0  0  0  0  0  0
  160.3380  209.5080  153.0930 C   0  0  0  0  0  2  0  0  0  0  0  0
  162.1450  211.0370  150.2830 O   0  0  0  0  0  0  0  0  0  0  0  0
  161.1600  204.2030  152.2990 C   0  0  0  0  0  3  0  0  0  0  0  0
  160.9180  210.6670  152.2770 C   0  0  2  0  0  3  0  0  0  0  0  0
  162.3420  203.7290  147.9550 C   0  0  0  0  0  1  0  0  0  0  0  0
  159.9870  204.1940  148.0440 O   0  0  0  0  0  1  0  0  0  0  0  0
  161.2810  204.7590  149.9630 C   0  0  0  0  0  0  0  0  0  0  0  0
  161.7280  207.9040  151.9740 N   0  0  0  0  0  0  0  0  0  0  0  0
  162.3980  208.8330  151.0640 C   0  0  0  0  0  2  0  0  0  0  0  0
  159.6490  207.1460  156.4780 C   0  0  0  0  0  1  0  0  0  0  0  0
  160.8850  207.6840  155.7590 C   0  0  2  0  0  3  0  0  0  0  0  0
  160.0360  209.7330  156.7500 O   0  0  0  0  0  1  0  0  0  0  0  0
  161.1190  209.1740  156.0670 C   0  0  1  0  0  3  0  0  0  0  0  0
  162.3500  209.3260  156.9390 C   0  0  0  0  0  1  0  0  0  0  0  0
  161.5250  206.4980  146.7680 O   0  0  0  0  0  0  0  0  0  0  0  0
  160.3920  206.5230  145.9530 C   0  0  0  0  0  3  0  0  0  0  0  0
  160.2700  205.7050  144.9100 C   0  0  0  0  0  3  0  0  0  0  0  0
  161.3130  204.6940  144.5640 C   0  0  0  0  0  2  0  0  0  0  0  0
  160.8630  203.4200  144.9200 O   0  0  0  0  0  1  0  0  0  0  0  0
  1 16  1  0  0  0  0
  3 10  1  0  0  0  0
  4 17  1  0  0  0  0
  5 11  1  0  0  0  0
  5  3  2  0  0  0  0
  6 14  1  6  0  0  0
  6 13  1  0  0  0  0
  7  1  1  0  0  0  0
  8 13  1  0  0  0  0
  9  8  1  0  0  0  0
 10 12  2  0  0  0  0
 11 18  1  6  0  0  0
 11 20  1  0  0  0  0
 12 21  1  0  0  0  0
 12  9  1  0  0  0  0
 13 24  1  1  0  0  0
 15  4  2  0  0  0  0
 16  9  2  0  0  0  0
 17  2  1  6  0  0  0
 17 14  1  0  0  0  0
 19 11  1  0  0  0  0
 20 10  1  0  0  0  0
 20  1  2  0  0  0  0
 21  6  1  0  0  0  0
 22  4  1  0  0  0  0
 22 21  1  0  0  0  0
 24 26  1  0  0  0  0
 24 23  1  1  0  0  0
 26 25  1  0  0  0  0
 26 27  1  1  0  0  0
 28  5  1  0  0  0  0
 29 28  1  0  0  0  0
 30 29  2  0  0  0  0
 31 30  1  0  0  0  0
 31 32  1  0  0  0  0
M  END
>  <MODEL>
2

>  <REMARK>
 VINA RESULT:      -7.7      2.246      6.979
  Name = 
  5 active torsions:
  status: ('A' for Active; 'I' for Inactive)
    1  A    between atoms: C_1  and  C_30
    2  A    between atoms: C_6  and  O_9
    3  A    between atoms: C_7  and  O_9
    4  A    between atoms: C_16  and  C_28
    5  A    between atoms: C_25  and  C_28
                            x       y       z     vdW  Elec       q    Type
                         _______ _______ _______ _____ _____    ______ ____

>  <TORSDO>
F 5

$$$$
=
 OpenBabel11072410303D

 32 35  0  0  1  0  0  0  0  0999 V2000
  161.7340  209.4780  149.9720 C   0  0  0  0  0  0  0  0  0  0  0  0
  159.1780  202.0290  150.3230 C   0  0  0  0  0  1  0  0  0  0  0  0
  161.1230  206.9010  152.4540 N   0  0  0  0  0  0  0  0  0  0  0  0
  161.1940  203.1650  151.2730 C   0  0  0  0  0  0  0  0  0  0  0  0
  160.8910  207.9390  153.2010 C   0  0  0  0  0  0  0  0  0  0  0  0
  161.6960  204.4370  148.7560 C   0  0  2  0  0  3  0  0  0  0  0  0
  161.7020  210.8990  149.9460 N   0  0  0  0  0  1  0  0  0  0  0  0
  162.4540  206.5830  147.6240 C   0  0  0  0  0  2  0  0  0  0  0  0
  162.0660  207.3440  148.8400 C   0  0  0  0  0  0  0  0  0  0  0  0
  161.4810  207.3930  151.1720 C   0  0  0  0  0  0  0  0  0  0  0  0
  161.0520  209.2570  152.4920 C   0  0  2  0  0  0  0  0  0  0  0  0
  161.7880  206.6400  150.0260 C   0  0  0  0  0  0  0  0  0  0  0  0
  161.6050  205.3190  147.4840 C   0  0  1  0  0  3  0  0  0  0  0  0
  160.4540  203.5660  148.8640 C   0  0  0  0  0  2  0  0  0  0  0  0
  161.1360  202.5410  152.3250 O   0  0  0  0  0  0  0  0  0  0  0  0
  162.0530  208.7520  148.8150 C   0  0  0  0  0  3  0  0  0  0  0  0
  160.5660  202.5740  150.0250 C   0  0  2  0  0  3  0  0  0  0  0  0
  162.1320  210.1050  153.1340 C   0  0  0  0  0  1  0  0  0  0  0  0
  159.8380  209.9430  152.4420 O   0  0  0  0  0  1  0  0  0  0  0  0
  161.4510  208.7670  151.1430 C   0  0  0  0  0  0  0  0  0  0  0  0
  161.7880  205.1980  150.0100 N   0  0  0  0  0  0  0  0  0  0  0  0
  162.0060  204.4380  151.2400 C   0  0  0  0  0  2  0  0  0  0  0  0
  163.5210  204.7770  145.9680 C   0  0  0  0  0  1  0  0  0  0  0  0
  162.0180  204.6040  146.1780 C   0  0  2  0  0  3  0  0  0  0  0  0
  160.4510  203.9490  144.4410 O   0  0  0  0  0  1  0  0  0  0  0  0
  161.2170  205.0120  144.9280 C   0  0  1  0  0  3  0  0  0  0  0  0
  160.2730  206.1460  145.2770 C   0  0  0  0  0  1  0  0  0  0  0  0
  160.5140  207.8360  154.5420 O   0  0  0  0  0  0  0  0  0  0  0  0
  161.4480  207.6200  155.5550 C   0  0  0  0  0  3  0  0  0  0  0  0
  161.6240  208.5020  156.5370 C   0  0  0  0  0  3  0  0  0  0  0  0
  160.8190  209.7560  156.6340 C   0  0  0  0  0  2  0  0  0  0  0  0
  161.6710  210.8610  156.5780 O   0  0  0  0  0  1  0  0  0  0  0  0
  1 20  1  0  0  0  0
  3  5  2  0  0  0  0
  4 15  2  0  0  0  0
  5 28  1  0  0  0  0
  6 14  1  1  0  0  0
  6 21  1  0  0  0  0
  7  1  1  0  0  0  0
  8  9  1  0  0  0  0
  9 12  2  0  0  0  0
 10  3  1  0  0  0  0
 11 18  1  1  0  0  0
 11  5  1  0  0  0  0
 12 10  1  0  0  0  0
 13 24  1  6  0  0  0
 13  8  1  0  0  0  0
 13  6  1  0  0  0  0
 14 17  1  0  0  0  0
 16  9  1  0  0  0  0
 16  1  2  0  0  0  0
 17  2  1  1  0  0  0
 17  4  1  0  0  0  0
 19 11  1  0  0  0  0
 20 10  2  0  0  0  0
 20 11  1  0  0  0  0
 21 12  1  0  0  0  0
 21 22  1  0  0  0  0
 22  4  1  0  0  0  0
 24 23  1  6  0  0  0
 25 26  1  0  0  0  0
 26 27  1  1  0  0  0
 26 24  1  0  0  0  0
 28 29  1  0  0  0  0
 29 30  2  0  0  0  0
 30 31  1  0  0  0  0
 32 31  1  0  0  0  0
M  END
>  <MODEL>
3

>  <REMARK>
 VINA RESULT:      -7.7      2.425      5.209
  Name = 
  5 active torsions:
  status: ('A' for Active; 'I' for Inactive)
    1  A    between atoms: C_1  and  C_30
    2  A    between atoms: C_6  and  O_9
    3  A    between atoms: C_7  and  O_9
    4  A    between atoms: C_16  and  C_28
    5  A    between atoms: C_25  and  C_28
                            x       y       z     vdW  Elec       q    Type
                         _______ _______ _______ _____ _____    ______ ____

>  <TORSDO>
F 5

$$$$
=
 OpenBabel11072410303D

 32 35  0  0  1  0  0  0  0  0999 V2000
  160.8460  207.5260  153.5920 C   0  0  0  0  0  0  0  0  0  0  0  0
  158.6380  213.4290  148.8570 C   0  0  0  0  0  1  0  0  0  0  0  0
  161.5690  208.7950  150.2700 N   0  0  0  0  0  0  0  0  0  0  0  0
  160.8850  212.5890  149.5670 C   0  0  0  0  0  0  0  0  0  0  0  0
  161.8030  207.5360  150.0440 C   0  0  0  0  0  0  0  0  0  0  0  0
  160.0090  212.4760  152.2930 C   0  0  2  0  0  3  0  0  0  0  0  0
  160.8490  206.2510  154.2210 N   0  0  0  0  0  1  0  0  0  0  0  0
  160.1150  211.1490  154.4590 C   0  0  0  0  0  2  0  0  0  0  0  0
  160.4570  209.9310  153.6780 C   0  0  0  0  0  0  0  0  0  0  0  0
  161.2050  208.9030  151.6370 C   0  0  0  0  0  0  0  0  0  0  0  0
  161.6030  206.6480  151.2420 C   0  0  2  0  0  0  0  0  0  0  0  0
  160.8310  210.0680  152.3290 C   0  0  0  0  0  0  0  0  0  0  0  0
  159.2830  212.1150  153.6140 C   0  0  1  0  0  3  0  0  0  0  0  0
  158.9890  212.8980  151.2480 C   0  0  0  0  0  2  0  0  0  0  0  0
  161.3760  212.7580  148.4580 O   0  0  0  0  0  0  0  0  0  0  0  0
  160.4770  208.6730  154.3090 C   0  0  0  0  0  3  0  0  0  0  0  0
  159.6700  213.4030  149.9720 C   0  0  2  0  0  3  0  0  0  0  0  0
  162.8850  205.9350  151.6260 C   0  0  0  0  0  1  0  0  0  0  0  0
  160.5700  205.7370  151.0150 O   0  0  0  0  0  1  0  0  0  0  0  0
  161.2080  207.6720  152.2490 C   0  0  0  0  0  0  0  0  0  0  0  0
  160.7790  211.3680  151.7080 N   0  0  0  0  0  0  0  0  0  0  0  0
  161.5940  211.6670  150.5310 C   0  0  0  0  0  2  0  0  0  0  0  0
  159.6140  213.1960  155.8470 C   0  0  0  0  0  1  0  0  0  0  0  0
  158.9150  213.3300  154.4950 C   0  0  2  0  0  3  0  0  0  0  0  0
  156.9070  214.3810  153.6200 O   0  0  0  0  0  1  0  0  0  0  0  0
  157.4050  213.5860  154.6560 C   0  0  1  0  0  3  0  0  0  0  0  0
  156.6600  212.2670  154.6320 C   0  0  0  0  0  1  0  0  0  0  0  0
  162.1950  207.0520  148.7940 O   0  0  0  0  0  0  0  0  0  0  0  0
  161.2820  206.8760  147.7530 C   0  0  0  0  0  3  0  0  0  0  0  0
  161.1550  205.7050  147.1320 C   0  0  0  0  0  3  0  0  0  0  0  0
  161.9530  204.5050  147.5250 C   0  0  0  0  0  2  0  0  0  0  0  0
  161.2130  203.7270  148.4190 O   0  0  0  0  0  1  0  0  0  0  0  0
  1  7  1  0  0  0  0
  1 16  1  0  0  0  0
  3 10  1  0  0  0  0
  4 17  1  0  0  0  0
  4 22  1  0  0  0  0
  5  3  2  0  0  0  0
  5 11  1  0  0  0  0
  6 14  1  6  0  0  0
  6 13  1  0  0  0  0
  9 16  2  0  0  0  0
  9  8  1  0  0  0  0
 10 20  1  0  0  0  0
 10 12  2  0  0  0  0
 11 18  1  1  0  0  0
 11 20  1  0  0  0  0
 12  9  1  0  0  0  0
 13  8  1  0  0  0  0
 13 24  1  1  0  0  0
 15  4  2  0  0  0  0
 17  2  1  6  0  0  0
 17 14  1  0  0  0  0
 19 11  1  0  0  0  0
 20  1  2  0  0  0  0
 21  6  1  0  0  0  0
 21 12  1  0  0  0  0
 22 21  1  0  0  0  0
 24 26  1  0  0  0  0
 24 23  1  1  0  0  0
 25 26  1  0  0  0  0
 26 27  1  6  0  0  0
 28  5  1  0  0  0  0
 29 28  1  0  0  0  0
 30 31  1  0  0  0  0
 30 29  2  0  0  0  0
 31 32  1  0  0  0  0
M  END
>  <MODEL>
4

>  <REMARK>
 VINA RESULT:      -6.9      2.932      7.862
  Name = 
  5 active torsions:
  status: ('A' for Active; 'I' for Inactive)
    1  A    between atoms: C_1  and  C_30
    2  A    between atoms: C_6  and  O_9
    3  A    between atoms: C_7  and  O_9
    4  A    between atoms: C_16  and  C_28
    5  A    between atoms: C_25  and  C_28
                            x       y       z     vdW  Elec       q    Type
                         _______ _______ _______ _____ _____    ______ ____

>  <TORSDO>
F 5

$$$$
=
 OpenBabel11072410303D

 32 35  0  0  1  0  0  0  0  0999 V2000
  161.0460  204.5790  152.3040 C   0  0  0  0  0  0  0  0  0  0  0  0
  159.2220  212.2190  151.6330 C   0  0  0  0  0  1  0  0  0  0  0  0
  161.1150  207.2070  149.8020 N   0  0  0  0  0  0  0  0  0  0  0  0
  161.2780  210.9190  151.0450 C   0  0  0  0  0  0  0  0  0  0  0  0
  160.9390  206.1940  149.0060 C   0  0  0  0  0  0  0  0  0  0  0  0
  161.2020  209.6010  153.5880 C   0  0  2  0  0  3  0  0  0  0  0  0
  160.8920  203.1660  152.2980 N   0  0  0  0  0  1  0  0  0  0  0  0
  161.5600  207.3940  154.7990 C   0  0  0  0  0  2  0  0  0  0  0  0
  161.3390  206.6740  153.5180 C   0  0  0  0  0  0  0  0  0  0  0  0
  161.1900  206.6820  151.1180 C   0  0  0  0  0  0  0  0  0  0  0  0
  160.8580  204.8660  149.7070 C   0  0  2  0  0  0  0  0  0  0  0  0
  161.3430  207.4030  152.3150 C   0  0  0  0  0  0  0  0  0  0  0  0
  160.8070  208.7260  154.8050 C   0  0  1  0  0  3  0  0  0  0  0  0
  160.0780  210.5740  153.2710 C   0  0  0  0  0  2  0  0  0  0  0  0
  161.4650  211.5500  150.0120 O   0  0  0  0  0  0  0  0  0  0  0  0
  161.2050  205.2720  153.5130 C   0  0  0  0  0  3  0  0  0  0  0  0
  160.4820  211.5570  152.1690 C   0  0  2  0  0  3  0  0  0  0  0  0
  161.9630  203.9310  149.2570 C   0  0  0  0  0  1  0  0  0  0  0  0
  159.6020  204.2850  149.5210 O   0  0  0  0  0  1  0  0  0  0  0  0
  161.0420  205.3150  151.1150 C   0  0  0  0  0  0  0  0  0  0  0  0
  161.4600  208.8390  152.3570 N   0  0  0  0  0  0  0  0  0  0  0  0
  161.9610  209.5820  151.2020 C   0  0  0  0  0  2  0  0  0  0  0  0
  159.6790  209.8060  156.7600 C   0  0  0  0  0  1  0  0  0  0  0  0
  161.0310  209.3990  156.1780 C   0  0  2  0  0  3  0  0  0  0  0  0
  161.3950  211.7820  156.4810 O   0  0  0  0  0  1  0  0  0  0  0  0
  162.0270  210.5740  156.1750 C   0  0  1  0  0  3  0  0  0  0  0  0
  163.1020  210.3320  157.2160 C   0  0  0  0  0  1  0  0  0  0  0  0
  160.8240  206.3330  147.6200 O   0  0  0  0  0  0  0  0  0  0  0  0
  161.9360  206.5540  146.8070 C   0  0  0  0  0  3  0  0  0  0  0  0
  162.3190  205.6600  145.8980 C   0  0  0  0  0  3  0  0  0  0  0  0
  161.5740  204.3870  145.6700 C   0  0  0  0  0  2  0  0  0  0  0  0
  160.7020  204.5460  144.5890 O   0  0  0  0  0  1  0  0  0  0  0  0
  1 16  1  0  0  0  0
  3 10  1  0  0  0  0
  4 22  1  0  0  0  0
  4 17  1  0  0  0  0
  5 11  1  0  0  0  0
  5  3  2  0  0  0  0
  6 14  1  6  0  0  0
  6 13  1  0  0  0  0
  7  1  1  0  0  0  0
  8 13  1  0  0  0  0
  9  8  1  0  0  0  0
 10 12  2  0  0  0  0
 11 18  1  6  0  0  0
 11 20  1  0  0  0  0
 12 21  1  0  0  0  0
 12  9  1  0  0  0  0
 13 24  1  1  0  0  0
 15  4  2  0  0  0  0
 16  9  2  0  0  0  0
 17  2  1  6  0  0  0
 17 14  1  0  0  0  0
 19 11  1  0  0  0  0
 20 10  1  0  0  0  0
 20  1  2  0  0  0  0
 21  6  1  0  0  0  0
 22 21  1  0  0  0  0
 24 23  1  6  0  0  0
 26 24  1  0  0  0  0
 26 25  1  0  0  0  0
 26 27  1  1  0  0  0
 28  5  1  0  0  0  0
 29 28  1  0  0  0  0
 30 29  2  0  0  0  0
 31 30  1  0  0  0  0
 32 31  1  0  0  0  0
M  END
>  <MODEL>
5

>  <REMARK>
 VINA RESULT:      -6.9      2.423      7.323
  Name = 
  5 active torsions:
  status: ('A' for Active; 'I' for Inactive)
    1  A    between atoms: C_1  and  C_30
    2  A    between atoms: C_6  and  O_9
    3  A    between atoms: C_7  and  O_9
    4  A    between atoms: C_16  and  C_28
    5  A    between atoms: C_25  and  C_28
                            x       y       z     vdW  Elec       q    Type
                         _______ _______ _______ _____ _____    ______ ____

>  <TORSDO>
F 5

$$$$
=
 OpenBabel11072410303D

 32 35  0  0  1  0  0  0  0  0999 V2000
  159.0450  213.4980  152.4890 C   0  0  0  0  0  0  0  0  0  0  0  0
  161.4640  206.9160  148.8870 C   0  0  0  0  0  1  0  0  0  0  0  0
  160.2350  210.1790  153.3480 N   0  0  0  0  0  0  0  0  0  0  0  0
  162.4540  208.2910  150.7280 C   0  0  0  0  0  0  0  0  0  0  0  0
  159.4720  210.3780  154.3820 C   0  0  0  0  0  0  0  0  0  0  0  0
  161.9530  210.6880  149.2430 C   0  0  2  0  0  3  0  0  0  0  0  0
  158.1700  214.4530  153.0740 N   0  0  0  0  0  1  0  0  0  0  0  0
  161.2150  213.1160  149.3970 C   0  0  0  0  0  2  0  0  0  0  0  0
  160.5190  212.8070  150.6740 C   0  0  0  0  0  0  0  0  0  0  0  0
  160.1540  211.3500  152.5510 C   0  0  0  0  0  0  0  0  0  0  0  0
  158.7740  211.7110  154.3860 C   0  0  2  0  0  0  0  0  0  0  0  0
  160.7840  211.5850  151.3170 C   0  0  0  0  0  0  0  0  0  0  0  0
  161.2820  211.8760  148.5060 C   0  0  1  0  0  3  0  0  0  0  0  0
  161.4850  209.3770  148.6320 C   0  0  0  0  0  2  0  0  0  0  0  0
  162.8390  207.3080  151.3490 O   0  0  0  0  0  0  0  0  0  0  0  0
  159.6670  213.7620  151.2600 C   0  0  0  0  0  3  0  0  0  0  0  0
  162.2320  208.1820  149.2310 C   0  0  2  0  0  3  0  0  0  0  0  0
  159.1690  212.5420  155.5910 C   0  0  0  0  0  1  0  0  0  0  0  0
  157.3900  211.5450  154.3220 O   0  0  0  0  0  1  0  0  0  0  0  0
  159.3090  212.2760  153.1160 C   0  0  0  0  0  0  0  0  0  0  0  0
  161.6440  210.6200  150.6780 N   0  0  0  0  0  0  0  0  0  0  0  0
  162.3420  209.6040  151.4660 C   0  0  0  0  0  2  0  0  0  0  0  0
  163.2130  213.0990  147.4860 C   0  0  0  0  0  1  0  0  0  0  0  0
  161.9650  212.2740  147.1780 C   0  0  2  0  0  3  0  0  0  0  0  0
  161.6480  213.0480  144.8970 O   0  0  0  0  0  1  0  0  0  0  0  0
  161.0510  212.9800  146.1590 C   0  0  1  0  0  3  0  0  0  0  0  0
  159.7530  212.2100  146.0210 C   0  0  0  0  0  1  0  0  0  0  0  0
  159.3080  209.4290  155.3940 O   0  0  0  0  0  0  0  0  0  0  0  0
  160.3660  209.0340  156.2130 C   0  0  0  0  0  3  0  0  0  0  0  0
  160.9080  207.8220  156.1110 C   0  0  0  0  0  3  0  0  0  0  0  0
  160.4410  206.8250  155.1020 C   0  0  0  0  0  2  0  0  0  0  0  0
  161.1920  206.9630  153.9310 O   0  0  0  0  0  1  0  0  0  0  0  0
  1  7  1  0  0  0  0
  1 20  1  0  0  0  0
  3  5  2  0  0  0  0
  4 15  2  0  0  0  0
  4 22  1  0  0  0  0
  5 11  1  0  0  0  0
  5 28  1  0  0  0  0
  6 14  1  6  0  0  0
  6 21  1  0  0  0  0
  8  9  1  0  0  0  0
  9 16  1  0  0  0  0
  9 12  2  0  0  0  0
 10 20  2  0  0  0  0
 10  3  1  0  0  0  0
 11 18  1  1  0  0  0
 12 10  1  0  0  0  0
 13 24  1  6  0  0  0
 13  6  1  0  0  0  0
 13  8  1  0  0  0  0
 14 17  1  0  0  0  0
 16  1  2  0  0  0  0
 17  2  1  1  0  0  0
 17  4  1  0  0  0  0
 19 11  1  0  0  0  0
 20 11  1  0  0  0  0
 21 12  1  0  0  0  0
 21 22  1  0  0  0  0
 24 23  1  1  0  0  0
 25 26  1  0  0  0  0
 26 27  1  6  0  0  0
 26 24  1  0  0  0  0
 28 29  1  0  0  0  0
 30 29  2  0  0  0  0
 31 30  1  0  0  0  0
 32 31  1  0  0  0  0
M  END
>  <MODEL>
6

>  <REMARK>
 VINA RESULT:      -5.7      3.568      7.616
  Name = 
  5 active torsions:
  status: ('A' for Active; 'I' for Inactive)
    1  A    between atoms: C_1  and  C_30
    2  A    between atoms: C_6  and  O_9
    3  A    between atoms: C_7  and  O_9
    4  A    between atoms: C_16  and  C_28
    5  A    between atoms: C_25  and  C_28
                            x       y       z     vdW  Elec       q    Type
                         _______ _______ _______ _____ _____    ______ ____

>  <TORSDO>
F 5

$$$$
