=
 OpenBabel11072412543D

 41 46  0  0  1  0  0  0  0  0999 V2000
  160.8270  203.8010  149.1800 C   0  0  1  0  0  3  0  0  0  0  0  0
  160.2060  206.0430  148.5610 O   0  0  0  0  0  1  0  0  0  0  0  0
  160.8140  203.9250  151.6460 N   0  0  0  0  0  0  0  0  0  0  0  0
  160.9160  203.1830  150.5790 C   0  0  0  0  0  0  0  0  0  0  0  0
  161.0690  201.7690  150.7200 N   0  0  0  0  0  2  0  0  0  0  0  0
  161.4300  207.6690  151.9630 C   0  0  0  0  0  0  0  0  0  0  0  0
  161.4220  209.0110  152.3400 C   0  0  0  0  0  3  0  0  0  0  0  0
  160.9670  206.3060  153.0300 S   0  0  0  0  0  0  0  0  0  0  0  0
  162.1770  209.6050  150.1010 C   0  0  0  0  0  0  0  0  0  0  0  0
  161.2600  205.2940  149.0910 C   0  0  1  0  0  3  0  0  0  0  0  0
  161.6060  200.9530  149.6370 C   0  0  0  0  0  2  0  0  0  0  0  0
  160.6680  205.3650  151.4970 C   0  0  1  0  0  3  0  0  0  0  0  0
  161.6740  205.8370  150.4630 C   0  0  2  0  0  3  0  0  0  0  0  0
  161.7980  209.9830  151.4020 C   0  0  0  0  0  3  0  0  0  0  0  0
  161.1190  201.4610  148.2860 C   0  0  0  0  0  2  0  0  0  0  0  0
  161.5110  202.9290  148.1160 C   0  0  1  0  0  3  0  0  0  0  0  0
  161.7570  207.3010  150.6680 C   0  0  0  0  0  0  0  0  0  0  0  0
  162.1550  208.2530  149.7260 C   0  0  0  0  0  3  0  0  0  0  0  0
  161.5520  205.3440  143.6910 C   0  0  0  0  0  1  0  0  0  0  0  0
  163.0300  205.1510  146.3920 C   0  0  0  0  0  1  0  0  0  0  0  0
  160.2020  203.5710  144.8510 C   0  0  0  0  0  0  0  0  0  0  0  0
  161.1820  203.3840  146.7250 C   0  0  0  0  0  0  0  0  0  0  0  0
  161.8390  204.3510  145.9790 C   0  0  0  0  0  0  0  0  0  0  0  0
  159.3830  203.3910  143.9110 O   0  0  0  0  0  0  0  0  0  0  0  0
  160.1430  202.8920  146.0170 N   0  0  0  0  0  2  0  0  0  0  0  0
  161.2140  204.4580  144.7950 N   0  0  0  0  0  0  0  0  0  0  0  0
  162.5580  210.6490  149.1070 C   0  0  0  0  0  2  0  0  0  0  0  0
  161.4720  211.7080  148.9880 C   0  0  0  0  0  2  0  0  0  0  0  0
  160.2890  213.1580  147.5630 C   0  0  2  0  0  3  0  0  0  0  0  0
  161.6900  213.2860  147.1430 C   0  0  0  0  0  0  0  0  0  0  0  0
  161.1750  211.9660  147.5820 N   0  0  0  0  0  0  0  0  0  0  0  0
  162.5870  213.9010  148.0230 O   0  0  0  0  0  1  0  0  0  0  0  0
  162.0210  213.3110  145.7860 O   0  0  0  0  0  1  0  0  0  0  0  0
  159.5540  212.0760  145.3350 C   0  0  0  0  0  1  0  0  0  0  0  0
  159.2100  213.0760  146.4440 C   0  0  0  0  0  0  0  0  0  0  0  0
  159.0530  214.4530  145.8040 C   0  0  0  0  0  1  0  0  0  0  0  0
  157.8710  212.6320  147.0780 C   0  0  2  0  0  3  0  0  0  0  0  0
  156.9110  212.3410  146.1010 O   0  0  0  0  0  1  0  0  0  0  0  0
  157.3090  213.6100  148.0710 C   0  0  0  0  0  0  0  0  0  0  0  0
  157.8150  213.7210  149.2190 O   0  0  0  0  0  0  0  0  0  0  0  0
  156.1750  214.3950  147.7220 N   0  0  0  0  0  1  0  0  0  0  0  0
  1  4  1  1  0  0  0
  4  5  1  0  0  0  0
  4  3  2  0  0  0  0
  6  7  1  0  0  0  0
  6  8  1  0  0  0  0
  9 14  1  0  0  0  0
 10  2  1  1  0  0  0
 10  1  1  0  0  0  0
 10 13  1  0  0  0  0
 11  5  1  0  0  0  0
 12  3  1  1  0  0  0
 12  8  1  0  0  0  0
 13 17  1  6  0  0  0
 13 12  1  0  0  0  0
 14  7  2  0  0  0  0
 15 11  1  0  0  0  0
 16 22  1  6  0  0  0
 16 15  1  0  0  0  0
 16  1  1  0  0  0  0
 17  6  2  0  0  0  0
 18  9  2  0  0  0  0
 18 17  1  0  0  0  0
 19 26  1  0  0  0  0
 21 25  1  0  0  0  0
 23 20  1  0  0  0  0
 23 22  2  0  0  0  0
 24 21  2  0  0  0  0
 25 22  1  0  0  0  0
 26 21  1  0  0  0  0
 26 23  1  0  0  0  0
 27  9  1  0  0  0  0
 28 27  1  0  0  0  0
 29 35  1  6  0  0  0
 29 31  1  0  0  0  0
 30 29  1  0  0  0  0
 30 31  1  0  0  0  0
 30 32  1  0  0  0  0
 31 28  1  0  0  0  0
 33 30  1  0  0  0  0
 34 35  1  0  0  0  0
 35 37  1  0  0  0  0
 36 35  1  0  0  0  0
 37 38  1  6  0  0  0
 37 39  1  0  0  0  0
 39 40  2  0  0  0  0
 41 39  1  0  0  0  0
M  END
>  <MODEL>
1

>  <REMARK>
 VINA RESULT:      -8.7      0.000      0.000
  Name = 
  7 active torsions:
  status: ('A' for Active; 'I' for Inactive)
    1  A    between atoms: C_4  and  C_21
    2  A    between atoms: C_8  and  C_39
    3  A    between atoms: C_12  and  C_16
    4  A    between atoms: C_13  and  N_24
    5  A    between atoms: C_13  and  C_36
    6  A    between atoms: C_16  and  C_21
    7  A    between atoms: C_25  and  C_36
                            x       y       z     vdW  Elec       q    Type
                         _______ _______ _______ _____ _____    ______ ____

>  <TORSDO>
F 7

$$$$
=
 OpenBabel11072412543D

 41 46  0  0  1  0  0  0  0  0999 V2000
  160.8120  203.5190  149.0420 C   0  0  1  0  0  3  0  0  0  0  0  0
  160.2520  205.8280  148.6590 O   0  0  0  0  0  1  0  0  0  0  0  0
  160.7650  203.3790  151.5070 N   0  0  0  0  0  0  0  0  0  0  0  0
  160.8660  202.7540  150.3690 C   0  0  0  0  0  0  0  0  0  0  0  0
  160.9850  201.3280  150.3590 N   0  0  0  0  0  2  0  0  0  0  0  0
  161.4610  207.0520  152.2310 C   0  0  0  0  0  0  0  0  0  0  0  0
  161.4780  208.3460  152.7500 C   0  0  0  0  0  3  0  0  0  0  0  0
  160.9510  205.5950  153.1400 S   0  0  0  0  0  0  0  0  0  0  0  0
  162.2800  209.1570  150.5960 C   0  0  0  0  0  0  0  0  0  0  0  0
  161.2810  205.0020  149.1190 C   0  0  1  0  0  3  0  0  0  0  0  0
  161.5200  200.6210  149.2010 C   0  0  0  0  0  2  0  0  0  0  0  0
  160.6540  204.8300  151.5110 C   0  0  1  0  0  3  0  0  0  0  0  0
  161.6860  205.3850  150.5470 C   0  0  2  0  0  3  0  0  0  0  0  0
  161.8900  209.4030  151.9250 C   0  0  0  0  0  3  0  0  0  0  0  0
  161.0650  201.2810  147.9070 C   0  0  0  0  0  2  0  0  0  0  0  0
  161.4930  202.7490  147.9000 C   0  0  1  0  0  3  0  0  0  0  0  0
  161.7990  206.8170  150.9090 C   0  0  0  0  0  0  0  0  0  0  0  0
  162.2340  207.8530  150.0790 C   0  0  0  0  0  3  0  0  0  0  0  0
  161.6770  205.5980  143.7450 C   0  0  0  0  0  1  0  0  0  0  0  0
  163.1230  205.0650  146.4170 C   0  0  0  0  0  1  0  0  0  0  0  0
  160.2400  203.7790  144.7130 C   0  0  0  0  0  0  0  0  0  0  0  0
  161.1960  203.3580  146.5610 C   0  0  0  0  0  0  0  0  0  0  0  0
  161.9020  204.3650  145.9200 C   0  0  0  0  0  0  0  0  0  0  0  0
  159.4210  203.7320  143.7570 O   0  0  0  0  0  0  0  0  0  0  0  0
  160.1420  202.9880  145.8030 N   0  0  0  0  0  2  0  0  0  0  0  0
  161.2910  204.6210  144.7520 N   0  0  0  0  0  0  0  0  0  0  0  0
  162.7010  210.2920  149.7250 C   0  0  0  0  0  2  0  0  0  0  0  0
  161.6680  210.5550  148.6400 C   0  0  0  0  0  2  0  0  0  0  0  0
  160.6190  212.3020  147.4650 C   0  0  2  0  0  3  0  0  0  0  0  0
  161.1740  212.9420  148.6630 C   0  0  0  0  0  0  0  0  0  0  0  0
  161.9250  211.8440  148.0050 N   0  0  0  0  0  0  0  0  0  0  0  0
  160.6090  212.6210  149.9020 O   0  0  0  0  0  1  0  0  0  0  0  0
  161.8270  214.1740  148.5680 O   0  0  0  0  0  1  0  0  0  0  0  0
  162.2250  213.2230  145.6630 C   0  0  0  0  0  1  0  0  0  0  0  0
  160.7700  213.0580  146.1130 C   0  0  0  0  0  0  0  0  0  0  0  0
  160.1600  214.4510  146.2530 C   0  0  0  0  0  1  0  0  0  0  0  0
  160.0250  212.2640  145.0140 C   0  0  2  0  0  3  0  0  0  0  0  0
  160.8260  212.0790  143.8810 O   0  0  0  0  0  1  0  0  0  0  0  0
  158.7050  212.8610  144.6150 C   0  0  0  0  0  0  0  0  0  0  0  0
  157.6830  212.6980  145.3340 O   0  0  0  0  0  0  0  0  0  0  0  0
  158.6000  213.5880  143.3960 N   0  0  0  0  0  1  0  0  0  0  0  0
  1 10  1  0  0  0  0
  1  4  1  1  0  0  0
  4  3  2  0  0  0  0
  5  4  1  0  0  0  0
  6  7  1  0  0  0  0
  6  8  1  0  0  0  0
  9 14  1  0  0  0  0
 10  2  1  1  0  0  0
 10 13  1  0  0  0  0
 11  5  1  0  0  0  0
 12  3  1  1  0  0  0
 12  8  1  0  0  0  0
 13 17  1  6  0  0  0
 13 12  1  0  0  0  0
 14  7  2  0  0  0  0
 15 11  1  0  0  0  0
 16 22  1  6  0  0  0
 16 15  1  0  0  0  0
 16  1  1  0  0  0  0
 17  6  2  0  0  0  0
 18  9  2  0  0  0  0
 18 17  1  0  0  0  0
 19 26  1  0  0  0  0
 21 26  1  0  0  0  0
 21 25  1  0  0  0  0
 23 20  1  0  0  0  0
 23 22  2  0  0  0  0
 24 21  2  0  0  0  0
 25 22  1  0  0  0  0
 26 23  1  0  0  0  0
 27  9  1  0  0  0  0
 28 27  1  0  0  0  0
 29 35  1  6  0  0  0
 29 31  1  0  0  0  0
 29 30  1  0  0  0  0
 30 32  1  0  0  0  0
 31 28  1  0  0  0  0
 31 30  1  0  0  0  0
 33 30  1  0  0  0  0
 34 35  1  0  0  0  0
 35 36  1  0  0  0  0
 37 38  1  6  0  0  0
 37 35  1  0  0  0  0
 39 37  1  0  0  0  0
 39 40  2  0  0  0  0
 41 39  1  0  0  0  0
M  END
>  <MODEL>
2

>  <REMARK>
 VINA RESULT:      -8.2      1.381      1.764
  Name = 
  7 active torsions:
  status: ('A' for Active; 'I' for Inactive)
    1  A    between atoms: C_4  and  C_21
    2  A    between atoms: C_8  and  C_39
    3  A    between atoms: C_12  and  C_16
    4  A    between atoms: C_13  and  N_24
    5  A    between atoms: C_13  and  C_36
    6  A    between atoms: C_16  and  C_21
    7  A    between atoms: C_25  and  C_36
                            x       y       z     vdW  Elec       q    Type
                         _______ _______ _______ _____ _____    ______ ____

>  <TORSDO>
F 7

$$$$
=
 OpenBabel11072412543D

 41 46  0  0  1  0  0  0  0  0999 V2000
  160.1360  212.3280  151.9240 C   0  0  1  0  0  3  0  0  0  0  0  0
  161.8680  210.6850  151.6170 O   0  0  0  0  0  1  0  0  0  0  0  0
  159.5070  211.9780  154.2860 N   0  0  0  0  0  0  0  0  0  0  0  0
  159.3810  212.6960  153.2050 C   0  0  0  0  0  0  0  0  0  0  0  0
  158.5590  213.8660  153.2310 N   0  0  0  0  0  2  0  0  0  0  0  0
  160.6260  208.3510  154.5710 C   0  0  0  0  0  0  0  0  0  0  0  0
  161.1460  207.1270  154.9920 C   0  0  0  0  0  3  0  0  0  0  0  0
  160.0850  209.6610  155.6660 S   0  0  0  0  0  0  0  0  0  0  0  0
  161.4190  206.4820  152.6580 C   0  0  0  0  0  0  0  0  0  0  0  0
  160.4860  210.8180  151.7760 C   0  0  1  0  0  3  0  0  0  0  0  0
  158.0380  214.4530  152.0030 C   0  0  0  0  0  2  0  0  0  0  0  0
  160.3370  210.7840  154.2500 C   0  0  1  0  0  3  0  0  0  0  0  0
  160.0000  210.0130  152.9870 C   0  0  2  0  0  3  0  0  0  0  0  0
  161.5430  206.1890  154.0280 C   0  0  0  0  0  3  0  0  0  0  0  0
  159.0630  214.3590  150.8810 C   0  0  0  0  0  2  0  0  0  0  0  0
  159.4590  212.8970  150.6680 C   0  0  1  0  0  3  0  0  0  0  0  0
  160.5480  208.6570  153.2220 C   0  0  0  0  0  0  0  0  0  0  0  0
  160.9180  207.7280  152.2480 C   0  0  0  0  0  3  0  0  0  0  0  0
  161.1490  212.7980  145.9190 C   0  0  0  0  0  1  0  0  0  0  0  0
  158.6090  213.2650  147.6080 C   0  0  0  0  0  1  0  0  0  0  0  0
  162.0480  212.4610  148.2400 C   0  0  0  0  0  0  0  0  0  0  0  0
  160.3390  212.7810  149.4580 C   0  0  0  0  0  0  0  0  0  0  0  0
  159.9690  212.9370  148.1300 C   0  0  0  0  0  0  0  0  0  0  0  0
  163.2310  212.2090  147.8890 O   0  0  0  0  0  0  0  0  0  0  0  0
  161.6530  212.4750  149.5310 N   0  0  0  0  0  2  0  0  0  0  0  0
  161.0570  212.7360  147.3700 N   0  0  0  0  0  0  0  0  0  0  0  0
  161.8600  205.4830  151.6440 C   0  0  0  0  0  2  0  0  0  0  0  0
  161.0110  205.5760  150.3840 C   0  0  0  0  0  2  0  0  0  0  0  0
  160.9280  205.2410  148.0580 C   0  0  2  0  0  3  0  0  0  0  0  0
  161.6000  206.5360  148.2230 C   0  0  0  0  0  0  0  0  0  0  0  0
  161.8550  205.4490  149.2000 N   0  0  0  0  0  0  0  0  0  0  0  0
  160.8450  207.6110  148.7070 O   0  0  0  0  0  1  0  0  0  0  0  0
  162.7260  206.8490  147.4580 O   0  0  0  0  0  1  0  0  0  0  0  0
  161.5940  202.8130  147.4820 C   0  0  0  0  0  1  0  0  0  0  0  0
  161.5080  204.2630  146.9950 C   0  0  0  0  0  0  0  0  0  0  0  0
  162.9170  204.7170  146.6180 C   0  0  0  0  0  1  0  0  0  0  0  0
  160.5940  204.2870  145.7470 C   0  0  2  0  0  3  0  0  0  0  0  0
  160.7490  203.1290  144.9750 O   0  0  0  0  0  1  0  0  0  0  0  0
  160.7680  205.5040  144.8850 C   0  0  0  0  0  0  0  0  0  0  0  0
  160.1710  206.5790  145.1630 O   0  0  0  0  0  0  0  0  0  0  0  0
  161.5880  205.4340  143.7230 N   0  0  0  0  0  1  0  0  0  0  0  0
  1  4  1  1  0  0  0
  4  5  1  0  0  0  0
  4  3  2  0  0  0  0
  6  7  1  0  0  0  0
  6  8  1  0  0  0  0
  9 14  1  0  0  0  0
 10  2  1  1  0  0  0
 10  1  1  0  0  0  0
 10 13  1  0  0  0  0
 11  5  1  0  0  0  0
 12  3  1  1  0  0  0
 12  8  1  0  0  0  0
 13 17  1  1  0  0  0
 13 12  1  0  0  0  0
 14  7  2  0  0  0  0
 15 11  1  0  0  0  0
 16 22  1  6  0  0  0
 16 15  1  0  0  0  0
 16  1  1  0  0  0  0
 17  6  2  0  0  0  0
 18  9  2  0  0  0  0
 18 17  1  0  0  0  0
 19 26  1  0  0  0  0
 20 23  1  0  0  0  0
 21 25  1  0  0  0  0
 22 25  1  0  0  0  0
 23 22  2  0  0  0  0
 24 21  2  0  0  0  0
 26 23  1  0  0  0  0
 26 21  1  0  0  0  0
 27  9  1  0  0  0  0
 28 27  1  0  0  0  0
 29 35  1  6  0  0  0
 29 30  1  0  0  0  0
 29 31  1  0  0  0  0
 30 32  1  0  0  0  0
 30 31  1  0  0  0  0
 31 28  1  0  0  0  0
 33 30  1  0  0  0  0
 35 34  1  0  0  0  0
 36 35  1  0  0  0  0
 37 38  1  6  0  0  0
 37 35  1  0  0  0  0
 39 40  2  0  0  0  0
 39 37  1  0  0  0  0
 41 39  1  0  0  0  0
M  END
>  <MODEL>
3

>  <REMARK>
 VINA RESULT:      -7.9      2.672      8.427
  Name = 
  7 active torsions:
  status: ('A' for Active; 'I' for Inactive)
    1  A    between atoms: C_4  and  C_21
    2  A    between atoms: C_8  and  C_39
    3  A    between atoms: C_12  and  C_16
    4  A    between atoms: C_13  and  N_24
    5  A    between atoms: C_13  and  C_36
    6  A    between atoms: C_16  and  C_21
    7  A    between atoms: C_25  and  C_36
                            x       y       z     vdW  Elec       q    Type
                         _______ _______ _______ _____ _____    ______ ____

>  <TORSDO>
F 7

$$$$
=
 OpenBabel11072412543D

 41 46  0  0  1  0  0  0  0  0999 V2000
  160.0810  212.2660  152.5040 C   0  0  1  0  0  3  0  0  0  0  0  0
  161.5850  210.6800  151.4950 O   0  0  0  0  0  1  0  0  0  0  0  0
  160.0630  211.5300  154.8610 N   0  0  0  0  0  0  0  0  0  0  0  0
  159.7020  212.4200  153.9810 C   0  0  0  0  0  0  0  0  0  0  0  0
  158.9780  213.5780  154.4080 N   0  0  0  0  0  2  0  0  0  0  0  0
  161.0220  207.8950  154.2590 C   0  0  0  0  0  0  0  0  0  0  0  0
  161.5660  206.6130  154.3290 C   0  0  0  0  0  3  0  0  0  0  0  0
  160.8520  209.0080  155.6530 S   0  0  0  0  0  0  0  0  0  0  0  0
  161.1940  206.3670  151.9330 C   0  0  0  0  0  0  0  0  0  0  0  0
  160.3000  210.7990  152.0310 C   0  0  1  0  0  3  0  0  0  0  0  0
  158.1910  214.3680  153.4690 C   0  0  0  0  0  2  0  0  0  0  0  0
  160.7900  210.3500  154.4190 C   0  0  1  0  0  3  0  0  0  0  0  0
  160.1000  209.8060  153.1820 C   0  0  2  0  0  3  0  0  0  0  0  0
  161.6510  205.8470  153.1570 C   0  0  0  0  0  3  0  0  0  0  0  0
  158.8870  214.4530  152.1180 C   0  0  0  0  0  2  0  0  0  0  0  0
  159.1360  213.0450  151.5780 C   0  0  1  0  0  3  0  0  0  0  0  0
  160.6160  208.4250  153.0460 C   0  0  0  0  0  0  0  0  0  0  0  0
  160.6730  207.6690  151.8730 C   0  0  0  0  0  3  0  0  0  0  0  0
  159.4870  213.3200  146.5550 C   0  0  0  0  0  1  0  0  0  0  0  0
  157.4470  213.2180  148.8680 C   0  0  0  0  0  1  0  0  0  0  0  0
  161.0200  213.1880  148.5420 C   0  0  0  0  0  0  0  0  0  0  0  0
  159.6670  213.1250  150.1760 C   0  0  0  0  0  0  0  0  0  0  0  0
  158.9350  213.1970  149.0010 C   0  0  0  0  0  0  0  0  0  0  0  0
  162.0930  213.2020  147.8830 O   0  0  0  0  0  0  0  0  0  0  0  0
  160.9870  213.1150  149.8900 N   0  0  0  0  0  2  0  0  0  0  0  0
  159.7990  213.2400  147.9750 N   0  0  0  0  0  0  0  0  0  0  0  0
  161.3060  205.5490  150.6920 C   0  0  0  0  0  2  0  0  0  0  0  0
  161.1540  206.4180  149.4520 C   0  0  0  0  0  2  0  0  0  0  0  0
  160.8600  205.2030  147.4600 C   0  0  2  0  0  3  0  0  0  0  0  0
  161.5090  206.4510  147.0410 C   0  0  0  0  0  0  0  0  0  0  0  0
  161.8850  205.8290  148.3340 N   0  0  0  0  0  0  0  0  0  0  0  0
  160.7760  207.6390  147.1400 O   0  0  0  0  0  1  0  0  0  0  0  0
  162.5500  206.4280  146.1090 O   0  0  0  0  0  1  0  0  0  0  0  0
  162.8780  203.6830  146.9230 C   0  0  0  0  0  1  0  0  0  0  0  0
  161.3630  203.8810  146.8110 C   0  0  0  0  0  0  0  0  0  0  0  0
  160.9970  203.8850  145.3280 C   0  0  0  0  0  1  0  0  0  0  0  0
  160.6790  202.6880  147.5210 C   0  0  2  0  0  3  0  0  0  0  0  0
  161.0420  202.6170  148.8710 O   0  0  0  0  0  1  0  0  0  0  0  0
  160.9180  201.3620  146.8570 C   0  0  0  0  0  0  0  0  0  0  0  0
  160.5540  201.1650  145.6670 O   0  0  0  0  0  0  0  0  0  0  0  0
  161.5310  200.3070  147.5900 N   0  0  0  0  0  1  0  0  0  0  0  0
  1  4  1  1  0  0  0
  4  5  1  0  0  0  0
  4  3  2  0  0  0  0
  6  7  1  0  0  0  0
  6  8  1  0  0  0  0
  9 14  1  0  0  0  0
 10  2  1  1  0  0  0
 10  1  1  0  0  0  0
 10 13  1  0  0  0  0
 11  5  1  0  0  0  0
 12  3  1  1  0  0  0
 12  8  1  0  0  0  0
 13 17  1  6  0  0  0
 13 12  1  0  0  0  0
 14  7  2  0  0  0  0
 15 11  1  0  0  0  0
 16 22  1  6  0  0  0
 16 15  1  0  0  0  0
 16  1  1  0  0  0  0
 17  6  2  0  0  0  0
 18  9  2  0  0  0  0
 18 17  1  0  0  0  0
 19 26  1  0  0  0  0
 20 23  1  0  0  0  0
 21 25  1  0  0  0  0
 23 22  2  0  0  0  0
 24 21  2  0  0  0  0
 25 22  1  0  0  0  0
 26 21  1  0  0  0  0
 26 23  1  0  0  0  0
 27  9  1  0  0  0  0
 28 27  1  0  0  0  0
 29 35  1  6  0  0  0
 29 31  1  0  0  0  0
 30 32  1  0  0  0  0
 30 29  1  0  0  0  0
 30 31  1  0  0  0  0
 31 28  1  0  0  0  0
 33 30  1  0  0  0  0
 35 34  1  0  0  0  0
 35 37  1  0  0  0  0
 36 35  1  0  0  0  0
 37 38  1  1  0  0  0
 39 37  1  0  0  0  0
 39 41  1  0  0  0  0
 40 39  2  0  0  0  0
M  END
>  <MODEL>
4

>  <REMARK>
 VINA RESULT:      -7.3      3.012      9.020
  Name = 
  7 active torsions:
  status: ('A' for Active; 'I' for Inactive)
    1  A    between atoms: C_4  and  C_21
    2  A    between atoms: C_8  and  C_39
    3  A    between atoms: C_12  and  C_16
    4  A    between atoms: C_13  and  N_24
    5  A    between atoms: C_13  and  C_36
    6  A    between atoms: C_16  and  C_21
    7  A    between atoms: C_25  and  C_36
                            x       y       z     vdW  Elec       q    Type
                         _______ _______ _______ _____ _____    ______ ____

>  <TORSDO>
F 7

$$$$
=
 OpenBabel11072412543D

 41 46  0  0  1  0  0  0  0  0999 V2000
  159.9860  212.2220  152.8870 C   0  0  1  0  0  3  0  0  0  0  0  0
  161.4490  210.8470  151.5590 O   0  0  0  0  0  1  0  0  0  0  0  0
  160.1730  211.1720  155.1140 N   0  0  0  0  0  0  0  0  0  0  0  0
  159.7190  212.1590  154.3950 C   0  0  0  0  0  0  0  0  0  0  0  0
  159.0000  213.2190  155.0310 N   0  0  0  0  0  2  0  0  0  0  0  0
  161.1820  207.6920  153.9450 C   0  0  0  0  0  0  0  0  0  0  0  0
  161.7660  206.4340  153.7950 C   0  0  0  0  0  3  0  0  0  0  0  0
  161.0910  208.5980  155.4880 S   0  0  0  0  0  0  0  0  0  0  0  0
  161.2130  206.5030  151.4230 C   0  0  0  0  0  0  0  0  0  0  0  0
  160.2070  210.8420  152.2000 C   0  0  1  0  0  3  0  0  0  0  0  0
  158.1190  214.0990  154.2720 C   0  0  0  0  0  2  0  0  0  0  0  0
  160.8960  210.0920  154.4600 C   0  0  1  0  0  3  0  0  0  0  0  0
  160.1250  209.6960  153.2140 C   0  0  2  0  0  3  0  0  0  0  0  0
  161.7800  205.8390  152.5260 C   0  0  0  0  0  3  0  0  0  0  0  0
  158.7040  214.3940  152.8970 C   0  0  0  0  0  2  0  0  0  0  0  0
  158.9490  213.0830  152.1500 C   0  0  1  0  0  3  0  0  0  0  0  0
  160.6670  208.3660  152.8500 C   0  0  0  0  0  0  0  0  0  0  0  0
  160.6530  207.7800  151.5820 C   0  0  0  0  0  3  0  0  0  0  0  0
  158.9210  213.8300  147.1640 C   0  0  0  0  0  1  0  0  0  0  0  0
  157.0850  213.1690  149.5540 C   0  0  0  0  0  1  0  0  0  0  0  0
  160.5780  213.8160  149.0520 C   0  0  0  0  0  0  0  0  0  0  0  0
  159.3660  213.3740  150.7380 C   0  0  0  0  0  0  0  0  0  0  0  0
  158.5580  213.4070  149.6120 C   0  0  0  0  0  0  0  0  0  0  0  0
  161.5870  214.0780  148.3460 O   0  0  0  0  0  0  0  0  0  0  0  0
  160.6450  213.6270  150.3880 N   0  0  0  0  0  2  0  0  0  0  0  0
  159.3330  213.6910  148.5530 N   0  0  0  0  0  0  0  0  0  0  0  0
  161.2500  205.8660  150.0750 C   0  0  0  0  0  2  0  0  0  0  0  0
  161.0850  204.3570  150.1830 C   0  0  0  0  0  2  0  0  0  0  0  0
  161.7390  203.2990  148.1870 C   0  0  2  0  0  3  0  0  0  0  0  0
  160.8020  202.3600  148.8150 C   0  0  0  0  0  0  0  0  0  0  0  0
  160.5630  203.8190  148.9310 N   0  0  0  0  0  0  0  0  0  0  0  0
  161.2010  201.7240  149.9970 O   0  0  0  0  0  1  0  0  0  0  0  0
  159.8290  201.7130  148.0490 O   0  0  0  0  0  1  0  0  0  0  0  0
  160.8330  202.4080  145.9380 C   0  0  0  0  0  1  0  0  0  0  0  0
  161.6120  203.5170  146.6510 C   0  0  0  0  0  0  0  0  0  0  0  0
  163.0110  203.5770  146.0410 C   0  0  0  0  0  1  0  0  0  0  0  0
  160.8690  204.8510  146.3990 C   0  0  2  0  0  3  0  0  0  0  0  0
  159.9840  204.7500  145.3190 O   0  0  0  0  0  1  0  0  0  0  0  0
  161.7780  206.0310  146.2070 C   0  0  0  0  0  0  0  0  0  0  0  0
  162.3710  206.2130  145.1100 O   0  0  0  0  0  0  0  0  0  0  0  0
  161.9980  206.9350  147.2840 N   0  0  0  0  0  1  0  0  0  0  0  0
  1  4  1  1  0  0  0
  4  5  1  0  0  0  0
  4  3  2  0  0  0  0
  6  8  1  0  0  0  0
  7  6  1  0  0  0  0
  9 18  2  0  0  0  0
  9 14  1  0  0  0  0
 10  2  1  1  0  0  0
 10  1  1  0  0  0  0
 10 13  1  0  0  0  0
 11  5  1  0  0  0  0
 12  3  1  1  0  0  0
 12  8  1  0  0  0  0
 13 17  1  6  0  0  0
 13 12  1  0  0  0  0
 14  7  2  0  0  0  0
 15 11  1  0  0  0  0
 16 22  1  6  0  0  0
 16  1  1  0  0  0  0
 16 15  1  0  0  0  0
 17  6  2  0  0  0  0
 18 17  1  0  0  0  0
 19 26  1  0  0  0  0
 20 23  1  0  0  0  0
 21 25  1  0  0  0  0
 23 22  2  0  0  0  0
 24 21  2  0  0  0  0
 25 22  1  0  0  0  0
 26 21  1  0  0  0  0
 26 23  1  0  0  0  0
 27 28  1  0  0  0  0
 27  9  1  0  0  0  0
 29 35  1  6  0  0  0
 29 30  1  0  0  0  0
 29 31  1  0  0  0  0
 30 31  1  0  0  0  0
 30 32  1  0  0  0  0
 31 28  1  0  0  0  0
 33 30  1  0  0  0  0
 34 35  1  0  0  0  0
 36 35  1  0  0  0  0
 37 38  1  6  0  0  0
 37 35  1  0  0  0  0
 39 37  1  0  0  0  0
 39 41  1  0  0  0  0
 40 39  2  0  0  0  0
M  END
>  <MODEL>
5

>  <REMARK>
 VINA RESULT:      -7.2      3.221      9.175
  Name = 
  7 active torsions:
  status: ('A' for Active; 'I' for Inactive)
    1  A    between atoms: C_4  and  C_21
    2  A    between atoms: C_8  and  C_39
    3  A    between atoms: C_12  and  C_16
    4  A    between atoms: C_13  and  N_24
    5  A    between atoms: C_13  and  C_36
    6  A    between atoms: C_16  and  C_21
    7  A    between atoms: C_25  and  C_36
                            x       y       z     vdW  Elec       q    Type
                         _______ _______ _______ _____ _____    ______ ____

>  <TORSDO>
F 7

$$$$
=
 OpenBabel11072412543D

 41 46  0  0  1  0  0  0  0  0999 V2000
  160.6970  211.7490  151.8000 C   0  0  1  0  0  3  0  0  0  0  0  0
  162.2600  210.0500  151.1180 O   0  0  0  0  0  1  0  0  0  0  0  0
  160.1450  211.0480  154.1020 N   0  0  0  0  0  0  0  0  0  0  0  0
  160.0350  211.9490  153.1670 C   0  0  0  0  0  0  0  0  0  0  0  0
  159.3230  213.1590  153.4390 N   0  0  0  0  0  2  0  0  0  0  0  0
  160.9500  207.3480  153.7060 C   0  0  0  0  0  0  0  0  0  0  0  0
  161.3770  206.0320  153.8840 C   0  0  0  0  0  3  0  0  0  0  0  0
  160.5770  208.4880  155.0360 S   0  0  0  0  0  0  0  0  0  0  0  0
  161.4860  205.7810  151.4620 C   0  0  0  0  0  0  0  0  0  0  0  0
  160.9040  210.2640  151.3800 C   0  0  1  0  0  3  0  0  0  0  0  0
  158.8010  213.9890  152.3600 C   0  0  0  0  0  2  0  0  0  0  0  0
  160.8630  209.8150  153.8170 C   0  0  1  0  0  3  0  0  0  0  0  0
  160.4040  209.3030  152.4640 C   0  0  2  0  0  3  0  0  0  0  0  0
  161.6460  205.2460  152.7540 C   0  0  0  0  0  3  0  0  0  0  0  0
  159.7630  214.0080  151.1790 C   0  0  0  0  0  2  0  0  0  0  0  0
  160.0170  212.5790  150.7000 C   0  0  1  0  0  3  0  0  0  0  0  0
  160.8380  207.8880  152.4350 C   0  0  0  0  0  0  0  0  0  0  0  0
  161.0810  207.1140  151.2980 C   0  0  0  0  0  3  0  0  0  0  0  0
  161.4460  213.0520  145.8880 C   0  0  0  0  0  1  0  0  0  0  0  0
  159.0110  213.3360  147.7610 C   0  0  0  0  0  1  0  0  0  0  0  0
  162.4620  212.4160  148.0960 C   0  0  0  0  0  0  0  0  0  0  0  0
  160.8280  212.6040  149.4380 C   0  0  0  0  0  0  0  0  0  0  0  0
  160.3900  212.9290  148.1630 C   0  0  0  0  0  0  0  0  0  0  0  0
  163.6200  212.1950  147.6510 O   0  0  0  0  0  0  0  0  0  0  0  0
  162.1370  212.2750  149.3990 N   0  0  0  0  0  2  0  0  0  0  0  0
  161.4320  212.8110  147.3230 N   0  0  0  0  0  0  0  0  0  0  0  0
  161.7910  204.9400  150.2690 C   0  0  0  0  0  2  0  0  0  0  0  0
  160.7910  203.8020  150.1370 C   0  0  0  0  0  2  0  0  0  0  0  0
  161.7650  203.4830  148.0200 C   0  0  2  0  0  3  0  0  0  0  0  0
  160.9660  202.2730  148.2470 C   0  0  0  0  0  0  0  0  0  0  0  0
  160.4640  203.5820  148.7310 N   0  0  0  0  0  0  0  0  0  0  0  0
  161.3840  201.3860  149.2450 O   0  0  0  0  0  1  0  0  0  0  0  0
  160.1810  201.7410  147.2200 O   0  0  0  0  0  1  0  0  0  0  0  0
  161.0650  203.2150  145.5480 C   0  0  0  0  0  1  0  0  0  0  0  0
  161.7140  204.1190  146.6010 C   0  0  0  0  0  0  0  0  0  0  0  0
  163.1380  204.4290  146.1430 C   0  0  0  0  0  1  0  0  0  0  0  0
  160.8870  205.4250  146.6720 C   0  0  2  0  0  3  0  0  0  0  0  0
  160.4570  205.8320  145.4030 O   0  0  0  0  0  1  0  0  0  0  0  0
  161.5920  206.5600  147.3600 C   0  0  0  0  0  0  0  0  0  0  0  0
  162.8500  206.5860  147.4290 O   0  0  0  0  0  0  0  0  0  0  0  0
  160.8310  207.5970  147.9690 N   0  0  0  0  0  1  0  0  0  0  0  0
  1  4  1  1  0  0  0
  4  5  1  0  0  0  0
  4  3  2  0  0  0  0
  6  7  1  0  0  0  0
  6  8  1  0  0  0  0
  9 14  1  0  0  0  0
 10  2  1  1  0  0  0
 10  1  1  0  0  0  0
 10 13  1  0  0  0  0
 11  5  1  0  0  0  0
 12  3  1  1  0  0  0
 12  8  1  0  0  0  0
 13 17  1  6  0  0  0
 13 12  1  0  0  0  0
 14  7  2  0  0  0  0
 15 11  1  0  0  0  0
 16 22  1  6  0  0  0
 16 15  1  0  0  0  0
 16  1  1  0  0  0  0
 17  6  2  0  0  0  0
 18  9  2  0  0  0  0
 18 17  1  0  0  0  0
 19 26  1  0  0  0  0
 20 23  1  0  0  0  0
 21 25  1  0  0  0  0
 23 22  2  0  0  0  0
 24 21  2  0  0  0  0
 25 22  1  0  0  0  0
 26 21  1  0  0  0  0
 26 23  1  0  0  0  0
 27  9  1  0  0  0  0
 28 27  1  0  0  0  0
 29 35  1  6  0  0  0
 29 30  1  0  0  0  0
 29 31  1  0  0  0  0
 30 31  1  0  0  0  0
 30 32  1  0  0  0  0
 31 28  1  0  0  0  0
 33 30  1  0  0  0  0
 34 35  1  0  0  0  0
 35 37  1  0  0  0  0
 36 35  1  0  0  0  0
 37 38  1  6  0  0  0
 37 39  1  0  0  0  0
 39 40  2  0  0  0  0
 39 41  1  0  0  0  0
M  END
>  <MODEL>
6

>  <REMARK>
 VINA RESULT:      -7.1      2.717      8.542
  Name = 
  7 active torsions:
  status: ('A' for Active; 'I' for Inactive)
    1  A    between atoms: C_4  and  C_21
    2  A    between atoms: C_8  and  C_39
    3  A    between atoms: C_12  and  C_16
    4  A    between atoms: C_13  and  N_24
    5  A    between atoms: C_13  and  C_36
    6  A    between atoms: C_16  and  C_21
    7  A    between atoms: C_25  and  C_36
                            x       y       z     vdW  Elec       q    Type
                         _______ _______ _______ _____ _____    ______ ____

>  <TORSDO>
F 7

$$$$
=
 OpenBabel11072412543D

 41 46  0  0  1  0  0  0  0  0999 V2000
  160.8320  203.2780  148.9930 C   0  0  1  0  0  3  0  0  0  0  0  0
  160.0700  205.5440  148.7150 O   0  0  0  0  0  1  0  0  0  0  0  0
  160.8230  203.0280  151.4500 N   0  0  0  0  0  0  0  0  0  0  0  0
  160.9650  202.4630  150.2840 C   0  0  0  0  0  0  0  0  0  0  0  0
  161.2070  201.0560  150.2110 N   0  0  0  0  0  2  0  0  0  0  0  0
  161.2060  206.7130  152.3290 C   0  0  0  0  0  0  0  0  0  0  0  0
  161.1160  207.9800  152.9040 C   0  0  0  0  0  3  0  0  0  0  0  0
  160.8340  205.1790  153.1770 S   0  0  0  0  0  0  0  0  0  0  0  0
  161.8220  208.9500  150.7820 C   0  0  0  0  0  0  0  0  0  0  0  0
  161.1710  204.7910  149.1320 C   0  0  1  0  0  3  0  0  0  0  0  0
  161.7890  200.4470  149.0210 C   0  0  0  0  0  2  0  0  0  0  0  0
  160.5860  204.4620  151.5180 C   0  0  1  0  0  3  0  0  0  0  0  0
  161.5560  205.1460  150.5720 C   0  0  2  0  0  3  0  0  0  0  0  0
  161.4270  209.1030  152.1240 C   0  0  0  0  0  3  0  0  0  0  0  0
  161.2650  201.1210  147.7590 C   0  0  0  0  0  2  0  0  0  0  0  0
  161.5640  202.6190  147.8140 C   0  0  1  0  0  3  0  0  0  0  0  0
  161.5490  206.5650  150.9950 C   0  0  0  0  0  0  0  0  0  0  0  0
  161.8830  207.6700  150.2090 C   0  0  0  0  0  3  0  0  0  0  0  0
  161.4960  205.6100  143.7560 C   0  0  0  0  0  1  0  0  0  0  0  0
  163.0400  205.0600  146.3690 C   0  0  0  0  0  1  0  0  0  0  0  0
  160.1750  203.6920  144.6980 C   0  0  0  0  0  0  0  0  0  0  0  0
  161.2010  203.2570  146.5050 C   0  0  0  0  0  0  0  0  0  0  0  0
  161.8400  204.3180  145.8810 C   0  0  0  0  0  0  0  0  0  0  0  0
  159.3330  203.6380  143.7630 O   0  0  0  0  0  0  0  0  0  0  0  0
  160.1450  202.8610  145.7620 N   0  0  0  0  0  2  0  0  0  0  0  0
  161.1860  204.5820  144.7380 N   0  0  0  0  0  0  0  0  0  0  0  0
  162.1340  210.1530  149.9590 C   0  0  0  0  0  2  0  0  0  0  0  0
  161.8980  211.4300  150.7520 C   0  0  0  0  0  2  0  0  0  0  0  0
  160.3970  212.6020  152.1320 C   0  0  2  0  0  3  0  0  0  0  0  0
  159.9820  212.9360  150.7640 C   0  0  0  0  0  0  0  0  0  0  0  0
  160.4800  211.5720  151.0650 N   0  0  0  0  0  0  0  0  0  0  0  0
  160.8400  213.7290  149.9920 O   0  0  0  0  0  1  0  0  0  0  0  0
  158.6290  212.9530  150.4200 O   0  0  0  0  0  1  0  0  0  0  0  0
  158.4210  211.0780  152.7980 C   0  0  0  0  0  1  0  0  0  0  0  0
  159.2750  212.2950  153.1660 C   0  0  0  0  0  0  0  0  0  0  0  0
  158.3490  213.5060  153.2680 C   0  0  0  0  0  1  0  0  0  0  0  0
  159.9290  212.0140  154.5390 C   0  0  2  0  0  3  0  0  0  0  0  0
  161.2040  211.4530  154.3950 O   0  0  0  0  0  1  0  0  0  0  0  0
  159.0950  211.1590  155.4510 C   0  0  0  0  0  0  0  0  0  0  0  0
  158.0770  211.6340  156.0230 O   0  0  0  0  0  0  0  0  0  0  0  0
  159.4770  209.8110  155.6980 N   0  0  0  0  0  1  0  0  0  0  0  0
  1 10  1  0  0  0  0
  1  4  1  1  0  0  0
  4  3  2  0  0  0  0
  5  4  1  0  0  0  0
  6  7  1  0  0  0  0
  6  8  1  0  0  0  0
  9 14  1  0  0  0  0
 10  2  1  1  0  0  0
 10 13  1  0  0  0  0
 11  5  1  0  0  0  0
 12  3  1  1  0  0  0
 12  8  1  0  0  0  0
 13 17  1  6  0  0  0
 13 12  1  0  0  0  0
 14  7  2  0  0  0  0
 15 16  1  0  0  0  0
 15 11  1  0  0  0  0
 16 22  1  6  0  0  0
 16  1  1  0  0  0  0
 17  6  2  0  0  0  0
 18  9  2  0  0  0  0
 18 17  1  0  0  0  0
 19 26  1  0  0  0  0
 21 26  1  0  0  0  0
 21 25  1  0  0  0  0
 23 20  1  0  0  0  0
 23 22  2  0  0  0  0
 24 21  2  0  0  0  0
 25 22  1  0  0  0  0
 26 23  1  0  0  0  0
 27 28  1  0  0  0  0
 27  9  1  0  0  0  0
 28 31  1  0  0  0  0
 29 35  1  1  0  0  0
 30 31  1  0  0  0  0
 30 29  1  0  0  0  0
 31 29  1  0  0  0  0
 32 30  1  0  0  0  0
 33 30  1  0  0  0  0
 34 35  1  0  0  0  0
 35 36  1  0  0  0  0
 35 37  1  0  0  0  0
 37 38  1  6  0  0  0
 37 39  1  0  0  0  0
 39 41  1  0  0  0  0
 39 40  2  0  0  0  0
M  END
>  <MODEL>
7

>  <REMARK>
 VINA RESULT:      -6.7      2.669      3.912
  Name = 
  7 active torsions:
  status: ('A' for Active; 'I' for Inactive)
    1  A    between atoms: C_4  and  C_21
    2  A    between atoms: C_8  and  C_39
    3  A    between atoms: C_12  and  C_16
    4  A    between atoms: C_13  and  N_24
    5  A    between atoms: C_13  and  C_36
    6  A    between atoms: C_16  and  C_21
    7  A    between atoms: C_25  and  C_36
                            x       y       z     vdW  Elec       q    Type
                         _______ _______ _______ _____ _____    ______ ____

>  <TORSDO>
F 7

$$$$
=
 OpenBabel11072412543D

 41 46  0  0  1  0  0  0  0  0999 V2000
  160.8380  203.0010  148.7990 C   0  0  1  0  0  3  0  0  0  0  0  0
  160.0930  205.2850  148.6540 O   0  0  0  0  0  1  0  0  0  0  0  0
  160.8590  202.6200  151.2390 N   0  0  0  0  0  0  0  0  0  0  0  0
  160.9810  202.1170  150.0430 C   0  0  0  0  0  0  0  0  0  0  0  0
  161.2090  200.7140  149.8910 N   0  0  0  0  0  2  0  0  0  0  0  0
  161.2870  206.2490  152.3090 C   0  0  0  0  0  0  0  0  0  0  0  0
  161.2160  207.4840  152.9520 C   0  0  0  0  0  3  0  0  0  0  0  0
  160.9120  204.6750  153.0790 S   0  0  0  0  0  0  0  0  0  0  0  0
  161.9040  208.5600  150.8770 C   0  0  0  0  0  0  0  0  0  0  0  0
  161.1930  204.5020  149.0140 C   0  0  1  0  0  3  0  0  0  0  0  0
  161.7700  200.1660  148.6620 C   0  0  0  0  0  2  0  0  0  0  0  0
  160.6360  204.0500  151.3870 C   0  0  1  0  0  3  0  0  0  0  0  0
  161.6000  204.7750  150.4660 C   0  0  2  0  0  3  0  0  0  0  0  0
  161.5270  208.6450  152.2290 C   0  0  0  0  0  3  0  0  0  0  0  0
  161.2360  200.9100  147.4460 C   0  0  0  0  0  2  0  0  0  0  0  0
  161.5490  202.4010  147.5770 C   0  0  1  0  0  3  0  0  0  0  0  0
  161.6120  206.1700  150.9650 C   0  0  0  0  0  0  0  0  0  0  0  0
  161.9450  207.3130  150.2350 C   0  0  0  0  0  3  0  0  0  0  0  0
  161.4830  205.5770  143.6620 C   0  0  0  0  0  1  0  0  0  0  0  0
  163.0750  204.8520  146.2030 C   0  0  0  0  0  1  0  0  0  0  0  0
  160.1180  203.6660  144.5540 C   0  0  0  0  0  0  0  0  0  0  0  0
  161.1750  203.1120  146.3090 C   0  0  0  0  0  0  0  0  0  0  0  0
  161.8360  204.1770  145.7150 C   0  0  0  0  0  0  0  0  0  0  0  0
  159.2500  203.6850  143.6410 O   0  0  0  0  0  0  0  0  0  0  0  0
  160.0860  202.7880  145.5800 N   0  0  0  0  0  2  0  0  0  0  0  0
  161.1610  204.5170  144.6050 N   0  0  0  0  0  0  0  0  0  0  0  0
  162.2150  209.8040  150.1150 C   0  0  0  0  0  2  0  0  0  0  0  0
  161.0370  210.7660  150.1410 C   0  0  0  0  0  2  0  0  0  0  0  0
  160.6520  212.6120  148.7360 C   0  0  2  0  0  3  0  0  0  0  0  0
  160.4230  213.1250  150.0920 C   0  0  0  0  0  0  0  0  0  0  0  0
  161.4930  212.1240  149.8590 N   0  0  0  0  0  0  0  0  0  0  0  0
  159.3060  212.6540  150.7920 O   0  0  0  0  0  1  0  0  0  0  0  0
  160.9240  214.3720  150.4700 O   0  0  0  0  0  1  0  0  0  0  0  0
  162.5060  214.3870  148.4400 C   0  0  0  0  0  1  0  0  0  0  0  0
  161.4470  213.5190  147.7520 C   0  0  0  0  0  0  0  0  0  0  0  0
  160.4700  214.4490  147.0340 C   0  0  0  0  0  1  0  0  0  0  0  0
  162.1720  212.6200  146.7230 C   0  0  2  0  0  3  0  0  0  0  0  0
  163.4560  212.2710  147.1610 O   0  0  0  0  0  1  0  0  0  0  0  0
  162.2450  213.2060  145.3410 C   0  0  0  0  0  0  0  0  0  0  0  0
  161.6150  212.6780  144.3870 O   0  0  0  0  0  0  0  0  0  0  0  0
  163.0600  214.3470  145.1020 N   0  0  0  0  0  1  0  0  0  0  0  0
  1 10  1  0  0  0  0
  1  4  1  1  0  0  0
  4  3  2  0  0  0  0
  5  4  1  0  0  0  0
  6  7  1  0  0  0  0
  6  8  1  0  0  0  0
  9 14  1  0  0  0  0
 10  2  1  1  0  0  0
 10 13  1  0  0  0  0
 11  5  1  0  0  0  0
 12  3  1  1  0  0  0
 12  8  1  0  0  0  0
 13 17  1  1  0  0  0
 13 12  1  0  0  0  0
 14  7  2  0  0  0  0
 15 16  1  0  0  0  0
 15 11  1  0  0  0  0
 16 22  1  6  0  0  0
 16  1  1  0  0  0  0
 17  6  2  0  0  0  0
 18  9  2  0  0  0  0
 18 17  1  0  0  0  0
 19 26  1  0  0  0  0
 21 26  1  0  0  0  0
 21 25  1  0  0  0  0
 23 20  1  0  0  0  0
 23 22  2  0  0  0  0
 24 21  2  0  0  0  0
 25 22  1  0  0  0  0
 26 23  1  0  0  0  0
 27 28  1  0  0  0  0
 27  9  1  0  0  0  0
 29 35  1  6  0  0  0
 29 31  1  0  0  0  0
 29 30  1  0  0  0  0
 30 33  1  0  0  0  0
 30 32  1  0  0  0  0
 31 30  1  0  0  0  0
 31 28  1  0  0  0  0
 35 34  1  0  0  0  0
 36 35  1  0  0  0  0
 37 38  1  1  0  0  0
 37 35  1  0  0  0  0
 39 37  1  0  0  0  0
 40 39  2  0  0  0  0
 41 39  1  0  0  0  0
M  END
>  <MODEL>
8

>  <REMARK>
 VINA RESULT:      -6.2      1.873      2.779
  Name = 
  7 active torsions:
  status: ('A' for Active; 'I' for Inactive)
    1  A    between atoms: C_4  and  C_21
    2  A    between atoms: C_8  and  C_39
    3  A    between atoms: C_12  and  C_16
    4  A    between atoms: C_13  and  N_24
    5  A    between atoms: C_13  and  C_36
    6  A    between atoms: C_16  and  C_21
    7  A    between atoms: C_25  and  C_36
                            x       y       z     vdW  Elec       q    Type
                         _______ _______ _______ _____ _____    ______ ____

>  <TORSDO>
F 7

$$$$
