=
 OpenBabel11072412033D

 45 48  0  0  1  0  0  0  0  0999 V2000
  160.9300  204.8400  151.9760 O   0  0  0  0  0  1  0  0  0  0  0  0
  158.7600  210.2550  155.2190 C   0  0  0  0  0  3  0  0  0  0  0  0
  162.9710  208.5910  151.7130 C   0  0  0  0  0  2  0  0  0  0  0  0
  160.5150  210.0570  151.3040 O   0  0  0  0  0  0  0  0  0  0  0  0
  162.0550  210.9430  149.7000 C   0  0  0  0  0  1  0  0  0  0  0  0
  161.5180  209.3590  152.4930 P   0  0  1  0  0  4  0  0  0  0  0  0
  160.6280  207.9560  153.2190 C   0  0  0  0  0  2  0  0  0  0  0  0
  163.4370  210.4020  154.0110 O   0  0  0  0  0  1  0  0  0  0  0  0
  159.4050  212.8280  151.4670 O   0  0  0  0  0  0  0  0  0  0  0  0
  160.9480  206.2310  151.8470 C   0  0  2  0  0  3  0  0  0  0  0  0
  161.7980  206.6270  150.6560 C   0  0  0  0  0  0  0  0  0  0  0  0
  161.2830  210.5620  155.0570 C   0  0  2  0  0  3  0  0  0  0  0  0
  155.9380  212.4710  154.4430 N   0  0  0  0  0  1  0  0  0  0  0  0
  157.2760  212.0080  154.5930 C   0  0  0  0  0  0  0  0  0  0  0  0
  162.5880  207.7880  150.6020 O   0  0  0  0  0  0  0  0  0  0  0  0
  158.1920  213.5060  151.3010 C   0  0  0  0  0  0  0  0  0  0  0  0
  161.1350  211.2390  150.8720 C   0  0  1  0  0  3  0  0  0  0  0  0
  159.6570  212.3310  154.4000 C   0  0  0  0  0  3  0  0  0  0  0  0
  157.6360  214.1230  152.3050 N   0  0  0  0  0  0  0  0  0  0  0  0
  159.8710  211.0410  154.8820 C   0  0  0  0  0  0  0  0  0  0  0  0
  160.0740  212.2060  150.3770 C   0  0  0  0  0  2  0  0  0  0  0  0
  158.1960  214.1860  153.6540 C   0  0  0  0  0  2  0  0  0  0  0  0
  162.0780  210.5750  153.7470 C   0  0  2  0  0  3  0  0  0  0  0  0
  161.7090  205.9340  149.6090 O   0  0  0  0  0  0  0  0  0  0  0  0
  158.3630  212.8240  154.2440 C   0  0  0  0  0  0  0  0  0  0  0  0
  161.3930  206.7970  153.0470 O   0  0  0  0  0  0  0  0  0  0  0  0
  157.5010  210.7520  155.0670 N   0  0  0  0  0  0  0  0  0  0  0  0
  157.5190  213.5370  149.9570 C   0  0  1  0  0  3  0  0  0  0  0  0
  155.4100  213.9330  151.2600 O   0  0  0  0  0  1  0  0  0  0  0  0
  155.4470  214.3290  148.9480 C   0  0  0  0  0  2  0  0  0  0  0  0
  156.0860  213.9540  150.0450 C   0  0  0  0  0  0  0  0  0  0  0  0
  158.2310  214.3740  149.0570 O   0  0  0  0  0  0  0  0  0  0  0  0
  159.7330  212.8180  145.4620 C   0  0  0  0  0  0  0  0  0  0  0  0
  160.6180  213.3330  146.4260 C   0  0  0  0  0  0  0  0  0  0  0  0
  158.7320  213.8630  147.8620 C   0  0  0  0  0  0  0  0  0  0  0  0
  162.0900  213.3260  146.1700 C   0  0  0  0  0  1  0  0  0  0  0  0
  160.9810  214.3450  148.5980 O   0  0  0  0  0  1  0  0  0  0  0  0
  158.3560  212.8310  145.7010 C   0  0  0  0  0  3  0  0  0  0  0  0
  160.1130  213.8480  147.6310 C   0  0  0  0  0  0  0  0  0  0  0  0
  157.8550  213.3520  146.8980 C   0  0  0  0  0  3  0  0  0  0  0  0
  160.2150  212.2950  144.2660 O   0  0  0  0  0  1  0  0  0  0  0  0
  161.3640  209.2770  155.7400 N   0  0  0  0  0  2  0  0  0  0  0  0
  161.6390  209.5510  157.1400 C   0  0  0  0  0  2  0  0  0  0  0  0
  163.9110  210.4090  157.2490 N   0  0  0  0  0  1  0  0  0  0  0  0
  162.5080  210.7880  157.2610 C   0  0  0  0  0  2  0  0  0  0  0  0
  4  6  1  0  0  0  0
  6  3  1  6  0  0  0
  6  7  1  0  0  0  0
  6 23  1  0  0  0  0
 10  1  1  1  0  0  0
 10 26  1  0  0  0  0
 11 10  1  0  0  0  0
 12 42  1  6  0  0  0
 13 14  1  0  0  0  0
 14 27  2  0  0  0  0
 15 11  1  0  0  0  0
 15  3  1  0  0  0  0
 16  9  1  0  0  0  0
 16 19  2  0  0  0  0
 17  5  1  6  0  0  0
 17  4  1  0  0  0  0
 18 20  1  0  0  0  0
 19 22  1  0  0  0  0
 20 12  1  0  0  0  0
 20  2  2  0  0  0  0
 21 17  1  0  0  0  0
 21  9  1  0  0  0  0
 22 25  1  0  0  0  0
 23  8  1  1  0  0  0
 23 12  1  0  0  0  0
 24 11  2  0  0  0  0
 25 18  2  0  0  0  0
 25 14  1  0  0  0  0
 26  7  1  0  0  0  0
 27  2  1  0  0  0  0
 28 32  1  6  0  0  0
 28 31  1  0  0  0  0
 28 16  1  0  0  0  0
 30 31  2  0  0  0  0
 31 29  1  0  0  0  0
 33 38  2  0  0  0  0
 33 34  1  0  0  0  0
 34 39  2  0  0  0  0
 35 32  1  0  0  0  0
 36 34  1  0  0  0  0
 38 40  1  0  0  0  0
 39 35  1  0  0  0  0
 39 37  1  0  0  0  0
 40 35  2  0  0  0  0
 41 33  1  0  0  0  0
 42 43  1  0  0  0  0
 43 45  1  0  0  0  0
 44 45  1  0  0  0  0
M  END
>  <MODEL>
1

>  <REMARK>
 VINA RESULT:      -3.8      0.000      0.000
  Name = 
  7 active torsions:
  status: ('A' for Active; 'I' for Inactive)
    1  A    between atoms: C_5  and  C_12
    2  A    between atoms: C_12  and  N_43
    3  A    between atoms: C_16  and  O_22
    4  A    between atoms: C_19  and  N_43
    5  A    between atoms: O_22  and  C_42
    6  A    between atoms: C_26  and  C_42
    7  A    between atoms: C_39  and  C_42
                            x       y       z     vdW  Elec       q    Type
                         _______ _______ _______ _____ _____    ______ ____

>  <TORSDO>
F 7

$$$$
=
 OpenBabel11072412033D

 45 48  0  0  1  0  0  0  0  0999 V2000
  160.1390  204.6200  151.2790 O   0  0  0  0  0  1  0  0  0  0  0  0
  158.9720  210.9990  152.8550 C   0  0  0  0  0  3  0  0  0  0  0  0
  163.0790  207.6670  150.6590 C   0  0  0  0  0  2  0  0  0  0  0  0
  161.1570  209.4760  149.4850 O   0  0  0  0  0  0  0  0  0  0  0  0
  163.0810  209.5920  148.0670 C   0  0  0  0  0  1  0  0  0  0  0  0
  161.7710  208.8940  150.9640 P   0  0  1  0  0  4  0  0  0  0  0  0
  160.4620  207.9350  151.7730 C   0  0  0  0  0  2  0  0  0  0  0  0
  163.6570  209.8430  152.5830 O   0  0  0  0  0  1  0  0  0  0  0  0
  160.7710  212.3740  148.8560 O   0  0  0  0  0  0  0  0  0  0  0  0
  160.5270  205.8990  150.8740 C   0  0  2  0  0  3  0  0  0  0  0  0
  161.6090  205.8000  149.8170 C   0  0  0  0  0  0  0  0  0  0  0  0
  161.4880  210.7120  153.1310 C   0  0  2  0  0  3  0  0  0  0  0  0
  156.9410  213.5060  151.1030 N   0  0  0  0  0  1  0  0  0  0  0  0
  158.0830  212.8200  151.6050 C   0  0  0  0  0  0  0  0  0  0  0  0
  162.6670  206.7160  149.6830 O   0  0  0  0  0  0  0  0  0  0  0  0
  159.8050  213.2330  148.3210 C   0  0  0  0  0  0  0  0  0  0  0  0
  162.1100  210.3560  148.9500 C   0  0  1  0  0  3  0  0  0  0  0  0
  160.4720  212.5690  151.8200 C   0  0  0  0  0  3  0  0  0  0  0  0
  159.2870  214.1810  149.0480 N   0  0  0  0  0  0  0  0  0  0  0  0
  160.2820  211.4220  152.5890 C   0  0  0  0  0  0  0  0  0  0  0  0
  161.4090  211.3750  148.0700 C   0  0  0  0  0  2  0  0  0  0  0  0
  159.6480  214.4530  150.4380 C   0  0  0  0  0  2  0  0  0  0  0  0
  162.4370  210.2320  152.0280 C   0  0  2  0  0  3  0  0  0  0  0  0
  161.4980  204.9060  148.9380 O   0  0  0  0  0  0  0  0  0  0  0  0
  159.3800  213.2730  151.3160 C   0  0  0  0  0  0  0  0  0  0  0  0
  160.9260  206.6340  151.9960 O   0  0  0  0  0  0  0  0  0  0  0  0
  157.9140  211.7000  152.3600 N   0  0  0  0  0  0  0  0  0  0  0  0
  159.3590  213.0750  146.8940 C   0  0  1  0  0  3  0  0  0  0  0  0
  157.0710  212.0520  146.7610 O   0  0  0  0  0  1  0  0  0  0  0  0
  157.3240  214.3760  146.5720 C   0  0  0  0  0  2  0  0  0  0  0  0
  157.8750  213.1850  146.7430 C   0  0  0  0  0  0  0  0  0  0  0  0
  160.0200  214.0120  146.0540 O   0  0  0  0  0  0  0  0  0  0  0  0
  162.0260  212.7520  142.5930 C   0  0  0  0  0  0  0  0  0  0  0  0
  160.6380  212.9740  142.5550 C   0  0  0  0  0  0  0  0  0  0  0  0
  160.6820  213.5880  144.9050 C   0  0  0  0  0  0  0  0  0  0  0  0
  159.8810  212.7610  141.2850 C   0  0  0  0  0  1  0  0  0  0  0  0
  158.5990  213.6400  143.6830 O   0  0  0  0  0  1  0  0  0  0  0  0
  162.7330  212.9460  143.7830 C   0  0  0  0  0  3  0  0  0  0  0  0
  159.9700  213.4020  143.7130 C   0  0  0  0  0  0  0  0  0  0  0  0
  162.0640  213.3630  144.9370 C   0  0  0  0  0  3  0  0  0  0  0  0
  162.7070  212.3380  141.4520 O   0  0  0  0  0  1  0  0  0  0  0  0
  161.1430  209.6470  154.0650 N   0  0  0  0  0  2  0  0  0  0  0  0
  161.8440  209.9220  155.3080 C   0  0  0  0  0  2  0  0  0  0  0  0
  159.6670  209.1020  156.0160 N   0  0  0  0  0  1  0  0  0  0  0  0
  160.9290  209.6490  156.4860 C   0  0  0  0  0  2  0  0  0  0  0  0
  4  6  1  0  0  0  0
  6  3  1  6  0  0  0
  6  7  1  0  0  0  0
  6 23  1  0  0  0  0
  7 26  1  0  0  0  0
 10  1  1  1  0  0  0
 10 26  1  0  0  0  0
 11 10  1  0  0  0  0
 12 42  1  6  0  0  0
 13 14  1  0  0  0  0
 14 27  1  0  0  0  0
 15 11  1  0  0  0  0
 15  3  1  0  0  0  0
 16  9  1  0  0  0  0
 16 19  2  0  0  0  0
 17  5  1  6  0  0  0
 17  4  1  0  0  0  0
 18 20  2  0  0  0  0
 19 22  1  0  0  0  0
 20  2  1  0  0  0  0
 20 12  1  0  0  0  0
 21  9  1  0  0  0  0
 21 17  1  0  0  0  0
 22 25  1  0  0  0  0
 23  8  1  1  0  0  0
 23 12  1  0  0  0  0
 24 11  2  0  0  0  0
 25 14  2  0  0  0  0
 25 18  1  0  0  0  0
 27  2  2  0  0  0  0
 28 32  1  6  0  0  0
 28 16  1  0  0  0  0
 30 31  2  0  0  0  0
 31 29  1  0  0  0  0
 31 28  1  0  0  0  0
 33 38  1  0  0  0  0
 34 33  2  0  0  0  0
 34 39  1  0  0  0  0
 35 40  1  0  0  0  0
 35 32  1  0  0  0  0
 36 34  1  0  0  0  0
 37 39  1  0  0  0  0
 38 40  2  0  0  0  0
 39 35  2  0  0  0  0
 41 33  1  0  0  0  0
 42 43  1  0  0  0  0
 43 45  1  0  0  0  0
 44 45  1  0  0  0  0
M  END
>  <MODEL>
2

>  <REMARK>
 VINA RESULT:      -2.9      2.083      3.118
  Name = 
  7 active torsions:
  status: ('A' for Active; 'I' for Inactive)
    1  A    between atoms: C_5  and  C_12
    2  A    between atoms: C_12  and  N_43
    3  A    between atoms: C_16  and  O_22
    4  A    between atoms: C_19  and  N_43
    5  A    between atoms: O_22  and  C_42
    6  A    between atoms: C_26  and  C_42
    7  A    between atoms: C_39  and  C_42
                            x       y       z     vdW  Elec       q    Type
                         _______ _______ _______ _____ _____    ______ ____

>  <TORSDO>
F 7

$$$$
