=
 OpenBabel11072412513D

 52 56  0  0  1  0  0  0  0  0999 V2000
  159.8670  206.2660  154.0350 C   0  0  0  0  0  2  0  0  0  0  0  0
  162.6300  209.9180  150.5900 C   0  0  0  0  0  2  0  0  0  0  0  0
  161.9810  206.4960  152.0940 C   0  0  0  0  0  3  0  0  0  0  0  0
  162.4290  206.3980  153.5200 C   0  0  0  0  0  2  0  0  0  0  0  0
  160.5560  209.1780  157.1200 N   0  0  0  0  0  2  0  0  0  0  0  0
  161.3020  205.8280  154.4100 C   0  0  1  0  0  3  0  0  0  0  0  0
  160.2920  207.0450  150.4750 O   0  0  0  0  0  0  0  0  0  0  0  0
  161.6920  209.6870  149.4010 C   0  0  2  0  0  3  0  0  0  0  0  0
  162.2340  211.1400  151.4180 C   0  0  0  0  0  2  0  0  0  0  0  0
  160.9780  206.5660  149.3130 C   0  0  1  0  0  3  0  0  0  0  0  0
  161.6940  207.3030  156.1080 C   0  0  0  0  0  2  0  0  0  0  0  0
  162.3640  207.2280  149.1270 C   0  0  2  0  0  3  0  0  0  0  0  0
  160.6250  207.7260  157.0980 C   0  0  0  0  0  2  0  0  0  0  0  0
  161.3970  211.4920  154.8790 C   0  0  0  0  0  3  0  0  0  0  0  0
  159.9340  209.9130  156.0640 C   0  0  0  0  0  0  0  0  0  0  0  0
  161.2540  211.1670  153.6190 C   0  0  0  0  0  0  0  0  0  0  0  0
  159.1630  209.3320  155.2520 O   0  0  0  0  0  0  0  0  0  0  0  0
  161.1110  210.8590  152.3610 C   0  0  0  0  0  0  0  0  0  0  0  0
  160.2790  211.3600  155.8760 C   0  0  2  0  0  3  0  0  0  0  0  0
  159.8290  207.3130  152.9150 C   0  0  0  0  0  2  0  0  0  0  0  0
  159.7480  210.5560  151.8440 C   0  0  0  0  0  1  0  0  0  0  0  0
  162.2570  208.6110  148.4700 C   0  0  1  0  0  3  0  0  0  0  0  0
  160.7510  206.9300  151.7980 C   0  0  0  0  0  0  0  0  0  0  0  0
  161.5600  205.9420  155.7930 O   0  0  0  0  0  0  0  0  0  0  0  0
  161.5020  208.5340  147.2950 O   0  0  0  0  0  1  0  0  0  0  0  0
  160.7650  202.2710  149.0440 C   0  0  0  0  0  3  0  0  0  0  0  0
  160.8000  203.0320  147.8730 C   0  0  0  0  0  0  0  0  0  0  0  0
  160.9110  205.0660  149.1950 C   0  0  0  0  0  0  0  0  0  0  0  0
  160.8780  204.2990  150.3640 C   0  0  0  0  0  3  0  0  0  0  0  0
  160.7580  202.3630  146.5480 C   0  0  0  0  0  1  0  0  0  0  0  0
  160.8710  204.4260  147.9490 C   0  0  0  0  0  3  0  0  0  0  0  0
  160.8050  202.9050  150.2900 C   0  0  0  0  0  3  0  0  0  0  0  0
  160.2650  211.5650  148.4930 N   0  0  0  0  0  0  0  0  0  0  0  0
  161.8410  212.8420  147.4650 N   0  0  0  0  0  0  0  0  0  0  0  0
  159.3890  213.5850  147.4480 C   0  0  0  0  0  1  0  0  0  0  0  0
  161.4960  210.9270  148.6570 N   0  0  0  0  0  0  0  0  0  0  0  0
  160.4750  212.6410  147.8190 C   0  0  0  0  0  0  0  0  0  0  0  0
  162.5500  211.6970  148.0220 C   0  0  0  0  0  3  0  0  0  0  0  0
  159.0520  213.4950  156.2760 C   0  0  0  0  0  0  0  0  0  0  0  0
  158.0450  213.5700  157.2610 N   0  0  0  0  0  2  0  0  0  0  0  0
  159.0540  212.2220  155.5160 C   0  0  2  0  0  3  0  0  0  0  0  0
  157.7660  211.5540  156.0100 C   0  0  0  0  0  2  0  0  0  0  0  0
  157.2920  212.3300  157.2430 C   0  0  2  0  0  3  0  0  0  0  0  0
  159.8450  214.4470  156.0530 O   0  0  0  0  0  0  0  0  0  0  0  0
  155.8030  212.6180  157.1330 C   0  0  0  0  0  2  0  0  0  0  0  0
  155.5420  214.0970  156.8880 C   0  0  0  0  0  2  0  0  0  0  0  0
  155.4800  214.2410  154.4520 N   0  0  0  0  0  1  0  0  0  0  0  0
  154.6720  214.3050  155.6580 C   0  0  0  0  0  2  0  0  0  0  0  0
  163.8340  204.8280  146.4600 C   0  0  0  0  0  1  0  0  0  0  0  0
  163.3560  206.3820  148.3820 C   0  0  0  0  0  0  0  0  0  0  0  0
  164.5590  206.3310  148.7560 O   0  0  0  0  0  0  0  0  0  0  0  0
  162.9210  205.6490  147.2370 N   0  0  0  0  0  2  0  0  0  0  0  0
  1  6  1  0  0  0  0
  2  9  1  0  0  0  0
  3  4  1  0  0  0  0
  6  4  1  6  0  0  0
  6 24  1  0  0  0  0
  7 23  1  0  0  0  0
  8 36  1  6  0  0  0
  8  2  1  0  0  0  0
  9 18  1  0  0  0  0
 10 28  1  1  0  0  0
 10  7  1  0  0  0  0
 11 13  1  0  0  0  0
 12 50  1  6  0  0  0
 12 10  1  0  0  0  0
 13  5  1  0  0  0  0
 15  5  1  0  0  0  0
 16 14  2  0  0  0  0
 17 15  2  0  0  0  0
 18 16  2  0  0  0  0
 19 14  1  6  0  0  0
 19 15  1  0  0  0  0
 20  1  1  0  0  0  0
 21 18  1  0  0  0  0
 22 25  1  6  0  0  0
 22 12  1  0  0  0  0
 22  8  1  0  0  0  0
 23  3  2  0  0  0  0
 23 20  1  0  0  0  0
 24 11  1  0  0  0  0
 26 32  1  0  0  0  0
 27 31  1  0  0  0  0
 27 26  2  0  0  0  0
 28 29  1  0  0  0  0
 30 27  1  0  0  0  0
 31 28  2  0  0  0  0
 32 29  2  0  0  0  0
 33 36  1  0  0  0  0
 34 37  1  0  0  0  0
 34 38  2  0  0  0  0
 35 37  1  0  0  0  0
 37 33  2  0  0  0  0
 38 36  1  0  0  0  0
 39 40  1  0  0  0  0
 41 19  1  0  0  0  0
 41 42  1  1  0  0  0
 41 39  1  0  0  0  0
 42 43  1  0  0  0  0
 43 45  1  6  0  0  0
 43 40  1  0  0  0  0
 44 39  2  0  0  0  0
 46 45  1  0  0  0  0
 47 48  1  0  0  0  0
 48 46  1  0  0  0  0
 49 52  1  0  0  0  0
 50 51  2  0  0  0  0
 52 50  1  0  0  0  0
M  END
>  <MODEL>
1

>  <REMARK>
 VINA RESULT:       4.8      0.000      0.000
  Name = 
  7 active torsions:
  status: ('A' for Active; 'I' for Inactive)
    1  A    between atoms: C_10  and  C_27
    2  A    between atoms: N_18  and  C_19
    3  A    between atoms: C_23  and  C_24
    4  A    between atoms: C_37  and  C_42
    5  A    between atoms: C_39  and  C_40
    6  A    between atoms: C_39  and  C_45
    7  A    between atoms: C_41  and  C_45
                            x       y       z     vdW  Elec       q    Type
                         _______ _______ _______ _____ _____    ______ ____

>  <TORSDO>
F 7

$$$$
