=
 OpenBabel11072411433D

 49 57  0  0  1  0  0  0  0  0999 V2000
  161.3650  205.6260  153.5570 C   0  0  2  0  0  3  0  0  0  0  0  0
  162.5970  211.0980  148.9780 C   0  0  0  0  0  2  0  0  0  0  0  0
  160.7880  209.0860  152.2490 C   0  0  2  0  0  3  0  0  0  0  0  0
  162.1470  209.6600  148.6350 C   0  0  1  0  0  0  0  0  0  0  0  0
  161.8240  208.8110  149.8850 C   0  0  0  0  0  2  0  0  0  0  0  0
  161.5340  207.9970  153.0660 C   0  0  2  0  0  3  0  0  0  0  0  0
  161.6190  209.6690  151.1300 C   0  0  1  0  0  3  0  0  0  0  0  0
  160.7860  206.4170  154.6230 N   0  0  0  0  0  0  0  0  0  0  0  0
  161.0110  209.7190  147.8250 O   0  0  0  0  0  1  0  0  0  0  0  0
  160.3080  210.2480  153.0300 N   0  0  1  0  0  0  0  0  0  0  0  0
  161.5960  206.6100  152.3900 C   0  0  2  0  0  3  0  0  0  0  0  0
  160.8890  207.6770  154.3770 C   0  0  0  0  0  0  0  0  0  0  0  0
  160.5950  204.9660  150.7200 C   0  0  1  0  0  3  0  0  0  0  0  0
  160.7910  203.9080  151.8330 C   0  0  0  0  0  2  0  0  0  0  0  0
  161.6560  211.8400  149.9540 C   0  0  0  0  0  2  0  0  0  0  0  0
  160.4470  208.6500  155.3310 N   0  0  0  0  0  2  0  0  0  0  0  0
  160.8060  210.8640  150.7610 C   0  0  2  0  0  3  0  0  0  0  0  0
  161.2850  210.6170  154.0510 C   0  0  0  0  0  2  0  0  0  0  0  0
  160.9020  210.0370  155.4070 C   0  0  0  0  0  2  0  0  0  0  0  0
  160.2890  211.3750  152.0880 C   0  0  1  0  0  3  0  0  0  0  0  0
  163.2560  208.9770  147.8650 C   0  0  0  0  0  1  0  0  0  0  0  0
  160.4520  204.4430  153.2200 C   0  0  0  0  0  2  0  0  0  0  0  0
  160.5340  206.3960  151.2970 C   0  0  0  0  0  2  0  0  0  0  0  0
  160.8290  204.9470  147.4440 N   0  0  2  0  0  0  0  0  0  0  0  0
  161.6490  204.8570  149.6980 N   0  0  2  0  0  0  0  0  0  0  0  0
  161.7120  206.0790  147.6440 C   0  0  0  0  0  2  0  0  0  0  0  0
  161.9000  206.1830  149.1350 C   0  0  0  0  0  2  0  0  0  0  0  0
  161.1560  204.0530  148.5740 C   0  0  2  0  0  3  0  0  0  0  0  0
  160.8310  206.0960  144.4960 C   0  0  0  0  0  2  0  0  0  0  0  0
  160.0710  204.9530  145.1190 C   0  0  0  0  0  2  0  0  0  0  0  0
  162.2450  205.7550  144.5380 N   0  0  0  0  0  2  0  0  0  0  0  0
  162.4050  204.7230  145.5570 C   0  0  0  0  0  2  0  0  0  0  0  0
  161.0350  204.3520  146.1120 C   0  0  1  0  0  3  0  0  0  0  0  0
  162.1440  202.9060  148.2610 C   0  0  0  0  0  2  0  0  0  0  0  0
  161.5170  201.5180  148.3440 C   0  0  0  0  0  2  0  0  0  0  0  0
  160.2350  201.6030  148.8850 O   0  0  0  0  0  1  0  0  0  0  0  0
  158.9260  211.8560  151.9300 N   0  0  0  0  0  2  0  0  0  0  0  0
  158.9770  213.5870  151.9550 S   0  0  0  0  0  0  0  0  0  0  0  0
  160.3770  214.0320  152.2770 O   0  0  0  0  0  0  0  0  0  0  0  0
  158.0420  214.0950  153.0170 O   0  0  0  0  0  0  0  0  0  0  0  0
  157.6360  213.2090  149.7660 C   0  0  0  0  0  2  0  0  0  0  0  0
  158.4970  214.2130  150.4080 N   0  0  0  0  0  0  0  0  0  0  0  0
  159.5700  213.8830  146.6930 C   0  0  0  0  0  3  0  0  0  0  0  0
  159.9750  214.4530  149.4290 S   0  0  0  0  0  0  0  0  0  0  0  0
  159.1450  213.7900  148.0180 C   0  0  0  0  0  0  0  0  0  0  0  0
  158.8030  213.3230  145.7130 N   0  0  0  0  0  0  0  0  0  0  0  0
  157.1810  212.5990  147.3270 C   0  0  0  0  0  3  0  0  0  0  0  0
  157.9650  213.1770  148.3250 C   0  0  0  0  0  0  0  0  0  0  0  0
  157.6310  212.6850  146.0010 C   0  0  0  0  0  3  0  0  0  0  0  0
  1 22  1  6  0  0  0
  1  8  1  0  0  0  0
  2 15  1  0  0  0  0
  3 10  1  0  0  0  0
  3  6  1  0  0  0  0
  4  2  1  0  0  0  0
  4  5  1  0  0  0  0
  5  7  1  0  0  0  0
  6 12  1  0  0  0  0
  7  3  1  0  0  0  0
  9  4  1  0  0  0  0
 10 18  1  0  0  0  0
 11  6  1  0  0  0  0
 11  1  1  0  0  0  0
 12  8  2  0  0  0  0
 12 16  1  0  0  0  0
 13 23  1  0  0  0  0
 13 14  1  0  0  0  0
 14 22  1  0  0  0  0
 15 17  1  0  0  0  0
 16 19  1  0  0  0  0
 17  7  1  0  0  0  0
 17 20  1  0  0  0  0
 18 19  1  0  0  0  0
 20 10  1  0  0  0  0
 21  4  1  0  0  0  0
 23 11  1  0  0  0  0
 24 26  1  0  0  0  0
 24 28  1  0  0  0  0
 25 13  1  0  0  0  0
 26 27  1  0  0  0  0
 27 25  1  0  0  0  0
 28 25  1  0  0  0  0
 29 31  1  0  0  0  0
 29 30  1  0  0  0  0
 30 33  1  0  0  0  0
 31 32  1  0  0  0  0
 32 33  1  0  0  0  0
 33 24  1  0  0  0  0
 34 35  1  0  0  0  0
 34 28  1  0  0  0  0
 35 36  1  0  0  0  0
 37 38  1  0  0  0  0
 37 20  1  0  0  0  0
 38 39  2  0  0  0  0
 38 40  2  0  0  0  0
 41 42  1  0  0  0  0
 42 38  1  0  0  0  0
 43 45  1  0  0  0  0
 44 42  1  0  0  0  0
 45 48  2  0  0  0  0
 45 44  1  0  0  0  0
 46 49  1  0  0  0  0
 46 43  2  0  0  0  0
 47 48  1  0  0  0  0
 48 41  1  0  0  0  0
 49 47  2  0  0  0  0
M  END
>  <MODEL>
1

>  <REMARK>
 VINA RESULT:      -3.5      0.000      0.000
  Name = 
  7 active torsions:
  status: ('A' for Active; 'I' for Inactive)
    1  A    between atoms: N_1  and  C_38
    2  A    between atoms: C_2  and  C_39
    3  A    between atoms: N_6  and  C_29
    4  A    between atoms: S_7  and  N_9
    5  A    between atoms: S_7  and  N_15
    6  A    between atoms: N_15  and  C_42
    7  A    between atoms: C_32  and  C_39
                            x       y       z     vdW  Elec       q    Type
                         _______ _______ _______ _____ _____    ______ ____

>  <TORSDO>
F 7

$$$$
=
 OpenBabel11072411433D

 49 57  0  0  1  0  0  0  0  0999 V2000
  161.3840  205.6730  153.5870 C   0  0  2  0  0  3  0  0  0  0  0  0
  162.5960  211.1190  148.9700 C   0  0  0  0  0  2  0  0  0  0  0  0
  160.8130  209.1320  152.2700 C   0  0  2  0  0  3  0  0  0  0  0  0
  162.1320  209.6810  148.6380 C   0  0  1  0  0  0  0  0  0  0  0  0
  161.8190  208.8400  149.8960 C   0  0  0  0  0  2  0  0  0  0  0  0
  161.5610  208.0420  153.0840 C   0  0  2  0  0  3  0  0  0  0  0  0
  161.6340  209.7050  151.1390 C   0  0  1  0  0  3  0  0  0  0  0  0
  160.8220  206.4730  154.6560 N   0  0  0  0  0  0  0  0  0  0  0  0
  160.9880  209.7440  147.8410 O   0  0  0  0  0  1  0  0  0  0  0  0
  160.3480  210.3000  153.0520 N   0  0  1  0  0  0  0  0  0  0  0  0
  161.6070  206.6510  152.4140 C   0  0  2  0  0  3  0  0  0  0  0  0
  160.9290  207.7310  154.4040 C   0  0  0  0  0  0  0  0  0  0  0  0
  160.5780  205.0060  150.7630 C   0  0  1  0  0  3  0  0  0  0  0  0
  160.7800  203.9520  151.8770 C   0  0  0  0  0  2  0  0  0  0  0  0
  161.6700  211.8700  149.9540 C   0  0  0  0  0  2  0  0  0  0  0  0
  160.5050  208.7110  155.3590 N   0  0  0  0  0  2  0  0  0  0  0  0
  160.8240  210.9030  150.7750 C   0  0  2  0  0  3  0  0  0  0  0  0
  161.3390  210.6670  154.0600 C   0  0  0  0  0  2  0  0  0  0  0  0
  160.9680  210.0960  155.4230 C   0  0  0  0  0  2  0  0  0  0  0  0
  160.3250  211.4230  152.1050 C   0  0  1  0  0  3  0  0  0  0  0  0
  163.2290  208.9880  147.8590 C   0  0  0  0  0  1  0  0  0  0  0  0
  160.4600  204.4950  153.2660 C   0  0  0  0  0  2  0  0  0  0  0  0
  160.5320  206.4380  151.3340 C   0  0  0  0  0  2  0  0  0  0  0  0
  160.7730  204.9740  147.4840 N   0  0  2  0  0  0  0  0  0  0  0  0
  161.6180  204.8870  149.7290 N   0  0  2  0  0  0  0  0  0  0  0  0
  161.6660  206.1010  147.6700 C   0  0  0  0  0  2  0  0  0  0  0  0
  161.8730  206.2090  149.1580 C   0  0  0  0  0  2  0  0  0  0  0  0
  161.1070  204.0810  148.6130 C   0  0  2  0  0  3  0  0  0  0  0  0
  160.8520  206.1280  144.5390 C   0  0  0  0  0  2  0  0  0  0  0  0
  160.0330  205.0210  145.1540 C   0  0  0  0  0  2  0  0  0  0  0  0
  162.2480  205.7190  144.5900 N   0  0  0  0  0  2  0  0  0  0  0  0
  162.3500  204.6790  145.6070 C   0  0  0  0  0  2  0  0  0  0  0  0
  160.9600  204.3720  146.1520 C   0  0  1  0  0  3  0  0  0  0  0  0
  162.0840  202.9270  148.2930 C   0  0  0  0  0  2  0  0  0  0  0  0
  161.4170  201.5570  148.2440 C   0  0  0  0  0  2  0  0  0  0  0  0
  160.4810  201.4410  149.2710 O   0  0  0  0  0  1  0  0  0  0  0  0
  158.9630  211.9110  151.9600 N   0  0  0  0  0  2  0  0  0  0  0  0
  159.0450  213.6250  151.7210 S   0  0  0  0  0  0  0  0  0  0  0  0
  158.3290  213.9750  150.4450 O   0  0  0  0  0  0  0  0  0  0  0  0
  160.4860  214.0410  151.6070 O   0  0  0  0  0  0  0  0  0  0  0  0
  158.6180  213.6810  154.2780 C   0  0  0  0  0  2  0  0  0  0  0  0
  158.3050  214.4430  153.0600 N   0  0  0  0  0  0  0  0  0  0  0  0
  155.0730  214.1710  155.1920 C   0  0  0  0  0  3  0  0  0  0  0  0
  156.5360  214.4500  152.7930 S   0  0  0  0  0  0  0  0  0  0  0  0
  156.2800  214.0710  154.4990 C   0  0  0  0  0  0  0  0  0  0  0  0
  155.0460  213.8480  156.5180 N   0  0  0  0  0  0  0  0  0  0  0  0
  157.3950  213.3520  156.4970 C   0  0  0  0  0  3  0  0  0  0  0  0
  157.4190  213.6870  155.1440 C   0  0  0  0  0  0  0  0  0  0  0  0
  156.1700  213.4400  157.1770 C   0  0  0  0  0  3  0  0  0  0  0  0
  1 22  1  6  0  0  0
  1  8  1  0  0  0  0
  2 15  1  0  0  0  0
  3 10  1  0  0  0  0
  3  6  1  0  0  0  0
  4  2  1  0  0  0  0
  4  5  1  0  0  0  0
  5  7  1  0  0  0  0
  6 12  1  0  0  0  0
  7  3  1  0  0  0  0
  9  4  1  0  0  0  0
 10 18  1  0  0  0  0
 11  6  1  0  0  0  0
 11  1  1  0  0  0  0
 12  8  2  0  0  0  0
 12 16  1  0  0  0  0
 13 23  1  0  0  0  0
 13 14  1  0  0  0  0
 14 22  1  0  0  0  0
 15 17  1  0  0  0  0
 16 19  1  0  0  0  0
 17  7  1  0  0  0  0
 17 20  1  0  0  0  0
 18 19  1  0  0  0  0
 20 10  1  0  0  0  0
 21  4  1  0  0  0  0
 23 11  1  0  0  0  0
 24 26  1  0  0  0  0
 24 28  1  0  0  0  0
 25 13  1  0  0  0  0
 26 27  1  0  0  0  0
 27 25  1  0  0  0  0
 28 25  1  0  0  0  0
 29 31  1  0  0  0  0
 29 30  1  0  0  0  0
 30 33  1  0  0  0  0
 31 32  1  0  0  0  0
 32 33  1  0  0  0  0
 33 24  1  0  0  0  0
 34 28  1  0  0  0  0
 35 34  1  0  0  0  0
 35 36  1  0  0  0  0
 37 20  1  0  0  0  0
 38 37  1  0  0  0  0
 38 42  1  0  0  0  0
 39 38  2  0  0  0  0
 40 38  2  0  0  0  0
 41 48  1  0  0  0  0
 42 41  1  0  0  0  0
 43 46  1  0  0  0  0
 44 42  1  0  0  0  0
 44 45  1  0  0  0  0
 45 48  1  0  0  0  0
 45 43  2  0  0  0  0
 46 49  2  0  0  0  0
 47 49  1  0  0  0  0
 48 47  2  0  0  0  0
M  END
>  <MODEL>
2

>  <REMARK>
 VINA RESULT:      -3.3      2.126      3.502
  Name = 
  7 active torsions:
  status: ('A' for Active; 'I' for Inactive)
    1  A    between atoms: N_1  and  C_38
    2  A    between atoms: C_2  and  C_39
    3  A    between atoms: N_6  and  C_29
    4  A    between atoms: S_7  and  N_9
    5  A    between atoms: S_7  and  N_15
    6  A    between atoms: N_15  and  C_42
    7  A    between atoms: C_32  and  C_39
                            x       y       z     vdW  Elec       q    Type
                         _______ _______ _______ _____ _____    ______ ____

>  <TORSDO>
F 7

$$$$
=
 OpenBabel11072411433D

 49 57  0  0  1  0  0  0  0  0999 V2000
  160.6930  212.3700  151.3620 C   0  0  2  0  0  3  0  0  0  0  0  0
  161.0240  206.5270  155.6260 C   0  0  0  0  0  2  0  0  0  0  0  0
  160.7680  208.6770  151.9750 C   0  0  2  0  0  3  0  0  0  0  0  0
  159.9810  207.6680  155.6620 C   0  0  1  0  0  0  0  0  0  0  0  0
  160.1310  208.6640  154.4900 C   0  0  0  0  0  2  0  0  0  0  0  0
  161.3930  210.0870  151.7980 C   0  0  2  0  0  3  0  0  0  0  0  0
  160.9770  208.0970  153.3540 C   0  0  1  0  0  3  0  0  0  0  0  0
  161.1340  211.7220  150.1430 N   0  0  0  0  0  0  0  0  0  0  0  0
  158.7000  207.1160  155.6230 O   0  0  0  0  0  1  0  0  0  0  0  0
  161.2560  207.6440  151.0340 N   0  0  1  0  0  0  0  0  0  0  0  0
  160.5690  211.2420  152.4080 C   0  0  2  0  0  3  0  0  0  0  0  0
  161.5240  210.5170  150.3710 C   0  0  0  0  0  0  0  0  0  0  0  0
  158.3020  212.1160  153.1760 C   0  0  1  0  0  3  0  0  0  0  0  0
  158.6900  213.4160  152.4320 C   0  0  0  0  0  2  0  0  0  0  0  0
  161.1250  205.8060  154.2620 C   0  0  0  0  0  2  0  0  0  0  0  0
  162.0710  209.7100  149.3210 N   0  0  0  0  0  2  0  0  0  0  0  0
  160.5880  206.6750  153.1290 C   0  0  2  0  0  3  0  0  0  0  0  0
  162.6890  207.8030  150.8000 C   0  0  0  0  0  2  0  0  0  0  0  0
  162.9490  208.5560  149.5010 C   0  0  0  0  0  2  0  0  0  0  0  0
  161.1200  206.3670  151.7470 C   0  0  1  0  0  3  0  0  0  0  0  0
  160.1410  208.4270  156.9610 C   0  0  0  0  0  1  0  0  0  0  0  0
  159.3990  213.1480  151.1090 C   0  0  0  0  0  2  0  0  0  0  0  0
  159.0870  210.8990  152.6450 C   0  0  0  0  0  2  0  0  0  0  0  0
  160.7110  211.7790  155.3840 N   0  0  2  0  0  0  0  0  0  0  0  0
  158.4850  212.2650  154.6290 N   0  0  2  0  0  0  0  0  0  0  0  0
  160.4280  213.1670  155.6920 C   0  0  0  0  0  2  0  0  0  0  0  0
  159.2000  213.5130  154.8900 C   0  0  0  0  0  2  0  0  0  0  0  0
  159.3750  211.2060  155.1200 C   0  0  2  0  0  3  0  0  0  0  0  0
  163.7410  211.0000  155.8560 C   0  0  0  0  0  2  0  0  0  0  0  0
  162.4780  210.1830  155.9420 C   0  0  0  0  0  2  0  0  0  0  0  0
  163.6740  212.0210  156.8900 N   0  0  0  0  0  2  0  0  0  0  0  0
  162.2700  212.1600  157.2610 C   0  0  0  0  0  2  0  0  0  0  0  0
  161.4440  211.1370  156.4890 C   0  0  1  0  0  3  0  0  0  0  0  0
  158.7170  210.4580  156.3020 C   0  0  0  0  0  2  0  0  0  0  0  0
  157.9410  211.3700  157.2470 C   0  0  0  0  0  2  0  0  0  0  0  0
  156.5750  211.2940  156.9740 O   0  0  0  0  0  1  0  0  0  0  0  0
  160.1810  205.5110  151.0410 N   0  0  0  0  0  2  0  0  0  0  0  0
  161.0400  204.0920  150.5420 S   0  0  0  0  0  0  0  0  0  0  0  0
  160.0710  202.9450  150.4360 O   0  0  0  0  0  0  0  0  0  0  0  0
  162.0860  203.7590  151.5700 O   0  0  0  0  0  0  0  0  0  0  0  0
  161.1510  205.5400  148.3930 C   0  0  0  0  0  2  0  0  0  0  0  0
  161.7990  204.3720  149.0060 N   0  0  0  0  0  0  0  0  0  0  0  0
  161.1420  203.5770  145.2650 C   0  0  0  0  0  3  0  0  0  0  0  0
  161.5270  202.9270  147.9860 S   0  0  0  0  0  0  0  0  0  0  0  0
  161.1930  203.9720  146.6010 C   0  0  0  0  0  0  0  0  0  0  0  0
  160.8810  204.5150  144.3090 N   0  0  0  0  0  0  0  0  0  0  0  0
  160.7440  206.2420  145.9700 C   0  0  0  0  0  3  0  0  0  0  0  0
  161.0160  205.2810  146.9440 C   0  0  0  0  0  0  0  0  0  0  0  0
  160.6780  205.8260  144.6320 C   0  0  0  0  0  3  0  0  0  0  0  0
  1 22  1  6  0  0  0
  1 11  1  0  0  0  0
  2  4  1  0  0  0  0
  3  7  1  0  0  0  0
  4 21  1  0  0  0  0
  5  4  1  0  0  0  0
  6  3  1  0  0  0  0
  6 11  1  0  0  0  0
  7  5  1  0  0  0  0
  8 12  2  0  0  0  0
  8  1  1  0  0  0  0
  9  4  1  0  0  0  0
 10 20  1  0  0  0  0
 10  3  1  0  0  0  0
 11 23  1  0  0  0  0
 12  6  1  0  0  0  0
 13 25  1  0  0  0  0
 14 13  1  0  0  0  0
 15  2  1  0  0  0  0
 16 19  1  0  0  0  0
 16 12  1  0  0  0  0
 17  7  1  0  0  0  0
 17 15  1  0  0  0  0
 18 10  1  0  0  0  0
 19 18  1  0  0  0  0
 20 17  1  0  0  0  0
 22 14  1  0  0  0  0
 23 13  1  0  0  0  0
 24 26  1  0  0  0  0
 24 33  1  0  0  0  0
 25 27  1  0  0  0  0
 25 28  1  0  0  0  0
 27 26  1  0  0  0  0
 28 24  1  0  0  0  0
 28 34  1  0  0  0  0
 29 30  1  0  0  0  0
 29 31  1  0  0  0  0
 30 33  1  0  0  0  0
 31 32  1  0  0  0  0
 33 32  1  0  0  0  0
 34 35  1  0  0  0  0
 36 35  1  0  0  0  0
 37 20  1  0  0  0  0
 38 37  1  0  0  0  0
 38 40  2  0  0  0  0
 39 38  2  0  0  0  0
 41 42  1  0  0  0  0
 42 38  1  0  0  0  0
 43 45  1  0  0  0  0
 44 42  1  0  0  0  0
 45 48  2  0  0  0  0
 45 44  1  0  0  0  0
 46 49  1  0  0  0  0
 46 43  2  0  0  0  0
 47 48  1  0  0  0  0
 48 41  1  0  0  0  0
 49 47  2  0  0  0  0
M  END
>  <MODEL>
3

>  <REMARK>
 VINA RESULT:      -2.6      3.421      9.041
  Name = 
  7 active torsions:
  status: ('A' for Active; 'I' for Inactive)
    1  A    between atoms: N_1  and  C_38
    2  A    between atoms: C_2  and  C_39
    3  A    between atoms: N_6  and  C_29
    4  A    between atoms: S_7  and  N_9
    5  A    between atoms: S_7  and  N_15
    6  A    between atoms: N_15  and  C_42
    7  A    between atoms: C_32  and  C_39
                            x       y       z     vdW  Elec       q    Type
                         _______ _______ _______ _____ _____    ______ ____

>  <TORSDO>
F 7

$$$$
=
 OpenBabel11072411433D

 49 57  0  0  1  0  0  0  0  0999 V2000
  160.2250  213.7010  151.0280 C   0  0  2  0  0  3  0  0  0  0  0  0
  162.1750  207.0970  153.2670 C   0  0  0  0  0  2  0  0  0  0  0  0
  161.0400  210.0890  150.4780 C   0  0  2  0  0  3  0  0  0  0  0  0
  160.9600  207.9340  153.7310 C   0  0  1  0  0  0  0  0  0  0  0  0
  160.7680  209.2300  152.9110 C   0  0  0  0  0  2  0  0  0  0  0  0
  161.3740  211.5900  150.6910 C   0  0  2  0  0  3  0  0  0  0  0  0
  161.5370  209.1990  151.5940 C   0  0  1  0  0  3  0  0  0  0  0  0
  160.6030  213.5340  149.6400 N   0  0  0  0  0  0  0  0  0  0  0  0
  159.8050  207.1580  153.6250 O   0  0  0  0  0  1  0  0  0  0  0  0
  161.5720  209.4920  149.2320 N   0  0  1  0  0  0  0  0  0  0  0  0
  160.4490  212.3230  151.6870 C   0  0  2  0  0  3  0  0  0  0  0  0
  161.2290  212.4230  149.4580 C   0  0  0  0  0  0  0  0  0  0  0  0
  158.1900  212.4450  152.8590 C   0  0  1  0  0  3  0  0  0  0  0  0
  158.2330  213.9540  152.5190 C   0  0  0  0  0  2  0  0  0  0  0  0
  162.2140  206.8300  151.7450 C   0  0  0  0  0  2  0  0  0  0  0  0
  161.7610  212.0820  148.1720 N   0  0  0  0  0  2  0  0  0  0  0  0
  161.3810  207.8500  150.9770 C   0  0  2  0  0  3  0  0  0  0  0  0
  162.9070  210.0090  148.9470 C   0  0  0  0  0  2  0  0  0  0  0  0
  162.8480  211.1370  147.9230 C   0  0  0  0  0  2  0  0  0  0  0  0
  161.7650  208.0660  149.5300 C   0  0  1  0  0  3  0  0  0  0  0  0
  161.1590  208.3100  155.1840 C   0  0  0  0  0  1  0  0  0  0  0  0
  158.7900  214.2270  151.1260 C   0  0  0  0  0  2  0  0  0  0  0  0
  159.0990  211.6220  151.9230 C   0  0  0  0  0  2  0  0  0  0  0  0
  156.6430  212.0670  155.7320 N   0  0  2  0  0  0  0  0  0  0  0  0
  158.5410  212.2110  154.2690 N   0  0  2  0  0  0  0  0  0  0  0  0
  157.3390  210.7960  155.7760 C   0  0  0  0  0  2  0  0  0  0  0  0
  158.2770  210.8110  154.5970 C   0  0  0  0  0  2  0  0  0  0  0  0
  157.6360  212.9820  155.1310 C   0  0  2  0  0  3  0  0  0  0  0  0
  154.8860  214.4490  156.8520 C   0  0  0  0  0  2  0  0  0  0  0  0
  156.2600  213.9580  157.2350 C   0  0  0  0  0  2  0  0  0  0  0  0
  153.9400  213.3880  157.1660 N   0  0  0  0  0  2  0  0  0  0  0  0
  154.7050  212.1490  157.2590 C   0  0  0  0  0  2  0  0  0  0  0  0
  156.1860  212.4590  157.0770 C   0  0  1  0  0  3  0  0  0  0  0  0
  158.4470  213.8440  156.1250 C   0  0  0  0  0  2  0  0  0  0  0  0
  159.6320  213.1110  156.7450 C   0  0  0  0  0  2  0  0  0  0  0  0
  160.6630  214.0110  157.0170 O   0  0  0  0  0  1  0  0  0  0  0  0
  160.9050  207.2670  148.6710 N   0  0  0  0  0  2  0  0  0  0  0  0
  161.8980  206.5900  147.4240 S   0  0  0  0  0  0  0  0  0  0  0  0
  163.1960  207.3480  147.3640 O   0  0  0  0  0  0  0  0  0  0  0  0
  161.1900  206.7190  146.1030 O   0  0  0  0  0  0  0  0  0  0  0  0
  161.9250  204.1530  146.5340 C   0  0  0  0  0  2  0  0  0  0  0  0
  162.2040  204.9150  147.7600 N   0  0  0  0  0  0  0  0  0  0  0  0
  160.1910  201.7400  148.7260 C   0  0  0  0  0  3  0  0  0  0  0  0
  161.0840  204.3990  149.0560 S   0  0  0  0  0  0  0  0  0  0  0  0
  160.7960  202.8820  148.1990 C   0  0  0  0  0  0  0  0  0  0  0  0
  160.0520  200.6400  147.9300 N   0  0  0  0  0  0  0  0  0  0  0  0
  161.1240  201.7660  146.1010 C   0  0  0  0  0  3  0  0  0  0  0  0
  161.2680  202.8860  146.9190 C   0  0  0  0  0  0  0  0  0  0  0  0
  160.4970  200.6320  146.6400 C   0  0  0  0  0  3  0  0  0  0  0  0
  1 22  1  6  0  0  0
  1 11  1  0  0  0  0
  2  4  1  0  0  0  0
  3  6  1  0  0  0  0
  3  7  1  0  0  0  0
  4 21  1  0  0  0  0
  5  4  1  0  0  0  0
  6 11  1  0  0  0  0
  7  5  1  0  0  0  0
  8  1  1  0  0  0  0
  9  4  1  0  0  0  0
 10 20  1  0  0  0  0
 10  3  1  0  0  0  0
 11 23  1  0  0  0  0
 12  8  2  0  0  0  0
 12  6  1  0  0  0  0
 13 25  1  0  0  0  0
 14 13  1  0  0  0  0
 15  2  1  0  0  0  0
 16 12  1  0  0  0  0
 17  7  1  0  0  0  0
 17 15  1  0  0  0  0
 18 10  1  0  0  0  0
 19 16  1  0  0  0  0
 19 18  1  0  0  0  0
 20 17  1  0  0  0  0
 22 14  1  0  0  0  0
 23 13  1  0  0  0  0
 24 26  1  0  0  0  0
 24 33  1  0  0  0  0
 25 27  1  0  0  0  0
 25 28  1  0  0  0  0
 27 26  1  0  0  0  0
 28 24  1  0  0  0  0
 28 34  1  0  0  0  0
 29 31  1  0  0  0  0
 29 30  1  0  0  0  0
 31 32  1  0  0  0  0
 33 30  1  0  0  0  0
 33 32  1  0  0  0  0
 34 35  1  0  0  0  0
 35 36  1  0  0  0  0
 37 20  1  0  0  0  0
 38 42  1  0  0  0  0
 38 37  1  0  0  0  0
 39 38  2  0  0  0  0
 40 38  2  0  0  0  0
 41 48  1  0  0  0  0
 41 42  1  0  0  0  0
 42 44  1  0  0  0  0
 45 43  1  0  0  0  0
 45 44  1  0  0  0  0
 46 43  2  0  0  0  0
 47 49  2  0  0  0  0
 47 48  1  0  0  0  0
 48 45  2  0  0  0  0
 49 46  1  0  0  0  0
M  END
>  <MODEL>
4

>  <REMARK>
 VINA RESULT:      -2.0      3.798      9.934
  Name = 
  7 active torsions:
  status: ('A' for Active; 'I' for Inactive)
    1  A    between atoms: N_1  and  C_38
    2  A    between atoms: C_2  and  C_39
    3  A    between atoms: N_6  and  C_29
    4  A    between atoms: S_7  and  N_9
    5  A    between atoms: S_7  and  N_15
    6  A    between atoms: N_15  and  C_42
    7  A    between atoms: C_32  and  C_39
                            x       y       z     vdW  Elec       q    Type
                         _______ _______ _______ _____ _____    ______ ____

>  <TORSDO>
F 7

$$$$
=
 OpenBabel11072411433D

 49 57  0  0  1  0  0  0  0  0999 V2000
  161.3980  205.1240  153.1950 C   0  0  2  0  0  3  0  0  0  0  0  0
  162.7570  210.9710  149.1450 C   0  0  0  0  0  2  0  0  0  0  0  0
  160.8920  208.7010  152.2090 C   0  0  2  0  0  3  0  0  0  0  0  0
  162.2820  209.5790  148.6690 C   0  0  1  0  0  0  0  0  0  0  0  0
  161.9360  208.6250  149.8340 C   0  0  0  0  0  2  0  0  0  0  0  0
  161.6120  207.5280  152.9250 C   0  0  2  0  0  3  0  0  0  0  0  0
  161.7400  209.3690  151.1510 C   0  0  1  0  0  3  0  0  0  0  0  0
  160.8270  205.8250  154.3270 N   0  0  0  0  0  0  0  0  0  0  0  0
  161.1530  209.7330  147.8620 O   0  0  0  0  0  1  0  0  0  0  0  0
  160.4270  209.7950  153.0910 N   0  0  1  0  0  0  0  0  0  0  0  0
  161.6540  206.2070  152.1250 C   0  0  2  0  0  3  0  0  0  0  0  0
  160.9540  207.1000  154.1990 C   0  0  0  0  0  0  0  0  0  0  0  0
  160.6340  204.7430  150.3060 C   0  0  1  0  0  3  0  0  0  0  0  0
  160.8030  203.5840  151.3170 C   0  0  0  0  0  2  0  0  0  0  0  0
  161.8230  211.6370  150.1810 C   0  0  0  0  0  2  0  0  0  0  0  0
  160.5240  207.9890  155.2360 N   0  0  0  0  0  2  0  0  0  0  0  0
  160.9500  210.6080  150.8910 C   0  0  2  0  0  3  0  0  0  0  0  0
  161.4050  210.0490  154.1460 C   0  0  0  0  0  2  0  0  0  0  0  0
  161.0030  209.3550  155.4420 C   0  0  0  0  0  2  0  0  0  0  0  0
  160.4350  211.0040  152.2570 C   0  0  1  0  0  3  0  0  0  0  0  0
  163.3840  208.9490  147.8440 C   0  0  0  0  0  1  0  0  0  0  0  0
  160.4660  203.9950  152.7460 C   0  0  0  0  0  2  0  0  0  0  0  0
  160.5950  206.1140  151.0120 C   0  0  0  0  0  2  0  0  0  0  0  0
  160.8630  204.6980  147.0300 N   0  0  2  0  0  0  0  0  0  0  0  0
  161.6910  204.7090  149.2830 N   0  0  2  0  0  0  0  0  0  0  0  0
  161.6480  205.9030  147.2120 C   0  0  0  0  0  2  0  0  0  0  0  0
  161.8290  206.0430  148.7010 C   0  0  0  0  0  2  0  0  0  0  0  0
  161.2660  203.8500  148.1710 C   0  0  2  0  0  3  0  0  0  0  0  0
  160.0580  205.4850  144.0730 C   0  0  0  0  0  2  0  0  0  0  0  0
  159.8810  204.2030  144.8460 C   0  0  0  0  0  2  0  0  0  0  0  0
  161.4880  205.7070  143.9160 N   0  0  0  0  0  2  0  0  0  0  0  0
  162.1580  204.9110  144.9380 C   0  0  0  0  0  2  0  0  0  0  0  0
  161.1180  204.1040  145.7060 C   0  0  1  0  0  3  0  0  0  0  0  0
  162.3470  202.7870  147.8720 C   0  0  0  0  0  2  0  0  0  0  0  0
  161.7770  201.4290  147.4750 C   0  0  0  0  0  2  0  0  0  0  0  0
  160.9940  200.9170  148.5100 O   0  0  0  0  0  1  0  0  0  0  0  0
  159.0820  211.5220  152.1370 N   0  0  0  0  0  2  0  0  0  0  0  0
  159.0540  213.0850  152.8830 S   0  0  0  0  0  0  0  0  0  0  0  0
  160.4640  213.5960  153.0030 O   0  0  0  0  0  0  0  0  0  0  0  0
  158.4540  212.9670  154.2580 O   0  0  0  0  0  0  0  0  0  0  0  0
  156.7010  214.0290  152.3320 C   0  0  0  0  0  2  0  0  0  0  0  0
  158.1050  214.1780  151.9250 N   0  0  0  0  0  0  0  0  0  0  0  0
  155.9120  214.0660  148.7250 C   0  0  0  0  0  3  0  0  0  0  0  0
  158.2880  213.7060  150.2090 S   0  0  0  0  0  0  0  0  0  0  0  0
  156.5590  213.9660  149.9570 C   0  0  0  0  0  0  0  0  0  0  0  0
  154.5640  214.2810  148.7030 N   0  0  0  0  0  0  0  0  0  0  0  0
  154.4820  214.3260  151.1020 C   0  0  0  0  0  3  0  0  0  0  0  0
  155.8600  214.1120  151.1200 C   0  0  0  0  0  0  0  0  0  0  0  0
  153.8430  214.4060  149.8550 C   0  0  0  0  0  3  0  0  0  0  0  0
  1 22  1  6  0  0  0
  1  8  1  0  0  0  0
  2 15  1  0  0  0  0
  3  6  1  0  0  0  0
  3 10  1  0  0  0  0
  4  2  1  0  0  0  0
  4  5  1  0  0  0  0
  5  7  1  0  0  0  0
  6 12  1  0  0  0  0
  7  3  1  0  0  0  0
  9  4  1  0  0  0  0
 10 18  1  0  0  0  0
 11  6  1  0  0  0  0
 11  1  1  0  0  0  0
 12  8  2  0  0  0  0
 12 16  1  0  0  0  0
 13 23  1  0  0  0  0
 13 14  1  0  0  0  0
 14 22  1  0  0  0  0
 15 17  1  0  0  0  0
 16 19  1  0  0  0  0
 17  7  1  0  0  0  0
 17 20  1  0  0  0  0
 18 19  1  0  0  0  0
 20 10  1  0  0  0  0
 21  4  1  0  0  0  0
 23 11  1  0  0  0  0
 24 26  1  0  0  0  0
 24 28  1  0  0  0  0
 25 13  1  0  0  0  0
 26 27  1  0  0  0  0
 27 25  1  0  0  0  0
 28 25  1  0  0  0  0
 29 30  1  0  0  0  0
 30 33  1  0  0  0  0
 31 29  1  0  0  0  0
 31 32  1  0  0  0  0
 32 33  1  0  0  0  0
 33 24  1  0  0  0  0
 34 28  1  0  0  0  0
 35 34  1  0  0  0  0
 35 36  1  0  0  0  0
 37 20  1  0  0  0  0
 37 38  1  0  0  0  0
 38 39  2  0  0  0  0
 38 40  2  0  0  0  0
 42 41  1  0  0  0  0
 42 38  1  0  0  0  0
 43 45  1  0  0  0  0
 44 42  1  0  0  0  0
 45 44  1  0  0  0  0
 45 48  2  0  0  0  0
 46 43  2  0  0  0  0
 46 49  1  0  0  0  0
 47 48  1  0  0  0  0
 48 41  1  0  0  0  0
 49 47  2  0  0  0  0
M  END
>  <MODEL>
5

>  <REMARK>
 VINA RESULT:      -1.5      1.459      1.791
  Name = 
  7 active torsions:
  status: ('A' for Active; 'I' for Inactive)
    1  A    between atoms: N_1  and  C_38
    2  A    between atoms: C_2  and  C_39
    3  A    between atoms: N_6  and  C_29
    4  A    between atoms: S_7  and  N_9
    5  A    between atoms: S_7  and  N_15
    6  A    between atoms: N_15  and  C_42
    7  A    between atoms: C_32  and  C_39
                            x       y       z     vdW  Elec       q    Type
                         _______ _______ _______ _____ _____    ______ ____

>  <TORSDO>
F 7

$$$$
