=
 OpenBabel11072410123D

 43 49  0  0  1  0  0  0  0  0999 V2000
  160.7620  204.3330  149.0170 C   0  0  0  0  0  2  0  0  0  0  0  0
  161.8930  205.7930  147.3500 C   0  0  1  0  0  3  0  0  0  0  0  0
  161.9240  210.5590  148.6920 C   0  0  0  0  0  0  0  0  0  0  0  0
  160.1500  212.3860  147.7890 S   0  0  0  0  0  0  0  0  0  0  0  0
  160.6950  205.4090  150.0890 C   0  0  1  0  0  3  0  0  0  0  0  0
  160.8000  204.7600  151.4560 C   0  0  0  0  0  1  0  0  0  0  0  0
  163.5320  207.4650  148.3360 C   0  0  0  0  0  2  0  0  0  0  0  0
  161.0410  213.3090  146.5580 C   0  0  0  0  0  0  0  0  0  0  0  0
  162.3890  213.3290  146.6800 C   0  0  0  0  0  0  0  0  0  0  0  0
  162.2980  208.2740  147.9810 C   0  0  2  0  0  3  0  0  0  0  0  0
  162.9330  213.4360  145.4520 N   0  0  0  0  0  0  0  0  0  0  0  0
  162.0820  209.3130  149.0420 C   0  0  0  0  0  0  0  0  0  0  0  0
  161.9160  213.5100  144.5990 N   0  0  0  0  0  0  0  0  0  0  0  0
  162.9530  212.5730  147.8190 C   0  0  0  0  0  2  0  0  0  0  0  0
  162.0820  208.9580  150.4900 C   0  0  0  0  0  2  0  0  0  0  0  0
  161.2030  207.7420  150.6830 C   0  0  0  0  0  2  0  0  0  0  0  0
  161.7710  211.8040  148.3370 C   0  0  0  0  0  0  0  0  0  0  0  0
  160.7660  213.4120  145.2480 N   0  0  0  0  0  0  0  0  0  0  0  0
  160.6410  204.9770  147.6450 C   0  0  0  0  0  2  0  0  0  0  0  0
  162.1560  206.8240  148.4660 C   0  0  1  0  0  0  0  0  0  0  0  0
  161.7560  206.5170  149.9450 C   0  0  2  0  0  3  0  0  0  0  0  0
  163.3030  204.7000  145.7480 O   0  0  0  0  0  1  0  0  0  0  0  0
  163.0840  204.8620  147.1170 C   0  0  0  0  0  2  0  0  0  0  0  0
  159.4820  213.1910  144.6050 C   0  0  0  0  0  2  0  0  0  0  0  0
  159.6450  212.3390  143.4930 O   0  0  0  0  0  0  0  0  0  0  0  0
  158.7570  212.6850  141.2090 C   0  0  2  0  0  3  0  0  0  0  0  0
  161.0300  213.4200  140.1010 C   0  0  1  0  0  3  0  0  0  0  0  0
  159.9160  212.3950  140.2640 C   0  0  1  0  0  0  0  0  0  0  0  0
  157.8270  214.1450  140.6500 S   0  0  0  0  0  1  0  0  0  0  0  0
  159.7560  213.0810  142.2840 C   0  0  2  0  0  3  0  0  0  0  0  0
  160.9180  212.6500  141.3940 C   0  0  2  0  0  3  0  0  0  0  0  0
  158.9090  211.2660  137.8470 O   0  0  0  0  0  0  0  0  0  0  0  0
  160.1150  211.0170  139.8330 N   0  0  0  0  0  2  0  0  0  0  0  0
  159.5500  210.5080  138.6250 C   0  0  0  0  0  0  0  0  0  0  0  0
  159.6690  209.0580  138.3110 C   0  0  0  0  0  2  0  0  0  0  0  0
  161.5810  207.3300  137.4280 O   0  0  0  0  0  0  0  0  0  0  0  0
  161.4210  208.5740  138.2770 P   0  0  0  0  0  0  0  0  0  0  0  0
  162.3340  209.8320  137.6130 O   0  0  0  0  0  1  0  0  0  0  0  0
  161.9530  208.2640  139.8510 O   0  0  0  0  0  1  0  0  0  0  0  0
  162.0920  212.8850  139.3220 O   0  0  0  0  0  0  0  0  0  0  0  0
  163.7290  214.2540  140.4660 O   0  0  0  0  0  1  0  0  0  0  0  0
  163.4150  213.2650  139.5360 C   0  0  0  0  0  0  0  0  0  0  0  0
  164.3360  212.7080  138.8840 O   0  0  0  0  0  0  0  0  0  0  0  0
  1  5  1  0  0  0  0
  2 23  1  1  0  0  0
  2 19  1  0  0  0  0
  2 20  1  0  0  0  0
  3 12  2  0  0  0  0
  4 17  1  0  0  0  0
  5  6  1  1  0  0  0
  8  9  2  0  0  0  0
  8  4  1  0  0  0  0
  9 14  1  0  0  0  0
 10  7  1  1  0  0  0
 10 20  1  0  0  0  0
 10 12  1  0  0  0  0
 11  9  1  0  0  0  0
 12 15  1  0  0  0  0
 13 18  1  0  0  0  0
 13 11  2  0  0  0  0
 14 17  1  0  0  0  0
 15 16  1  0  0  0  0
 17  3  2  0  0  0  0
 18  8  1  0  0  0  0
 19  1  1  0  0  0  0
 20  7  1  1  0  0  0
 20 21  1  0  0  0  0
 21  5  1  0  0  0  0
 21 16  1  6  0  0  0
 22 23  1  0  0  0  0
 24 18  1  0  0  0  0
 25 24  1  0  0  0  0
 26 29  1  6  0  0  0
 26 30  1  0  0  0  0
 27 40  1  6  0  0  0
 27 28  1  0  0  0  0
 27 31  1  0  0  0  0
 28 33  1  6  0  0  0
 28 26  1  0  0  0  0
 28 31  1  0  0  0  0
 30 25  1  1  0  0  0
 31 30  1  0  0  0  0
 32 34  2  0  0  0  0
 34 33  1  0  0  0  0
 35 34  1  0  0  0  0
 36 37  2  0  0  0  0
 37 35  1  0  0  0  0
 37 39  1  0  0  0  0
 38 37  1  0  0  0  0
 40 42  1  0  0  0  0
 42 41  1  0  0  0  0
 43 42  2  0  0  0  0
M  END
>  <MODEL>
1

>  <REMARK>
 VINA RESULT:      -6.9      0.000      0.000
  Name = 
  9 active torsions:
  status: ('A' for Active; 'I' for Inactive)
    1  A    between atoms: C_4  and  C_28
    2  A    between atoms: C_8  and  O_42
    3  A    between atoms: P_15  and  C_34
    4  A    between atoms: C_18  and  O_42
    5  A    between atoms: N_21  and  C_23
    6  A    between atoms: C_29  and  N_33
    7  A    between atoms: C_29  and  O_38
    8  A    between atoms: C_32  and  C_34
    9  A    between atoms: C_35  and  O_38
                            x       y       z     vdW  Elec       q    Type
                         _______ _______ _______ _____ _____    ______ ____

>  <TORSDO>
F 9

$$$$
=
 OpenBabel11072410123D

 43 49  0  0  1  0  0  0  0  0999 V2000
  160.8260  204.3290  149.0600 C   0  0  0  0  0  2  0  0  0  0  0  0
  161.8840  205.7870  147.3450 C   0  0  1  0  0  3  0  0  0  0  0  0
  161.9160  210.5630  148.6530 C   0  0  0  0  0  0  0  0  0  0  0  0
  160.0940  212.3670  147.8000 S   0  0  0  0  0  0  0  0  0  0  0  0
  160.7860  205.4120  150.1270 C   0  0  1  0  0  3  0  0  0  0  0  0
  160.9440  204.7730  151.4930 C   0  0  0  0  0  1  0  0  0  0  0  0
  163.5400  207.4820  148.2620 C   0  0  0  0  0  2  0  0  0  0  0  0
  160.9330  213.2900  146.5330 C   0  0  0  0  0  0  0  0  0  0  0  0
  162.2850  213.3230  146.6080 C   0  0  0  0  0  0  0  0  0  0  0  0
  162.2870  208.2770  147.9450 C   0  0  2  0  0  3  0  0  0  0  0  0
  162.7850  213.4260  145.3610 N   0  0  0  0  0  0  0  0  0  0  0  0
  162.0990  209.3210  149.0060 C   0  0  0  0  0  0  0  0  0  0  0  0
  161.7380  213.4850  144.5430 N   0  0  0  0  0  0  0  0  0  0  0  0
  162.8950  212.5810  147.7320 C   0  0  0  0  0  2  0  0  0  0  0  0
  162.1520  208.9760  150.4550 C   0  0  0  0  0  2  0  0  0  0  0  0
  161.2920  207.7530  150.6870 C   0  0  0  0  0  2  0  0  0  0  0  0
  161.7390  211.8040  148.2960 C   0  0  0  0  0  0  0  0  0  0  0  0
  160.6120  213.3810  145.2320 N   0  0  0  0  0  0  0  0  0  0  0  0
  160.6510  204.9620  147.6880 C   0  0  0  0  0  2  0  0  0  0  0  0
  162.1760  206.8290  148.4440 C   0  0  1  0  0  0  0  0  0  0  0  0
  161.8300  206.5290  149.9380 C   0  0  2  0  0  3  0  0  0  0  0  0
  163.4390  204.9350  145.7300 O   0  0  0  0  0  1  0  0  0  0  0  0
  163.0750  204.8660  147.0770 C   0  0  0  0  0  2  0  0  0  0  0  0
  159.3090  213.1430  144.6360 C   0  0  0  0  0  2  0  0  0  0  0  0
  159.3730  212.0270  143.7770 O   0  0  0  0  0  0  0  0  0  0  0  0
  159.7970  213.0300  141.5550 C   0  0  2  0  0  3  0  0  0  0  0  0
  161.5240  211.2240  140.7230 C   0  0  1  0  0  3  0  0  0  0  0  0
  160.1470  211.8690  140.6330 C   0  0  1  0  0  0  0  0  0  0  0  0
  160.8840  214.4530  141.2310 S   0  0  0  0  0  1  0  0  0  0  0  0
  160.3210  212.2290  142.7350 C   0  0  2  0  0  3  0  0  0  0  0  0
  160.5340  211.0100  141.8420 C   0  0  2  0  0  3  0  0  0  0  0  0
  159.4100  212.2160  137.9010 O   0  0  0  0  0  0  0  0  0  0  0  0
  159.0530  211.1770  139.9630 N   0  0  0  0  0  2  0  0  0  0  0  0
  158.7170  211.4270  138.5990 C   0  0  0  0  0  0  0  0  0  0  0  0
  157.5030  210.7960  138.0130 C   0  0  0  0  0  2  0  0  0  0  0  0
  155.2380  210.9110  139.5210 O   0  0  0  0  0  1  0  0  0  0  0  0
  156.0220  211.7230  138.5120 P   0  0  0  0  0  0  0  0  0  0  0  0
  156.4900  213.1900  139.2080 O   0  0  0  0  0  1  0  0  0  0  0  0
  155.0610  212.0270  137.1540 O   0  0  0  0  0  0  0  0  0  0  0  0
  161.5840  210.0580  139.9140 O   0  0  0  0  0  0  0  0  0  0  0  0
  162.9290  211.1790  138.2420 O   0  0  0  0  0  1  0  0  0  0  0  0
  162.2040  210.0680  138.6670 C   0  0  0  0  0  0  0  0  0  0  0  0
  162.1100  209.0620  137.9160 O   0  0  0  0  0  0  0  0  0  0  0  0
  1  5  1  0  0  0  0
  2 23  1  1  0  0  0
  2 19  1  0  0  0  0
  2 20  1  0  0  0  0
  3 12  2  0  0  0  0
  4 17  1  0  0  0  0
  5  6  1  1  0  0  0
  8  9  2  0  0  0  0
  8  4  1  0  0  0  0
  9 14  1  0  0  0  0
 10  7  1  1  0  0  0
 10 20  1  0  0  0  0
 10 12  1  0  0  0  0
 11  9  1  0  0  0  0
 12 15  1  0  0  0  0
 13 18  1  0  0  0  0
 13 11  2  0  0  0  0
 14 17  1  0  0  0  0
 15 16  1  0  0  0  0
 17  3  2  0  0  0  0
 18  8  1  0  0  0  0
 19  1  1  0  0  0  0
 20  7  1  1  0  0  0
 20 21  1  0  0  0  0
 21  5  1  0  0  0  0
 21 16  1  6  0  0  0
 22 23  1  0  0  0  0
 24 18  1  0  0  0  0
 25 24  1  0  0  0  0
 26 29  1  6  0  0  0
 26 30  1  0  0  0  0
 27 40  1  6  0  0  0
 27 31  1  0  0  0  0
 28 33  1  6  0  0  0
 28 27  1  0  0  0  0
 28 26  1  0  0  0  0
 28 31  1  0  0  0  0
 30 25  1  1  0  0  0
 31 30  1  0  0  0  0
 32 34  2  0  0  0  0
 34 33  1  0  0  0  0
 35 37  1  0  0  0  0
 35 34  1  0  0  0  0
 37 38  1  0  0  0  0
 37 36  1  0  0  0  0
 39 37  2  0  0  0  0
 41 42  1  0  0  0  0
 42 40  1  0  0  0  0
 43 42  2  0  0  0  0
M  END
>  <MODEL>
2

>  <REMARK>
 VINA RESULT:      -6.1      1.696      2.651
  Name = 
  9 active torsions:
  status: ('A' for Active; 'I' for Inactive)
    1  A    between atoms: C_4  and  C_28
    2  A    between atoms: C_8  and  O_42
    3  A    between atoms: P_15  and  C_34
    4  A    between atoms: C_18  and  O_42
    5  A    between atoms: N_21  and  C_23
    6  A    between atoms: C_29  and  N_33
    7  A    between atoms: C_29  and  O_38
    8  A    between atoms: C_32  and  C_34
    9  A    between atoms: C_35  and  O_38
                            x       y       z     vdW  Elec       q    Type
                         _______ _______ _______ _____ _____    ______ ____

>  <TORSDO>
F 9

$$$$
