=
 OpenBabel11072410533D

 40 43  0  0  1  0  0  0  0  0999 V2000
  161.3200  209.6760  152.0890 C   0  0  2  0  0  3  0  0  0  0  0  0
  160.5890  211.9990  151.3560 C   0  0  0  0  0  0  0  0  0  0  0  0
  161.9580  210.6630  149.8510 C   0  0  0  0  0  3  0  0  0  0  0  0
  161.2120  212.8570  149.1630 C   0  0  0  0  0  3  0  0  0  0  0  0
  161.9210  211.6850  148.9010 C   0  0  0  0  0  3  0  0  0  0  0  0
  160.5430  213.0090  150.3800 C   0  0  0  0  0  3  0  0  0  0  0  0
  161.2880  210.7990  151.0780 C   0  0  0  0  0  0  0  0  0  0  0  0
  158.8640  213.2010  152.4730 O   0  0  0  0  0  0  0  0  0  0  0  0
  159.8130  212.1700  152.6360 C   0  0  1  0  0  3  0  0  0  0  0  0
  158.3670  211.8870  152.4590 C   0  0  0  0  0  2  0  0  0  0  0  0
  160.4810  208.4860  154.6510 O   0  0  0  0  0  0  0  0  0  0  0  0
  161.6580  210.1120  153.4440 N   0  0  0  0  0  2  0  0  0  0  0  0
  161.1870  209.5260  154.6670 C   0  0  0  0  0  0  0  0  0  0  0  0
  161.5100  210.1580  155.9890 C   0  0  2  0  0  3  0  0  0  0  0  0
  158.4760  212.9630  156.0930 C   0  0  0  0  0  2  0  0  0  0  0  0
  159.9870  213.0960  155.9340 C   0  0  0  0  0  2  0  0  0  0  0  0
  160.6490  212.2870  156.8780 O   0  0  0  0  0  0  0  0  0  0  0  0
  159.1440  210.6730  155.9320 O   0  0  0  0  0  0  0  0  0  0  0  0
  158.1600  211.5210  156.4630 C   0  0  0  0  0  2  0  0  0  0  0  0
  160.3450  210.9060  156.6530 C   0  0  0  0  0  3  0  0  0  0  0  0
  163.5140  210.6670  157.2470 C   0  0  0  0  0  1  0  0  0  0  0  0
  162.7820  210.8930  156.0080 N   0  0  0  0  0  2  0  0  0  0  0  0
  162.0590  208.4050  151.6600 C   0  0  0  0  0  2  0  0  0  0  0  0
  161.1530  207.1870  151.6180 C   0  0  0  0  0  2  0  0  0  0  0  0
  161.5590  205.7590  153.4930 O   0  0  0  0  0  1  0  0  0  0  0  0
  161.8890  205.9700  152.1510 C   0  0  1  0  0  3  0  0  0  0  0  0
  160.8530  203.6920  152.1460 C   0  0  0  0  0  1  0  0  0  0  0  0
  161.5620  204.7390  151.3080 C   0  0  1  0  0  3  0  0  0  0  0  0
  160.7320  205.0910  150.0790 C   0  0  0  0  0  2  0  0  0  0  0  0
  161.1850  202.4040  146.5460 O   0  0  0  0  0  0  0  0  0  0  0  0
  160.7350  203.6740  144.6970 O   0  0  0  0  0  0  0  0  0  0  0  0
  162.0100  204.7870  146.4020 C   0  0  2  0  0  3  0  0  0  0  0  0
  160.5290  203.2750  148.5590 O   0  0  0  0  0  0  0  0  0  0  0  0
  161.3960  202.3620  147.9480 C   0  0  1  0  0  3  0  0  0  0  0  0
  161.3120  205.3860  147.6370 C   0  0  1  0  0  3  0  0  0  0  0  0
  162.1730  205.7620  145.4110 O   0  0  0  0  0  1  0  0  0  0  0  0
  161.3040  204.4120  148.8370 C   0  0  1  0  0  3  0  0  0  0  0  0
  161.2790  203.5990  145.8320 C   0  0  0  0  0  0  0  0  0  0  0  0
  162.0370  206.6700  148.0290 C   0  0  0  0  0  1  0  0  0  0  0  0
  161.0910  200.9660  148.4550 C   0  0  0  0  0  1  0  0  0  0  0  0
  1 23  1  6  0  0  0
  1 12  1  0  0  0  0
  3  7  2  0  0  0  0
  4  6  1  0  0  0  0
  5  4  2  0  0  0  0
  5  3  1  0  0  0  0
  6  2  2  0  0  0  0
  7  2  1  0  0  0  0
  7  1  1  0  0  0  0
  8  9  1  0  0  0  0
  9  2  1  6  0  0  0
 10  8  1  0  0  0  0
 10  9  1  0  0  0  0
 11 13  2  0  0  0  0
 12 13  1  0  0  0  0
 14 13  1  6  0  0  0
 14 22  1  0  0  0  0
 14 20  1  0  0  0  0
 15 19  1  0  0  0  0
 16 15  1  0  0  0  0
 16 17  1  0  0  0  0
 18 19  1  0  0  0  0
 18 20  1  0  0  0  0
 20 17  1  0  0  0  0
 22 21  1  0  0  0  0
 24 23  1  0  0  0  0
 24 26  1  0  0  0  0
 26 25  1  1  0  0  0
 28 27  1  1  0  0  0
 28 26  1  0  0  0  0
 29 28  1  0  0  0  0
 30 34  1  0  0  0  0
 31 38  2  0  0  0  0
 32 36  1  6  0  0  0
 32 35  1  0  0  0  0
 33 37  1  0  0  0  0
 34 40  1  1  0  0  0
 34 33  1  0  0  0  0
 35 39  1  1  0  0  0
 35 37  1  0  0  0  0
 37 29  1  1  0  0  0
 38 32  1  0  0  0  0
 38 30  1  0  0  0  0
M  END
>  <MODEL>
1

>  <REMARK>
 VINA RESULT:      -8.0      0.000      0.000
  Name = 
  12 active torsions:
  status: ('A' for Active; 'I' for Inactive)
    1  A    between atoms: C_4  and  C_11
    2  A    between atoms: C_9  and  C_19
    3  A    between atoms: C_9  and  C_34
    4  A    between atoms: C_14  and  C_27
    5  A    between atoms: C_14  and  C_38
    6  A    between atoms: C_20  and  N_33
    7  A    between atoms: C_20  and  C_35
    8  A    between atoms: C_20  and  C_40
    9  A    between atoms: C_23  and  C_34
   10  A    between atoms: C_23  and  C_38
   11  A    between atoms: C_27  and  C_37
   12  A    between atoms: C_27  and  N_39
                            x       y       z     vdW  Elec       q    Type
                         _______ _______ _______ _____ _____    ______ ____

>  <TORSDO>
F 12

$$$$
=
 OpenBabel11072410533D

 40 43  0  0  1  0  0  0  0  0999 V2000
  161.2310  210.3770  153.0630 C   0  0  2  0  0  3  0  0  0  0  0  0
  161.4610  209.5670  155.4620 C   0  0  0  0  0  0  0  0  0  0  0  0
  160.6450  208.0210  153.7690 C   0  0  0  0  0  3  0  0  0  0  0  0
  160.9160  207.2670  156.0490 C   0  0  0  0  0  3  0  0  0  0  0  0
  160.5470  207.0130  154.7280 C   0  0  0  0  0  3  0  0  0  0  0  0
  161.3790  208.5340  156.4120 C   0  0  0  0  0  3  0  0  0  0  0  0
  161.1110  209.3000  154.1170 C   0  0  0  0  0  0  0  0  0  0  0  0
  162.2630  210.9060  157.2610 O   0  0  0  0  0  0  0  0  0  0  0  0
  162.0150  210.9060  155.8720 C   0  0  1  0  0  3  0  0  0  0  0  0
  163.3880  210.8030  156.4250 C   0  0  0  0  0  2  0  0  0  0  0  0
  158.3840  211.1170  152.9010 O   0  0  0  0  0  0  0  0  0  0  0  0
  160.6020  211.6430  153.4400 N   0  0  0  0  0  2  0  0  0  0  0  0
  159.2120  211.9750  153.3010 C   0  0  0  0  0  0  0  0  0  0  0  0
  158.7240  213.3600  153.6070 C   0  0  2  0  0  3  0  0  0  0  0  0
  155.9900  211.9300  156.3560 C   0  0  0  0  0  2  0  0  0  0  0  0
  155.9030  212.1560  154.8510 C   0  0  0  0  0  2  0  0  0  0  0  0
  156.4370  213.4170  154.5160 O   0  0  0  0  0  0  0  0  0  0  0  0
  158.2430  212.5380  155.8340 O   0  0  0  0  0  0  0  0  0  0  0  0
  157.2850  212.5520  156.8600 C   0  0  0  0  0  2  0  0  0  0  0  0
  157.8290  213.4740  154.8480 C   0  0  0  0  0  3  0  0  0  0  0  0
  159.2910  214.4080  151.5000 C   0  0  0  0  0  1  0  0  0  0  0  0
  158.2210  214.0900  152.4360 N   0  0  0  0  0  2  0  0  0  0  0  0
  160.9180  209.9500  151.6250 C   0  0  0  0  0  2  0  0  0  0  0  0
  162.1680  209.6370  150.8220 C   0  0  0  0  0  2  0  0  0  0  0  0
  162.4500  209.7340  148.4500 O   0  0  0  0  0  1  0  0  0  0  0  0
  161.7890  209.0500  149.4750 C   0  0  1  0  0  3  0  0  0  0  0  0
  162.7110  207.1050  150.7520 C   0  0  0  0  0  1  0  0  0  0  0  0
  162.1150  207.5580  149.4330 C   0  0  1  0  0  3  0  0  0  0  0  0
  160.8940  206.7160  149.0830 C   0  0  0  0  0  2  0  0  0  0  0  0
  160.5780  202.5550  150.6620 O   0  0  0  0  0  0  0  0  0  0  0  0
  159.6530  201.2910  148.9950 O   0  0  0  0  0  0  0  0  0  0  0  0
  161.2610  202.9170  148.2580 C   0  0  2  0  0  3  0  0  0  0  0  0
  160.3950  204.8250  150.4350 O   0  0  0  0  0  0  0  0  0  0  0  0
  161.1210  203.8040  151.0580 C   0  0  1  0  0  3  0  0  0  0  0  0
  160.8600  204.3930  148.0860 C   0  0  1  0  0  3  0  0  0  0  0  0
  161.1470  202.2330  147.0420 O   0  0  0  0  0  1  0  0  0  0  0  0
  161.1730  205.2370  149.3420 C   0  0  1  0  0  3  0  0  0  0  0  0
  160.4560  202.2080  149.3170 C   0  0  0  0  0  0  0  0  0  0  0  0
  161.6120  204.9650  146.8880 C   0  0  0  0  0  1  0  0  0  0  0  0
  160.9950  203.9480  152.5630 C   0  0  0  0  0  1  0  0  0  0  0  0
  1 23  1  6  0  0  0
  1 12  1  0  0  0  0
  1  7  1  0  0  0  0
  2  6  1  0  0  0  0
  3  7  1  0  0  0  0
  3  5  2  0  0  0  0
  4  6  2  0  0  0  0
  5  4  1  0  0  0  0
  7  2  2  0  0  0  0
  9  2  1  1  0  0  0
  9 10  1  0  0  0  0
  9  8  1  0  0  0  0
 10  8  1  0  0  0  0
 11 13  2  0  0  0  0
 13 12  1  0  0  0  0
 13 14  1  0  0  0  0
 14 22  1  6  0  0  0
 14 20  1  0  0  0  0
 15 19  1  0  0  0  0
 16 15  1  0  0  0  0
 17 20  1  0  0  0  0
 17 16  1  0  0  0  0
 18 19  1  0  0  0  0
 20 18  1  0  0  0  0
 21 22  1  0  0  0  0
 24 23  1  0  0  0  0
 26 25  1  6  0  0  0
 26 24  1  0  0  0  0
 28 26  1  0  0  0  0
 28 27  1  1  0  0  0
 29 28  1  0  0  0  0
 30 34  1  0  0  0  0
 31 38  2  0  0  0  0
 32 36  1  6  0  0  0
 32 38  1  0  0  0  0
 33 34  1  0  0  0  0
 34 40  1  1  0  0  0
 35 39  1  6  0  0  0
 35 32  1  0  0  0  0
 35 37  1  0  0  0  0
 37 29  1  6  0  0  0
 37 33  1  0  0  0  0
 38 30  1  0  0  0  0
M  END
>  <MODEL>
2

>  <REMARK>
 VINA RESULT:      -7.7      2.045      4.533
  Name = 
  12 active torsions:
  status: ('A' for Active; 'I' for Inactive)
    1  A    between atoms: C_4  and  C_11
    2  A    between atoms: C_9  and  C_19
    3  A    between atoms: C_9  and  C_34
    4  A    between atoms: C_14  and  C_27
    5  A    between atoms: C_14  and  C_38
    6  A    between atoms: C_20  and  N_33
    7  A    between atoms: C_20  and  C_35
    8  A    between atoms: C_20  and  C_40
    9  A    between atoms: C_23  and  C_34
   10  A    between atoms: C_23  and  C_38
   11  A    between atoms: C_27  and  C_37
   12  A    between atoms: C_27  and  N_39
                            x       y       z     vdW  Elec       q    Type
                         _______ _______ _______ _____ _____    ______ ____

>  <TORSDO>
F 12

$$$$
=
 OpenBabel11072410533D

 40 43  0  0  1  0  0  0  0  0999 V2000
  161.1730  210.7100  151.1500 C   0  0  2  0  0  3  0  0  0  0  0  0
  160.6450  212.8630  149.9050 C   0  0  0  0  0  0  0  0  0  0  0  0
  162.2970  211.3380  148.9740 C   0  0  0  0  0  3  0  0  0  0  0  0
  161.7420  213.3720  147.7910 C   0  0  0  0  0  3  0  0  0  0  0  0
  162.4800  212.1920  147.8850 C   0  0  0  0  0  3  0  0  0  0  0  0
  160.8240  213.7010  148.7910 C   0  0  0  0  0  3  0  0  0  0  0  0
  161.3750  211.6530  149.9860 C   0  0  0  0  0  0  0  0  0  0  0  0
  159.0130  214.4520  150.6010 O   0  0  0  0  0  0  0  0  0  0  0  0
  159.6080  213.2180  150.9390 C   0  0  1  0  0  3  0  0  0  0  0  0
  158.2440  213.3010  150.3630 C   0  0  0  0  0  2  0  0  0  0  0  0
  159.5020  210.0630  153.4880 O   0  0  0  0  0  0  0  0  0  0  0  0
  161.1410  211.3770  152.4510 N   0  0  0  0  0  2  0  0  0  0  0  0
  160.2740  211.0540  153.5490 C   0  0  0  0  0  0  0  0  0  0  0  0
  160.2560  211.9080  154.7830 C   0  0  2  0  0  3  0  0  0  0  0  0
  161.9870  208.8670  156.9840 C   0  0  0  0  0  2  0  0  0  0  0  0
  160.5410  209.1470  156.5860 C   0  0  0  0  0  2  0  0  0  0  0  0
  160.2300  210.5040  156.8050 O   0  0  0  0  0  0  0  0  0  0  0  0
  162.2460  210.7430  155.5230 O   0  0  0  0  0  0  0  0  0  0  0  0
  162.8270  210.0830  156.6180 C   0  0  0  0  0  2  0  0  0  0  0  0
  161.0400  211.3430  155.9750 C   0  0  0  0  0  3  0  0  0  0  0  0
  158.8730  213.8790  155.0280 C   0  0  0  0  0  1  0  0  0  0  0  0
  158.9270  212.4270  155.1320 N   0  0  0  0  0  2  0  0  0  0  0  0
  162.0290  209.4390  151.1420 C   0  0  0  0  0  2  0  0  0  0  0  0
  161.1950  208.1710  151.0880 C   0  0  0  0  0  2  0  0  0  0  0  0
  161.2030  207.1070  153.2290 O   0  0  0  0  0  1  0  0  0  0  0  0
  161.8130  207.1020  151.9710 C   0  0  1  0  0  3  0  0  0  0  0  0
  161.1980  204.6990  152.3100 C   0  0  0  0  0  1  0  0  0  0  0  0
  161.6900  205.7300  151.3110 C   0  0  1  0  0  3  0  0  0  0  0  0
  160.7800  205.7630  150.0880 C   0  0  0  0  0  2  0  0  0  0  0  0
  161.2270  202.6470  146.9260 O   0  0  0  0  0  0  0  0  0  0  0  0
  160.9340  203.7050  144.9190 O   0  0  0  0  0  0  0  0  0  0  0  0
  162.1970  204.9470  146.5420 C   0  0  2  0  0  3  0  0  0  0  0  0
  160.5360  203.7890  148.7860 O   0  0  0  0  0  0  0  0  0  0  0  0
  161.3740  202.7640  148.3320 C   0  0  1  0  0  3  0  0  0  0  0  0
  161.4820  205.7270  147.6610 C   0  0  1  0  0  3  0  0  0  0  0  0
  162.4610  205.7840  145.4520 O   0  0  0  0  0  1  0  0  0  0  0  0
  161.3640  204.9080  148.9650 C   0  0  1  0  0  3  0  0  0  0  0  0
  161.4230  203.7390  146.0820 C   0  0  0  0  0  0  0  0  0  0  0  0
  162.2640  207.0100  147.9340 C   0  0  0  0  0  1  0  0  0  0  0  0
  160.9650  201.4580  148.9860 C   0  0  0  0  0  1  0  0  0  0  0  0
  1 23  1  1  0  0  0
  1 12  1  0  0  0  0
  2  7  1  0  0  0  0
  3  7  2  0  0  0  0
  4  5  2  0  0  0  0
  4  6  1  0  0  0  0
  5  3  1  0  0  0  0
  6  2  2  0  0  0  0
  7  1  1  0  0  0  0
  8  9  1  0  0  0  0
  9  2  1  6  0  0  0
 10  8  1  0  0  0  0
 10  9  1  0  0  0  0
 11 13  2  0  0  0  0
 12 13  1  0  0  0  0
 14 13  1  6  0  0  0
 14 22  1  0  0  0  0
 14 20  1  0  0  0  0
 16 17  1  0  0  0  0
 16 15  1  0  0  0  0
 18 20  1  0  0  0  0
 18 19  1  0  0  0  0
 19 15  1  0  0  0  0
 20 17  1  0  0  0  0
 21 22  1  0  0  0  0
 24 23  1  0  0  0  0
 24 26  1  0  0  0  0
 26 25  1  1  0  0  0
 28 26  1  0  0  0  0
 28 27  1  1  0  0  0
 29 28  1  0  0  0  0
 30 34  1  0  0  0  0
 31 38  2  0  0  0  0
 32 36  1  6  0  0  0
 32 35  1  0  0  0  0
 33 37  1  0  0  0  0
 34 33  1  0  0  0  0
 34 40  1  1  0  0  0
 35 39  1  1  0  0  0
 35 37  1  0  0  0  0
 37 29  1  1  0  0  0
 38 32  1  0  0  0  0
 38 30  1  0  0  0  0
M  END
>  <MODEL>
3

>  <REMARK>
 VINA RESULT:      -7.6      1.389      2.230
  Name = 
  12 active torsions:
  status: ('A' for Active; 'I' for Inactive)
    1  A    between atoms: C_4  and  C_11
    2  A    between atoms: C_9  and  C_19
    3  A    between atoms: C_9  and  C_34
    4  A    between atoms: C_14  and  C_27
    5  A    between atoms: C_14  and  C_38
    6  A    between atoms: C_20  and  N_33
    7  A    between atoms: C_20  and  C_35
    8  A    between atoms: C_20  and  C_40
    9  A    between atoms: C_23  and  C_34
   10  A    between atoms: C_23  and  C_38
   11  A    between atoms: C_27  and  C_37
   12  A    between atoms: C_27  and  N_39
                            x       y       z     vdW  Elec       q    Type
                         _______ _______ _______ _____ _____    ______ ____

>  <TORSDO>
F 12

$$$$
=
 OpenBabel11072410533D

 40 43  0  0  1  0  0  0  0  0999 V2000
  160.9070  210.8300  152.1740 C   0  0  2  0  0  3  0  0  0  0  0  0
  160.9310  211.2540  154.6810 C   0  0  0  0  0  0  0  0  0  0  0  0
  159.1180  212.1770  153.3470 C   0  0  0  0  0  3  0  0  0  0  0  0
  159.1440  212.5260  155.7380 C   0  0  0  0  0  3  0  0  0  0  0  0
  158.5420  212.7220  154.4950 C   0  0  0  0  0  3  0  0  0  0  0  0
  160.3270  211.7900  155.8320 C   0  0  0  0  0  3  0  0  0  0  0  0
  160.3050  211.4310  153.4240 C   0  0  0  0  0  0  0  0  0  0  0  0
  162.7910  210.6970  156.0600 O   0  0  0  0  0  0  0  0  0  0  0  0
  162.1770  210.4180  154.8210 C   0  0  1  0  0  3  0  0  0  0  0  0
  162.0980  209.4780  155.9660 C   0  0  0  0  0  2  0  0  0  0  0  0
  162.4270  210.6790  149.6550 O   0  0  0  0  0  0  0  0  0  0  0  0
  160.7880  211.6840  150.9930 N   0  0  0  0  0  2  0  0  0  0  0  0
  161.5840  211.6010  149.8020 C   0  0  0  0  0  0  0  0  0  0  0  0
  161.4430  212.6280  148.7160 C   0  0  2  0  0  3  0  0  0  0  0  0
  159.0440  213.5790  145.4870 C   0  0  0  0  0  2  0  0  0  0  0  0
  159.2710  214.2650  146.8300 C   0  0  0  0  0  2  0  0  0  0  0  0
  159.2360  213.3190  147.8730 O   0  0  0  0  0  0  0  0  0  0  0  0
  160.8140  212.2590  146.4060 O   0  0  0  0  0  0  0  0  0  0  0  0
  159.7210  212.2160  145.5270 C   0  0  0  0  0  2  0  0  0  0  0  0
  160.2990  212.3720  147.7250 C   0  0  0  0  0  3  0  0  0  0  0  0
  162.8390  214.4530  147.9540 C   0  0  0  0  0  1  0  0  0  0  0  0
  162.7120  213.0070  148.0820 N   0  0  0  0  0  2  0  0  0  0  0  0
  160.5610  209.3630  151.8980 C   0  0  0  0  0  2  0  0  0  0  0  0
  161.7910  208.5070  151.6570 C   0  0  0  0  0  2  0  0  0  0  0  0
  160.5800  207.2700  153.3060 O   0  0  0  0  0  1  0  0  0  0  0  0
  161.7280  207.2510  152.5090 C   0  0  1  0  0  3  0  0  0  0  0  0
  161.2770  204.7910  152.3970 C   0  0  0  0  0  1  0  0  0  0  0  0
  161.7580  206.0060  151.6250 C   0  0  1  0  0  3  0  0  0  0  0  0
  160.9380  206.1870  150.3530 C   0  0  0  0  0  2  0  0  0  0  0  0
  161.1850  202.9850  147.2550 O   0  0  0  0  0  0  0  0  0  0  0  0
  160.9330  204.0160  145.2290 O   0  0  0  0  0  0  0  0  0  0  0  0
  162.2770  205.2190  146.8150 C   0  0  2  0  0  3  0  0  0  0  0  0
  160.5750  204.2030  149.0950 O   0  0  0  0  0  0  0  0  0  0  0  0
  161.3500  203.1230  148.6570 C   0  0  1  0  0  3  0  0  0  0  0  0
  161.6160  206.0620  147.9220 C   0  0  1  0  0  3  0  0  0  0  0  0
  162.5770  206.0180  145.7040 O   0  0  0  0  0  1  0  0  0  0  0  0
  161.4640  205.2790  149.2440 C   0  0  1  0  0  3  0  0  0  0  0  0
  161.4330  204.0470  146.3860 C   0  0  0  0  0  0  0  0  0  0  0  0
  162.4700  207.3050  148.1610 C   0  0  0  0  0  1  0  0  0  0  0  0
  160.8760  201.8560  149.3420 C   0  0  0  0  0  1  0  0  0  0  0  0
  1 23  1  6  0  0  0
  1  7  1  0  0  0  0
  2  6  1  0  0  0  0
  3  7  1  0  0  0  0
  3  5  2  0  0  0  0
  4  6  2  0  0  0  0
  5  4  1  0  0  0  0
  7  2  2  0  0  0  0
  9  2  1  1  0  0  0
  9 10  1  0  0  0  0
  9  8  1  0  0  0  0
 10  8  1  0  0  0  0
 11 13  2  0  0  0  0
 12  1  1  0  0  0  0
 13 12  1  0  0  0  0
 14 22  1  6  0  0  0
 14 13  1  0  0  0  0
 15 19  1  0  0  0  0
 15 16  1  0  0  0  0
 16 17  1  0  0  0  0
 18 20  1  0  0  0  0
 19 18  1  0  0  0  0
 20 17  1  0  0  0  0
 20 14  1  0  0  0  0
 21 22  1  0  0  0  0
 24 23  1  0  0  0  0
 24 26  1  0  0  0  0
 26 25  1  6  0  0  0
 28 27  1  1  0  0  0
 28 26  1  0  0  0  0
 29 28  1  0  0  0  0
 30 34  1  0  0  0  0
 31 38  2  0  0  0  0
 32 36  1  6  0  0  0
 32 35  1  0  0  0  0
 33 37  1  0  0  0  0
 34 33  1  0  0  0  0
 34 40  1  1  0  0  0
 35 39  1  1  0  0  0
 35 37  1  0  0  0  0
 37 29  1  1  0  0  0
 38 32  1  0  0  0  0
 38 30  1  0  0  0  0
M  END
>  <MODEL>
4

>  <REMARK>
 VINA RESULT:      -7.5      2.412      5.361
  Name = 
  12 active torsions:
  status: ('A' for Active; 'I' for Inactive)
    1  A    between atoms: C_4  and  C_11
    2  A    between atoms: C_9  and  C_19
    3  A    between atoms: C_9  and  C_34
    4  A    between atoms: C_14  and  C_27
    5  A    between atoms: C_14  and  C_38
    6  A    between atoms: C_20  and  N_33
    7  A    between atoms: C_20  and  C_35
    8  A    between atoms: C_20  and  C_40
    9  A    between atoms: C_23  and  C_34
   10  A    between atoms: C_23  and  C_38
   11  A    between atoms: C_27  and  C_37
   12  A    between atoms: C_27  and  N_39
                            x       y       z     vdW  Elec       q    Type
                         _______ _______ _______ _____ _____    ______ ____

>  <TORSDO>
F 12

$$$$
=
 OpenBabel11072410533D

 40 43  0  0  1  0  0  0  0  0999 V2000
  161.9790  210.4520  151.3990 C   0  0  2  0  0  3  0  0  0  0  0  0
  160.3000  211.2630  153.1270 C   0  0  0  0  0  0  0  0  0  0  0  0
  162.3120  210.1240  153.8830 C   0  0  0  0  0  3  0  0  0  0  0  0
  160.7180  210.9460  155.5050 C   0  0  0  0  0  3  0  0  0  0  0  0
  161.9120  210.2860  155.2100 C   0  0  0  0  0  3  0  0  0  0  0  0
  159.9210  211.4390  154.4690 C   0  0  0  0  0  3  0  0  0  0  0  0
  161.5230  210.6170  152.8310 C   0  0  0  0  0  0  0  0  0  0  0  0
  158.2230  212.2950  152.5820 O   0  0  0  0  0  0  0  0  0  0  0  0
  159.4460  211.8550  152.0350 C   0  0  1  0  0  3  0  0  0  0  0  0
  159.1580  213.2920  152.2610 C   0  0  0  0  0  2  0  0  0  0  0  0
  162.7910  211.2690  148.6870 O   0  0  0  0  0  0  0  0  0  0  0  0
  161.2450  211.2850  150.4470 N   0  0  0  0  0  2  0  0  0  0  0  0
  161.7010  211.6950  149.1500 C   0  0  0  0  0  0  0  0  0  0  0  0
  160.8990  212.6610  148.3280 C   0  0  2  0  0  3  0  0  0  0  0  0
  160.3210  213.8300  144.4050 C   0  0  0  0  0  2  0  0  0  0  0  0
  159.4320  213.0800  145.3900 C   0  0  0  0  0  2  0  0  0  0  0  0
  160.1720  212.0780  146.0500 O   0  0  0  0  0  0  0  0  0  0  0  0
  161.6120  213.9640  146.4150 O   0  0  0  0  0  0  0  0  0  0  0  0
  161.7120  213.9520  145.0140 C   0  0  0  0  0  2  0  0  0  0  0  0
  161.2220  212.6620  146.8280 C   0  0  0  0  0  3  0  0  0  0  0  0
  159.4030  214.4520  148.9730 C   0  0  0  0  0  1  0  0  0  0  0  0
  160.7880  214.0020  148.9180 N   0  0  0  0  0  2  0  0  0  0  0  0
  162.1750  209.0110  150.9170 C   0  0  0  0  0  2  0  0  0  0  0  0
  161.0360  208.0950  151.3290 C   0  0  0  0  0  2  0  0  0  0  0  0
  160.7830  206.7800  153.3100 O   0  0  0  0  0  1  0  0  0  0  0  0
  161.5680  206.9440  152.1650 C   0  0  1  0  0  3  0  0  0  0  0  0
  161.1750  204.4720  152.1810 C   0  0  0  0  0  1  0  0  0  0  0  0
  161.6050  205.6590  151.3400 C   0  0  1  0  0  3  0  0  0  0  0  0
  160.7480  205.7610  150.0840 C   0  0  0  0  0  2  0  0  0  0  0  0
  161.2020  202.6320  146.9360 O   0  0  0  0  0  0  0  0  0  0  0  0
  160.9140  203.6820  144.9240 O   0  0  0  0  0  0  0  0  0  0  0  0
  162.1730  204.9300  146.5450 C   0  0  2  0  0  3  0  0  0  0  0  0
  160.5070  203.7820  148.7890 O   0  0  0  0  0  0  0  0  0  0  0  0
  161.3460  202.7540  148.3420 C   0  0  1  0  0  3  0  0  0  0  0  0
  161.4560  205.7150  147.6580 C   0  0  1  0  0  3  0  0  0  0  0  0
  162.4400  205.7630  145.4510 O   0  0  0  0  0  1  0  0  0  0  0  0
  161.3340  204.9020  148.9660 C   0  0  1  0  0  3  0  0  0  0  0  0
  161.4000  203.7210  146.0870 C   0  0  0  0  0  0  0  0  0  0  0  0
  162.2370  206.9990  147.9280 C   0  0  0  0  0  1  0  0  0  0  0  0
  160.9350  201.4510  149.0000 C   0  0  0  0  0  1  0  0  0  0  0  0
  1 23  1  6  0  0  0
  1  7  1  0  0  0  0
  2  6  1  0  0  0  0
  3  5  2  0  0  0  0
  5  4  1  0  0  0  0
  6  4  2  0  0  0  0
  7  2  2  0  0  0  0
  7  3  1  0  0  0  0
  9 10  1  0  0  0  0
  9  8  1  0  0  0  0
  9  2  1  1  0  0  0
 10  8  1  0  0  0  0
 11 13  2  0  0  0  0
 12  1  1  0  0  0  0
 13 12  1  0  0  0  0
 14 22  1  1  0  0  0
 14 13  1  0  0  0  0
 15 19  1  0  0  0  0
 15 16  1  0  0  0  0
 16 17  1  0  0  0  0
 17 20  1  0  0  0  0
 18 20  1  0  0  0  0
 19 18  1  0  0  0  0
 20 14  1  0  0  0  0
 22 21  1  0  0  0  0
 23 24  1  0  0  0  0
 24 26  1  0  0  0  0
 26 25  1  1  0  0  0
 28 26  1  0  0  0  0
 28 27  1  1  0  0  0
 29 28  1  0  0  0  0
 30 34  1  0  0  0  0
 31 38  2  0  0  0  0
 32 36  1  6  0  0  0
 32 35  1  0  0  0  0
 33 37  1  0  0  0  0
 34 33  1  0  0  0  0
 34 40  1  1  0  0  0
 35 39  1  1  0  0  0
 35 37  1  0  0  0  0
 37 29  1  1  0  0  0
 38 32  1  0  0  0  0
 38 30  1  0  0  0  0
M  END
>  <MODEL>
5

>  <REMARK>
 VINA RESULT:      -7.3      2.577      5.465
  Name = 
  12 active torsions:
  status: ('A' for Active; 'I' for Inactive)
    1  A    between atoms: C_4  and  C_11
    2  A    between atoms: C_9  and  C_19
    3  A    between atoms: C_9  and  C_34
    4  A    between atoms: C_14  and  C_27
    5  A    between atoms: C_14  and  C_38
    6  A    between atoms: C_20  and  N_33
    7  A    between atoms: C_20  and  C_35
    8  A    between atoms: C_20  and  C_40
    9  A    between atoms: C_23  and  C_34
   10  A    between atoms: C_23  and  C_38
   11  A    between atoms: C_27  and  C_37
   12  A    between atoms: C_27  and  N_39
                            x       y       z     vdW  Elec       q    Type
                         _______ _______ _______ _____ _____    ______ ____

>  <TORSDO>
F 12

$$$$
=
 OpenBabel11072410533D

 40 43  0  0  1  0  0  0  0  0999 V2000
  161.1960  210.0970  153.5380 C   0  0  2  0  0  3  0  0  0  0  0  0
  161.6890  209.5670  155.9760 C   0  0  0  0  0  0  0  0  0  0  0  0
  160.1130  208.1680  154.7610 C   0  0  0  0  0  3  0  0  0  0  0  0
  160.6350  207.6620  157.0660 C   0  0  0  0  0  3  0  0  0  0  0  0
  159.9330  207.3750  155.8950 C   0  0  0  0  0  3  0  0  0  0  0  0
  161.5140  208.7460  157.1030 C   0  0  0  0  0  3  0  0  0  0  0  0
  160.9960  209.2590  154.7810 C   0  0  0  0  0  0  0  0  0  0  0  0
  162.4070  211.5140  157.1450 O   0  0  0  0  0  0  0  0  0  0  0  0
  162.6860  210.6960  156.0310 C   0  0  1  0  0  3  0  0  0  0  0  0
  163.5140  210.6570  157.2610 C   0  0  0  0  0  2  0  0  0  0  0  0
  158.4060  211.0310  153.6960 O   0  0  0  0  0  0  0  0  0  0  0  0
  160.7070  211.4690  153.6680 N   0  0  0  0  0  2  0  0  0  0  0  0
  159.3330  211.8820  153.6950 C   0  0  0  0  0  0  0  0  0  0  0  0
  158.9730  213.3390  153.7000 C   0  0  2  0  0  3  0  0  0  0  0  0
  155.7250  212.5890  156.1450 C   0  0  0  0  0  2  0  0  0  0  0  0
  155.9140  212.4870  154.6350 C   0  0  0  0  0  2  0  0  0  0  0  0
  156.5700  213.6340  154.1470 O   0  0  0  0  0  0  0  0  0  0  0  0
  158.0660  213.0270  155.9240 O   0  0  0  0  0  0  0  0  0  0  0  0
  156.9470  213.2810  156.7330 C   0  0  0  0  0  2  0  0  0  0  0  0
  157.8840  213.7350  154.7060 C   0  0  0  0  0  3  0  0  0  0  0  0
  158.2000  212.9530  151.4390 C   0  0  0  0  0  1  0  0  0  0  0  0
  158.7900  213.9150  152.3610 N   0  0  0  0  0  2  0  0  0  0  0  0
  160.8060  209.4380  152.2120 C   0  0  0  0  0  2  0  0  0  0  0  0
  161.9330  208.6150  151.6130 C   0  0  0  0  0  2  0  0  0  0  0  0
  162.2130  208.6870  149.2400 O   0  0  0  0  0  1  0  0  0  0  0  0
  161.5100  208.0520  150.2680 C   0  0  1  0  0  3  0  0  0  0  0  0
  161.8740  205.9860  151.6340 C   0  0  0  0  0  1  0  0  0  0  0  0
  161.7320  206.5410  150.2290 C   0  0  1  0  0  3  0  0  0  0  0  0
  160.6190  205.8180  149.4800 C   0  0  0  0  0  2  0  0  0  0  0  0
  161.0060  201.7290  147.7370 O   0  0  0  0  0  0  0  0  0  0  0  0
  160.5930  201.9320  145.4960 O   0  0  0  0  0  0  0  0  0  0  0  0
  161.8940  203.7120  146.4500 C   0  0  2  0  0  3  0  0  0  0  0  0
  160.3700  203.4930  149.0500 O   0  0  0  0  0  0  0  0  0  0  0  0
  161.2140  202.3790  148.9810 C   0  0  1  0  0  3  0  0  0  0  0  0
  161.2100  204.8570  147.2190 C   0  0  1  0  0  3  0  0  0  0  0  0
  162.0850  204.0670  145.1090 O   0  0  0  0  0  1  0  0  0  0  0  0
  161.1740  204.6020  148.7420 C   0  0  1  0  0  3  0  0  0  0  0  0
  161.1330  202.4140  146.5290 C   0  0  0  0  0  0  0  0  0  0  0  0
  161.9690  206.1520  146.9370 C   0  0  0  0  0  1  0  0  0  0  0  0
  160.8710  201.4220  150.1060 C   0  0  0  0  0  1  0  0  0  0  0  0
  1 23  1  6  0  0  0
  1 12  1  0  0  0  0
  1  7  1  0  0  0  0
  2  6  1  0  0  0  0
  3  7  1  0  0  0  0
  3  5  2  0  0  0  0
  4  6  2  0  0  0  0
  5  4  1  0  0  0  0
  7  2  2  0  0  0  0
  8 10  1  0  0  0  0
  9  2  1  1  0  0  0
  9  8  1  0  0  0  0
  9 10  1  0  0  0  0
 12 13  1  0  0  0  0
 13 11  2  0  0  0  0
 13 14  1  0  0  0  0
 14 22  1  6  0  0  0
 14 20  1  0  0  0  0
 15 19  1  0  0  0  0
 16 15  1  0  0  0  0
 17 16  1  0  0  0  0
 17 20  1  0  0  0  0
 18 19  1  0  0  0  0
 20 18  1  0  0  0  0
 21 22  1  0  0  0  0
 24 23  1  0  0  0  0
 26 25  1  6  0  0  0
 26 24  1  0  0  0  0
 28 26  1  0  0  0  0
 28 27  1  1  0  0  0
 29 28  1  0  0  0  0
 30 34  1  0  0  0  0
 31 38  2  0  0  0  0
 32 36  1  6  0  0  0
 32 38  1  0  0  0  0
 32 35  1  0  0  0  0
 34 33  1  0  0  0  0
 34 40  1  1  0  0  0
 35 39  1  1  0  0  0
 35 37  1  0  0  0  0
 37 33  1  0  0  0  0
 37 29  1  1  0  0  0
 38 30  1  0  0  0  0
M  END
>  <MODEL>
6

>  <REMARK>
 VINA RESULT:      -7.2      2.050      4.244
  Name = 
  12 active torsions:
  status: ('A' for Active; 'I' for Inactive)
    1  A    between atoms: C_4  and  C_11
    2  A    between atoms: C_9  and  C_19
    3  A    between atoms: C_9  and  C_34
    4  A    between atoms: C_14  and  C_27
    5  A    between atoms: C_14  and  C_38
    6  A    between atoms: C_20  and  N_33
    7  A    between atoms: C_20  and  C_35
    8  A    between atoms: C_20  and  C_40
    9  A    between atoms: C_23  and  C_34
   10  A    between atoms: C_23  and  C_38
   11  A    between atoms: C_27  and  C_37
   12  A    between atoms: C_27  and  N_39
                            x       y       z     vdW  Elec       q    Type
                         _______ _______ _______ _____ _____    ______ ____

>  <TORSDO>
F 12

$$$$
=
 OpenBabel11072410533D

 40 43  0  0  1  0  0  0  0  0999 V2000
  160.8750  210.3100  153.8510 C   0  0  2  0  0  3  0  0  0  0  0  0
  161.2810  209.5610  156.2460 C   0  0  0  0  0  0  0  0  0  0  0  0
  159.9940  208.1230  154.7640 C   0  0  0  0  0  3  0  0  0  0  0  0
  160.4340  207.4180  157.0340 C   0  0  0  0  0  3  0  0  0  0  0  0
  159.8540  207.1850  155.7870 C   0  0  0  0  0  3  0  0  0  0  0  0
  161.1500  208.5960  157.2600 C   0  0  0  0  0  3  0  0  0  0  0  0
  160.7140  209.3110  154.9740 C   0  0  0  0  0  0  0  0  0  0  0  0
  163.2500  210.4470  157.2510 O   0  0  0  0  0  0  0  0  0  0  0  0
  162.1070  210.7950  156.5030 C   0  0  1  0  0  3  0  0  0  0  0  0
  163.4530  210.7110  155.8860 C   0  0  0  0  0  2  0  0  0  0  0  0
  158.0160  210.9510  154.1550 O   0  0  0  0  0  0  0  0  0  0  0  0
  160.2640  211.6090  154.1260 N   0  0  0  0  0  2  0  0  0  0  0  0
  158.8580  211.8830  154.2210 C   0  0  0  0  0  0  0  0  0  0  0  0
  158.3630  213.2910  154.3780 C   0  0  2  0  0  3  0  0  0  0  0  0
  158.3350  213.6610  150.2610 C   0  0  0  0  0  2  0  0  0  0  0  0
  159.4560  213.3780  151.2550 C   0  0  0  0  0  2  0  0  0  0  0  0
  159.3700  214.2590  152.3510 O   0  0  0  0  0  0  0  0  0  0  0  0
  157.1160  213.4320  152.3060 O   0  0  0  0  0  0  0  0  0  0  0  0
  157.0880  214.0480  151.0450 C   0  0  0  0  0  2  0  0  0  0  0  0
  158.1450  214.0530  153.0630 C   0  0  0  0  0  3  0  0  0  0  0  0
  159.0720  213.3720  156.6910 C   0  0  0  0  0  1  0  0  0  0  0  0
  159.0700  214.0630  155.4080 N   0  0  0  0  0  2  0  0  0  0  0  0
  160.5830  209.7890  152.4400 C   0  0  0  0  0  2  0  0  0  0  0  0
  161.5650  208.7210  151.9940 C   0  0  0  0  0  2  0  0  0  0  0  0
  162.1220  209.1640  149.7110 O   0  0  0  0  0  1  0  0  0  0  0  0
  161.3250  208.3660  150.5370 C   0  0  1  0  0  3  0  0  0  0  0  0
  161.6150  206.1230  151.6100 C   0  0  0  0  0  1  0  0  0  0  0  0
  161.6030  206.8840  150.2970 C   0  0  1  0  0  3  0  0  0  0  0  0
  160.6010  206.2630  149.3310 C   0  0  0  0  0  2  0  0  0  0  0  0
  161.1230  202.0970  147.8210 O   0  0  0  0  0  0  0  0  0  0  0  0
  160.7220  202.1620  145.5700 O   0  0  0  0  0  0  0  0  0  0  0  0
  161.9620  204.0310  146.4310 C   0  0  2  0  0  3  0  0  0  0  0  0
  160.4250  203.9110  149.0300 O   0  0  0  0  0  0  0  0  0  0  0  0
  161.3020  202.8200  149.0280 C   0  0  1  0  0  3  0  0  0  0  0  0
  161.2390  205.1960  147.1310 C   0  0  1  0  0  3  0  0  0  0  0  0
  162.1530  204.3160  145.0740 O   0  0  0  0  0  1  0  0  0  0  0  0
  161.1980  205.0250  148.6660 C   0  0  1  0  0  3  0  0  0  0  0  0
  161.2390  202.7170  146.5780 C   0  0  0  0  0  0  0  0  0  0  0  0
  161.9600  206.4950  146.7820 C   0  0  0  0  0  1  0  0  0  0  0  0
  160.9780  201.9180  150.2030 C   0  0  0  0  0  1  0  0  0  0  0  0
  1 23  1  6  0  0  0
  1 12  1  0  0  0  0
  1  7  1  0  0  0  0
  2  6  1  0  0  0  0
  3  7  1  0  0  0  0
  3  5  2  0  0  0  0
  4  6  2  0  0  0  0
  5  4  1  0  0  0  0
  7  2  2  0  0  0  0
  9  2  1  6  0  0  0
  9  8  1  0  0  0  0
 10  9  1  0  0  0  0
 10  8  1  0  0  0  0
 11 13  2  0  0  0  0
 12 13  1  0  0  0  0
 14 13  1  6  0  0  0
 14 22  1  0  0  0  0
 15 19  1  0  0  0  0
 15 16  1  0  0  0  0
 16 17  1  0  0  0  0
 17 20  1  0  0  0  0
 18 20  1  0  0  0  0
 19 18  1  0  0  0  0
 20 14  1  0  0  0  0
 22 21  1  0  0  0  0
 24 23  1  0  0  0  0
 26 25  1  6  0  0  0
 26 24  1  0  0  0  0
 28 26  1  0  0  0  0
 28 27  1  1  0  0  0
 29 28  1  0  0  0  0
 30 34  1  0  0  0  0
 31 38  2  0  0  0  0
 32 36  1  6  0  0  0
 32 38  1  0  0  0  0
 32 35  1  0  0  0  0
 34 33  1  0  0  0  0
 34 40  1  1  0  0  0
 35 39  1  1  0  0  0
 35 37  1  0  0  0  0
 37 33  1  0  0  0  0
 37 29  1  1  0  0  0
 38 30  1  0  0  0  0
M  END
>  <MODEL>
7

>  <REMARK>
 VINA RESULT:      -7.1      1.976      4.405
  Name = 
  12 active torsions:
  status: ('A' for Active; 'I' for Inactive)
    1  A    between atoms: C_4  and  C_11
    2  A    between atoms: C_9  and  C_19
    3  A    between atoms: C_9  and  C_34
    4  A    between atoms: C_14  and  C_27
    5  A    between atoms: C_14  and  C_38
    6  A    between atoms: C_20  and  N_33
    7  A    between atoms: C_20  and  C_35
    8  A    between atoms: C_20  and  C_40
    9  A    between atoms: C_23  and  C_34
   10  A    between atoms: C_23  and  C_38
   11  A    between atoms: C_27  and  C_37
   12  A    between atoms: C_27  and  N_39
                            x       y       z     vdW  Elec       q    Type
                         _______ _______ _______ _____ _____    ______ ____

>  <TORSDO>
F 12

$$$$
=
 OpenBabel11072410533D

 40 43  0  0  1  0  0  0  0  0999 V2000
  161.3730  210.0540  151.4090 C   0  0  2  0  0  3  0  0  0  0  0  0
  160.4350  212.3710  150.9430 C   0  0  0  0  0  0  0  0  0  0  0  0
  162.0240  211.4050  149.3740 C   0  0  0  0  0  3  0  0  0  0  0  0
  161.0820  213.5870  148.9340 C   0  0  0  0  0  3  0  0  0  0  0  0
  161.9290  212.5410  148.5690 C   0  0  0  0  0  3  0  0  0  0  0  0
  160.3330  213.4990  150.1100 C   0  0  0  0  0  3  0  0  0  0  0  0
  161.2750  211.2990  150.5570 C   0  0  0  0  0  0  0  0  0  0  0  0
  159.2170  213.5800  152.5930 O   0  0  0  0  0  0  0  0  0  0  0  0
  159.5730  212.2820  152.1760 C   0  0  1  0  0  3  0  0  0  0  0  0
  158.2140  212.8330  151.9540 C   0  0  0  0  0  2  0  0  0  0  0  0
  160.7450  208.2760  153.6720 O   0  0  0  0  0  0  0  0  0  0  0  0
  161.5080  210.3280  152.8390 N   0  0  0  0  0  2  0  0  0  0  0  0
  161.1460  209.4440  153.9110 C   0  0  0  0  0  0  0  0  0  0  0  0
  161.2150  209.9050  155.3370 C   0  0  2  0  0  3  0  0  0  0  0  0
  158.0530  212.5410  155.7170 C   0  0  0  0  0  2  0  0  0  0  0  0
  159.5480  212.6930  155.9760 C   0  0  0  0  0  2  0  0  0  0  0  0
  160.0330  211.5840  156.6970 O   0  0  0  0  0  0  0  0  0  0  0  0
  158.8930  210.4510  154.9120 O   0  0  0  0  0  0  0  0  0  0  0  0
  157.7590  211.0680  155.4640 C   0  0  0  0  0  2  0  0  0  0  0  0
  159.8820  210.3840  155.9300 C   0  0  0  0  0  3  0  0  0  0  0  0
  163.0960  210.3420  156.7960 C   0  0  0  0  0  1  0  0  0  0  0  0
  162.3510  210.7890  155.6260 N   0  0  0  0  0  2  0  0  0  0  0  0
  162.3310  208.9690  150.9070 C   0  0  0  0  0  2  0  0  0  0  0  0
  161.6040  207.7460  150.3760 C   0  0  0  0  0  2  0  0  0  0  0  0
  162.6450  208.2040  148.2740 O   0  0  0  0  0  1  0  0  0  0  0  0
  161.4310  207.8530  148.8720 C   0  0  1  0  0  3  0  0  0  0  0  0
  160.8940  206.5800  146.7850 C   0  0  0  0  0  1  0  0  0  0  0  0
  160.9010  206.5390  148.3010 C   0  0  1  0  0  3  0  0  0  0  0  0
  161.6960  205.3380  148.7980 C   0  0  0  0  0  2  0  0  0  0  0  0
  160.9570  201.5740  146.5190 O   0  0  0  0  0  0  0  0  0  0  0  0
  161.5840  199.8490  147.8850 O   0  0  0  0  0  0  0  0  0  0  0  0
  160.4350  201.6470  148.9890 C   0  0  2  0  0  3  0  0  0  0  0  0
  161.6910  203.6590  147.1160 O   0  0  0  0  0  0  0  0  0  0  0  0
  160.7250  202.9660  146.3770 C   0  0  1  0  0  3  0  0  0  0  0  0
  161.1870  202.9320  149.3820 C   0  0  1  0  0  3  0  0  0  0  0  0
  160.4060  200.7490  150.0620 O   0  0  0  0  0  1  0  0  0  0  0  0
  161.0600  204.0380  148.3110 C   0  0  1  0  0  3  0  0  0  0  0  0
  161.0200  200.9720  147.7750 C   0  0  0  0  0  0  0  0  0  0  0  0
  160.6230  203.4390  150.7060 C   0  0  0  0  0  1  0  0  0  0  0  0
  160.8490  203.3450  144.9130 C   0  0  0  0  0  1  0  0  0  0  0  0
  1 23  1  6  0  0  0
  1 12  1  0  0  0  0
  3  7  2  0  0  0  0
  4  6  1  0  0  0  0
  5  4  2  0  0  0  0
  5  3  1  0  0  0  0
  6  2  2  0  0  0  0
  7  2  1  0  0  0  0
  7  1  1  0  0  0  0
  9  2  1  6  0  0  0
  9  8  1  0  0  0  0
 10  9  1  0  0  0  0
 10  8  1  0  0  0  0
 11 13  2  0  0  0  0
 12 13  1  0  0  0  0
 14 13  1  6  0  0  0
 14 22  1  0  0  0  0
 14 20  1  0  0  0  0
 15 16  1  0  0  0  0
 16 17  1  0  0  0  0
 18 19  1  0  0  0  0
 18 20  1  0  0  0  0
 19 15  1  0  0  0  0
 20 17  1  0  0  0  0
 22 21  1  0  0  0  0
 24 23  1  0  0  0  0
 26 25  1  6  0  0  0
 26 24  1  0  0  0  0
 28 27  1  6  0  0  0
 28 29  1  0  0  0  0
 28 26  1  0  0  0  0
 30 38  1  0  0  0  0
 32 35  1  0  0  0  0
 32 36  1  1  0  0  0
 33 37  1  0  0  0  0
 34 40  1  6  0  0  0
 34 30  1  0  0  0  0
 34 33  1  0  0  0  0
 35 39  1  1  0  0  0
 37 29  1  1  0  0  0
 37 35  1  0  0  0  0
 38 31  2  0  0  0  0
 38 32  1  0  0  0  0
M  END
>  <MODEL>
8

>  <REMARK>
 VINA RESULT:      -6.8      1.308      2.642
  Name = 
  12 active torsions:
  status: ('A' for Active; 'I' for Inactive)
    1  A    between atoms: C_4  and  C_11
    2  A    between atoms: C_9  and  C_19
    3  A    between atoms: C_9  and  C_34
    4  A    between atoms: C_14  and  C_27
    5  A    between atoms: C_14  and  C_38
    6  A    between atoms: C_20  and  N_33
    7  A    between atoms: C_20  and  C_35
    8  A    between atoms: C_20  and  C_40
    9  A    between atoms: C_23  and  C_34
   10  A    between atoms: C_23  and  C_38
   11  A    between atoms: C_27  and  C_37
   12  A    between atoms: C_27  and  N_39
                            x       y       z     vdW  Elec       q    Type
                         _______ _______ _______ _____ _____    ______ ____

>  <TORSDO>
F 12

$$$$
=
 OpenBabel11072410533D

 40 43  0  0  1  0  0  0  0  0999 V2000
  161.2590  210.1960  152.5430 C   0  0  2  0  0  3  0  0  0  0  0  0
  161.5670  209.1810  154.8530 C   0  0  0  0  0  0  0  0  0  0  0  0
  160.7150  207.7810  153.0550 C   0  0  0  0  0  3  0  0  0  0  0  0
  161.0590  206.8320  155.2510 C   0  0  0  0  0  3  0  0  0  0  0  0
  160.6530  206.6910  153.9240 C   0  0  0  0  0  3  0  0  0  0  0  0
  161.5210  208.0680  155.7110 C   0  0  0  0  0  3  0  0  0  0  0  0
  161.1800  209.0290  153.5000 C   0  0  0  0  0  0  0  0  0  0  0  0
  161.5290  210.7920  156.6060 O   0  0  0  0  0  0  0  0  0  0  0  0
  162.1220  210.4850  155.3640 C   0  0  1  0  0  3  0  0  0  0  0  0
  162.8520  210.3230  156.6450 C   0  0  0  0  0  2  0  0  0  0  0  0
  160.3620  212.5810  154.0210 O   0  0  0  0  0  0  0  0  0  0  0  0
  160.0020  210.9290  152.4000 N   0  0  0  0  0  2  0  0  0  0  0  0
  159.5870  212.0620  153.1770 C   0  0  0  0  0  0  0  0  0  0  0  0
  158.2100  212.6370  153.0130 C   0  0  2  0  0  3  0  0  0  0  0  0
  156.4760  211.8560  156.6830 C   0  0  0  0  0  2  0  0  0  0  0  0
  157.8310  211.4830  156.0920 C   0  0  0  0  0  2  0  0  0  0  0  0
  157.6740  211.0050  154.7760 O   0  0  0  0  0  0  0  0  0  0  0  0
  156.4470  213.0620  154.6180 O   0  0  0  0  0  0  0  0  0  0  0  0
  155.6190  212.4530  155.5750 C   0  0  0  0  0  2  0  0  0  0  0  0
  157.1410  212.0300  153.9320 C   0  0  0  0  0  3  0  0  0  0  0  0
  157.4650  214.1710  151.2960 C   0  0  0  0  0  1  0  0  0  0  0  0
  157.7850  212.7860  151.6150 N   0  0  0  0  0  2  0  0  0  0  0  0
  161.9560  209.9240  151.2060 C   0  0  0  0  0  2  0  0  0  0  0  0
  162.1760  208.4430  150.9510 C   0  0  0  0  0  2  0  0  0  0  0  0
  162.9160  207.9770  148.7260 O   0  0  0  0  0  1  0  0  0  0  0  0
  161.7770  208.0940  149.5280 C   0  0  1  0  0  3  0  0  0  0  0  0
  160.1530  206.7050  148.2240 C   0  0  0  0  0  1  0  0  0  0  0  0
  160.9590  206.8040  149.5050 C   0  0  1  0  0  3  0  0  0  0  0  0
  161.8340  205.5690  149.6810 C   0  0  0  0  0  2  0  0  0  0  0  0
  161.2080  202.1000  146.9450 O   0  0  0  0  0  0  0  0  0  0  0  0
  161.5740  200.2140  148.1860 O   0  0  0  0  0  0  0  0  0  0  0  0
  160.3840  201.9610  149.3270 C   0  0  2  0  0  3  0  0  0  0  0  0
  161.9610  204.0670  147.8420 O   0  0  0  0  0  0  0  0  0  0  0  0
  161.0630  203.5110  146.9230 C   0  0  1  0  0  3  0  0  0  0  0  0
  161.1410  203.1530  149.9420 C   0  0  1  0  0  3  0  0  0  0  0  0
  160.1760  200.9640  150.2880 O   0  0  0  0  0  1  0  0  0  0  0  0
  161.2030  204.3640  148.9860 C   0  0  1  0  0  3  0  0  0  0  0  0
  161.0830  201.3740  148.1290 C   0  0  0  0  0  0  0  0  0  0  0  0
  160.4390  203.5590  151.2350 C   0  0  0  0  0  1  0  0  0  0  0  0
  161.3880  204.0240  145.5340 C   0  0  0  0  0  1  0  0  0  0  0  0
  1 23  1  6  0  0  0
  1  7  1  0  0  0  0
  2  6  1  0  0  0  0
  3  7  1  0  0  0  0
  3  5  2  0  0  0  0
  4  6  2  0  0  0  0
  5  4  1  0  0  0  0
  7  2  2  0  0  0  0
  8 10  1  0  0  0  0
  9  2  1  1  0  0  0
  9  8  1  0  0  0  0
  9 10  1  0  0  0  0
 12  1  1  0  0  0  0
 12 13  1  0  0  0  0
 13 11  2  0  0  0  0
 14 22  1  6  0  0  0
 14 13  1  0  0  0  0
 14 20  1  0  0  0  0
 16 15  1  0  0  0  0
 17 16  1  0  0  0  0
 18 19  1  0  0  0  0
 19 15  1  0  0  0  0
 20 18  1  0  0  0  0
 20 17  1  0  0  0  0
 21 22  1  0  0  0  0
 24 23  1  0  0  0  0
 26 25  1  6  0  0  0
 26 24  1  0  0  0  0
 28 27  1  6  0  0  0
 28 26  1  0  0  0  0
 28 29  1  0  0  0  0
 30 38  1  0  0  0  0
 32 35  1  0  0  0  0
 32 36  1  1  0  0  0
 33 37  1  0  0  0  0
 34 40  1  6  0  0  0
 34 30  1  0  0  0  0
 34 33  1  0  0  0  0
 35 39  1  1  0  0  0
 37 29  1  1  0  0  0
 37 35  1  0  0  0  0
 38 31  2  0  0  0  0
 38 32  1  0  0  0  0
M  END
>  <MODEL>
9

>  <REMARK>
 VINA RESULT:      -6.7      2.111      4.524
  Name = 
  12 active torsions:
  status: ('A' for Active; 'I' for Inactive)
    1  A    between atoms: C_4  and  C_11
    2  A    between atoms: C_9  and  C_19
    3  A    between atoms: C_9  and  C_34
    4  A    between atoms: C_14  and  C_27
    5  A    between atoms: C_14  and  C_38
    6  A    between atoms: C_20  and  N_33
    7  A    between atoms: C_20  and  C_35
    8  A    between atoms: C_20  and  C_40
    9  A    between atoms: C_23  and  C_34
   10  A    between atoms: C_23  and  C_38
   11  A    between atoms: C_27  and  C_37
   12  A    between atoms: C_27  and  N_39
                            x       y       z     vdW  Elec       q    Type
                         _______ _______ _______ _____ _____    ______ ____

>  <TORSDO>
F 12

$$$$
