=
 OpenBabel11072411513D

 32 35  0  0  1  0  0  0  0  0999 V2000
  162.1400  208.0800  151.3120 C   0  0  0  0  0  3  0  0  0  0  0  0
  161.9140  207.5680  152.5950 C   0  0  0  0  0  0  0  0  0  0  0  0
  161.1600  210.1900  151.9500 C   0  0  0  0  0  3  0  0  0  0  0  0
  161.7690  209.3870  150.9800 C   0  0  0  0  0  0  0  0  0  0  0  0
  161.3040  208.3840  153.5790 C   0  0  0  0  0  0  0  0  0  0  0  0
  160.9300  209.6920  153.2330 C   0  0  0  0  0  3  0  0  0  0  0  0
  159.8170  207.0870  156.7670 C   0  0  0  0  0  2  0  0  0  0  0  0
  161.1530  207.6200  157.2610 C   0  0  0  0  0  2  0  0  0  0  0  0
  159.8840  207.1090  155.2510 C   0  0  0  0  0  2  0  0  0  0  0  0
  161.0450  207.9130  154.9160 N   0  0  0  0  0  0  0  0  0  0  0  0
  161.7810  208.3450  156.0880 C   0  0  0  0  0  2  0  0  0  0  0  0
  162.0100  211.3080  149.3730 N   0  0  0  0  0  2  0  0  0  0  0  0
  161.9860  209.8960  149.6150 C   0  0  0  0  0  0  0  0  0  0  0  0
  162.1660  209.0900  148.6620 O   0  0  0  0  0  0  0  0  0  0  0  0
  162.2320  211.8770  148.0530 C   0  0  0  0  0  2  0  0  0  0  0  0
  160.8240  213.5310  149.2370 C   0  0  0  0  0  1  0  0  0  0  0  0
  161.5970  213.2520  147.9660 C   0  0  0  0  0  2  0  0  0  0  0  0
  162.2320  206.1250  152.8340 C   0  0  0  0  0  2  0  0  0  0  0  0
  160.0560  205.3400  152.3860 O   0  0  0  0  0  0  0  0  0  0  0  0
  161.2470  205.2460  152.1280 C   0  0  0  0  0  0  0  0  0  0  0  0
  161.0710  202.8220  148.6870 N   0  0  0  0  0  0  0  0  0  0  0  0
  160.4870  200.6480  150.0960 S   0  0  0  0  0  0  0  0  0  0  0  0
  161.7200  204.3310  151.0400 C   0  0  2  0  0  3  0  0  0  0  0  0
  161.5200  204.9610  149.6860 C   0  0  0  0  0  2  0  0  0  0  0  0
  160.9450  202.2090  149.9700 C   0  0  0  0  0  0  0  0  0  0  0  0
  161.0870  203.0160  151.1370 N   0  0  0  0  0  2  0  0  0  0  0  0
  161.2810  204.2370  148.5840 C   0  0  0  0  0  0  0  0  0  0  0  0
  161.1850  204.8910  147.2680 C   0  0  0  0  0  0  0  0  0  0  0  0
  161.2970  205.4580  144.9320 S   0  0  0  0  0  0  0  0  0  0  0  0
  160.5590  206.5870  145.8880 N   0  0  0  0  0  0  0  0  0  0  0  0
  160.5860  206.1150  147.1280 N   0  0  0  0  0  0  0  0  0  0  0  0
  161.6800  204.3150  146.0880 C   0  0  0  0  0  3  0  0  0  0  0  0
  1  2  1  0  0  0  0
  2 18  1  0  0  0  0
  2  5  2  0  0  0  0
  3  6  2  0  0  0  0
  4  1  2  0  0  0  0
  4  3  1  0  0  0  0
  5 10  1  0  0  0  0
  6  5  1  0  0  0  0
  7  8  1  0  0  0  0
  9  7  1  0  0  0  0
 10  9  1  0  0  0  0
 10 11  1  0  0  0  0
 11  8  1  0  0  0  0
 12 13  1  0  0  0  0
 13  4  1  0  0  0  0
 14 13  2  0  0  0  0
 15 12  1  0  0  0  0
 17 15  1  0  0  0  0
 17 16  1  0  0  0  0
 20 19  2  0  0  0  0
 20 18  1  0  0  0  0
 21 25  1  0  0  0  0
 23 26  1  0  0  0  0
 23 20  1  1  0  0  0
 24 23  1  0  0  0  0
 25 22  2  0  0  0  0
 25 26  1  0  0  0  0
 27 21  2  0  0  0  0
 27 24  1  0  0  0  0
 28 27  1  0  0  0  0
 29 30  1  0  0  0  0
 29 32  1  0  0  0  0
 30 31  2  0  0  0  0
 31 28  1  0  0  0  0
 32 28  2  0  0  0  0
M  END
>  <MODEL>
1

>  <REMARK>
 VINA RESULT:      -6.9      0.000      0.000
  Name = 
  8 active torsions:
  status: ('A' for Active; 'I' for Inactive)
    1  A    between atoms: N_3  and  C_23
    2  A    between atoms: C_4  and  C_9
    3  A    between atoms: C_4  and  C_13
    4  A    between atoms: C_5  and  C_30
    5  A    between atoms: C_11  and  C_13
    6  A    between atoms: C_18  and  C_20
    7  A    between atoms: C_19  and  N_25
    8  A    between atoms: C_23  and  C_29
                            x       y       z     vdW  Elec       q    Type
                         _______ _______ _______ _____ _____    ______ ____

>  <TORSDO>
F 8

$$$$
=
 OpenBabel11072411513D

 32 35  0  0  1  0  0  0  0  0999 V2000
  161.8100  205.8930  149.4180 C   0  0  0  0  0  3  0  0  0  0  0  0
  161.7830  206.6780  150.5760 C   0  0  0  0  0  0  0  0  0  0  0  0
  160.6020  204.1360  150.5470 C   0  0  0  0  0  3  0  0  0  0  0  0
  161.2220  204.6240  149.3920 C   0  0  0  0  0  0  0  0  0  0  0  0
  161.1480  206.1870  151.7430 C   0  0  0  0  0  0  0  0  0  0  0  0
  160.5670  204.9090  151.7080 C   0  0  0  0  0  3  0  0  0  0  0  0
  160.7610  207.4060  155.2670 C   0  0  0  0  0  2  0  0  0  0  0  0
  160.7880  208.7210  154.5020 C   0  0  0  0  0  2  0  0  0  0  0  0
  161.1610  206.3300  154.2760 C   0  0  0  0  0  2  0  0  0  0  0  0
  161.0890  206.9480  152.9650 N   0  0  0  0  0  0  0  0  0  0  0  0
  160.7560  208.3570  153.0320 C   0  0  0  0  0  2  0  0  0  0  0  0
  161.4850  204.4230  146.8980 N   0  0  0  0  0  2  0  0  0  0  0  0
  161.2890  203.8000  148.1720 C   0  0  0  0  0  0  0  0  0  0  0  0
  161.1870  202.5450  148.2520 O   0  0  0  0  0  0  0  0  0  0  0  0
  161.5720  203.6680  145.6570 C   0  0  0  0  0  2  0  0  0  0  0  0
  160.4720  205.7880  145.0120 C   0  0  0  0  0  1  0  0  0  0  0  0
  160.8100  204.3840  144.5580 C   0  0  0  0  0  2  0  0  0  0  0  0
  162.5360  207.9720  150.5570 C   0  0  0  0  0  2  0  0  0  0  0  0
  161.3750  208.3940  148.5510 O   0  0  0  0  0  0  0  0  0  0  0  0
  162.0110  208.8700  149.4800 C   0  0  0  0  0  0  0  0  0  0  0  0
  160.9830  212.9550  149.4520 N   0  0  0  0  0  0  0  0  0  0  0  0
  161.6010  213.2200  146.8830 S   0  0  0  0  0  0  0  0  0  0  0  0
  162.1830  210.3530  149.6050 C   0  0  2  0  0  3  0  0  0  0  0  0
  161.2800  210.9080  150.6750 C   0  0  0  0  0  2  0  0  0  0  0  0
  161.5680  212.3820  148.2820 C   0  0  0  0  0  0  0  0  0  0  0  0
  161.9920  211.0200  148.3180 N   0  0  0  0  0  2  0  0  0  0  0  0
  160.7790  212.1500  150.6200 C   0  0  0  0  0  0  0  0  0  0  0  0
  159.9770  212.6800  151.7360 C   0  0  0  0  0  0  0  0  0  0  0  0
  158.8690  213.0580  153.8390 S   0  0  0  0  0  0  0  0  0  0  0  0
  158.6230  214.2320  152.7010 N   0  0  0  0  0  0  0  0  0  0  0  0
  159.3000  213.8650  151.6200 N   0  0  0  0  0  0  0  0  0  0  0  0
  159.8610  212.0290  152.9740 C   0  0  0  0  0  3  0  0  0  0  0  0
  1  2  1  0  0  0  0
  2  5  2  0  0  0  0
  3  6  2  0  0  0  0
  4  1  2  0  0  0  0
  4  3  1  0  0  0  0
  5 10  1  0  0  0  0
  6  5  1  0  0  0  0
  8  7  1  0  0  0  0
  9  7  1  0  0  0  0
 10 11  1  0  0  0  0
 10  9  1  0  0  0  0
 11  8  1  0  0  0  0
 12 13  1  0  0  0  0
 13 14  2  0  0  0  0
 13  4  1  0  0  0  0
 15 12  1  0  0  0  0
 17 16  1  0  0  0  0
 17 15  1  0  0  0  0
 18  2  1  0  0  0  0
 19 20  2  0  0  0  0
 20 18  1  0  0  0  0
 21 27  2  0  0  0  0
 22 25  2  0  0  0  0
 23 20  1  6  0  0  0
 23 24  1  0  0  0  0
 25 26  1  0  0  0  0
 25 21  1  0  0  0  0
 26 23  1  0  0  0  0
 27 24  1  0  0  0  0
 27 28  1  0  0  0  0
 28 32  2  0  0  0  0
 30 29  1  0  0  0  0
 31 28  1  0  0  0  0
 31 30  2  0  0  0  0
 32 29  1  0  0  0  0
M  END
>  <MODEL>
2

>  <REMARK>
 VINA RESULT:      -6.8      3.272      7.283
  Name = 
  8 active torsions:
  status: ('A' for Active; 'I' for Inactive)
    1  A    between atoms: N_3  and  C_23
    2  A    between atoms: C_4  and  C_9
    3  A    between atoms: C_4  and  C_13
    4  A    between atoms: C_5  and  C_30
    5  A    between atoms: C_11  and  C_13
    6  A    between atoms: C_18  and  C_20
    7  A    between atoms: C_19  and  N_25
    8  A    between atoms: C_23  and  C_29
                            x       y       z     vdW  Elec       q    Type
                         _______ _______ _______ _____ _____    ______ ____

>  <TORSDO>
F 8

$$$$
=
 OpenBabel11072411513D

 32 35  0  0  1  0  0  0  0  0999 V2000
  160.0080  210.9260  152.0330 C   0  0  0  0  0  3  0  0  0  0  0  0
  160.3820  209.9770  152.9920 C   0  0  0  0  0  0  0  0  0  0  0  0
  159.7230  212.5940  153.7530 C   0  0  0  0  0  3  0  0  0  0  0  0
  159.6800  212.2350  152.4020 C   0  0  0  0  0  0  0  0  0  0  0  0
  160.4330  210.3430  154.3590 C   0  0  0  0  0  0  0  0  0  0  0  0
  160.0950  211.6570  154.7190 C   0  0  0  0  0  3  0  0  0  0  0  0
  160.5550  207.8760  157.1790 C   0  0  0  0  0  2  0  0  0  0  0  0
  162.0080  208.3230  157.1170 C   0  0  0  0  0  2  0  0  0  0  0  0
  159.8840  208.4350  155.9390 C   0  0  0  0  0  2  0  0  0  0  0  0
  160.8090  209.4110  155.3920 N   0  0  0  0  0  0  0  0  0  0  0  0
  162.0560  209.4700  156.1280 C   0  0  0  0  0  2  0  0  0  0  0  0
  157.8660  213.4380  151.1410 N   0  0  0  0  0  2  0  0  0  0  0  0
  159.2590  213.2100  151.3820 C   0  0  0  0  0  0  0  0  0  0  0  0
  160.1250  213.8550  150.7300 O   0  0  0  0  0  0  0  0  0  0  0  0
  157.3820  214.3950  150.1570 C   0  0  0  0  0  2  0  0  0  0  0  0
  157.2840  213.0550  148.0800 C   0  0  0  0  0  1  0  0  0  0  0  0
  156.4600  213.7050  149.1700 C   0  0  0  0  0  2  0  0  0  0  0  0
  160.6030  208.5710  152.5290 C   0  0  0  0  0  2  0  0  0  0  0  0
  162.4780  209.4940  151.4420 O   0  0  0  0  0  0  0  0  0  0  0  0
  161.8060  208.4930  151.6420 C   0  0  0  0  0  0  0  0  0  0  0  0
  161.4800  204.7340  149.7680 N   0  0  0  0  0  2  0  0  0  0  0  0
  161.0070  203.4900  152.0660 S   0  0  0  0  0  0  0  0  0  0  0  0
  162.2330  207.1670  151.0900 C   0  0  2  0  0  3  0  0  0  0  0  0
  161.9500  207.0850  149.6130 C   0  0  0  0  0  3  0  0  0  0  0  0
  161.4340  204.8010  151.1930 C   0  0  0  0  0  0  0  0  0  0  0  0
  161.6260  206.0620  151.8320 N   0  0  0  0  0  2  0  0  0  0  0  0
  161.6620  205.9300  148.9990 C   0  0  0  0  0  0  0  0  0  0  0  0
  161.4840  205.8860  147.5370 C   0  0  0  0  0  0  0  0  0  0  0  0
  161.7170  205.5250  145.1690 S   0  0  0  0  0  0  0  0  0  0  0  0
  160.3290  206.2980  145.6220 N   0  0  0  0  0  0  0  0  0  0  0  0
  160.3670  206.4110  146.9440 N   0  0  0  0  0  0  0  0  0  0  0  0
  162.4220  205.3070  146.6680 C   0  0  0  0  0  3  0  0  0  0  0  0
  1  4  2  0  0  0  0
  1  2  1  0  0  0  0
  2  5  2  0  0  0  0
  3  6  2  0  0  0  0
  4  3  1  0  0  0  0
  5  6  1  0  0  0  0
  5 10  1  0  0  0  0
  8  7  1  0  0  0  0
  9  7  1  0  0  0  0
 10  9  1  0  0  0  0
 10 11  1  0  0  0  0
 11  8  1  0  0  0  0
 12 13  1  0  0  0  0
 13  4  1  0  0  0  0
 14 13  2  0  0  0  0
 15 12  1  0  0  0  0
 16 17  1  0  0  0  0
 17 15  1  0  0  0  0
 18  2  1  0  0  0  0
 19 20  2  0  0  0  0
 20 18  1  0  0  0  0
 21 25  1  0  0  0  0
 23 20  1  1  0  0  0
 23 26  1  0  0  0  0
 24 23  1  0  0  0  0
 25 26  1  0  0  0  0
 25 22  2  0  0  0  0
 27 24  2  0  0  0  0
 27 21  1  0  0  0  0
 28 27  1  0  0  0  0
 29 30  1  0  0  0  0
 29 32  1  0  0  0  0
 30 31  2  0  0  0  0
 31 28  1  0  0  0  0
 32 28  2  0  0  0  0
M  END
>  <MODEL>
3

>  <REMARK>
 VINA RESULT:      -6.8      2.453      3.168
  Name = 
  8 active torsions:
  status: ('A' for Active; 'I' for Inactive)
    1  A    between atoms: N_3  and  C_23
    2  A    between atoms: C_4  and  C_9
    3  A    between atoms: C_4  and  C_13
    4  A    between atoms: C_5  and  C_30
    5  A    between atoms: C_11  and  C_13
    6  A    between atoms: C_18  and  C_20
    7  A    between atoms: C_19  and  N_25
    8  A    between atoms: C_23  and  C_29
                            x       y       z     vdW  Elec       q    Type
                         _______ _______ _______ _____ _____    ______ ____

>  <TORSDO>
F 8

$$$$
=
 OpenBabel11072411513D

 32 35  0  0  1  0  0  0  0  0999 V2000
  160.8670  206.8950  150.8240 C   0  0  0  0  0  3  0  0  0  0  0  0
  160.8010  207.5540  152.0580 C   0  0  0  0  0  0  0  0  0  0  0  0
  161.3990  204.8180  151.9300 C   0  0  0  0  0  3  0  0  0  0  0  0
  161.1630  205.5300  150.7500 C   0  0  0  0  0  0  0  0  0  0  0  0
  161.0330  206.8310  153.2530 C   0  0  0  0  0  0  0  0  0  0  0  0
  161.3350  205.4630  153.1660 C   0  0  0  0  0  3  0  0  0  0  0  0
  160.1170  208.0720  156.6700 C   0  0  0  0  0  2  0  0  0  0  0  0
  161.2870  208.9830  156.3300 C   0  0  0  0  0  2  0  0  0  0  0  0
  160.0960  206.9920  155.6050 C   0  0  0  0  0  2  0  0  0  0  0  0
  160.9800  207.4540  154.5510 N   0  0  0  0  0  0  0  0  0  0  0  0
  161.6350  208.7040  154.8830 C   0  0  0  0  0  2  0  0  0  0  0  0
  161.0750  203.4450  149.3450 N   0  0  0  0  0  2  0  0  0  0  0  0
  161.2590  204.8620  149.4400 C   0  0  0  0  0  0  0  0  0  0  0  0
  161.4880  205.5390  148.4010 O   0  0  0  0  0  0  0  0  0  0  0  0
  161.1450  202.7250  148.0820 C   0  0  0  0  0  2  0  0  0  0  0  0
  160.8520  200.9780  149.8090 C   0  0  0  0  0  1  0  0  0  0  0  0
  161.0180  201.2330  148.3270 C   0  0  0  0  0  2  0  0  0  0  0  0
  160.5960  209.0370  152.0440 C   0  0  0  0  0  2  0  0  0  0  0  0
  162.6940  209.0620  150.9730 O   0  0  0  0  0  0  0  0  0  0  0  0
  161.7410  209.7200  151.3640 C   0  0  0  0  0  0  0  0  0  0  0  0
  160.2230  213.3480  149.8540 N   0  0  0  0  0  0  0  0  0  0  0  0
  161.5540  213.0980  147.5700 S   0  0  0  0  0  0  0  0  0  0  0  0
  161.6620  211.1890  151.0790 C   0  0  2  0  0  3  0  0  0  0  0  0
  160.4090  211.7820  151.6670 C   0  0  0  0  0  2  0  0  0  0  0  0
  161.2090  212.6450  149.0990 C   0  0  0  0  0  0  0  0  0  0  0  0
  161.7840  211.4600  149.6470 N   0  0  0  0  0  2  0  0  0  0  0  0
  159.7830  212.8320  151.1180 C   0  0  0  0  0  0  0  0  0  0  0  0
  158.6140  213.4350  151.7810 C   0  0  0  0  0  0  0  0  0  0  0  0
  156.4970  214.4530  152.3020 S   0  0  0  0  0  0  0  0  0  0  0  0
  157.4490  214.1170  153.6100 N   0  0  0  0  0  0  0  0  0  0  0  0
  158.5620  213.5660  153.1430 N   0  0  0  0  0  0  0  0  0  0  0  0
  157.4900  213.8980  151.0790 C   0  0  0  0  0  3  0  0  0  0  0  0
  1  2  1  0  0  0  0
  2  5  2  0  0  0  0
  3  6  2  0  0  0  0
  4  1  2  0  0  0  0
  4  3  1  0  0  0  0
  5 10  1  0  0  0  0
  6  5  1  0  0  0  0
  8  7  1  0  0  0  0
  9  7  1  0  0  0  0
 10 11  1  0  0  0  0
 10  9  1  0  0  0  0
 11  8  1  0  0  0  0
 12 13  1  0  0  0  0
 13  4  1  0  0  0  0
 14 13  2  0  0  0  0
 15 17  1  0  0  0  0
 15 12  1  0  0  0  0
 17 16  1  0  0  0  0
 18  2  1  0  0  0  0
 19 20  2  0  0  0  0
 20 18  1  0  0  0  0
 21 27  2  0  0  0  0
 22 25  2  0  0  0  0
 23 20  1  6  0  0  0
 23 24  1  0  0  0  0
 25 26  1  0  0  0  0
 25 21  1  0  0  0  0
 26 23  1  0  0  0  0
 27 24  1  0  0  0  0
 27 28  1  0  0  0  0
 28 31  1  0  0  0  0
 29 30  1  0  0  0  0
 31 30  2  0  0  0  0
 32 28  2  0  0  0  0
 32 29  1  0  0  0  0
M  END
>  <MODEL>
4

>  <REMARK>
 VINA RESULT:      -6.6      3.488      7.655
  Name = 
  8 active torsions:
  status: ('A' for Active; 'I' for Inactive)
    1  A    between atoms: N_3  and  C_23
    2  A    between atoms: C_4  and  C_9
    3  A    between atoms: C_4  and  C_13
    4  A    between atoms: C_5  and  C_30
    5  A    between atoms: C_11  and  C_13
    6  A    between atoms: C_18  and  C_20
    7  A    between atoms: C_19  and  N_25
    8  A    between atoms: C_23  and  C_29
                            x       y       z     vdW  Elec       q    Type
                         _______ _______ _______ _____ _____    ______ ____

>  <TORSDO>
F 8

$$$$
=
 OpenBabel11072411513D

 32 35  0  0  1  0  0  0  0  0999 V2000
  161.1700  205.6350  150.5410 C   0  0  0  0  0  3  0  0  0  0  0  0
  161.1550  205.1680  149.2220 C   0  0  0  0  0  0  0  0  0  0  0  0
  161.2400  203.3710  151.3720 C   0  0  0  0  0  3  0  0  0  0  0  0
  161.2140  204.7470  151.6210 C   0  0  0  0  0  0  0  0  0  0  0  0
  161.1890  203.7750  148.9700 C   0  0  0  0  0  0  0  0  0  0  0  0
  161.2270  202.8930  150.0610 C   0  0  0  0  0  3  0  0  0  0  0  0
  161.1570  203.2030  145.2650 C   0  0  0  0  0  2  0  0  0  0  0  0
  160.7570  201.8280  145.7780 C   0  0  0  0  0  2  0  0  0  0  0  0
  161.6090  203.9940  146.4770 C   0  0  0  0  0  2  0  0  0  0  0  0
  161.1740  203.2340  147.6340 N   0  0  0  0  0  0  0  0  0  0  0  0
  160.5510  201.9760  147.2720 C   0  0  0  0  0  2  0  0  0  0  0  0
  161.4440  206.6460  153.2560 N   0  0  0  0  0  2  0  0  0  0  0  0
  161.1970  205.2580  153.0030 C   0  0  0  0  0  0  0  0  0  0  0  0
  160.9520  204.4760  153.9620 O   0  0  0  0  0  0  0  0  0  0  0  0
  161.4310  207.2170  154.5940 C   0  0  0  0  0  2  0  0  0  0  0  0
  159.8670  207.1810  156.5100 C   0  0  0  0  0  1  0  0  0  0  0  0
  160.0030  207.4810  155.0330 C   0  0  0  0  0  2  0  0  0  0  0  0
  160.9880  206.1770  148.1290 C   0  0  0  0  0  2  0  0  0  0  0  0
  163.0350  207.3190  147.8990 O   0  0  0  0  0  0  0  0  0  0  0  0
  161.8980  207.3450  148.3470 C   0  0  0  0  0  0  0  0  0  0  0  0
  161.9460  211.1420  150.1710 N   0  0  0  0  0  2  0  0  0  0  0  0
  162.3140  210.1120  152.5910 S   0  0  0  0  0  0  0  0  0  0  0  0
  161.3740  208.5750  149.0240 C   0  0  2  0  0  3  0  0  0  0  0  0
  161.6560  209.8010  148.1980 C   0  0  0  0  0  3  0  0  0  0  0  0
  161.9910  209.9790  150.9970 C   0  0  0  0  0  0  0  0  0  0  0  0
  161.8920  208.6930  150.3860 N   0  0  0  0  0  2  0  0  0  0  0  0
  161.8580  211.0070  148.7460 C   0  0  0  0  0  0  0  0  0  0  0  0
  162.0380  212.1950  147.8920 C   0  0  0  0  0  0  0  0  0  0  0  0
  161.8660  213.9000  146.2030 S   0  0  0  0  0  0  0  0  0  0  0  0
  163.0510  214.1510  147.3280 N   0  0  0  0  0  0  0  0  0  0  0  0
  163.0020  213.1270  148.1710 N   0  0  0  0  0  0  0  0  0  0  0  0
  161.2450  212.4540  146.7640 C   0  0  0  0  0  3  0  0  0  0  0  0
  1  4  1  0  0  0  0
  2  1  2  0  0  0  0
  3  4  2  0  0  0  0
  4 13  1  0  0  0  0
  5  2  1  0  0  0  0
  5  6  2  0  0  0  0
  6  3  1  0  0  0  0
  7  8  1  0  0  0  0
  7  9  1  0  0  0  0
  8 11  1  0  0  0  0
  9 10  1  0  0  0  0
 10  5  1  0  0  0  0
 11 10  1  0  0  0  0
 12 15  1  0  0  0  0
 13 12  1  0  0  0  0
 13 14  2  0  0  0  0
 15 17  1  0  0  0  0
 17 16  1  0  0  0  0
 18 20  1  0  0  0  0
 18  2  1  0  0  0  0
 19 20  2  0  0  0  0
 21 25  1  0  0  0  0
 23 20  1  6  0  0  0
 23 26  1  0  0  0  0
 24 27  2  0  0  0  0
 24 23  1  0  0  0  0
 25 22  2  0  0  0  0
 26 25  1  0  0  0  0
 27 21  1  0  0  0  0
 28 31  1  0  0  0  0
 28 27  1  0  0  0  0
 29 32  1  0  0  0  0
 29 30  1  0  0  0  0
 30 31  2  0  0  0  0
 32 28  2  0  0  0  0
M  END
>  <MODEL>
5

>  <REMARK>
 VINA RESULT:      -6.5      2.867      7.730
  Name = 
  8 active torsions:
  status: ('A' for Active; 'I' for Inactive)
    1  A    between atoms: N_3  and  C_23
    2  A    between atoms: C_4  and  C_9
    3  A    between atoms: C_4  and  C_13
    4  A    between atoms: C_5  and  C_30
    5  A    between atoms: C_11  and  C_13
    6  A    between atoms: C_18  and  C_20
    7  A    between atoms: C_19  and  N_25
    8  A    between atoms: C_23  and  C_29
                            x       y       z     vdW  Elec       q    Type
                         _______ _______ _______ _____ _____    ______ ____

>  <TORSDO>
F 8

$$$$
=
 OpenBabel11072411513D

 32 35  0  0  1  0  0  0  0  0999 V2000
  160.8310  208.1050  151.3260 C   0  0  0  0  0  3  0  0  0  0  0  0
  160.6750  208.3120  152.7020 C   0  0  0  0  0  0  0  0  0  0  0  0
  162.0950  206.0940  151.7440 C   0  0  0  0  0  3  0  0  0  0  0  0
  161.5360  207.0000  150.8380 C   0  0  0  0  0  0  0  0  0  0  0  0
  161.2350  207.3900  153.6190 C   0  0  0  0  0  0  0  0  0  0  0  0
  161.9460  206.2880  153.1180 C   0  0  0  0  0  3  0  0  0  0  0  0
  160.0810  207.5940  157.1800 C   0  0  0  0  0  2  0  0  0  0  0  0
  161.4140  208.3220  157.2610 C   0  0  0  0  0  2  0  0  0  0  0  0
  160.0320  206.9480  155.8090 C   0  0  0  0  0  2  0  0  0  0  0  0
  161.1090  207.5500  155.0460 N   0  0  0  0  0  0  0  0  0  0  0  0
  161.9020  208.4720  155.8350 C   0  0  0  0  0  2  0  0  0  0  0  0
  161.2330  205.6280  148.7510 N   0  0  0  0  0  2  0  0  0  0  0  0
  161.7160  206.8170  149.3880 C   0  0  0  0  0  0  0  0  0  0  0  0
  162.2820  207.7120  148.7030 O   0  0  0  0  0  0  0  0  0  0  0  0
  161.3670  205.3880  147.3230 C   0  0  0  0  0  2  0  0  0  0  0  0
  161.2060  203.1200  148.2950 C   0  0  0  0  0  1  0  0  0  0  0  0
  161.5820  203.9100  147.0610 C   0  0  0  0  0  2  0  0  0  0  0  0
  160.0090  209.5780  153.1430 C   0  0  0  0  0  2  0  0  0  0  0  0
  162.1500  210.5410  152.9460 O   0  0  0  0  0  0  0  0  0  0  0  0
  160.9450  210.7380  153.0110 C   0  0  0  0  0  0  0  0  0  0  0  0
  158.1530  213.7750  152.1560 N   0  0  0  0  0  0  0  0  0  0  0  0
  158.9030  213.9210  149.6140 S   0  0  0  0  0  0  0  0  0  0  0  0
  160.3910  212.1220  152.8570 C   0  0  2  0  0  3  0  0  0  0  0  0
  159.2050  212.3270  153.7610 C   0  0  0  0  0  2  0  0  0  0  0  0
  159.0820  213.3870  151.1450 C   0  0  0  0  0  0  0  0  0  0  0  0
  160.0810  212.4180  151.4590 N   0  0  0  0  0  2  0  0  0  0  0  0
  158.1960  213.1520  153.4480 C   0  0  0  0  0  0  0  0  0  0  0  0
  157.1020  213.3910  154.4060 C   0  0  0  0  0  0  0  0  0  0  0  0
  155.7300  213.6160  156.3700 S   0  0  0  0  0  0  0  0  0  0  0  0
  154.9870  214.0230  154.9500 N   0  0  0  0  0  0  0  0  0  0  0  0
  155.8800  213.8420  153.9850 N   0  0  0  0  0  0  0  0  0  0  0  0
  157.2370  213.1890  155.7870 C   0  0  0  0  0  3  0  0  0  0  0  0
  1  2  1  0  0  0  0
  2 18  1  0  0  0  0
  2  5  2  0  0  0  0
  3  6  2  0  0  0  0
  4  1  2  0  0  0  0
  4  3  1  0  0  0  0
  5 10  1  0  0  0  0
  6  5  1  0  0  0  0
  7  8  1  0  0  0  0
  9  7  1  0  0  0  0
 10  9  1  0  0  0  0
 10 11  1  0  0  0  0
 11  8  1  0  0  0  0
 12 13  1  0  0  0  0
 13  4  1  0  0  0  0
 14 13  2  0  0  0  0
 15 12  1  0  0  0  0
 17 15  1  0  0  0  0
 17 16  1  0  0  0  0
 19 20  2  0  0  0  0
 20 18  1  0  0  0  0
 21 27  2  0  0  0  0
 22 25  2  0  0  0  0
 23 20  1  6  0  0  0
 23 24  1  0  0  0  0
 25 26  1  0  0  0  0
 25 21  1  0  0  0  0
 26 23  1  0  0  0  0
 27 24  1  0  0  0  0
 27 28  1  0  0  0  0
 28 32  2  0  0  0  0
 30 29  1  0  0  0  0
 31 28  1  0  0  0  0
 31 30  2  0  0  0  0
 32 29  1  0  0  0  0
M  END
>  <MODEL>
6

>  <REMARK>
 VINA RESULT:      -6.4      4.503      8.022
  Name = 
  8 active torsions:
  status: ('A' for Active; 'I' for Inactive)
    1  A    between atoms: N_3  and  C_23
    2  A    between atoms: C_4  and  C_9
    3  A    between atoms: C_4  and  C_13
    4  A    between atoms: C_5  and  C_30
    5  A    between atoms: C_11  and  C_13
    6  A    between atoms: C_18  and  C_20
    7  A    between atoms: C_19  and  N_25
    8  A    between atoms: C_23  and  C_29
                            x       y       z     vdW  Elec       q    Type
                         _______ _______ _______ _____ _____    ______ ____

>  <TORSDO>
F 8

$$$$
=
 OpenBabel11072411513D

 32 35  0  0  1  0  0  0  0  0999 V2000
  161.8410  207.9110  151.0620 C   0  0  0  0  0  3  0  0  0  0  0  0
  162.0250  209.2120  150.5770 C   0  0  0  0  0  0  0  0  0  0  0  0
  161.3720  207.1160  148.8340 C   0  0  0  0  0  3  0  0  0  0  0  0
  161.5170  206.8590  150.2010 C   0  0  0  0  0  0  0  0  0  0  0  0
  161.8860  209.4710  149.1920 C   0  0  0  0  0  0  0  0  0  0  0  0
  161.5540  208.4080  148.3370 C   0  0  0  0  0  3  0  0  0  0  0  0
  161.6530  212.6770  147.2640 C   0  0  0  0  0  2  0  0  0  0  0  0
  163.0520  212.7870  147.8500 C   0  0  0  0  0  2  0  0  0  0  0  0
  160.9940  211.4980  147.9540 C   0  0  0  0  0  2  0  0  0  0  0  0
  162.0620  210.7870  148.6340 N   0  0  0  0  0  0  0  0  0  0  0  0
  163.3430  211.4550  148.5080 C   0  0  0  0  0  2  0  0  0  0  0  0
  160.9800  204.4260  149.8460 N   0  0  0  0  0  2  0  0  0  0  0  0
  161.2970  205.5030  150.7350 C   0  0  0  0  0  0  0  0  0  0  0  0
  161.4010  205.2890  151.9730 O   0  0  0  0  0  0  0  0  0  0  0  0
  160.7620  203.0630  150.3050 C   0  0  0  0  0  2  0  0  0  0  0  0
  161.2360  202.8580  147.8860 C   0  0  0  0  0  1  0  0  0  0  0  0
  160.8370  202.1010  149.1350 C   0  0  0  0  0  2  0  0  0  0  0  0
  162.2540  210.3010  151.5780 C   0  0  0  0  0  2  0  0  0  0  0  0
  160.4480  211.8120  151.5040 O   0  0  0  0  0  0  0  0  0  0  0  0
  160.9500  210.8500  152.0660 C   0  0  0  0  0  0  0  0  0  0  0  0
  159.4670  210.1230  155.9420 N   0  0  0  0  0  2  0  0  0  0  0  0
  161.6170  208.7290  156.6380 S   0  0  0  0  0  0  0  0  0  0  0  0
  160.2210  210.1510  153.1730 C   0  0  2  0  0  3  0  0  0  0  0  0
  159.1390  211.0300  153.7410 C   0  0  0  0  0  3  0  0  0  0  0  0
  160.6860  209.4980  155.5410 C   0  0  0  0  0  0  0  0  0  0  0  0
  161.1460  209.6770  154.2020 N   0  0  0  0  0  2  0  0  0  0  0  0
  158.7530  210.9610  155.0220 C   0  0  0  0  0  0  0  0  0  0  0  0
  157.6260  211.7760  155.5080 C   0  0  0  0  0  0  0  0  0  0  0  0
  155.9600  212.8970  156.8350 S   0  0  0  0  0  0  0  0  0  0  0  0
  155.8970  213.2220  155.2150 N   0  0  0  0  0  0  0  0  0  0  0  0
  156.8750  212.5300  154.6460 N   0  0  0  0  0  0  0  0  0  0  0  0
  157.2580  211.8440  156.8600 C   0  0  0  0  0  3  0  0  0  0  0  0
  2  1  1  0  0  0  0
  2 18  1  0  0  0  0
  3  4  1  0  0  0  0
  4 13  1  0  0  0  0
  4  1  2  0  0  0  0
  5  2  2  0  0  0  0
  6  3  2  0  0  0  0
  6  5  1  0  0  0  0
  7  8  1  0  0  0  0
  7  9  1  0  0  0  0
  8 11  1  0  0  0  0
  9 10  1  0  0  0  0
 10  5  1  0  0  0  0
 11 10  1  0  0  0  0
 12 15  1  0  0  0  0
 12 13  1  0  0  0  0
 13 14  2  0  0  0  0
 16 17  1  0  0  0  0
 17 15  1  0  0  0  0
 18 20  1  0  0  0  0
 19 20  2  0  0  0  0
 23 20  1  6  0  0  0
 23 24  1  0  0  0  0
 23 26  1  0  0  0  0
 24 27  2  0  0  0  0
 25 21  1  0  0  0  0
 25 22  2  0  0  0  0
 26 25  1  0  0  0  0
 27 28  1  0  0  0  0
 27 21  1  0  0  0  0
 28 32  2  0  0  0  0
 29 32  1  0  0  0  0
 30 29  1  0  0  0  0
 31 30  2  0  0  0  0
 31 28  1  0  0  0  0
M  END
>  <MODEL>
7

>  <REMARK>
 VINA RESULT:      -6.4      4.146      8.643
  Name = 
  8 active torsions:
  status: ('A' for Active; 'I' for Inactive)
    1  A    between atoms: N_3  and  C_23
    2  A    between atoms: C_4  and  C_9
    3  A    between atoms: C_4  and  C_13
    4  A    between atoms: C_5  and  C_30
    5  A    between atoms: C_11  and  C_13
    6  A    between atoms: C_18  and  C_20
    7  A    between atoms: C_19  and  N_25
    8  A    between atoms: C_23  and  C_29
                            x       y       z     vdW  Elec       q    Type
                         _______ _______ _______ _____ _____    ______ ____

>  <TORSDO>
F 8

$$$$
=
 OpenBabel11072411513D

 32 35  0  0  1  0  0  0  0  0999 V2000
  159.7630  211.8560  152.9240 C   0  0  0  0  0  3  0  0  0  0  0  0
  160.3460  210.9260  153.7920 C   0  0  0  0  0  0  0  0  0  0  0  0
  157.8490  212.0560  154.3780 C   0  0  0  0  0  3  0  0  0  0  0  0
  158.5190  212.4270  153.2080 C   0  0  0  0  0  0  0  0  0  0  0  0
  159.6720  210.5550  154.9810 C   0  0  0  0  0  0  0  0  0  0  0  0
  158.4200  211.1300  155.2530 C   0  0  0  0  0  3  0  0  0  0  0  0
  161.8350  208.5090  157.2570 C   0  0  0  0  0  2  0  0  0  0  0  0
  160.6130  207.6130  157.1290 C   0  0  0  0  0  2  0  0  0  0  0  0
  161.4530  209.8400  156.6390 C   0  0  0  0  0  2  0  0  0  0  0  0
  160.2200  209.6030  155.9120 N   0  0  0  0  0  0  0  0  0  0  0  0
  159.7290  208.2480  156.0760 C   0  0  0  0  0  2  0  0  0  0  0  0
  158.3150  213.3920  150.8930 N   0  0  0  0  0  2  0  0  0  0  0  0
  157.9070  213.3810  152.2660 C   0  0  0  0  0  0  0  0  0  0  0  0
  157.0150  214.1780  152.6650 O   0  0  0  0  0  0  0  0  0  0  0  0
  157.7450  214.2990  149.9090 C   0  0  0  0  0  2  0  0  0  0  0  0
  157.3340  212.8510  147.9460 C   0  0  0  0  0  1  0  0  0  0  0  0
  156.6810  213.5840  149.0980 C   0  0  0  0  0  2  0  0  0  0  0  0
  161.6220  210.2740  153.3580 C   0  0  0  0  0  2  0  0  0  0  0  0
  160.4690  208.3060  152.7720 O   0  0  0  0  0  0  0  0  0  0  0  0
  161.3400  209.1070  152.4650 C   0  0  0  0  0  0  0  0  0  0  0  0
  161.9040  209.0770  148.2900 N   0  0  0  0  0  0  0  0  0  0  0  0
  161.4010  206.4750  148.1160 S   0  0  0  0  0  0  0  0  0  0  0  0
  162.0560  208.9870  151.1540 C   0  0  2  0  0  3  0  0  0  0  0  0
  161.9620  210.2720  150.3740 C   0  0  0  0  0  2  0  0  0  0  0  0
  161.6840  207.8390  148.9660 C   0  0  0  0  0  0  0  0  0  0  0  0
  161.5750  207.8380  150.3880 N   0  0  0  0  0  2  0  0  0  0  0  0
  161.9570  210.3010  149.0350 C   0  0  0  0  0  0  0  0  0  0  0  0
  161.9580  211.5880  148.3160 C   0  0  0  0  0  0  0  0  0  0  0  0
  162.5440  213.6760  147.2740 S   0  0  0  0  0  0  0  0  0  0  0  0
  160.9540  213.2470  147.1290 N   0  0  0  0  0  0  0  0  0  0  0  0
  160.8120  212.0840  147.7530 N   0  0  0  0  0  0  0  0  0  0  0  0
  163.1090  212.3720  148.1520 C   0  0  0  0  0  3  0  0  0  0  0  0
  1  4  2  0  0  0  0
  1  2  1  0  0  0  0
  2  5  2  0  0  0  0
  3  6  2  0  0  0  0
  4  3  1  0  0  0  0
  5  6  1  0  0  0  0
  5 10  1  0  0  0  0
  8  7  1  0  0  0  0
  9  7  1  0  0  0  0
 10 11  1  0  0  0  0
 10  9  1  0  0  0  0
 11  8  1  0  0  0  0
 12 13  1  0  0  0  0
 13 14  2  0  0  0  0
 13  4  1  0  0  0  0
 15 12  1  0  0  0  0
 16 17  1  0  0  0  0
 17 15  1  0  0  0  0
 18  2  1  0  0  0  0
 20 19  2  0  0  0  0
 20 18  1  0  0  0  0
 21 25  1  0  0  0  0
 21 27  2  0  0  0  0
 22 25  2  0  0  0  0
 23 20  1  1  0  0  0
 24 23  1  0  0  0  0
 25 26  1  0  0  0  0
 26 23  1  0  0  0  0
 27 24  1  0  0  0  0
 28 27  1  0  0  0  0
 29 32  1  0  0  0  0
 30 29  1  0  0  0  0
 30 31  2  0  0  0  0
 31 28  1  0  0  0  0
 32 28  2  0  0  0  0
M  END
>  <MODEL>
8

>  <REMARK>
 VINA RESULT:      -6.3      3.320      5.203
  Name = 
  8 active torsions:
  status: ('A' for Active; 'I' for Inactive)
    1  A    between atoms: N_3  and  C_23
    2  A    between atoms: C_4  and  C_9
    3  A    between atoms: C_4  and  C_13
    4  A    between atoms: C_5  and  C_30
    5  A    between atoms: C_11  and  C_13
    6  A    between atoms: C_18  and  C_20
    7  A    between atoms: C_19  and  N_25
    8  A    between atoms: C_23  and  C_29
                            x       y       z     vdW  Elec       q    Type
                         _______ _______ _______ _____ _____    ______ ____

>  <TORSDO>
F 8

$$$$
=
 OpenBabel11072411513D

 32 35  0  0  1  0  0  0  0  0999 V2000
  161.3670  207.6710  150.1950 C   0  0  0  0  0  3  0  0  0  0  0  0
  161.1840  206.2830  150.2060 C   0  0  0  0  0  0  0  0  0  0  0  0
  162.0580  207.5900  147.8850 C   0  0  0  0  0  3  0  0  0  0  0  0
  161.8010  208.3330  149.0420 C   0  0  0  0  0  0  0  0  0  0  0  0
  161.4380  205.5320  149.0320 C   0  0  0  0  0  0  0  0  0  0  0  0
  161.8790  206.2060  147.8820 C   0  0  0  0  0  3  0  0  0  0  0  0
  160.8310  201.9610  148.0660 C   0  0  0  0  0  2  0  0  0  0  0  0
  160.7530  201.8730  149.5820 C   0  0  0  0  0  2  0  0  0  0  0  0
  161.3620  203.3460  147.7470 C   0  0  0  0  0  2  0  0  0  0  0  0
  161.2690  204.1020  148.9820 N   0  0  0  0  0  0  0  0  0  0  0  0
  160.7990  203.2980  150.0930 C   0  0  0  0  0  2  0  0  0  0  0  0
  161.5810  210.5920  147.9560 N   0  0  0  0  0  2  0  0  0  0  0  0
  162.0170  209.7900  149.0600 C   0  0  0  0  0  0  0  0  0  0  0  0
  162.5730  210.3340  150.0530 O   0  0  0  0  0  0  0  0  0  0  0  0
  161.7520  212.0360  147.9150 C   0  0  0  0  0  2  0  0  0  0  0  0
  162.1770  213.4540  145.9330 C   0  0  0  0  0  1  0  0  0  0  0  0
  161.1510  212.5950  146.6390 C   0  0  0  0  0  2  0  0  0  0  0  0
  160.8320  205.6380  151.5100 C   0  0  0  0  0  2  0  0  0  0  0  0
  162.7880  206.2030  152.6950 O   0  0  0  0  0  0  0  0  0  0  0  0
  161.5700  206.2920  152.6360 C   0  0  0  0  0  0  0  0  0  0  0  0
  160.7040  209.5620  155.1460 N   0  0  0  0  0  2  0  0  0  0  0  0
  161.9560  208.4660  157.2150 S   0  0  0  0  0  0  0  0  0  0  0  0
  160.8200  207.1330  153.6230 C   0  0  2  0  0  3  0  0  0  0  0  0
  160.4550  208.4650  153.0220 C   0  0  0  0  0  3  0  0  0  0  0  0
  161.3430  208.4140  155.7040 C   0  0  0  0  0  0  0  0  0  0  0  0
  161.5630  207.2750  154.8740 N   0  0  0  0  0  2  0  0  0  0  0  0
  160.3430  209.5790  153.7580 C   0  0  0  0  0  0  0  0  0  0  0  0
  159.8930  210.8390  153.1410 C   0  0  0  0  0  0  0  0  0  0  0  0
  158.7290  212.8610  152.5490 S   0  0  0  0  0  0  0  0  0  0  0  0
  160.0810  212.5470  151.6520 N   0  0  0  0  0  0  0  0  0  0  0  0
  160.5900  211.4100  152.1100 N   0  0  0  0  0  0  0  0  0  0  0  0
  158.7500  211.5340  153.5640 C   0  0  0  0  0  3  0  0  0  0  0  0
  1  2  1  0  0  0  0
  2 18  1  0  0  0  0
  3  4  1  0  0  0  0
  4 13  1  0  0  0  0
  4  1  2  0  0  0  0
  5  2  2  0  0  0  0
  6  3  2  0  0  0  0
  6  5  1  0  0  0  0
  7  8  1  0  0  0  0
  8 11  1  0  0  0  0
  9  7  1  0  0  0  0
  9 10  1  0  0  0  0
 10  5  1  0  0  0  0
 10 11  1  0  0  0  0
 12 13  1  0  0  0  0
 13 14  2  0  0  0  0
 15 12  1  0  0  0  0
 16 17  1  0  0  0  0
 17 15  1  0  0  0  0
 18 20  1  0  0  0  0
 20 19  2  0  0  0  0
 21 25  1  0  0  0  0
 23 20  1  6  0  0  0
 23 26  1  0  0  0  0
 24 23  1  0  0  0  0
 24 27  2  0  0  0  0
 25 22  2  0  0  0  0
 26 25  1  0  0  0  0
 27 21  1  0  0  0  0
 28 32  2  0  0  0  0
 28 27  1  0  0  0  0
 29 32  1  0  0  0  0
 30 31  2  0  0  0  0
 30 29  1  0  0  0  0
 31 28  1  0  0  0  0
M  END
>  <MODEL>
9

>  <REMARK>
 VINA RESULT:      -6.3      3.188      6.509
  Name = 
  8 active torsions:
  status: ('A' for Active; 'I' for Inactive)
    1  A    between atoms: N_3  and  C_23
    2  A    between atoms: C_4  and  C_9
    3  A    between atoms: C_4  and  C_13
    4  A    between atoms: C_5  and  C_30
    5  A    between atoms: C_11  and  C_13
    6  A    between atoms: C_18  and  C_20
    7  A    between atoms: C_19  and  N_25
    8  A    between atoms: C_23  and  C_29
                            x       y       z     vdW  Elec       q    Type
                         _______ _______ _______ _____ _____    ______ ____

>  <TORSDO>
F 8

$$$$
