=
 OpenBabel11072413593D

 29 33  0  0  1  0  0  0  0  0999 V2000
  161.3700  207.3140  151.8690 C   0  0  1  0  0  3  0  0  0  0  0  0
  161.4230  208.4930  152.7540 N   0  0  0  0  0  0  0  0  0  0  0  0
  162.0610  209.2870  148.6750 C   0  0  0  0  0  3  0  0  0  0  0  0
  160.2500  206.5310  152.1810 O   0  0  0  0  0  0  0  0  0  0  0  0
  161.1300  207.2090  148.0290 C   0  0  0  0  0  3  0  0  0  0  0  0
  161.6710  208.4120  147.7140 N   0  0  0  0  0  0  0  0  0  0  0  0
  161.2500  202.9510  152.2960 C   0  0  0  0  0  1  0  0  0  0  0  0
  161.1760  204.5130  150.3010 C   0  0  1  0  0  3  0  0  0  0  0  0
  161.9320  208.9570  150.0230 C   0  0  0  0  0  0  0  0  0  0  0  0
  160.2730  205.5270  149.6130 C   0  0  0  0  0  2  0  0  0  0  0  0
  160.9690  206.8260  149.3630 C   0  0  0  0  0  0  0  0  0  0  0  0
  160.5900  204.1780  151.6850 C   0  0  2  0  0  3  0  0  0  0  0  0
  161.3740  207.7120  150.3940 C   0  0  0  0  0  0  0  0  0  0  0  0
  162.3030  209.9900  151.0410 C   0  0  0  0  0  2  0  0  0  0  0  0
  160.7850  205.3310  152.6650 C   0  0  0  0  0  2  0  0  0  0  0  0
  162.5530  209.3540  152.3970 C   0  0  0  0  0  2  0  0  0  0  0  0
  161.6200  203.4930  147.9680 C   0  0  0  0  0  1  0  0  0  0  0  0
  161.3100  203.3080  149.4130 C   0  0  0  0  0  0  0  0  0  0  0  0
  161.1700  202.1800  149.8620 O   0  0  0  0  0  0  0  0  0  0  0  0
  161.5240  208.1020  154.1150 N   0  0  0  0  0  2  0  0  0  0  0  0
  160.5760  208.2050  156.4050 C   0  0  0  0  0  2  0  0  0  0  0  0
  160.0430  210.0120  154.6410 C   0  0  0  0  0  2  0  0  0  0  0  0
  160.3580  208.5240  154.9080 C   0  0  1  0  0  3  0  0  0  0  0  0
  160.4820  210.6230  157.0240 C   0  0  2  0  0  3  0  0  0  0  0  0
  161.2670  209.3380  157.1940 C   0  0  2  0  0  3  0  0  0  0  0  0
  159.1130  210.4500  157.2600 O   0  0  0  0  0  1  0  0  0  0  0  0
  160.7800  210.9880  155.5840 C   0  0  1  0  0  3  0  0  0  0  0  0
  162.6010  209.6830  156.5410 C   0  0  0  0  0  2  0  0  0  0  0  0
  162.2850  210.7570  155.4940 C   0  0  0  0  0  2  0  0  0  0  0  0
  1 13  1  6  0  0  0
  1  4  1  0  0  0  0
  1  2  1  0  0  0  0
  2 20  1  0  0  0  0
  3  9  1  0  0  0  0
  4 15  1  0  0  0  0
  5 11  2  0  0  0  0
  6  5  1  0  0  0  0
  6  3  2  0  0  0  0
  8 18  1  6  0  0  0
  8 12  1  0  0  0  0
  9 13  2  0  0  0  0
  9 14  1  0  0  0  0
 10  8  1  0  0  0  0
 11 10  1  0  0  0  0
 11 13  1  0  0  0  0
 12  7  1  1  0  0  0
 12 15  1  0  0  0  0
 14 16  1  0  0  0  0
 16  2  1  0  0  0  0
 17 18  1  0  0  0  0
 18 19  2  0  0  0  0
 22 23  1  0  0  0  0
 23 20  1  6  0  0  0
 23 21  1  0  0  0  0
 24 25  1  0  0  0  0
 24 26  1  6  0  0  0
 25 21  1  6  0  0  0
 27 22  1  6  0  0  0
 27 24  1  0  0  0  0
 28 25  1  0  0  0  0
 29 27  1  0  0  0  0
 29 28  1  0  0  0  0
M  END
>  <MODEL>
1

>  <REMARK>
 VINA RESULT:      -7.2      0.000      0.000
  Name = 
  3 active torsions:
  status: ('A' for Active; 'I' for Inactive)
    1  A    between atoms: N_2  and  N_18
    2  A    between atoms: C_7  and  N_18
    3  A    between atoms: C_12  and  C_19
                            x       y       z     vdW  Elec       q    Type
                         _______ _______ _______ _____ _____    ______ ____

>  <TORSDO>
F 3

$$$$
=
 OpenBabel11072413593D

 29 33  0  0  1  0  0  0  0  0999 V2000
  161.6710  205.8240  150.9080 C   0  0  1  0  0  3  0  0  0  0  0  0
  161.9150  205.8630  152.3620 N   0  0  0  0  0  0  0  0  0  0  0  0
  160.4340  202.2130  150.8920 C   0  0  0  0  0  3  0  0  0  0  0  0
  162.7660  206.3700  150.2230 O   0  0  0  0  0  0  0  0  0  0  0  0
  161.0240  202.7630  148.6670 C   0  0  0  0  0  3  0  0  0  0  0  0
  160.5240  201.8900  149.5770 N   0  0  0  0  0  0  0  0  0  0  0  0
  161.5340  208.6710  147.5750 C   0  0  0  0  0  1  0  0  0  0  0  0
  161.2780  206.1530  147.7330 C   0  0  1  0  0  3  0  0  0  0  0  0
  160.8380  203.4700  151.3390 C   0  0  0  0  0  0  0  0  0  0  0  0
  162.0800  204.8880  148.0020 C   0  0  0  0  0  2  0  0  0  0  0  0
  161.4520  204.0340  149.0570 C   0  0  0  0  0  0  0  0  0  0  0  0
  162.1330  207.3780  148.1060 C   0  0  2  0  0  3  0  0  0  0  0  0
  161.3640  204.4080  150.4220 C   0  0  0  0  0  0  0  0  0  0  0  0
  160.7930  203.7430  152.8100 C   0  0  0  0  0  2  0  0  0  0  0  0
  162.2600  207.5280  149.6200 C   0  0  0  0  0  2  0  0  0  0  0  0
  160.8060  205.2360  153.0870 C   0  0  0  0  0  2  0  0  0  0  0  0
  161.8310  205.7830  145.2350 C   0  0  0  0  0  1  0  0  0  0  0  0
  160.8490  206.1540  146.2920 C   0  0  0  0  0  0  0  0  0  0  0  0
  159.7070  206.4520  145.9790 O   0  0  0  0  0  0  0  0  0  0  0  0
  162.0940  207.1970  152.8110 N   0  0  0  0  0  2  0  0  0  0  0  0
  161.0070  208.5000  154.6210 C   0  0  0  0  0  2  0  0  0  0  0  0
  160.3040  208.7730  152.1530 C   0  0  0  0  0  2  0  0  0  0  0  0
  160.8310  207.8170  153.2450 C   0  0  1  0  0  3  0  0  0  0  0  0
  160.5000  210.7510  153.6660 C   0  0  2  0  0  3  0  0  0  0  0  0
  161.4650  209.9720  154.5370 C   0  0  2  0  0  3  0  0  0  0  0  0
  159.1630  210.5390  154.0230 O   0  0  0  0  0  1  0  0  0  0  0  0
  160.8230  210.2210  152.2840 C   0  0  1  0  0  3  0  0  0  0  0  0
  162.7660  210.0640  153.7460 C   0  0  0  0  0  2  0  0  0  0  0  0
  162.3490  210.2270  152.2800 C   0  0  0  0  0  2  0  0  0  0  0  0
  1  4  1  6  0  0  0
  1  2  1  0  0  0  0
  2 20  1  0  0  0  0
  2 16  1  0  0  0  0
  3  9  1  0  0  0  0
  5 11  2  0  0  0  0
  5  6  1  0  0  0  0
  6  3  2  0  0  0  0
  8 18  1  6  0  0  0
  8 10  1  0  0  0  0
  8 12  1  0  0  0  0
  9 14  1  0  0  0  0
 10 11  1  0  0  0  0
 11 13  1  0  0  0  0
 12  7  1  1  0  0  0
 12 15  1  0  0  0  0
 13  1  1  0  0  0  0
 13  9  2  0  0  0  0
 14 16  1  0  0  0  0
 15  4  1  0  0  0  0
 17 18  1  0  0  0  0
 19 18  2  0  0  0  0
 22 23  1  0  0  0  0
 23 20  1  6  0  0  0
 23 21  1  0  0  0  0
 24 26  1  1  0  0  0
 24 25  1  0  0  0  0
 25 28  1  6  0  0  0
 25 21  1  0  0  0  0
 27 22  1  1  0  0  0
 27 24  1  0  0  0  0
 29 27  1  0  0  0  0
 29 28  1  0  0  0  0
M  END
>  <MODEL>
2

>  <REMARK>
 VINA RESULT:      -7.2      2.358      4.228
  Name = 
  3 active torsions:
  status: ('A' for Active; 'I' for Inactive)
    1  A    between atoms: N_2  and  N_18
    2  A    between atoms: C_7  and  N_18
    3  A    between atoms: C_12  and  C_19
                            x       y       z     vdW  Elec       q    Type
                         _______ _______ _______ _____ _____    ______ ____

>  <TORSDO>
F 3

$$$$
=
 OpenBabel11072413593D

 29 33  0  0  1  0  0  0  0  0999 V2000
  161.5190  209.1760  151.3070 C   0  0  1  0  0  3  0  0  0  0  0  0
  161.5810  209.5420  149.8790 N   0  0  0  0  0  0  0  0  0  0  0  0
  161.9540  205.4340  150.6940 C   0  0  0  0  0  3  0  0  0  0  0  0
  160.4480  209.8370  151.9250 O   0  0  0  0  0  0  0  0  0  0  0  0
  161.0630  205.6900  152.8720 C   0  0  0  0  0  3  0  0  0  0  0  0
  161.5410  204.9050  151.8740 N   0  0  0  0  0  0  0  0  0  0  0  0
  161.5820  211.2370  155.1790 C   0  0  0  0  0  1  0  0  0  0  0  0
  161.3370  208.8070  154.4960 C   0  0  1  0  0  3  0  0  0  0  0  0
  161.9150  206.8120  150.4860 C   0  0  0  0  0  0  0  0  0  0  0  0
  160.3600  207.8470  153.8320 C   0  0  0  0  0  2  0  0  0  0  0  0
  160.9930  207.0760  152.7190 C   0  0  0  0  0  0  0  0  0  0  0  0
  160.8450  210.2500  154.2860 C   0  0  2  0  0  3  0  0  0  0  0  0
  161.4240  207.6640  151.5020 C   0  0  0  0  0  0  0  0  0  0  0  0
  162.3060  207.3340  149.1390 C   0  0  0  0  0  2  0  0  0  0  0  0
  161.0530  210.7030  152.8440 C   0  0  0  0  0  2  0  0  0  0  0  0
  162.6570  208.8100  149.2070 C   0  0  0  0  0  2  0  0  0  0  0  0
  160.4320  207.5610  156.5740 C   0  0  0  0  0  1  0  0  0  0  0  0
  161.4630  208.4360  155.9480 C   0  0  0  0  0  0  0  0  0  0  0  0
  162.4000  208.8420  156.6190 O   0  0  0  0  0  0  0  0  0  0  0  0
  161.7740  210.9390  149.7210 N   0  0  0  0  0  2  0  0  0  0  0  0
  160.8310  211.4530  147.4850 C   0  0  0  0  0  2  0  0  0  0  0  0
  163.0050  212.5660  148.3200 C   0  0  0  0  0  2  0  0  0  0  0  0
  162.1130  211.3040  148.3360 C   0  0  1  0  0  3  0  0  0  0  0  0
  161.2860  213.8730  147.0640 C   0  0  2  0  0  3  0  0  0  0  0  0
  160.2310  212.8760  147.4980 C   0  0  2  0  0  3  0  0  0  0  0  0
  161.9370  213.4870  145.8860 O   0  0  0  0  0  1  0  0  0  0  0  0
  162.2150  213.8910  148.2610 C   0  0  1  0  0  3  0  0  0  0  0  0
  159.9490  213.3040  148.9350 C   0  0  0  0  0  2  0  0  0  0  0  0
  161.2390  213.9650  149.4310 C   0  0  0  0  0  2  0  0  0  0  0  0
  1 13  1  6  0  0  0
  1  4  1  0  0  0  0
  2  1  1  0  0  0  0
  3  6  1  0  0  0  0
  4 15  1  0  0  0  0
  6  5  2  0  0  0  0
  8 18  1  1  0  0  0
  9  3  2  0  0  0  0
  9 13  1  0  0  0  0
 10  8  1  0  0  0  0
 11  5  1  0  0  0  0
 11 10  1  0  0  0  0
 12  8  1  0  0  0  0
 12  7  1  1  0  0  0
 13 11  2  0  0  0  0
 14 16  1  0  0  0  0
 14  9  1  0  0  0  0
 15 12  1  0  0  0  0
 16  2  1  0  0  0  0
 18 17  1  0  0  0  0
 18 19  2  0  0  0  0
 20  2  1  0  0  0  0
 21 23  1  0  0  0  0
 22 23  1  0  0  0  0
 23 20  1  1  0  0  0
 24 26  1  6  0  0  0
 24 25  1  0  0  0  0
 24 27  1  0  0  0  0
 25 21  1  1  0  0  0
 25 28  1  0  0  0  0
 27 22  1  1  0  0  0
 27 29  1  0  0  0  0
 28 29  1  0  0  0  0
M  END
>  <MODEL>
3

>  <REMARK>
 VINA RESULT:      -7.0      3.170      6.899
  Name = 
  3 active torsions:
  status: ('A' for Active; 'I' for Inactive)
    1  A    between atoms: N_2  and  N_18
    2  A    between atoms: C_7  and  N_18
    3  A    between atoms: C_12  and  C_19
                            x       y       z     vdW  Elec       q    Type
                         _______ _______ _______ _____ _____    ______ ____

>  <TORSDO>
F 3

$$$$
=
 OpenBabel11072413593D

 29 33  0  0  1  0  0  0  0  0999 V2000
  161.4060  207.4520  151.6760 C   0  0  1  0  0  3  0  0  0  0  0  0
  161.5010  208.7460  152.3770 N   0  0  0  0  0  0  0  0  0  0  0  0
  161.9830  208.9300  148.2040 C   0  0  0  0  0  3  0  0  0  0  0  0
  160.2950  206.7350  152.1410 O   0  0  0  0  0  0  0  0  0  0  0  0
  161.0150  206.7910  147.9050 C   0  0  0  0  0  3  0  0  0  0  0  0
  161.5510  207.9290  147.3970 N   0  0  0  0  0  0  0  0  0  0  0  0
  161.2780  203.1990  152.7410 C   0  0  0  0  0  1  0  0  0  0  0  0
  161.1350  204.4550  150.5430 C   0  0  1  0  0  3  0  0  0  0  0  0
  161.9060  208.8020  149.5900 C   0  0  0  0  0  0  0  0  0  0  0  0
  160.2110  205.3680  149.7480 C   0  0  0  0  0  2  0  0  0  0  0  0
  160.9050  206.6090  149.2850 C   0  0  0  0  0  0  0  0  0  0  0  0
  160.6020  204.3310  151.9820 C   0  0  2  0  0  3  0  0  0  0  0  0
  161.3550  207.6310  150.1600 C   0  0  0  0  0  0  0  0  0  0  0  0
  162.3220  209.9680  150.4310 C   0  0  0  0  0  2  0  0  0  0  0  0
  160.8420  205.6130  152.7750 C   0  0  0  0  0  2  0  0  0  0  0  0
  162.6210  209.5330  151.8550 C   0  0  0  0  0  2  0  0  0  0  0  0
  161.2780  203.0970  148.3480 C   0  0  0  0  0  1  0  0  0  0  0  0
  161.2270  203.1310  149.8360 C   0  0  0  0  0  0  0  0  0  0  0  0
  161.2620  202.0860  150.4660 O   0  0  0  0  0  0  0  0  0  0  0  0
  161.6530  208.5570  153.7750 N   0  0  0  0  0  2  0  0  0  0  0  0
  159.9090  210.0230  154.7560 C   0  0  0  0  0  2  0  0  0  0  0  0
  162.2310  209.7690  155.8530 C   0  0  0  0  0  2  0  0  0  0  0  0
  161.4230  209.7950  154.5370 C   0  0  1  0  0  3  0  0  0  0  0  0
  160.1520  209.8510  157.2350 C   0  0  2  0  0  3  0  0  0  0  0  0
  159.3540  209.3700  156.0400 C   0  0  2  0  0  3  0  0  0  0  0  0
  160.2920  211.2440  157.2610 O   0  0  0  0  0  1  0  0  0  0  0  0
  161.4740  209.1380  157.0420 C   0  0  1  0  0  3  0  0  0  0  0  0
  159.6530  207.8740  156.0300 C   0  0  0  0  0  2  0  0  0  0  0  0
  161.0320  207.7230  156.6820 C   0  0  0  0  0  2  0  0  0  0  0  0
  1 13  1  6  0  0  0
  1  4  1  0  0  0  0
  1  2  1  0  0  0  0
  2 20  1  0  0  0  0
  3  9  1  0  0  0  0
  4 15  1  0  0  0  0
  5 11  2  0  0  0  0
  6  5  1  0  0  0  0
  6  3  2  0  0  0  0
  8 18  1  6  0  0  0
  8 12  1  0  0  0  0
  9 13  2  0  0  0  0
  9 14  1  0  0  0  0
 10  8  1  0  0  0  0
 11 10  1  0  0  0  0
 11 13  1  0  0  0  0
 12  7  1  1  0  0  0
 12 15  1  0  0  0  0
 14 16  1  0  0  0  0
 16  2  1  0  0  0  0
 17 18  1  0  0  0  0
 18 19  2  0  0  0  0
 23 20  1  1  0  0  0
 23 21  1  0  0  0  0
 23 22  1  0  0  0  0
 24 26  1  6  0  0  0
 25 21  1  6  0  0  0
 25 24  1  0  0  0  0
 27 22  1  6  0  0  0
 27 24  1  0  0  0  0
 28 25  1  0  0  0  0
 28 29  1  0  0  0  0
 29 27  1  0  0  0  0
M  END
>  <MODEL>
4

>  <REMARK>
 VINA RESULT:      -6.8      0.698      1.415
  Name = 
  3 active torsions:
  status: ('A' for Active; 'I' for Inactive)
    1  A    between atoms: N_2  and  N_18
    2  A    between atoms: C_7  and  N_18
    3  A    between atoms: C_12  and  C_19
                            x       y       z     vdW  Elec       q    Type
                         _______ _______ _______ _____ _____    ______ ____

>  <TORSDO>
F 3

$$$$
=
 OpenBabel11072413593D

 29 33  0  0  1  0  0  0  0  0999 V2000
  161.1140  209.5340  152.6790 C   0  0  1  0  0  3  0  0  0  0  0  0
  160.8510  210.3310  153.8920 N   0  0  0  0  0  0  0  0  0  0  0  0
  160.7840  206.1630  154.4390 C   0  0  0  0  0  3  0  0  0  0  0  0
  162.2240  210.0530  151.9960 O   0  0  0  0  0  0  0  0  0  0  0  0
  161.9370  205.7840  152.4070 C   0  0  0  0  0  3  0  0  0  0  0  0
  161.3710  205.3230  153.5500 N   0  0  0  0  0  0  0  0  0  0  0  0
  161.4560  210.2310  148.3620 C   0  0  0  0  0  1  0  0  0  0  0  0
  161.7270  208.1800  149.8280 C   0  0  1  0  0  3  0  0  0  0  0  0
  160.7290  207.5330  154.1850 C   0  0  0  0  0  0  0  0  0  0  0  0
  162.6540  207.5730  150.8710 C   0  0  0  0  0  2  0  0  0  0  0  0
  161.9200  207.1470  152.1020 C   0  0  0  0  0  0  0  0  0  0  0  0
  162.1170  209.6520  149.6040 C   0  0  2  0  0  3  0  0  0  0  0  0
  161.3060  208.0540  153.0040 C   0  0  0  0  0  0  0  0  0  0  0  0
  160.1420  208.4220  155.2360 C   0  0  0  0  0  2  0  0  0  0  0  0
  161.7020  210.5230  150.7850 C   0  0  0  0  0  2  0  0  0  0  0  0
  159.7330  209.7620  154.6490 C   0  0  0  0  0  2  0  0  0  0  0  0
  160.6390  206.5260  148.1650 C   0  0  0  0  0  1  0  0  0  0  0  0
  161.8080  207.3540  148.5740 C   0  0  0  0  0  0  0  0  0  0  0  0
  162.8180  207.3550  147.8870 O   0  0  0  0  0  0  0  0  0  0  0  0
  160.5720  211.6830  153.5610 N   0  0  0  0  0  2  0  0  0  0  0  0
  159.0590  213.5560  154.1590 C   0  0  0  0  0  2  0  0  0  0  0  0
  158.2700  211.6130  152.6540 C   0  0  0  0  0  2  0  0  0  0  0  0
  159.1720  212.0490  153.8300 C   0  0  1  0  0  3  0  0  0  0  0  0
  157.6250  213.9740  152.1580 C   0  0  2  0  0  3  0  0  0  0  0  0
  158.8420  214.4530  152.9220 C   0  0  2  0  0  3  0  0  0  0  0  0
  156.5120  213.7840  152.9870 O   0  0  0  0  0  1  0  0  0  0  0  0
  158.1230  212.6800  151.5490 C   0  0  1  0  0  3  0  0  0  0  0  0
  159.9670  214.2280  151.9170 C   0  0  0  0  0  2  0  0  0  0  0  0
  159.4990  213.0750  151.0230 C   0  0  0  0  0  2  0  0  0  0  0  0
  1  4  1  1  0  0  0
  1 13  1  0  0  0  0
  1  2  1  0  0  0  0
  2 16  1  0  0  0  0
  5  6  1  0  0  0  0
  6  3  2  0  0  0  0
  8 18  1  6  0  0  0
  8 10  1  0  0  0  0
  9  3  1  0  0  0  0
  9 14  1  0  0  0  0
 10 11  1  0  0  0  0
 11  5  2  0  0  0  0
 11 13  1  0  0  0  0
 12  7  1  6  0  0  0
 12  8  1  0  0  0  0
 12 15  1  0  0  0  0
 13  9  2  0  0  0  0
 15  4  1  0  0  0  0
 16 14  1  0  0  0  0
 17 18  1  0  0  0  0
 19 18  2  0  0  0  0
 20  2  1  0  0  0  0
 22 23  1  0  0  0  0
 23 20  1  6  0  0  0
 23 21  1  0  0  0  0
 24 25  1  0  0  0  0
 24 26  1  1  0  0  0
 25 28  1  6  0  0  0
 25 21  1  0  0  0  0
 27 29  1  1  0  0  0
 27 24  1  0  0  0  0
 27 22  1  0  0  0  0
 29 28  1  0  0  0  0
M  END
>  <MODEL>
5

>  <REMARK>
 VINA RESULT:      -6.8      2.998      5.074
  Name = 
  3 active torsions:
  status: ('A' for Active; 'I' for Inactive)
    1  A    between atoms: N_2  and  N_18
    2  A    between atoms: C_7  and  N_18
    3  A    between atoms: C_12  and  C_19
                            x       y       z     vdW  Elec       q    Type
                         _______ _______ _______ _____ _____    ______ ____

>  <TORSDO>
F 3

$$$$
=
 OpenBabel11072413593D

 29 33  0  0  1  0  0  0  0  0999 V2000
  161.1830  205.2700  149.4350 C   0  0  1  0  0  3  0  0  0  0  0  0
  161.3660  205.8950  150.7580 N   0  0  0  0  0  0  0  0  0  0  0  0
  160.8310  201.7260  150.8080 C   0  0  0  0  0  3  0  0  0  0  0  0
  162.1380  205.7620  148.5350 O   0  0  0  0  0  0  0  0  0  0  0  0
  161.3430  201.5390  148.5040 C   0  0  0  0  0  3  0  0  0  0  0  0
  161.0350  200.9720  149.6980 N   0  0  0  0  0  0  0  0  0  0  0  0
  160.4800  206.5780  145.3080 C   0  0  0  0  0  1  0  0  0  0  0  0
  160.8200  204.3090  146.3870 C   0  0  1  0  0  3  0  0  0  0  0  0
  160.9150  203.1150  150.7420 C   0  0  0  0  0  0  0  0  0  0  0  0
  161.8880  203.4520  147.0510 C   0  0  0  0  0  2  0  0  0  0  0  0
  161.4470  202.9260  148.3790 C   0  0  0  0  0  0  0  0  0  0  0  0
  161.3510  205.7470  146.2370 C   0  0  2  0  0  3  0  0  0  0  0  0
  161.2330  203.7450  149.5170 C   0  0  0  0  0  0  0  0  0  0  0  0
  160.7610  203.8930  152.0120 C   0  0  0  0  0  2  0  0  0  0  0  0
  161.3920  206.4670  147.5820 C   0  0  0  0  0  2  0  0  0  0  0  0
  160.4150  205.3430  151.7250 C   0  0  0  0  0  2  0  0  0  0  0  0
  160.0810  202.2380  145.0270 C   0  0  0  0  0  1  0  0  0  0  0  0
  160.4470  203.6810  145.0730 C   0  0  0  0  0  0  0  0  0  0  0  0
  160.4390  204.3400  144.0440 O   0  0  0  0  0  0  0  0  0  0  0  0
  161.2120  207.3040  150.6790 N   0  0  0  0  0  2  0  0  0  0  0  0
  162.2780  209.5280  150.9460 C   0  0  0  0  0  2  0  0  0  0  0  0
  162.3380  207.7690  152.8330 C   0  0  0  0  0  2  0  0  0  0  0  0
  162.3290  208.0260  151.3100 C   0  0  1  0  0  3  0  0  0  0  0  0
  161.9560  210.1860  153.3330 C   0  0  2  0  0  3  0  0  0  0  0  0
  161.4410  210.3830  151.9210 C   0  0  2  0  0  3  0  0  0  0  0  0
  163.3460  210.3280  153.4220 O   0  0  0  0  0  1  0  0  0  0  0  0
  161.4960  208.7770  153.6440 C   0  0  1  0  0  3  0  0  0  0  0  0
  160.0240  209.8260  152.0110 C   0  0  0  0  0  2  0  0  0  0  0  0
  160.0590  208.7820  153.1320 C   0  0  0  0  0  2  0  0  0  0  0  0
  1  4  1  6  0  0  0
  1 13  1  0  0  0  0
  1  2  1  0  0  0  0
  2 16  1  0  0  0  0
  5  6  1  0  0  0  0
  6  3  2  0  0  0  0
  8 18  1  6  0  0  0
  8 10  1  0  0  0  0
  9  3  1  0  0  0  0
  9 14  1  0  0  0  0
 10 11  1  0  0  0  0
 11  5  2  0  0  0  0
 11 13  1  0  0  0  0
 12  7  1  6  0  0  0
 12  8  1  0  0  0  0
 12 15  1  0  0  0  0
 13  9  2  0  0  0  0
 15  4  1  0  0  0  0
 16 14  1  0  0  0  0
 17 18  1  0  0  0  0
 19 18  2  0  0  0  0
 20  2  1  0  0  0  0
 21 23  1  0  0  0  0
 23 20  1  1  0  0  0
 23 22  1  0  0  0  0
 24 26  1  6  0  0  0
 24 27  1  0  0  0  0
 25 21  1  6  0  0  0
 25 28  1  0  0  0  0
 25 24  1  0  0  0  0
 27 22  1  6  0  0  0
 28 29  1  0  0  0  0
 29 27  1  0  0  0  0
M  END
>  <MODEL>
6

>  <REMARK>
 VINA RESULT:      -6.4      2.820      5.096
  Name = 
  3 active torsions:
  status: ('A' for Active; 'I' for Inactive)
    1  A    between atoms: N_2  and  N_18
    2  A    between atoms: C_7  and  N_18
    3  A    between atoms: C_12  and  C_19
                            x       y       z     vdW  Elec       q    Type
                         _______ _______ _______ _____ _____    ______ ____

>  <TORSDO>
F 3

$$$$
=
 OpenBabel11072413593D

 29 33  0  0  1  0  0  0  0  0999 V2000
  161.7830  207.2800  150.8290 C   0  0  1  0  0  3  0  0  0  0  0  0
  162.1830  206.2800  149.8200 N   0  0  0  0  0  0  0  0  0  0  0  0
  161.9400  210.2380  148.4210 C   0  0  0  0  0  3  0  0  0  0  0  0
  162.5090  207.0830  152.0120 O   0  0  0  0  0  0  0  0  0  0  0  0
  161.9990  211.1170  150.6180 C   0  0  0  0  0  3  0  0  0  0  0  0
  161.9700  211.2930  149.2740 N   0  0  0  0  0  0  0  0  0  0  0  0
  160.1990  207.2920  154.9190 C   0  0  0  0  0  1  0  0  0  0  0  0
  160.8910  209.1240  153.3080 C   0  0  1  0  0  3  0  0  0  0  0  0
  161.9180  208.9340  148.9140 C   0  0  0  0  0  0  0  0  0  0  0  0
  162.1230  209.7360  152.6560 C   0  0  0  0  0  2  0  0  0  0  0  0
  161.9870  209.8340  151.1700 C   0  0  0  0  0  0  0  0  0  0  0  0
  161.2870  207.7990  153.9850 C   0  0  2  0  0  3  0  0  0  0  0  0
  161.9480  208.7070  150.3090 C   0  0  0  0  0  0  0  0  0  0  0  0
  161.9680  207.8070  147.9300 C   0  0  0  0  0  2  0  0  0  0  0  0
  161.5460  206.7040  152.9550 C   0  0  0  0  0  2  0  0  0  0  0  0
  161.4780  206.5140  148.5570 C   0  0  0  0  0  2  0  0  0  0  0  0
  161.1530  210.6570  155.3730 C   0  0  0  0  0  1  0  0  0  0  0  0
  160.3080  210.1230  154.2680 C   0  0  0  0  0  0  0  0  0  0  0  0
  159.1530  210.5020  154.1520 O   0  0  0  0  0  0  0  0  0  0  0  0
  161.9250  204.9630  150.2810 N   0  0  0  0  0  2  0  0  0  0  0  0
  161.4880  203.1150  148.6850 C   0  0  0  0  0  2  0  0  0  0  0  0
  159.7160  203.8570  150.4080 C   0  0  0  0  0  2  0  0  0  0  0  0
  160.8830  204.2870  149.4920 C   0  0  1  0  0  3  0  0  0  0  0  0
  160.0960  201.4390  149.9060 C   0  0  2  0  0  3  0  0  0  0  0  0
  161.5000  201.7710  149.4430 C   0  0  2  0  0  3  0  0  0  0  0  0
  159.1500  201.5630  148.8810 O   0  0  0  0  0  1  0  0  0  0  0  0
  159.8820  202.4480  151.0160 C   0  0  1  0  0  3  0  0  0  0  0  0
  162.2490  201.9280  150.7630 C   0  0  0  0  0  2  0  0  0  0  0  0
  161.1970  202.3680  151.7860 C   0  0  0  0  0  2  0  0  0  0  0  0
  1 13  1  6  0  0  0
  1  4  1  0  0  0  0
  2 20  1  0  0  0  0
  2  1  1  0  0  0  0
  3  9  2  0  0  0  0
  3  6  1  0  0  0  0
  4 15  1  0  0  0  0
  5 11  1  0  0  0  0
  6  5  2  0  0  0  0
  8 12  1  0  0  0  0
  8 18  1  1  0  0  0
  9 13  1  0  0  0  0
 10  8  1  0  0  0  0
 11 10  1  0  0  0  0
 12  7  1  1  0  0  0
 13 11  2  0  0  0  0
 14 16  1  0  0  0  0
 14  9  1  0  0  0  0
 15 12  1  0  0  0  0
 16  2  1  0  0  0  0
 18 17  1  0  0  0  0
 19 18  2  0  0  0  0
 21 23  1  0  0  0  0
 23 20  1  1  0  0  0
 23 22  1  0  0  0  0
 24 26  1  6  0  0  0
 24 27  1  0  0  0  0
 25 21  1  1  0  0  0
 25 24  1  0  0  0  0
 25 28  1  0  0  0  0
 27 22  1  6  0  0  0
 27 29  1  0  0  0  0
 28 29  1  0  0  0  0
M  END
>  <MODEL>
7

>  <REMARK>
 VINA RESULT:      -6.3      1.852      6.893
  Name = 
  3 active torsions:
  status: ('A' for Active; 'I' for Inactive)
    1  A    between atoms: N_2  and  N_18
    2  A    between atoms: C_7  and  N_18
    3  A    between atoms: C_12  and  C_19
                            x       y       z     vdW  Elec       q    Type
                         _______ _______ _______ _____ _____    ______ ____

>  <TORSDO>
F 3

$$$$
=
 OpenBabel11072413593D

 29 33  0  0  1  0  0  0  0  0999 V2000
  161.5290  207.9170  149.9590 C   0  0  1  0  0  3  0  0  0  0  0  0
  161.7230  209.3420  150.2850 N   0  0  0  0  0  0  0  0  0  0  0  0
  161.0650  206.8240  153.5860 C   0  0  0  0  0  3  0  0  0  0  0  0
  162.5050  207.4970  149.0430 O   0  0  0  0  0  0  0  0  0  0  0  0
  161.5850  204.8860  152.3310 C   0  0  0  0  0  3  0  0  0  0  0  0
  161.2530  205.4830  153.5030 N   0  0  0  0  0  0  0  0  0  0  0  0
  160.8920  205.4780  146.3700 C   0  0  0  0  0  1  0  0  0  0  0  0
  161.1570  204.9290  148.8310 C   0  0  1  0  0  3  0  0  0  0  0  0
  161.1900  207.6260  152.4530 C   0  0  0  0  0  0  0  0  0  0  0  0
  162.1960  204.9100  149.9440 C   0  0  0  0  0  2  0  0  0  0  0  0
  161.7310  205.6390  151.1630 C   0  0  0  0  0  0  0  0  0  0  0  0
  161.7310  205.6870  147.6210 C   0  0  2  0  0  3  0  0  0  0  0  0
  161.5340  207.0430  151.2120 C   0  0  0  0  0  0  0  0  0  0  0  0
  161.0510  209.1070  152.6180 C   0  0  0  0  0  2  0  0  0  0  0  0
  161.7860  207.1900  147.8820 C   0  0  0  0  0  2  0  0  0  0  0  0
  160.7500  209.7780  151.2890 C   0  0  0  0  0  2  0  0  0  0  0  0
  161.2290  202.9030  147.2260 C   0  0  0  0  0  1  0  0  0  0  0  0
  160.7740  203.5110  148.5070 C   0  0  0  0  0  0  0  0  0  0  0  0
  160.0970  202.8530  149.2820 O   0  0  0  0  0  0  0  0  0  0  0  0
  161.6120  210.1480  149.1220 N   0  0  0  0  0  2  0  0  0  0  0  0
  163.0940  211.6680  147.8380 C   0  0  0  0  0  2  0  0  0  0  0  0
  161.5930  212.5430  149.7470 C   0  0  0  0  0  2  0  0  0  0  0  0
  162.4340  211.3670  149.2040 C   0  0  1  0  0  3  0  0  0  0  0  0
  161.8730  213.8370  147.6290 C   0  0  2  0  0  3  0  0  0  0  0  0
  162.2360  212.5540  146.9090 C   0  0  2  0  0  3  0  0  0  0  0  0
  162.9830  214.4530  148.2200 O   0  0  0  0  0  1  0  0  0  0  0  0
  160.8660  213.3520  148.6520 C   0  0  1  0  0  3  0  0  0  0  0  0
  160.8720  211.9060  146.6910 C   0  0  0  0  0  2  0  0  0  0  0  0
  159.9810  212.4260  147.8240 C   0  0  0  0  0  2  0  0  0  0  0  0
  1  4  1  6  0  0  0
  1  2  1  0  0  0  0
  1 13  1  0  0  0  0
  2 16  1  0  0  0  0
  5  6  2  0  0  0  0
  6  3  1  0  0  0  0
  8 18  1  6  0  0  0
  8 10  1  0  0  0  0
  9 14  1  0  0  0  0
  9  3  2  0  0  0  0
 10 11  1  0  0  0  0
 11 13  2  0  0  0  0
 11  5  1  0  0  0  0
 12  7  1  6  0  0  0
 12 15  1  0  0  0  0
 12  8  1  0  0  0  0
 13  9  1  0  0  0  0
 15  4  1  0  0  0  0
 16 14  1  0  0  0  0
 17 18  1  0  0  0  0
 18 19  2  0  0  0  0
 20  2  1  0  0  0  0
 21 23  1  0  0  0  0
 23 20  1  6  0  0  0
 23 22  1  0  0  0  0
 24 26  1  1  0  0  0
 24 27  1  0  0  0  0
 25 28  1  1  0  0  0
 25 24  1  0  0  0  0
 25 21  1  0  0  0  0
 27 29  1  6  0  0  0
 27 22  1  0  0  0  0
 28 29  1  0  0  0  0
M  END
>  <MODEL>
8

>  <REMARK>
 VINA RESULT:      -6.3      2.967      5.880
  Name = 
  3 active torsions:
  status: ('A' for Active; 'I' for Inactive)
    1  A    between atoms: N_2  and  N_18
    2  A    between atoms: C_7  and  N_18
    3  A    between atoms: C_12  and  C_19
                            x       y       z     vdW  Elec       q    Type
                         _______ _______ _______ _____ _____    ______ ____

>  <TORSDO>
F 3

$$$$
=
 OpenBabel11072413593D

 29 33  0  0  1  0  0  0  0  0999 V2000
  160.9120  209.0260  153.5480 C   0  0  1  0  0  3  0  0  0  0  0  0
  160.5590  209.2780  154.9580 N   0  0  0  0  0  0  0  0  0  0  0  0
  160.8630  205.2240  153.8860 C   0  0  0  0  0  3  0  0  0  0  0  0
  161.9800  209.8500  153.1660 O   0  0  0  0  0  0  0  0  0  0  0  0
  162.0760  205.7380  151.9190 C   0  0  0  0  0  3  0  0  0  0  0  0
  161.5380  204.8340  152.7750 N   0  0  0  0  0  0  0  0  0  0  0  0
  161.2530  211.3370  149.8350 C   0  0  0  0  0  1  0  0  0  0  0  0
  161.6880  208.9100  150.4290 C   0  0  1  0  0  3  0  0  0  0  0  0
  160.6880  206.5780  154.1660 C   0  0  0  0  0  0  0  0  0  0  0  0
  162.6510  208.0270  151.2090 C   0  0  0  0  0  2  0  0  0  0  0  0
  161.9400  207.1090  152.1510 C   0  0  0  0  0  0  0  0  0  0  0  0
  161.9460  210.3820  150.7960 C   0  0  2  0  0  3  0  0  0  0  0  0
  161.2330  207.5530  153.2980 C   0  0  0  0  0  0  0  0  0  0  0  0
  160.0070  206.9520  155.4450 C   0  0  0  0  0  2  0  0  0  0  0  0
  161.4350  210.7030  152.1980 C   0  0  0  0  0  2  0  0  0  0  0  0
  159.4870  208.3780  155.3890 C   0  0  0  0  0  2  0  0  0  0  0  0
  161.2080  207.4380  148.3590 C   0  0  0  0  0  1  0  0  0  0  0  0
  161.8620  208.6320  148.9620 C   0  0  0  0  0  0  0  0  0  0  0  0
  162.5310  209.3740  148.2590 O   0  0  0  0  0  0  0  0  0  0  0  0
  160.1630  210.6270  155.1480 N   0  0  0  0  0  2  0  0  0  0  0  0
  158.5870  211.4560  156.8750 C   0  0  0  0  0  2  0  0  0  0  0  0
  157.9610  211.4450  154.3710 C   0  0  0  0  0  2  0  0  0  0  0  0
  158.7410  210.7490  155.5080 C   0  0  1  0  0  3  0  0  0  0  0  0
  157.3490  213.3660  155.8450 C   0  0  2  0  0  3  0  0  0  0  0  0
  158.4840  212.9930  156.7780 C   0  0  2  0  0  3  0  0  0  0  0  0
  156.1640  212.6850  156.1440 O   0  0  0  0  0  1  0  0  0  0  0  0
  157.9130  212.9830  154.4930 C   0  0  1  0  0  3  0  0  0  0  0  0
  159.7020  213.5470  156.0470 C   0  0  0  0  0  2  0  0  0  0  0  0
  159.3310  213.5410  154.5600 C   0  0  0  0  0  2  0  0  0  0  0  0
  1  4  1  1  0  0  0
  1  2  1  0  0  0  0
  2 20  1  0  0  0  0
  2 16  1  0  0  0  0
  3  9  1  0  0  0  0
  5 11  2  0  0  0  0
  5  6  1  0  0  0  0
  6  3  2  0  0  0  0
  8 18  1  6  0  0  0
  8 12  1  0  0  0  0
  8 10  1  0  0  0  0
  9 14  1  0  0  0  0
 10 11  1  0  0  0  0
 11 13  1  0  0  0  0
 12  7  1  6  0  0  0
 12 15  1  0  0  0  0
 13  1  1  0  0  0  0
 13  9  2  0  0  0  0
 15  4  1  0  0  0  0
 16 14  1  0  0  0  0
 17 18  1  0  0  0  0
 19 18  2  0  0  0  0
 22 23  1  0  0  0  0
 23 20  1  6  0  0  0
 23 21  1  0  0  0  0
 24 26  1  1  0  0  0
 24 25  1  0  0  0  0
 25 28  1  6  0  0  0
 25 21  1  0  0  0  0
 27 22  1  1  0  0  0
 27 29  1  0  0  0  0
 27 24  1  0  0  0  0
 29 28  1  0  0  0  0
M  END
>  <MODEL>
9

>  <REMARK>
 VINA RESULT:      -6.1      2.867      4.747
  Name = 
  3 active torsions:
  status: ('A' for Active; 'I' for Inactive)
    1  A    between atoms: N_2  and  N_18
    2  A    between atoms: C_7  and  N_18
    3  A    between atoms: C_12  and  C_19
                            x       y       z     vdW  Elec       q    Type
                         _______ _______ _______ _____ _____    ______ ____

>  <TORSDO>
F 3

$$$$
