=
 OpenBabel11072411343D

 25 27  0  0  1  0  0  0  0  0999 V2000
  160.8570  202.9920  150.0130 C   0  0  0  0  0  2  0  0  0  0  0  0
  161.3150  202.5930  151.7250 S   0  0  0  0  0  0  0  0  0  0  0  0
  160.8850  204.2510  152.3460 C   0  0  0  0  0  2  0  0  0  0  0  0
  161.9340  205.2710  151.9350 C   0  0  0  0  0  2  0  0  0  0  0  0
  161.4120  207.7180  148.6990 C   0  0  0  0  0  2  0  0  0  0  0  0
  162.2180  207.6210  151.3170 C   0  0  2  0  0  3  0  0  0  0  0  0
  162.2250  209.0640  150.8400 C   0  0  1  0  0  3  0  0  0  0  0  0
  160.8940  207.1920  150.7860 N   0  0  1  0  0  0  0  0  0  0  0  0
  161.2990  206.6260  149.6190 O   0  0  0  0  0  0  0  0  0  0  0  0
  161.9670  209.0080  149.3380 C   0  0  0  0  0  0  0  0  0  0  0  0
  161.3820  206.6830  152.0660 C   0  0  1  0  0  3  0  0  0  0  0  0
  161.2400  209.8180  151.4820 O   0  0  0  0  0  1  0  0  0  0  0  0
  162.1760  209.9910  148.6450 O   0  0  0  0  0  0  0  0  0  0  0  0
  160.0930  201.8340  149.4050 C   0  0  0  0  0  2  0  0  0  0  0  0
  161.0500  200.8870  148.7600 C   0  0  0  0  0  3  0  0  0  0  0  0
  161.4040  200.9370  147.5070 N   0  0  0  0  0  0  0  0  0  0  0  0
  160.1660  201.4090  145.4590 C   0  0  0  0  0  3  0  0  0  0  0  0
  160.9450  204.0760  145.4710 C   0  0  0  0  0  0  0  0  0  0  0  0
  161.3760  203.2150  146.4860 C   0  0  0  0  0  3  0  0  0  0  0  0
  160.1220  203.5640  144.4620 C   0  0  0  0  0  3  0  0  0  0  0  0
  159.7540  202.2550  144.4770 N   0  0  0  0  0  0  0  0  0  0  0  0
  160.9880  201.8680  146.4920 C   0  0  0  0  0  0  0  0  0  0  0  0
  161.3490  205.4900  145.4600 C   0  0  0  0  0  0  0  0  0  0  0  0
  160.3870  206.4930  145.4690 O   0  0  0  0  0  1  0  0  0  0  0  0
  162.5690  205.8050  145.4440 O   0  0  0  0  0  0  0  0  0  0  0  0
  1  2  1  0  0  0  0
  2  3  1  0  0  0  0
  4 11  1  0  0  0  0
  4  3  1  0  0  0  0
  5 10  1  0  0  0  0
  5  9  1  0  0  0  0
  6 11  1  0  0  0  0
  7  6  1  0  0  0  0
  7 12  1  0  0  0  0
  8  6  1  0  0  0  0
  8 11  1  0  0  0  0
  9  8  1  0  0  0  0
 10  7  1  0  0  0  0
 13 10  2  0  0  0  0
 14  1  1  0  0  0  0
 15 14  1  0  0  0  0
 16 15  2  0  0  0  0
 17 22  1  0  0  0  0
 18 19  1  0  0  0  0
 19 22  2  0  0  0  0
 20 21  1  0  0  0  0
 20 18  2  0  0  0  0
 21 17  2  0  0  0  0
 22 16  1  0  0  0  0
 23 24  1  0  0  0  0
 23 18  1  0  0  0  0
 25 23  2  0  0  0  0
M  END
>  <MODEL>
1

>  <REMARK>
 VINA RESULT:      -7.2      0.000      0.000
  Name = 
  8 active torsions:
  status: ('A' for Active; 'I' for Inactive)
    1  A    between atoms: S_1  and  C_4
    2  A    between atoms: S_1  and  C_14
    3  A    between atoms: C_2  and  C_5
    4  A    between atoms: C_4  and  C_18
    5  A    between atoms: C_5  and  C_14
    6  A    between atoms: C_6  and  C_10
    7  A    between atoms: N_12  and  C_22
    8  A    between atoms: C_18  and  C_23
                            x       y       z     vdW  Elec       q    Type
                         _______ _______ _______ _____ _____    ______ ____

>  <TORSDO>
F 8

$$$$
=
 OpenBabel11072411343D

 25 27  0  0  1  0  0  0  0  0999 V2000
  162.3790  205.9170  145.8110 C   0  0  0  0  0  2  0  0  0  0  0  0
  160.9360  206.3240  146.8380 S   0  0  0  0  0  0  0  0  0  0  0  0
  161.9360  207.1560  148.1130 C   0  0  0  0  0  2  0  0  0  0  0  0
  161.2090  207.1710  149.4470 C   0  0  0  0  0  2  0  0  0  0  0  0
  161.4590  206.5930  153.4890 C   0  0  0  0  0  2  0  0  0  0  0  0
  160.9490  208.4360  151.5250 C   0  0  2  0  0  3  0  0  0  0  0  0
  160.9450  209.1260  152.8790 C   0  0  1  0  0  3  0  0  0  0  0  0
  162.1870  207.6200  151.6680 N   0  0  1  0  0  0  0  0  0  0  0  0
  161.6320  206.4480  152.0740 O   0  0  0  0  0  0  0  0  0  0  0  0
  161.0300  208.0110  153.9160 C   0  0  0  0  0  0  0  0  0  0  0  0
  161.8270  208.2040  150.3790 C   0  0  1  0  0  3  0  0  0  0  0  0
  162.0250  210.0030  153.0070 O   0  0  0  0  0  1  0  0  0  0  0  0
  160.7830  208.2470  155.0880 O   0  0  0  0  0  0  0  0  0  0  0  0
  162.6490  204.4280  145.8750 C   0  0  0  0  0  2  0  0  0  0  0  0
  161.5320  203.6890  145.2160 C   0  0  0  0  0  3  0  0  0  0  0  0
  160.8510  202.7300  145.7770 N   0  0  0  0  0  0  0  0  0  0  0  0
  161.2630  200.8170  147.2330 C   0  0  0  0  0  3  0  0  0  0  0  0
  161.0100  202.3660  149.5260 C   0  0  0  0  0  0  0  0  0  0  0  0
  160.8660  202.9530  148.2640 C   0  0  0  0  0  3  0  0  0  0  0  0
  161.2810  200.9960  149.6010 C   0  0  0  0  0  3  0  0  0  0  0  0
  161.4000  200.2580  148.4650 N   0  0  0  0  0  0  0  0  0  0  0  0
  160.9930  202.1820  147.1000 C   0  0  0  0  0  0  0  0  0  0  0  0
  160.8780  203.1700  150.7500 C   0  0  0  0  0  0  0  0  0  0  0  0
  159.9640  204.2160  150.8050 O   0  0  0  0  0  0  0  0  0  0  0  0
  161.5900  202.9200  151.7590 O   0  0  0  0  0  1  0  0  0  0  0  0
  1 14  1  0  0  0  0
  1  2  1  0  0  0  0
  2  3  1  0  0  0  0
  3  4  1  0  0  0  0
  4 11  1  0  0  0  0
  5 10  1  0  0  0  0
  6  8  1  0  0  0  0
  6  7  1  0  0  0  0
  7 12  1  0  0  0  0
  7 10  1  0  0  0  0
  8  9  1  0  0  0  0
  9  5  1  0  0  0  0
 10 13  2  0  0  0  0
 11  6  1  0  0  0  0
 11  8  1  0  0  0  0
 15 16  2  0  0  0  0
 15 14  1  0  0  0  0
 16 22  1  0  0  0  0
 17 21  1  0  0  0  0
 18 20  1  0  0  0  0
 18 23  1  0  0  0  0
 19 18  2  0  0  0  0
 21 20  2  0  0  0  0
 22 17  2  0  0  0  0
 22 19  1  0  0  0  0
 23 24  2  0  0  0  0
 23 25  1  0  0  0  0
M  END
>  <MODEL>
2

>  <REMARK>
 VINA RESULT:      -7.0      2.634      4.370
  Name = 
  8 active torsions:
  status: ('A' for Active; 'I' for Inactive)
    1  A    between atoms: S_1  and  C_4
    2  A    between atoms: S_1  and  C_14
    3  A    between atoms: C_2  and  C_5
    4  A    between atoms: C_4  and  C_18
    5  A    between atoms: C_5  and  C_14
    6  A    between atoms: C_6  and  C_10
    7  A    between atoms: N_12  and  C_22
    8  A    between atoms: C_18  and  C_23
                            x       y       z     vdW  Elec       q    Type
                         _______ _______ _______ _____ _____    ______ ____

>  <TORSDO>
F 8

$$$$
=
 OpenBabel11072411343D

 25 27  0  0  1  0  0  0  0  0999 V2000
  161.4760  206.3630  150.7290 C   0  0  0  0  0  2  0  0  0  0  0  0
  161.3970  204.6460  151.3220 S   0  0  0  0  0  0  0  0  0  0  0  0
  161.1390  205.1390  153.0570 C   0  0  0  0  0  2  0  0  0  0  0  0
  161.4640  206.6100  153.2550 C   0  0  0  0  0  2  0  0  0  0  0  0
  161.7810  210.5200  154.4160 C   0  0  0  0  0  2  0  0  0  0  0  0
  161.5070  207.9420  155.3080 C   0  0  2  0  0  3  0  0  0  0  0  0
  161.4210  208.8960  156.4870 C   0  0  1  0  0  3  0  0  0  0  0  0
  160.6040  208.6460  154.3550 N   0  0  1  0  0  0  0  0  0  0  0  0
  161.5320  209.3390  153.6440 O   0  0  0  0  0  0  0  0  0  0  0  0
  161.7840  210.2720  155.9390 C   0  0  0  0  0  0  0  0  0  0  0  0
  160.6430  207.1860  154.4010 C   0  0  1  0  0  3  0  0  0  0  0  0
  160.1380  208.9080  157.0400 O   0  0  0  0  0  1  0  0  0  0  0  0
  162.0530  211.1830  156.7040 O   0  0  0  0  0  0  0  0  0  0  0  0
  160.8640  206.4550  149.3470 C   0  0  0  0  0  2  0  0  0  0  0  0
  161.9080  206.8690  148.3640 C   0  0  0  0  0  3  0  0  0  0  0  0
  162.2900  206.1480  147.3480 N   0  0  0  0  0  0  0  0  0  0  0  0
  161.5960  204.6170  145.5800 C   0  0  0  0  0  3  0  0  0  0  0  0
  161.1160  202.5660  147.3910 C   0  0  0  0  0  0  0  0  0  0  0  0
  161.5750  203.8080  147.8440 C   0  0  0  0  0  3  0  0  0  0  0  0
  160.9080  202.3870  146.0200 C   0  0  0  0  0  3  0  0  0  0  0  0
  161.1490  203.4060  145.1530 N   0  0  0  0  0  0  0  0  0  0  0  0
  161.8210  204.8500  146.9390 C   0  0  0  0  0  0  0  0  0  0  0  0
  160.8560  201.4690  148.3370 C   0  0  0  0  0  0  0  0  0  0  0  0
  159.8400  201.5830  149.2780 O   0  0  0  0  0  1  0  0  0  0  0  0
  161.5490  200.4180  148.3020 O   0  0  0  0  0  0  0  0  0  0  0  0
  1  2  1  0  0  0  0
  2  3  1  0  0  0  0
  3  4  1  0  0  0  0
  4 11  1  0  0  0  0
  5 10  1  0  0  0  0
  6  7  1  0  0  0  0
  7 12  1  0  0  0  0
  8 11  1  0  0  0  0
  8  6  1  0  0  0  0
  9  8  1  0  0  0  0
  9  5  1  0  0  0  0
 10  7  1  0  0  0  0
 10 13  2  0  0  0  0
 11  6  1  0  0  0  0
 14  1  1  0  0  0  0
 15 14  1  0  0  0  0
 16 15  2  0  0  0  0
 17 22  1  0  0  0  0
 18 19  1  0  0  0  0
 18 23  1  0  0  0  0
 20 18  2  0  0  0  0
 21 17  2  0  0  0  0
 21 20  1  0  0  0  0
 22 16  1  0  0  0  0
 22 19  2  0  0  0  0
 23 24  1  0  0  0  0
 25 23  2  0  0  0  0
M  END
>  <MODEL>
3

>  <REMARK>
 VINA RESULT:      -6.9      3.306      4.595
  Name = 
  8 active torsions:
  status: ('A' for Active; 'I' for Inactive)
    1  A    between atoms: S_1  and  C_4
    2  A    between atoms: S_1  and  C_14
    3  A    between atoms: C_2  and  C_5
    4  A    between atoms: C_4  and  C_18
    5  A    between atoms: C_5  and  C_14
    6  A    between atoms: C_6  and  C_10
    7  A    between atoms: N_12  and  C_22
    8  A    between atoms: C_18  and  C_23
                            x       y       z     vdW  Elec       q    Type
                         _______ _______ _______ _____ _____    ______ ____

>  <TORSDO>
F 8

$$$$
=
 OpenBabel11072411343D

 25 27  0  0  1  0  0  0  0  0999 V2000
  161.3100  206.5800  149.8770 C   0  0  0  0  0  2  0  0  0  0  0  0
  160.6740  205.0470  150.6190 S   0  0  0  0  0  0  0  0  0  0  0  0
  161.8420  205.1050  152.0160 C   0  0  0  0  0  2  0  0  0  0  0  0
  161.1830  205.7060  153.2460 C   0  0  0  0  0  2  0  0  0  0  0  0
  159.7720  208.0850  156.2600 C   0  0  0  0  0  2  0  0  0  0  0  0
  160.8010  208.0760  153.7180 C   0  0  2  0  0  3  0  0  0  0  0  0
  160.6320  209.5110  154.1900 C   0  0  1  0  0  3  0  0  0  0  0  0
  161.4400  207.4920  154.9310 N   0  0  1  0  0  0  0  0  0  0  0  0
  160.3350  206.9830  155.5380 O   0  0  0  0  0  0  0  0  0  0  0  0
  159.8740  209.4300  155.5110 C   0  0  0  0  0  0  0  0  0  0  0  0
  161.8260  207.0410  153.5960 C   0  0  1  0  0  3  0  0  0  0  0  0
  161.8690  210.1370  154.3680 O   0  0  0  0  0  1  0  0  0  0  0  0
  159.3700  210.4340  155.9880 O   0  0  0  0  0  0  0  0  0  0  0  0
  160.8280  206.6940  148.4460 C   0  0  0  0  0  2  0  0  0  0  0  0
  162.0010  206.8030  147.5310 C   0  0  0  0  0  3  0  0  0  0  0  0
  162.3950  205.8600  146.7230 N   0  0  0  0  0  0  0  0  0  0  0  0
  161.3430  204.2240  145.2500 C   0  0  0  0  0  3  0  0  0  0  0  0
  161.1590  202.3430  147.2870 C   0  0  0  0  0  0  0  0  0  0  0  0
  161.7270  203.5970  147.5400 C   0  0  0  0  0  3  0  0  0  0  0  0
  160.6930  202.0660  145.9980 C   0  0  0  0  0  3  0  0  0  0  0  0
  160.7930  203.0030  145.0170 N   0  0  0  0  0  0  0  0  0  0  0  0
  161.8260  204.5540  146.5200 C   0  0  0  0  0  0  0  0  0  0  0  0
  161.0530  201.3350  148.3530 C   0  0  0  0  0  0  0  0  0  0  0  0
  160.4560  201.6600  149.5660 O   0  0  0  0  0  1  0  0  0  0  0  0
  161.5000  200.1710  148.1780 O   0  0  0  0  0  0  0  0  0  0  0  0
  1  2  1  0  0  0  0
  2  3  1  0  0  0  0
  3  4  1  0  0  0  0
  4 11  1  0  0  0  0
  6  7  1  0  0  0  0
  6  8  1  0  0  0  0
  7 12  1  0  0  0  0
  7 10  1  0  0  0  0
  8  9  1  0  0  0  0
  9  5  1  0  0  0  0
 10 13  2  0  0  0  0
 10  5  1  0  0  0  0
 11  6  1  0  0  0  0
 11  8  1  0  0  0  0
 14  1  1  0  0  0  0
 15 14  1  0  0  0  0
 16 15  2  0  0  0  0
 17 22  1  0  0  0  0
 18 19  1  0  0  0  0
 18 23  1  0  0  0  0
 20 18  2  0  0  0  0
 21 17  2  0  0  0  0
 21 20  1  0  0  0  0
 22 16  1  0  0  0  0
 22 19  2  0  0  0  0
 23 24  1  0  0  0  0
 25 23  2  0  0  0  0
M  END
>  <MODEL>
4

>  <REMARK>
 VINA RESULT:      -6.8      3.166      4.486
  Name = 
  8 active torsions:
  status: ('A' for Active; 'I' for Inactive)
    1  A    between atoms: S_1  and  C_4
    2  A    between atoms: S_1  and  C_14
    3  A    between atoms: C_2  and  C_5
    4  A    between atoms: C_4  and  C_18
    5  A    between atoms: C_5  and  C_14
    6  A    between atoms: C_6  and  C_10
    7  A    between atoms: N_12  and  C_22
    8  A    between atoms: C_18  and  C_23
                            x       y       z     vdW  Elec       q    Type
                         _______ _______ _______ _____ _____    ______ ____

>  <TORSDO>
F 8

$$$$
=
 OpenBabel11072411343D

 25 27  0  0  1  0  0  0  0  0999 V2000
  160.9990  206.0470  150.4380 C   0  0  0  0  0  2  0  0  0  0  0  0
  161.6300  207.4320  151.4320 S   0  0  0  0  0  0  0  0  0  0  0  0
  161.1930  206.6420  153.0150 C   0  0  0  0  0  2  0  0  0  0  0  0
  161.0370  207.6820  154.1120 C   0  0  0  0  0  2  0  0  0  0  0  0
  161.6990  211.0360  156.3590 C   0  0  0  0  0  2  0  0  0  0  0  0
  160.1680  209.9560  154.3570 C   0  0  2  0  0  3  0  0  0  0  0  0
  159.8150  211.4240  154.5270 C   0  0  1  0  0  3  0  0  0  0  0  0
  161.6550  210.0570  154.3730 N   0  0  1  0  0  0  0  0  0  0  0  0
  161.8790  209.7830  155.6860 O   0  0  0  0  0  0  0  0  0  0  0  0
  160.5530  211.8890  155.7780 C   0  0  0  0  0  0  0  0  0  0  0  0
  160.9860  209.0820  153.5160 C   0  0  1  0  0  3  0  0  0  0  0  0
  160.2070  212.1750  153.4160 O   0  0  0  0  0  1  0  0  0  0  0  0
  160.2530  212.9470  156.3070 O   0  0  0  0  0  0  0  0  0  0  0  0
  160.5860  206.5460  149.0690 C   0  0  0  0  0  2  0  0  0  0  0  0
  161.8030  206.8360  148.2550 C   0  0  0  0  0  3  0  0  0  0  0  0
  162.2950  206.0330  147.3550 N   0  0  0  0  0  0  0  0  0  0  0  0
  161.5090  204.5440  145.5890 C   0  0  0  0  0  3  0  0  0  0  0  0
  161.1460  202.4430  147.3710 C   0  0  0  0  0  0  0  0  0  0  0  0
  161.6230  203.6760  147.8290 C   0  0  0  0  0  3  0  0  0  0  0  0
  160.8600  202.2990  146.0090 C   0  0  0  0  0  3  0  0  0  0  0  0
  161.0450  203.3410  145.1570 N   0  0  0  0  0  0  0  0  0  0  0  0
  161.8110  204.7430  146.9400 C   0  0  0  0  0  0  0  0  0  0  0  0
  160.9470  201.3200  148.3000 C   0  0  0  0  0  0  0  0  0  0  0  0
  160.0830  201.4520  149.3810 O   0  0  0  0  0  1  0  0  0  0  0  0
  161.5550  200.2310  148.1240 O   0  0  0  0  0  0  0  0  0  0  0  0
  1  2  1  0  0  0  0
  2  3  1  0  0  0  0
  3  4  1  0  0  0  0
  6  8  1  0  0  0  0
  6  7  1  0  0  0  0
  7 10  1  0  0  0  0
  8  9  1  0  0  0  0
  9  5  1  0  0  0  0
 10 13  2  0  0  0  0
 10  5  1  0  0  0  0
 11  4  1  0  0  0  0
 11  6  1  0  0  0  0
 11  8  1  0  0  0  0
 12  7  1  0  0  0  0
 14  1  1  0  0  0  0
 15 14  1  0  0  0  0
 16 15  2  0  0  0  0
 17 22  1  0  0  0  0
 18 19  1  0  0  0  0
 18 23  1  0  0  0  0
 20 18  2  0  0  0  0
 21 17  2  0  0  0  0
 21 20  1  0  0  0  0
 22 16  1  0  0  0  0
 22 19  2  0  0  0  0
 23 24  1  0  0  0  0
 25 23  2  0  0  0  0
M  END
>  <MODEL>
5

>  <REMARK>
 VINA RESULT:      -6.7      3.655      4.910
  Name = 
  8 active torsions:
  status: ('A' for Active; 'I' for Inactive)
    1  A    between atoms: S_1  and  C_4
    2  A    between atoms: S_1  and  C_14
    3  A    between atoms: C_2  and  C_5
    4  A    between atoms: C_4  and  C_18
    5  A    between atoms: C_5  and  C_14
    6  A    between atoms: C_6  and  C_10
    7  A    between atoms: N_12  and  C_22
    8  A    between atoms: C_18  and  C_23
                            x       y       z     vdW  Elec       q    Type
                         _______ _______ _______ _____ _____    ______ ____

>  <TORSDO>
F 8

$$$$
=
 OpenBabel11072411343D

 25 27  0  0  1  0  0  0  0  0999 V2000
  161.1610  202.3650  150.9580 C   0  0  0  0  0  2  0  0  0  0  0  0
  160.8420  203.7400  152.1020 S   0  0  0  0  0  0  0  0  0  0  0  0
  162.2070  204.7520  151.4450 C   0  0  0  0  0  2  0  0  0  0  0  0
  162.3230  206.0630  152.2060 C   0  0  0  0  0  2  0  0  0  0  0  0
  161.0290  209.7010  153.5550 C   0  0  0  0  0  2  0  0  0  0  0  0
  161.5700  207.1130  154.2830 C   0  0  2  0  0  3  0  0  0  0  0  0
  160.9660  207.8550  155.4640 C   0  0  1  0  0  3  0  0  0  0  0  0
  160.6310  207.5510  153.2120 N   0  0  1  0  0  0  0  0  0  0  0  0
  161.3440  208.5910  152.7060 O   0  0  0  0  0  0  0  0  0  0  0  0
  160.8880  209.3180  155.0430 C   0  0  0  0  0  0  0  0  0  0  0  0
  161.1860  206.1990  153.2080 C   0  0  1  0  0  3  0  0  0  0  0  0
  159.6960  207.3640  155.7790 O   0  0  0  0  0  1  0  0  0  0  0  0
  160.6900  210.1850  155.8790 O   0  0  0  0  0  0  0  0  0  0  0  0
  160.2290  202.4610  149.7690 C   0  0  0  0  0  2  0  0  0  0  0  0
  160.7000  201.5460  148.6880 C   0  0  0  0  0  3  0  0  0  0  0  0
  161.1990  201.9440  147.5520 N   0  0  0  0  0  0  0  0  0  0  0  0
  161.5690  203.5040  145.7130 C   0  0  0  0  0  3  0  0  0  0  0  0
  161.6900  205.6800  147.4360 C   0  0  0  0  0  0  0  0  0  0  0  0
  161.4760  204.3940  147.9450 C   0  0  0  0  0  3  0  0  0  0  0  0
  161.8400  205.8380  146.0540 C   0  0  0  0  0  3  0  0  0  0  0  0
  161.7770  204.7580  145.2310 N   0  0  0  0  0  0  0  0  0  0  0  0
  161.4120  203.2890  147.0850 C   0  0  0  0  0  0  0  0  0  0  0  0
  161.7580  206.8440  148.3330 C   0  0  0  0  0  0  0  0  0  0  0  0
  160.7720  207.0470  149.2910 O   0  0  0  0  0  1  0  0  0  0  0  0
  162.7100  207.6640  148.2430 O   0  0  0  0  0  0  0  0  0  0  0  0
  1  2  1  0  0  0  0
  3  2  1  0  0  0  0
  3  4  1  0  0  0  0
  4 11  1  0  0  0  0
  5 10  1  0  0  0  0
  6  7  1  0  0  0  0
  7 12  1  0  0  0  0
  8  6  1  0  0  0  0
  9  8  1  0  0  0  0
  9  5  1  0  0  0  0
 10  7  1  0  0  0  0
 10 13  2  0  0  0  0
 11  8  1  0  0  0  0
 11  6  1  0  0  0  0
 14  1  1  0  0  0  0
 15 14  1  0  0  0  0
 16 15  2  0  0  0  0
 17 22  1  0  0  0  0
 18 19  1  0  0  0  0
 18 23  1  0  0  0  0
 20 18  2  0  0  0  0
 21 17  2  0  0  0  0
 21 20  1  0  0  0  0
 22 16  1  0  0  0  0
 22 19  2  0  0  0  0
 23 24  1  0  0  0  0
 25 23  2  0  0  0  0
M  END
>  <MODEL>
6

>  <REMARK>
 VINA RESULT:      -6.6      2.318      3.373
  Name = 
  8 active torsions:
  status: ('A' for Active; 'I' for Inactive)
    1  A    between atoms: S_1  and  C_4
    2  A    between atoms: S_1  and  C_14
    3  A    between atoms: C_2  and  C_5
    4  A    between atoms: C_4  and  C_18
    5  A    between atoms: C_5  and  C_14
    6  A    between atoms: C_6  and  C_10
    7  A    between atoms: N_12  and  C_22
    8  A    between atoms: C_18  and  C_23
                            x       y       z     vdW  Elec       q    Type
                         _______ _______ _______ _____ _____    ______ ____

>  <TORSDO>
F 8

$$$$
=
 OpenBabel11072411343D

 25 27  0  0  1  0  0  0  0  0999 V2000
  160.6740  206.1970  146.4040 C   0  0  0  0  0  2  0  0  0  0  0  0
  162.2140  205.5340  145.7040 S   0  0  0  0  0  0  0  0  0  0  0  0
  161.4840  203.9030  145.3490 C   0  0  0  0  0  2  0  0  0  0  0  0
  161.9570  202.8680  146.3550 C   0  0  0  0  0  2  0  0  0  0  0  0
  161.2630  203.8780  150.2580 C   0  0  0  0  0  2  0  0  0  0  0  0
  161.2270  201.8230  148.4440 C   0  0  2  0  0  3  0  0  0  0  0  0
  160.6680  201.3350  149.7700 C   0  0  1  0  0  3  0  0  0  0  0  0
  160.4940  203.1150  148.3280 N   0  0  1  0  0  0  0  0  0  0  0  0
  161.4370  203.9490  148.8380 O   0  0  0  0  0  0  0  0  0  0  0  0
  160.9120  202.4640  150.7660 C   0  0  0  0  0  0  0  0  0  0  0  0
  160.7780  202.3120  147.1410 C   0  0  1  0  0  3  0  0  0  0  0  0
  159.3040  201.0480  149.6740 O   0  0  0  0  0  1  0  0  0  0  0  0
  160.8050  202.2550  151.9640 O   0  0  0  0  0  0  0  0  0  0  0  0
  160.9390  206.7570  147.7860 C   0  0  0  0  0  2  0  0  0  0  0  0
  162.3780  207.1330  147.9050 C   0  0  0  0  0  3  0  0  0  0  0  0
  162.9110  207.6820  148.9590 N   0  0  0  0  0  0  0  0  0  0  0  0
  161.9480  209.3760  150.4270 C   0  0  0  0  0  3  0  0  0  0  0  0
  161.3810  207.5040  152.4000 C   0  0  0  0  0  0  0  0  0  0  0  0
  161.9920  207.1010  151.2070 C   0  0  0  0  0  3  0  0  0  0  0  0
  161.0680  208.8560  152.5710 C   0  0  0  0  0  3  0  0  0  0  0  0
  161.3560  209.7540  151.5910 N   0  0  0  0  0  0  0  0  0  0  0  0
  162.2820  208.0370  150.2040 C   0  0  0  0  0  0  0  0  0  0  0  0
  161.0760  206.5260  153.4560 C   0  0  0  0  0  0  0  0  0  0  0  0
  160.6280  206.9560  154.6990 O   0  0  0  0  0  1  0  0  0  0  0  0
  161.2160  205.2920  153.2430 O   0  0  0  0  0  0  0  0  0  0  0  0
  1 14  1  0  0  0  0
  2  1  1  0  0  0  0
  3  2  1  0  0  0  0
  3  4  1  0  0  0  0
  4 11  1  0  0  0  0
  5 10  1  0  0  0  0
  6  7  1  0  0  0  0
  7 10  1  0  0  0  0
  8  6  1  0  0  0  0
  8  9  1  0  0  0  0
  9  5  1  0  0  0  0
 10 13  2  0  0  0  0
 11  8  1  0  0  0  0
 11  6  1  0  0  0  0
 12  7  1  0  0  0  0
 14 15  1  0  0  0  0
 15 16  2  0  0  0  0
 16 22  1  0  0  0  0
 17 21  1  0  0  0  0
 18 20  1  0  0  0  0
 18 23  1  0  0  0  0
 19 18  2  0  0  0  0
 21 20  2  0  0  0  0
 22 17  2  0  0  0  0
 22 19  1  0  0  0  0
 23 24  1  0  0  0  0
 25 23  2  0  0  0  0
M  END
>  <MODEL>
7

>  <REMARK>
 VINA RESULT:      -6.6      2.831      7.307
  Name = 
  8 active torsions:
  status: ('A' for Active; 'I' for Inactive)
    1  A    between atoms: S_1  and  C_4
    2  A    between atoms: S_1  and  C_14
    3  A    between atoms: C_2  and  C_5
    4  A    between atoms: C_4  and  C_18
    5  A    between atoms: C_5  and  C_14
    6  A    between atoms: C_6  and  C_10
    7  A    between atoms: N_12  and  C_22
    8  A    between atoms: C_18  and  C_23
                            x       y       z     vdW  Elec       q    Type
                         _______ _______ _______ _____ _____    ______ ____

>  <TORSDO>
F 8

$$$$
=
 OpenBabel11072411343D

 25 27  0  0  1  0  0  0  0  0999 V2000
  161.1930  201.8410  150.6700 C   0  0  0  0  0  2  0  0  0  0  0  0
  160.8490  202.9770  152.0460 S   0  0  0  0  0  0  0  0  0  0  0  0
  161.5450  204.4190  151.1780 C   0  0  0  0  0  2  0  0  0  0  0  0
  160.8610  205.7010  151.6230 C   0  0  0  0  0  2  0  0  0  0  0  0
  160.8290  208.7190  154.3850 C   0  0  0  0  0  2  0  0  0  0  0  0
  161.1080  208.1340  151.7210 C   0  0  2  0  0  3  0  0  0  0  0  0
  161.3680  209.6140  151.9420 C   0  0  1  0  0  3  0  0  0  0  0  0
  161.9200  207.5720  152.8370 N   0  0  1  0  0  0  0  0  0  0  0  0
  160.9420  207.4290  153.7700 O   0  0  0  0  0  0  0  0  0  0  0  0
  160.9950  209.8910  153.3950 C   0  0  0  0  0  0  0  0  0  0  0  0
  161.8310  206.8730  151.5570 C   0  0  1  0  0  3  0  0  0  0  0  0
  162.7060  209.9380  151.7060 O   0  0  0  0  0  1  0  0  0  0  0  0
  160.8530  211.0390  153.7810 O   0  0  0  0  0  0  0  0  0  0  0  0
  160.4900  202.3240  149.4190 C   0  0  0  0  0  2  0  0  0  0  0  0
  160.8590  201.4480  148.2680 C   0  0  0  0  0  3  0  0  0  0  0  0
  161.1970  201.8850  147.0880 N   0  0  0  0  0  0  0  0  0  0  0  0
  161.2070  203.4970  145.2570 C   0  0  0  0  0  3  0  0  0  0  0  0
  161.5900  205.6330  146.9910 C   0  0  0  0  0  0  0  0  0  0  0  0
  161.4940  204.3310  147.4940 C   0  0  0  0  0  3  0  0  0  0  0  0
  161.4900  205.8280  145.6100 C   0  0  0  0  0  3  0  0  0  0  0  0
  161.3030  204.7670  144.7810 N   0  0  0  0  0  0  0  0  0  0  0  0
  161.2990  203.2450  146.6290 C   0  0  0  0  0  0  0  0  0  0  0  0
  161.7950  206.7760  147.8950 C   0  0  0  0  0  0  0  0  0  0  0  0
  163.0810  207.2100  148.1940 O   0  0  0  0  0  0  0  0  0  0  0  0
  160.8090  207.3710  148.4040 O   0  0  0  0  0  1  0  0  0  0  0  0
  1  2  1  0  0  0  0
  3  4  1  0  0  0  0
  3  2  1  0  0  0  0
  6  7  1  0  0  0  0
  6  8  1  0  0  0  0
  7 10  1  0  0  0  0
  8  9  1  0  0  0  0
  9  5  1  0  0  0  0
 10 13  2  0  0  0  0
 10  5  1  0  0  0  0
 11  4  1  0  0  0  0
 11  6  1  0  0  0  0
 11  8  1  0  0  0  0
 12  7  1  0  0  0  0
 14  1  1  0  0  0  0
 15 14  1  0  0  0  0
 16 15  2  0  0  0  0
 17 22  1  0  0  0  0
 18 19  1  0  0  0  0
 18 23  1  0  0  0  0
 20 18  2  0  0  0  0
 21 17  2  0  0  0  0
 21 20  1  0  0  0  0
 22 16  1  0  0  0  0
 22 19  2  0  0  0  0
 23 24  2  0  0  0  0
 23 25  1  0  0  0  0
M  END
>  <MODEL>
8

>  <REMARK>
 VINA RESULT:      -6.5      1.783      2.743
  Name = 
  8 active torsions:
  status: ('A' for Active; 'I' for Inactive)
    1  A    between atoms: S_1  and  C_4
    2  A    between atoms: S_1  and  C_14
    3  A    between atoms: C_2  and  C_5
    4  A    between atoms: C_4  and  C_18
    5  A    between atoms: C_5  and  C_14
    6  A    between atoms: C_6  and  C_10
    7  A    between atoms: N_12  and  C_22
    8  A    between atoms: C_18  and  C_23
                            x       y       z     vdW  Elec       q    Type
                         _______ _______ _______ _____ _____    ______ ____

>  <TORSDO>
F 8

$$$$
=
 OpenBabel11072411343D

 25 27  0  0  1  0  0  0  0  0999 V2000
  161.3880  206.4390  150.7640 C   0  0  0  0  0  2  0  0  0  0  0  0
  162.0650  207.4570  149.4190 S   0  0  0  0  0  0  0  0  0  0  0  0
  161.9570  209.0000  150.3810 C   0  0  0  0  0  2  0  0  0  0  0  0
  161.6710  208.7070  151.8440 C   0  0  0  0  0  2  0  0  0  0  0  0
  160.0770  208.9090  155.6060 C   0  0  0  0  0  2  0  0  0  0  0  0
  160.3290  210.2250  153.2140 C   0  0  2  0  0  3  0  0  0  0  0  0
  159.6150  211.1220  154.2120 C   0  0  1  0  0  3  0  0  0  0  0  0
  161.4430  209.7390  154.0750 N   0  0  1  0  0  0  0  0  0  0  0  0
  160.9040  208.5620  154.4880 O   0  0  0  0  0  0  0  0  0  0  0  0
  159.3360  210.2510  155.4320 C   0  0  0  0  0  0  0  0  0  0  0  0
  161.6590  209.9960  152.6530 C   0  0  1  0  0  3  0  0  0  0  0  0
  160.4000  212.2240  154.5610 O   0  0  0  0  0  1  0  0  0  0  0  0
  158.5470  210.6260  156.2840 O   0  0  0  0  0  0  0  0  0  0  0  0
  160.4590  205.3890  150.1920 C   0  0  0  0  0  2  0  0  0  0  0  0
  160.8820  204.0370  150.6630 C   0  0  0  0  0  3  0  0  0  0  0  0
  161.1710  203.0400  149.8760 N   0  0  0  0  0  0  0  0  0  0  0  0
  160.8450  201.7920  147.8050 C   0  0  0  0  0  3  0  0  0  0  0  0
  161.4370  204.0120  146.2430 C   0  0  0  0  0  0  0  0  0  0  0  0
  161.4580  204.1110  147.6390 C   0  0  0  0  0  3  0  0  0  0  0  0
  161.1140  202.7810  145.6630 C   0  0  0  0  0  3  0  0  0  0  0  0
  160.8290  201.7080  146.4480 N   0  0  0  0  0  0  0  0  0  0  0  0
  161.1610  202.9980  148.4370 C   0  0  0  0  0  0  0  0  0  0  0  0
  161.7490  205.1770  145.4010 C   0  0  0  0  0  0  0  0  0  0  0  0
  161.3970  205.1820  144.0560 O   0  0  0  0  0  0  0  0  0  0  0  0
  162.3360  206.1790  145.8890 O   0  0  0  0  0  1  0  0  0  0  0  0
  2  3  1  0  0  0  0
  2  1  1  0  0  0  0
  3  4  1  0  0  0  0
  4 11  1  0  0  0  0
  6  8  1  0  0  0  0
  6  7  1  0  0  0  0
  7 12  1  0  0  0  0
  7 10  1  0  0  0  0
  8  9  1  0  0  0  0
  9  5  1  0  0  0  0
 10  5  1  0  0  0  0
 10 13  2  0  0  0  0
 11  6  1  0  0  0  0
 11  8  1  0  0  0  0
 14 15  1  0  0  0  0
 14  1  1  0  0  0  0
 16 15  2  0  0  0  0
 17 22  1  0  0  0  0
 18 19  1  0  0  0  0
 19 22  2  0  0  0  0
 20 18  2  0  0  0  0
 20 21  1  0  0  0  0
 21 17  2  0  0  0  0
 22 16  1  0  0  0  0
 23 25  1  0  0  0  0
 23 18  1  0  0  0  0
 24 23  2  0  0  0  0
M  END
>  <MODEL>
9

>  <REMARK>
 VINA RESULT:      -6.5      2.997      4.119
  Name = 
  8 active torsions:
  status: ('A' for Active; 'I' for Inactive)
    1  A    between atoms: S_1  and  C_4
    2  A    between atoms: S_1  and  C_14
    3  A    between atoms: C_2  and  C_5
    4  A    between atoms: C_4  and  C_18
    5  A    between atoms: C_5  and  C_14
    6  A    between atoms: C_6  and  C_10
    7  A    between atoms: N_12  and  C_22
    8  A    between atoms: C_18  and  C_23
                            x       y       z     vdW  Elec       q    Type
                         _______ _______ _______ _____ _____    ______ ____

>  <TORSDO>
F 8

$$$$
