=
 OpenBabel11072414423D

 60 65  0  0  1  0  0  0  0  0999 V2000
  160.6780  209.8450  153.9360 O   0  0  0  0  0  0  0  0  0  0  0  0
  159.4900  211.5070  155.9820 C   0  0  1  0  0  3  0  0  0  0  0  0
  160.2230  212.0800  154.7530 C   0  0  1  0  0  3  0  0  0  0  0  0
  160.3540  209.2780  155.1820 C   0  0  1  0  0  3  0  0  0  0  0  0
  159.1670  210.0190  155.8100 C   0  0  0  0  0  2  0  0  0  0  0  0
  161.2650  211.0950  154.2020 C   0  0  0  0  0  2  0  0  0  0  0  0
  161.1770  212.8010  157.0760 O   0  0  0  0  0  1  0  0  0  0  0  0
  160.3130  211.7180  157.2440 C   0  0  0  0  0  2  0  0  0  0  0  0
  159.2930  212.6390  153.6620 C   0  0  2  0  0  3  0  0  0  0  0  0
  159.2100  214.2380  151.7460 C   0  0  0  0  0  2  0  0  0  0  0  0
  159.6210  212.8850  151.2070 C   0  0  2  0  0  3  0  0  0  0  0  0
  160.1030  213.3340  152.5730 C   0  0  2  0  0  3  0  0  0  0  0  0
  160.7680  213.0360  150.2300 C   0  0  0  0  0  2  0  0  0  0  0  0
  160.2570  212.8880  148.8140 C   0  0  0  0  0  2  0  0  0  0  0  0
  159.5410  214.1640  148.4060 C   0  0  0  0  0  2  0  0  0  0  0  0
  158.7990  214.0060  147.0790 C   0  0  2  0  0  3  0  0  0  0  0  0
  156.5550  213.4440  146.3090 N   0  0  0  0  0  1  0  0  0  0  0  0
  156.9040  213.9750  148.5400 O   0  0  0  0  0  1  0  0  0  0  0  0
  157.3040  214.2730  147.2360 C   0  0  1  0  0  3  0  0  0  0  0  0
  159.0190  212.7330  146.5460 O   0  0  0  0  0  0  0  0  0  0  0  0
  159.4310  212.9620  145.2300 C   0  0  0  0  0  2  0  0  0  0  0  0
  160.9490  213.0310  145.1560 C   0  0  0  0  0  2  0  0  0  0  0  0
  161.4500  212.5810  143.7920 C   0  0  2  0  0  3  0  0  0  0  0  0
  162.0830  213.7750  143.0760 C   0  0  0  0  0  2  0  0  0  0  0  0
  160.7900  211.6120  141.5690 C   0  0  0  0  0  2  0  0  0  0  0  0
  161.4260  212.8080  140.8610 C   0  0  2  0  0  3  0  0  0  0  0  0
  160.2940  212.0260  142.9550 C   0  0  0  0  0  2  0  0  0  0  0  0
  161.8970  212.4120  139.6090 O   0  0  0  0  0  1  0  0  0  0  0  0
  162.5820  213.3570  141.6940 C   0  0  0  0  0  2  0  0  0  0  0  0
  158.2370  213.5920  154.2220 C   0  0  0  0  0  2  0  0  0  0  0  0
  156.3960  214.4160  153.1230 O   0  0  0  0  0  0  0  0  0  0  0  0
  156.1090  213.5450  156.0270 C   0  0  0  0  0  1  0  0  0  0  0  0
  156.9190  213.2810  153.6640 N   0  0  0  0  0  0  0  0  0  0  0  0
  155.9540  212.8550  154.6710 C   0  0  0  0  0  0  0  0  0  0  0  0
  155.0580  214.1700  152.9840 N   0  0  0  0  0  2  0  0  0  0  0  0
  155.9770  211.3480  154.8270 C   0  0  0  0  0  1  0  0  0  0  0  0
  154.6670  213.2950  154.0760 C   0  0  0  0  0  2  0  0  0  0  0  0
  160.0520  207.7860  155.0360 C   0  0  0  0  0  2  0  0  0  0  0  0
  161.2590  206.9830  154.5600 C   0  0  0  0  0  2  0  0  0  0  0  0
  160.8450  205.9580  153.5150 C   0  0  0  0  0  2  0  0  0  0  0  0
  161.3370  206.3320  152.1510 C   0  0  0  0  0  0  0  0  0  0  0  0
  161.4460  207.6290  151.8390 C   0  0  0  0  0  3  0  0  0  0  0  0
  162.3640  207.4660  149.5480 O   0  0  0  0  0  0  0  0  0  0  0  0
  161.7450  209.4690  150.2060 N   0  0  0  0  0  0  0  0  0  0  0  0
  162.3140  210.6830  148.0960 C   0  0  0  0  0  1  0  0  0  0  0  0
  162.6100  208.2420  148.5370 N   0  0  0  0  0  0  0  0  0  0  0  0
  161.8580  208.1680  150.5330 C   0  0  0  0  0  0  0  0  0  0  0  0
  162.2330  209.4650  148.9490 C   0  0  0  0  0  0  0  0  0  0  0  0
  160.4420  205.0950  150.1760 C   0  0  0  0  0  2  0  0  0  0  0  0
  161.6020  205.2460  151.1510 C   0  0  2  0  0  3  0  0  0  0  0  0
  161.1200  202.8630  150.5350 C   0  0  1  0  0  3  0  0  0  0  0  0
  161.8610  203.6350  151.9650 S   0  0  0  0  0  0  0  0  0  0  0  0
  160.4850  203.6840  149.7100 C   0  0  0  0  0  2  0  0  0  0  0  0
  161.3940  201.4320  150.1900 C   0  0  0  0  0  2  0  0  0  0  0  0
  161.3290  200.9650  147.8670 C   0  0  0  0  0  3  0  0  0  0  0  0
  160.7000  201.0460  148.9840 N   0  0  0  0  0  0  0  0  0  0  0  0
  160.6220  200.5470  146.6090 C   0  0  0  0  0  2  0  0  0  0  0  0
  161.2050  202.8200  145.8760 N   0  0  0  0  0  1  0  0  0  0  0  0
  160.2510  201.7310  145.7180 C   0  0  1  0  0  3  0  0  0  0  0  0
  160.1960  201.3360  144.3780 O   0  0  0  0  0  1  0  0  0  0  0  0
  1  6  1  0  0  0  0
  1  4  1  0  0  0  0
  2  8  1  1  0  0  0
  3  9  1  6  0  0  0
  3  2  1  0  0  0  0
  4 38  1  6  0  0  0
  4  5  1  0  0  0  0
  5  2  1  0  0  0  0
  6  3  1  0  0  0  0
  7  8  1  0  0  0  0
  9 30  1  1  0  0  0
 10 12  1  0  0  0  0
 11 13  1  6  0  0  0
 11 10  1  0  0  0  0
 11 12  1  0  0  0  0
 12  9  1  1  0  0  0
 14 13  1  0  0  0  0
 15 14  1  0  0  0  0
 16 19  1  0  0  0  0
 16 15  1  1  0  0  0
 19 17  1  6  0  0  0
 19 18  1  0  0  0  0
 20 16  1  0  0  0  0
 21 20  1  0  0  0  0
 22 21  1  0  0  0  0
 23 22  1  1  0  0  0
 24 23  1  0  0  0  0
 25 27  1  0  0  0  0
 26 28  1  6  0  0  0
 26 25  1  0  0  0  0
 26 29  1  0  0  0  0
 27 23  1  0  0  0  0
 29 24  1  0  0  0  0
 31 33  1  0  0  0  0
 33 30  1  0  0  0  0
 33 34  1  0  0  0  0
 34 36  1  0  0  0  0
 34 32  1  0  0  0  0
 35 31  1  0  0  0  0
 35 37  1  0  0  0  0
 37 34  1  0  0  0  0
 39 38  1  0  0  0  0
 40 39  1  0  0  0  0
 41 40  1  0  0  0  0
 42 41  2  0  0  0  0
 43 47  1  0  0  0  0
 44 47  2  0  0  0  0
 45 48  1  0  0  0  0
 46 48  2  0  0  0  0
 46 43  1  0  0  0  0
 47 42  1  0  0  0  0
 48 44  1  0  0  0  0
 49 50  1  0  0  0  0
 50 52  1  0  0  0  0
 50 41  1  1  0  0  0
 51 54  1  6  0  0  0
 51 52  1  0  0  0  0
 53 49  1  0  0  0  0
 53 51  1  0  0  0  0
 55 56  2  0  0  0  0
 56 54  1  0  0  0  0
 57 55  1  0  0  0  0
 59 60  1  6  0  0  0
 59 58  1  0  0  0  0
 59 57  1  0  0  0  0
M  END
>  <MODEL>
1

>  <REMARK>
 VINA RESULT:      -5.5      0.000      0.000
  Name = 
  24 active torsions:
  status: ('A' for Active; 'I' for Inactive)
    1  A    between atoms: C_2  and  C_16
    2  A    between atoms: C_2  and  O_24
    3  A    between atoms: C_2  and  C_48
    4  A    between atoms: C_5  and  C_25
    5  A    between atoms: C_7  and  C_29
    6  A    between atoms: C_7  and  C_35
    7  A    between atoms: C_10  and  C_12
    8  A    between atoms: C_10  and  C_50
    9  A    between atoms: C_14  and  C_27
   10  A    between atoms: C_14  and  C_30
   11  A    between atoms: C_15  and  C_25
   12  A    between atoms: C_16  and  C_27
   13  A    between atoms: C_17  and  C_23
   14  A    between atoms: C_17  and  C_39
   15  A    between atoms: C_17  and  C_59
   16  A    between atoms: C_18  and  C_19
   17  A    between atoms: C_18  and  C_40
   18  A    between atoms: C_19  and  C_35
   19  A    between atoms: C_21  and  C_60
   20  A    between atoms: O_24  and  C_50
   21  A    between atoms: N_34  and  C_55
   22  A    between atoms: N_36  and  C_39
   23  A    between atoms: C_37  and  C_44
   24  A    between atoms: C_41  and  C_55
                            x       y       z     vdW  Elec       q    Type
                         _______ _______ _______ _____ _____    ______ ____

>  <TORSDO>
F 24

$$$$
=
 OpenBabel11072414423D

 60 65  0  0  1  0  0  0  0  0999 V2000
  160.4760  209.8850  151.8840 O   0  0  0  0  0  0  0  0  0  0  0  0
  159.9470  212.5250  152.9370 C   0  0  1  0  0  3  0  0  0  0  0  0
  159.2380  211.2560  153.4520 C   0  0  1  0  0  3  0  0  0  0  0  0
  160.8740  211.0140  151.1450 C   0  0  1  0  0  3  0  0  0  0  0  0
  161.1750  212.1860  152.0860 C   0  0  0  0  0  2  0  0  0  0  0  0
  159.1890  210.1580  152.3780 C   0  0  0  0  0  2  0  0  0  0  0  0
  158.0900  214.0290  152.9990 O   0  0  0  0  0  1  0  0  0  0  0  0
  158.9840  213.3900  152.1390 C   0  0  0  0  0  2  0  0  0  0  0  0
  159.7570  210.7440  154.8070 C   0  0  2  0  0  3  0  0  0  0  0  0
  160.1410  208.6730  156.1470 C   0  0  0  0  0  2  0  0  0  0  0  0
  161.3820  208.9300  155.3210 C   0  0  2  0  0  3  0  0  0  0  0  0
  160.0130  209.2420  154.7480 C   0  0  2  0  0  3  0  0  0  0  0  0
  161.8710  207.6410  154.6940 C   0  0  0  0  0  2  0  0  0  0  0  0
  160.7230  206.9410  154.0000 C   0  0  0  0  0  2  0  0  0  0  0  0
  161.2090  205.6090  153.4540 C   0  0  0  0  0  2  0  0  0  0  0  0
  162.2130  205.7880  152.3150 C   0  0  2  0  0  3  0  0  0  0  0  0
  162.8890  207.4330  150.6470 N   0  0  0  0  0  1  0  0  0  0  0  0
  160.9170  206.2440  150.3560 O   0  0  0  0  0  1  0  0  0  0  0  0
  161.7430  206.8380  151.3120 C   0  0  1  0  0  3  0  0  0  0  0  0
  162.4500  204.5680  151.6770 O   0  0  0  0  0  0  0  0  0  0  0  0
  161.1800  204.0720  151.3700 C   0  0  0  0  0  2  0  0  0  0  0  0
  161.2910  202.6960  150.7320 C   0  0  0  0  0  2  0  0  0  0  0  0
  160.7330  202.7040  149.3160 C   0  0  2  0  0  3  0  0  0  0  0  0
  160.8730  201.3040  148.7190 C   0  0  0  0  0  2  0  0  0  0  0  0
  160.9530  203.6960  147.0180 C   0  0  0  0  0  2  0  0  0  0  0  0
  161.0910  202.2920  146.4280 C   0  0  2  0  0  3  0  0  0  0  0  0
  161.4870  203.7170  148.4500 C   0  0  0  0  0  2  0  0  0  0  0  0
  160.5780  202.2800  145.1310 O   0  0  0  0  0  1  0  0  0  0  0  0
  160.3340  201.2840  147.2890 C   0  0  0  0  0  2  0  0  0  0  0  0
  158.8090  211.0710  155.9600 C   0  0  0  0  0  2  0  0  0  0  0  0
  159.0770  213.1660  156.8640 O   0  0  0  0  0  0  0  0  0  0  0  0
  156.4250  211.7220  157.2590 C   0  0  0  0  0  1  0  0  0  0  0  0
  158.4010  212.4770  155.9040 N   0  0  0  0  0  0  0  0  0  0  0  0
  156.9890  212.6790  156.2090 C   0  0  0  0  0  0  0  0  0  0  0  0
  158.3900  214.3370  157.0240 N   0  0  0  0  0  2  0  0  0  0  0  0
  156.1590  212.6380  154.9410 C   0  0  0  0  0  1  0  0  0  0  0  0
  156.9870  214.0470  156.7840 C   0  0  0  0  0  2  0  0  0  0  0  0
  162.0840  210.6900  150.2690 C   0  0  0  0  0  2  0  0  0  0  0  0
  161.8690  211.0570  148.8030 C   0  0  0  0  0  2  0  0  0  0  0  0
  161.9280  212.5650  148.6130 C   0  0  0  0  0  2  0  0  0  0  0  0
  160.6400  213.1030  148.0730 C   0  0  0  0  0  0  0  0  0  0  0  0
  159.5940  213.2210  148.9000 C   0  0  0  0  0  3  0  0  0  0  0  0
  157.8810  214.0500  147.3200 O   0  0  0  0  0  0  0  0  0  0  0  0
  157.2250  213.7510  149.3960 N   0  0  0  0  0  0  0  0  0  0  0  0
  154.8440  214.4430  149.0760 C   0  0  0  0  0  1  0  0  0  0  0  0
  156.6270  214.3850  147.3270 N   0  0  0  0  0  0  0  0  0  0  0  0
  158.2470  213.6780  148.5230 C   0  0  0  0  0  0  0  0  0  0  0  0
  156.2340  214.2030  148.6010 C   0  0  0  0  0  0  0  0  0  0  0  0
  160.1500  212.1660  145.8120 C   0  0  0  0  0  2  0  0  0  0  0  0
  160.5360  213.4050  146.6070 C   0  0  2  0  0  3  0  0  0  0  0  0
  161.7000  213.2380  144.3920 C   0  0  1  0  0  3  0  0  0  0  0  0
  162.1140  214.0280  145.9390 S   0  0  0  0  0  0  0  0  0  0  0  0
  160.6950  212.3740  144.4450 C   0  0  0  0  0  2  0  0  0  0  0  0
  162.2990  213.6920  143.0970 C   0  0  0  0  0  2  0  0  0  0  0  0
  161.4810  213.0660  140.9620 C   0  0  0  0  0  3  0  0  0  0  0  0
  162.0710  212.7230  142.0510 N   0  0  0  0  0  0  0  0  0  0  0  0
  161.2540  212.0730  139.8590 C   0  0  0  0  0  2  0  0  0  0  0  0
  158.8090  212.1350  139.6120 N   0  0  0  0  0  1  0  0  0  0  0  0
  159.9400  211.3090  140.0120 C   0  0  1  0  0  3  0  0  0  0  0  0
  159.9650  210.1350  139.2540 O   0  0  0  0  0  1  0  0  0  0  0  0
  1  6  1  0  0  0  0
  2  8  1  6  0  0  0
  2  3  1  0  0  0  0
  3  9  1  1  0  0  0
  4 38  1  1  0  0  0
  4  1  1  0  0  0  0
  4  5  1  0  0  0  0
  5  2  1  0  0  0  0
  6  3  1  0  0  0  0
  8  7  1  0  0  0  0
  9 30  1  1  0  0  0
 11 13  1  6  0  0  0
 11 10  1  0  0  0  0
 12  9  1  1  0  0  0
 12 11  1  0  0  0  0
 12 10  1  0  0  0  0
 14 13  1  0  0  0  0
 15 14  1  0  0  0  0
 16 15  1  1  0  0  0
 17 19  1  0  0  0  0
 19 18  1  6  0  0  0
 19 16  1  0  0  0  0
 20 16  1  0  0  0  0
 21 20  1  0  0  0  0
 22 21  1  0  0  0  0
 23 22  1  1  0  0  0
 24 23  1  0  0  0  0
 25 27  1  0  0  0  0
 26 28  1  6  0  0  0
 26 25  1  0  0  0  0
 26 29  1  0  0  0  0
 27 23  1  0  0  0  0
 29 24  1  0  0  0  0
 31 35  1  0  0  0  0
 33 30  1  0  0  0  0
 33 34  1  0  0  0  0
 33 31  1  0  0  0  0
 34 37  1  0  0  0  0
 34 32  1  0  0  0  0
 36 34  1  0  0  0  0
 37 35  1  0  0  0  0
 39 38  1  0  0  0  0
 40 39  1  0  0  0  0
 41 40  1  0  0  0  0
 41 42  2  0  0  0  0
 43 46  1  0  0  0  0
 43 47  1  0  0  0  0
 46 48  2  0  0  0  0
 47 42  1  0  0  0  0
 47 44  2  0  0  0  0
 48 45  1  0  0  0  0
 48 44  1  0  0  0  0
 49 50  1  0  0  0  0
 50 41  1  1  0  0  0
 51 54  1  6  0  0  0
 51 53  1  0  0  0  0
 51 52  1  0  0  0  0
 52 50  1  0  0  0  0
 53 49  1  0  0  0  0
 55 56  2  0  0  0  0
 56 54  1  0  0  0  0
 57 59  1  0  0  0  0
 57 55  1  0  0  0  0
 58 59  1  0  0  0  0
 59 60  1  6  0  0  0
M  END
>  <MODEL>
2

>  <REMARK>
 VINA RESULT:      -3.9      2.621      8.700
  Name = 
  24 active torsions:
  status: ('A' for Active; 'I' for Inactive)
    1  A    between atoms: C_2  and  C_16
    2  A    between atoms: C_2  and  O_24
    3  A    between atoms: C_2  and  C_48
    4  A    between atoms: C_5  and  C_25
    5  A    between atoms: C_7  and  C_29
    6  A    between atoms: C_7  and  C_35
    7  A    between atoms: C_10  and  C_12
    8  A    between atoms: C_10  and  C_50
    9  A    between atoms: C_14  and  C_27
   10  A    between atoms: C_14  and  C_30
   11  A    between atoms: C_15  and  C_25
   12  A    between atoms: C_16  and  C_27
   13  A    between atoms: C_17  and  C_23
   14  A    between atoms: C_17  and  C_39
   15  A    between atoms: C_17  and  C_59
   16  A    between atoms: C_18  and  C_19
   17  A    between atoms: C_18  and  C_40
   18  A    between atoms: C_19  and  C_35
   19  A    between atoms: C_21  and  C_60
   20  A    between atoms: O_24  and  C_50
   21  A    between atoms: N_34  and  C_55
   22  A    between atoms: N_36  and  C_39
   23  A    between atoms: C_37  and  C_44
   24  A    between atoms: C_41  and  C_55
                            x       y       z     vdW  Elec       q    Type
                         _______ _______ _______ _____ _____    ______ ____

>  <TORSDO>
F 24

$$$$
=
 OpenBabel11072414423D

 60 65  0  0  1  0  0  0  0  0999 V2000
  162.6690  206.0760  151.4420 O   0  0  0  0  0  0  0  0  0  0  0  0
  160.6630  206.5440  153.4700 C   0  0  1  0  0  3  0  0  0  0  0  0
  161.9020  207.4430  153.2900 C   0  0  1  0  0  3  0  0  0  0  0  0
  161.7800  205.0400  151.7840 C   0  0  1  0  0  3  0  0  0  0  0  0
  160.4460  205.6230  152.2660 C   0  0  0  0  0  2  0  0  0  0  0  0
  163.0690  206.6780  152.6480 C   0  0  0  0  0  2  0  0  0  0  0  0
  160.6990  206.5470  155.8610 O   0  0  0  0  0  1  0  0  0  0  0  0
  160.7810  205.7170  154.7420 C   0  0  0  0  0  2  0  0  0  0  0  0
  161.6160  208.7870  152.5980 C   0  0  2  0  0  3  0  0  0  0  0  0
  159.7580  210.4450  152.4170 C   0  0  0  0  0  2  0  0  0  0  0  0
  160.8400  211.0520  153.2820 C   0  0  2  0  0  3  0  0  0  0  0  0
  160.5500  209.5660  153.3630 C   0  0  2  0  0  3  0  0  0  0  0  0
  160.2300  211.7170  154.4970 C   0  0  0  0  0  2  0  0  0  0  0  0
  158.7570  211.9710  154.2560 C   0  0  0  0  0  2  0  0  0  0  0  0
  158.4890  213.4640  154.3390 C   0  0  0  0  0  2  0  0  0  0  0  0
  157.2840  213.8780  153.4920 C   0  0  2  0  0  3  0  0  0  0  0  0
  155.9200  213.4410  155.4650 N   0  0  0  0  0  1  0  0  0  0  0  0
  154.8920  213.9050  153.4370 O   0  0  0  0  0  1  0  0  0  0  0  0
  155.9890  213.2710  154.0250 C   0  0  1  0  0  3  0  0  0  0  0  0
  157.4830  213.5210  152.1550 O   0  0  0  0  0  0  0  0  0  0  0  0
  158.5700  214.2940  151.7370 C   0  0  0  0  0  2  0  0  0  0  0  0
  159.2710  213.6260  150.5640 C   0  0  0  0  0  2  0  0  0  0  0  0
  158.7050  214.1170  149.2390 C   0  0  2  0  0  3  0  0  0  0  0  0
  157.4610  213.2970  148.8960 C   0  0  0  0  0  2  0  0  0  0  0  0
  159.1650  214.4260  146.7880 C   0  0  0  0  0  2  0  0  0  0  0  0
  157.9190  213.6060  146.4530 C   0  0  2  0  0  3  0  0  0  0  0  0
  159.7470  213.9710  148.1270 C   0  0  0  0  0  2  0  0  0  0  0  0
  157.3820  214.0470  145.2430 O   0  0  0  0  0  1  0  0  0  0  0  0
  156.8780  213.7570  147.5600 C   0  0  0  0  0  2  0  0  0  0  0  0
  161.1970  208.6190  151.1380 C   0  0  0  0  0  2  0  0  0  0  0  0
  161.6490  210.6250  150.1150 O   0  0  0  0  0  0  0  0  0  0  0  0
  160.8340  208.2480  148.3950 C   0  0  0  0  0  1  0  0  0  0  0  0
  162.1090  209.3520  150.2570 N   0  0  0  0  0  0  0  0  0  0  0  0
  162.1620  208.8100  148.9030 C   0  0  0  0  0  0  0  0  0  0  0  0
  162.2870  211.1220  149.0120 N   0  0  0  0  0  2  0  0  0  0  0  0
  163.2650  207.7770  148.7860 C   0  0  0  0  0  1  0  0  0  0  0  0
  162.4920  210.0120  148.0980 C   0  0  0  0  0  2  0  0  0  0  0  0
  161.5700  204.0940  150.6010 C   0  0  0  0  0  2  0  0  0  0  0  0
  160.6170  204.6630  149.5530 C   0  0  0  0  0  2  0  0  0  0  0  0
  161.3720  205.0280  148.2830 C   0  0  0  0  0  2  0  0  0  0  0  0
  161.3170  203.9250  147.2720 C   0  0  0  0  0  0  0  0  0  0  0  0
  160.8400  202.7310  147.6470 C   0  0  0  0  0  3  0  0  0  0  0  0
  160.0160  201.3970  145.7340 O   0  0  0  0  0  0  0  0  0  0  0  0
  161.4940  200.4210  147.0350 N   0  0  0  0  0  0  0  0  0  0  0  0
  161.6270  198.2560  145.7910 C   0  0  0  0  0  1  0  0  0  0  0  0
  160.1950  200.2210  145.2150 N   0  0  0  0  0  0  0  0  0  0  0  0
  160.7680  201.5300  146.7990 C   0  0  0  0  0  0  0  0  0  0  0  0
  161.0970  199.6290  146.0180 C   0  0  0  0  0  0  0  0  0  0  0  0
  162.6770  205.4610  145.8510 C   0  0  0  0  0  2  0  0  0  0  0  0
  161.8800  204.1650  145.9030 C   0  0  2  0  0  3  0  0  0  0  0  0
  161.5860  205.4320  143.7580 C   0  0  1  0  0  3  0  0  0  0  0  0
  160.5630  204.2690  144.6460 S   0  0  0  0  0  0  0  0  0  0  0  0
  162.6150  205.9200  144.4380 C   0  0  0  0  0  2  0  0  0  0  0  0
  161.4170  205.6600  142.2880 C   0  0  0  0  0  2  0  0  0  0  0  0
  161.8030  207.3840  140.7100 C   0  0  0  0  0  3  0  0  0  0  0  0
  162.0200  206.9060  141.8820 N   0  0  0  0  0  0  0  0  0  0  0  0
  162.4090  208.6900  140.2810 C   0  0  0  0  0  2  0  0  0  0  0  0
  162.2550  210.6060  138.7490 N   0  0  0  0  0  1  0  0  0  0  0  0
  161.7380  209.2760  139.0400 C   0  0  1  0  0  3  0  0  0  0  0  0
  161.9290  208.4370  137.9380 O   0  0  0  0  0  1  0  0  0  0  0  0
  1  4  1  0  0  0  0
  1  6  1  0  0  0  0
  2  8  1  1  0  0  0
  3  9  1  6  0  0  0
  3  2  1  0  0  0  0
  4 38  1  6  0  0  0
  4  5  1  0  0  0  0
  5  2  1  0  0  0  0
  6  3  1  0  0  0  0
  8  7  1  0  0  0  0
  9 30  1  6  0  0  0
 10 11  1  0  0  0  0
 10 12  1  0  0  0  0
 11 12  1  0  0  0  0
 11 13  1  1  0  0  0
 12  9  1  6  0  0  0
 14 15  1  0  0  0  0
 14 13  1  0  0  0  0
 16 19  1  0  0  0  0
 16 15  1  1  0  0  0
 19 18  1  6  0  0  0
 19 17  1  0  0  0  0
 20 16  1  0  0  0  0
 21 20  1  0  0  0  0
 22 21  1  0  0  0  0
 23 22  1  1  0  0  0
 24 23  1  0  0  0  0
 25 27  1  0  0  0  0
 26 28  1  6  0  0  0
 26 25  1  0  0  0  0
 26 29  1  0  0  0  0
 27 23  1  0  0  0  0
 29 24  1  0  0  0  0
 31 33  1  0  0  0  0
 32 34  1  0  0  0  0
 33 30  1  0  0  0  0
 34 33  1  0  0  0  0
 35 31  1  0  0  0  0
 36 34  1  0  0  0  0
 37 34  1  0  0  0  0
 37 35  1  0  0  0  0
 39 38  1  0  0  0  0
 40 39  1  0  0  0  0
 41 42  2  0  0  0  0
 41 40  1  0  0  0  0
 43 47  1  0  0  0  0
 45 48  1  0  0  0  0
 46 43  1  0  0  0  0
 46 48  2  0  0  0  0
 47 44  2  0  0  0  0
 47 42  1  0  0  0  0
 48 44  1  0  0  0  0
 49 50  1  0  0  0  0
 50 41  1  1  0  0  0
 51 54  1  6  0  0  0
 51 53  1  0  0  0  0
 51 52  1  0  0  0  0
 52 50  1  0  0  0  0
 53 49  1  0  0  0  0
 55 56  2  0  0  0  0
 56 54  1  0  0  0  0
 57 55  1  0  0  0  0
 58 59  1  0  0  0  0
 59 60  1  6  0  0  0
 59 57  1  0  0  0  0
M  END
>  <MODEL>
3

>  <REMARK>
 VINA RESULT:      -2.6      2.852      7.401
  Name = 
  24 active torsions:
  status: ('A' for Active; 'I' for Inactive)
    1  A    between atoms: C_2  and  C_16
    2  A    between atoms: C_2  and  O_24
    3  A    between atoms: C_2  and  C_48
    4  A    between atoms: C_5  and  C_25
    5  A    between atoms: C_7  and  C_29
    6  A    between atoms: C_7  and  C_35
    7  A    between atoms: C_10  and  C_12
    8  A    between atoms: C_10  and  C_50
    9  A    between atoms: C_14  and  C_27
   10  A    between atoms: C_14  and  C_30
   11  A    between atoms: C_15  and  C_25
   12  A    between atoms: C_16  and  C_27
   13  A    between atoms: C_17  and  C_23
   14  A    between atoms: C_17  and  C_39
   15  A    between atoms: C_17  and  C_59
   16  A    between atoms: C_18  and  C_19
   17  A    between atoms: C_18  and  C_40
   18  A    between atoms: C_19  and  C_35
   19  A    between atoms: C_21  and  C_60
   20  A    between atoms: O_24  and  C_50
   21  A    between atoms: N_34  and  C_55
   22  A    between atoms: N_36  and  C_39
   23  A    between atoms: C_37  and  C_44
   24  A    between atoms: C_41  and  C_55
                            x       y       z     vdW  Elec       q    Type
                         _______ _______ _______ _____ _____    ______ ____

>  <TORSDO>
F 24

$$$$
