=
 OpenBabel11072414113D

 28 31  0  0  1  0  0  0  0  0999 V2000
  161.4900  199.1010  146.9780 C   0  0  0  0  0  3  0  0  0  0  0  0
  161.4940  200.2200  147.8100 C   0  0  0  0  0  3  0  0  0  0  0  0
  161.5340  201.6970  150.5020 C   0  0  0  0  0  1  0  0  0  0  0  0
  162.2160  204.4340  146.6960 C   0  0  1  0  0  3  0  0  0  0  0  0
  161.1620  202.6530  148.2250 C   0  0  0  0  0  0  0  0  0  0  0  0
  161.1220  199.2500  145.6430 C   0  0  0  0  0  3  0  0  0  0  0  0
  160.6690  202.6270  149.6430 C   0  0  2  0  0  3  0  0  0  0  0  0
  160.7400  201.5760  145.9650 C   0  0  0  0  0  0  0  0  0  0  0  0
  160.6630  204.0500  150.0760 N   0  0  0  0  0  0  0  0  0  0  0  0
  160.2190  203.1310  145.2570 S   0  0  0  0  0  0  0  0  0  0  0  0
  161.5360  203.8970  147.9420 C   0  0  0  0  0  0  0  0  0  0  0  0
  160.7580  200.4710  145.1700 N   0  0  0  0  0  0  0  0  0  0  0  0
  161.9290  203.7210  145.3660 C   0  0  0  0  0  2  0  0  0  0  0  0
  161.2890  204.7020  149.0360 O   0  0  0  0  0  0  0  0  0  0  0  0
  161.1370  201.4800  147.3140 C   0  0  0  0  0  0  0  0  0  0  0  0
  162.6650  206.6880  147.8010 C   0  0  0  0  0  1  0  0  0  0  0  0
  162.0930  205.9610  146.5920 C   0  0  2  0  0  3  0  0  0  0  0  0
  159.9110  206.6330  147.2690 O   0  0  0  0  0  1  0  0  0  0  0  0
  160.2480  206.5590  145.0040 O   0  0  0  0  0  0  0  0  0  0  0  0
  160.6910  206.3930  146.3120 C   0  0  0  0  0  0  0  0  0  0  0  0
  161.4390  204.3280  151.2860 C   0  0  0  0  0  2  0  0  0  0  0  0
  161.7790  208.1410  152.0160 C   0  0  0  0  0  2  0  0  0  0  0  0
  161.1570  206.8020  154.0370 C   0  0  0  0  0  3  0  0  0  0  0  0
  161.0360  205.6710  151.8710 C   0  0  1  0  0  3  0  0  0  0  0  0
  160.9170  208.0790  153.2860 C   0  0  1  0  0  3  0  0  0  0  0  0
  161.2120  205.6510  153.3610 C   0  0  0  0  0  3  0  0  0  0  0  0
  161.8680  206.8040  151.2480 C   0  0  0  0  0  2  0  0  0  0  0  0
  161.1920  209.1640  154.0960 F   0  0  0  0  0  0  0  0  0  0  0  0
  1  2  1  0  0  0  0
  4 17  1  6  0  0  0
  4 11  1  0  0  0  0
  5  7  1  0  0  0  0
  6  1  2  0  0  0  0
  7  9  1  0  0  0  0
  7  3  1  1  0  0  0
  8 15  1  0  0  0  0
  9 21  1  0  0  0  0
 10 13  1  0  0  0  0
 10  8  1  0  0  0  0
 11  5  2  0  0  0  0
 11 14  1  0  0  0  0
 12  6  1  0  0  0  0
 12  8  2  0  0  0  0
 13  4  1  0  0  0  0
 14  9  1  0  0  0  0
 15  2  2  0  0  0  0
 15  5  1  0  0  0  0
 17 16  1  1  0  0  0
 19 20  2  0  0  0  0
 20 17  1  0  0  0  0
 20 18  1  0  0  0  0
 22 25  1  0  0  0  0
 24 21  1  6  0  0  0
 24 26  1  0  0  0  0
 25 23  1  0  0  0  0
 25 28  1  1  0  0  0
 26 23  2  0  0  0  0
 27 24  1  0  0  0  0
 27 22  1  0  0  0  0
M  END
>  <MODEL>
1

>  <REMARK>
 VINA RESULT:      -8.5      0.000      0.000
  Name = 
  4 active torsions:
  status: ('A' for Active; 'I' for Inactive)
    1  A    between atoms: C_6  and  C_11
    2  A    between atoms: C_7  and  C_8
    3  A    between atoms: C_7  and  N_20
    4  A    between atoms: C_11  and  C_18
                            x       y       z     vdW  Elec       q    Type
                         _______ _______ _______ _____ _____    ______ ____

>  <TORSDO>
F 4

$$$$
=
 OpenBabel11072414113D

 28 31  0  0  1  0  0  0  0  0999 V2000
  160.2350  213.3690  150.3950 C   0  0  0  0  0  3  0  0  0  0  0  0
  160.6520  212.1080  150.8190 C   0  0  0  0  0  3  0  0  0  0  0  0
  162.0220  209.3760  150.5260 C   0  0  0  0  0  1  0  0  0  0  0  0
  160.7280  210.5150  154.9390 C   0  0  1  0  0  3  0  0  0  0  0  0
  160.5700  210.1800  152.3940 C   0  0  0  0  0  0  0  0  0  0  0  0
  159.2530  214.0390  151.1210 C   0  0  0  0  0  3  0  0  0  0  0  0
  160.8450  209.0430  151.4530 C   0  0  2  0  0  3  0  0  0  0  0  0
  159.0820  212.2210  152.6460 C   0  0  0  0  0  0  0  0  0  0  0  0
  161.0550  207.8580  152.3270 N   0  0  0  0  0  0  0  0  0  0  0  0
  158.2800  211.5300  154.0840 S   0  0  0  0  0  0  0  0  0  0  0  0
  160.7550  209.7400  153.6340 C   0  0  0  0  0  0  0  0  0  0  0  0
  158.7030  213.4570  152.2190 N   0  0  0  0  0  0  0  0  0  0  0  0
  159.8190  211.7500  155.0140 C   0  0  0  0  0  2  0  0  0  0  0  0
  161.0840  208.4000  153.5940 O   0  0  0  0  0  0  0  0  0  0  0  0
  160.0960  211.5190  151.9630 C   0  0  0  0  0  0  0  0  0  0  0  0
  159.7210  210.1910  157.2610 C   0  0  0  0  0  1  0  0  0  0  0  0
  160.5700  209.5840  156.1510 C   0  0  2  0  0  3  0  0  0  0  0  0
  162.0630  207.8900  156.9070 O   0  0  0  0  0  1  0  0  0  0  0  0
  162.9330  210.0080  156.8700 O   0  0  0  0  0  0  0  0  0  0  0  0
  161.8880  209.1130  156.6720 C   0  0  0  0  0  0  0  0  0  0  0  0
  162.3290  207.1650  152.1290 C   0  0  0  0  0  2  0  0  0  0  0  0
  160.8520  204.5840  149.6110 C   0  0  0  0  0  2  0  0  0  0  0  0
  160.6840  203.8410  151.9950 C   0  0  0  0  0  3  0  0  0  0  0  0
  162.0900  205.7890  151.5310 C   0  0  1  0  0  3  0  0  0  0  0  0
  160.9740  203.4050  150.5890 C   0  0  1  0  0  3  0  0  0  0  0  0
  161.2190  204.9800  152.4460 C   0  0  0  0  0  3  0  0  0  0  0  0
  161.4440  205.9080  150.1420 C   0  0  0  0  0  2  0  0  0  0  0  0
  160.1080  202.3940  150.2190 F   0  0  0  0  0  0  0  0  0  0  0  0
  1  2  2  0  0  0  0
  1  6  1  0  0  0  0
  2 15  1  0  0  0  0
  4 13  1  0  0  0  0
  4 17  1  1  0  0  0
  5 11  2  0  0  0  0
  6 12  2  0  0  0  0
  7  3  1  1  0  0  0
  7  9  1  0  0  0  0
  7  5  1  0  0  0  0
  8 10  1  0  0  0  0
  9 14  1  0  0  0  0
 10 13  1  0  0  0  0
 11  4  1  0  0  0  0
 12  8  1  0  0  0  0
 14 11  1  0  0  0  0
 15  5  1  0  0  0  0
 15  8  2  0  0  0  0
 17 20  1  0  0  0  0
 17 16  1  1  0  0  0
 20 19  2  0  0  0  0
 20 18  1  0  0  0  0
 21  9  1  0  0  0  0
 22 27  1  0  0  0  0
 22 25  1  0  0  0  0
 23 26  2  0  0  0  0
 24 21  1  1  0  0  0
 24 26  1  0  0  0  0
 25 28  1  6  0  0  0
 25 23  1  0  0  0  0
 27 24  1  0  0  0  0
M  END
>  <MODEL>
2

>  <REMARK>
 VINA RESULT:      -8.1      5.193      9.595
  Name = 
  4 active torsions:
  status: ('A' for Active; 'I' for Inactive)
    1  A    between atoms: C_6  and  C_11
    2  A    between atoms: C_7  and  C_8
    3  A    between atoms: C_7  and  N_20
    4  A    between atoms: C_11  and  C_18
                            x       y       z     vdW  Elec       q    Type
                         _______ _______ _______ _____ _____    ______ ____

>  <TORSDO>
F 4

$$$$
=
 OpenBabel11072414113D

 28 31  0  0  1  0  0  0  0  0999 V2000
  162.0310  212.0370  148.9960 C   0  0  0  0  0  3  0  0  0  0  0  0
  161.9510  210.7840  149.6000 C   0  0  0  0  0  3  0  0  0  0  0  0
  162.2780  207.7340  149.7570 C   0  0  0  0  0  1  0  0  0  0  0  0
  161.2420  209.8600  153.8620 C   0  0  1  0  0  3  0  0  0  0  0  0
  161.1090  209.2440  151.3680 C   0  0  0  0  0  0  0  0  0  0  0  0
  161.3130  213.1000  149.5410 C   0  0  0  0  0  3  0  0  0  0  0  0
  161.0130  207.9610  150.5940 C   0  0  2  0  0  3  0  0  0  0  0  0
  160.4300  211.6870  151.2390 C   0  0  0  0  0  0  0  0  0  0  0  0
  160.7430  206.9130  151.6140 N   0  0  0  0  0  0  0  0  0  0  0  0
  159.3600  211.5240  152.6600 S   0  0  0  0  0  0  0  0  0  0  0  0
  161.0610  208.9470  152.6620 C   0  0  0  0  0  0  0  0  0  0  0  0
  160.5360  212.9040  150.6390 N   0  0  0  0  0  0  0  0  0  0  0  0
  160.8270  211.3300  153.7060 C   0  0  0  0  0  2  0  0  0  0  0  0
  160.8950  207.5850  152.8080 O   0  0  0  0  0  0  0  0  0  0  0  0
  161.1640  210.5900  150.7430 C   0  0  0  0  0  0  0  0  0  0  0  0
  159.5240  209.9830  155.7440 C   0  0  0  0  0  1  0  0  0  0  0  0
  160.7020  209.2220  155.1500 C   0  0  2  0  0  3  0  0  0  0  0  0
  162.6100  209.9240  156.3910 O   0  0  0  0  0  0  0  0  0  0  0  0
  161.8500  207.8190  156.8810 O   0  0  0  0  0  1  0  0  0  0  0  0
  161.7770  209.0080  156.1640 C   0  0  0  0  0  0  0  0  0  0  0  0
  161.6980  205.8020  151.6220 C   0  0  0  0  0  2  0  0  0  0  0  0
  161.2640  201.9680  151.0800 C   0  0  0  0  0  2  0  0  0  0  0  0
  160.9720  203.2990  148.9810 C   0  0  0  0  0  3  0  0  0  0  0  0
  161.0410  204.5420  151.0880 C   0  0  1  0  0  3  0  0  0  0  0  0
  160.4600  202.1380  149.7830 C   0  0  1  0  0  3  0  0  0  0  0  0
  161.2480  204.4490  149.6050 C   0  0  0  0  0  3  0  0  0  0  0  0
  161.6090  203.2970  151.7870 C   0  0  0  0  0  2  0  0  0  0  0  0
  160.5240  200.9800  149.0320 F   0  0  0  0  0  0  0  0  0  0  0  0
  1  6  2  0  0  0  0
  1  2  1  0  0  0  0
  2 15  2  0  0  0  0
  4 17  1  1  0  0  0
  5 11  2  0  0  0  0
  6 12  1  0  0  0  0
  7  3  1  1  0  0  0
  7  5  1  0  0  0  0
  7  9  1  0  0  0  0
  8 10  1  0  0  0  0
  9 21  1  0  0  0  0
  9 14  1  0  0  0  0
 10 13  1  0  0  0  0
 11 14  1  0  0  0  0
 11  4  1  0  0  0  0
 12  8  2  0  0  0  0
 13  4  1  0  0  0  0
 15  8  1  0  0  0  0
 15  5  1  0  0  0  0
 17 16  1  1  0  0  0
 17 20  1  0  0  0  0
 20 18  2  0  0  0  0
 20 19  1  0  0  0  0
 22 27  1  0  0  0  0
 23 26  2  0  0  0  0
 23 25  1  0  0  0  0
 24 21  1  1  0  0  0
 24 27  1  0  0  0  0
 25 28  1  6  0  0  0
 25 22  1  0  0  0  0
 26 24  1  0  0  0  0
M  END
>  <MODEL>
3

>  <REMARK>
 VINA RESULT:      -8.0      4.755      8.890
  Name = 
  4 active torsions:
  status: ('A' for Active; 'I' for Inactive)
    1  A    between atoms: C_6  and  C_11
    2  A    between atoms: C_7  and  C_8
    3  A    between atoms: C_7  and  N_20
    4  A    between atoms: C_11  and  C_18
                            x       y       z     vdW  Elec       q    Type
                         _______ _______ _______ _____ _____    ______ ____

>  <TORSDO>
F 4

$$$$
=
 OpenBabel11072414113D

 28 31  0  0  1  0  0  0  0  0999 V2000
  160.8510  208.4770  152.5180 C   0  0  0  0  0  3  0  0  0  0  0  0
  160.8050  207.1840  151.9990 C   0  0  0  0  0  3  0  0  0  0  0  0
  160.3430  204.1490  152.1030 C   0  0  0  0  0  1  0  0  0  0  0  0
  160.9300  205.9480  147.7590 C   0  0  1  0  0  3  0  0  0  0  0  0
  161.3550  205.4920  150.2550 C   0  0  0  0  0  0  0  0  0  0  0  0
  161.5340  209.4660  151.8130 C   0  0  0  0  0  3  0  0  0  0  0  0
  161.5000  204.2600  151.1010 C   0  0  2  0  0  3  0  0  0  0  0  0
  162.1400  207.9030  150.1240 C   0  0  0  0  0  0  0  0  0  0  0  0
  161.5960  203.1350  150.1330 N   0  0  0  0  0  0  0  0  0  0  0  0
  163.0120  207.5970  148.5970 S   0  0  0  0  0  0  0  0  0  0  0  0
  161.2270  205.1090  148.9890 C   0  0  0  0  0  0  0  0  0  0  0  0
  162.1580  209.1610  150.6440 N   0  0  0  0  0  0  0  0  0  0  0  0
  161.4190  207.4040  147.7570 C   0  0  0  0  0  2  0  0  0  0  0  0
  161.3200  203.7330  148.9230 O   0  0  0  0  0  0  0  0  0  0  0  0
  161.4320  206.8770  150.7850 C   0  0  0  0  0  0  0  0  0  0  0  0
  162.7770  205.0820  146.2280 C   0  0  0  0  0  1  0  0  0  0  0  0
  161.2770  205.2010  146.4630 C   0  0  2  0  0  3  0  0  0  0  0  0
  159.3830  206.1440  145.3690 O   0  0  0  0  0  1  0  0  0  0  0  0
  161.2670  205.9690  144.0770 O   0  0  0  0  0  0  0  0  0  0  0  0
  160.5860  205.7870  145.2760 C   0  0  0  0  0  0  0  0  0  0  0  0
  160.6060  202.0730  150.3220 C   0  0  0  0  0  2  0  0  0  0  0  0
  161.8420  199.9190  147.3190 C   0  0  0  0  0  2  0  0  0  0  0  0
  160.1850  201.6740  146.6570 C   0  0  0  0  0  3  0  0  0  0  0  0
  160.4660  201.2530  149.0510 C   0  0  1  0  0  3  0  0  0  0  0  0
  160.6250  200.2550  146.4450 C   0  0  1  0  0  3  0  0  0  0  0  0
  160.1080  202.1510  147.9040 C   0  0  0  0  0  3  0  0  0  0  0  0
  161.7680  200.4940  148.7510 C   0  0  0  0  0  2  0  0  0  0  0  0
  160.9290  200.0480  145.1130 F   0  0  0  0  0  0  0  0  0  0  0  0
  2  1  1  0  0  0  0
  4 17  1  6  0  0  0
  4 11  1  0  0  0  0
  5 15  1  0  0  0  0
  5  7  1  0  0  0  0
  6  1  2  0  0  0  0
  7  3  1  1  0  0  0
  8 12  2  0  0  0  0
  8 15  1  0  0  0  0
  9 21  1  0  0  0  0
  9  7  1  0  0  0  0
 10  8  1  0  0  0  0
 11  5  2  0  0  0  0
 12  6  1  0  0  0  0
 13  4  1  0  0  0  0
 13 10  1  0  0  0  0
 14 11  1  0  0  0  0
 14  9  1  0  0  0  0
 15  2  2  0  0  0  0
 17 16  1  6  0  0  0
 19 20  2  0  0  0  0
 20 18  1  0  0  0  0
 20 17  1  0  0  0  0
 22 27  1  0  0  0  0
 23 26  2  0  0  0  0
 24 21  1  1  0  0  0
 25 28  1  6  0  0  0
 25 23  1  0  0  0  0
 25 22  1  0  0  0  0
 26 24  1  0  0  0  0
 27 24  1  0  0  0  0
M  END
>  <MODEL>
4

>  <REMARK>
 VINA RESULT:      -7.6      3.146      6.584
  Name = 
  4 active torsions:
  status: ('A' for Active; 'I' for Inactive)
    1  A    between atoms: C_6  and  C_11
    2  A    between atoms: C_7  and  C_8
    3  A    between atoms: C_7  and  N_20
    4  A    between atoms: C_11  and  C_18
                            x       y       z     vdW  Elec       q    Type
                         _______ _______ _______ _____ _____    ______ ____

>  <TORSDO>
F 4

$$$$
=
 OpenBabel11072414113D

 28 31  0  0  1  0  0  0  0  0999 V2000
  160.6220  206.9520  156.6120 C   0  0  0  0  0  3  0  0  0  0  0  0
  160.6340  206.9120  155.2190 C   0  0  0  0  0  3  0  0  0  0  0  0
  160.5350  205.5560  152.4650 C   0  0  0  0  0  1  0  0  0  0  0  0
  160.1830  210.2800  152.3960 C   0  0  1  0  0  3  0  0  0  0  0  0
  161.0680  207.9390  152.9920 C   0  0  0  0  0  0  0  0  0  0  0  0
  161.0630  208.1040  157.2610 C   0  0  0  0  0  3  0  0  0  0  0  0
  161.4880  206.7300  152.2070 C   0  0  2  0  0  3  0  0  0  0  0  0
  161.5470  209.1430  155.1760 C   0  0  0  0  0  0  0  0  0  0  0  0
  161.5450  207.1880  150.7930 N   0  0  0  0  0  0  0  0  0  0  0  0
  162.1790  210.5740  154.3150 S   0  0  0  0  0  0  0  0  0  0  0  0
  160.7720  208.9070  152.1300 C   0  0  0  0  0  0  0  0  0  0  0  0
  161.5120  209.1630  156.5360 N   0  0  0  0  0  0  0  0  0  0  0  0
  160.4990  210.9410  153.7460 C   0  0  0  0  0  2  0  0  0  0  0  0
  161.0050  208.4550  150.8470 O   0  0  0  0  0  0  0  0  0  0  0  0
  161.0780  208.0120  154.4750 C   0  0  0  0  0  0  0  0  0  0  0  0
  161.8520  211.3920  150.8200 C   0  0  0  0  0  1  0  0  0  0  0  0
  160.3880  211.2290  151.2060 C   0  0  2  0  0  3  0  0  0  0  0  0
  160.3880  213.6100  151.2320 O   0  0  0  0  0  0  0  0  0  0  0  0
  158.4000  212.6300  151.8120 O   0  0  0  0  0  1  0  0  0  0  0  0
  159.7340  212.5530  151.4250 C   0  0  0  0  0  0  0  0  0  0  0  0
  160.7250  206.4110  149.8610 C   0  0  0  0  0  2  0  0  0  0  0  0
  161.9560  206.0050  146.1860 C   0  0  0  0  0  2  0  0  0  0  0  0
  161.6950  203.8230  147.3850 C   0  0  0  0  0  3  0  0  0  0  0  0
  161.5870  205.8590  148.7390 C   0  0  1  0  0  3  0  0  0  0  0  0
  162.5460  204.6080  146.4300 C   0  0  1  0  0  3  0  0  0  0  0  0
  161.2370  204.4210  148.4890 C   0  0  0  0  0  3  0  0  0  0  0  0
  161.4010  206.6850  147.4570 C   0  0  0  0  0  2  0  0  0  0  0  0
  162.6620  203.9290  145.2320 F   0  0  0  0  0  0  0  0  0  0  0  0
  1  6  1  0  0  0  0
  2  1  2  0  0  0  0
  4 17  1  6  0  0  0
  4 13  1  0  0  0  0
  5 15  1  0  0  0  0
  7  3  1  6  0  0  0
  7  5  1  0  0  0  0
  8 12  1  0  0  0  0
  9 14  1  0  0  0  0
  9  7  1  0  0  0  0
 10  8  1  0  0  0  0
 11  4  1  0  0  0  0
 11  5  2  0  0  0  0
 12  6  2  0  0  0  0
 13 10  1  0  0  0  0
 14 11  1  0  0  0  0
 15  8  2  0  0  0  0
 15  2  1  0  0  0  0
 17 16  1  1  0  0  0
 17 20  1  0  0  0  0
 18 20  2  0  0  0  0
 20 19  1  0  0  0  0
 21  9  1  0  0  0  0
 22 25  1  0  0  0  0
 22 27  1  0  0  0  0
 23 26  2  0  0  0  0
 24 21  1  1  0  0  0
 25 28  1  6  0  0  0
 25 23  1  0  0  0  0
 26 24  1  0  0  0  0
 27 24  1  0  0  0  0
M  END
>  <MODEL>
5

>  <REMARK>
 VINA RESULT:      -7.5      4.523      8.520
  Name = 
  4 active torsions:
  status: ('A' for Active; 'I' for Inactive)
    1  A    between atoms: C_6  and  C_11
    2  A    between atoms: C_7  and  C_8
    3  A    between atoms: C_7  and  N_20
    4  A    between atoms: C_11  and  C_18
                            x       y       z     vdW  Elec       q    Type
                         _______ _______ _______ _____ _____    ______ ____

>  <TORSDO>
F 4

$$$$
=
 OpenBabel11072414113D

 28 31  0  0  1  0  0  0  0  0999 V2000
  159.9570  209.9180  155.2960 C   0  0  0  0  0  3  0  0  0  0  0  0
  160.2190  208.7260  154.6230 C   0  0  0  0  0  3  0  0  0  0  0  0
  160.2790  205.6760  154.2670 C   0  0  0  0  0  1  0  0  0  0  0  0
  161.2230  208.1770  150.3550 C   0  0  1  0  0  3  0  0  0  0  0  0
  161.3210  207.4190  152.8120 C   0  0  0  0  0  0  0  0  0  0  0  0
  160.5610  211.0930  154.8530 C   0  0  0  0  0  3  0  0  0  0  0  0
  161.5420  206.1080  153.5110 C   0  0  2  0  0  3  0  0  0  0  0  0
  161.6870  209.9120  153.1220 C   0  0  0  0  0  0  0  0  0  0  0  0
  161.9840  205.1700  152.4450 N   0  0  0  0  0  0  0  0  0  0  0  0
  162.8290  209.9730  151.7510 S   0  0  0  0  0  0  0  0  0  0  0  0
  161.4630  207.2160  151.5060 C   0  0  0  0  0  0  0  0  0  0  0  0
  161.4040  211.0650  153.7880 N   0  0  0  0  0  0  0  0  0  0  0  0
  161.4460  209.6730  150.6210 C   0  0  0  0  0  2  0  0  0  0  0  0
  161.8020  205.8960  151.2880 O   0  0  0  0  0  0  0  0  0  0  0  0
  161.0730  208.7040  153.5130 C   0  0  0  0  0  0  0  0  0  0  0  0
  162.5040  208.8290  148.2480 C   0  0  0  0  0  1  0  0  0  0  0  0
  161.8950  207.6950  149.0610 C   0  0  2  0  0  3  0  0  0  0  0  0
  159.8470  206.5400  148.6810 O   0  0  0  0  0  1  0  0  0  0  0  0
  161.3410  206.4690  146.9460 O   0  0  0  0  0  0  0  0  0  0  0  0
  160.9750  206.8640  148.2280 C   0  0  0  0  0  0  0  0  0  0  0  0
  161.1760  203.9550  152.3210 C   0  0  0  0  0  2  0  0  0  0  0  0
  160.7590  203.0090  148.5650 C   0  0  0  0  0  2  0  0  0  0  0  0
  161.1280  201.0250  150.0450 C   0  0  0  0  0  3  0  0  0  0  0  0
  161.5080  203.2340  151.0260 C   0  0  1  0  0  3  0  0  0  0  0  0
  161.4600  201.6510  148.7220 C   0  0  1  0  0  3  0  0  0  0  0  0
  161.1520  201.7820  151.1470 C   0  0  0  0  0  3  0  0  0  0  0  0
  160.7600  203.8720  149.8450 C   0  0  0  0  0  2  0  0  0  0  0  0
  161.0910  200.8070  147.6930 F   0  0  0  0  0  0  0  0  0  0  0  0
  2  1  2  0  0  0  0
  4 17  1  6  0  0  0
  4 13  1  0  0  0  0
  4 11  1  0  0  0  0
  5  7  1  0  0  0  0
  5 15  1  0  0  0  0
  6  1  1  0  0  0  0
  7  3  1  6  0  0  0
  8 15  2  0  0  0  0
  8 12  1  0  0  0  0
  9  7  1  0  0  0  0
 10  8  1  0  0  0  0
 11  5  2  0  0  0  0
 12  6  2  0  0  0  0
 13 10  1  0  0  0  0
 14 11  1  0  0  0  0
 14  9  1  0  0  0  0
 15  2  1  0  0  0  0
 17 16  1  6  0  0  0
 19 20  2  0  0  0  0
 20 18  1  0  0  0  0
 20 17  1  0  0  0  0
 21  9  1  0  0  0  0
 22 25  1  0  0  0  0
 22 27  1  0  0  0  0
 23 26  2  0  0  0  0
 24 26  1  0  0  0  0
 24 21  1  1  0  0  0
 25 28  1  6  0  0  0
 25 23  1  0  0  0  0
 27 24  1  0  0  0  0
M  END
>  <MODEL>
6

>  <REMARK>
 VINA RESULT:      -7.0      3.710      7.535
  Name = 
  4 active torsions:
  status: ('A' for Active; 'I' for Inactive)
    1  A    between atoms: C_6  and  C_11
    2  A    between atoms: C_7  and  C_8
    3  A    between atoms: C_7  and  N_20
    4  A    between atoms: C_11  and  C_18
                            x       y       z     vdW  Elec       q    Type
                         _______ _______ _______ _____ _____    ______ ____

>  <TORSDO>
F 4

$$$$
=
 OpenBabel11072414113D

 28 31  0  0  1  0  0  0  0  0999 V2000
  159.7100  201.6360  144.4860 C   0  0  0  0  0  3  0  0  0  0  0  0
  160.1210  202.7470  145.2210 C   0  0  0  0  0  3  0  0  0  0  0  0
  160.6990  205.7270  145.6860 C   0  0  0  0  0  1  0  0  0  0  0  0
  160.8200  203.0230  149.5740 C   0  0  1  0  0  3  0  0  0  0  0  0
  161.2740  203.7960  147.1630 C   0  0  0  0  0  0  0  0  0  0  0  0
  160.0500  200.3620  144.9380 C   0  0  0  0  0  3  0  0  0  0  0  0
  161.7900  205.0570  146.5310 C   0  0  2  0  0  3  0  0  0  0  0  0
  161.2100  201.2850  146.7980 C   0  0  0  0  0  0  0  0  0  0  0  0
  162.2960  205.8790  147.6620 N   0  0  0  0  0  0  0  0  0  0  0  0
  162.1950  200.9900  148.2590 S   0  0  0  0  0  0  0  0  0  0  0  0
  161.3320  203.9460  148.4820 C   0  0  0  0  0  0  0  0  0  0  0  0
  160.7850  200.2150  146.0710 N   0  0  0  0  0  0  0  0  0  0  0  0
  160.7920  201.5160  149.2770 C   0  0  0  0  0  2  0  0  0  0  0  0
  161.8830  205.1770  148.7740 O   0  0  0  0  0  0  0  0  0  0  0  0
  160.8620  202.5920  146.3990 C   0  0  0  0  0  0  0  0  0  0  0  0
  161.7080  202.1120  151.7850 C   0  0  0  0  0  1  0  0  0  0  0  0
  161.4490  203.3500  150.9370 C   0  0  2  0  0  3  0  0  0  0  0  0
  159.5310  204.7260  151.2570 O   0  0  0  0  0  0  0  0  0  0  0  0
  161.1380  204.9030  152.8800 O   0  0  0  0  0  1  0  0  0  0  0  0
  160.6570  204.3680  151.6900 C   0  0  0  0  0  0  0  0  0  0  0  0
  161.7120  207.2180  147.7590 C   0  0  0  0  0  2  0  0  0  0  0  0
  161.1990  208.3250  151.4600 C   0  0  0  0  0  2  0  0  0  0  0  0
  162.1950  210.1180  150.0240 C   0  0  0  0  0  3  0  0  0  0  0  0
  162.0930  207.8620  149.0810 C   0  0  1  0  0  3  0  0  0  0  0  0
  162.2320  209.4580  151.3730 C   0  0  1  0  0  3  0  0  0  0  0  0
  162.1300  209.3540  148.9290 C   0  0  0  0  0  3  0  0  0  0  0  0
  161.1020  207.4600  150.1840 C   0  0  0  0  0  2  0  0  0  0  0  0
  161.9940  210.3920  152.3630 F   0  0  0  0  0  0  0  0  0  0  0  0
  1  6  2  0  0  0  0
  1  2  1  0  0  0  0
  2 15  2  0  0  0  0
  4 17  1  1  0  0  0
  5 11  2  0  0  0  0
  6 12  1  0  0  0  0
  7  3  1  1  0  0  0
  7  5  1  0  0  0  0
  7  9  1  0  0  0  0
  8 10  1  0  0  0  0
  9 21  1  0  0  0  0
  9 14  1  0  0  0  0
 10 13  1  0  0  0  0
 11 14  1  0  0  0  0
 11  4  1  0  0  0  0
 12  8  2  0  0  0  0
 13  4  1  0  0  0  0
 15  8  1  0  0  0  0
 15  5  1  0  0  0  0
 17 20  1  0  0  0  0
 17 16  1  1  0  0  0
 18 20  2  0  0  0  0
 20 19  1  0  0  0  0
 23 25  1  0  0  0  0
 24 21  1  6  0  0  0
 24 27  1  0  0  0  0
 25 22  1  0  0  0  0
 25 28  1  1  0  0  0
 26 24  1  0  0  0  0
 26 23  2  0  0  0  0
 27 22  1  0  0  0  0
M  END
>  <MODEL>
7

>  <REMARK>
 VINA RESULT:      -6.8      1.963      4.033
  Name = 
  4 active torsions:
  status: ('A' for Active; 'I' for Inactive)
    1  A    between atoms: C_6  and  C_11
    2  A    between atoms: C_7  and  C_8
    3  A    between atoms: C_7  and  N_20
    4  A    between atoms: C_11  and  C_18
                            x       y       z     vdW  Elec       q    Type
                         _______ _______ _______ _____ _____    ______ ____

>  <TORSDO>
F 4

$$$$
=
 OpenBabel11072414113D

 28 31  0  0  1  0  0  0  0  0999 V2000
  161.6760  205.6520  153.3940 C   0  0  0  0  0  3  0  0  0  0  0  0
  161.8410  206.5910  152.3770 C   0  0  0  0  0  3  0  0  0  0  0  0
  162.3930  209.3800  151.2140 C   0  0  0  0  0  1  0  0  0  0  0  0
  162.3620  205.8520  148.0520 C   0  0  1  0  0  3  0  0  0  0  0  0
  161.6050  207.3370  150.0120 C   0  0  0  0  0  0  0  0  0  0  0  0
  161.0650  204.4350  153.1000 C   0  0  0  0  0  3  0  0  0  0  0  0
  161.3860  208.8090  150.2070 C   0  0  2  0  0  3  0  0  0  0  0  0
  160.7610  205.0870  150.8330 C   0  0  0  0  0  0  0  0  0  0  0  0
  161.4680  209.3960  148.8430 N   0  0  0  0  0  0  0  0  0  0  0  0
  160.1240  204.6710  149.2170 S   0  0  0  0  0  0  0  0  0  0  0  0
  161.9250  207.1340  148.7380 C   0  0  0  0  0  0  0  0  0  0  0  0
  160.6240  204.1820  151.8400 N   0  0  0  0  0  0  0  0  0  0  0  0
  161.8270  204.5260  148.6140 C   0  0  0  0  0  2  0  0  0  0  0  0
  161.8910  208.3390  148.0670 O   0  0  0  0  0  0  0  0  0  0  0  0
  161.4040  206.3190  151.0740 C   0  0  0  0  0  0  0  0  0  0  0  0
  160.8140  206.2820  146.0710 C   0  0  0  0  0  1  0  0  0  0  0  0
  162.2280  205.9480  146.5250 C   0  0  2  0  0  3  0  0  0  0  0  0
  163.9810  204.4860  145.8440 O   0  0  0  0  0  1  0  0  0  0  0  0
  161.8740  203.8380  145.2190 O   0  0  0  0  0  0  0  0  0  0  0  0
  162.7460  204.7270  145.8390 C   0  0  0  0  0  0  0  0  0  0  0  0
  162.4590  210.4640  148.6900 C   0  0  0  0  0  2  0  0  0  0  0  0
  159.9960  213.4550  149.1050 C   0  0  0  0  0  2  0  0  0  0  0  0
  159.9750  212.4740  146.8020 C   0  0  0  0  0  3  0  0  0  0  0  0
  161.7750  211.7630  148.3010 C   0  0  1  0  0  3  0  0  0  0  0  0
  159.9340  213.7460  147.5980 C   0  0  1  0  0  3  0  0  0  0  0  0
  160.8570  211.5260  147.1380 C   0  0  0  0  0  3  0  0  0  0  0  0
  160.9930  212.3410  149.4910 C   0  0  0  0  0  2  0  0  0  0  0  0
  158.7840  214.4520  147.3010 F   0  0  0  0  0  0  0  0  0  0  0  0
  2  1  2  0  0  0  0
  4 17  1  6  0  0  0
  4 13  1  0  0  0  0
  4 11  1  0  0  0  0
  5  7  1  0  0  0  0
  5 15  1  0  0  0  0
  6  1  1  0  0  0  0
  7  3  1  1  0  0  0
  8 15  2  0  0  0  0
  8 12  1  0  0  0  0
  9  7  1  0  0  0  0
 10  8  1  0  0  0  0
 11  5  2  0  0  0  0
 12  6  2  0  0  0  0
 13 10  1  0  0  0  0
 14 11  1  0  0  0  0
 14  9  1  0  0  0  0
 15  2  1  0  0  0  0
 17 16  1  1  0  0  0
 19 20  2  0  0  0  0
 20 18  1  0  0  0  0
 20 17  1  0  0  0  0
 21  9  1  0  0  0  0
 22 27  1  0  0  0  0
 23 26  2  0  0  0  0
 23 25  1  0  0  0  0
 24 21  1  1  0  0  0
 24 27  1  0  0  0  0
 25 28  1  1  0  0  0
 25 22  1  0  0  0  0
 26 24  1  0  0  0  0
M  END
>  <MODEL>
8

>  <REMARK>
 VINA RESULT:      -6.5      3.828      6.258
  Name = 
  4 active torsions:
  status: ('A' for Active; 'I' for Inactive)
    1  A    between atoms: C_6  and  C_11
    2  A    between atoms: C_7  and  C_8
    3  A    between atoms: C_7  and  N_20
    4  A    between atoms: C_11  and  C_18
                            x       y       z     vdW  Elec       q    Type
                         _______ _______ _______ _____ _____    ______ ____

>  <TORSDO>
F 4

$$$$
=
 OpenBabel11072414113D

 28 31  0  0  1  0  0  0  0  0999 V2000
  160.4110  206.8430  154.8920 C   0  0  0  0  0  3  0  0  0  0  0  0
  160.7310  207.6220  153.7810 C   0  0  0  0  0  3  0  0  0  0  0  0
  161.8330  208.1480  150.9630 C   0  0  0  0  0  1  0  0  0  0  0  0
  159.4140  211.7420  152.8810 C   0  0  1  0  0  3  0  0  0  0  0  0
  161.1110  209.8200  152.6730 C   0  0  0  0  0  0  0  0  0  0  0  0
  160.1400  207.4700  156.1060 C   0  0  0  0  0  3  0  0  0  0  0  0
  162.1850  209.4530  151.6900 C   0  0  2  0  0  3  0  0  0  0  0  0
  160.5280  209.6070  155.1350 C   0  0  0  0  0  0  0  0  0  0  0  0
  162.3240  210.6410  150.8060 N   0  0  0  0  0  0  0  0  0  0  0  0
  160.6130  211.3760  155.3670 S   0  0  0  0  0  0  0  0  0  0  0  0
  160.6000  210.9900  152.3040 C   0  0  0  0  0  0  0  0  0  0  0  0
  160.2040  208.8250  156.2000 N   0  0  0  0  0  0  0  0  0  0  0  0
  159.1080  211.5510  154.3740 C   0  0  0  0  0  2  0  0  0  0  0  0
  161.2740  211.4460  151.1890 O   0  0  0  0  0  0  0  0  0  0  0  0
  160.7770  209.0190  153.8780 C   0  0  0  0  0  0  0  0  0  0  0  0
  158.8620  214.1460  153.5310 C   0  0  0  0  0  1  0  0  0  0  0  0
  159.4140  213.2180  152.4570 C   0  0  2  0  0  3  0  0  0  0  0  0
  159.0610  214.3860  150.4120 O   0  0  0  0  0  0  0  0  0  0  0  0
  157.7230  212.5540  150.7300 O   0  0  0  0  0  1  0  0  0  0  0  0
  158.7210  213.4270  151.1510 C   0  0  0  0  0  0  0  0  0  0  0  0
  162.1570  210.3680  149.3780 C   0  0  0  0  0  2  0  0  0  0  0  0
  160.5920  212.5600  146.5620 C   0  0  0  0  0  2  0  0  0  0  0  0
  162.9760  213.1430  147.0540 C   0  0  0  0  0  3  0  0  0  0  0  0
  161.8440  211.6540  148.6310 C   0  0  1  0  0  3  0  0  0  0  0  0
  161.6160  213.6920  146.7320 C   0  0  1  0  0  3  0  0  0  0  0  0
  163.0840  212.1700  147.9630 C   0  0  0  0  0  3  0  0  0  0  0  0
  160.7340  211.4210  147.5940 C   0  0  0  0  0  2  0  0  0  0  0  0
  161.6740  214.4530  145.5790 F   0  0  0  0  0  0  0  0  0  0  0  0
  1  6  1  0  0  0  0
  2 15  1  0  0  0  0
  2  1  2  0  0  0  0
  4 17  1  1  0  0  0
  4 13  1  0  0  0  0
  5 15  1  0  0  0  0
  6 12  2  0  0  0  0
  7  3  1  6  0  0  0
  7  5  1  0  0  0  0
  8 10  1  0  0  0  0
  8 12  1  0  0  0  0
  9 14  1  0  0  0  0
  9  7  1  0  0  0  0
 11  5  2  0  0  0  0
 11  4  1  0  0  0  0
 13 10  1  0  0  0  0
 14 11  1  0  0  0  0
 15  8  2  0  0  0  0
 17 16  1  1  0  0  0
 18 20  2  0  0  0  0
 19 20  1  0  0  0  0
 20 17  1  0  0  0  0
 21  9  1  0  0  0  0
 22 25  1  0  0  0  0
 22 27  1  0  0  0  0
 23 26  2  0  0  0  0
 24 21  1  6  0  0  0
 25 28  1  6  0  0  0
 25 23  1  0  0  0  0
 26 24  1  0  0  0  0
 27 24  1  0  0  0  0
M  END
>  <MODEL>
9

>  <REMARK>
 VINA RESULT:      -6.4      6.901      9.494
  Name = 
  4 active torsions:
  status: ('A' for Active; 'I' for Inactive)
    1  A    between atoms: C_6  and  C_11
    2  A    between atoms: C_7  and  C_8
    3  A    between atoms: C_7  and  N_20
    4  A    between atoms: C_11  and  C_18
                            x       y       z     vdW  Elec       q    Type
                         _______ _______ _______ _____ _____    ______ ____

>  <TORSDO>
F 4

$$$$
