=
 OpenBabel11072413463D

 29 33  0  0  1  0  0  0  0  0999 V2000
  160.4660  207.0830  155.6950 C   0  0  0  0  0  2  0  0  0  0  0  0
  160.6410  209.7370  153.2460 C   0  0  0  0  0  0  0  0  0  0  0  0
  160.7710  207.5520  149.5780 O   0  0  0  0  0  0  0  0  0  0  0  0
  160.9520  209.1160  151.8950 C   0  0  2  0  0  3  0  0  0  0  0  0
  160.3080  211.6680  154.8950 C   0  0  0  0  0  2  0  0  0  0  0  0
  160.6590  208.9540  154.3050 C   0  0  0  0  0  0  0  0  0  0  0  0
  160.8110  206.9140  150.6660 C   0  0  0  0  0  0  0  0  0  0  0  0
  159.9550  210.6690  155.8730 O   0  0  0  0  0  0  0  0  0  0  0  0
  160.8780  207.6260  151.9150 N   0  0  0  0  0  0  0  0  0  0  0  0
  160.7730  207.5470  154.3010 C   0  0  0  0  0  0  0  0  0  0  0  0
  160.2470  209.3380  155.5970 C   0  0  0  0  0  0  0  0  0  0  0  0
  160.1580  211.1620  153.4270 C   0  0  0  0  0  2  0  0  0  0  0  0
  160.8250  206.8790  153.1570 C   0  0  0  0  0  3  0  0  0  0  0  0
  160.1230  208.3350  156.4070 N   0  0  0  0  0  0  0  0  0  0  0  0
  161.1420  203.3710  149.2140 N   0  0  0  0  0  2  0  0  0  0  0  0
  161.7980  204.7450  151.5220 C   0  0  0  0  0  2  0  0  0  0  0  0
  161.5370  203.2390  151.6370 C   0  0  0  0  0  2  0  0  0  0  0  0
  160.7420  205.4100  150.6420 C   0  0  2  0  0  3  0  0  0  0  0  0
  160.6810  204.7710  149.2260 C   0  0  1  0  0  3  0  0  0  0  0  0
  160.7500  202.6850  150.4430 C   0  0  0  0  0  2  0  0  0  0  0  0
  161.4220  205.5800  148.1550 C   0  0  2  0  0  3  0  0  0  0  0  0
  162.2630  204.8480  146.1200 C   0  0  0  0  0  0  0  0  0  0  0  0
  163.0570  204.2670  145.2840 N   0  0  0  0  0  2  0  0  0  0  0  0
  160.4640  206.0410  147.0460 C   0  0  0  0  0  3  0  0  0  0  0  0
  162.4570  204.7870  147.5150 N   0  0  0  0  0  2  0  0  0  0  0  0
  161.0950  205.6480  145.7110 C   0  0  0  0  0  3  0  0  0  0  0  0
  162.3390  209.5540  151.4310 C   0  0  0  0  0  2  0  0  0  0  0  0
  162.2660  210.1540  149.1210 O   0  0  0  0  0  1  0  0  0  0  0  0
  162.2490  210.6780  150.4140 C   0  0  0  0  0  2  0  0  0  0  0  0
  1 14  1  0  0  0  0
  2 12  1  0  0  0  0
  2  6  2  0  0  0  0
  3  7  2  0  0  0  0
  4 27  1  1  0  0  0
  4  9  1  0  0  0  0
  4  2  1  0  0  0  0
  5  8  1  0  0  0  0
  6 11  1  0  0  0  0
  7  9  1  0  0  0  0
  9 13  1  0  0  0  0
 10  6  1  0  0  0  0
 10  1  1  0  0  0  0
 11  8  1  0  0  0  0
 11 14  2  0  0  0  0
 12  5  1  0  0  0  0
 13 10  2  0  0  0  0
 15 20  1  0  0  0  0
 16 17  1  0  0  0  0
 18  7  1  6  0  0  0
 18 16  1  0  0  0  0
 19 15  1  1  0  0  0
 19 18  1  0  0  0  0
 20 17  1  0  0  0  0
 21 24  1  6  0  0  0
 21 19  1  0  0  0  0
 22 25  1  0  0  0  0
 23 22  2  0  0  0  0
 25 21  1  0  0  0  0
 26 22  1  0  0  0  0
 26 24  2  0  0  0  0
 28 29  1  0  0  0  0
 29 27  1  0  0  0  0
M  END
>  <MODEL>
1

>  <REMARK>
 VINA RESULT:      -8.9      0.000      0.000
  Name = 
  4 active torsions:
  status: ('A' for Active; 'I' for Inactive)
    1  A    between atoms: C_1  and  C_15
    2  A    between atoms: C_7  and  C_12
    3  A    between atoms: C_7  and  C_25
    4  A    between atoms: C_11  and  C_17
                            x       y       z     vdW  Elec       q    Type
                         _______ _______ _______ _____ _____    ______ ____

>  <TORSDO>
F 4

$$$$
=
 OpenBabel11072413463D

 29 33  0  0  1  0  0  0  0  0999 V2000
  162.6960  210.2090  149.9030 C   0  0  0  0  0  2  0  0  0  0  0  0
  161.0570  207.0460  150.5190 C   0  0  0  0  0  0  0  0  0  0  0  0
  160.4820  207.1550  154.7510 O   0  0  0  0  0  0  0  0  0  0  0  0
  161.0140  206.8190  152.0210 C   0  0  2  0  0  3  0  0  0  0  0  0
  160.7710  206.3910  148.0600 C   0  0  0  0  0  2  0  0  0  0  0  0
  161.7280  208.0870  150.0710 C   0  0  0  0  0  0  0  0  0  0  0  0
  161.1370  208.0840  154.2030 C   0  0  0  0  0  0  0  0  0  0  0  0
  161.1590  207.7400  147.7360 O   0  0  0  0  0  0  0  0  0  0  0  0
  161.4390  208.0190  152.7980 N   0  0  0  0  0  0  0  0  0  0  0  0
  162.2810  209.1240  150.8530 C   0  0  0  0  0  0  0  0  0  0  0  0
  161.7390  208.5210  148.7310 C   0  0  0  0  0  0  0  0  0  0  0  0
  160.2460  206.2440  149.5220 C   0  0  0  0  0  2  0  0  0  0  0  0
  162.1070  209.1420  152.1670 C   0  0  0  0  0  3  0  0  0  0  0  0
  162.2640  209.6960  148.5830 N   0  0  0  0  0  0  0  0  0  0  0  0
  160.7930  211.5070  155.9170 N   0  0  0  0  0  2  0  0  0  0  0  0
  161.6920  208.9610  156.5130 C   0  0  0  0  0  2  0  0  0  0  0  0
  162.3330  210.1370  157.2580 C   0  0  0  0  0  2  0  0  0  0  0  0
  161.5550  209.2750  155.0250 C   0  0  2  0  0  3  0  0  0  0  0  0
  160.7330  210.5710  154.7800 C   0  0  1  0  0  3  0  0  0  0  0  0
  162.1130  211.4760  156.5430 C   0  0  0  0  0  2  0  0  0  0  0  0
  159.2730  210.3080  154.3890 C   0  0  2  0  0  3  0  0  0  0  0  0
  157.3550  211.3150  155.2210 C   0  0  0  0  0  0  0  0  0  0  0  0
  156.3930  211.5820  156.0400 N   0  0  0  0  0  2  0  0  0  0  0  0
  158.7820  211.3330  153.3550 C   0  0  0  0  0  3  0  0  0  0  0  0
  158.3920  210.4140  155.5390 N   0  0  0  0  0  2  0  0  0  0  0  0
  157.4600  211.8980  153.8720 C   0  0  0  0  0  3  0  0  0  0  0  0
  161.8970  205.6300  152.3900 C   0  0  0  0  0  2  0  0  0  0  0  0
  161.4630  203.4790  151.4470 O   0  0  0  0  0  1  0  0  0  0  0  0
  161.0870  204.3470  152.4730 C   0  0  0  0  0  2  0  0  0  0  0  0
  1 10  1  0  0  0  0
  2  4  1  0  0  0  0
  4 27  1  6  0  0  0
  4  9  1  0  0  0  0
  5 12  1  0  0  0  0
  6  2  2  0  0  0  0
  6 10  1  0  0  0  0
  7  3  2  0  0  0  0
  8  5  1  0  0  0  0
  8 11  1  0  0  0  0
  9  7  1  0  0  0  0
 10 13  2  0  0  0  0
 11  6  1  0  0  0  0
 12  2  1  0  0  0  0
 13  9  1  0  0  0  0
 14 11  2  0  0  0  0
 14  1  1  0  0  0  0
 15 20  1  0  0  0  0
 16 17  1  0  0  0  0
 18  7  1  6  0  0  0
 18 16  1  0  0  0  0
 19 18  1  0  0  0  0
 19 15  1  1  0  0  0
 20 17  1  0  0  0  0
 21 24  1  6  0  0  0
 21 19  1  0  0  0  0
 21 25  1  0  0  0  0
 22 25  1  0  0  0  0
 22 23  2  0  0  0  0
 24 26  2  0  0  0  0
 26 22  1  0  0  0  0
 27 29  1  0  0  0  0
 28 29  1  0  0  0  0
M  END
>  <MODEL>
2

>  <REMARK>
 VINA RESULT:      -8.3      2.535      7.780
  Name = 
  4 active torsions:
  status: ('A' for Active; 'I' for Inactive)
    1  A    between atoms: C_1  and  C_15
    2  A    between atoms: C_7  and  C_12
    3  A    between atoms: C_7  and  C_25
    4  A    between atoms: C_11  and  C_17
                            x       y       z     vdW  Elec       q    Type
                         _______ _______ _______ _____ _____    ______ ____

>  <TORSDO>
F 4

$$$$
=
 OpenBabel11072413463D

 29 33  0  0  1  0  0  0  0  0999 V2000
  160.6700  203.4620  151.6560 C   0  0  0  0  0  2  0  0  0  0  0  0
  161.3020  204.2240  148.1790 C   0  0  0  0  0  0  0  0  0  0  0  0
  162.3560  208.3600  148.3550 O   0  0  0  0  0  0  0  0  0  0  0  0
  161.4420  205.7300  148.0410 C   0  0  2  0  0  3  0  0  0  0  0  0
  161.0920  201.8200  147.3190 C   0  0  0  0  0  2  0  0  0  0  0  0
  160.9420  203.7420  149.3500 C   0  0  0  0  0  0  0  0  0  0  0  0
  161.9650  207.7880  149.4100 C   0  0  0  0  0  0  0  0  0  0  0  0
  161.1080  201.4080  148.7000 O   0  0  0  0  0  0  0  0  0  0  0  0
  161.5010  206.4270  149.3590 N   0  0  0  0  0  0  0  0  0  0  0  0
  160.8310  204.4690  150.5550 C   0  0  0  0  0  0  0  0  0  0  0  0
  160.9160  202.3730  149.6830 C   0  0  0  0  0  0  0  0  0  0  0  0
  161.7060  203.2380  147.1010 C   0  0  0  0  0  2  0  0  0  0  0  0
  161.1480  205.7550  150.5960 C   0  0  0  0  0  3  0  0  0  0  0  0
  160.7690  202.1630  150.9530 N   0  0  0  0  0  0  0  0  0  0  0  0
  161.9170  210.8130  151.7790 N   0  0  0  0  0  2  0  0  0  0  0  0
  160.8220  208.2790  151.6150 C   0  0  0  0  0  2  0  0  0  0  0  0
  161.0510  208.8690  153.0110 C   0  0  0  0  0  2  0  0  0  0  0  0
  162.0330  208.5290  150.7190 C   0  0  2  0  0  3  0  0  0  0  0  0
  162.3700  210.0420  150.6080 C   0  0  1  0  0  3  0  0  0  0  0  0
  162.0570  210.0270  153.0030 C   0  0  0  0  0  2  0  0  0  0  0  0
  161.8570  210.6920  149.3170 C   0  0  2  0  0  3  0  0  0  0  0  0
  161.3120  212.9170  148.9420 C   0  0  0  0  0  0  0  0  0  0  0  0
  160.6300  214.0120  148.9790 N   0  0  0  0  0  2  0  0  0  0  0  0
  163.0050  211.3420  148.5290 C   0  0  0  0  0  3  0  0  0  0  0  0
  160.8940  211.7420  149.6010 N   0  0  0  0  0  2  0  0  0  0  0  0
  162.5740  212.7690  148.1950 C   0  0  0  0  0  3  0  0  0  0  0  0
  160.2800  206.2850  147.2200 C   0  0  0  0  0  2  0  0  0  0  0  0
  161.9510  206.0970  145.5250 O   0  0  0  0  0  1  0  0  0  0  0  0
  160.5760  206.2160  145.7320 C   0  0  0  0  0  2  0  0  0  0  0  0
  2  6  2  0  0  0  0
  3  7  2  0  0  0  0
  4 27  1  6  0  0  0
  4  2  1  0  0  0  0
  4  9  1  0  0  0  0
  5  8  1  0  0  0  0
  6 11  1  0  0  0  0
  6 10  1  0  0  0  0
  8 11  1  0  0  0  0
  9  7  1  0  0  0  0
  9 13  1  0  0  0  0
 10 13  2  0  0  0  0
 10  1  1  0  0  0  0
 11 14  2  0  0  0  0
 12  5  1  0  0  0  0
 12  2  1  0  0  0  0
 14  1  1  0  0  0  0
 15 20  1  0  0  0  0
 16 17  1  0  0  0  0
 18  7  1  6  0  0  0
 18 16  1  0  0  0  0
 19 18  1  0  0  0  0
 19 15  1  1  0  0  0
 20 17  1  0  0  0  0
 21 24  1  1  0  0  0
 21 25  1  0  0  0  0
 21 19  1  0  0  0  0
 22 23  2  0  0  0  0
 22 25  1  0  0  0  0
 26 24  2  0  0  0  0
 26 22  1  0  0  0  0
 28 29  1  0  0  0  0
 29 27  1  0  0  0  0
M  END
>  <MODEL>
3

>  <REMARK>
 VINA RESULT:      -8.3      2.697      7.079
  Name = 
  4 active torsions:
  status: ('A' for Active; 'I' for Inactive)
    1  A    between atoms: C_1  and  C_15
    2  A    between atoms: C_7  and  C_12
    3  A    between atoms: C_7  and  C_25
    4  A    between atoms: C_11  and  C_17
                            x       y       z     vdW  Elec       q    Type
                         _______ _______ _______ _____ _____    ______ ____

>  <TORSDO>
F 4

$$$$
=
 OpenBabel11072413463D

 29 33  0  0  1  0  0  0  0  0999 V2000
  160.3930  202.2220  151.2630 C   0  0  0  0  0  2  0  0  0  0  0  0
  161.3540  204.2150  148.4030 C   0  0  0  0  0  0  0  0  0  0  0  0
  162.3860  207.9390  150.2240 O   0  0  0  0  0  0  0  0  0  0  0  0
  161.5060  205.6560  148.8590 C   0  0  2  0  0  3  0  0  0  0  0  0
  161.2270  202.3220  146.6820 C   0  0  0  0  0  2  0  0  0  0  0  0
  160.8840  203.3400  149.2680 C   0  0  0  0  0  0  0  0  0  0  0  0
  161.8950  207.0260  150.9450 C   0  0  0  0  0  0  0  0  0  0  0  0
  161.1110  201.4190  147.8000 O   0  0  0  0  0  0  0  0  0  0  0  0
  161.4390  205.8020  150.3420 N   0  0  0  0  0  0  0  0  0  0  0  0
  160.6580  203.5630  150.6440 C   0  0  0  0  0  0  0  0  0  0  0  0
  160.8260  201.9480  149.0540 C   0  0  0  0  0  0  0  0  0  0  0  0
  161.8580  203.6940  147.0720 C   0  0  0  0  0  2  0  0  0  0  0  0
  160.9700  204.7270  151.1960 C   0  0  0  0  0  3  0  0  0  0  0  0
  160.5590  201.2810  150.1320 N   0  0  0  0  0  0  0  0  0  0  0  0
  161.0530  208.7590  154.2700 N   0  0  0  0  0  2  0  0  0  0  0  0
  160.8870  206.2450  153.1320 C   0  0  0  0  0  2  0  0  0  0  0  0
  161.0410  206.3300  154.6540 C   0  0  0  0  0  2  0  0  0  0  0  0
  161.8390  207.2160  152.4370 C   0  0  2  0  0  3  0  0  0  0  0  0
  161.6200  208.6800  152.9120 C   0  0  1  0  0  3  0  0  0  0  0  0
  161.5800  207.6910  155.1150 C   0  0  0  0  0  2  0  0  0  0  0  0
  160.7850  209.5230  151.9400 C   0  0  2  0  0  3  0  0  0  0  0  0
  159.5520  211.4370  152.3860 C   0  0  0  0  0  0  0  0  0  0  0  0
  158.5800  212.1700  152.8150 N   0  0  0  0  0  2  0  0  0  0  0  0
  161.5810  210.7350  151.4330 C   0  0  0  0  0  3  0  0  0  0  0  0
  159.5900  210.0410  152.5840 N   0  0  0  0  0  2  0  0  0  0  0  0
  160.7010  211.9690  151.6330 C   0  0  0  0  0  3  0  0  0  0  0  0
  160.4270  206.5200  148.2100 C   0  0  0  0  0  2  0  0  0  0  0  0
  160.0810  206.2440  145.8630 O   0  0  0  0  0  1  0  0  0  0  0  0
  160.8310  206.9440  146.8090 C   0  0  0  0  0  2  0  0  0  0  0  0
  2  4  1  0  0  0  0
  2  6  2  0  0  0  0
  3  7  2  0  0  0  0
  4 27  1  6  0  0  0
  4  9  1  0  0  0  0
  5 12  1  0  0  0  0
  5  8  1  0  0  0  0
  6 10  1  0  0  0  0
  8 11  1  0  0  0  0
  9  7  1  0  0  0  0
  9 13  1  0  0  0  0
 10 13  2  0  0  0  0
 10  1  1  0  0  0  0
 11  6  1  0  0  0  0
 11 14  2  0  0  0  0
 12  2  1  0  0  0  0
 14  1  1  0  0  0  0
 15 20  1  0  0  0  0
 16 17  1  0  0  0  0
 17 20  1  0  0  0  0
 18  7  1  6  0  0  0
 18 19  1  0  0  0  0
 18 16  1  0  0  0  0
 19 15  1  1  0  0  0
 21 24  1  1  0  0  0
 21 25  1  0  0  0  0
 21 19  1  0  0  0  0
 22 25  1  0  0  0  0
 22 23  2  0  0  0  0
 24 26  2  0  0  0  0
 26 22  1  0  0  0  0
 28 29  1  0  0  0  0
 29 27  1  0  0  0  0
M  END
>  <MODEL>
4

>  <REMARK>
 VINA RESULT:      -7.6      2.286      7.202
  Name = 
  4 active torsions:
  status: ('A' for Active; 'I' for Inactive)
    1  A    between atoms: C_1  and  C_15
    2  A    between atoms: C_7  and  C_12
    3  A    between atoms: C_7  and  C_25
    4  A    between atoms: C_11  and  C_17
                            x       y       z     vdW  Elec       q    Type
                         _______ _______ _______ _____ _____    ______ ____

>  <TORSDO>
F 4

$$$$
=
 OpenBabel11072413463D

 29 33  0  0  1  0  0  0  0  0999 V2000
  161.9310  206.2770  146.6670 C   0  0  0  0  0  2  0  0  0  0  0  0
  161.0720  203.6720  149.0210 C   0  0  0  0  0  0  0  0  0  0  0  0
  160.4270  205.8960  152.6100 O   0  0  0  0  0  0  0  0  0  0  0  0
  161.0620  204.2760  150.4150 C   0  0  2  0  0  3  0  0  0  0  0  0
  160.9820  201.7640  147.3140 C   0  0  0  0  0  2  0  0  0  0  0  0
  161.4870  204.4260  148.0240 C   0  0  0  0  0  0  0  0  0  0  0  0
  160.8540  206.5030  151.5890 C   0  0  0  0  0  0  0  0  0  0  0  0
  161.0480  202.7800  146.2930 O   0  0  0  0  0  0  0  0  0  0  0  0
  161.1830  205.7630  150.3990 N   0  0  0  0  0  0  0  0  0  0  0  0
  161.7690  205.8070  148.0830 C   0  0  0  0  0  0  0  0  0  0  0  0
  161.4140  204.0700  146.6620 C   0  0  0  0  0  0  0  0  0  0  0  0
  160.4860  202.3140  148.6870 C   0  0  0  0  0  2  0  0  0  0  0  0
  161.5780  206.4860  149.2050 C   0  0  0  0  0  3  0  0  0  0  0  0
  161.6510  205.0640  145.8660 N   0  0  0  0  0  0  0  0  0  0  0  0
  161.1680  210.0070  153.1350 N   0  0  0  0  0  2  0  0  0  0  0  0
  162.3160  208.5130  151.1110 C   0  0  0  0  0  2  0  0  0  0  0  0
  162.2920  210.0370  150.9480 C   0  0  0  0  0  2  0  0  0  0  0  0
  160.9690  208.0040  151.6170 C   0  0  2  0  0  3  0  0  0  0  0  0
  160.5620  208.6750  152.9590 C   0  0  1  0  0  3  0  0  0  0  0  0
  161.2550  210.7100  151.8570 C   0  0  0  0  0  2  0  0  0  0  0  0
  160.8360  207.8030  154.1900 C   0  0  2  0  0  3  0  0  0  0  0  0
  161.5230  208.4690  156.3040 C   0  0  0  0  0  0  0  0  0  0  0  0
  162.3120  208.8770  157.2410 N   0  0  0  0  0  2  0  0  0  0  0  0
  159.6180  207.7640  155.1250 C   0  0  0  0  0  3  0  0  0  0  0  0
  161.9490  208.3220  154.9680 N   0  0  0  0  0  2  0  0  0  0  0  0
  160.1170  208.0940  156.5310 C   0  0  0  0  0  3  0  0  0  0  0  0
  162.1940  203.6780  151.2460 C   0  0  0  0  0  2  0  0  0  0  0  0
  160.3850  202.6340  152.4030 O   0  0  0  0  0  1  0  0  0  0  0  0
  161.7200  202.4680  152.0320 C   0  0  0  0  0  2  0  0  0  0  0  0
  1 10  1  0  0  0  0
  2  4  1  0  0  0  0
  4 27  1  1  0  0  0
  5 12  1  0  0  0  0
  6 10  1  0  0  0  0
  6  2  2  0  0  0  0
  7  3  2  0  0  0  0
  8 11  1  0  0  0  0
  8  5  1  0  0  0  0
  9  4  1  0  0  0  0
  9  7  1  0  0  0  0
 10 13  2  0  0  0  0
 11  6  1  0  0  0  0
 12  2  1  0  0  0  0
 13  9  1  0  0  0  0
 14 11  2  0  0  0  0
 14  1  1  0  0  0  0
 16 18  1  0  0  0  0
 17 16  1  0  0  0  0
 17 20  1  0  0  0  0
 18  7  1  1  0  0  0
 18 19  1  0  0  0  0
 19 15  1  1  0  0  0
 19 21  1  0  0  0  0
 20 15  1  0  0  0  0
 21 25  1  0  0  0  0
 21 24  1  1  0  0  0
 22 26  1  0  0  0  0
 22 23  2  0  0  0  0
 24 26  2  0  0  0  0
 25 22  1  0  0  0  0
 27 29  1  0  0  0  0
 29 28  1  0  0  0  0
M  END
>  <MODEL>
5

>  <REMARK>
 VINA RESULT:      -7.6      2.235      8.167
  Name = 
  4 active torsions:
  status: ('A' for Active; 'I' for Inactive)
    1  A    between atoms: C_1  and  C_15
    2  A    between atoms: C_7  and  C_12
    3  A    between atoms: C_7  and  C_25
    4  A    between atoms: C_11  and  C_17
                            x       y       z     vdW  Elec       q    Type
                         _______ _______ _______ _____ _____    ______ ____

>  <TORSDO>
F 4

$$$$
=
 OpenBabel11072413463D

 29 33  0  0  1  0  0  0  0  0999 V2000
  160.2230  203.7650  150.8850 C   0  0  0  0  0  2  0  0  0  0  0  0
  161.9390  206.1140  148.7400 C   0  0  0  0  0  0  0  0  0  0  0  0
  162.6970  209.3620  151.4090 O   0  0  0  0  0  0  0  0  0  0  0  0
  162.0520  207.4370  149.4790 C   0  0  2  0  0  3  0  0  0  0  0  0
  162.1290  204.5620  146.7120 C   0  0  0  0  0  2  0  0  0  0  0  0
  161.2320  205.1540  149.2980 C   0  0  0  0  0  0  0  0  0  0  0  0
  162.0020  208.3910  151.8180 C   0  0  0  0  0  0  0  0  0  0  0  0
  161.7040  203.4970  147.5860 O   0  0  0  0  0  0  0  0  0  0  0  0
  161.6410  207.3350  150.9100 N   0  0  0  0  0  0  0  0  0  0  0  0
  160.6970  205.1600  150.6040 C   0  0  0  0  0  0  0  0  0  0  0  0
  161.1560  203.8300  148.8200 C   0  0  0  0  0  0  0  0  0  0  0  0
  162.7190  205.7820  147.4840 C   0  0  0  0  0  2  0  0  0  0  0  0
  160.9270  206.1790  151.4200 C   0  0  0  0  0  3  0  0  0  0  0  0
  160.6050  203.0180  149.6660 N   0  0  0  0  0  0  0  0  0  0  0  0
  160.0670  209.3230  155.0050 N   0  0  0  0  0  2  0  0  0  0  0  0
  160.8420  207.0540  153.6280 C   0  0  0  0  0  2  0  0  0  0  0  0
  160.6620  206.9410  155.1460 C   0  0  0  0  0  2  0  0  0  0  0  0
  161.6010  208.3290  153.2680 C   0  0  2  0  0  3  0  0  0  0  0  0
  160.8910  209.5990  153.8150 C   0  0  1  0  0  3  0  0  0  0  0  0
  160.6960  208.3060  155.8450 C   0  0  0  0  0  2  0  0  0  0  0  0
  160.0630  210.3420  152.7590 C   0  0  2  0  0  3  0  0  0  0  0  0
  158.5590  212.0820  153.0700 C   0  0  0  0  0  0  0  0  0  0  0  0
  157.4630  212.6830  153.3930 N   0  0  0  0  0  2  0  0  0  0  0  0
  160.7480  211.6500  152.3350 C   0  0  0  0  0  3  0  0  0  0  0  0
  158.7520  210.7000  153.2730 N   0  0  0  0  0  2  0  0  0  0  0  0
  159.7050  212.7610  152.4400 C   0  0  0  0  0  3  0  0  0  0  0  0
  161.2050  208.4960  148.7770 C   0  0  0  0  0  2  0  0  0  0  0  0
  161.7830  210.8090  148.9070 O   0  0  0  0  0  1  0  0  0  0  0  0
  162.0700  209.6200  148.2350 C   0  0  0  0  0  2  0  0  0  0  0  0
  2  6  2  0  0  0  0
  2  4  1  0  0  0  0
  3  7  2  0  0  0  0
  4 27  1  6  0  0  0
  4  9  1  0  0  0  0
  5 12  1  0  0  0  0
  5  8  1  0  0  0  0
  6 10  1  0  0  0  0
  8 11  1  0  0  0  0
  9 13  1  0  0  0  0
  9  7  1  0  0  0  0
 10  1  1  0  0  0  0
 10 13  2  0  0  0  0
 11  6  1  0  0  0  0
 11 14  2  0  0  0  0
 12  2  1  0  0  0  0
 14  1  1  0  0  0  0
 15 20  1  0  0  0  0
 16 17  1  0  0  0  0
 17 20  1  0  0  0  0
 18  7  1  6  0  0  0
 18 16  1  0  0  0  0
 18 19  1  0  0  0  0
 19 15  1  1  0  0  0
 21 24  1  1  0  0  0
 21 25  1  0  0  0  0
 21 19  1  0  0  0  0
 22 25  1  0  0  0  0
 22 23  2  0  0  0  0
 24 26  2  0  0  0  0
 26 22  1  0  0  0  0
 29 27  1  0  0  0  0
 29 28  1  0  0  0  0
M  END
>  <MODEL>
6

>  <REMARK>
 VINA RESULT:      -7.0      2.067      7.039
  Name = 
  4 active torsions:
  status: ('A' for Active; 'I' for Inactive)
    1  A    between atoms: C_1  and  C_15
    2  A    between atoms: C_7  and  C_12
    3  A    between atoms: C_7  and  C_25
    4  A    between atoms: C_11  and  C_17
                            x       y       z     vdW  Elec       q    Type
                         _______ _______ _______ _____ _____    ______ ____

>  <TORSDO>
F 4

$$$$
=
 OpenBabel11072413463D

 29 33  0  0  1  0  0  0  0  0999 V2000
  159.8140  211.6890  152.2850 C   0  0  0  0  0  2  0  0  0  0  0  0
  160.7430  209.4810  154.9920 C   0  0  0  0  0  0  0  0  0  0  0  0
  162.5820  206.2400  152.9020 O   0  0  0  0  0  0  0  0  0  0  0  0
  161.1830  208.1550  154.3940 C   0  0  2  0  0  3  0  0  0  0  0  0
  160.1040  211.0750  156.8920 C   0  0  0  0  0  2  0  0  0  0  0  0
  160.2420  210.3890  154.1810 C   0  0  0  0  0  0  0  0  0  0  0  0
  162.0370  207.1620  152.2340 C   0  0  0  0  0  0  0  0  0  0  0  0
  159.9740  212.0990  155.8850 O   0  0  0  0  0  0  0  0  0  0  0  0
  161.3170  208.2100  152.9090 N   0  0  0  0  0  0  0  0  0  0  0  0
  160.2200  210.3280  152.7710 C   0  0  0  0  0  0  0  0  0  0  0  0
  159.9310  211.7130  154.5490 C   0  0  0  0  0  0  0  0  0  0  0  0
  160.9940  209.8800  156.4330 C   0  0  0  0  0  2  0  0  0  0  0  0
  160.7830  209.3120  152.1320 C   0  0  0  0  0  3  0  0  0  0  0  0
  159.6870  212.4770  153.5320 N   0  0  0  0  0  0  0  0  0  0  0  0
  161.6600  205.9130  148.6190 N   0  0  0  0  0  2  0  0  0  0  0  0
  161.3500  208.2550  150.0560 C   0  0  0  0  0  2  0  0  0  0  0  0
  161.7160  208.3710  148.5720 C   0  0  0  0  0  2  0  0  0  0  0  0
  162.1890  207.1760  150.7360 C   0  0  2  0  0  3  0  0  0  0  0  0
  162.0320  205.7950  150.0400 C   0  0  1  0  0  3  0  0  0  0  0  0
  162.3070  207.0720  148.0090 C   0  0  0  0  0  2  0  0  0  0  0  0
  161.0640  204.8500  150.7630 C   0  0  2  0  0  3  0  0  0  0  0  0
  160.4320  202.7000  150.1620 C   0  0  0  0  0  0  0  0  0  0  0  0
  159.8250  201.7580  149.5210 N   0  0  0  0  0  2  0  0  0  0  0  0
  161.8220  203.8590  151.6590 C   0  0  0  0  0  3  0  0  0  0  0  0
  160.2930  204.0600  149.8180 N   0  0  0  0  0  2  0  0  0  0  0  0
  161.3050  202.4600  151.3250 C   0  0  0  0  0  3  0  0  0  0  0  0
  160.1920  207.0600  154.7790 C   0  0  0  0  0  2  0  0  0  0  0  0
  160.3500  206.6380  157.1240 O   0  0  0  0  0  1  0  0  0  0  0  0
  159.6030  207.3110  156.1560 C   0  0  0  0  0  2  0  0  0  0  0  0
  1 10  1  0  0  0  0
  1 14  1  0  0  0  0
  2 12  1  0  0  0  0
  4 27  1  6  0  0  0
  4  2  1  0  0  0  0
  6 11  1  0  0  0  0
  6  2  2  0  0  0  0
  7  3  2  0  0  0  0
  7  9  1  0  0  0  0
  8  5  1  0  0  0  0
  9  4  1  0  0  0  0
 10  6  1  0  0  0  0
 11  8  1  0  0  0  0
 12  5  1  0  0  0  0
 13 10  2  0  0  0  0
 13  9  1  0  0  0  0
 14 11  2  0  0  0  0
 16 18  1  0  0  0  0
 17 16  1  0  0  0  0
 18  7  1  1  0  0  0
 19 15  1  6  0  0  0
 19 18  1  0  0  0  0
 19 21  1  0  0  0  0
 20 17  1  0  0  0  0
 20 15  1  0  0  0  0
 21 24  1  1  0  0  0
 22 26  1  0  0  0  0
 23 22  2  0  0  0  0
 25 22  1  0  0  0  0
 25 21  1  0  0  0  0
 26 24  2  0  0  0  0
 27 29  1  0  0  0  0
 29 28  1  0  0  0  0
M  END
>  <MODEL>
7

>  <REMARK>
 VINA RESULT:      -6.7      2.140      4.271
  Name = 
  4 active torsions:
  status: ('A' for Active; 'I' for Inactive)
    1  A    between atoms: C_1  and  C_15
    2  A    between atoms: C_7  and  C_12
    3  A    between atoms: C_7  and  C_25
    4  A    between atoms: C_11  and  C_17
                            x       y       z     vdW  Elec       q    Type
                         _______ _______ _______ _____ _____    ______ ____

>  <TORSDO>
F 4

$$$$
=
 OpenBabel11072413463D

 29 33  0  0  1  0  0  0  0  0999 V2000
  161.9020  205.1300  146.0220 C   0  0  0  0  0  2  0  0  0  0  0  0
  160.9390  203.3770  149.0340 C   0  0  0  0  0  0  0  0  0  0  0  0
  160.4610  206.5860  151.8130 O   0  0  0  0  0  0  0  0  0  0  0  0
  160.9800  204.3620  150.1900 C   0  0  2  0  0  3  0  0  0  0  0  0
  160.7260  201.0620  147.9590 C   0  0  0  0  0  2  0  0  0  0  0  0
  161.3790  203.7830  147.8610 C   0  0  0  0  0  0  0  0  0  0  0  0
  160.9050  206.8430  150.6600 C   0  0  0  0  0  0  0  0  0  0  0  0
  160.8320  201.7290  146.6860 O   0  0  0  0  0  0  0  0  0  0  0  0
  161.1780  205.7700  149.7400 N   0  0  0  0  0  0  0  0  0  0  0  0
  161.7350  205.1040  147.5130 C   0  0  0  0  0  0  0  0  0  0  0  0
  161.2700  203.0490  146.6630 C   0  0  0  0  0  0  0  0  0  0  0  0
  160.2780  202.0150  149.1100 C   0  0  0  0  0  2  0  0  0  0  0  0
  161.5950  206.0910  148.3870 C   0  0  0  0  0  3  0  0  0  0  0  0
  161.5480  203.7530  145.6110 N   0  0  0  0  0  0  0  0  0  0  0  0
  161.7190  210.5750  151.0820 N   0  0  0  0  0  2  0  0  0  0  0  0
  162.3310  208.4910  149.3710 C   0  0  0  0  0  2  0  0  0  0  0  0
  162.3500  209.9130  148.7990 C   0  0  0  0  0  2  0  0  0  0  0  0
  161.0990  208.2780  150.2470 C   0  0  2  0  0  3  0  0  0  0  0  0
  161.0230  209.3160  151.4020 C   0  0  1  0  0  3  0  0  0  0  0  0
  161.5670  210.9060  149.6670 C   0  0  0  0  0  2  0  0  0  0  0  0
  161.5100  208.7710  152.7500 C   0  0  2  0  0  3  0  0  0  0  0  0
  161.9750  209.9470  154.6960 C   0  0  0  0  0  0  0  0  0  0  0  0
  162.6180  210.7030  155.5210 N   0  0  0  0  0  2  0  0  0  0  0  0
  160.3380  208.5720  153.7240 C   0  0  0  0  0  3  0  0  0  0  0  0
  162.4360  209.6910  153.3880 N   0  0  0  0  0  2  0  0  0  0  0  0
  160.7180  209.2580  155.0350 C   0  0  0  0  0  3  0  0  0  0  0  0
  162.0900  203.9730  151.1620 C   0  0  0  0  0  2  0  0  0  0  0  0
  160.1340  203.3070  152.3590 O   0  0  0  0  0  1  0  0  0  0  0  0
  161.5290  203.2700  152.3860 C   0  0  0  0  0  2  0  0  0  0  0  0
  1 10  1  0  0  0  0
  2 12  1  0  0  0  0
  2  4  1  0  0  0  0
  4 27  1  1  0  0  0
  5 12  1  0  0  0  0
  6  2  2  0  0  0  0
  7  3  2  0  0  0  0
  8  5  1  0  0  0  0
  9  4  1  0  0  0  0
  9  7  1  0  0  0  0
 10  6  1  0  0  0  0
 10 13  2  0  0  0  0
 11  8  1  0  0  0  0
 11  6  1  0  0  0  0
 13  9  1  0  0  0  0
 14  1  1  0  0  0  0
 14 11  2  0  0  0  0
 16 18  1  0  0  0  0
 17 16  1  0  0  0  0
 17 20  1  0  0  0  0
 18  7  1  1  0  0  0
 18 19  1  0  0  0  0
 19 15  1  6  0  0  0
 19 21  1  0  0  0  0
 20 15  1  0  0  0  0
 21 25  1  0  0  0  0
 21 24  1  1  0  0  0
 22 26  1  0  0  0  0
 22 23  2  0  0  0  0
 24 26  2  0  0  0  0
 25 22  1  0  0  0  0
 27 29  1  0  0  0  0
 28 29  1  0  0  0  0
M  END
>  <MODEL>
8

>  <REMARK>
 VINA RESULT:      -6.3      2.326      8.098
  Name = 
  4 active torsions:
  status: ('A' for Active; 'I' for Inactive)
    1  A    between atoms: C_1  and  C_15
    2  A    between atoms: C_7  and  C_12
    3  A    between atoms: C_7  and  C_25
    4  A    between atoms: C_11  and  C_17
                            x       y       z     vdW  Elec       q    Type
                         _______ _______ _______ _____ _____    ______ ____

>  <TORSDO>
F 4

$$$$
