=
 OpenBabel11072413003D

 48 53  0  0  1  0  0  0  0  0999 V2000
  160.1140  211.9500  151.2310 C   0  0  0  0  0  2  0  0  0  0  0  0
  161.3940  209.2630  152.3600 C   0  0  2  0  0  0  0  0  0  0  0  0
  161.4400  210.6320  153.0250 C   0  0  0  0  0  0  0  0  0  0  0  0
  161.1060  212.4880  150.2090 C   0  0  0  0  0  2  0  0  0  0  0  0
  162.7400  210.7490  149.2790 C   0  0  0  0  0  2  0  0  0  0  0  0
  160.7570  211.7970  152.5290 N   0  0  0  0  0  2  0  0  0  0  0  0
  163.0410  210.3060  150.7090 C   0  0  0  0  0  2  0  0  0  0  0  0
  161.3740  211.4280  149.1400 C   0  0  2  0  0  3  0  0  0  0  0  0
  162.1070  210.7480  154.0870 O   0  0  0  0  0  0  0  0  0  0  0  0
  162.2970  209.0340  151.1370 C   0  0  2  0  0  3  0  0  0  0  0  0
  160.7840  209.1460  150.9690 C   0  0  1  0  0  3  0  0  0  0  0  0
  160.5700  208.1910  154.4930 C   0  0  0  0  0  3  0  0  0  0  0  0
  161.7160  206.8180  152.8600 C   0  0  0  0  0  3  0  0  0  0  0  0
  159.7140  207.2100  156.6240 C   0  0  0  0  0  1  0  0  0  0  0  0
  160.4080  207.0760  155.3180 C   0  0  0  0  0  0  0  0  0  0  0  0
  161.2380  208.0720  153.2660 C   0  0  0  0  0  0  0  0  0  0  0  0
  160.9010  205.8300  154.9150 C   0  0  0  0  0  3  0  0  0  0  0  0
  161.5520  205.7020  153.6850 C   0  0  0  0  0  3  0  0  0  0  0  0
  161.1040  211.9050  147.7010 C   0  0  1  0  0  3  0  0  0  0  0  0
  159.6020  212.0200  147.4820 C   0  0  0  0  0  1  0  0  0  0  0  0
  163.1110  213.2300  147.8610 O   0  0  0  0  0  1  0  0  0  0  0  0
  161.8630  213.1810  147.2260 C   0  0  1  0  0  0  0  0  0  0  0  0
  163.3830  213.6340  143.6940 C   0  0  0  0  0  3  0  0  0  0  0  0
  161.0220  212.6270  144.8770 N   0  0  0  0  0  0  0  0  0  0  0  0
  161.1860  212.5970  143.4300 C   0  0  1  0  0  0  0  0  0  0  0  0
  160.2730  211.7410  142.6510 C   0  0  0  0  0  2  0  0  0  0  0  0
  160.0590  213.1310  142.7860 O   0  0  0  0  0  0  0  0  0  0  0  0
  162.0470  213.1810  145.7170 C   0  0  0  0  0  0  0  0  0  0  0  0
  163.1710  213.6590  145.1570 C   0  0  0  0  0  2  0  0  0  0  0  0
  162.7020  213.1020  141.5320 F   0  0  0  0  0  0  0  0  0  0  0  0
  162.4630  213.1380  142.8670 C   0  0  0  0  0  0  0  0  0  0  0  0
  159.6270  214.4430  147.2680 C   0  0  0  0  0  1  0  0  0  0  0  0
  161.1040  214.4530  147.6380 C   0  0  0  0  0  2  0  0  0  0  0  0
  160.2560  207.8500  150.7150 O   0  0  0  0  0  0  0  0  0  0  0  0
  162.6880  204.4230  146.9630 O   0  0  0  0  0  1  0  0  0  0  0  0
  162.3900  207.1010  146.3900 F   0  0  0  0  0  0  0  0  0  0  0  0
  161.4910  204.7960  148.9810 C   0  0  0  0  0  0  0  0  0  0  0  0
  162.1220  205.2850  147.8990 C   0  0  0  0  0  0  0  0  0  0  0  0
  162.2960  206.7740  147.7300 C   0  0  2  0  0  3  0  0  0  0  0  0
  161.1420  207.5580  148.3640 C   0  0  0  0  0  2  0  0  0  0  0  0
  160.9060  205.7130  149.9790 C   0  0  0  0  0  3  0  0  0  0  0  0
  160.7800  207.0170  149.7250 C   0  0  0  0  0  0  0  0  0  0  0  0
  161.4270  203.3260  149.2310 C   0  0  0  0  0  2  0  0  0  0  0  0
  160.3020  202.7490  148.5090 N   0  0  0  0  0  2  0  0  0  0  0  0
  160.9190  201.1260  146.7480 C   0  0  0  0  0  0  0  0  0  0  0  0
  160.8370  202.0100  145.8540 O   0  0  0  0  0  0  0  0  0  0  0  0
  161.2580  199.7900  146.3910 N   0  0  0  0  0  1  0  0  0  0  0  0
  160.6790  201.4550  148.1180 N   0  0  0  0  0  2  0  0  0  0  0  0
  1  6  1  0  0  0  0
  2  3  1  0  0  0  0
  2 16  1  1  0  0  0
  3  9  2  0  0  0  0
  4  1  1  0  0  0  0
  5  7  1  0  0  0  0
  6  3  1  0  0  0  0
  8 19  1  6  0  0  0
  8  5  1  0  0  0  0
  8  4  1  0  0  0  0
 10  7  1  6  0  0  0
 10  2  1  0  0  0  0
 11 34  1  1  0  0  0
 11 10  1  0  0  0  0
 11  2  1  0  0  0  0
 12 15  1  0  0  0  0
 13 16  1  0  0  0  0
 13 18  2  0  0  0  0
 15 14  1  0  0  0  0
 16 12  2  0  0  0  0
 17 15  2  0  0  0  0
 18 17  1  0  0  0  0
 19 20  1  1  0  0  0
 22 33  1  0  0  0  0
 22 19  1  0  0  0  0
 22 21  1  1  0  0  0
 23 29  1  0  0  0  0
 24 28  2  0  0  0  0
 25 26  1  6  0  0  0
 25 24  1  0  0  0  0
 26 27  1  0  0  0  0
 27 25  1  0  0  0  0
 28 22  1  0  0  0  0
 29 28  1  0  0  0  0
 30 31  1  0  0  0  0
 31 25  1  0  0  0  0
 31 23  2  0  0  0  0
 32 33  1  0  0  0  0
 35 38  1  0  0  0  0
 37 43  1  0  0  0  0
 37 41  1  0  0  0  0
 38 37  2  0  0  0  0
 39 36  1  6  0  0  0
 39 38  1  0  0  0  0
 39 40  1  0  0  0  0
 40 42  1  0  0  0  0
 42 41  2  0  0  0  0
 42 34  1  0  0  0  0
 44 43  1  0  0  0  0
 45 48  1  0  0  0  0
 46 45  2  0  0  0  0
 47 45  1  0  0  0  0
 48 44  1  0  0  0  0
M  END
>  <MODEL>
1

>  <REMARK>
 VINA RESULT:      -4.8      0.000      0.000
  Name = 
  10 active torsions:
  status: ('A' for Active; 'I' for Inactive)
    1  A    between atoms: C_5  and  C_38
    2  A    between atoms: C_12  and  C_28
    3  A    between atoms: C_13  and  C_41
    4  A    between atoms: C_25  and  C_35
    5  A    between atoms: C_25  and  C_41
    6  A    between atoms: C_26  and  C_41
    7  A    between atoms: N_30  and  C_38
    8  A    between atoms: N_30  and  N_39
    9  A    between atoms: O_42  and  C_46
   10  A    between atoms: O_42  and  C_47
                            x       y       z     vdW  Elec       q    Type
                         _______ _______ _______ _____ _____    ______ ____

>  <TORSDO>
F 10

$$$$
=
 OpenBabel11072413003D

 48 53  0  0  1  0  0  0  0  0999 V2000
  159.9380  212.0520  151.7630 C   0  0  0  0  0  2  0  0  0  0  0  0
  161.0420  209.8140  153.7390 C   0  0  2  0  0  0  0  0  0  0  0  0
  160.9030  211.2980  154.0470 C   0  0  0  0  0  0  0  0  0  0  0  0
  161.1040  212.4190  150.8550 C   0  0  0  0  0  2  0  0  0  0  0  0
  162.9510  210.6510  150.7120 C   0  0  0  0  0  2  0  0  0  0  0  0
  160.3010  212.2570  153.1590 N   0  0  0  0  0  2  0  0  0  0  0  0
  162.9620  210.5770  152.2370 C   0  0  0  0  0  2  0  0  0  0  0  0
  161.6240  211.1660  150.1490 C   0  0  2  0  0  3  0  0  0  0  0  0
  161.3310  211.7110  155.1580 O   0  0  0  0  0  0  0  0  0  0  0  0
  162.1870  209.3830  152.8080 C   0  0  2  0  0  3  0  0  0  0  0  0
  160.7390  209.3280  152.3270 C   0  0  1  0  0  3  0  0  0  0  0  0
  159.6070  208.0310  154.8070 C   0  0  0  0  0  3  0  0  0  0  0  0
  161.6220  208.7470  155.9430 C   0  0  0  0  0  3  0  0  0  0  0  0
  158.1350  206.2670  155.7880 C   0  0  0  0  0  1  0  0  0  0  0  0
  159.3450  207.1280  155.8400 C   0  0  0  0  0  0  0  0  0  0  0  0
  160.7390  208.8560  154.8590 C   0  0  0  0  0  0  0  0  0  0  0  0
  160.2210  207.0340  156.9270 C   0  0  0  0  0  3  0  0  0  0  0  0
  161.3610  207.8420  156.9750 C   0  0  0  0  0  3  0  0  0  0  0  0
  161.6440  211.2730  148.6130 C   0  0  1  0  0  3  0  0  0  0  0  0
  161.0670  209.9990  148.0110 C   0  0  0  0  0  1  0  0  0  0  0  0
  161.4000  213.6680  148.7420 O   0  0  0  0  0  1  0  0  0  0  0  0
  161.0140  212.5520  147.9860 C   0  0  1  0  0  0  0  0  0  0  0  0
  163.1510  213.2640  144.8370 C   0  0  0  0  0  3  0  0  0  0  0  0
  160.5250  212.4360  145.4800 N   0  0  0  0  0  0  0  0  0  0  0  0
  160.9280  212.5780  144.0870 C   0  0  1  0  0  0  0  0  0  0  0  0
  160.0690  211.9660  143.0570 C   0  0  0  0  0  2  0  0  0  0  0  0
  159.9940  213.3420  143.3700 O   0  0  0  0  0  0  0  0  0  0  0  0
  161.4500  212.7290  146.5410 C   0  0  0  0  0  0  0  0  0  0  0  0
  162.6990  213.1210  146.2370 C   0  0  0  0  0  2  0  0  0  0  0  0
  162.7900  213.1220  142.5410 F   0  0  0  0  0  0  0  0  0  0  0  0
  162.3340  213.0110  143.8130 C   0  0  0  0  0  0  0  0  0  0  0  0
  158.8210  213.7710  148.5370 C   0  0  0  0  0  1  0  0  0  0  0  0
  159.4780  212.4890  148.0410 C   0  0  0  0  0  2  0  0  0  0  0  0
  160.3190  207.9710  152.2980 O   0  0  0  0  0  0  0  0  0  0  0  0
  162.0030  204.2240  148.4430 O   0  0  0  0  0  1  0  0  0  0  0  0
  162.1980  203.6220  151.1230 F   0  0  0  0  0  0  0  0  0  0  0  0
  161.2560  206.3930  149.0580 C   0  0  0  0  0  0  0  0  0  0  0  0
  161.5540  205.1280  149.4020 C   0  0  0  0  0  0  0  0  0  0  0  0
  161.3290  204.6520  150.8160 C   0  0  2  0  0  3  0  0  0  0  0  0
  161.5030  205.7840  151.8330 C   0  0  0  0  0  2  0  0  0  0  0  0
  160.7660  207.3440  150.0750 C   0  0  0  0  0  3  0  0  0  0  0  0
  160.8300  207.0550  151.3760 C   0  0  0  0  0  0  0  0  0  0  0  0
  161.3460  206.8430  147.6380 C   0  0  0  0  0  2  0  0  0  0  0  0
  160.2910  206.2210  146.8530 N   0  0  0  0  0  2  0  0  0  0  0  0
  161.0260  205.2930  144.6810 C   0  0  0  0  0  0  0  0  0  0  0  0
  161.0540  204.1240  145.1490 O   0  0  0  0  0  0  0  0  0  0  0  0
  161.3930  205.5200  143.3240 N   0  0  0  0  0  1  0  0  0  0  0  0
  160.6220  206.3930  145.4990 N   0  0  0  0  0  2  0  0  0  0  0  0
  1  6  1  0  0  0  0
  2  3  1  0  0  0  0
  2 16  1  1  0  0  0
  3  9  2  0  0  0  0
  4  1  1  0  0  0  0
  5  7  1  0  0  0  0
  6  3  1  0  0  0  0
  8 19  1  6  0  0  0
  8  5  1  0  0  0  0
  8  4  1  0  0  0  0
 10  7  1  6  0  0  0
 10  2  1  0  0  0  0
 11 34  1  1  0  0  0
 11 10  1  0  0  0  0
 11  2  1  0  0  0  0
 12 16  2  0  0  0  0
 12 15  1  0  0  0  0
 13 18  2  0  0  0  0
 14 15  1  0  0  0  0
 15 17  2  0  0  0  0
 16 13  1  0  0  0  0
 17 18  1  0  0  0  0
 19 20  1  6  0  0  0
 22 33  1  0  0  0  0
 22 19  1  0  0  0  0
 22 21  1  1  0  0  0
 23 29  1  0  0  0  0
 24 28  2  0  0  0  0
 25 26  1  6  0  0  0
 25 24  1  0  0  0  0
 26 27  1  0  0  0  0
 27 25  1  0  0  0  0
 28 22  1  0  0  0  0
 29 28  1  0  0  0  0
 30 31  1  0  0  0  0
 31 25  1  0  0  0  0
 31 23  2  0  0  0  0
 33 32  1  0  0  0  0
 35 38  1  0  0  0  0
 37 38  2  0  0  0  0
 37 41  1  0  0  0  0
 38 39  1  0  0  0  0
 39 36  1  1  0  0  0
 39 40  1  0  0  0  0
 41 42  2  0  0  0  0
 42 40  1  0  0  0  0
 42 34  1  0  0  0  0
 43 37  1  0  0  0  0
 44 43  1  0  0  0  0
 45 46  2  0  0  0  0
 45 48  1  0  0  0  0
 47 45  1  0  0  0  0
 48 44  1  0  0  0  0
M  END
>  <MODEL>
2

>  <REMARK>
 VINA RESULT:      -4.7      2.066      2.521
  Name = 
  10 active torsions:
  status: ('A' for Active; 'I' for Inactive)
    1  A    between atoms: C_5  and  C_38
    2  A    between atoms: C_12  and  C_28
    3  A    between atoms: C_13  and  C_41
    4  A    between atoms: C_25  and  C_35
    5  A    between atoms: C_25  and  C_41
    6  A    between atoms: C_26  and  C_41
    7  A    between atoms: N_30  and  C_38
    8  A    between atoms: N_30  and  N_39
    9  A    between atoms: O_42  and  C_46
   10  A    between atoms: O_42  and  C_47
                            x       y       z     vdW  Elec       q    Type
                         _______ _______ _______ _____ _____    ______ ____

>  <TORSDO>
F 10

$$$$
=
 OpenBabel11072413003D

 48 53  0  0  1  0  0  0  0  0999 V2000
  157.7410  212.7010  149.9160 C   0  0  0  0  0  2  0  0  0  0  0  0
  159.2820  212.4540  152.6900 C   0  0  2  0  0  0  0  0  0  0  0  0
  157.9460  213.1480  152.4610 C   0  0  0  0  0  0  0  0  0  0  0  0
  158.3940  213.8610  149.1780 C   0  0  0  0  0  2  0  0  0  0  0  0
  160.7530  214.4530  149.9790 C   0  0  0  0  0  2  0  0  0  0  0  0
  157.2370  213.1440  151.2090 N   0  0  0  0  0  2  0  0  0  0  0  0
  160.2370  214.4520  151.4160 C   0  0  0  0  0  2  0  0  0  0  0  0
  159.8950  213.6050  149.0360 C   0  0  2  0  0  3  0  0  0  0  0  0
  157.4220  213.7530  153.4340 O   0  0  0  0  0  0  0  0  0  0  0  0
  160.5500  213.1650  152.1900 C   0  0  2  0  0  3  0  0  0  0  0  0
  160.0400  211.9090  151.4870 C   0  0  1  0  0  3  0  0  0  0  0  0
  159.6730  210.3190  153.9830 C   0  0  0  0  0  3  0  0  0  0  0  0
  159.4170  212.3960  155.2020 C   0  0  0  0  0  3  0  0  0  0  0  0
  160.0720  208.1650  155.1810 C   0  0  0  0  0  1  0  0  0  0  0  0
  159.8450  209.6330  155.1870 C   0  0  0  0  0  0  0  0  0  0  0  0
  159.4430  211.7020  153.9840 C   0  0  0  0  0  0  0  0  0  0  0  0
  159.8020  210.3270  156.4010 C   0  0  0  0  0  3  0  0  0  0  0  0
  159.5910  211.7090  156.4070 C   0  0  0  0  0  3  0  0  0  0  0  0
  160.4060  213.6500  147.5840 C   0  0  1  0  0  3  0  0  0  0  0  0
  161.5960  212.7120  147.4390 C   0  0  0  0  0  1  0  0  0  0  0  0
  158.3910  214.4530  146.5320 O   0  0  0  0  0  1  0  0  0  0  0  0
  159.3510  213.4340  146.4570 C   0  0  1  0  0  0  0  0  0  0  0  0
  159.8850  213.3200  142.6250 C   0  0  0  0  0  3  0  0  0  0  0  0
  161.4230  213.6370  144.9750 N   0  0  0  0  0  2  0  0  0  0  0  0
  162.0670  213.6630  143.6690 C   0  0  1  0  0  0  0  0  0  0  0  0
  163.4430  214.1880  143.5910 C   0  0  0  0  0  2  0  0  0  0  0  0
  163.1750  212.8010  143.6390 O   0  0  0  0  0  0  0  0  0  0  0  0
  160.0040  213.4350  145.0850 C   0  0  0  0  0  0  0  0  0  0  0  0
  159.2710  213.2860  143.9690 C   0  0  0  0  0  3  0  0  0  0  0  0
  161.7230  213.5550  141.2140 F   0  0  0  0  0  0  0  0  0  0  0  0
  161.1960  213.4980  142.4630 C   0  0  0  0  0  0  0  0  0  0  0  0
  157.1090  212.1850  146.3720 C   0  0  0  0  0  1  0  0  0  0  0  0
  158.6030  212.1050  146.6550 C   0  0  0  0  0  2  0  0  0  0  0  0
  160.8870  210.8190  151.8260 O   0  0  0  0  0  0  0  0  0  0  0  0
  162.3010  206.5300  148.4580 O   0  0  0  0  0  1  0  0  0  0  0  0
  162.9230  209.1130  147.7310 F   0  0  0  0  0  0  0  0  0  0  0  0
  161.1680  207.4120  150.3510 C   0  0  0  0  0  0  0  0  0  0  0  0
  161.9890  207.5940  149.3020 C   0  0  0  0  0  0  0  0  0  0  0  0
  162.6470  208.9320  149.0740 C   0  0  2  0  0  3  0  0  0  0  0  0
  161.7720  210.0880  149.5720 C   0  0  0  0  0  2  0  0  0  0  0  0
  160.8530  208.5380  151.2520 C   0  0  0  0  0  3  0  0  0  0  0  0
  161.1720  209.7920  150.9250 C   0  0  0  0  0  0  0  0  0  0  0  0
  160.6160  206.0630  150.6670 C   0  0  0  0  0  2  0  0  0  0  0  0
  161.6960  205.1590  151.0350 N   0  0  0  0  0  2  0  0  0  0  0  0
  161.0470  202.7730  151.0990 C   0  0  0  0  0  0  0  0  0  0  0  0
  160.8460  202.8230  152.3410 O   0  0  0  0  0  0  0  0  0  0  0  0
  160.8580  201.5460  150.4020 N   0  0  0  0  0  1  0  0  0  0  0  0
  161.4580  203.9390  150.3820 N   0  0  0  0  0  2  0  0  0  0  0  0
  1  6  1  0  0  0  0
  2 16  1  1  0  0  0
  3  2  1  0  0  0  0
  3  9  2  0  0  0  0
  4  1  1  0  0  0  0
  5  7  1  0  0  0  0
  6  3  1  0  0  0  0
  8 19  1  6  0  0  0
  8  4  1  0  0  0  0
  8  5  1  0  0  0  0
 10  7  1  6  0  0  0
 10  2  1  0  0  0  0
 11 34  1  1  0  0  0
 11 10  1  0  0  0  0
 11  2  1  0  0  0  0
 12 16  2  0  0  0  0
 12 15  1  0  0  0  0
 13 18  2  0  0  0  0
 14 15  1  0  0  0  0
 15 17  2  0  0  0  0
 16 13  1  0  0  0  0
 17 18  1  0  0  0  0
 19 20  1  1  0  0  0
 22 21  1  1  0  0  0
 22 33  1  0  0  0  0
 22 19  1  0  0  0  0
 23 29  1  0  0  0  0
 24 28  1  0  0  0  0
 25 26  1  6  0  0  0
 25 24  1  0  0  0  0
 26 27  1  0  0  0  0
 27 25  1  0  0  0  0
 28 22  1  0  0  0  0
 29 28  2  0  0  0  0
 30 31  1  0  0  0  0
 31 23  2  0  0  0  0
 31 25  1  0  0  0  0
 32 33  1  0  0  0  0
 35 38  1  0  0  0  0
 37 43  1  0  0  0  0
 37 41  1  0  0  0  0
 38 37  2  0  0  0  0
 39 36  1  6  0  0  0
 39 38  1  0  0  0  0
 39 40  1  0  0  0  0
 40 42  1  0  0  0  0
 42 41  2  0  0  0  0
 42 34  1  0  0  0  0
 43 44  1  0  0  0  0
 45 46  2  0  0  0  0
 47 45  1  0  0  0  0
 48 44  1  0  0  0  0
 48 45  1  0  0  0  0
M  END
>  <MODEL>
3

>  <REMARK>
 VINA RESULT:      -4.4      2.432      3.686
  Name = 
  10 active torsions:
  status: ('A' for Active; 'I' for Inactive)
    1  A    between atoms: C_5  and  C_38
    2  A    between atoms: C_12  and  C_28
    3  A    between atoms: C_13  and  C_41
    4  A    between atoms: C_25  and  C_35
    5  A    between atoms: C_25  and  C_41
    6  A    between atoms: C_26  and  C_41
    7  A    between atoms: N_30  and  C_38
    8  A    between atoms: N_30  and  N_39
    9  A    between atoms: O_42  and  C_46
   10  A    between atoms: O_42  and  C_47
                            x       y       z     vdW  Elec       q    Type
                         _______ _______ _______ _____ _____    ______ ____

>  <TORSDO>
F 10

$$$$
=
 OpenBabel11072413003D

 48 53  0  0  1  0  0  0  0  0999 V2000
  158.0060  212.2000  150.0220 C   0  0  0  0  0  2  0  0  0  0  0  0
  159.2950  212.6440  152.8990 C   0  0  2  0  0  0  0  0  0  0  0  0
  157.9320  213.1400  152.4370 C   0  0  0  0  0  0  0  0  0  0  0  0
  158.6240  213.2600  149.1210 C   0  0  0  0  0  2  0  0  0  0  0  0
  160.8360  214.2330  149.9660 C   0  0  0  0  0  2  0  0  0  0  0  0
  157.3460  212.8250  151.1600 N   0  0  0  0  0  2  0  0  0  0  0  0
  160.1890  214.4510  151.3310 C   0  0  0  0  0  2  0  0  0  0  0  0
  160.1480  213.1380  149.1470 C   0  0  2  0  0  3  0  0  0  0  0  0
  157.2680  213.8600  153.2280 O   0  0  0  0  0  0  0  0  0  0  0  0
  160.5380  213.3730  152.3660 C   0  0  2  0  0  3  0  0  0  0  0  0
  160.2070  211.9610  151.8880 C   0  0  1  0  0  3  0  0  0  0  0  0
  159.3240  210.8050  154.6310 C   0  0  0  0  0  3  0  0  0  0  0  0
  159.6210  213.0970  155.3520 C   0  0  0  0  0  3  0  0  0  0  0  0
  159.3500  208.9260  156.2760 C   0  0  0  0  0  1  0  0  0  0  0  0
  159.4440  210.3730  155.9540 C   0  0  0  0  0  0  0  0  0  0  0  0
  159.3980  212.1710  154.3240 C   0  0  0  0  0  0  0  0  0  0  0  0
  159.6520  211.3030  156.9780 C   0  0  0  0  0  3  0  0  0  0  0  0
  159.7440  212.6650  156.6760 C   0  0  0  0  0  3  0  0  0  0  0  0
  160.7870  212.9600  147.7570 C   0  0  1  0  0  3  0  0  0  0  0  0
  161.3630  211.5550  147.6440 C   0  0  0  0  0  1  0  0  0  0  0  0
  159.1310  214.4530  146.8420 O   0  0  0  0  0  1  0  0  0  0  0  0
  159.9120  213.3330  146.5240 C   0  0  1  0  0  0  0  0  0  0  0  0
  162.8750  214.4000  144.2720 C   0  0  0  0  0  3  0  0  0  0  0  0
  160.2740  213.3290  143.9940 N   0  0  0  0  0  0  0  0  0  0  0  0
  161.0900  213.5860  142.8150 C   0  0  1  0  0  0  0  0  0  0  0  0
  160.6730  212.9710  141.5420 C   0  0  0  0  0  2  0  0  0  0  0  0
  160.3700  214.3150  141.8550 O   0  0  0  0  0  0  0  0  0  0  0  0
  160.7730  213.6300  145.3070 C   0  0  0  0  0  0  0  0  0  0  0  0
  162.0100  214.1380  145.4420 C   0  0  0  0  0  2  0  0  0  0  0  0
  163.2930  214.3680  141.9820 F   0  0  0  0  0  0  0  0  0  0  0  0
  162.4620  214.1450  143.0310 C   0  0  0  0  0  0  0  0  0  0  0  0
  157.4850  212.6400  146.0460 C   0  0  0  0  0  1  0  0  0  0  0  0
  158.9360  212.1950  146.1810 C   0  0  0  0  0  2  0  0  0  0  0  0
  161.1100  211.0490  152.4990 O   0  0  0  0  0  0  0  0  0  0  0  0
  161.6130  205.9100  150.2460 O   0  0  0  0  0  1  0  0  0  0  0  0
  160.9130  206.1880  152.8960 F   0  0  0  0  0  0  0  0  0  0  0  0
  161.8670  208.2690  150.1400 C   0  0  0  0  0  0  0  0  0  0  0  0
  161.4490  207.1760  150.8020 C   0  0  0  0  0  0  0  0  0  0  0  0
  160.7250  207.3150  152.1190 C   0  0  2  0  0  3  0  0  0  0  0  0
  161.1890  208.5520  152.8960 C   0  0  0  0  0  2  0  0  0  0  0  0
  161.6770  209.6110  150.7260 C   0  0  0  0  0  3  0  0  0  0  0  0
  161.3130  209.7610  152.0010 C   0  0  0  0  0  0  0  0  0  0  0  0
  162.4640  208.1580  148.7780 C   0  0  0  0  0  2  0  0  0  0  0  0
  161.5860  207.3850  147.9120 N   0  0  0  0  0  2  0  0  0  0  0  0
  161.6000  205.1040  146.9570 C   0  0  0  0  0  0  0  0  0  0  0  0
  160.7780  205.4350  146.0610 O   0  0  0  0  0  0  0  0  0  0  0  0
  162.0780  203.7640  147.0160 N   0  0  0  0  0  1  0  0  0  0  0  0
  162.0610  206.0640  147.9090 N   0  0  0  0  0  2  0  0  0  0  0  0
  1  6  1  0  0  0  0
  2 16  1  1  0  0  0
  3  2  1  0  0  0  0
  3  9  2  0  0  0  0
  4  8  1  0  0  0  0
  4  1  1  0  0  0  0
  5  7  1  0  0  0  0
  6  3  1  0  0  0  0
  8 19  1  6  0  0  0
  8  5  1  0  0  0  0
 10  7  1  6  0  0  0
 10  2  1  0  0  0  0
 11 10  1  0  0  0  0
 11 34  1  1  0  0  0
 11  2  1  0  0  0  0
 12 15  1  0  0  0  0
 13 18  2  0  0  0  0
 15 14  1  0  0  0  0
 15 17  2  0  0  0  0
 16 12  2  0  0  0  0
 16 13  1  0  0  0  0
 18 17  1  0  0  0  0
 19 20  1  6  0  0  0
 22 21  1  1  0  0  0
 22 19  1  0  0  0  0
 23 29  1  0  0  0  0
 24 28  2  0  0  0  0
 25 26  1  6  0  0  0
 25 31  1  0  0  0  0
 25 24  1  0  0  0  0
 26 27  1  0  0  0  0
 27 25  1  0  0  0  0
 28 29  1  0  0  0  0
 28 22  1  0  0  0  0
 30 31  1  0  0  0  0
 31 23  2  0  0  0  0
 32 33  1  0  0  0  0
 33 22  1  0  0  0  0
 35 38  1  0  0  0  0
 37 41  1  0  0  0  0
 37 38  2  0  0  0  0
 38 39  1  0  0  0  0
 39 36  1  1  0  0  0
 39 40  1  0  0  0  0
 41 42  2  0  0  0  0
 42 34  1  0  0  0  0
 42 40  1  0  0  0  0
 43 37  1  0  0  0  0
 44 43  1  0  0  0  0
 45 47  1  0  0  0  0
 45 48  1  0  0  0  0
 46 45  2  0  0  0  0
 48 44  1  0  0  0  0
M  END
>  <MODEL>
4

>  <REMARK>
 VINA RESULT:      -4.3      2.609      3.878
  Name = 
  10 active torsions:
  status: ('A' for Active; 'I' for Inactive)
    1  A    between atoms: C_5  and  C_38
    2  A    between atoms: C_12  and  C_28
    3  A    between atoms: C_13  and  C_41
    4  A    between atoms: C_25  and  C_35
    5  A    between atoms: C_25  and  C_41
    6  A    between atoms: C_26  and  C_41
    7  A    between atoms: N_30  and  C_38
    8  A    between atoms: N_30  and  N_39
    9  A    between atoms: O_42  and  C_46
   10  A    between atoms: O_42  and  C_47
                            x       y       z     vdW  Elec       q    Type
                         _______ _______ _______ _____ _____    ______ ____

>  <TORSDO>
F 10

$$$$
=
 OpenBabel11072413003D

 48 53  0  0  1  0  0  0  0  0999 V2000
  163.1910  206.1640  151.6290 C   0  0  0  0  0  2  0  0  0  0  0  0
  161.2620  208.3860  152.8450 C   0  0  2  0  0  0  0  0  0  0  0  0
  161.3970  206.9490  153.3280 C   0  0  0  0  0  0  0  0  0  0  0  0
  162.4730  205.6150  150.4040 C   0  0  0  0  0  2  0  0  0  0  0  0
  160.6720  207.1540  149.4330 C   0  0  0  0  0  2  0  0  0  0  0  0
  162.3580  206.0090  152.8140 N   0  0  0  0  0  2  0  0  0  0  0  0
  160.0960  207.3220  150.8360 C   0  0  0  0  0  2  0  0  0  0  0  0
  162.1500  206.7560  149.4380 C   0  0  2  0  0  3  0  0  0  0  0  0
  160.6260  206.5610  154.2450 O   0  0  0  0  0  0  0  0  0  0  0  0
  160.5080  208.6290  151.5270 C   0  0  2  0  0  3  0  0  0  0  0  0
  162.0220  208.8130  151.5950 C   0  0  1  0  0  3  0  0  0  0  0  0
  159.7800  209.9730  154.1350 C   0  0  0  0  0  3  0  0  0  0  0  0
  162.1340  209.8580  154.6900 C   0  0  0  0  0  3  0  0  0  0  0  0
  158.2420  211.5070  155.3680 C   0  0  0  0  0  1  0  0  0  0  0  0
  159.5920  210.9340  155.1320 C   0  0  0  0  0  0  0  0  0  0  0  0
  161.0550  209.4400  153.8990 C   0  0  0  0  0  0  0  0  0  0  0  0
  160.6750  211.3580  155.9080 C   0  0  0  0  0  3  0  0  0  0  0  0
  161.9450  210.8170  155.6890 C   0  0  0  0  0  3  0  0  0  0  0  0
  162.7040  206.5510  148.0160 C   0  0  1  0  0  3  0  0  0  0  0  0
  164.0870  205.9190  148.1000 C   0  0  0  0  0  1  0  0  0  0  0  0
  162.3760  205.8600  145.7300 O   0  0  0  0  0  1  0  0  0  0  0  0
  161.7840  205.8100  147.0000 C   0  0  1  0  0  0  0  0  0  0  0  0
  161.5480  201.9460  146.9260 C   0  0  0  0  0  3  0  0  0  0  0  0
  161.2070  204.0610  148.7710 N   0  0  0  0  0  2  0  0  0  0  0  0
  161.0100  202.6810  149.1940 C   0  0  1  0  0  0  0  0  0  0  0  0
  160.9700  202.4040  150.6410 C   0  0  0  0  0  2  0  0  0  0  0  0
  159.7910  202.5340  149.8740 O   0  0  0  0  0  0  0  0  0  0  0  0
  161.5620  204.3640  147.4120 C   0  0  0  0  0  0  0  0  0  0  0  0
  161.7260  203.3600  146.5340 C   0  0  0  0  0  3  0  0  0  0  0  0
  161.0900  200.2980  148.5060 F   0  0  0  0  0  0  0  0  0  0  0  0
  161.2140  201.6070  148.1710 C   0  0  0  0  0  0  0  0  0  0  0  0
  159.7050  206.2620  145.5610 C   0  0  0  0  0  1  0  0  0  0  0  0
  160.4210  206.5130  146.8820 C   0  0  0  0  0  2  0  0  0  0  0  0
  162.3140  210.2050  151.5860 O   0  0  0  0  0  0  0  0  0  0  0  0
  159.8130  214.0480  148.3120 O   0  0  0  0  0  1  0  0  0  0  0  0
  159.0750  213.8010  150.9540 F   0  0  0  0  0  0  0  0  0  0  0  0
  161.2510  212.1810  148.6140 C   0  0  0  0  0  0  0  0  0  0  0  0
  160.4520  213.1270  149.1380 C   0  0  0  0  0  0  0  0  0  0  0  0
  160.3020  213.2510  150.6350 C   0  0  2  0  0  3  0  0  0  0  0  0
  160.4500  211.8970  151.3360 C   0  0  0  0  0  2  0  0  0  0  0  0
  161.9380  211.2160  149.4950 C   0  0  0  0  0  3  0  0  0  0  0  0
  161.6090  211.1040  150.7840 C   0  0  0  0  0  0  0  0  0  0  0  0
  161.5140  212.1280  147.1470 C   0  0  0  0  0  2  0  0  0  0  0  0
  162.3890  213.2250  146.7600 N   0  0  0  0  0  2  0  0  0  0  0  0
  162.5310  213.6990  144.3360 C   0  0  0  0  0  0  0  0  0  0  0  0
  163.6150  213.0650  144.2390 O   0  0  0  0  0  0  0  0  0  0  0  0
  161.9730  214.3240  143.1850 N   0  0  0  0  0  1  0  0  0  0  0  0
  161.8540  213.7910  145.5920 N   0  0  0  0  0  2  0  0  0  0  0  0
  1  6  1  0  0  0  0
  2  3  1  0  0  0  0
  2 16  1  1  0  0  0
  3  9  2  0  0  0  0
  4  1  1  0  0  0  0
  5  8  1  0  0  0  0
  5  7  1  0  0  0  0
  6  3  1  0  0  0  0
  8 19  1  6  0  0  0
  8  4  1  0  0  0  0
 10  7  1  6  0  0  0
 10 11  1  0  0  0  0
 10  2  1  0  0  0  0
 11 34  1  1  0  0  0
 11  2  1  0  0  0  0
 12 15  1  0  0  0  0
 13 18  2  0  0  0  0
 15 14  1  0  0  0  0
 15 17  2  0  0  0  0
 16 12  2  0  0  0  0
 16 13  1  0  0  0  0
 18 17  1  0  0  0  0
 19 20  1  1  0  0  0
 22 21  1  6  0  0  0
 22 28  1  0  0  0  0
 22 19  1  0  0  0  0
 23 31  2  0  0  0  0
 24 25  1  0  0  0  0
 25 27  1  0  0  0  0
 25 26  1  1  0  0  0
 27 26  1  0  0  0  0
 28 24  1  0  0  0  0
 29 23  1  0  0  0  0
 29 28  2  0  0  0  0
 31 30  1  0  0  0  0
 31 25  1  0  0  0  0
 32 33  1  0  0  0  0
 33 22  1  0  0  0  0
 35 38  1  0  0  0  0
 37 38  2  0  0  0  0
 37 41  1  0  0  0  0
 38 39  1  0  0  0  0
 39 36  1  6  0  0  0
 39 40  1  0  0  0  0
 41 42  2  0  0  0  0
 42 40  1  0  0  0  0
 42 34  1  0  0  0  0
 43 37  1  0  0  0  0
 44 43  1  0  0  0  0
 45 48  1  0  0  0  0
 46 45  2  0  0  0  0
 47 45  1  0  0  0  0
 48 44  1  0  0  0  0
M  END
>  <MODEL>
5

>  <REMARK>
 VINA RESULT:      -4.3      2.806      8.238
  Name = 
  10 active torsions:
  status: ('A' for Active; 'I' for Inactive)
    1  A    between atoms: C_5  and  C_38
    2  A    between atoms: C_12  and  C_28
    3  A    between atoms: C_13  and  C_41
    4  A    between atoms: C_25  and  C_35
    5  A    between atoms: C_25  and  C_41
    6  A    between atoms: C_26  and  C_41
    7  A    between atoms: N_30  and  C_38
    8  A    between atoms: N_30  and  N_39
    9  A    between atoms: O_42  and  C_46
   10  A    between atoms: O_42  and  C_47
                            x       y       z     vdW  Elec       q    Type
                         _______ _______ _______ _____ _____    ______ ____

>  <TORSDO>
F 10

$$$$
=
 OpenBabel11072413003D

 48 53  0  0  1  0  0  0  0  0999 V2000
  159.9200  207.4570  151.6760 C   0  0  0  0  0  2  0  0  0  0  0  0
  161.5980  206.7930  149.0530 C   0  0  2  0  0  0  0  0  0  0  0  0
  161.1730  205.8000  150.1260 C   0  0  0  0  0  0  0  0  0  0  0  0
  160.9200  208.0120  152.6810 C   0  0  0  0  0  2  0  0  0  0  0  0
  163.0820  208.9230  151.6550 C   0  0  0  0  0  2  0  0  0  0  0  0
  160.3250  206.1270  151.2410 N   0  0  0  0  0  2  0  0  0  0  0  0
  163.2110  207.6340  150.8470 C   0  0  0  0  0  2  0  0  0  0  0  0
  161.6410  209.2190  152.0800 C   0  0  2  0  0  3  0  0  0  0  0  0
  161.5780  204.6120  150.0220 O   0  0  0  0  0  0  0  0  0  0  0  0
  162.7430  207.7620  149.3910 C   0  0  2  0  0  3  0  0  0  0  0  0
  161.3090  208.2730  149.2700 C   0  0  1  0  0  3  0  0  0  0  0  0
  162.6280  205.5240  147.1270 C   0  0  0  0  0  3  0  0  0  0  0  0
  160.4760  206.5890  146.8100 C   0  0  0  0  0  3  0  0  0  0  0  0
  163.7120  204.2400  145.2790 C   0  0  0  0  0  1  0  0  0  0  0  0
  162.5900  205.0550  145.8110 C   0  0  0  0  0  0  0  0  0  0  0  0
  161.5780  206.3050  147.6300 C   0  0  0  0  0  0  0  0  0  0  0  0
  161.4950  205.3540  144.9940 C   0  0  0  0  0  3  0  0  0  0  0  0
  160.4370  206.1180  145.4950 C   0  0  0  0  0  3  0  0  0  0  0  0
  161.5360  210.5000  152.9290 C   0  0  1  0  0  3  0  0  0  0  0  0
  160.4330  211.3870  152.3660 C   0  0  0  0  0  1  0  0  0  0  0  0
  162.6080  210.7170  155.0770 O   0  0  0  0  0  1  0  0  0  0  0  0
  161.4080  210.3170  154.4710 C   0  0  1  0  0  0  0  0  0  0  0  0
  159.3550  213.0200  156.3330 C   0  0  0  0  0  3  0  0  0  0  0  0
  158.9030  210.7720  154.6800 N   0  0  0  0  0  0  0  0  0  0  0  0
  157.7780  211.5490  155.1840 C   0  0  1  0  0  0  0  0  0  0  0  0
  156.4630  211.3470  154.5500 C   0  0  0  0  0  2  0  0  0  0  0  0
  156.8110  210.7120  155.7640 O   0  0  0  0  0  0  0  0  0  0  0  0
  160.2510  211.1290  155.0270 C   0  0  0  0  0  0  0  0  0  0  0  0
  160.4680  212.1990  155.8120 C   0  0  0  0  0  2  0  0  0  0  0  0
  157.0900  213.5260  156.5160 F   0  0  0  0  0  0  0  0  0  0  0  0
  158.0850  212.7320  156.0470 C   0  0  0  0  0  0  0  0  0  0  0  0
  161.5350  208.4970  156.2780 C   0  0  0  0  0  1  0  0  0  0  0  0
  161.2010  208.8370  154.8310 C   0  0  0  0  0  2  0  0  0  0  0  0
  161.1810  208.9860  148.0470 O   0  0  0  0  0  0  0  0  0  0  0  0
  162.5600  214.3850  147.2180 O   0  0  0  0  0  1  0  0  0  0  0  0
  164.2040  212.7600  148.7160 F   0  0  0  0  0  0  0  0  0  0  0  0
  161.0310  212.5740  147.0620 C   0  0  0  0  0  0  0  0  0  0  0  0
  162.2470  213.0400  147.3960 C   0  0  0  0  0  0  0  0  0  0  0  0
  163.3130  212.0950  147.8940 C   0  0  2  0  0  3  0  0  0  0  0  0
  162.7110  210.9070  148.6530 C   0  0  0  0  0  2  0  0  0  0  0  0
  160.7080  211.1450  147.2390 C   0  0  0  0  0  3  0  0  0  0  0  0
  161.5090  210.3390  147.9400 C   0  0  0  0  0  0  0  0  0  0  0  0
  160.0110  213.4700  146.4440 C   0  0  0  0  0  2  0  0  0  0  0  0
  159.6500  212.9750  145.1240 N   0  0  0  0  0  2  0  0  0  0  0  0
  160.9630  212.2870  143.1440 C   0  0  0  0  0  0  0  0  0  0  0  0
  160.0750  211.4640  142.7960 O   0  0  0  0  0  0  0  0  0  0  0  0
  162.1500  212.4150  142.3690 N   0  0  0  0  0  1  0  0  0  0  0  0
  160.7860  213.0970  144.3080 N   0  0  0  0  0  2  0  0  0  0  0  0
  1  4  1  0  0  0  0
  2 16  1  6  0  0  0
  2 11  1  0  0  0  0
  2 10  1  0  0  0  0
  2  3  1  0  0  0  0
  3  6  1  0  0  0  0
  5  8  1  0  0  0  0
  6  1  1  0  0  0  0
  7  5  1  0  0  0  0
  8  4  1  0  0  0  0
  8 19  1  1  0  0  0
  9  3  2  0  0  0  0
 10  7  1  1  0  0  0
 11 34  1  6  0  0  0
 11 10  1  0  0  0  0
 12 16  1  0  0  0  0
 13 16  2  0  0  0  0
 14 15  1  0  0  0  0
 15 12  2  0  0  0  0
 17 18  2  0  0  0  0
 17 15  1  0  0  0  0
 18 13  1  0  0  0  0
 19 20  1  6  0  0  0
 19 22  1  0  0  0  0
 22 33  1  0  0  0  0
 22 28  1  0  0  0  0
 22 21  1  1  0  0  0
 24 28  2  0  0  0  0
 24 25  1  0  0  0  0
 25 26  1  6  0  0  0
 25 27  1  0  0  0  0
 25 31  1  0  0  0  0
 26 27  1  0  0  0  0
 28 29  1  0  0  0  0
 29 23  1  0  0  0  0
 31 23  2  0  0  0  0
 31 30  1  0  0  0  0
 33 32  1  0  0  0  0
 35 38  1  0  0  0  0
 37 41  1  0  0  0  0
 37 38  2  0  0  0  0
 38 39  1  0  0  0  0
 39 40  1  0  0  0  0
 39 36  1  1  0  0  0
 41 42  2  0  0  0  0
 42 34  1  0  0  0  0
 42 40  1  0  0  0  0
 43 37  1  0  0  0  0
 44 43  1  0  0  0  0
 45 48  1  0  0  0  0
 46 45  2  0  0  0  0
 47 45  1  0  0  0  0
 48 44  1  0  0  0  0
M  END
>  <MODEL>
6

>  <REMARK>
 VINA RESULT:      -3.3      3.185      8.850
  Name = 
  10 active torsions:
  status: ('A' for Active; 'I' for Inactive)
    1  A    between atoms: C_5  and  C_38
    2  A    between atoms: C_12  and  C_28
    3  A    between atoms: C_13  and  C_41
    4  A    between atoms: C_25  and  C_35
    5  A    between atoms: C_25  and  C_41
    6  A    between atoms: C_26  and  C_41
    7  A    between atoms: N_30  and  C_38
    8  A    between atoms: N_30  and  N_39
    9  A    between atoms: O_42  and  C_46
   10  A    between atoms: O_42  and  C_47
                            x       y       z     vdW  Elec       q    Type
                         _______ _______ _______ _____ _____    ______ ____

>  <TORSDO>
F 10

$$$$
=
 OpenBabel11072413003D

 48 53  0  0  1  0  0  0  0  0999 V2000
  163.0910  206.1740  151.9780 C   0  0  0  0  0  2  0  0  0  0  0  0
  161.2090  208.4200  153.2220 C   0  0  2  0  0  0  0  0  0  0  0  0
  161.3180  206.9750  153.6900 C   0  0  0  0  0  0  0  0  0  0  0  0
  162.3590  205.6510  150.7500 C   0  0  0  0  0  2  0  0  0  0  0  0
  160.5850  207.2340  149.8000 C   0  0  0  0  0  2  0  0  0  0  0  0
  162.2590  206.0230  153.1650 N   0  0  0  0  0  2  0  0  0  0  0  0
  160.0160  207.3990  151.2070 C   0  0  0  0  0  2  0  0  0  0  0  0
  162.0550  206.8070  149.7970 C   0  0  2  0  0  3  0  0  0  0  0  0
  160.5430  206.5940  154.6070 O   0  0  0  0  0  0  0  0  0  0  0  0
  160.4560  208.6900  151.9100 C   0  0  2  0  0  3  0  0  0  0  0  0
  161.9740  208.8450  151.9750 C   0  0  1  0  0  3  0  0  0  0  0  0
  159.7430  209.8140  154.7340 C   0  0  0  0  0  3  0  0  0  0  0  0
  162.1470  210.0650  154.8790 C   0  0  0  0  0  3  0  0  0  0  0  0
  158.2200  211.1460  156.1990 C   0  0  0  0  0  1  0  0  0  0  0  0
  159.5820  210.7710  155.7400 C   0  0  0  0  0  0  0  0  0  0  0  0
  161.0260  209.4670  154.2880 C   0  0  0  0  0  0  0  0  0  0  0  0
  160.7040  211.3750  156.3160 C   0  0  0  0  0  3  0  0  0  0  0  0
  161.9860  211.0200  155.8870 C   0  0  0  0  0  3  0  0  0  0  0  0
  162.6000  206.6060  148.3710 C   0  0  1  0  0  3  0  0  0  0  0  0
  164.0770  206.2400  148.4430 C   0  0  0  0  0  1  0  0  0  0  0  0
  162.6040  205.3130  146.3360 O   0  0  0  0  0  1  0  0  0  0  0  0
  161.8050  205.6420  147.4400 C   0  0  1  0  0  0  0  0  0  0  0  0
  160.4000  203.2240  150.1170 C   0  0  0  0  0  3  0  0  0  0  0  0
  161.5700  203.1000  147.5470 N   0  0  0  0  0  0  0  0  0  0  0  0
  161.1650  201.8770  148.2270 C   0  0  1  0  0  0  0  0  0  0  0  0
  161.0640  200.6440  147.4250 C   0  0  0  0  0  2  0  0  0  0  0  0
  162.2000  200.9290  148.2150 O   0  0  0  0  0  0  0  0  0  0  0  0
  161.3950  204.3790  148.1780 C   0  0  0  0  0  0  0  0  0  0  0  0
  160.8370  204.4400  149.3990 C   0  0  0  0  0  2  0  0  0  0  0  0
  160.1030  200.9180  150.2540 F   0  0  0  0  0  0  0  0  0  0  0  0
  160.5430  202.0110  149.5820 C   0  0  0  0  0  0  0  0  0  0  0  0
  160.3780  206.2000  145.3790 C   0  0  0  0  0  1  0  0  0  0  0  0
  160.5460  206.3300  146.8870 C   0  0  0  0  0  2  0  0  0  0  0  0
  162.2920  210.2300  151.9780 O   0  0  0  0  0  0  0  0  0  0  0  0
  160.2400  213.5360  147.9030 O   0  0  0  0  0  1  0  0  0  0  0  0
  162.1120  211.6080  147.2990 F   0  0  0  0  0  0  0  0  0  0  0  0
  160.4850  212.9530  150.1930 C   0  0  0  0  0  0  0  0  0  0  0  0
  160.7250  212.6890  148.8970 C   0  0  0  0  0  0  0  0  0  0  0  0
  161.4520  211.4280  148.5000 C   0  0  2  0  0  3  0  0  0  0  0  0
  162.4580  210.9910  149.5710 C   0  0  0  0  0  2  0  0  0  0  0  0
  160.9870  212.0450  151.2430 C   0  0  0  0  0  3  0  0  0  0  0  0
  161.8750  211.0890  150.9590 C   0  0  0  0  0  0  0  0  0  0  0  0
  159.6530  214.1240  150.5950 C   0  0  0  0  0  2  0  0  0  0  0  0
  158.4140  213.6660  151.2070 N   0  0  0  0  0  2  0  0  0  0  0  0
  157.6230  213.7240  153.5500 C   0  0  0  0  0  0  0  0  0  0  0  0
  157.1660  212.5540  153.4620 O   0  0  0  0  0  0  0  0  0  0  0  0
  157.4820  214.4480  154.7680 N   0  0  0  0  0  1  0  0  0  0  0  0
  158.2880  214.3280  152.4380 N   0  0  0  0  0  2  0  0  0  0  0  0
  1  6  1  0  0  0  0
  2  3  1  0  0  0  0
  2 16  1  1  0  0  0
  3  9  2  0  0  0  0
  4  1  1  0  0  0  0
  5  7  1  0  0  0  0
  6  3  1  0  0  0  0
  8 19  1  6  0  0  0
  8  5  1  0  0  0  0
  8  4  1  0  0  0  0
 10  7  1  6  0  0  0
 10 11  1  0  0  0  0
 10  2  1  0  0  0  0
 11 34  1  1  0  0  0
 11  2  1  0  0  0  0
 12 15  1  0  0  0  0
 13 18  2  0  0  0  0
 15 14  1  0  0  0  0
 15 17  2  0  0  0  0
 16 12  2  0  0  0  0
 16 13  1  0  0  0  0
 18 17  1  0  0  0  0
 19 20  1  1  0  0  0
 22 21  1  6  0  0  0
 22 28  1  0  0  0  0
 22 19  1  0  0  0  0
 24 28  2  0  0  0  0
 24 25  1  0  0  0  0
 25 26  1  6  0  0  0
 25 31  1  0  0  0  0
 26 27  1  0  0  0  0
 27 25  1  0  0  0  0
 28 29  1  0  0  0  0
 29 23  1  0  0  0  0
 31 23  2  0  0  0  0
 31 30  1  0  0  0  0
 32 33  1  0  0  0  0
 33 22  1  0  0  0  0
 35 38  1  0  0  0  0
 37 43  1  0  0  0  0
 37 41  1  0  0  0  0
 38 37  2  0  0  0  0
 39 36  1  6  0  0  0
 39 38  1  0  0  0  0
 39 40  1  0  0  0  0
 40 42  1  0  0  0  0
 42 41  2  0  0  0  0
 42 34  1  0  0  0  0
 43 44  1  0  0  0  0
 44 48  1  0  0  0  0
 45 47  1  0  0  0  0
 46 45  2  0  0  0  0
 48 45  1  0  0  0  0
M  END
>  <MODEL>
7

>  <REMARK>
 VINA RESULT:      -3.1      2.945      8.540
  Name = 
  10 active torsions:
  status: ('A' for Active; 'I' for Inactive)
    1  A    between atoms: C_5  and  C_38
    2  A    between atoms: C_12  and  C_28
    3  A    between atoms: C_13  and  C_41
    4  A    between atoms: C_25  and  C_35
    5  A    between atoms: C_25  and  C_41
    6  A    between atoms: C_26  and  C_41
    7  A    between atoms: N_30  and  C_38
    8  A    between atoms: N_30  and  N_39
    9  A    between atoms: O_42  and  C_46
   10  A    between atoms: O_42  and  C_47
                            x       y       z     vdW  Elec       q    Type
                         _______ _______ _______ _____ _____    ______ ____

>  <TORSDO>
F 10

$$$$
=
 OpenBabel11072413003D

 48 53  0  0  1  0  0  0  0  0999 V2000
  163.0490  210.4440  151.6200 C   0  0  0  0  0  2  0  0  0  0  0  0
  161.7880  208.2310  149.7110 C   0  0  2  0  0  0  0  0  0  0  0  0
  161.7320  209.7380  149.5030 C   0  0  0  0  0  0  0  0  0  0  0  0
  162.0530  210.6310  152.7560 C   0  0  0  0  0  2  0  0  0  0  0  0
  160.4330  208.6770  153.0980 C   0  0  0  0  0  2  0  0  0  0  0  0
  162.4060  210.6960  150.3380 N   0  0  0  0  0  2  0  0  0  0  0  0
  160.1340  208.6970  151.6010 C   0  0  0  0  0  2  0  0  0  0  0  0
  161.7930  209.2890  153.4430 C   0  0  2  0  0  3  0  0  0  0  0  0
  161.0620  210.1730  148.5280 O   0  0  0  0  0  0  0  0  0  0  0  0
  160.8880  207.6270  150.8010 C   0  0  2  0  0  3  0  0  0  0  0  0
  162.4000  207.6920  150.9970 C   0  0  1  0  0  3  0  0  0  0  0  0
  160.8650  207.1350  147.6300 C   0  0  0  0  0  3  0  0  0  0  0  0
  163.2170  206.8730  148.1470 C   0  0  0  0  0  3  0  0  0  0  0  0
  159.8740  206.0930  145.5880 C   0  0  0  0  0  1  0  0  0  0  0  0
  161.0330  206.3640  146.4770 C   0  0  0  0  0  0  0  0  0  0  0  0
  161.9530  207.3810  148.4800 C   0  0  0  0  0  0  0  0  0  0  0  0
  162.2930  205.8470  146.1580 C   0  0  0  0  0  3  0  0  0  0  0  0
  163.3850  206.1050  146.9920 C   0  0  0  0  0  3  0  0  0  0  0  0
  162.0600  209.2980  154.9600 C   0  0  1  0  0  3  0  0  0  0  0  0
  163.0150  210.4360  155.2970 C   0  0  0  0  0  1  0  0  0  0  0  0
  161.2480  209.1950  157.2270 O   0  0  0  0  0  1  0  0  0  0  0  0
  160.8150  209.2840  155.8960 C   0  0  1  0  0  0  0  0  0  0  0  0
  159.7190  212.9830  155.5680 C   0  0  0  0  0  3  0  0  0  0  0  0
  158.5720  210.4040  155.4050 N   0  0  0  0  0  0  0  0  0  0  0  0
  157.7470  211.5870  155.1990 C   0  0  1  0  0  0  0  0  0  0  0  0
  156.4210  211.4030  154.5810 C   0  0  0  0  0  2  0  0  0  0  0  0
  156.5820  211.5290  155.9790 O   0  0  0  0  0  0  0  0  0  0  0  0
  159.9710  210.5330  155.7080 C   0  0  0  0  0  0  0  0  0  0  0  0
  160.5180  211.7580  155.7840 C   0  0  0  0  0  2  0  0  0  0  0  0
  157.7190  214.0650  155.0660 F   0  0  0  0  0  0  0  0  0  0  0  0
  158.4170  212.9230  155.2900 C   0  0  0  0  0  0  0  0  0  0  0  0
  160.1730  206.9020  156.6100 C   0  0  0  0  0  1  0  0  0  0  0  0
  159.9440  208.0450  155.6300 C   0  0  0  0  0  2  0  0  0  0  0  0
  162.9380  206.3860  150.8380 O   0  0  0  0  0  0  0  0  0  0  0  0
  159.5040  201.9420  151.2820 O   0  0  0  0  0  1  0  0  0  0  0  0
  160.2020  203.3710  153.5300 F   0  0  0  0  0  0  0  0  0  0  0  0
  160.9810  203.3220  150.0340 C   0  0  0  0  0  0  0  0  0  0  0  0
  160.3220  203.0640  151.1770 C   0  0  0  0  0  0  0  0  0  0  0  0
  160.3970  204.0320  152.3320 C   0  0  2  0  0  3  0  0  0  0  0  0
  161.7390  204.7700  152.3710 C   0  0  0  0  0  2  0  0  0  0  0  0
  161.8350  204.5210  149.9220 C   0  0  0  0  0  3  0  0  0  0  0  0
  162.1600  205.2380  150.9990 C   0  0  0  0  0  0  0  0  0  0  0  0
  160.8130  202.4450  148.8380 C   0  0  0  0  0  2  0  0  0  0  0  0
  161.5900  202.9700  147.7250 N   0  0  0  0  0  2  0  0  0  0  0  0
  160.7300  201.3680  146.0490 C   0  0  0  0  0  0  0  0  0  0  0  0
  161.2180  200.3920  146.6780 O   0  0  0  0  0  0  0  0  0  0  0  0
  160.0270  201.1430  144.8310 N   0  0  0  0  0  1  0  0  0  0  0  0
  160.8710  202.6980  146.5510 N   0  0  0  0  0  2  0  0  0  0  0  0
  1  4  1  0  0  0  0
  2 16  1  6  0  0  0
  2 10  1  0  0  0  0
  2 11  1  0  0  0  0
  3  2  1  0  0  0  0
  3  6  1  0  0  0  0
  4  8  1  0  0  0  0
  5  8  1  0  0  0  0
  6  1  1  0  0  0  0
  7  5  1  0  0  0  0
  8 19  1  1  0  0  0
  9  3  2  0  0  0  0
 10 11  1  0  0  0  0
 10  7  1  1  0  0  0
 11 34  1  6  0  0  0
 12 16  1  0  0  0  0
 13 16  2  0  0  0  0
 14 15  1  0  0  0  0
 15 12  2  0  0  0  0
 17 15  1  0  0  0  0
 17 18  2  0  0  0  0
 18 13  1  0  0  0  0
 19 20  1  6  0  0  0
 19 22  1  0  0  0  0
 22 21  1  1  0  0  0
 23 29  1  0  0  0  0
 24 28  2  0  0  0  0
 25 26  1  6  0  0  0
 25 31  1  0  0  0  0
 25 24  1  0  0  0  0
 25 27  1  0  0  0  0
 26 27  1  0  0  0  0
 28 29  1  0  0  0  0
 28 22  1  0  0  0  0
 30 31  1  0  0  0  0
 31 23  2  0  0  0  0
 33 22  1  0  0  0  0
 33 32  1  0  0  0  0
 34 42  1  0  0  0  0
 37 38  2  0  0  0  0
 38 35  1  0  0  0  0
 38 39  1  0  0  0  0
 39 40  1  0  0  0  0
 39 36  1  1  0  0  0
 41 37  1  0  0  0  0
 41 42  2  0  0  0  0
 42 40  1  0  0  0  0
 43 37  1  0  0  0  0
 44 43  1  0  0  0  0
 45 48  1  0  0  0  0
 45 46  2  0  0  0  0
 47 45  1  0  0  0  0
 48 44  1  0  0  0  0
M  END
>  <MODEL>
8

>  <REMARK>
 VINA RESULT:      -3.0      4.190      7.598
  Name = 
  10 active torsions:
  status: ('A' for Active; 'I' for Inactive)
    1  A    between atoms: C_5  and  C_38
    2  A    between atoms: C_12  and  C_28
    3  A    between atoms: C_13  and  C_41
    4  A    between atoms: C_25  and  C_35
    5  A    between atoms: C_25  and  C_41
    6  A    between atoms: C_26  and  C_41
    7  A    between atoms: N_30  and  C_38
    8  A    between atoms: N_30  and  N_39
    9  A    between atoms: O_42  and  C_46
   10  A    between atoms: O_42  and  C_47
                            x       y       z     vdW  Elec       q    Type
                         _______ _______ _______ _____ _____    ______ ____

>  <TORSDO>
F 10

$$$$
=
 OpenBabel11072413003D

 48 53  0  0  1  0  0  0  0  0999 V2000
  161.1550  207.9460  148.4010 C   0  0  0  0  0  2  0  0  0  0  0  0
  161.4670  210.5730  150.1710 C   0  0  2  0  0  0  0  0  0  0  0  0
  161.9300  210.3970  148.7310 C   0  0  0  0  0  0  0  0  0  0  0  0
  162.2990  207.0290  148.8110 C   0  0  0  0  0  2  0  0  0  0  0  0
  163.3140  207.5370  151.1060 C   0  0  0  0  0  2  0  0  0  0  0  0
  161.6740  209.2250  147.9360 N   0  0  0  0  0  2  0  0  0  0  0  0
  163.4120  209.0080  150.7090 C   0  0  0  0  0  2  0  0  0  0  0  0
  162.2450  206.7760  150.3180 C   0  0  2  0  0  3  0  0  0  0  0  0
  162.5660  211.3440  148.1970 O   0  0  0  0  0  0  0  0  0  0  0  0
  162.2850  209.8820  151.2730 C   0  0  2  0  0  3  0  0  0  0  0  0
  160.8940  209.3700  150.9080 C   0  0  1  0  0  3  0  0  0  0  0  0
  160.1670  212.0840  151.7230 C   0  0  0  0  0  3  0  0  0  0  0  0
  161.1700  213.0340  149.7330 C   0  0  0  0  0  3  0  0  0  0  0  0
  158.8730  213.5080  153.3160 C   0  0  0  0  0  1  0  0  0  0  0  0
  159.6700  213.3420  152.0730 C   0  0  0  0  0  0  0  0  0  0  0  0
  160.9070  211.9200  150.5430 C   0  0  0  0  0  0  0  0  0  0  0  0
  159.9230  214.4470  151.2540 C   0  0  0  0  0  3  0  0  0  0  0  0
  160.6750  214.2920  150.0860 C   0  0  0  0  0  3  0  0  0  0  0  0
  162.1880  205.2850  150.7030 C   0  0  1  0  0  3  0  0  0  0  0  0
  162.5800  205.1280  152.1660 C   0  0  0  0  0  1  0  0  0  0  0  0
  159.8180  205.4380  150.2860 O   0  0  0  0  0  1  0  0  0  0  0  0
  160.8740  204.5190  150.3650 C   0  0  1  0  0  0  0  0  0  0  0  0
  160.8950  201.6840  147.7280 C   0  0  0  0  0  3  0  0  0  0  0  0
  161.2920  204.4800  147.8440 N   0  0  0  0  0  0  0  0  0  0  0  0
  161.3980  203.7770  146.5720 C   0  0  1  0  0  0  0  0  0  0  0  0
  161.3740  204.5820  145.3370 C   0  0  0  0  0  2  0  0  0  0  0  0
  162.5840  204.1230  145.9050 O   0  0  0  0  0  0  0  0  0  0  0  0
  161.0010  203.7610  149.0540 C   0  0  0  0  0  0  0  0  0  0  0  0
  160.8100  202.4320  149.0000 C   0  0  0  0  0  2  0  0  0  0  0  0
  161.2080  201.5870  145.4230 F   0  0  0  0  0  0  0  0  0  0  0  0
  161.1680  202.2980  146.5770 C   0  0  0  0  0  0  0  0  0  0  0  0
  161.5330  202.4080  151.6710 C   0  0  0  0  0  1  0  0  0  0  0  0
  160.5160  203.5270  151.4840 C   0  0  0  0  0  2  0  0  0  0  0  0
  159.9860  209.7440  151.9350 O   0  0  0  0  0  0  0  0  0  0  0  0
  160.7410  207.9870  157.2350 O   0  0  0  0  0  1  0  0  0  0  0  0
  161.1000  206.2350  155.1400 F   0  0  0  0  0  0  0  0  0  0  0  0
  160.0360  209.6170  155.6560 C   0  0  0  0  0  0  0  0  0  0  0  0
  160.5930  208.4220  155.9200 C   0  0  0  0  0  0  0  0  0  0  0  0
  161.1390  207.5740  154.7970 C   0  0  2  0  0  3  0  0  0  0  0  0
  160.3630  207.7870  153.4930 C   0  0  0  0  0  2  0  0  0  0  0  0
  159.8960  210.0800  154.2620 C   0  0  0  0  0  3  0  0  0  0  0  0
  160.0930  209.2490  153.2360 C   0  0  0  0  0  0  0  0  0  0  0  0
  159.6130  210.5250  156.7610 C   0  0  0  0  0  2  0  0  0  0  0  0
  158.9130  211.6780  156.2150 N   0  0  0  0  0  2  0  0  0  0  0  0
  156.4400  211.6940  156.1660 C   0  0  0  0  0  0  0  0  0  0  0  0
  156.4280  211.5060  154.9200 O   0  0  0  0  0  0  0  0  0  0  0  0
  155.2110  211.8300  156.8710 N   0  0  0  0  0  1  0  0  0  0  0  0
  157.6770  211.7670  156.8760 N   0  0  0  0  0  2  0  0  0  0  0  0
  1  4  1  0  0  0  0
  2 16  1  1  0  0  0
  2 11  1  0  0  0  0
  2 10  1  0  0  0  0
  3  2  1  0  0  0  0
  4  8  1  0  0  0  0
  6  1  1  0  0  0  0
  6  3  1  0  0  0  0
  7  5  1  0  0  0  0
  8 19  1  6  0  0  0
  8  5  1  0  0  0  0
  9  3  2  0  0  0  0
 10  7  1  6  0  0  0
 11 10  1  0  0  0  0
 11 34  1  1  0  0  0
 12 15  1  0  0  0  0
 13 18  2  0  0  0  0
 13 16  1  0  0  0  0
 15 14  1  0  0  0  0
 16 12  2  0  0  0  0
 17 15  2  0  0  0  0
 18 17  1  0  0  0  0
 19 20  1  1  0  0  0
 22 21  1  6  0  0  0
 22 19  1  0  0  0  0
 22 33  1  0  0  0  0
 23 29  1  0  0  0  0
 24 28  2  0  0  0  0
 25 26  1  6  0  0  0
 25 31  1  0  0  0  0
 25 24  1  0  0  0  0
 26 27  1  0  0  0  0
 27 25  1  0  0  0  0
 28 22  1  0  0  0  0
 29 28  1  0  0  0  0
 30 31  1  0  0  0  0
 31 23  2  0  0  0  0
 33 32  1  0  0  0  0
 34 42  1  0  0  0  0
 37 38  2  0  0  0  0
 37 43  1  0  0  0  0
 38 35  1  0  0  0  0
 39 36  1  1  0  0  0
 39 38  1  0  0  0  0
 40 39  1  0  0  0  0
 41 37  1  0  0  0  0
 42 40  1  0  0  0  0
 42 41  2  0  0  0  0
 44 43  1  0  0  0  0
 44 48  1  0  0  0  0
 45 47  1  0  0  0  0
 45 48  1  0  0  0  0
 46 45  2  0  0  0  0
M  END
>  <MODEL>
9

>  <REMARK>
 VINA RESULT:      -3.0      3.526      8.908
  Name = 
  10 active torsions:
  status: ('A' for Active; 'I' for Inactive)
    1  A    between atoms: C_5  and  C_38
    2  A    between atoms: C_12  and  C_28
    3  A    between atoms: C_13  and  C_41
    4  A    between atoms: C_25  and  C_35
    5  A    between atoms: C_25  and  C_41
    6  A    between atoms: C_26  and  C_41
    7  A    between atoms: N_30  and  C_38
    8  A    between atoms: N_30  and  N_39
    9  A    between atoms: O_42  and  C_46
   10  A    between atoms: O_42  and  C_47
                            x       y       z     vdW  Elec       q    Type
                         _______ _______ _______ _____ _____    ______ ____

>  <TORSDO>
F 10

$$$$
