=
 OpenBabel11072414343D

 36 40  0  0  1  0  0  0  0  0999 V2000
  160.5010  207.6960  155.4170 C   0  0  0  0  0  0  0  0  0  0  0  0
  160.3120  209.7280  156.6620 O   0  0  0  0  0  1  0  0  0  0  0  0
  161.0460  206.2380  151.4530 C   0  0  2  0  0  3  0  0  0  0  0  0
  161.0080  207.1800  154.1380 C   0  0  0  0  0  0  0  0  0  0  0  0
  159.9500  209.0930  155.4700 C   0  0  1  0  0  3  0  0  0  0  0  0
  161.6470  207.6280  151.6770 C   0  0  2  0  0  3  0  0  0  0  0  0
  160.3400  209.9410  154.2360 C   0  0  2  0  0  3  0  0  0  0  0  0
  161.3170  208.2100  153.0730 C   0  0  1  0  0  3  0  0  0  0  0  0
  160.4340  206.9510  156.4330 O   0  0  0  0  0  0  0  0  0  0  0  0
  160.2990  209.1920  153.0330 O   0  0  0  0  0  0  0  0  0  0  0  0
  161.5130  205.3230  152.5800 C   0  0  0  0  0  2  0  0  0  0  0  0
  161.0670  205.8650  153.9020 C   0  0  0  0  0  3  0  0  0  0  0  0
  161.6460  210.7230  154.3990 C   0  0  0  0  0  1  0  0  0  0  0  0
  161.2790  208.5730  150.5340 C   0  0  0  0  0  2  0  0  0  0  0  0
  162.3620  208.7450  149.6640 O   0  0  0  0  0  0  0  0  0  0  0  0
  161.9840  209.7780  148.7990 C   0  0  0  0  0  2  0  0  0  0  0  0
  162.3660  211.1350  149.3790 C   0  0  0  0  0  2  0  0  0  0  0  0
  161.7880  212.2060  148.5800 N   0  0  0  0  0  0  0  0  0  0  0  0
  162.9020  212.9210  147.9630 C   0  0  0  0  0  2  0  0  0  0  0  0
  160.3030  212.6520  146.6810 C   0  0  0  0  0  2  0  0  0  0  0  0
  161.0130  211.5820  147.5080 C   0  0  0  0  0  2  0  0  0  0  0  0
  161.2890  213.6950  146.2440 C   0  0  0  0  0  0  0  0  0  0  0  0
  161.1500  214.2510  145.1680 O   0  0  0  0  0  0  0  0  0  0  0  0
  162.3840  214.1240  147.1750 C   0  0  0  0  0  2  0  0  0  0  0  0
  161.5020  205.7030  150.1780 N   0  0  0  0  0  2  0  0  0  0  0  0
  161.4970  203.7970  146.1430 C   0  0  0  0  0  0  0  0  0  0  0  0
  160.6320  202.0440  150.1860 C   0  0  0  0  0  3  0  0  0  0  0  0
  161.3230  204.0230  148.4030 C   0  0  0  0  0  0  0  0  0  0  0  0
  161.6480  204.8500  147.2140 C   0  0  0  0  0  2  0  0  0  0  0  0
  160.7150  201.7650  148.8510 N   0  0  0  0  0  0  0  0  0  0  0  0
  161.0570  202.7520  147.9850 C   0  0  0  0  0  0  0  0  0  0  0  0
  160.8950  203.3460  150.6610 C   0  0  0  0  0  3  0  0  0  0  0  0
  161.2490  204.3610  149.7530 C   0  0  0  0  0  0  0  0  0  0  0  0
  161.1660  202.6180  146.5830 N   0  0  0  0  0  0  0  0  0  0  0  0
  161.6970  204.0710  144.7910 O   0  0  0  0  0  0  0  0  0  0  0  0
  161.3110  205.3060  144.2090 C   0  0  0  0  0  1  0  0  0  0  0  0
  1  5  1  0  0  0  0
  1  9  2  0  0  0  0
  3 25  1  6  0  0  0
  3  6  1  0  0  0  0
  3 11  1  0  0  0  0
  4  1  1  0  0  0  0
  5  2  1  1  0  0  0
  6 14  1  6  0  0  0
  6  8  1  0  0  0  0
  7 13  1  1  0  0  0
  7  5  1  0  0  0  0
  8 10  1  6  0  0  0
  8  4  1  0  0  0  0
 10  7  1  0  0  0  0
 11 12  1  0  0  0  0
 12  4  2  0  0  0  0
 15 14  1  0  0  0  0
 16 17  1  0  0  0  0
 16 15  1  0  0  0  0
 18 17  1  0  0  0  0
 19 18  1  0  0  0  0
 20 21  1  0  0  0  0
 21 18  1  0  0  0  0
 22 20  1  0  0  0  0
 22 24  1  0  0  0  0
 23 22  2  0  0  0  0
 24 19  1  0  0  0  0
 26 34  2  0  0  0  0
 26 29  1  0  0  0  0
 27 32  1  0  0  0  0
 28 33  1  0  0  0  0
 29 28  1  0  0  0  0
 30 27  2  0  0  0  0
 31 28  2  0  0  0  0
 31 30  1  0  0  0  0
 33 25  1  0  0  0  0
 33 32  2  0  0  0  0
 34 31  1  0  0  0  0
 35 26  1  0  0  0  0
 36 35  1  0  0  0  0
M  END
>  <MODEL>
1

>  <REMARK>
 VINA RESULT:      -9.3      0.000      0.000
  Name = 
  8 active torsions:
  status: ('A' for Active; 'I' for Inactive)
    1  A    between atoms: C_2  and  O_22
    2  A    between atoms: C_2  and  C_31
    3  A    between atoms: C_4  and  N_17
    4  A    between atoms: C_5  and  C_10
    5  A    between atoms: C_5  and  O_22
    6  A    between atoms: N_6  and  C_31
    7  A    between atoms: C_9  and  O_11
    8  A    between atoms: N_17  and  C_26
                            x       y       z     vdW  Elec       q    Type
                         _______ _______ _______ _____ _____    ______ ____

>  <TORSDO>
F 8

$$$$
=
 OpenBabel11072414343D

 36 40  0  0  1  0  0  0  0  0999 V2000
  161.1920  203.7850  148.1540 C   0  0  0  0  0  0  0  0  0  0  0  0
  161.1730  203.1340  145.8540 O   0  0  0  0  0  1  0  0  0  0  0  0
  161.9210  207.1370  150.6780 C   0  0  2  0  0  3  0  0  0  0  0  0
  161.1150  204.9790  149.0060 C   0  0  0  0  0  0  0  0  0  0  0  0
  161.8550  203.8930  146.8100 C   0  0  1  0  0  3  0  0  0  0  0  0
  161.4550  207.5250  149.2720 C   0  0  2  0  0  3  0  0  0  0  0  0
  162.0370  205.3570  146.3450 C   0  0  2  0  0  3  0  0  0  0  0  0
  161.3350  206.3100  148.3200 C   0  0  1  0  0  3  0  0  0  0  0  0
  160.8010  202.6630  148.5780 O   0  0  0  0  0  0  0  0  0  0  0  0
  162.4120  206.2170  147.4080 O   0  0  0  0  0  0  0  0  0  0  0  0
  160.9750  206.0720  151.2240 C   0  0  0  0  0  2  0  0  0  0  0  0
  160.9830  204.8700  150.3330 C   0  0  0  0  0  3  0  0  0  0  0  0
  160.8660  205.9070  145.5270 C   0  0  0  0  0  1  0  0  0  0  0  0
  162.3190  208.6490  148.7010 C   0  0  0  0  0  2  0  0  0  0  0  0
  161.5440  209.7830  148.4350 O   0  0  0  0  0  0  0  0  0  0  0  0
  162.2000  210.8390  149.0790 C   0  0  0  0  0  2  0  0  0  0  0  0
  161.6430  212.1810  148.6180 C   0  0  0  0  0  2  0  0  0  0  0  0
  161.4710  212.1870  147.1730 N   0  0  0  0  0  0  0  0  0  0  0  0
  160.0830  212.5580  146.9130 C   0  0  0  0  0  2  0  0  0  0  0  0
  162.2600  213.2510  145.1090 C   0  0  0  0  0  2  0  0  0  0  0  0
  162.3230  213.2480  146.6360 C   0  0  0  0  0  2  0  0  0  0  0  0
  160.8290  213.2790  144.6590 C   0  0  0  0  0  0  0  0  0  0  0  0
  160.5240  213.8680  143.6360 O   0  0  0  0  0  0  0  0  0  0  0  0
  159.7930  212.4990  145.4130 C   0  0  0  0  0  2  0  0  0  0  0  0
  161.8870  208.3040  151.5490 N   0  0  0  0  0  2  0  0  0  0  0  0
  159.6640  211.4200  153.8410 C   0  0  0  0  0  0  0  0  0  0  0  0
  160.7990  207.2280  154.9840 C   0  0  0  0  0  3  0  0  0  0  0  0
  160.6400  209.4250  153.3340 C   0  0  0  0  0  0  0  0  0  0  0  0
  160.4010  210.7490  152.7080 C   0  0  0  0  0  2  0  0  0  0  0  0
  160.1680  208.3620  155.4120 N   0  0  0  0  0  0  0  0  0  0  0  0
  160.0980  209.4360  154.5870 C   0  0  0  0  0  0  0  0  0  0  0  0
  161.3770  207.1740  153.6980 C   0  0  0  0  0  3  0  0  0  0  0  0
  161.2980  208.2960  152.8520 C   0  0  0  0  0  0  0  0  0  0  0  0
  159.4950  210.6760  154.8960 N   0  0  0  0  0  0  0  0  0  0  0  0
  159.2030  212.7330  153.7610 O   0  0  0  0  0  0  0  0  0  0  0  0
  159.1300  213.4300  152.5270 C   0  0  0  0  0  1  0  0  0  0  0  0
  1  9  2  0  0  0  0
  1  4  1  0  0  0  0
  3 11  1  0  0  0  0
  3 25  1  1  0  0  0
  4 12  2  0  0  0  0
  5  2  1  6  0  0  0
  5  1  1  0  0  0  0
  6 14  1  6  0  0  0
  6  3  1  0  0  0  0
  7 13  1  1  0  0  0
  7  5  1  0  0  0  0
  7 10  1  0  0  0  0
  8 10  1  1  0  0  0
  8  4  1  0  0  0  0
  8  6  1  0  0  0  0
 12 11  1  0  0  0  0
 15 14  1  0  0  0  0
 15 16  1  0  0  0  0
 17 16  1  0  0  0  0
 18 17  1  0  0  0  0
 19 18  1  0  0  0  0
 20 21  1  0  0  0  0
 21 18  1  0  0  0  0
 22 20  1  0  0  0  0
 22 24  1  0  0  0  0
 23 22  2  0  0  0  0
 24 19  1  0  0  0  0
 25 33  1  0  0  0  0
 26 34  2  0  0  0  0
 27 30  1  0  0  0  0
 28 31  1  0  0  0  0
 29 28  1  0  0  0  0
 29 26  1  0  0  0  0
 31 34  1  0  0  0  0
 31 30  2  0  0  0  0
 32 27  2  0  0  0  0
 33 28  2  0  0  0  0
 33 32  1  0  0  0  0
 35 26  1  0  0  0  0
 36 35  1  0  0  0  0
M  END
>  <MODEL>
2

>  <REMARK>
 VINA RESULT:      -9.2      2.592      6.966
  Name = 
  8 active torsions:
  status: ('A' for Active; 'I' for Inactive)
    1  A    between atoms: C_2  and  O_22
    2  A    between atoms: C_2  and  C_31
    3  A    between atoms: C_4  and  N_17
    4  A    between atoms: C_5  and  C_10
    5  A    between atoms: C_5  and  O_22
    6  A    between atoms: N_6  and  C_31
    7  A    between atoms: C_9  and  O_11
    8  A    between atoms: N_17  and  C_26
                            x       y       z     vdW  Elec       q    Type
                         _______ _______ _______ _____ _____    ______ ____

>  <TORSDO>
F 8

$$$$
=
 OpenBabel11072414343D

 36 40  0  0  1  0  0  0  0  0999 V2000
  159.0320  210.5720  155.2350 C   0  0  0  0  0  0  0  0  0  0  0  0
  158.1040  212.7740  155.1690 O   0  0  0  0  0  1  0  0  0  0  0  0
  161.0620  207.7220  152.8070 C   0  0  2  0  0  3  0  0  0  0  0  0
  160.0040  209.7190  154.5370 C   0  0  0  0  0  0  0  0  0  0  0  0
  158.2590  211.5890  154.4440 C   0  0  1  0  0  3  0  0  0  0  0  0
  161.3080  209.1710  152.3770 C   0  0  2  0  0  3  0  0  0  0  0  0
  158.8690  211.8560  153.0470 C   0  0  2  0  0  3  0  0  0  0  0  0
  160.4520  210.1890  153.1700 C   0  0  1  0  0  3  0  0  0  0  0  0
  158.7760  210.3930  156.4570 O   0  0  0  0  0  0  0  0  0  0  0  0
  159.3460  210.6710  152.4320 O   0  0  0  0  0  0  0  0  0  0  0  0
  161.2960  207.6180  154.3100 C   0  0  0  0  0  2  0  0  0  0  0  0
  160.3640  208.5330  155.0410 C   0  0  0  0  0  3  0  0  0  0  0  0
  159.8970  212.9900  153.0160 C   0  0  0  0  0  1  0  0  0  0  0  0
  161.1660  209.3230  150.8630 C   0  0  0  0  0  2  0  0  0  0  0  0
  162.3490  209.8170  150.3020 O   0  0  0  0  0  0  0  0  0  0  0  0
  161.9590  210.4600  149.1210 C   0  0  0  0  0  2  0  0  0  0  0  0
  161.4810  211.8780  149.4120 C   0  0  0  0  0  2  0  0  0  0  0  0
  161.4520  212.6620  148.1850 N   0  0  0  0  0  0  0  0  0  0  0  0
  162.7420  212.4680  147.5290 C   0  0  0  0  0  2  0  0  0  0  0  0
  160.2760  212.9180  146.0490 C   0  0  0  0  0  2  0  0  0  0  0  0
  160.4220  212.0850  147.3210 C   0  0  0  0  0  2  0  0  0  0  0  0
  161.6200  213.1150  145.4120 C   0  0  0  0  0  0  0  0  0  0  0  0
  161.7150  213.1780  144.1980 O   0  0  0  0  0  0  0  0  0  0  0  0
  162.8300  213.3340  146.2720 C   0  0  0  0  0  2  0  0  0  0  0  0
  161.9880  206.8380  152.1130 N   0  0  0  0  0  2  0  0  0  0  0  0
  161.4080  205.7800  147.8180 C   0  0  0  0  0  0  0  0  0  0  0  0
  160.8340  203.3080  151.5220 C   0  0  0  0  0  3  0  0  0  0  0  0
  161.4910  205.5600  150.0830 C   0  0  0  0  0  0  0  0  0  0  0  0
  161.7550  206.5870  149.0450 C   0  0  0  0  0  2  0  0  0  0  0  0
  160.7530  203.2970  150.1580 N   0  0  0  0  0  0  0  0  0  0  0  0
  161.0810  204.4150  149.4630 C   0  0  0  0  0  0  0  0  0  0  0  0
  161.2490  204.4710  152.2030 C   0  0  0  0  0  3  0  0  0  0  0  0
  161.5850  205.6250  151.4710 C   0  0  0  0  0  0  0  0  0  0  0  0
  161.0310  204.5580  148.0580 N   0  0  0  0  0  0  0  0  0  0  0  0
  161.4870  206.3060  146.5290 O   0  0  0  0  0  0  0  0  0  0  0  0
  160.4250  206.1730  145.5960 C   0  0  0  0  0  1  0  0  0  0  0  0
  1  9  2  0  0  0  0
  3 25  1  6  0  0  0
  3 11  1  0  0  0  0
  4 12  2  0  0  0  0
  4  1  1  0  0  0  0
  5  2  1  1  0  0  0
  5  1  1  0  0  0  0
  6 14  1  6  0  0  0
  6  3  1  0  0  0  0
  6  8  1  0  0  0  0
  7 13  1  1  0  0  0
  7  5  1  0  0  0  0
  8 10  1  6  0  0  0
  8  4  1  0  0  0  0
 10  7  1  0  0  0  0
 11 12  1  0  0  0  0
 15 14  1  0  0  0  0
 16 17  1  0  0  0  0
 16 15  1  0  0  0  0
 18 17  1  0  0  0  0
 19 18  1  0  0  0  0
 20 21  1  0  0  0  0
 21 18  1  0  0  0  0
 22 20  1  0  0  0  0
 22 24  1  0  0  0  0
 23 22  2  0  0  0  0
 24 19  1  0  0  0  0
 26 34  2  0  0  0  0
 26 29  1  0  0  0  0
 27 32  1  0  0  0  0
 28 33  1  0  0  0  0
 29 28  1  0  0  0  0
 30 27  2  0  0  0  0
 31 28  2  0  0  0  0
 31 30  1  0  0  0  0
 33 25  1  0  0  0  0
 33 32  2  0  0  0  0
 34 31  1  0  0  0  0
 35 26  1  0  0  0  0
 36 35  1  0  0  0  0
M  END
>  <MODEL>
3

>  <REMARK>
 VINA RESULT:      -8.3      1.697      2.250
  Name = 
  8 active torsions:
  status: ('A' for Active; 'I' for Inactive)
    1  A    between atoms: C_2  and  O_22
    2  A    between atoms: C_2  and  C_31
    3  A    between atoms: C_4  and  N_17
    4  A    between atoms: C_5  and  C_10
    5  A    between atoms: C_5  and  O_22
    6  A    between atoms: N_6  and  C_31
    7  A    between atoms: C_9  and  O_11
    8  A    between atoms: N_17  and  C_26
                            x       y       z     vdW  Elec       q    Type
                         _______ _______ _______ _____ _____    ______ ____

>  <TORSDO>
F 8

$$$$
=
 OpenBabel11072414343D

 36 40  0  0  1  0  0  0  0  0999 V2000
  160.3450  208.1090  155.5170 C   0  0  0  0  0  0  0  0  0  0  0  0
  160.2290  210.3320  156.3880 O   0  0  0  0  0  1  0  0  0  0  0  0
  160.8620  205.9650  151.8750 C   0  0  2  0  0  3  0  0  0  0  0  0
  160.8410  207.3600  154.3550 C   0  0  0  0  0  0  0  0  0  0  0  0
  159.8510  209.5140  155.3190 C   0  0  1  0  0  3  0  0  0  0  0  0
  161.5180  207.3480  151.8630 C   0  0  2  0  0  3  0  0  0  0  0  0
  160.2860  210.1190  153.9630 C   0  0  2  0  0  3  0  0  0  0  0  0
  161.2000  208.1770  153.1320 C   0  0  1  0  0  3  0  0  0  0  0  0
  160.2400  207.5550  156.6460 O   0  0  0  0  0  0  0  0  0  0  0  0
  160.2240  209.1750  152.9080 O   0  0  0  0  0  0  0  0  0  0  0  0
  161.2820  205.2420  153.1500 C   0  0  0  0  0  2  0  0  0  0  0  0
  160.8480  206.0220  154.3510 C   0  0  0  0  0  3  0  0  0  0  0  0
  161.6210  210.8670  154.0070 C   0  0  0  0  0  1  0  0  0  0  0  0
  161.1980  208.0940  150.5680 C   0  0  0  0  0  2  0  0  0  0  0  0
  162.3310  208.7590  150.0860 O   0  0  0  0  0  0  0  0  0  0  0  0
  162.4090  208.4240  148.7300 C   0  0  0  0  0  2  0  0  0  0  0  0
  161.4080  207.3270  148.3860 C   0  0  0  0  0  2  0  0  0  0  0  0
  161.4380  207.0460  146.9580 N   0  0  0  0  0  0  0  0  0  0  0  0
  162.4730  206.0370  146.7480 C   0  0  0  0  0  2  0  0  0  0  0  0
  160.0810  206.2050  145.0970 C   0  0  0  0  0  2  0  0  0  0  0  0
  160.1520  206.4440  146.6040 C   0  0  0  0  0  2  0  0  0  0  0  0
  161.2960  205.4500  144.6440 C   0  0  0  0  0  0  0  0  0  0  0  0
  161.2100  204.6550  143.7230 O   0  0  0  0  0  0  0  0  0  0  0  0
  162.6330  205.7490  145.2550 C   0  0  0  0  0  2  0  0  0  0  0  0
  161.3060  205.1990  150.7180 N   0  0  0  0  0  2  0  0  0  0  0  0
  161.1050  202.3800  147.2660 C   0  0  0  0  0  0  0  0  0  0  0  0
  161.1180  201.5690  151.6820 C   0  0  0  0  0  3  0  0  0  0  0  0
  161.1970  203.1270  149.4160 C   0  0  0  0  0  0  0  0  0  0  0  0
  161.2060  203.6740  148.0360 C   0  0  0  0  0  2  0  0  0  0  0  0
  161.0700  200.9850  150.4480 N   0  0  0  0  0  0  0  0  0  0  0  0
  161.1100  201.7670  149.3400 C   0  0  0  0  0  0  0  0  0  0  0  0
  161.2030  202.9710  151.8060 C   0  0  0  0  0  3  0  0  0  0  0  0
  161.2440  203.7720  150.6490 C   0  0  0  0  0  0  0  0  0  0  0  0
  161.0530  201.3090  148.0050 N   0  0  0  0  0  0  0  0  0  0  0  0
  161.0700  202.3380  145.8720 O   0  0  0  0  0  0  0  0  0  0  0  0
  160.0770  201.6080  145.1670 C   0  0  0  0  0  1  0  0  0  0  0  0
  1  9  2  0  0  0  0
  3 25  1  6  0  0  0
  3 11  1  0  0  0  0
  4  1  1  0  0  0  0
  5  1  1  0  0  0  0
  5  2  1  1  0  0  0
  6 14  1  6  0  0  0
  6  3  1  0  0  0  0
  6  8  1  0  0  0  0
  7 13  1  1  0  0  0
  7  5  1  0  0  0  0
  8 10  1  6  0  0  0
  8  4  1  0  0  0  0
 10  7  1  0  0  0  0
 11 12  1  0  0  0  0
 12  4  2  0  0  0  0
 15 14  1  0  0  0  0
 16 15  1  0  0  0  0
 17 16  1  0  0  0  0
 18 17  1  0  0  0  0
 19 18  1  0  0  0  0
 20 21  1  0  0  0  0
 21 18  1  0  0  0  0
 22 20  1  0  0  0  0
 22 24  1  0  0  0  0
 23 22  2  0  0  0  0
 24 19  1  0  0  0  0
 26 34  2  0  0  0  0
 26 29  1  0  0  0  0
 27 32  1  0  0  0  0
 28 33  1  0  0  0  0
 29 28  1  0  0  0  0
 30 27  2  0  0  0  0
 31 28  2  0  0  0  0
 31 30  1  0  0  0  0
 33 25  1  0  0  0  0
 33 32  2  0  0  0  0
 34 31  1  0  0  0  0
 35 26  1  0  0  0  0
 36 35  1  0  0  0  0
M  END
>  <MODEL>
4

>  <REMARK>
 VINA RESULT:      -8.2      2.612      3.554
  Name = 
  8 active torsions:
  status: ('A' for Active; 'I' for Inactive)
    1  A    between atoms: C_2  and  O_22
    2  A    between atoms: C_2  and  C_31
    3  A    between atoms: C_4  and  N_17
    4  A    between atoms: C_5  and  C_10
    5  A    between atoms: C_5  and  O_22
    6  A    between atoms: N_6  and  C_31
    7  A    between atoms: C_9  and  O_11
    8  A    between atoms: N_17  and  C_26
                            x       y       z     vdW  Elec       q    Type
                         _______ _______ _______ _____ _____    ______ ____

>  <TORSDO>
F 8

$$$$
=
 OpenBabel11072414343D

 36 40  0  0  1  0  0  0  0  0999 V2000
  160.9670  204.9550  150.8590 C   0  0  0  0  0  0  0  0  0  0  0  0
  160.6700  203.6730  148.8630 O   0  0  0  0  0  1  0  0  0  0  0  0
  162.0600  208.8440  152.2070 C   0  0  2  0  0  3  0  0  0  0  0  0
  161.0160  206.3460  151.3290 C   0  0  0  0  0  0  0  0  0  0  0  0
  161.4750  204.6350  149.4810 C   0  0  1  0  0  3  0  0  0  0  0  0
  161.4460  208.8370  150.8040 C   0  0  2  0  0  3  0  0  0  0  0  0
  161.6380  205.8910  148.5930 C   0  0  2  0  0  3  0  0  0  0  0  0
  161.1890  207.4090  150.2650 C   0  0  1  0  0  3  0  0  0  0  0  0
  160.6000  204.0260  151.6290 O   0  0  0  0  0  0  0  0  0  0  0  0
  162.1520  206.9980  149.3150 O   0  0  0  0  0  0  0  0  0  0  0  0
  161.1570  208.0360  153.1330 C   0  0  0  0  0  2  0  0  0  0  0  0
  161.0340  206.6300  152.6360 C   0  0  0  0  0  3  0  0  0  0  0  0
  160.3940  206.2490  147.7750 C   0  0  0  0  0  1  0  0  0  0  0  0
  162.2660  209.6990  149.8440 C   0  0  0  0  0  2  0  0  0  0  0  0
  161.7870  211.0130  149.8260 O   0  0  0  0  0  0  0  0  0  0  0  0
  162.1520  211.5240  148.5750 C   0  0  0  0  0  2  0  0  0  0  0  0
  161.7360  212.9850  148.4460 C   0  0  0  0  0  2  0  0  0  0  0  0
  161.3010  213.2670  147.0860 N   0  0  0  0  0  0  0  0  0  0  0  0
  162.4790  213.1520  146.2320 C   0  0  0  0  0  2  0  0  0  0  0  0
  159.7980  212.4950  145.3080 C   0  0  0  0  0  2  0  0  0  0  0  0
  160.3660  212.2110  146.6980 C   0  0  0  0  0  2  0  0  0  0  0  0
  160.9180  212.7550  144.3450 C   0  0  0  0  0  0  0  0  0  0  0  0
  160.8100  212.4130  143.1790 O   0  0  0  0  0  0  0  0  0  0  0  0
  162.1260  213.5240  144.7920 C   0  0  0  0  0  2  0  0  0  0  0  0
  162.1550  210.2120  152.6980 N   0  0  0  0  0  2  0  0  0  0  0  0
  158.5070  212.7560  153.0590 C   0  0  0  0  0  0  0  0  0  0  0  0
  161.1030  210.9310  156.2360 C   0  0  0  0  0  3  0  0  0  0  0  0
  160.2940  211.4790  153.6640 C   0  0  0  0  0  0  0  0  0  0  0  0
  159.6220  211.9560  152.4300 C   0  0  0  0  0  2  0  0  0  0  0  0
  159.9970  211.7030  156.0160 N   0  0  0  0  0  0  0  0  0  0  0  0
  159.6110  211.9640  154.7420 C   0  0  0  0  0  0  0  0  0  0  0  0
  161.8400  210.4130  155.1510 C   0  0  0  0  0  3  0  0  0  0  0  0
  161.4300  210.6910  153.8340 C   0  0  0  0  0  0  0  0  0  0  0  0
  158.5050  212.7550  154.3610 N   0  0  0  0  0  0  0  0  0  0  0  0
  157.5560  213.4400  152.3020 O   0  0  0  0  0  0  0  0  0  0  0  0
  157.7100  213.6400  150.9050 C   0  0  0  0  0  1  0  0  0  0  0  0
  1  4  1  0  0  0  0
  1  9  2  0  0  0  0
  3 25  1  1  0  0  0
  3 11  1  0  0  0  0
  4 12  2  0  0  0  0
  5  2  1  6  0  0  0
  5  1  1  0  0  0  0
  6 14  1  6  0  0  0
  6  3  1  0  0  0  0
  7 13  1  1  0  0  0
  7 10  1  0  0  0  0
  7  5  1  0  0  0  0
  8 10  1  6  0  0  0
  8  6  1  0  0  0  0
  8  4  1  0  0  0  0
 12 11  1  0  0  0  0
 15 14  1  0  0  0  0
 16 15  1  0  0  0  0
 17 16  1  0  0  0  0
 18 17  1  0  0  0  0
 19 18  1  0  0  0  0
 20 21  1  0  0  0  0
 21 18  1  0  0  0  0
 22 24  1  0  0  0  0
 22 20  1  0  0  0  0
 23 22  2  0  0  0  0
 24 19  1  0  0  0  0
 25 33  1  0  0  0  0
 26 34  2  0  0  0  0
 28 33  2  0  0  0  0
 28 31  1  0  0  0  0
 29 26  1  0  0  0  0
 29 28  1  0  0  0  0
 30 27  1  0  0  0  0
 31 30  2  0  0  0  0
 32 27  2  0  0  0  0
 33 32  1  0  0  0  0
 34 31  1  0  0  0  0
 35 26  1  0  0  0  0
 36 35  1  0  0  0  0
M  END
>  <MODEL>
5

>  <REMARK>
 VINA RESULT:      -8.1      3.363      6.976
  Name = 
  8 active torsions:
  status: ('A' for Active; 'I' for Inactive)
    1  A    between atoms: C_2  and  O_22
    2  A    between atoms: C_2  and  C_31
    3  A    between atoms: C_4  and  N_17
    4  A    between atoms: C_5  and  C_10
    5  A    between atoms: C_5  and  O_22
    6  A    between atoms: N_6  and  C_31
    7  A    between atoms: C_9  and  O_11
    8  A    between atoms: N_17  and  C_26
                            x       y       z     vdW  Elec       q    Type
                         _______ _______ _______ _____ _____    ______ ____

>  <TORSDO>
F 8

$$$$
=
 OpenBabel11072414343D

 36 40  0  0  1  0  0  0  0  0999 V2000
  161.1710  207.0740  153.3230 C   0  0  0  0  0  0  0  0  0  0  0  0
  160.9200  204.7040  153.5110 O   0  0  0  0  0  1  0  0  0  0  0  0
  162.1470  210.1230  150.5140 C   0  0  2  0  0  3  0  0  0  0  0  0
  161.1790  208.1480  152.3200 C   0  0  0  0  0  0  0  0  0  0  0  0
  161.6940  205.7180  152.9400 C   0  0  1  0  0  3  0  0  0  0  0  0
  161.5400  208.8750  149.8690 C   0  0  2  0  0  3  0  0  0  0  0  0
  161.8250  205.5350  151.4090 C   0  0  2  0  0  3  0  0  0  0  0  0
  161.3250  207.7180  150.8770 C   0  0  1  0  0  3  0  0  0  0  0  0
  160.8270  207.3050  154.5140 O   0  0  0  0  0  0  0  0  0  0  0  0
  162.3040  206.7040  150.7650 O   0  0  0  0  0  0  0  0  0  0  0  0
  161.2630  210.5400  151.6850 C   0  0  0  0  0  2  0  0  0  0  0  0
  161.1830  209.4340  152.6900 C   0  0  0  0  0  3  0  0  0  0  0  0
  160.5750  204.9620  150.7350 C   0  0  0  0  0  1  0  0  0  0  0  0
  162.3390  208.4530  148.6370 C   0  0  0  0  0  2  0  0  0  0  0  0
  161.5520  207.6800  147.7760 O   0  0  0  0  0  0  0  0  0  0  0  0
  162.3190  206.5450  147.4900 C   0  0  0  0  0  2  0  0  0  0  0  0
  161.8800  205.9150  146.1730 C   0  0  0  0  0  2  0  0  0  0  0  0
  161.2060  204.6480  146.4200 N   0  0  0  0  0  0  0  0  0  0  0  0
  161.3760  203.8370  145.2180 C   0  0  0  0  0  2  0  0  0  0  0  0
  161.2060  202.6810  147.8840 C   0  0  0  0  0  2  0  0  0  0  0  0
  161.9170  203.9810  147.5110 C   0  0  0  0  0  2  0  0  0  0  0  0
  160.9820  201.8520  146.6540 C   0  0  0  0  0  0  0  0  0  0  0  0
  161.0160  200.6350  146.7250 O   0  0  0  0  0  0  0  0  0  0  0  0
  160.6160  202.5180  145.3600 C   0  0  0  0  0  2  0  0  0  0  0  0
  162.2000  211.2060  149.5410 N   0  0  0  0  0  2  0  0  0  0  0  0
  160.3800  213.1440  145.9580 C   0  0  0  0  0  0  0  0  0  0  0  0
  159.5520  213.7560  150.3290 C   0  0  0  0  0  3  0  0  0  0  0  0
  160.7790  212.6260  148.1410 C   0  0  0  0  0  0  0  0  0  0  0  0
  161.2490  212.2310  146.7890 C   0  0  0  0  0  2  0  0  0  0  0  0
  159.2040  214.1520  149.0680 N   0  0  0  0  0  0  0  0  0  0  0  0
  159.8180  213.5850  148.0000 C   0  0  0  0  0  0  0  0  0  0  0  0
  160.5430  212.7710  150.5200 C   0  0  0  0  0  3  0  0  0  0  0  0
  161.1730  212.1900  149.4040 C   0  0  0  0  0  0  0  0  0  0  0  0
  159.5760  213.9020  146.6450 N   0  0  0  0  0  0  0  0  0  0  0  0
  160.4390  213.1690  144.5660 O   0  0  0  0  0  0  0  0  0  0  0  0
  159.7710  212.2030  143.7680 C   0  0  0  0  0  1  0  0  0  0  0  0
  1  9  2  0  0  0  0
  3 25  1  6  0  0  0
  3 11  1  0  0  0  0
  4 12  2  0  0  0  0
  4  1  1  0  0  0  0
  5  1  1  0  0  0  0
  5  2  1  6  0  0  0
  6 14  1  6  0  0  0
  6  3  1  0  0  0  0
  6  8  1  0  0  0  0
  7 13  1  6  0  0  0
  7  5  1  0  0  0  0
  8 10  1  1  0  0  0
  8  4  1  0  0  0  0
 10  7  1  0  0  0  0
 11 12  1  0  0  0  0
 15 14  1  0  0  0  0
 16 15  1  0  0  0  0
 17 18  1  0  0  0  0
 17 16  1  0  0  0  0
 18 21  1  0  0  0  0
 19 24  1  0  0  0  0
 19 18  1  0  0  0  0
 21 20  1  0  0  0  0
 22 23  2  0  0  0  0
 22 20  1  0  0  0  0
 24 22  1  0  0  0  0
 26 34  2  0  0  0  0
 26 29  1  0  0  0  0
 27 32  1  0  0  0  0
 28 33  1  0  0  0  0
 29 28  1  0  0  0  0
 30 27  2  0  0  0  0
 31 28  2  0  0  0  0
 31 30  1  0  0  0  0
 33 25  1  0  0  0  0
 33 32  2  0  0  0  0
 34 31  1  0  0  0  0
 35 26  1  0  0  0  0
 36 35  1  0  0  0  0
M  END
>  <MODEL>
6

>  <REMARK>
 VINA RESULT:      -8.1      2.006      7.734
  Name = 
  8 active torsions:
  status: ('A' for Active; 'I' for Inactive)
    1  A    between atoms: C_2  and  O_22
    2  A    between atoms: C_2  and  C_31
    3  A    between atoms: C_4  and  N_17
    4  A    between atoms: C_5  and  C_10
    5  A    between atoms: C_5  and  O_22
    6  A    between atoms: N_6  and  C_31
    7  A    between atoms: C_9  and  O_11
    8  A    between atoms: N_17  and  C_26
                            x       y       z     vdW  Elec       q    Type
                         _______ _______ _______ _____ _____    ______ ____

>  <TORSDO>
F 8

$$$$
=
 OpenBabel11072414343D

 36 40  0  0  1  0  0  0  0  0999 V2000
  161.3400  204.6760  148.5810 C   0  0  0  0  0  0  0  0  0  0  0  0
  160.7720  202.4230  149.1430 O   0  0  0  0  0  1  0  0  0  0  0  0
  161.7200  208.5570  150.2900 C   0  0  2  0  0  3  0  0  0  0  0  0
  161.7900  205.9300  149.1980 C   0  0  0  0  0  0  0  0  0  0  0  0
  160.4390  203.7630  149.3640 C   0  0  1  0  0  3  0  0  0  0  0  0
  161.9410  207.4260  151.2970 C   0  0  2  0  0  3  0  0  0  0  0  0
  160.4110  204.0970  150.8740 C   0  0  2  0  0  3  0  0  0  0  0  0
  161.6570  206.0250  150.7030 C   0  0  1  0  0  3  0  0  0  0  0  0
  161.6190  204.4100  147.3800 O   0  0  0  0  0  0  0  0  0  0  0  0
  160.4130  205.4940  151.1180 O   0  0  0  0  0  0  0  0  0  0  0  0
  162.5680  208.2770  149.0550 C   0  0  0  0  0  2  0  0  0  0  0  0
  162.1750  206.9670  148.4460 C   0  0  0  0  0  3  0  0  0  0  0  0
  161.4610  203.3530  151.7030 C   0  0  0  0  0  1  0  0  0  0  0  0
  161.1760  207.6910  152.5940 C   0  0  0  0  0  2  0  0  0  0  0  0
  161.6510  206.8740  153.6250 O   0  0  0  0  0  0  0  0  0  0  0  0
  160.7620  207.0660  154.6890 C   0  0  0  0  0  2  0  0  0  0  0  0
  161.4900  207.6240  155.9070 C   0  0  0  0  0  2  0  0  0  0  0  0
  161.0090  208.9630  156.2140 N   0  0  0  0  0  0  0  0  0  0  0  0
  161.9120  209.9000  155.5510 C   0  0  0  0  0  2  0  0  0  0  0  0
  159.0850  210.4610  155.9560 C   0  0  0  0  0  2  0  0  0  0  0  0
  159.6900  209.1050  155.5970 C   0  0  0  0  0  2  0  0  0  0  0  0
  160.0650  211.5530  155.6480 C   0  0  0  0  0  0  0  0  0  0  0  0
  159.6650  212.6420  155.2720 O   0  0  0  0  0  0  0  0  0  0  0  0
  161.5290  211.3380  155.8990 C   0  0  0  0  0  2  0  0  0  0  0  0
  162.1270  209.8270  150.8760 N   0  0  0  0  0  2  0  0  0  0  0  0
  161.8210  212.9910  147.7460 C   0  0  0  0  0  0  0  0  0  0  0  0
  159.7430  212.6140  151.7080 C   0  0  0  0  0  3  0  0  0  0  0  0
  161.4320  211.8460  149.6760 C   0  0  0  0  0  0  0  0  0  0  0  0
  162.2470  211.7220  148.4420 C   0  0  0  0  0  2  0  0  0  0  0  0
  159.8700  213.3930  150.5930 N   0  0  0  0  0  0  0  0  0  0  0  0
  160.7070  213.0000  149.5990 C   0  0  0  0  0  0  0  0  0  0  0  0
  160.4770  211.4160  151.8300 C   0  0  0  0  0  3  0  0  0  0  0  0
  161.3420  211.0190  150.7930 C   0  0  0  0  0  0  0  0  0  0  0  0
  160.9530  213.7060  148.4010 N   0  0  0  0  0  0  0  0  0  0  0  0
  162.3210  213.3650  146.4990 O   0  0  0  0  0  0  0  0  0  0  0  0
  161.5450  213.2570  145.3150 C   0  0  0  0  0  1  0  0  0  0  0  0
  1  4  1  0  0  0  0
  1  5  1  0  0  0  0
  3 25  1  1  0  0  0
  3  6  1  0  0  0  0
  5  2  1  1  0  0  0
  5  7  1  0  0  0  0
  6 14  1  1  0  0  0
  7 10  1  0  0  0  0
  7 13  1  1  0  0  0
  8  4  1  6  0  0  0
  8 10  1  0  0  0  0
  8  6  1  0  0  0  0
  9  1  2  0  0  0  0
 11  3  1  0  0  0  0
 12 11  1  0  0  0  0
 12  4  2  0  0  0  0
 14 15  1  0  0  0  0
 15 16  1  0  0  0  0
 16 17  1  0  0  0  0
 17 18  1  0  0  0  0
 19 24  1  0  0  0  0
 19 18  1  0  0  0  0
 21 20  1  0  0  0  0
 21 18  1  0  0  0  0
 22 24  1  0  0  0  0
 22 20  1  0  0  0  0
 23 22  2  0  0  0  0
 26 34  2  0  0  0  0
 26 29  1  0  0  0  0
 27 32  1  0  0  0  0
 28 33  1  0  0  0  0
 29 28  1  0  0  0  0
 30 27  2  0  0  0  0
 31 28  2  0  0  0  0
 31 30  1  0  0  0  0
 33 25  1  0  0  0  0
 33 32  2  0  0  0  0
 34 31  1  0  0  0  0
 35 26  1  0  0  0  0
 36 35  1  0  0  0  0
M  END
>  <MODEL>
7

>  <REMARK>
 VINA RESULT:      -8.0      2.813      7.870
  Name = 
  8 active torsions:
  status: ('A' for Active; 'I' for Inactive)
    1  A    between atoms: C_2  and  O_22
    2  A    between atoms: C_2  and  C_31
    3  A    between atoms: C_4  and  N_17
    4  A    between atoms: C_5  and  C_10
    5  A    between atoms: C_5  and  O_22
    6  A    between atoms: N_6  and  C_31
    7  A    between atoms: C_9  and  O_11
    8  A    between atoms: N_17  and  C_26
                            x       y       z     vdW  Elec       q    Type
                         _______ _______ _______ _____ _____    ______ ____

>  <TORSDO>
F 8

$$$$
=
 OpenBabel11072414343D

 36 40  0  0  1  0  0  0  0  0999 V2000
  161.3720  204.6150  148.4780 C   0  0  0  0  0  0  0  0  0  0  0  0
  160.8450  202.4080  149.2300 O   0  0  0  0  0  1  0  0  0  0  0  0
  161.6900  208.6330  149.8530 C   0  0  2  0  0  3  0  0  0  0  0  0
  161.8030  205.9250  148.9850 C   0  0  0  0  0  0  0  0  0  0  0  0
  160.4900  203.7560  149.3390 C   0  0  1  0  0  3  0  0  0  0  0  0
  161.9330  207.5950  150.9500 C   0  0  2  0  0  3  0  0  0  0  0  0
  160.4600  204.2160  150.8160 C   0  0  2  0  0  3  0  0  0  0  0  0
  161.6720  206.1440  150.4770 C   0  0  1  0  0  3  0  0  0  0  0  0
  161.6530  204.2540  147.3020 O   0  0  0  0  0  0  0  0  0  0  0  0
  160.4390  205.6280  150.9410 O   0  0  0  0  0  0  0  0  0  0  0  0
  162.5390  208.2640  148.6410 C   0  0  0  0  0  2  0  0  0  0  0  0
  162.1680  206.9010  148.1470 C   0  0  0  0  0  3  0  0  0  0  0  0
  161.5260  203.5620  151.7000 C   0  0  0  0  0  1  0  0  0  0  0  0
  161.1680  207.9550  152.2240 C   0  0  0  0  0  2  0  0  0  0  0  0
  161.7050  207.2890  153.3300 O   0  0  0  0  0  0  0  0  0  0  0  0
  160.7120  207.3440  154.3150 C   0  0  0  0  0  2  0  0  0  0  0  0
  161.3220  207.6290  155.6820 C   0  0  0  0  0  2  0  0  0  0  0  0
  160.9120  208.9440  156.1540 N   0  0  0  0  0  0  0  0  0  0  0  0
  162.0010  209.8650  155.8390 C   0  0  0  0  0  2  0  0  0  0  0  0
  159.2080  210.6840  155.8720 C   0  0  0  0  0  2  0  0  0  0  0  0
  159.7470  209.3470  155.3670 C   0  0  0  0  0  2  0  0  0  0  0  0
  160.3200  211.6870  155.9430 C   0  0  0  0  0  0  0  0  0  0  0  0
  160.0930  212.8650  155.7200 O   0  0  0  0  0  0  0  0  0  0  0  0
  161.6880  211.2580  156.3860 C   0  0  0  0  0  2  0  0  0  0  0  0
  162.0760  209.9540  150.3280 N   0  0  0  0  0  2  0  0  0  0  0  0
  159.4610  213.3330  151.6140 C   0  0  0  0  0  0  0  0  0  0  0  0
  161.6850  212.6810  147.7680 C   0  0  0  0  0  3  0  0  0  0  0  0
  160.8520  212.0760  150.3200 C   0  0  0  0  0  0  0  0  0  0  0  0
  160.2290  212.0350  151.6660 C   0  0  0  0  0  2  0  0  0  0  0  0
  160.8580  213.5370  148.4390 N   0  0  0  0  0  0  0  0  0  0  0  0
  160.4560  213.2240  149.6960 C   0  0  0  0  0  0  0  0  0  0  0  0
  162.1150  211.4810  148.3730 C   0  0  0  0  0  3  0  0  0  0  0  0
  161.6910  211.1680  149.6780 C   0  0  0  0  0  0  0  0  0  0  0  0
  159.5940  213.9990  150.5030 N   0  0  0  0  0  0  0  0  0  0  0  0
  158.6720  213.7790  152.6730 O   0  0  0  0  0  0  0  0  0  0  0  0
  157.6630  212.9670  153.2530 C   0  0  0  0  0  1  0  0  0  0  0  0
  1  4  1  0  0  0  0
  1  5  1  0  0  0  0
  3 25  1  1  0  0  0
  3  6  1  0  0  0  0
  5  2  1  1  0  0  0
  5  7  1  0  0  0  0
  6 14  1  1  0  0  0
  7 10  1  0  0  0  0
  7 13  1  1  0  0  0
  8  4  1  6  0  0  0
  8 10  1  0  0  0  0
  8  6  1  0  0  0  0
  9  1  2  0  0  0  0
 11  3  1  0  0  0  0
 12 11  1  0  0  0  0
 12  4  2  0  0  0  0
 14 15  1  0  0  0  0
 15 16  1  0  0  0  0
 16 17  1  0  0  0  0
 17 18  1  0  0  0  0
 19 18  1  0  0  0  0
 19 24  1  0  0  0  0
 20 22  1  0  0  0  0
 21 20  1  0  0  0  0
 21 18  1  0  0  0  0
 22 24  1  0  0  0  0
 23 22  2  0  0  0  0
 26 29  1  0  0  0  0
 26 35  1  0  0  0  0
 27 32  2  0  0  0  0
 27 30  1  0  0  0  0
 28 29  1  0  0  0  0
 30 31  2  0  0  0  0
 31 28  1  0  0  0  0
 31 34  1  0  0  0  0
 32 33  1  0  0  0  0
 33 28  2  0  0  0  0
 33 25  1  0  0  0  0
 34 26  2  0  0  0  0
 35 36  1  0  0  0  0
M  END
>  <MODEL>
8

>  <REMARK>
 VINA RESULT:      -7.8      3.074      8.359
  Name = 
  8 active torsions:
  status: ('A' for Active; 'I' for Inactive)
    1  A    between atoms: C_2  and  O_22
    2  A    between atoms: C_2  and  C_31
    3  A    between atoms: C_4  and  N_17
    4  A    between atoms: C_5  and  C_10
    5  A    between atoms: C_5  and  O_22
    6  A    between atoms: N_6  and  C_31
    7  A    between atoms: C_9  and  O_11
    8  A    between atoms: N_17  and  C_26
                            x       y       z     vdW  Elec       q    Type
                         _______ _______ _______ _____ _____    ______ ____

>  <TORSDO>
F 8

$$$$
=
 OpenBabel11072414343D

 36 40  0  0  1  0  0  0  0  0999 V2000
  158.6630  211.0700  154.6760 C   0  0  0  0  0  0  0  0  0  0  0  0
  157.5180  213.1440  154.9940 O   0  0  0  0  0  1  0  0  0  0  0  0
  161.0800  208.9790  151.8610 C   0  0  2  0  0  3  0  0  0  0  0  0
  159.7470  210.4710  153.8850 C   0  0  0  0  0  0  0  0  0  0  0  0
  157.8260  212.1530  154.0570 C   0  0  1  0  0  3  0  0  0  0  0  0
  161.1950  210.5010  151.7470 C   0  0  2  0  0  3  0  0  0  0  0  0
  158.4670  212.7570  152.7850 C   0  0  2  0  0  3  0  0  0  0  0  0
  160.2050  211.2520  152.6720 C   0  0  1  0  0  3  0  0  0  0  0  0
  158.3720  210.6200  155.8180 O   0  0  0  0  0  0  0  0  0  0  0  0
  159.0900  211.7730  151.9760 O   0  0  0  0  0  0  0  0  0  0  0  0
  161.2560  208.5890  153.3240 C   0  0  0  0  0  2  0  0  0  0  0  0
  160.2040  209.2450  154.1630 C   0  0  0  0  0  3  0  0  0  0  0  0
  159.3740  213.9620  153.0490 C   0  0  0  0  0  1  0  0  0  0  0  0
  161.1060  210.9490  150.2890 C   0  0  0  0  0  2  0  0  0  0  0  0
  162.3560  211.3710  149.8230 O   0  0  0  0  0  0  0  0  0  0  0  0
  162.0960  212.0560  148.6300 C   0  0  0  0  0  2  0  0  0  0  0  0
  160.8180  212.8790  148.7490 C   0  0  0  0  0  2  0  0  0  0  0  0
  160.3550  213.2850  147.4290 N   0  0  0  0  0  0  0  0  0  0  0  0
  161.2270  212.6340  146.4560 C   0  0  0  0  0  2  0  0  0  0  0  0
  158.4240  213.2070  145.9200 C   0  0  0  0  0  2  0  0  0  0  0  0
  159.0080  212.7420  147.2530 C   0  0  0  0  0  2  0  0  0  0  0  0
  159.3910  212.9150  144.8110 C   0  0  0  0  0  0  0  0  0  0  0  0
  158.9750  212.6230  143.7030 O   0  0  0  0  0  0  0  0  0  0  0  0
  160.8640  213.0830  145.0400 C   0  0  0  0  0  2  0  0  0  0  0  0
  162.1210  208.3440  151.0640 N   0  0  0  0  0  2  0  0  0  0  0  0
  161.0290  204.0570  150.4930 C   0  0  0  0  0  0  0  0  0  0  0  0
  161.6870  207.3140  147.4740 C   0  0  0  0  0  3  0  0  0  0  0  0
  161.5190  206.2250  149.9950 C   0  0  0  0  0  0  0  0  0  0  0  0
  161.3650  205.3540  151.1870 C   0  0  0  0  0  2  0  0  0  0  0  0
  161.3670  205.9950  147.6300 N   0  0  0  0  0  0  0  0  0  0  0  0
  161.2880  205.4730  148.8790 C   0  0  0  0  0  0  0  0  0  0  0  0
  161.9380  208.1260  148.6000 C   0  0  0  0  0  3  0  0  0  0  0  0
  161.8530  207.5730  149.8910 C   0  0  0  0  0  0  0  0  0  0  0  0
  160.9850  204.1300  149.1940 N   0  0  0  0  0  0  0  0  0  0  0  0
  160.7850  202.8750  151.1920 O   0  0  0  0  0  0  0  0  0  0  0  0
  160.9730  201.5990  150.5990 C   0  0  0  0  0  1  0  0  0  0  0  0
  1  9  2  0  0  0  0
  3 25  1  6  0  0  0
  3 11  1  0  0  0  0
  4 12  2  0  0  0  0
  4  1  1  0  0  0  0
  5  1  1  0  0  0  0
  5  2  1  1  0  0  0
  6 14  1  6  0  0  0
  6  3  1  0  0  0  0
  6  8  1  0  0  0  0
  7 13  1  1  0  0  0
  7  5  1  0  0  0  0
  8 10  1  6  0  0  0
  8  4  1  0  0  0  0
 10  7  1  0  0  0  0
 11 12  1  0  0  0  0
 15 14  1  0  0  0  0
 16 17  1  0  0  0  0
 16 15  1  0  0  0  0
 18 17  1  0  0  0  0
 19 18  1  0  0  0  0
 20 21  1  0  0  0  0
 21 18  1  0  0  0  0
 22 24  1  0  0  0  0
 22 20  1  0  0  0  0
 23 22  2  0  0  0  0
 24 19  1  0  0  0  0
 26 29  1  0  0  0  0
 26 35  1  0  0  0  0
 27 30  2  0  0  0  0
 27 32  1  0  0  0  0
 28 29  1  0  0  0  0
 30 31  1  0  0  0  0
 31 34  1  0  0  0  0
 31 28  2  0  0  0  0
 32 33  2  0  0  0  0
 33 28  1  0  0  0  0
 33 25  1  0  0  0  0
 34 26  2  0  0  0  0
 36 35  1  0  0  0  0
M  END
>  <MODEL>
9

>  <REMARK>
 VINA RESULT:      -7.2      2.431      3.737
  Name = 
  8 active torsions:
  status: ('A' for Active; 'I' for Inactive)
    1  A    between atoms: C_2  and  O_22
    2  A    between atoms: C_2  and  C_31
    3  A    between atoms: C_4  and  N_17
    4  A    between atoms: C_5  and  C_10
    5  A    between atoms: C_5  and  O_22
    6  A    between atoms: N_6  and  C_31
    7  A    between atoms: C_9  and  O_11
    8  A    between atoms: N_17  and  C_26
                            x       y       z     vdW  Elec       q    Type
                         _______ _______ _______ _____ _____    ______ ____

>  <TORSDO>
F 8

$$$$
