=
 OpenBabel11072415073D

 58 65  0  0  1  0  0  0  0  0999 V2000
  160.8630  212.8330  156.4670 C   0  0  0  0  0  1  0  0  0  0  0  0
  155.6530  213.3130  157.2360 C   0  0  0  0  0  2  0  0  0  0  0  0
  159.5190  209.9350  154.7150 C   0  0  1  0  0  3  0  0  0  0  0  0
  154.7050  212.1740  157.1690 C   0  0  0  0  0  2  0  0  0  0  0  0
  159.3980  210.9440  155.8000 C   0  0  1  0  0  3  0  0  0  0  0  0
  155.6060  211.0060  156.8050 C   0  0  2  0  0  3  0  0  0  0  0  0
  161.0790  211.7380  154.3820 O   0  0  0  0  0  0  0  0  0  0  0  0
  159.1610  213.2130  154.5930 C   0  0  1  0  0  3  0  0  0  0  0  0
  160.1130  212.1990  155.3040 C   0  0  2  0  0  0  0  0  0  0  0  0
  156.8240  211.6200  156.0810 C   0  0  2  0  0  0  0  0  0  0  0  0
  160.6540  210.4850  153.8790 C   0  0  2  0  0  3  0  0  0  0  0  0
  154.9110  210.0590  156.0510 O   0  0  0  0  0  1  0  0  0  0  0  0
  158.5930  214.3520  155.4520 C   0  0  0  0  0  2  0  0  0  0  0  0
  157.9820  213.9120  156.7730 C   0  0  0  0  0  2  0  0  0  0  0  0
  158.0870  210.9190  156.6150 C   0  0  0  0  0  2  0  0  0  0  0  0
  156.7850  213.0310  156.6050 C   0  0  2  0  0  3  0  0  0  0  0  0
  155.5210  212.3880  153.9910 C   0  0  0  0  0  1  0  0  0  0  0  0
  156.6240  210.2770  154.0490 O   0  0  0  0  0  1  0  0  0  0  0  0
  156.6940  211.5830  154.5310 C   0  0  2  0  0  3  0  0  0  0  0  0
  159.9310  208.5940  155.3200 C   0  0  0  0  0  2  0  0  0  0  0  0
  161.6240  206.8740  155.5910 O   0  0  0  0  0  0  0  0  0  0  0  0
  161.2640  208.0010  154.8290 C   0  0  1  0  0  3  0  0  0  0  0  0
  161.1510  206.6300  154.2850 C   0  0  1  0  0  3  0  0  0  0  0  0
  162.2770  206.3620  153.4040 N   0  0  0  0  0  2  0  0  0  0  0  0
  162.1470  204.9910  152.9340 C   0  0  0  0  0  2  0  0  0  0  0  0
  159.9260  204.7880  152.1070 O   0  0  0  0  0  0  0  0  0  0  0  0
  161.2630  204.9470  151.7020 C   0  0  2  0  0  3  0  0  0  0  0  0
  160.5780  203.6390  151.6200 C   0  0  2  0  0  3  0  0  0  0  0  0
  161.4440  203.4770  148.4190 C   0  0  0  0  0  0  0  0  0  0  0  0
  160.0780  203.3700  150.2100 C   0  0  1  0  0  3  0  0  0  0  0  0
  160.7780  204.2180  149.2530 N   0  0  0  0  0  0  0  0  0  0  0  0
  160.1570  200.9320  150.3190 O   0  0  0  0  0  0  0  0  0  0  0  0
  161.3450  202.0750  148.6370 N   0  0  0  0  0  2  0  0  0  0  0  0
  160.5010  202.0160  149.7700 C   0  0  0  0  0  0  0  0  0  0  0  0
  162.2090  204.0570  147.2800 C   0  0  0  0  0  2  0  0  0  0  0  0
  161.7640  203.4500  146.0350 N   0  0  0  0  0  2  0  0  0  0  0  0
  160.0050  203.9330  144.4100 O   0  0  0  0  0  1  0  0  0  0  0  0
  161.6250  205.7300  144.8940 C   0  0  1  0  0  3  0  0  0  0  0  0
  160.9640  204.4220  145.2980 C   0  0  2  0  0  0  0  0  0  0  0  0
  160.5970  205.6910  146.0280 C   0  0  0  0  0  2  0  0  0  0  0  0
  163.0120  205.8950  145.4860 C   0  0  0  0  0  1  0  0  0  0  0  0
  160.2200  210.6100  152.4240 C   0  0  0  0  0  2  0  0  0  0  0  0
  160.0830  209.2460  151.7560 C   0  0  0  0  0  2  0  0  0  0  0  0
  161.3570  208.8300  151.0890 C   0  0  0  0  0  0  0  0  0  0  0  0
  162.4310  209.1790  151.5590 O   0  0  0  0  0  0  0  0  0  0  0  0
  161.3170  207.9660  149.8630 C   0  0  0  0  0  3  0  0  0  0  0  0
  161.8180  208.7500  148.6560 C   0  0  0  0  0  2  0  0  0  0  0  0
  162.7270  207.7450  149.3360 C   0  0  0  0  0  2  0  0  0  0  0  0
  159.7810  213.8310  153.3370 C   0  0  0  0  0  2  0  0  0  0  0  0
  158.8910  213.6320  152.1230 C   0  0  0  0  0  2  0  0  0  0  0  0
  159.4850  214.3380  150.9170 C   0  0  0  0  0  2  0  0  0  0  0  0
  159.1490  213.5790  149.6440 C   0  0  2  0  0  3  0  0  0  0  0  0
  160.3750  213.0180  149.0030 C   0  0  0  0  0  0  0  0  0  0  0  0
  161.3630  212.4550  149.7980 O   0  0  0  0  0  1  0  0  0  0  0  0
  160.5190  213.0430  147.7560 O   0  0  0  0  0  0  0  0  0  0  0  0
  158.3030  214.3990  148.6670 C   0  0  0  0  0  2  0  0  0  0  0  0
  156.8290  214.4520  149.0620 C   0  0  0  0  0  2  0  0  0  0  0  0
  156.0360  214.2750  147.9310 O   0  0  0  0  0  1  0  0  0  0  0  0
  3 20  1  1  0  0  0
  3  5  1  0  0  0  0
  4  2  1  0  0  0  0
  5 15  1  6  0  0  0
  6 12  1  6  0  0  0
  6  4  1  0  0  0  0
  7  9  1  0  0  0  0
  8 49  1  6  0  0  0
  8  9  1  0  0  0  0
  8 13  1  0  0  0  0
  9  5  1  0  0  0  0
  9  1  1  1  0  0  0
 10 19  1  6  0  0  0
 10 16  1  0  0  0  0
 10 15  1  0  0  0  0
 10  6  1  0  0  0  0
 11 42  1  6  0  0  0
 11  7  1  0  0  0  0
 11  3  1  0  0  0  0
 13 14  1  0  0  0  0
 16 14  1  1  0  0  0
 16  2  1  0  0  0  0
 18 19  1  0  0  0  0
 19 17  1  1  0  0  0
 22 20  1  1  0  0  0
 22 21  1  0  0  0  0
 23 24  1  6  0  0  0
 23 22  1  0  0  0  0
 23 21  1  0  0  0  0
 25 24  1  0  0  0  0
 27 26  1  0  0  0  0
 27 25  1  1  0  0  0
 28 27  1  0  0  0  0
 28 26  1  1  0  0  0
 29 33  1  0  0  0  0
 29 31  2  0  0  0  0
 30 31  1  6  0  0  0
 30 28  1  0  0  0  0
 33 34  1  0  0  0  0
 34 30  1  0  0  0  0
 34 32  2  0  0  0  0
 35 29  1  0  0  0  0
 36 35  1  0  0  0  0
 38 39  1  0  0  0  0
 38 41  1  1  0  0  0
 38 40  1  0  0  0  0
 39 37  1  6  0  0  0
 39 40  1  0  0  0  0
 39 36  1  0  0  0  0
 43 42  1  0  0  0  0
 44 45  2  0  0  0  0
 44 43  1  0  0  0  0
 46 44  1  0  0  0  0
 47 48  1  0  0  0  0
 47 46  1  0  0  0  0
 48 46  1  0  0  0  0
 50 49  1  0  0  0  0
 51 50  1  0  0  0  0
 52 56  1  6  0  0  0
 52 51  1  0  0  0  0
 53 52  1  0  0  0  0
 53 54  1  0  0  0  0
 55 53  2  0  0  0  0
 56 57  1  0  0  0  0
 58 57  1  0  0  0  0
M  END
>  <MODEL>
1

>  <REMARK>
 VINA RESULT:      -2.9      0.000      0.000
  Name = 
  21 active torsions:
  status: ('A' for Active; 'I' for Inactive)
    1  A    between atoms: C_2  and  C_22
    2  A    between atoms: C_2  and  C_26
    3  A    between atoms: C_2  and  C_29
    4  A    between atoms: C_3  and  C_40
    5  A    between atoms: C_7  and  C_19
    6  A    between atoms: C_9  and  C_11
    7  A    between atoms: C_9  and  C_21
    8  A    between atoms: C_10  and  C_11
    9  A    between atoms: C_12  and  C_55
   10  A    between atoms: C_16  and  C_20
   11  A    between atoms: C_16  and  C_22
   12  A    between atoms: C_19  and  C_44
   13  A    between atoms: C_20  and  C_30
   14  A    between atoms: C_21  and  C_38
   15  A    between atoms: C_26  and  C_28
   16  A    between atoms: N_27  and  C_39
   17  A    between atoms: N_27  and  C_40
   18  A    between atoms: N_31  and  C_42
   19  A    between atoms: N_31  and  C_52
   20  A    between atoms: C_34  and  C_42
   21  A    between atoms: C_37  and  C_48
                            x       y       z     vdW  Elec       q    Type
                         _______ _______ _______ _____ _____    ______ ____

>  <TORSDO>
F 21

$$$$
