=
 OpenBabel11072412403D

 31 34  0  0  1  0  0  0  0  0999 V2000
  161.0500  205.1880  148.7890 C   0  0  2  0  0  3  0  0  0  0  0  0
  161.0790  204.0350  149.7970 C   0  0  1  0  0  3  0  0  0  0  0  0
  161.8560  208.2090  150.8560 N   0  0  0  0  0  0  0  0  0  0  0  0
  161.7640  208.8220  149.5390 C   0  0  0  0  0  3  0  0  0  0  0  0
  161.5680  202.4220  147.9420 C   0  0  1  0  0  3  0  0  0  0  0  0
  162.0070  204.8680  147.6360 C   0  0  0  0  0  2  0  0  0  0  0  0
  161.5890  203.5770  146.9400 C   0  0  0  0  0  2  0  0  0  0  0  0
  160.1550  204.3190  150.9590 C   0  0  0  0  0  2  0  0  0  0  0  0
  161.4220  207.6670  148.6710 C   0  0  0  0  0  0  0  0  0  0  0  0
  161.6160  206.9400  150.7730 C   0  0  2  0  0  3  0  0  0  0  0  0
  160.6460  202.7370  149.1200 C   0  0  0  0  0  2  0  0  0  0  0  0
  161.3630  206.5480  149.3770 C   0  0  0  0  0  0  0  0  0  0  0  0
  161.6000  206.0840  151.9870 C   0  0  0  0  0  0  0  0  0  0  0  0
  160.9430  204.9240  152.0670 C   0  0  0  0  0  3  0  0  0  0  0  0
  161.1950  207.7560  147.3020 O   0  0  0  0  0  1  0  0  0  0  0  0
  160.7180  201.0790  145.9320 C   0  0  0  0  0  0  0  0  0  0  0  0
  161.1690  201.1790  147.2910 N   0  0  0  0  0  2  0  0  0  0  0  0
  160.6430  202.1060  145.2080 O   0  0  0  0  0  0  0  0  0  0  0  0
  160.3570  199.8420  145.3960 O   0  0  0  0  0  0  0  0  0  0  0  0
  161.2090  198.7110  145.4830 C   0  0  0  0  0  1  0  0  0  0  0  0
  162.2920  206.5680  153.2230 C   0  0  0  0  0  2  0  0  0  0  0  0
  162.1480  209.3960  153.2950 F   0  0  0  0  0  0  0  0  0  0  0  0
  160.5230  206.6060  154.9410 N   0  0  0  0  0  0  0  0  0  0  0  0
  159.6000  208.6210  155.8230 C   0  0  0  0  0  3  0  0  0  0  0  0
  161.3460  207.3060  154.1140 C   0  0  0  0  0  0  0  0  0  0  0  0
  161.3200  208.7090  154.1220 C   0  0  0  0  0  0  0  0  0  0  0  0
  160.4310  209.3760  154.9910 C   0  0  0  0  0  0  0  0  0  0  0  0
  159.6600  207.2280  155.7850 C   0  0  0  0  0  3  0  0  0  0  0  0
  160.3380  210.8060  155.0660 N   0  0  0  0  0  2  0  0  0  0  0  0
  159.8610  212.3540  153.0840 N   0  0  0  0  0  0  0  0  0  0  0  0
  160.0750  211.6540  153.9800 C   0  0  0  0  0  0  0  0  0  0  0  0
  1  6  1  6  0  0  0
  1 12  1  0  0  0  0
  1  2  1  0  0  0  0
  2 11  1  6  0  0  0
  2  8  1  0  0  0  0
  4  3  2  0  0  0  0
  5 17  1  6  0  0  0
  5 11  1  0  0  0  0
  7  6  1  0  0  0  0
  7  5  1  0  0  0  0
  8 14  1  0  0  0  0
  9 12  2  0  0  0  0
  9  4  1  0  0  0  0
 10 12  1  1  0  0  0
 10  3  1  0  0  0  0
 10 13  1  0  0  0  0
 13 14  2  0  0  0  0
 13 21  1  0  0  0  0
 15  9  1  0  0  0  0
 16 17  1  0  0  0  0
 18 16  2  0  0  0  0
 19 20  1  0  0  0  0
 19 16  1  0  0  0  0
 21 25  1  0  0  0  0
 22 26  1  0  0  0  0
 23 28  1  0  0  0  0
 25 26  1  0  0  0  0
 25 23  2  0  0  0  0
 26 27  2  0  0  0  0
 27 29  1  0  0  0  0
 27 24  1  0  0  0  0
 28 24  2  0  0  0  0
 30 31  3  0  0  0  0
 31 29  1  0  0  0  0
M  END
>  <MODEL>
1

>  <REMARK>
 VINA RESULT:      -8.1      0.000      0.000
  Name = 
  6 active torsions:
  status: ('A' for Active; 'I' for Inactive)
    1  A    between atoms: C_5  and  C_10
    2  A    between atoms: C_7  and  O_11
    3  A    between atoms: C_10  and  C_26
    4  A    between atoms: C_13  and  N_16
    5  A    between atoms: N_15  and  C_27
    6  A    between atoms: N_15  and  C_30
                            x       y       z     vdW  Elec       q    Type
                         _______ _______ _______ _____ _____    ______ ____

>  <TORSDO>
F 6

$$$$
=
 OpenBabel11072412403D

 31 34  0  0  1  0  0  0  0  0999 V2000
  161.6160  206.1660  150.5300 C   0  0  2  0  0  3  0  0  0  0  0  0
  161.6000  207.3160  149.5160 C   0  0  1  0  0  3  0  0  0  0  0  0
  160.7010  207.8130  153.7700 N   0  0  0  0  0  0  0  0  0  0  0  0
  160.7960  206.4280  154.2090 C   0  0  0  0  0  2  0  0  0  0  0  0
  161.1820  205.6810  147.6640 C   0  0  1  0  0  3  0  0  0  0  0  0
  160.6840  205.0540  150.0360 C   0  0  0  0  0  2  0  0  0  0  0  0
  161.1460  204.5370  148.6780 C   0  0  0  0  0  2  0  0  0  0  0  0
  162.4990  208.4410  149.9740 C   0  0  0  0  0  2  0  0  0  0  0  0
  161.1820  205.7220  152.9610 C   0  0  0  0  0  0  0  0  0  0  0  0
  160.9740  207.8980  152.5080 C   0  0  0  0  0  0  0  0  0  0  0  0
  162.0780  206.8190  148.1540 C   0  0  0  0  0  2  0  0  0  0  0  0
  161.2590  206.5690  151.9450 C   0  0  0  0  0  0  0  0  0  0  0  0
  160.9940  209.2130  151.8180 C   0  0  0  0  0  0  0  0  0  0  0  0
  161.6790  209.4520  150.6970 C   0  0  0  0  0  3  0  0  0  0  0  0
  161.4270  204.3560  152.8770 O   0  0  0  0  0  1  0  0  0  0  0  0
  160.9820  205.5220  145.1140 C   0  0  0  0  0  0  0  0  0  0  0  0
  161.6230  205.2020  146.3580 N   0  0  0  0  0  2  0  0  0  0  0  0
  159.9650  206.2630  145.0930 O   0  0  0  0  0  0  0  0  0  0  0  0
  161.4780  205.0150  143.9120 O   0  0  0  0  0  0  0  0  0  0  0  0
  161.5140  205.7970  142.7290 C   0  0  0  0  0  1  0  0  0  0  0  0
  160.2710  210.3680  152.4380 C   0  0  0  0  0  2  0  0  0  0  0  0
  158.4860  210.9790  154.5520 F   0  0  0  0  0  0  0  0  0  0  0  0
  162.0570  210.5270  154.1310 N   0  0  0  0  0  0  0  0  0  0  0  0
  161.6460  211.0570  156.4210 C   0  0  0  0  0  3  0  0  0  0  0  0
  160.7300  210.5970  153.8430 C   0  0  0  0  0  0  0  0  0  0  0  0
  159.8080  210.9080  154.8540 C   0  0  0  0  0  0  0  0  0  0  0  0
  160.2750  211.1410  156.1650 C   0  0  0  0  0  0  0  0  0  0  0  0
  162.5290  210.7470  155.3860 C   0  0  0  0  0  3  0  0  0  0  0  0
  159.4060  211.4650  157.2580 N   0  0  0  0  0  2  0  0  0  0  0  0
  157.6980  213.3720  157.2600 N   0  0  0  0  0  0  0  0  0  0  0  0
  158.4700  212.5100  157.2600 C   0  0  0  0  0  0  0  0  0  0  0  0
  1  6  1  6  0  0  0
  1 12  1  0  0  0  0
  2 11  1  6  0  0  0
  2  8  1  0  0  0  0
  2  1  1  0  0  0  0
  3  4  1  0  0  0  0
  5 17  1  6  0  0  0
  5 11  1  0  0  0  0
  5  7  1  0  0  0  0
  7  6  1  0  0  0  0
  8 14  1  0  0  0  0
  9  4  1  0  0  0  0
 10  3  2  0  0  0  0
 12 10  1  0  0  0  0
 12  9  2  0  0  0  0
 13 21  1  0  0  0  0
 13 10  1  0  0  0  0
 14 13  2  0  0  0  0
 15  9  1  0  0  0  0
 16 17  1  0  0  0  0
 18 16  2  0  0  0  0
 19 16  1  0  0  0  0
 20 19  1  0  0  0  0
 21 25  1  0  0  0  0
 22 26  1  0  0  0  0
 23 28  1  0  0  0  0
 25 23  2  0  0  0  0
 25 26  1  0  0  0  0
 26 27  2  0  0  0  0
 27 24  1  0  0  0  0
 27 29  1  0  0  0  0
 28 24  2  0  0  0  0
 29 31  1  0  0  0  0
 30 31  3  0  0  0  0
M  END
>  <MODEL>
2

>  <REMARK>
 VINA RESULT:      -8.1      2.653      4.116
  Name = 
  6 active torsions:
  status: ('A' for Active; 'I' for Inactive)
    1  A    between atoms: C_5  and  C_10
    2  A    between atoms: C_7  and  O_11
    3  A    between atoms: C_10  and  C_26
    4  A    between atoms: C_13  and  N_16
    5  A    between atoms: N_15  and  C_27
    6  A    between atoms: N_15  and  C_30
                            x       y       z     vdW  Elec       q    Type
                         _______ _______ _______ _____ _____    ______ ____

>  <TORSDO>
F 6

$$$$
=
 OpenBabel11072412403D

 31 34  0  0  1  0  0  0  0  0999 V2000
  161.3730  206.6810  148.9200 C   0  0  2  0  0  3  0  0  0  0  0  0
  161.2430  205.3320  149.6350 C   0  0  1  0  0  3  0  0  0  0  0  0
  162.1440  209.0920  151.6850 N   0  0  0  0  0  0  0  0  0  0  0  0
  162.2130  209.9890  150.5410 C   0  0  0  0  0  3  0  0  0  0  0  0
  161.8160  204.1450  147.5040 C   0  0  1  0  0  3  0  0  0  0  0  0
  162.4170  206.5570  147.8050 C   0  0  0  0  0  2  0  0  0  0  0  0
  161.9960  205.4900  146.8000 C   0  0  0  0  0  2  0  0  0  0  0  0
  160.2290  205.4180  150.7530 C   0  0  0  0  0  2  0  0  0  0  0  0
  161.8910  209.0880  149.4060 C   0  0  0  0  0  0  0  0  0  0  0  0
  161.8440  207.8950  151.2930 C   0  0  2  0  0  3  0  0  0  0  0  0
  160.8040  204.2560  148.6450 C   0  0  0  0  0  2  0  0  0  0  0  0
  161.7030  207.8470  149.8280 C   0  0  0  0  0  0  0  0  0  0  0  0
  161.6650  206.7930  152.2720 C   0  0  0  0  0  0  0  0  0  0  0  0
  160.9400  205.6980  152.0300 C   0  0  0  0  0  3  0  0  0  0  0  0
  161.8010  209.4980  148.0810 O   0  0  0  0  0  1  0  0  0  0  0  0
  161.1330  201.7490  146.9030 C   0  0  0  0  0  0  0  0  0  0  0  0
  161.4120  203.1130  146.5540 N   0  0  0  0  0  2  0  0  0  0  0  0
  161.2280  201.3650  148.0980 O   0  0  0  0  0  0  0  0  0  0  0  0
  160.7530  200.8320  145.9230 O   0  0  0  0  0  0  0  0  0  0  0  0
  159.9020  201.1950  144.8480 C   0  0  0  0  0  1  0  0  0  0  0  0
  162.2620  206.9330  153.6380 C   0  0  0  0  0  2  0  0  0  0  0  0
  162.1590  209.6920  154.2720 F   0  0  0  0  0  0  0  0  0  0  0  0
  160.3850  206.6770  155.2170 N   0  0  0  0  0  0  0  0  0  0  0  0
  159.4390  208.5000  156.4310 C   0  0  0  0  0  3  0  0  0  0  0  0
  161.2710  207.5050  154.6010 C   0  0  0  0  0  0  0  0  0  0  0  0
  161.2680  208.8770  154.8910 C   0  0  0  0  0  0  0  0  0  0  0  0
  160.3340  209.3820  155.8210 C   0  0  0  0  0  0  0  0  0  0  0  0
  159.4780  207.1420  156.1150 C   0  0  0  0  0  3  0  0  0  0  0  0
  160.2600  210.7690  156.1790 N   0  0  0  0  0  2  0  0  0  0  0  0
  159.6560  212.6720  154.5750 N   0  0  0  0  0  0  0  0  0  0  0  0
  159.9290  211.8110  155.2990 C   0  0  0  0  0  0  0  0  0  0  0  0
  1  6  1  6  0  0  0
  1  2  1  0  0  0  0
  1 12  1  0  0  0  0
  2 11  1  6  0  0  0
  2  8  1  0  0  0  0
  4  3  2  0  0  0  0
  5 17  1  6  0  0  0
  5 11  1  0  0  0  0
  7  5  1  0  0  0  0
  7  6  1  0  0  0  0
  8 14  1  0  0  0  0
  9 12  2  0  0  0  0
  9  4  1  0  0  0  0
 10 12  1  1  0  0  0
 10  3  1  0  0  0  0
 10 13  1  0  0  0  0
 13 21  1  0  0  0  0
 14 13  2  0  0  0  0
 15  9  1  0  0  0  0
 16 18  2  0  0  0  0
 17 16  1  0  0  0  0
 19 16  1  0  0  0  0
 20 19  1  0  0  0  0
 21 25  1  0  0  0  0
 22 26  1  0  0  0  0
 23 28  1  0  0  0  0
 25 26  1  0  0  0  0
 25 23  2  0  0  0  0
 26 27  2  0  0  0  0
 27 29  1  0  0  0  0
 27 24  1  0  0  0  0
 28 24  2  0  0  0  0
 30 31  3  0  0  0  0
 31 29  1  0  0  0  0
M  END
>  <MODEL>
3

>  <REMARK>
 VINA RESULT:      -8.0      1.231      1.472
  Name = 
  6 active torsions:
  status: ('A' for Active; 'I' for Inactive)
    1  A    between atoms: C_5  and  C_10
    2  A    between atoms: C_7  and  O_11
    3  A    between atoms: C_10  and  C_26
    4  A    between atoms: C_13  and  N_16
    5  A    between atoms: N_15  and  C_27
    6  A    between atoms: N_15  and  C_30
                            x       y       z     vdW  Elec       q    Type
                         _______ _______ _______ _____ _____    ______ ____

>  <TORSDO>
F 6

$$$$
=
 OpenBabel11072412403D

 31 34  0  0  1  0  0  0  0  0999 V2000
  161.6240  207.2500  151.6060 C   0  0  2  0  0  3  0  0  0  0  0  0
  161.6460  208.4660  150.6740 C   0  0  1  0  0  3  0  0  0  0  0  0
  160.3310  208.6260  154.8450 N   0  0  0  0  0  0  0  0  0  0  0  0
  160.4540  207.2200  155.1990 C   0  0  0  0  0  2  0  0  0  0  0  0
  161.4830  206.9480  148.6870 C   0  0  1  0  0  3  0  0  0  0  0  0
  160.7990  206.1360  150.9540 C   0  0  0  0  0  2  0  0  0  0  0  0
  161.4100  205.7350  149.6160 C   0  0  0  0  0  2  0  0  0  0  0  0
  162.4420  209.5940  151.2890 C   0  0  0  0  0  2  0  0  0  0  0  0
  160.9880  206.6190  153.9500 C   0  0  0  0  0  0  0  0  0  0  0  0
  160.7160  208.8110  153.6230 C   0  0  0  0  0  0  0  0  0  0  0  0
  162.2720  208.0860  149.3340 C   0  0  0  0  0  2  0  0  0  0  0  0
  161.1170  207.5370  153.0040 C   0  0  0  0  0  0  0  0  0  0  0  0
  160.7350  210.1700  153.0250 C   0  0  0  0  0  0  0  0  0  0  0  0
  161.5090  210.5150  151.9930 C   0  0  0  0  0  3  0  0  0  0  0  0
  161.3070  205.2740  153.8020 O   0  0  0  0  0  1  0  0  0  0  0  0
  161.3110  206.1910  146.2440 C   0  0  0  0  0  0  0  0  0  0  0  0
  162.0670  206.5800  147.4010 N   0  0  0  0  0  2  0  0  0  0  0  0
  160.0540  206.1470  146.2900 O   0  0  0  0  0  0  0  0  0  0  0  0
  161.9590  205.8570  145.0550 O   0  0  0  0  0  0  0  0  0  0  0  0
  161.2620  205.2970  143.9540 C   0  0  0  0  0  1  0  0  0  0  0  0
  159.9010  211.2470  153.6480 C   0  0  0  0  0  2  0  0  0  0  0  0
  157.3210  212.4120  153.7510 F   0  0  0  0  0  0  0  0  0  0  0  0
  160.2100  212.5350  151.5670 N   0  0  0  0  0  0  0  0  0  0  0  0
  158.5260  213.9480  150.6420 C   0  0  0  0  0  3  0  0  0  0  0  0
  159.4050  212.2070  152.6140 C   0  0  0  0  0  0  0  0  0  0  0  0
  158.1140  212.7490  152.7030 C   0  0  0  0  0  0  0  0  0  0  0  0
  157.6690  213.6350  151.7000 C   0  0  0  0  0  0  0  0  0  0  0  0
  159.8010  213.3860  150.5910 C   0  0  0  0  0  3  0  0  0  0  0  0
  156.3660  214.2350  151.7100 N   0  0  0  0  0  2  0  0  0  0  0  0
  154.7740  214.3200  149.7060 N   0  0  0  0  0  0  0  0  0  0  0  0
  155.4930  214.2830  150.6130 C   0  0  0  0  0  0  0  0  0  0  0  0
  1  6  1  6  0  0  0
  1 12  1  0  0  0  0
  2 11  1  6  0  0  0
  2  8  1  0  0  0  0
  2  1  1  0  0  0  0
  3  4  1  0  0  0  0
  5 17  1  6  0  0  0
  5 11  1  0  0  0  0
  5  7  1  0  0  0  0
  7  6  1  0  0  0  0
  8 14  1  0  0  0  0
  9  4  1  0  0  0  0
 10  3  2  0  0  0  0
 12 10  1  0  0  0  0
 12  9  2  0  0  0  0
 13 10  1  0  0  0  0
 13 21  1  0  0  0  0
 14 13  2  0  0  0  0
 15  9  1  0  0  0  0
 16 18  2  0  0  0  0
 16 17  1  0  0  0  0
 19 16  1  0  0  0  0
 20 19  1  0  0  0  0
 23 25  1  0  0  0  0
 24 27  2  0  0  0  0
 25 26  2  0  0  0  0
 25 21  1  0  0  0  0
 26 22  1  0  0  0  0
 27 29  1  0  0  0  0
 27 26  1  0  0  0  0
 28 24  1  0  0  0  0
 28 23  2  0  0  0  0
 30 31  3  0  0  0  0
 31 29  1  0  0  0  0
M  END
>  <MODEL>
4

>  <REMARK>
 VINA RESULT:      -8.0      3.176      5.552
  Name = 
  6 active torsions:
  status: ('A' for Active; 'I' for Inactive)
    1  A    between atoms: C_5  and  C_10
    2  A    between atoms: C_7  and  O_11
    3  A    between atoms: C_10  and  C_26
    4  A    between atoms: C_13  and  N_16
    5  A    between atoms: N_15  and  C_27
    6  A    between atoms: N_15  and  C_30
                            x       y       z     vdW  Elec       q    Type
                         _______ _______ _______ _____ _____    ______ ____

>  <TORSDO>
F 6

$$$$
=
 OpenBabel11072412403D

 31 34  0  0  1  0  0  0  0  0999 V2000
  160.9790  206.0210  151.2750 C   0  0  2  0  0  3  0  0  0  0  0  0
  161.3920  207.1110  150.2800 C   0  0  1  0  0  3  0  0  0  0  0  0
  161.2710  202.8460  149.3040 N   0  0  0  0  0  0  0  0  0  0  0  0
  160.8920  202.3050  150.6010 C   0  0  0  0  0  2  0  0  0  0  0  0
  162.0400  208.6070  152.1820 C   0  0  1  0  0  3  0  0  0  0  0  0
  161.8520  206.1350  152.5300 C   0  0  0  0  0  2  0  0  0  0  0  0
  161.6770  207.5050  153.1770 C   0  0  0  0  0  2  0  0  0  0  0  0
  160.5600  207.0240  149.0210 C   0  0  0  0  0  2  0  0  0  0  0  0
  160.7390  203.5280  151.4280 C   0  0  0  0  0  0  0  0  0  0  0  0
  161.3300  204.1380  149.3630 C   0  0  0  0  0  0  0  0  0  0  0  0
  161.2060  208.4900  150.9070 C   0  0  0  0  0  2  0  0  0  0  0  0
  161.0250  204.6120  150.7230 C   0  0  0  0  0  0  0  0  0  0  0  0
  161.6510  204.9440  148.1580 C   0  0  0  0  0  0  0  0  0  0  0  0
  161.3000  206.2240  148.0070 C   0  0  0  0  0  3  0  0  0  0  0  0
  160.3480  203.5280  152.7620 O   0  0  0  0  0  1  0  0  0  0  0  0
  160.6120  210.5480  153.0550 C   0  0  0  0  0  0  0  0  0  0  0  0
  161.8770  209.9250  152.7870 N   0  0  0  0  0  2  0  0  0  0  0  0
  159.5380  209.9590  152.7660 O   0  0  0  0  0  0  0  0  0  0  0  0
  160.5570  211.8140  153.6380 O   0  0  0  0  0  0  0  0  0  0  0  0
  160.0340  212.0160  154.9420 C   0  0  0  0  0  1  0  0  0  0  0  0
  162.3410  204.2810  147.0060 C   0  0  0  0  0  2  0  0  0  0  0  0
  161.5980  201.5500  146.9000 F   0  0  0  0  0  0  0  0  0  0  0  0
  160.7850  204.6000  145.1200 N   0  0  0  0  0  0  0  0  0  0  0  0
  159.5410  202.8180  144.1360 C   0  0  0  0  0  3  0  0  0  0  0  0
  161.3510  203.7510  146.0200 C   0  0  0  0  0  0  0  0  0  0  0  0
  161.0240  202.3870  145.9990 C   0  0  0  0  0  0  0  0  0  0  0  0
  160.1020  201.9140  145.0410 C   0  0  0  0  0  0  0  0  0  0  0  0
  159.8950  204.1660  144.1900 C   0  0  0  0  0  3  0  0  0  0  0  0
  159.7110  200.5370  144.9470 N   0  0  0  0  0  2  0  0  0  0  0  0
  161.2070  198.5400  145.5190 N   0  0  0  0  0  0  0  0  0  0  0  0
  160.5300  199.4430  145.2620 C   0  0  0  0  0  0  0  0  0  0  0  0
  1  6  1  1  0  0  0
  2  8  1  6  0  0  0
  2 11  1  0  0  0  0
  2  1  1  0  0  0  0
  3 10  2  0  0  0  0
  3  4  1  0  0  0  0
  4  9  1  0  0  0  0
  5 17  1  1  0  0  0
  5  7  1  0  0  0  0
  6  7  1  0  0  0  0
  9 15  1  0  0  0  0
 10 12  1  0  0  0  0
 11  5  1  0  0  0  0
 12  1  1  0  0  0  0
 12  9  2  0  0  0  0
 13 10  1  0  0  0  0
 14 13  2  0  0  0  0
 14  8  1  0  0  0  0
 16 19  1  0  0  0  0
 17 16  1  0  0  0  0
 18 16  2  0  0  0  0
 19 20  1  0  0  0  0
 21 13  1  0  0  0  0
 23 25  1  0  0  0  0
 24 28  1  0  0  0  0
 24 27  2  0  0  0  0
 25 21  1  0  0  0  0
 26 25  2  0  0  0  0
 26 22  1  0  0  0  0
 27 26  1  0  0  0  0
 28 23  2  0  0  0  0
 29 27  1  0  0  0  0
 29 31  1  0  0  0  0
 31 30  3  0  0  0  0
M  END
>  <MODEL>
5

>  <REMARK>
 VINA RESULT:      -7.6      3.456      9.556
  Name = 
  6 active torsions:
  status: ('A' for Active; 'I' for Inactive)
    1  A    between atoms: C_5  and  C_10
    2  A    between atoms: C_7  and  O_11
    3  A    between atoms: C_10  and  C_26
    4  A    between atoms: C_13  and  N_16
    5  A    between atoms: N_15  and  C_27
    6  A    between atoms: N_15  and  C_30
                            x       y       z     vdW  Elec       q    Type
                         _______ _______ _______ _____ _____    ______ ____

>  <TORSDO>
F 6

$$$$
=
 OpenBabel11072412403D

 31 34  0  0  1  0  0  0  0  0999 V2000
  161.4930  208.5390  153.4360 C   0  0  2  0  0  3  0  0  0  0  0  0
  161.1480  208.7200  151.9540 C   0  0  1  0  0  3  0  0  0  0  0  0
  160.5110  211.8040  154.9920 N   0  0  0  0  0  0  0  0  0  0  0  0
  160.9380  211.0770  156.1790 C   0  0  0  0  0  2  0  0  0  0  0  0
  160.9420  206.2360  151.6950 C   0  0  1  0  0  3  0  0  0  0  0  0
  160.7870  207.2860  153.9630 C   0  0  0  0  0  2  0  0  0  0  0  0
  161.2370  206.0540  153.1840 C   0  0  0  0  0  2  0  0  0  0  0  0
  161.8170  209.9560  151.3980 C   0  0  0  0  0  2  0  0  0  0  0  0
  161.3640  209.7700  155.6180 C   0  0  0  0  0  0  0  0  0  0  0  0
  160.6560  211.0620  153.9410 C   0  0  0  0  0  0  0  0  0  0  0  0
  161.6080  207.5020  151.1570 C   0  0  0  0  0  2  0  0  0  0  0  0
  161.1740  209.7340  154.3080 C   0  0  0  0  0  0  0  0  0  0  0  0
  160.3350  211.5840  152.5890 C   0  0  0  0  0  0  0  0  0  0  0  0
  160.8600  211.0940  151.4620 C   0  0  0  0  0  3  0  0  0  0  0  0
  161.8910  208.7280  156.3730 O   0  0  0  0  0  1  0  0  0  0  0  0
  161.0400  204.8220  149.5600 C   0  0  0  0  0  0  0  0  0  0  0  0
  161.3690  205.0650  150.9360 N   0  0  0  0  0  2  0  0  0  0  0  0
  160.3370  205.6460  148.9180 O   0  0  0  0  0  0  0  0  0  0  0  0
  161.4940  203.6710  148.9160 O   0  0  0  0  0  0  0  0  0  0  0  0
  161.5770  203.5860  147.5030 C   0  0  0  0  0  1  0  0  0  0  0  0
  159.4330  212.7720  152.4650 C   0  0  0  0  0  2  0  0  0  0  0  0
  157.2410  212.8010  150.6710 F   0  0  0  0  0  0  0  0  0  0  0  0
  160.6900  213.9140  150.6760 N   0  0  0  0  0  0  0  0  0  0  0  0
  159.7450  214.4530  148.5530 C   0  0  0  0  0  3  0  0  0  0  0  0
  159.5160  213.3700  151.0970 C   0  0  0  0  0  0  0  0  0  0  0  0
  158.4060  213.3490  150.2400 C   0  0  0  0  0  0  0  0  0  0  0  0
  158.5230  213.9020  148.9470 C   0  0  0  0  0  0  0  0  0  0  0  0
  160.8250  214.4510  149.4360 C   0  0  0  0  0  3  0  0  0  0  0  0
  157.4410  213.9230  148.0050 N   0  0  0  0  0  2  0  0  0  0  0  0
  157.0910  212.2150  146.1310 N   0  0  0  0  0  0  0  0  0  0  0  0
  157.2480  212.9870  146.9790 C   0  0  0  0  0  0  0  0  0  0  0  0
  1  6  1  1  0  0  0
  1 12  1  0  0  0  0
  2 11  1  6  0  0  0
  2  1  1  0  0  0  0
  3  4  1  0  0  0  0
  5 17  1  6  0  0  0
  5  7  1  0  0  0  0
  7  6  1  0  0  0  0
  8 14  1  0  0  0  0
  8  2  1  0  0  0  0
  9  4  1  0  0  0  0
  9 15  1  0  0  0  0
 10 12  1  0  0  0  0
 10  3  2  0  0  0  0
 11  5  1  0  0  0  0
 12  9  2  0  0  0  0
 13 10  1  0  0  0  0
 14 13  2  0  0  0  0
 16 17  1  0  0  0  0
 18 16  2  0  0  0  0
 19 16  1  0  0  0  0
 20 19  1  0  0  0  0
 21 13  1  0  0  0  0
 23 25  1  0  0  0  0
 24 27  2  0  0  0  0
 24 28  1  0  0  0  0
 25 21  1  0  0  0  0
 26 22  1  0  0  0  0
 26 25  2  0  0  0  0
 27 26  1  0  0  0  0
 28 23  2  0  0  0  0
 29 27  1  0  0  0  0
 30 31  3  0  0  0  0
 31 29  1  0  0  0  0
M  END
>  <MODEL>
6

>  <REMARK>
 VINA RESULT:      -7.5      3.894      6.752
  Name = 
  6 active torsions:
  status: ('A' for Active; 'I' for Inactive)
    1  A    between atoms: C_5  and  C_10
    2  A    between atoms: C_7  and  O_11
    3  A    between atoms: C_10  and  C_26
    4  A    between atoms: C_13  and  N_16
    5  A    between atoms: N_15  and  C_27
    6  A    between atoms: N_15  and  C_30
                            x       y       z     vdW  Elec       q    Type
                         _______ _______ _______ _____ _____    ______ ____

>  <TORSDO>
F 6

$$$$
=
 OpenBabel11072412403D

 31 34  0  0  1  0  0  0  0  0999 V2000
  160.8310  206.4040  152.6730 C   0  0  2  0  0  3  0  0  0  0  0  0
  161.2460  207.8240  152.2740 C   0  0  1  0  0  3  0  0  0  0  0  0
  161.5310  204.3690  149.6030 N   0  0  0  0  0  0  0  0  0  0  0  0
  161.0830  203.3190  150.5050 C   0  0  0  0  0  2  0  0  0  0  0  0
  161.6110  208.3960  154.6860 C   0  0  1  0  0  3  0  0  0  0  0  0
  161.5790  206.0040  153.9480 C   0  0  0  0  0  2  0  0  0  0  0  0
  161.2460  206.9660  155.0840 C   0  0  0  0  0  2  0  0  0  0  0  0
  160.5370  208.2510  151.0100 C   0  0  0  0  0  2  0  0  0  0  0  0
  160.7660  204.0740  151.7440 C   0  0  0  0  0  0  0  0  0  0  0  0
  161.4890  205.5160  150.2020 C   0  0  0  0  0  0  0  0  0  0  0  0
  160.9020  208.8030  153.3940 C   0  0  0  0  0  2  0  0  0  0  0  0
  161.0300  205.3620  151.5920 C   0  0  0  0  0  0  0  0  0  0  0  0
  161.8520  206.7650  149.4850 C   0  0  0  0  0  0  0  0  0  0  0  0
  161.4200  207.9780  149.8440 C   0  0  0  0  0  3  0  0  0  0  0  0
  160.2610  203.4980  152.9050 O   0  0  0  0  0  1  0  0  0  0  0  0
  162.1050  210.4600  156.1230 C   0  0  0  0  0  0  0  0  0  0  0  0
  161.2970  209.3300  155.7640 N   0  0  0  0  0  2  0  0  0  0  0  0
  163.1680  210.7090  155.4980 O   0  0  0  0  0  0  0  0  0  0  0  0
  161.7220  211.2990  157.1710 O   0  0  0  0  0  0  0  0  0  0  0  0
  160.6470  212.2160  157.0410 C   0  0  0  0  0  1  0  0  0  0  0  0
  162.6880  206.6730  148.2470 C   0  0  0  0  0  2  0  0  0  0  0  0
  162.9740  203.9630  147.4750 F   0  0  0  0  0  0  0  0  0  0  0  0
  161.0430  206.8410  146.4170 N   0  0  0  0  0  0  0  0  0  0  0  0
  160.4830  205.0140  144.9900 C   0  0  0  0  0  3  0  0  0  0  0  0
  161.9140  206.0680  147.1200 C   0  0  0  0  0  0  0  0  0  0  0  0
  162.0990  204.7230  146.7680 C   0  0  0  0  0  0  0  0  0  0  0  0
  161.3700  204.1870  145.6850 C   0  0  0  0  0  0  0  0  0  0  0  0
  160.3310  206.3460  145.3720 C   0  0  0  0  0  3  0  0  0  0  0  0
  161.4960  202.8250  145.2560 N   0  0  0  0  0  2  0  0  0  0  0  0
  159.6020  201.1020  145.2610 N   0  0  0  0  0  0  0  0  0  0  0  0
  160.4600  201.8800  145.2590 C   0  0  0  0  0  0  0  0  0  0  0  0
  1  6  1  1  0  0  0
  2  8  1  6  0  0  0
  2  1  1  0  0  0  0
  2 11  1  0  0  0  0
  3 10  2  0  0  0  0
  3  4  1  0  0  0  0
  4  9  1  0  0  0  0
  5  7  1  0  0  0  0
  5 17  1  1  0  0  0
  6  7  1  0  0  0  0
  9 15  1  0  0  0  0
 10 12  1  0  0  0  0
 11  5  1  0  0  0  0
 12  9  2  0  0  0  0
 12  1  1  0  0  0  0
 13 14  2  0  0  0  0
 13 10  1  0  0  0  0
 14  8  1  0  0  0  0
 16 19  1  0  0  0  0
 17 16  1  0  0  0  0
 18 16  2  0  0  0  0
 20 19  1  0  0  0  0
 21 13  1  0  0  0  0
 23 25  1  0  0  0  0
 24 28  1  0  0  0  0
 24 27  2  0  0  0  0
 25 21  1  0  0  0  0
 26 25  2  0  0  0  0
 26 22  1  0  0  0  0
 27 26  1  0  0  0  0
 28 23  2  0  0  0  0
 29 31  1  0  0  0  0
 29 27  1  0  0  0  0
 31 30  3  0  0  0  0
M  END
>  <MODEL>
7

>  <REMARK>
 VINA RESULT:      -7.0      3.666      9.376
  Name = 
  6 active torsions:
  status: ('A' for Active; 'I' for Inactive)
    1  A    between atoms: C_5  and  C_10
    2  A    between atoms: C_7  and  O_11
    3  A    between atoms: C_10  and  C_26
    4  A    between atoms: C_13  and  N_16
    5  A    between atoms: N_15  and  C_27
    6  A    between atoms: N_15  and  C_30
                            x       y       z     vdW  Elec       q    Type
                         _______ _______ _______ _____ _____    ______ ____

>  <TORSDO>
F 6

$$$$
=
 OpenBabel11072412403D

 31 34  0  0  1  0  0  0  0  0999 V2000
  160.7080  205.0650  151.4310 C   0  0  2  0  0  3  0  0  0  0  0  0
  161.1470  206.3190  150.6670 C   0  0  1  0  0  3  0  0  0  0  0  0
  161.3460  202.2700  149.0170 N   0  0  0  0  0  0  0  0  0  0  0  0
  160.8840  201.5090  150.1680 C   0  0  0  0  0  2  0  0  0  0  0  0
  161.5420  207.5080  152.8370 C   0  0  1  0  0  3  0  0  0  0  0  0
  161.4580  205.0060  152.7660 C   0  0  0  0  0  2  0  0  0  0  0  0
  161.1520  206.2440  153.6030 C   0  0  0  0  0  2  0  0  0  0  0  0
  160.4370  206.4060  149.3350 C   0  0  0  0  0  2  0  0  0  0  0  0
  160.5910  202.5740  151.1610 C   0  0  0  0  0  0  0  0  0  0  0  0
  161.3300  203.5360  149.2870 C   0  0  0  0  0  0  0  0  0  0  0  0
  160.8310  207.5680  151.4840 C   0  0  0  0  0  2  0  0  0  0  0  0
  160.8790  203.7690  150.6680 C   0  0  0  0  0  0  0  0  0  0  0  0
  161.7120  204.5400  148.2610 C   0  0  0  0  0  0  0  0  0  0  0  0
  161.3070  205.8120  148.2830 C   0  0  0  0  0  3  0  0  0  0  0  0
  160.0840  202.3400  152.4340 O   0  0  0  0  0  1  0  0  0  0  0  0
  161.7820  210.0070  153.3490 C   0  0  0  0  0  0  0  0  0  0  0  0
  161.2540  208.7020  153.6250 N   0  0  0  0  0  2  0  0  0  0  0  0
  162.5510  210.1890  152.3700 O   0  0  0  0  0  0  0  0  0  0  0  0
  161.4490  211.0910  154.1620 O   0  0  0  0  0  0  0  0  0  0  0  0
  161.4260  210.9870  155.5770 C   0  0  0  0  0  1  0  0  0  0  0  0
  162.5370  204.1030  147.0910 C   0  0  0  0  0  2  0  0  0  0  0  0
  163.0480  206.2040  145.2610 F   0  0  0  0  0  0  0  0  0  0  0  0
  160.7930  203.3770  145.5050 N   0  0  0  0  0  0  0  0  0  0  0  0
  160.3110  204.5310  143.4740 C   0  0  0  0  0  3  0  0  0  0  0  0
  161.7800  204.2620  145.8120 C   0  0  0  0  0  0  0  0  0  0  0  0
  162.0620  205.3260  144.9420 C   0  0  0  0  0  0  0  0  0  0  0  0
  161.3150  205.4610  143.7530 C   0  0  0  0  0  0  0  0  0  0  0  0
  160.0620  203.4880  144.3660 C   0  0  0  0  0  3  0  0  0  0  0  0
  161.5340  206.5180  142.8080 N   0  0  0  0  0  2  0  0  0  0  0  0
  162.3270  206.1910  140.3960 N   0  0  0  0  0  0  0  0  0  0  0  0
  161.9700  206.3390  141.4870 C   0  0  0  0  0  0  0  0  0  0  0  0
  1  6  1  1  0  0  0
  2  8  1  6  0  0  0
  2  1  1  0  0  0  0
  2 11  1  0  0  0  0
  3 10  2  0  0  0  0
  3  4  1  0  0  0  0
  4  9  1  0  0  0  0
  5  7  1  0  0  0  0
  5 17  1  1  0  0  0
  6  7  1  0  0  0  0
  9 15  1  0  0  0  0
 10 12  1  0  0  0  0
 11  5  1  0  0  0  0
 12  9  2  0  0  0  0
 12  1  1  0  0  0  0
 13 14  2  0  0  0  0
 13 10  1  0  0  0  0
 14  8  1  0  0  0  0
 16 17  1  0  0  0  0
 16 19  1  0  0  0  0
 18 16  2  0  0  0  0
 19 20  1  0  0  0  0
 21 13  1  0  0  0  0
 23 25  1  0  0  0  0
 24 27  2  0  0  0  0
 24 28  1  0  0  0  0
 25 21  1  0  0  0  0
 26 22  1  0  0  0  0
 26 25  2  0  0  0  0
 27 26  1  0  0  0  0
 28 23  2  0  0  0  0
 29 27  1  0  0  0  0
 30 31  3  0  0  0  0
 31 29  1  0  0  0  0
M  END
>  <MODEL>
8

>  <REMARK>
 VINA RESULT:      -6.6      3.888      9.226
  Name = 
  6 active torsions:
  status: ('A' for Active; 'I' for Inactive)
    1  A    between atoms: C_5  and  C_10
    2  A    between atoms: C_7  and  O_11
    3  A    between atoms: C_10  and  C_26
    4  A    between atoms: C_13  and  N_16
    5  A    between atoms: N_15  and  C_27
    6  A    between atoms: N_15  and  C_30
                            x       y       z     vdW  Elec       q    Type
                         _______ _______ _______ _____ _____    ______ ____

>  <TORSDO>
F 6

$$$$
=
 OpenBabel11072412403D

 31 34  0  0  1  0  0  0  0  0999 V2000
  161.0260  204.6770  148.1710 C   0  0  2  0  0  3  0  0  0  0  0  0
  161.2120  203.6070  149.2520 C   0  0  1  0  0  3  0  0  0  0  0  0
  161.8490  207.8830  149.9300 N   0  0  0  0  0  0  0  0  0  0  0  0
  161.6030  208.3880  148.5870 C   0  0  0  0  0  3  0  0  0  0  0  0
  161.6170  201.8830  147.4790 C   0  0  1  0  0  3  0  0  0  0  0  0
  161.8900  204.3170  146.9580 C   0  0  0  0  0  2  0  0  0  0  0  0
  161.4820  202.9570  146.4000 C   0  0  0  0  0  2  0  0  0  0  0  0
  160.3830  203.9340  150.4730 C   0  0  0  0  0  2  0  0  0  0  0  0
  161.2470  207.1550  147.8410 C   0  0  0  0  0  0  0  0  0  0  0  0
  161.6730  206.6010  149.9610 C   0  0  2  0  0  3  0  0  0  0  0  0
  160.7910  202.2420  148.7140 C   0  0  0  0  0  2  0  0  0  0  0  0
  161.3160  206.0910  148.6280 C   0  0  0  0  0  0  0  0  0  0  0  0
  161.8160  205.8410  151.2290 C   0  0  0  0  0  0  0  0  0  0  0  0
  161.2350  204.6600  151.4550 C   0  0  0  0  0  3  0  0  0  0  0  0
  160.8920  207.1270  146.4970 O   0  0  0  0  0  1  0  0  0  0  0  0
  160.5650  200.3610  145.7060 C   0  0  0  0  0  0  0  0  0  0  0  0
  161.2300  200.5750  146.9600 N   0  0  0  0  0  2  0  0  0  0  0  0
  160.2730  201.3350  144.9650 O   0  0  0  0  0  0  0  0  0  0  0  0
  160.2340  199.0700  145.2930 O   0  0  0  0  0  0  0  0  0  0  0  0
  161.2190  198.0640  145.1200 C   0  0  0  0  0  1  0  0  0  0  0  0
  162.5910  206.4510  152.3560 C   0  0  0  0  0  2  0  0  0  0  0  0
  160.8650  206.5700  154.5990 F   0  0  0  0  0  0  0  0  0  0  0  0
  162.1920  208.8750  152.1380 N   0  0  0  0  0  0  0  0  0  0  0  0
  160.7660  210.1030  153.6040 C   0  0  0  0  0  3  0  0  0  0  0  0
  161.9540  207.7220  152.8190 C   0  0  0  0  0  0  0  0  0  0  0  0
  161.0970  207.7280  153.9300 C   0  0  0  0  0  0  0  0  0  0  0  0
  160.4940  208.9400  154.3290 C   0  0  0  0  0  0  0  0  0  0  0  0
  161.6230  210.0520  152.5050 C   0  0  0  0  0  3  0  0  0  0  0  0
  159.6050  209.0380  155.4500 N   0  0  0  0  0  2  0  0  0  0  0  0
  157.8610  210.8830  155.7820 N   0  0  0  0  0  0  0  0  0  0  0  0
  158.6490  210.0480  155.6330 C   0  0  0  0  0  0  0  0  0  0  0  0
  1  6  1  6  0  0  0
  1 12  1  0  0  0  0
  1  2  1  0  0  0  0
  2 11  1  6  0  0  0
  2  8  1  0  0  0  0
  3 10  1  0  0  0  0
  4  3  2  0  0  0  0
  5 17  1  6  0  0  0
  5 11  1  0  0  0  0
  7  6  1  0  0  0  0
  7  5  1  0  0  0  0
  8 14  1  0  0  0  0
  9  4  1  0  0  0  0
  9 12  2  0  0  0  0
 10 12  1  1  0  0  0
 10 13  1  0  0  0  0
 13 14  2  0  0  0  0
 13 21  1  0  0  0  0
 15  9  1  0  0  0  0
 16 17  1  0  0  0  0
 18 16  2  0  0  0  0
 19 16  1  0  0  0  0
 20 19  1  0  0  0  0
 21 25  1  0  0  0  0
 23 28  2  0  0  0  0
 23 25  1  0  0  0  0
 24 27  2  0  0  0  0
 25 26  2  0  0  0  0
 26 27  1  0  0  0  0
 26 22  1  0  0  0  0
 27 29  1  0  0  0  0
 28 24  1  0  0  0  0
 29 31  1  0  0  0  0
 31 30  3  0  0  0  0
M  END
>  <MODEL>
9

>  <REMARK>
 VINA RESULT:      -6.5      1.426      1.810
  Name = 
  6 active torsions:
  status: ('A' for Active; 'I' for Inactive)
    1  A    between atoms: C_5  and  C_10
    2  A    between atoms: C_7  and  O_11
    3  A    between atoms: C_10  and  C_26
    4  A    between atoms: C_13  and  N_16
    5  A    between atoms: N_15  and  C_27
    6  A    between atoms: N_15  and  C_30
                            x       y       z     vdW  Elec       q    Type
                         _______ _______ _______ _____ _____    ______ ____

>  <TORSDO>
F 6

$$$$
