=
 OpenBabel11072410323D

 32 34  0  0  1  0  0  0  0  0999 V2000
  161.5010  206.6200  148.6350 C   0  0  2  0  0  3  0  0  0  0  0  0
  160.1870  206.1820  149.2580 C   0  0  0  0  0  1  0  0  0  0  0  0
  161.9590  209.0130  148.5100 C   0  0  0  0  0  2  0  0  0  0  0  0
  161.9740  207.9020  149.2490 C   0  0  0  0  0  0  0  0  0  0  0  0
  162.7130  206.6690  151.1520 O   0  0  0  0  0  1  0  0  0  0  0  0
  162.3630  207.9450  150.7010 C   0  0  2  0  0  3  0  0  0  0  0  0
  160.7160  207.6170  152.4490 O   0  0  0  0  0  1  0  0  0  0  0  0
  161.2540  208.5540  151.5620 C   0  0  1  0  0  3  0  0  0  0  0  0
  161.7110  209.8150  152.2950 C   0  0  0  0  0  2  0  0  0  0  0  0
  160.9100  210.0930  153.4840 N   0  0  0  0  0  0  0  0  0  0  0  0
  159.9360  208.3360  155.7300 O   0  0  0  0  0  1  0  0  0  0  0  0
  161.5320  209.8600  154.7880 C   0  0  0  0  0  2  0  0  0  0  0  0
  159.4040  210.6380  155.8410 C   0  0  0  0  0  0  0  0  0  0  0  0
  159.3560  211.3990  152.3060 O   0  0  0  0  0  0  0  0  0  0  0  0
  159.0130  211.2240  154.5970 N   0  0  0  0  0  2  0  0  0  0  0  0
  158.8000  210.9550  156.8990 O   0  0  0  0  0  0  0  0  0  0  0  0
  160.4900  209.6070  155.8810 C   0  0  1  0  0  3  0  0  0  0  0  0
  159.7400  210.9230  153.4080 C   0  0  0  0  0  0  0  0  0  0  0  0
  161.3420  206.7780  147.2510 O   0  0  0  0  0  0  0  0  0  0  0  0
  162.1380  205.6960  145.1910 C   0  0  0  0  0  2  0  0  0  0  0  0
  161.2780  204.7700  145.9600 N   0  0  0  0  0  0  0  0  0  0  0  0
  162.1160  205.7780  146.6440 C   0  0  2  0  0  0  0  0  0  0  0  0
  163.1930  205.2480  147.3690 O   0  0  0  0  0  1  0  0  0  0  0  0
  161.9350  203.5300  145.9560 N   0  0  0  0  0  2  0  0  0  0  0  0
  160.9090  202.5120  146.0930 C   0  0  0  0  0  2  0  0  0  0  0  0
  160.5800  202.8230  148.5730 N   0  0  0  0  0  2  0  0  0  0  0  0
  161.2750  200.7790  147.6790 O   0  0  0  0  0  0  0  0  0  0  0  0
  160.9230  201.9710  147.4780 C   0  0  0  0  0  0  0  0  0  0  0  0
  160.5750  202.3640  149.9540 C   0  0  0  0  0  2  0  0  0  0  0  0
  161.4660  203.2530  150.8020 C   0  0  2  0  0  3  0  0  0  0  0  0
  161.7370  202.5990  152.0170 O   0  0  0  0  0  0  0  0  0  0  0  0
  160.7670  203.6160  152.0520 C   0  0  0  0  0  2  0  0  0  0  0  0
  1  4  1  0  0  0  0
  1  2  1  1  0  0  0
  3  4  2  0  0  0  0
  4  6  1  0  0  0  0
  6  5  1  1  0  0  0
  6  8  1  0  0  0  0
  8  9  1  0  0  0  0
  8  7  1  1  0  0  0
  9 10  1  0  0  0  0
 10 12  1  0  0  0  0
 12 17  1  0  0  0  0
 13 17  1  0  0  0  0
 13 16  2  0  0  0  0
 14 18  2  0  0  0  0
 15 13  1  0  0  0  0
 17 11  1  6  0  0  0
 18 10  1  0  0  0  0
 18 15  1  0  0  0  0
 19  1  1  0  0  0  0
 20 21  1  0  0  0  0
 20 22  1  0  0  0  0
 21 22  1  0  0  0  0
 22 19  1  0  0  0  0
 22 23  1  1  0  0  0
 24 21  1  0  0  0  0
 24 25  1  0  0  0  0
 25 28  1  0  0  0  0
 26 29  1  0  0  0  0
 28 27  2  0  0  0  0
 28 26  1  0  0  0  0
 30 29  1  6  0  0  0
 30 31  1  0  0  0  0
 30 32  1  0  0  0  0
 31 32  1  0  0  0  0
M  END
>  <MODEL>
1

>  <REMARK>
 VINA RESULT:      -6.6      0.000      0.000
  Name = 
  12 active torsions:
  status: ('A' for Active; 'I' for Inactive)
    1  A    between atoms: N_1  and  C_5
    2  A    between atoms: C_2  and  O_20
    3  A    between atoms: C_2  and  C_27
    4  A    between atoms: C_4  and  C_30
    5  A    between atoms: C_5  and  C_22
    6  A    between atoms: N_7  and  N_11
    7  A    between atoms: N_7  and  C_31
    8  A    between atoms: N_9  and  C_30
    9  A    between atoms: C_14  and  O_20
   10  A    between atoms: C_19  and  C_22
   11  A    between atoms: C_19  and  C_27
   12  A    between atoms: C_28  and  C_31
                            x       y       z     vdW  Elec       q    Type
                         _______ _______ _______ _____ _____    ______ ____

>  <TORSDO>
F 12

$$$$
=
 OpenBabel11072410323D

 32 34  0  0  1  0  0  0  0  0999 V2000
  161.4190  206.9230  153.4520 C   0  0  2  0  0  3  0  0  0  0  0  0
  161.1110  205.4360  153.4190 C   0  0  0  0  0  1  0  0  0  0  0  0
  160.0260  206.8640  155.4540 C   0  0  0  0  0  2  0  0  0  0  0  0
  160.9150  207.5370  154.7220 C   0  0  0  0  0  0  0  0  0  0  0  0
  162.0330  208.6970  156.4800 O   0  0  0  0  0  1  0  0  0  0  0  0
  161.4810  208.8450  155.2040 C   0  0  2  0  0  3  0  0  0  0  0  0
  159.9120  210.2060  156.4510 O   0  0  0  0  0  1  0  0  0  0  0  0
  160.4300  209.9570  155.1780 C   0  0  1  0  0  3  0  0  0  0  0  0
  160.9540  211.2380  154.5300 C   0  0  0  0  0  2  0  0  0  0  0  0
  159.8890  212.0380  153.9300 N   0  0  0  0  0  0  0  0  0  0  0  0
  159.5070  213.1560  151.1580 O   0  0  0  0  0  1  0  0  0  0  0  0
  159.1520  211.4520  152.8100 C   0  0  0  0  0  2  0  0  0  0  0  0
  157.7850  213.5420  152.7340 C   0  0  0  0  0  0  0  0  0  0  0  0
  159.7480  213.4870  155.7700 O   0  0  0  0  0  0  0  0  0  0  0  0
  158.2380  213.8760  154.0480 N   0  0  0  0  0  2  0  0  0  0  0  0
  156.7930  214.1410  152.2440 O   0  0  0  0  0  0  0  0  0  0  0  0
  158.5220  212.5250  151.9170 C   0  0  1  0  0  3  0  0  0  0  0  0
  159.3170  213.1510  154.6350 C   0  0  0  0  0  0  0  0  0  0  0  0
  160.8340  207.5530  152.3460 O   0  0  0  0  0  0  0  0  0  0  0  0
  162.1050  209.1180  150.9370 C   0  0  0  0  0  2  0  0  0  0  0  0
  161.3400  208.1730  150.0960 N   0  0  0  0  0  0  0  0  0  0  0  0
  161.8630  207.7660  151.4170 C   0  0  2  0  0  0  0  0  0  0  0  0
  162.9080  206.8320  151.3670 O   0  0  0  0  0  1  0  0  0  0  0  0
  162.2160  207.7480  149.0850 N   0  0  0  0  0  2  0  0  0  0  0  0
  161.3920  207.2620  147.9930 C   0  0  0  0  0  2  0  0  0  0  0  0
  161.1890  204.8700  148.7630 N   0  0  0  0  0  2  0  0  0  0  0  0
  162.2850  205.4250  146.7750 O   0  0  0  0  0  0  0  0  0  0  0  0
  161.6420  205.8100  147.7870 C   0  0  0  0  0  0  0  0  0  0  0  0
  161.4010  203.4360  148.6300 C   0  0  0  0  0  2  0  0  0  0  0  0
  160.3850  202.6780  149.4630 C   0  0  2  0  0  3  0  0  0  0  0  0
  161.0320  202.1300  150.5840 O   0  0  0  0  0  0  0  0  0  0  0  0
  160.7530  201.2490  149.5250 C   0  0  0  0  0  2  0  0  0  0  0  0
  1  2  1  1  0  0  0
  1  4  1  0  0  0  0
  4  6  1  0  0  0  0
  4  3  2  0  0  0  0
  6  5  1  1  0  0  0
  8  6  1  0  0  0  0
  8  7  1  1  0  0  0
  9  8  1  0  0  0  0
 10  9  1  0  0  0  0
 10 18  1  0  0  0  0
 12 10  1  0  0  0  0
 13 15  1  0  0  0  0
 15 18  1  0  0  0  0
 16 13  2  0  0  0  0
 17 11  1  1  0  0  0
 17 13  1  0  0  0  0
 17 12  1  0  0  0  0
 18 14  2  0  0  0  0
 19  1  1  0  0  0  0
 20 22  1  0  0  0  0
 21 20  1  0  0  0  0
 21 22  1  0  0  0  0
 22 23  1  1  0  0  0
 22 19  1  0  0  0  0
 24 21  1  0  0  0  0
 25 24  1  0  0  0  0
 27 28  2  0  0  0  0
 28 25  1  0  0  0  0
 28 26  1  0  0  0  0
 29 26  1  0  0  0  0
 30 29  1  6  0  0  0
 30 32  1  0  0  0  0
 30 31  1  0  0  0  0
 32 31  1  0  0  0  0
M  END
>  <MODEL>
2

>  <REMARK>
 VINA RESULT:      -6.5      2.179      4.587
  Name = 
  12 active torsions:
  status: ('A' for Active; 'I' for Inactive)
    1  A    between atoms: N_1  and  C_5
    2  A    between atoms: C_2  and  O_20
    3  A    between atoms: C_2  and  C_27
    4  A    between atoms: C_4  and  C_30
    5  A    between atoms: C_5  and  C_22
    6  A    between atoms: N_7  and  N_11
    7  A    between atoms: N_7  and  C_31
    8  A    between atoms: N_9  and  C_30
    9  A    between atoms: C_14  and  O_20
   10  A    between atoms: C_19  and  C_22
   11  A    between atoms: C_19  and  C_27
   12  A    between atoms: C_28  and  C_31
                            x       y       z     vdW  Elec       q    Type
                         _______ _______ _______ _____ _____    ______ ____

>  <TORSDO>
F 12

$$$$
=
 OpenBabel11072410323D

 32 34  0  0  1  0  0  0  0  0999 V2000
  161.3590  207.2140  153.7350 C   0  0  2  0  0  3  0  0  0  0  0  0
  161.0080  205.7390  153.8290 C   0  0  0  0  0  1  0  0  0  0  0  0
  159.9440  207.3850  155.7140 C   0  0  0  0  0  2  0  0  0  0  0  0
  160.8810  207.9480  154.9490 C   0  0  0  0  0  0  0  0  0  0  0  0
  162.2730  209.0900  156.5130 O   0  0  0  0  0  1  0  0  0  0  0  0
  161.5220  209.2500  155.3450 C   0  0  2  0  0  3  0  0  0  0  0  0
  161.0670  211.5540  155.9420 O   0  0  0  0  0  1  0  0  0  0  0  0
  160.4830  210.3640  155.5000 C   0  0  1  0  0  3  0  0  0  0  0  0
  159.6690  210.5830  154.2250 C   0  0  0  0  0  2  0  0  0  0  0  0
  158.4850  211.4060  154.4510 N   0  0  0  0  0  0  0  0  0  0  0  0
  155.5510  210.7370  154.6150 O   0  0  0  0  0  1  0  0  0  0  0  0
  157.6840  211.1250  155.6430 C   0  0  0  0  0  2  0  0  0  0  0  0
  156.1730  212.9930  154.9590 C   0  0  0  0  0  0  0  0  0  0  0  0
  159.1870  213.0790  152.9640 O   0  0  0  0  0  0  0  0  0  0  0  0
  157.1860  213.4770  154.0750 N   0  0  0  0  0  2  0  0  0  0  0  0
  155.2000  213.7330  155.2590 O   0  0  0  0  0  0  0  0  0  0  0  0
  156.2340  211.5900  155.4810 C   0  0  1  0  0  3  0  0  0  0  0  0
  158.3250  212.6690  153.7870 C   0  0  0  0  0  0  0  0  0  0  0  0
  160.7870  207.7650  152.5810 O   0  0  0  0  0  0  0  0  0  0  0  0
  162.2560  209.2800  151.3170 C   0  0  0  0  0  2  0  0  0  0  0  0
  161.3610  208.5450  150.3970 N   0  0  0  0  0  0  0  0  0  0  0  0
  161.8310  207.9310  151.6580 C   0  0  2  0  0  0  0  0  0  0  0  0
  162.7350  206.8720  151.4890 O   0  0  0  0  0  1  0  0  0  0  0  0
  162.1630  208.1130  149.3300 N   0  0  0  0  0  2  0  0  0  0  0  0
  161.2680  207.5670  148.3270 C   0  0  0  0  0  2  0  0  0  0  0  0
  160.9590  205.1390  148.9310 N   0  0  0  0  0  2  0  0  0  0  0  0
  162.4170  205.7990  147.2280 O   0  0  0  0  0  0  0  0  0  0  0  0
  161.5800  206.1290  148.1090 C   0  0  0  0  0  0  0  0  0  0  0  0
  161.2190  203.7150  148.7780 C   0  0  0  0  0  2  0  0  0  0  0  0
  160.3980  202.9230  149.7770 C   0  0  2  0  0  3  0  0  0  0  0  0
  161.1340  201.7960  150.1820 O   0  0  0  0  0  0  0  0  0  0  0  0
  160.1140  201.5770  149.2390 C   0  0  0  0  0  2  0  0  0  0  0  0
  1  2  1  1  0  0  0
  1  4  1  0  0  0  0
  4  6  1  0  0  0  0
  4  3  2  0  0  0  0
  6  8  1  0  0  0  0
  6  5  1  1  0  0  0
  8  7  1  6  0  0  0
  9 10  1  0  0  0  0
  9  8  1  0  0  0  0
 10 12  1  0  0  0  0
 13 16  2  0  0  0  0
 13 17  1  0  0  0  0
 14 18  2  0  0  0  0
 15 13  1  0  0  0  0
 17 11  1  6  0  0  0
 17 12  1  0  0  0  0
 18 15  1  0  0  0  0
 18 10  1  0  0  0  0
 19  1  1  0  0  0  0
 20 22  1  0  0  0  0
 21 20  1  0  0  0  0
 21 22  1  0  0  0  0
 22 23  1  6  0  0  0
 22 19  1  0  0  0  0
 24 21  1  0  0  0  0
 25 24  1  0  0  0  0
 27 28  2  0  0  0  0
 28 25  1  0  0  0  0
 28 26  1  0  0  0  0
 29 26  1  0  0  0  0
 30 29  1  6  0  0  0
 30 31  1  0  0  0  0
 32 30  1  0  0  0  0
 32 31  1  0  0  0  0
M  END
>  <MODEL>
3

>  <REMARK>
 VINA RESULT:      -6.4      2.381      4.631
  Name = 
  12 active torsions:
  status: ('A' for Active; 'I' for Inactive)
    1  A    between atoms: N_1  and  C_5
    2  A    between atoms: C_2  and  O_20
    3  A    between atoms: C_2  and  C_27
    4  A    between atoms: C_4  and  C_30
    5  A    between atoms: C_5  and  C_22
    6  A    between atoms: N_7  and  N_11
    7  A    between atoms: N_7  and  C_31
    8  A    between atoms: N_9  and  C_30
    9  A    between atoms: C_14  and  O_20
   10  A    between atoms: C_19  and  C_22
   11  A    between atoms: C_19  and  C_27
   12  A    between atoms: C_28  and  C_31
                            x       y       z     vdW  Elec       q    Type
                         _______ _______ _______ _____ _____    ______ ____

>  <TORSDO>
F 12

$$$$
=
 OpenBabel11072410323D

 32 34  0  0  1  0  0  0  0  0999 V2000
  161.1390  208.6270  153.1470 C   0  0  2  0  0  3  0  0  0  0  0  0
  160.4880  209.7930  152.4220 C   0  0  0  0  0  1  0  0  0  0  0  0
  162.3740  207.9360  151.1600 C   0  0  0  0  0  2  0  0  0  0  0  0
  161.5790  207.5800  152.1710 C   0  0  0  0  0  0  0  0  0  0  0  0
  161.7880  205.6600  153.5700 O   0  0  0  0  0  1  0  0  0  0  0  0
  161.2090  206.1390  152.3910 C   0  0  2  0  0  3  0  0  0  0  0  0
  162.0480  204.0120  151.5900 O   0  0  0  0  0  1  0  0  0  0  0  0
  161.5910  205.2700  151.1910 C   0  0  1  0  0  3  0  0  0  0  0  0
  160.4570  205.1530  150.1720 C   0  0  0  0  0  2  0  0  0  0  0  0
  160.9460  204.9380  148.8130 N   0  0  0  0  0  0  0  0  0  0  0  0
  160.3230  206.2930  146.1950 O   0  0  0  0  0  1  0  0  0  0  0  0
  161.6620  206.0390  148.1690 C   0  0  0  0  0  2  0  0  0  0  0  0
  161.9430  204.5690  146.1690 C   0  0  0  0  0  0  0  0  0  0  0  0
  160.7490  202.6040  148.9600 O   0  0  0  0  0  0  0  0  0  0  0  0
  161.6200  203.4310  146.9710 N   0  0  0  0  0  2  0  0  0  0  0  0
  162.4740  204.4070  145.0390 O   0  0  0  0  0  0  0  0  0  0  0  0
  161.5980  205.9480  146.6420 C   0  0  1  0  0  3  0  0  0  0  0  0
  161.0830  203.6110  148.2800 C   0  0  0  0  0  0  0  0  0  0  0  0
  160.2370  208.0790  154.0690 O   0  0  0  0  0  0  0  0  0  0  0  0
  160.1440  207.8280  156.5140 C   0  0  0  0  0  2  0  0  0  0  0  0
  159.5250  209.1070  156.1040 N   0  0  0  0  0  0  0  0  0  0  0  0
  160.6450  208.5210  155.3370 C   0  0  2  0  0  0  0  0  0  0  0  0
  161.8510  209.2310  155.4300 O   0  0  0  0  0  1  0  0  0  0  0  0
  160.0130  210.0810  156.9880 N   0  0  0  0  0  2  0  0  0  0  0  0
  159.0700  211.1840  156.9580 C   0  0  0  0  0  2  0  0  0  0  0  0
  158.3360  212.7490  155.1230 N   0  0  0  0  0  2  0  0  0  0  0  0
  160.5900  212.2280  155.4570 O   0  0  0  0  0  0  0  0  0  0  0  0
  159.3920  212.0860  155.8200 C   0  0  0  0  0  0  0  0  0  0  0  0
  158.5760  213.6420  153.9990 C   0  0  0  0  0  2  0  0  0  0  0  0
  158.4600  212.8800  152.6920 C   0  0  2  0  0  3  0  0  0  0  0  0
  159.3020  213.4800  151.7390 O   0  0  0  0  0  0  0  0  0  0  0  0
  157.9300  213.7700  151.6390 C   0  0  0  0  0  2  0  0  0  0  0  0
  1  2  1  6  0  0  0
  1 19  1  0  0  0  0
  3  4  2  0  0  0  0
  4  6  1  0  0  0  0
  4  1  1  0  0  0  0
  6  5  1  1  0  0  0
  8  7  1  1  0  0  0
  8  6  1  0  0  0  0
  9  8  1  0  0  0  0
 10  9  1  0  0  0  0
 12 10  1  0  0  0  0
 13 17  1  0  0  0  0
 13 15  1  0  0  0  0
 15 18  1  0  0  0  0
 16 13  2  0  0  0  0
 17 11  1  1  0  0  0
 17 12  1  0  0  0  0
 18 10  1  0  0  0  0
 18 14  2  0  0  0  0
 19 22  1  0  0  0  0
 21 20  1  0  0  0  0
 21 24  1  0  0  0  0
 22 23  1  1  0  0  0
 22 21  1  0  0  0  0
 22 20  1  0  0  0  0
 25 24  1  0  0  0  0
 26 28  1  0  0  0  0
 27 28  2  0  0  0  0
 28 25  1  0  0  0  0
 29 26  1  0  0  0  0
 30 29  1  1  0  0  0
 31 30  1  0  0  0  0
 32 31  1  0  0  0  0
 32 30  1  0  0  0  0
M  END
>  <MODEL>
4

>  <REMARK>
 VINA RESULT:      -6.2      2.004      9.541
  Name = 
  12 active torsions:
  status: ('A' for Active; 'I' for Inactive)
    1  A    between atoms: N_1  and  C_5
    2  A    between atoms: C_2  and  O_20
    3  A    between atoms: C_2  and  C_27
    4  A    between atoms: C_4  and  C_30
    5  A    between atoms: C_5  and  C_22
    6  A    between atoms: N_7  and  N_11
    7  A    between atoms: N_7  and  C_31
    8  A    between atoms: N_9  and  C_30
    9  A    between atoms: C_14  and  O_20
   10  A    between atoms: C_19  and  C_22
   11  A    between atoms: C_19  and  C_27
   12  A    between atoms: C_28  and  C_31
                            x       y       z     vdW  Elec       q    Type
                         _______ _______ _______ _____ _____    ______ ____

>  <TORSDO>
F 12

$$$$
=
 OpenBabel11072410323D

 32 34  0  0  1  0  0  0  0  0999 V2000
  161.2730  206.0060  152.0370 C   0  0  2  0  0  3  0  0  0  0  0  0
  161.5960  205.8510  153.5130 C   0  0  0  0  0  1  0  0  0  0  0  0
  161.1990  203.5690  152.1140 C   0  0  0  0  0  2  0  0  0  0  0  0
  161.2420  204.6700  151.3610 C   0  0  0  0  0  0  0  0  0  0  0  0
  160.0980  205.3590  149.3850 O   0  0  0  0  0  1  0  0  0  0  0  0
  161.1600  204.5850  149.8620 C   0  0  2  0  0  3  0  0  0  0  0  0
  159.7360  202.8090  149.0300 O   0  0  0  0  0  1  0  0  0  0  0  0
  161.0480  203.1340  149.3860 C   0  0  1  0  0  3  0  0  0  0  0  0
  162.0280  202.8140  148.2580 C   0  0  0  0  0  2  0  0  0  0  0  0
  161.7700  203.5990  147.0540 N   0  0  0  0  0  0  0  0  0  0  0  0
  160.8050  206.4240  146.6420 O   0  0  0  0  0  1  0  0  0  0  0  0
  162.5670  204.8090  146.8520 C   0  0  0  0  0  2  0  0  0  0  0  0
  161.3280  205.1610  144.7110 C   0  0  0  0  0  0  0  0  0  0  0  0
  160.6420  201.8440  145.9780 O   0  0  0  0  0  0  0  0  0  0  0  0
  160.8940  203.8000  144.7490 N   0  0  0  0  0  2  0  0  0  0  0  0
  161.2220  205.8220  143.6450 O   0  0  0  0  0  0  0  0  0  0  0  0
  161.8540  205.8200  145.9490 C   0  0  1  0  0  3  0  0  0  0  0  0
  161.0770  203.0260  145.9330 C   0  0  0  0  0  0  0  0  0  0  0  0
  162.2250  206.8340  151.4270 O   0  0  0  0  0  0  0  0  0  0  0  0
  162.1020  208.9570  150.1930 C   0  0  0  0  0  2  0  0  0  0  0  0
  162.5200  209.1980  151.5900 N   0  0  0  0  0  0  0  0  0  0  0  0
  161.6120  208.0830  151.2470 C   0  0  2  0  0  0  0  0  0  0  0  0
  160.2950  208.2410  151.7030 O   0  0  0  0  0  1  0  0  0  0  0  0
  161.7740  210.2980  152.0400 N   0  0  0  0  0  2  0  0  0  0  0  0
  161.9630  210.3740  153.4770 C   0  0  0  0  0  2  0  0  0  0  0  0
  159.9340  211.8500  153.2310 N   0  0  0  0  0  2  0  0  0  0  0  0
  160.8670  211.3930  155.3250 O   0  0  0  0  0  0  0  0  0  0  0  0
  160.8940  211.2160  154.0780 C   0  0  0  0  0  0  0  0  0  0  0  0
  158.8640  212.6890  153.7480 C   0  0  0  0  0  2  0  0  0  0  0  0
  157.6480  211.8430  154.0760 C   0  0  2  0  0  3  0  0  0  0  0  0
  156.6030  212.6880  154.4910 O   0  0  0  0  0  0  0  0  0  0  0  0
  157.2970  212.0000  155.5020 C   0  0  0  0  0  2  0  0  0  0  0  0
  1  2  1  1  0  0  0
  4  1  1  0  0  0  0
  4  3  2  0  0  0  0
  6  5  1  1  0  0  0
  6  4  1  0  0  0  0
  8  7  1  6  0  0  0
  8  6  1  0  0  0  0
  9  8  1  0  0  0  0
 10  9  1  0  0  0  0
 12 10  1  0  0  0  0
 13 15  1  0  0  0  0
 13 17  1  0  0  0  0
 15 18  1  0  0  0  0
 16 13  2  0  0  0  0
 17 11  1  1  0  0  0
 17 12  1  0  0  0  0
 18 14  2  0  0  0  0
 18 10  1  0  0  0  0
 19  1  1  0  0  0  0
 20 22  1  0  0  0  0
 20 21  1  0  0  0  0
 21 24  1  0  0  0  0
 22 19  1  0  0  0  0
 22 21  1  0  0  0  0
 22 23  1  1  0  0  0
 24 25  1  0  0  0  0
 25 28  1  0  0  0  0
 26 29  1  0  0  0  0
 26 28  1  0  0  0  0
 28 27  2  0  0  0  0
 30 29  1  1  0  0  0
 30 31  1  0  0  0  0
 30 32  1  0  0  0  0
 31 32  1  0  0  0  0
M  END
>  <MODEL>
5

>  <REMARK>
 VINA RESULT:      -6.0      1.947      9.059
  Name = 
  12 active torsions:
  status: ('A' for Active; 'I' for Inactive)
    1  A    between atoms: N_1  and  C_5
    2  A    between atoms: C_2  and  O_20
    3  A    between atoms: C_2  and  C_27
    4  A    between atoms: C_4  and  C_30
    5  A    between atoms: C_5  and  C_22
    6  A    between atoms: N_7  and  N_11
    7  A    between atoms: N_7  and  C_31
    8  A    between atoms: N_9  and  C_30
    9  A    between atoms: C_14  and  O_20
   10  A    between atoms: C_19  and  C_22
   11  A    between atoms: C_19  and  C_27
   12  A    between atoms: C_28  and  C_31
                            x       y       z     vdW  Elec       q    Type
                         _______ _______ _______ _____ _____    ______ ____

>  <TORSDO>
F 12

$$$$
=
 OpenBabel11072410323D

 32 34  0  0  1  0  0  0  0  0999 V2000
  160.5690  208.1450  154.6300 C   0  0  2  0  0  3  0  0  0  0  0  0
  159.7570  207.2840  155.5820 C   0  0  0  0  0  1  0  0  0  0  0  0
  161.2130  205.9860  153.6960 C   0  0  0  0  0  2  0  0  0  0  0  0
  161.1600  207.3090  153.5370 C   0  0  0  0  0  0  0  0  0  0  0  0
  160.5840  208.7870  151.7550 O   0  0  0  0  0  1  0  0  0  0  0  0
  161.5900  207.9500  152.2450 C   0  0  2  0  0  3  0  0  0  0  0  0
  162.7470  205.8720  151.7820 O   0  0  0  0  0  1  0  0  0  0  0  0
  161.9990  206.9030  151.2070 C   0  0  1  0  0  3  0  0  0  0  0  0
  160.8010  206.3550  150.4300 C   0  0  0  0  0  2  0  0  0  0  0  0
  161.1870  205.7600  149.1540 N   0  0  0  0  0  0  0  0  0  0  0  0
  160.4660  206.4240  146.3040 O   0  0  0  0  0  1  0  0  0  0  0  0
  161.9170  206.6030  148.2070 C   0  0  0  0  0  2  0  0  0  0  0  0
  161.9870  204.6460  146.6550 C   0  0  0  0  0  0  0  0  0  0  0  0
  160.8780  203.5640  149.9220 O   0  0  0  0  0  0  0  0  0  0  0  0
  161.6580  203.7820  147.7450 N   0  0  0  0  0  2  0  0  0  0  0  0
  162.4330  204.1590  145.5840 O   0  0  0  0  0  0  0  0  0  0  0  0
  161.7480  206.1210  146.7630 C   0  0  1  0  0  3  0  0  0  0  0  0
  161.2190  204.3330  148.9840 C   0  0  0  0  0  0  0  0  0  0  0  0
  161.5850  208.8050  155.3350 O   0  0  0  0  0  0  0  0  0  0  0  0
  160.7760  211.0610  155.8840 C   0  0  0  0  0  2  0  0  0  0  0  0
  160.1050  210.5560  154.6670 N   0  0  0  0  0  0  0  0  0  0  0  0
  161.4920  210.1620  154.9920 C   0  0  2  0  0  0  0  0  0  0  0  0
  162.4660  210.6920  154.1340 O   0  0  0  0  0  1  0  0  0  0  0  0
  160.1150  211.6130  153.7450 N   0  0  0  0  0  2  0  0  0  0  0  0
  158.8530  211.5580  153.0290 C   0  0  0  0  0  2  0  0  0  0  0  0
  160.0140  212.9050  151.2420 N   0  0  0  0  0  2  0  0  0  0  0  0
  157.7690  213.2670  151.7810 O   0  0  0  0  0  0  0  0  0  0  0  0
  158.8260  212.6130  151.9810 C   0  0  0  0  0  0  0  0  0  0  0  0
  160.0620  213.9260  150.2060 C   0  0  0  0  0  2  0  0  0  0  0  0
  160.3940  213.2950  148.8660 C   0  0  2  0  0  3  0  0  0  0  0  0
  161.6110  212.5990  148.9780 O   0  0  0  0  0  0  0  0  0  0  0  0
  161.6580  213.8550  148.3480 C   0  0  0  0  0  2  0  0  0  0  0  0
  1 19  1  0  0  0  0
  1  2  1  1  0  0  0
  4  3  2  0  0  0  0
  4  1  1  0  0  0  0
  6  5  1  6  0  0  0
  6  4  1  0  0  0  0
  8  7  1  1  0  0  0
  8  6  1  0  0  0  0
  9  8  1  0  0  0  0
 10  9  1  0  0  0  0
 12 10  1  0  0  0  0
 13 17  1  0  0  0  0
 13 15  1  0  0  0  0
 15 18  1  0  0  0  0
 16 13  2  0  0  0  0
 17 11  1  1  0  0  0
 17 12  1  0  0  0  0
 18 10  1  0  0  0  0
 18 14  2  0  0  0  0
 21 22  1  0  0  0  0
 21 20  1  0  0  0  0
 22 23  1  6  0  0  0
 22 19  1  0  0  0  0
 22 20  1  0  0  0  0
 24 21  1  0  0  0  0
 25 24  1  0  0  0  0
 26 28  1  0  0  0  0
 27 28  2  0  0  0  0
 28 25  1  0  0  0  0
 29 26  1  0  0  0  0
 30 31  1  0  0  0  0
 30 29  1  1  0  0  0
 32 30  1  0  0  0  0
 32 31  1  0  0  0  0
M  END
>  <MODEL>
6

>  <REMARK>
 VINA RESULT:      -6.0      2.457      9.135
  Name = 
  12 active torsions:
  status: ('A' for Active; 'I' for Inactive)
    1  A    between atoms: N_1  and  C_5
    2  A    between atoms: C_2  and  O_20
    3  A    between atoms: C_2  and  C_27
    4  A    between atoms: C_4  and  C_30
    5  A    between atoms: C_5  and  C_22
    6  A    between atoms: N_7  and  N_11
    7  A    between atoms: N_7  and  C_31
    8  A    between atoms: N_9  and  C_30
    9  A    between atoms: C_14  and  O_20
   10  A    between atoms: C_19  and  C_22
   11  A    between atoms: C_19  and  C_27
   12  A    between atoms: C_28  and  C_31
                            x       y       z     vdW  Elec       q    Type
                         _______ _______ _______ _____ _____    ______ ____

>  <TORSDO>
F 12

$$$$
=
 OpenBabel11072410323D

 32 34  0  0  1  0  0  0  0  0999 V2000
  161.3010  207.2750  150.8540 C   0  0  2  0  0  3  0  0  0  0  0  0
  162.1200  207.9970  149.7980 C   0  0  0  0  0  1  0  0  0  0  0  0
  161.1780  207.4630  153.2830 C   0  0  0  0  0  2  0  0  0  0  0  0
  161.2190  208.0920  152.1070 C   0  0  0  0  0  0  0  0  0  0  0  0
  162.6140  210.0250  152.0340 O   0  0  0  0  0  1  0  0  0  0  0  0
  161.2850  209.5930  152.0350 C   0  0  2  0  0  3  0  0  0  0  0  0
  161.3070  211.0230  153.9920 O   0  0  0  0  0  1  0  0  0  0  0  0
  160.4880  210.2450  153.1680 C   0  0  1  0  0  3  0  0  0  0  0  0
  159.2930  211.0480  152.6530 C   0  0  0  0  0  2  0  0  0  0  0  0
  158.5380  211.6800  153.7310 N   0  0  0  0  0  0  0  0  0  0  0  0
  155.8340  211.0960  154.9270 O   0  0  0  0  0  1  0  0  0  0  0  0
  158.2220  210.8650  154.9050 C   0  0  0  0  0  2  0  0  0  0  0  0
  157.0840  212.8650  155.8760 C   0  0  0  0  0  0  0  0  0  0  0  0
  159.0000  213.8520  152.9730 O   0  0  0  0  0  0  0  0  0  0  0  0
  157.7590  213.6980  154.9310 N   0  0  0  0  0  2  0  0  0  0  0  0
  156.5240  213.3830  156.8780 O   0  0  0  0  0  0  0  0  0  0  0  0
  156.9900  211.3880  155.6490 C   0  0  1  0  0  3  0  0  0  0  0  0
  158.4540  213.1100  153.8330 C   0  0  0  0  0  0  0  0  0  0  0  0
  161.8750  206.0260  151.1290 O   0  0  0  0  0  0  0  0  0  0  0  0
  160.5860  204.1210  152.0010 C   0  0  0  0  0  2  0  0  0  0  0  0
  161.4100  203.7010  150.8470 N   0  0  0  0  0  0  0  0  0  0  0  0
  160.8650  205.0720  150.9350 C   0  0  2  0  0  0  0  0  0  0  0  0
  159.8570  205.3600  150.0030 O   0  0  0  0  0  1  0  0  0  0  0  0
  160.5800  202.9090  150.0390 N   0  0  0  0  0  2  0  0  0  0  0  0
  161.4520  202.1020  149.2050 C   0  0  0  0  0  2  0  0  0  0  0  0
  161.7330  203.7540  147.3210 N   0  0  0  0  0  2  0  0  0  0  0  0
  160.6770  201.6950  146.9940 O   0  0  0  0  0  0  0  0  0  0  0  0
  161.2700  202.4820  147.7780 C   0  0  0  0  0  0  0  0  0  0  0  0
  161.5860  204.1940  145.9410 C   0  0  0  0  0  2  0  0  0  0  0  0
  161.6010  205.7090  145.8710 C   0  0  2  0  0  3  0  0  0  0  0  0
  160.5800  206.2140  146.6950 O   0  0  0  0  0  0  0  0  0  0  0  0
  160.3250  206.1980  145.3130 C   0  0  0  0  0  2  0  0  0  0  0  0
  1  2  1  6  0  0  0
  1 19  1  0  0  0  0
  1  4  1  0  0  0  0
  4  3  2  0  0  0  0
  6  5  1  1  0  0  0
  6  4  1  0  0  0  0
  6  8  1  0  0  0  0
  8  7  1  6  0  0  0
  9  8  1  0  0  0  0
  9 10  1  0  0  0  0
 10 18  1  0  0  0  0
 10 12  1  0  0  0  0
 12 17  1  0  0  0  0
 13 16  2  0  0  0  0
 14 18  2  0  0  0  0
 15 13  1  0  0  0  0
 17 11  1  6  0  0  0
 17 13  1  0  0  0  0
 18 15  1  0  0  0  0
 21 22  1  0  0  0  0
 21 20  1  0  0  0  0
 22 23  1  6  0  0  0
 22 19  1  0  0  0  0
 22 20  1  0  0  0  0
 24 21  1  0  0  0  0
 25 24  1  0  0  0  0
 26 28  1  0  0  0  0
 27 28  2  0  0  0  0
 28 25  1  0  0  0  0
 29 26  1  0  0  0  0
 30 29  1  1  0  0  0
 30 31  1  0  0  0  0
 32 30  1  0  0  0  0
 32 31  1  0  0  0  0
M  END
>  <MODEL>
7

>  <REMARK>
 VINA RESULT:      -6.0      2.008      3.983
  Name = 
  12 active torsions:
  status: ('A' for Active; 'I' for Inactive)
    1  A    between atoms: N_1  and  C_5
    2  A    between atoms: C_2  and  O_20
    3  A    between atoms: C_2  and  C_27
    4  A    between atoms: C_4  and  C_30
    5  A    between atoms: C_5  and  C_22
    6  A    between atoms: N_7  and  N_11
    7  A    between atoms: N_7  and  C_31
    8  A    between atoms: N_9  and  C_30
    9  A    between atoms: C_14  and  O_20
   10  A    between atoms: C_19  and  C_22
   11  A    between atoms: C_19  and  C_27
   12  A    between atoms: C_28  and  C_31
                            x       y       z     vdW  Elec       q    Type
                         _______ _______ _______ _____ _____    ______ ____

>  <TORSDO>
F 12

$$$$
=
 OpenBabel11072410323D

 32 34  0  0  1  0  0  0  0  0999 V2000
  161.5060  207.0360  151.8530 C   0  0  2  0  0  3  0  0  0  0  0  0
  161.1750  205.5970  152.2100 C   0  0  0  0  0  1  0  0  0  0  0  0
  160.8290  207.4410  154.1610 C   0  0  0  0  0  2  0  0  0  0  0  0
  161.1090  207.9590  152.9640 C   0  0  0  0  0  0  0  0  0  0  0  0
  162.3350  209.8460  152.1740 O   0  0  0  0  0  1  0  0  0  0  0  0
  161.1260  209.4480  152.7510 C   0  0  2  0  0  3  0  0  0  0  0  0
  161.9560  210.1620  154.9130 O   0  0  0  0  0  1  0  0  0  0  0  0
  160.8550  210.2060  154.0530 C   0  0  1  0  0  3  0  0  0  0  0  0
  160.3970  211.6430  153.8070 C   0  0  0  0  0  2  0  0  0  0  0  0
  159.2030  211.9890  154.5730 N   0  0  0  0  0  0  0  0  0  0  0  0
  156.6730  213.4510  153.8370 O   0  0  0  0  0  1  0  0  0  0  0  0
  157.9270  211.4270  154.1280 C   0  0  0  0  0  2  0  0  0  0  0  0
  156.8420  212.6110  156.0420 C   0  0  0  0  0  0  0  0  0  0  0  0
  160.4350  212.7140  156.4340 O   0  0  0  0  0  0  0  0  0  0  0  0
  158.1220  212.7810  156.6520 N   0  0  0  0  0  2  0  0  0  0  0  0
  155.7970  212.7920  156.7200 O   0  0  0  0  0  0  0  0  0  0  0  0
  156.7380  212.2770  154.5850 C   0  0  1  0  0  3  0  0  0  0  0  0
  159.3080  212.5090  155.9080 C   0  0  0  0  0  0  0  0  0  0  0  0
  160.8480  207.3960  150.6690 O   0  0  0  0  0  0  0  0  0  0  0  0
  161.7560  208.6730  148.7740 C   0  0  0  0  0  2  0  0  0  0  0  0
  161.3090  207.3360  148.3270 N   0  0  0  0  0  0  0  0  0  0  0  0
  161.8410  207.5460  149.6900 C   0  0  2  0  0  0  0  0  0  0  0  0
  163.0920  206.9560  149.9250 O   0  0  0  0  0  1  0  0  0  0  0  0
  162.3220  206.8420  147.4910 N   0  0  0  0  0  2  0  0  0  0  0  0
  161.6640  206.1960  146.3710 C   0  0  0  0  0  2  0  0  0  0  0  0
  161.4480  204.1960  147.8910 N   0  0  0  0  0  2  0  0  0  0  0  0
  161.8630  203.9540  145.6040 O   0  0  0  0  0  0  0  0  0  0  0  0
  161.6530  204.7230  146.5790 C   0  0  0  0  0  0  0  0  0  0  0  0
  161.4290  202.7680  148.1700 C   0  0  0  0  0  2  0  0  0  0  0  0
  160.7980  202.5090  149.5250 C   0  0  2  0  0  3  0  0  0  0  0  0
  161.1040  201.1970  149.9270 O   0  0  0  0  0  0  0  0  0  0  0  0
  159.8120  201.4150  149.4180 C   0  0  0  0  0  2  0  0  0  0  0  0
  1  2  1  1  0  0  0
  1  4  1  0  0  0  0
  4  3  2  0  0  0  0
  6  5  1  1  0  0  0
  6  4  1  0  0  0  0
  6  8  1  0  0  0  0
  8  7  1  1  0  0  0
  9  8  1  0  0  0  0
  9 10  1  0  0  0  0
 10 18  1  0  0  0  0
 12 10  1  0  0  0  0
 12 17  1  0  0  0  0
 13 15  1  0  0  0  0
 13 16  2  0  0  0  0
 17 11  1  6  0  0  0
 17 13  1  0  0  0  0
 18 14  2  0  0  0  0
 18 15  1  0  0  0  0
 19  1  1  0  0  0  0
 20 22  1  0  0  0  0
 21 20  1  0  0  0  0
 21 22  1  0  0  0  0
 22 23  1  1  0  0  0
 22 19  1  0  0  0  0
 24 21  1  0  0  0  0
 25 28  1  0  0  0  0
 25 24  1  0  0  0  0
 26 29  1  0  0  0  0
 27 28  2  0  0  0  0
 28 26  1  0  0  0  0
 30 29  1  6  0  0  0
 30 31  1  0  0  0  0
 32 30  1  0  0  0  0
 32 31  1  0  0  0  0
M  END
>  <MODEL>
8

>  <REMARK>
 VINA RESULT:      -6.0      2.162      3.604
  Name = 
  12 active torsions:
  status: ('A' for Active; 'I' for Inactive)
    1  A    between atoms: N_1  and  C_5
    2  A    between atoms: C_2  and  O_20
    3  A    between atoms: C_2  and  C_27
    4  A    between atoms: C_4  and  C_30
    5  A    between atoms: C_5  and  C_22
    6  A    between atoms: N_7  and  N_11
    7  A    between atoms: N_7  and  C_31
    8  A    between atoms: N_9  and  C_30
    9  A    between atoms: C_14  and  O_20
   10  A    between atoms: C_19  and  C_22
   11  A    between atoms: C_19  and  C_27
   12  A    between atoms: C_28  and  C_31
                            x       y       z     vdW  Elec       q    Type
                         _______ _______ _______ _____ _____    ______ ____

>  <TORSDO>
F 12

$$$$
=
 OpenBabel11072410323D

 32 34  0  0  1  0  0  0  0  0999 V2000
  160.9050  207.0310  153.6570 C   0  0  2  0  0  3  0  0  0  0  0  0
  161.0600  205.5200  153.6530 C   0  0  0  0  0  1  0  0  0  0  0  0
  160.7510  208.8520  152.0410 C   0  0  0  0  0  2  0  0  0  0  0  0
  161.0880  207.5830  152.2770 C   0  0  0  0  0  0  0  0  0  0  0  0
  163.1070  206.6300  151.4390 O   0  0  0  0  0  1  0  0  0  0  0  0
  161.7330  206.7440  151.2070 C   0  0  2  0  0  3  0  0  0  0  0  0
  162.6220  207.4540  149.0680 O   0  0  0  0  0  1  0  0  0  0  0  0
  161.4480  207.2990  149.8100 C   0  0  1  0  0  3  0  0  0  0  0  0
  160.4160  206.4640  149.0510 C   0  0  0  0  0  2  0  0  0  0  0  0
  160.6840  205.0310  149.1370 N   0  0  0  0  0  0  0  0  0  0  0  0
  161.8680  203.3150  151.3140 O   0  0  0  0  0  1  0  0  0  0  0  0
  159.9850  204.2730  150.1760 C   0  0  0  0  0  2  0  0  0  0  0  0
  161.1490  202.2260  149.3410 C   0  0  0  0  0  0  0  0  0  0  0  0
  161.6060  204.9280  146.9820 O   0  0  0  0  0  0  0  0  0  0  0  0
  161.4660  202.9120  148.1280 N   0  0  0  0  0  2  0  0  0  0  0  0
  161.2620  200.9740  149.3990 O   0  0  0  0  0  0  0  0  0  0  0  0
  160.7400  202.9970  150.5590 C   0  0  1  0  0  3  0  0  0  0  0  0
  161.2720  204.3220  148.0350 C   0  0  0  0  0  0  0  0  0  0  0  0
  161.8380  207.6030  154.5320 O   0  0  0  0  0  0  0  0  0  0  0  0
  159.7750  207.4240  155.8600 C   0  0  0  0  0  2  0  0  0  0  0  0
  160.0440  208.8370  155.5130 N   0  0  0  0  0  0  0  0  0  0  0  0
  161.1510  207.8790  155.7240 C   0  0  2  0  0  0  0  0  0  0  0  0
  161.9070  208.1080  156.8820 O   0  0  0  0  0  1  0  0  0  0  0  0
  159.8260  209.5770  156.6850 N   0  0  0  0  0  2  0  0  0  0  0  0
  160.0020  210.9750  156.3360 C   0  0  0  0  0  2  0  0  0  0  0  0
  159.2600  211.9470  154.1310 N   0  0  0  0  0  2  0  0  0  0  0  0
  157.7170  211.3050  155.7650 O   0  0  0  0  0  0  0  0  0  0  0  0
  158.9210  211.3980  155.4060 C   0  0  0  0  0  0  0  0  0  0  0  0
  158.2570  212.3850  153.1720 C   0  0  0  0  0  2  0  0  0  0  0  0
  158.9080  212.6880  151.8360 C   0  0  2  0  0  3  0  0  0  0  0  0
  159.2360  214.0540  151.7880 O   0  0  0  0  0  0  0  0  0  0  0  0
  158.0850  213.6580  151.0860 C   0  0  0  0  0  2  0  0  0  0  0  0
  1  2  1  6  0  0  0
  1 19  1  0  0  0  0
  3  4  2  0  0  0  0
  4  1  1  0  0  0  0
  6  5  1  1  0  0  0
  6  4  1  0  0  0  0
  8  7  1  6  0  0  0
  8  6  1  0  0  0  0
  9 10  1  0  0  0  0
  9  8  1  0  0  0  0
 10 12  1  0  0  0  0
 12 17  1  0  0  0  0
 13 16  2  0  0  0  0
 13 17  1  0  0  0  0
 14 18  2  0  0  0  0
 15 13  1  0  0  0  0
 17 11  1  6  0  0  0
 18 15  1  0  0  0  0
 18 10  1  0  0  0  0
 19 22  1  0  0  0  0
 21 22  1  0  0  0  0
 21 20  1  0  0  0  0
 21 24  1  0  0  0  0
 22 20  1  0  0  0  0
 22 23  1  1  0  0  0
 25 24  1  0  0  0  0
 26 28  1  0  0  0  0
 28 27  2  0  0  0  0
 28 25  1  0  0  0  0
 29 26  1  0  0  0  0
 30 29  1  1  0  0  0
 31 30  1  0  0  0  0
 32 31  1  0  0  0  0
 32 30  1  0  0  0  0
M  END
>  <MODEL>
9

>  <REMARK>
 VINA RESULT:      -5.9      1.927      9.027
  Name = 
  12 active torsions:
  status: ('A' for Active; 'I' for Inactive)
    1  A    between atoms: N_1  and  C_5
    2  A    between atoms: C_2  and  O_20
    3  A    between atoms: C_2  and  C_27
    4  A    between atoms: C_4  and  C_30
    5  A    between atoms: C_5  and  C_22
    6  A    between atoms: N_7  and  N_11
    7  A    between atoms: N_7  and  C_31
    8  A    between atoms: N_9  and  C_30
    9  A    between atoms: C_14  and  O_20
   10  A    between atoms: C_19  and  C_22
   11  A    between atoms: C_19  and  C_27
   12  A    between atoms: C_28  and  C_31
                            x       y       z     vdW  Elec       q    Type
                         _______ _______ _______ _____ _____    ______ ____

>  <TORSDO>
F 12

$$$$
