=
 OpenBabel11072414483D

 45 49  0  0  1  0  0  0  0  0999 V2000
  161.2930  210.1920  151.0380 C   0  0  2  0  0  3  0  0  0  0  0  0
  161.8710  211.2400  148.7730 P   0  0  2  0  0  0  0  0  0  0  0  0
  160.7380  211.5540  147.8210 O   0  0  0  0  0  0  0  0  0  0  0  0
  162.2000  209.2710  150.2050 C   0  0  2  0  0  3  0  0  0  0  0  0
  163.2780  212.0590  148.3180 O   0  0  0  0  0  1  0  0  0  0  0  0
  162.1360  209.5720  148.8300 O   0  0  0  0  0  0  0  0  0  0  0  0
  161.4420  211.5900  150.4820 C   0  0  1  0  0  3  0  0  0  0  0  0
  160.5800  205.8690  149.8680 C   0  0  0  0  0  3  0  0  0  0  0  0
  161.8870  207.8280  150.4330 C   0  0  0  0  0  0  0  0  0  0  0  0
  161.2490  205.1220  150.8480 C   0  0  0  0  0  0  0  0  0  0  0  0
  162.5530  207.0890  151.4210 C   0  0  0  0  0  3  0  0  0  0  0  0
  162.2370  205.7440  151.6240 C   0  0  0  0  0  3  0  0  0  0  0  0
  160.8960  207.2140  149.6630 C   0  0  0  0  0  3  0  0  0  0  0  0
  160.9150  203.7010  151.0670 C   0  0  0  0  0  0  0  0  0  0  0  0
  161.1050  203.1750  152.1990 O   0  0  0  0  0  0  0  0  0  0  0  0
  160.3560  202.8660  149.9490 C   0  0  2  0  0  3  0  0  0  0  0  0
  159.6880  201.7000  150.5100 N   0  0  0  0  0  1  0  0  0  0  0  0
  161.4460  202.4340  148.9590 C   0  0  2  0  0  3  0  0  0  0  0  0
  161.8590  203.5790  148.0180 C   0  0  0  0  0  2  0  0  0  0  0  0
  161.0210  201.1600  148.2040 C   0  0  0  0  0  2  0  0  0  0  0  0
  160.8800  203.7550  146.8540 C   0  0  2  0  0  3  0  0  0  0  0  0
  161.2860  201.2350  146.7000 C   0  0  0  0  0  2  0  0  0  0  0  0
  160.5770  202.4510  146.1010 C   0  0  2  0  0  3  0  0  0  0  0  0
  161.5990  203.4280  145.5610 C   0  0  1  0  0  3  0  0  0  0  0  0
  160.9820  204.2240  144.4270 C   0  0  0  0  0  2  0  0  0  0  0  0
  161.3690  205.5620  144.5310 O   0  0  0  0  0  0  0  0  0  0  0  0
  160.7000  206.7980  146.3210 O   0  0  0  0  0  1  0  0  0  0  0  0
  160.2830  206.1950  145.1350 C   0  0  0  0  0  2  0  0  0  0  0  0
  159.8390  212.6750  151.9950 N   0  0  0  0  0  1  0  0  0  0  0  0
  160.1410  212.3930  150.6000 C   0  0  1  0  0  3  0  0  0  0  0  0
  160.2240  213.6850  149.8540 C   0  0  0  0  0  0  0  0  0  0  0  0
  159.1990  214.0740  149.0020 O   0  0  0  0  0  0  0  0  0  0  0  0
  161.2500  214.4060  149.9660 O   0  0  0  0  0  1  0  0  0  0  0  0
  161.6810  210.1650  152.3800 O   0  0  0  0  0  0  0  0  0  0  0  0
  160.6890  209.5590  152.9980 O   0  0  0  0  0  0  0  0  0  0  0  0
  161.6290  210.9200  154.7180 C   0  0  1  0  0  3  0  0  0  0  0  0
  159.8090  209.3130  155.2130 C   0  0  2  0  0  3  0  0  0  0  0  0
  161.0610  209.5440  154.3440 C   0  0  1  0  0  3  0  0  0  0  0  0
  160.5490  211.5140  155.5300 C   0  0  0  0  0  0  0  0  0  0  0  0
  160.5590  212.6950  155.9640 O   0  0  0  0  0  0  0  0  0  0  0  0
  158.2870  210.9150  156.5240 C   0  0  0  0  0  1  0  0  0  0  0  0
  159.4990  210.6070  155.7850 N   0  0  0  0  0  0  0  0  0  0  0  0
  162.7630  210.7530  155.5100 O   0  0  0  0  0  1  0  0  0  0  0  0
  160.1220  208.4200  156.2390 O   0  0  0  0  0  0  0  0  0  0  0  0
  159.4200  207.3400  155.9760 O   0  0  0  0  0  1  0  0  0  0  0  0
  1 34  1  1  0  0  0
  2  3  2  6  0  0  0
  2  6  1  0  0  0  0
  2  7  1  0  0  0  0
  4  9  1  6  0  0  0
  4  1  1  0  0  0  0
  5  2  1  0  0  0  0
  6  4  1  0  0  0  0
  7 30  1  6  0  0  0
  7  1  1  0  0  0  0
  8 10  1  0  0  0  0
  9 11  2  0  0  0  0
 10 14  1  0  0  0  0
 10 12  2  0  0  0  0
 11 12  1  0  0  0  0
 13  8  2  0  0  0  0
 13  9  1  0  0  0  0
 14 15  2  0  0  0  0
 16 17  1  1  0  0  0
 16 14  1  0  0  0  0
 18 16  1  6  0  0  0
 19 18  1  0  0  0  0
 20 18  1  0  0  0  0
 21 19  1  1  0  0  0
 22 20  1  0  0  0  0
 23 22  1  1  0  0  0
 23 21  1  0  0  0  0
 24 25  1  6  0  0  0
 24 23  1  0  0  0  0
 24 21  1  0  0  0  0
 25 26  1  0  0  0  0
 26 28  1  0  0  0  0
 28 27  1  0  0  0  0
 30 29  1  1  0  0  0
 31 33  1  0  0  0  0
 31 30  1  0  0  0  0
 32 31  2  0  0  0  0
 34 35  1  0  0  0  0
 36 43  1  1  0  0  0
 36 39  1  0  0  0  0
 37 42  1  0  0  0  0
 37 44  1  1  0  0  0
 38 35  1  6  0  0  0
 38 36  1  0  0  0  0
 38 37  1  0  0  0  0
 39 42  1  0  0  0  0
 39 40  2  0  0  0  0
 42 41  1  0  0  0  0
 45 44  1  0  0  0  0
M  END
>  <MODEL>
1

>  <REMARK>
 VINA RESULT:      -7.2      0.000      0.000
  Name = 
  13 active torsions:
  status: ('A' for Active; 'I' for Inactive)
    1  A    between atoms: C_1  and  O_7
    2  A    between atoms: C_4  and  C_17
    3  A    between atoms: C_4  and  C_24
    4  A    between atoms: O_5  and  C_10
    5  A    between atoms: O_6  and  O_7
    6  A    between atoms: O_6  and  C_19
    7  A    between atoms: C_12  and  C_23
    8  A    between atoms: C_14  and  C_17
    9  A    between atoms: C_18  and  O_31
   10  A    between atoms: C_21  and  CA_43
   11  A    between atoms: C_25  and  O_31
   12  A    between atoms: C_25  and  C_45
   13  A    between atoms: C_38  and  CA_43
                            x       y       z     vdW  Elec       q    Type
                         _______ _______ _______ _____ _____    ______ ____

>  <TORSDO>
F 13

$$$$
=
 OpenBabel11072414483D

 45 49  0  0  1  0  0  0  0  0999 V2000
  160.9540  211.5010  150.3460 C   0  0  2  0  0  3  0  0  0  0  0  0
  161.7800  212.1940  148.0220 P   0  0  2  0  0  0  0  0  0  0  0  0
  160.7880  212.1880  146.8790 O   0  0  0  0  0  0  0  0  0  0  0  0
  162.0670  210.5680  149.8410 C   0  0  2  0  0  3  0  0  0  0  0  0
  163.1560  213.0880  147.6150 O   0  0  0  0  0  1  0  0  0  0  0  0
  162.1940  210.6080  148.4390 O   0  0  0  0  0  0  0  0  0  0  0  0
  161.0530  212.7860  149.5540 C   0  0  1  0  0  3  0  0  0  0  0  0
  161.8170  207.5480  152.1070 C   0  0  0  0  0  3  0  0  0  0  0  0
  161.8630  209.1600  150.3000 C   0  0  0  0  0  0  0  0  0  0  0  0
  161.5140  206.5200  151.2020 C   0  0  0  0  0  0  0  0  0  0  0  0
  161.5710  208.1360  149.3890 C   0  0  0  0  0  3  0  0  0  0  0  0
  161.3940  206.8250  149.8380 C   0  0  0  0  0  3  0  0  0  0  0  0
  161.9920  208.8590  151.6590 C   0  0  0  0  0  3  0  0  0  0  0  0
  161.3300  205.1350  151.6730 C   0  0  0  0  0  0  0  0  0  0  0  0
  161.8710  204.7560  152.7500 O   0  0  0  0  0  0  0  0  0  0  0  0
  160.5090  204.1590  150.8780 C   0  0  2  0  0  3  0  0  0  0  0  0
  159.5980  203.4580  151.7710 N   0  0  0  0  0  1  0  0  0  0  0  0
  161.3890  203.1570  150.1180 C   0  0  2  0  0  3  0  0  0  0  0  0
  162.0920  203.8040  148.9120 C   0  0  0  0  0  2  0  0  0  0  0  0
  160.5830  201.9010  149.7400 C   0  0  0  0  0  2  0  0  0  0  0  0
  161.1730  203.9100  147.6930 C   0  0  2  0  0  3  0  0  0  0  0  0
  160.8090  201.4520  148.2960 C   0  0  0  0  0  2  0  0  0  0  0  0
  160.4720  202.5910  147.3320 C   0  0  2  0  0  3  0  0  0  0  0  0
  161.7200  203.0240  146.5920 C   0  0  1  0  0  3  0  0  0  0  0  0
  161.3310  203.5980  145.2430 C   0  0  0  0  0  2  0  0  0  0  0  0
  162.0870  204.7430  144.9870 O   0  0  0  0  0  0  0  0  0  0  0  0
  159.8930  205.3430  144.9000 O   0  0  0  0  0  1  0  0  0  0  0  0
  161.1760  205.6520  144.4490 C   0  0  0  0  0  2  0  0  0  0  0  0
  158.8050  212.5250  148.5960 N   0  0  0  0  0  1  0  0  0  0  0  0
  159.6780  213.4270  149.3330 C   0  0  1  0  0  3  0  0  0  0  0  0
  159.0230  213.7790  150.6300 C   0  0  0  0  0  0  0  0  0  0  0  0
  159.7310  214.4530  151.6160 O   0  0  0  0  0  1  0  0  0  0  0  0
  157.8350  213.4260  150.8460 O   0  0  0  0  0  0  0  0  0  0  0  0
  161.1240  211.7620  151.7070 O   0  0  0  0  0  0  0  0  0  0  0  0
  160.0410  211.2730  152.2740 O   0  0  0  0  0  0  0  0  0  0  0  0
  158.6500  212.0090  154.0690 C   0  0  1  0  0  3  0  0  0  0  0  0
  160.6730  210.6430  154.4980 C   0  0  2  0  0  3  0  0  0  0  0  0
  160.0830  211.7400  153.5900 C   0  0  1  0  0  3  0  0  0  0  0  0
  158.3960  210.8870  154.9950 C   0  0  0  0  0  0  0  0  0  0  0  0
  157.2860  210.6630  155.5440 O   0  0  0  0  0  0  0  0  0  0  0  0
  159.5870  208.9010  156.0440 C   0  0  0  0  0  1  0  0  0  0  0  0
  159.5410  210.0930  155.2130 N   0  0  0  0  0  0  0  0  0  0  0  0
  158.6170  213.2080  154.7780 O   0  0  0  0  0  1  0  0  0  0  0  0
  161.5530  211.2270  155.4110 O   0  0  0  0  0  0  0  0  0  0  0  0
  162.7280  210.7090  155.1280 O   0  0  0  0  0  1  0  0  0  0  0  0
  1 34  1  1  0  0  0
  2  3  2  6  0  0  0
  2  6  1  0  0  0  0
  2  7  1  0  0  0  0
  4  9  1  6  0  0  0
  4  1  1  0  0  0  0
  5  2  1  0  0  0  0
  6  4  1  0  0  0  0
  7 30  1  6  0  0  0
  7  1  1  0  0  0  0
  9 13  2  0  0  0  0
 10 14  1  0  0  0  0
 10  8  2  0  0  0  0
 11 12  2  0  0  0  0
 11  9  1  0  0  0  0
 12 10  1  0  0  0  0
 13  8  1  0  0  0  0
 14 15  2  0  0  0  0
 16 14  1  0  0  0  0
 16 17  1  1  0  0  0
 18 16  1  6  0  0  0
 19 18  1  0  0  0  0
 20 18  1  0  0  0  0
 21 19  1  1  0  0  0
 22 20  1  0  0  0  0
 23 21  1  0  0  0  0
 23 22  1  1  0  0  0
 24 25  1  6  0  0  0
 24 23  1  0  0  0  0
 24 21  1  0  0  0  0
 26 25  1  0  0  0  0
 28 27  1  0  0  0  0
 28 26  1  0  0  0  0
 30 29  1  1  0  0  0
 30 31  1  0  0  0  0
 31 33  2  0  0  0  0
 31 32  1  0  0  0  0
 34 35  1  0  0  0  0
 36 43  1  1  0  0  0
 36 39  1  0  0  0  0
 37 42  1  0  0  0  0
 37 44  1  1  0  0  0
 38 35  1  6  0  0  0
 38 36  1  0  0  0  0
 38 37  1  0  0  0  0
 39 42  1  0  0  0  0
 39 40  2  0  0  0  0
 42 41  1  0  0  0  0
 45 44  1  0  0  0  0
M  END
>  <MODEL>
2

>  <REMARK>
 VINA RESULT:      -5.5      1.573      2.254
  Name = 
  13 active torsions:
  status: ('A' for Active; 'I' for Inactive)
    1  A    between atoms: C_1  and  O_7
    2  A    between atoms: C_4  and  C_17
    3  A    between atoms: C_4  and  C_24
    4  A    between atoms: O_5  and  C_10
    5  A    between atoms: O_6  and  O_7
    6  A    between atoms: O_6  and  C_19
    7  A    between atoms: C_12  and  C_23
    8  A    between atoms: C_14  and  C_17
    9  A    between atoms: C_18  and  O_31
   10  A    between atoms: C_21  and  CA_43
   11  A    between atoms: C_25  and  O_31
   12  A    between atoms: C_25  and  C_45
   13  A    between atoms: C_38  and  CA_43
                            x       y       z     vdW  Elec       q    Type
                         _______ _______ _______ _____ _____    ______ ____

>  <TORSDO>
F 13

$$$$
=
 OpenBabel11072414483D

 45 49  0  0  1  0  0  0  0  0999 V2000
  160.4990  209.6000  154.2200 C   0  0  2  0  0  3  0  0  0  0  0  0
  161.0390  208.0850  156.2140 P   0  0  2  0  0  0  0  0  0  0  0  0
  162.3970  208.2200  156.8680 O   0  0  0  0  0  0  0  0  0  0  0  0
  160.4500  208.1140  153.8290 C   0  0  2  0  0  3  0  0  0  0  0  0
  159.9710  207.2470  157.2220 O   0  0  0  0  0  1  0  0  0  0  0  0
  161.1890  207.3100  154.7190 O   0  0  0  0  0  0  0  0  0  0  0  0
  160.3560  209.6720  155.7240 C   0  0  1  0  0  3  0  0  0  0  0  0
  161.0760  206.4440  150.4910 C   0  0  0  0  0  3  0  0  0  0  0  0
  160.9160  207.8930  152.4260 C   0  0  0  0  0  0  0  0  0  0  0  0
  161.7970  207.4260  149.7980 C   0  0  0  0  0  0  0  0  0  0  0  0
  161.6460  208.8750  151.7420 C   0  0  0  0  0  3  0  0  0  0  0  0
  162.0810  208.6430  150.4340 C   0  0  0  0  0  3  0  0  0  0  0  0
  160.6390  206.6760  151.7980 C   0  0  0  0  0  3  0  0  0  0  0  0
  162.2610  207.1830  148.4180 C   0  0  0  0  0  0  0  0  0  0  0  0
  163.2460  207.8260  147.9600 O   0  0  0  0  0  0  0  0  0  0  0  0
  161.5650  206.1780  147.5440 C   0  0  2  0  0  3  0  0  0  0  0  0
  160.1360  206.2110  147.8200 N   0  0  0  0  0  1  0  0  0  0  0  0
  162.1170  204.7610  147.7520 C   0  0  2  0  0  3  0  0  0  0  0  0
  162.2410  203.9890  146.4280 C   0  0  0  0  0  2  0  0  0  0  0  0
  161.2940  204.0060  148.8130 C   0  0  0  0  0  2  0  0  0  0  0  0
  160.9050  203.3950  145.9760 C   0  0  2  0  0  3  0  0  0  0  0  0
  160.9450  202.5760  148.3980 C   0  0  0  0  0  2  0  0  0  0  0  0
  160.1890  202.5850  147.0680 C   0  0  2  0  0  3  0  0  0  0  0  0
  161.0090  201.8830  146.0060 C   0  0  1  0  0  3  0  0  0  0  0  0
  160.0810  201.2920  144.9630 C   0  0  0  0  0  2  0  0  0  0  0  0
  159.9940  199.9100  145.1440 O   0  0  0  0  0  0  0  0  0  0  0  0
  161.3110  198.1440  145.7150 O   0  0  0  0  0  1  0  0  0  0  0  0
  161.2920  199.5160  145.4670 C   0  0  0  0  0  2  0  0  0  0  0  0
  162.0600  211.3980  155.3290 N   0  0  0  0  0  1  0  0  0  0  0  0
  161.1430  210.8490  156.3150 C   0  0  1  0  0  3  0  0  0  0  0  0
  160.2300  211.9370  156.7840 C   0  0  0  0  0  0  0  0  0  0  0  0
  160.7480  213.1330  157.2610 O   0  0  0  0  0  1  0  0  0  0  0  0
  158.9860  211.7500  156.7860 O   0  0  0  0  0  0  0  0  0  0  0  0
  159.4550  210.2950  153.6050 O   0  0  0  0  0  0  0  0  0  0  0  0
  159.9600  210.7020  152.4590 O   0  0  0  0  0  0  0  0  0  0  0  0
  159.8160  212.6830  151.1350 C   0  0  1  0  0  3  0  0  0  0  0  0
  158.7430  212.5570  153.3660 C   0  0  2  0  0  3  0  0  0  0  0  0
  159.9650  212.0960  152.5460 C   0  0  1  0  0  3  0  0  0  0  0  0
  158.4250  213.1780  151.1290 C   0  0  0  0  0  0  0  0  0  0  0  0
  157.8490  213.6520  150.1150 O   0  0  0  0  0  0  0  0  0  0  0  0
  156.4320  213.4490  152.6830 C   0  0  0  0  0  1  0  0  0  0  0  0
  157.8060  213.0760  152.3920 N   0  0  0  0  0  0  0  0  0  0  0  0
  160.6890  213.7590  150.9880 O   0  0  0  0  0  1  0  0  0  0  0  0
  159.1290  213.5860  154.2260 O   0  0  0  0  0  0  0  0  0  0  0  0
  158.0030  214.0750  154.6980 O   0  0  0  0  0  1  0  0  0  0  0  0
  1 34  1  6  0  0  0
  1  7  1  0  0  0  0
  2  3  2  1  0  0  0
  2  5  1  0  0  0  0
  4  9  1  6  0  0  0
  4  1  1  0  0  0  0
  4  6  1  0  0  0  0
  6  2  1  0  0  0  0
  7  2  1  0  0  0  0
  7 30  1  1  0  0  0
  8 13  1  0  0  0  0
 10 12  1  0  0  0  0
 10  8  2  0  0  0  0
 11  9  1  0  0  0  0
 12 11  2  0  0  0  0
 13  9  2  0  0  0  0
 14 10  1  0  0  0  0
 15 14  2  0  0  0  0
 16 17  1  1  0  0  0
 16 14  1  0  0  0  0
 18 16  1  6  0  0  0
 18 20  1  0  0  0  0
 19 18  1  0  0  0  0
 21 24  1  0  0  0  0
 21 19  1  1  0  0  0
 21 23  1  0  0  0  0
 22 20  1  0  0  0  0
 23 22  1  1  0  0  0
 24 25  1  6  0  0  0
 24 23  1  0  0  0  0
 25 26  1  0  0  0  0
 26 28  1  0  0  0  0
 28 27  1  0  0  0  0
 30 29  1  6  0  0  0
 30 31  1  0  0  0  0
 31 33  2  0  0  0  0
 31 32  1  0  0  0  0
 35 34  1  0  0  0  0
 36 43  1  1  0  0  0
 36 38  1  0  0  0  0
 37 44  1  1  0  0  0
 38 35  1  6  0  0  0
 38 37  1  0  0  0  0
 39 36  1  0  0  0  0
 39 42  1  0  0  0  0
 40 39  2  0  0  0  0
 42 41  1  0  0  0  0
 42 37  1  0  0  0  0
 44 45  1  0  0  0  0
M  END
>  <MODEL>
3

>  <REMARK>
 VINA RESULT:      -4.7      2.684      5.230
  Name = 
  13 active torsions:
  status: ('A' for Active; 'I' for Inactive)
    1  A    between atoms: C_1  and  O_7
    2  A    between atoms: C_4  and  C_17
    3  A    between atoms: C_4  and  C_24
    4  A    between atoms: O_5  and  C_10
    5  A    between atoms: O_6  and  O_7
    6  A    between atoms: O_6  and  C_19
    7  A    between atoms: C_12  and  C_23
    8  A    between atoms: C_14  and  C_17
    9  A    between atoms: C_18  and  O_31
   10  A    between atoms: C_21  and  CA_43
   11  A    between atoms: C_25  and  O_31
   12  A    between atoms: C_25  and  C_45
   13  A    between atoms: C_38  and  CA_43
                            x       y       z     vdW  Elec       q    Type
                         _______ _______ _______ _____ _____    ______ ____

>  <TORSDO>
F 13

$$$$
=
 OpenBabel11072414483D

 45 49  0  0  1  0  0  0  0  0999 V2000
  161.6670  207.0010  149.7460 C   0  0  2  0  0  3  0  0  0  0  0  0
  161.8920  206.3480  152.2130 P   0  0  2  0  0  0  0  0  0  0  0  0
  160.6270  206.1450  153.0170 O   0  0  0  0  0  1  0  0  0  0  0  0
  162.4160  208.0780  150.5480 C   0  0  2  0  0  3  0  0  0  0  0  0
  163.2210  205.6690  153.0080 O   0  0  0  0  0  0  0  0  0  0  0  0
  162.1390  207.9960  151.9270 O   0  0  0  0  0  0  0  0  0  0  0  0
  161.7460  205.7150  150.5390 C   0  0  1  0  0  3  0  0  0  0  0  0
  161.3230  211.6990  150.4710 C   0  0  0  0  0  3  0  0  0  0  0  0
  162.1220  209.4530  150.0430 C   0  0  0  0  0  0  0  0  0  0  0  0
  161.5310  212.0440  149.1270 C   0  0  0  0  0  0  0  0  0  0  0  0
  162.3220  209.7880  148.6970 C   0  0  0  0  0  3  0  0  0  0  0  0
  162.0310  211.0770  148.2440 C   0  0  0  0  0  3  0  0  0  0  0  0
  161.6160  210.4110  150.9250 C   0  0  0  0  0  3  0  0  0  0  0  0
  161.2210  213.4040  148.6450 C   0  0  0  0  0  0  0  0  0  0  0  0
  162.1460  214.2530  148.5130 O   0  0  0  0  0  0  0  0  0  0  0  0
  159.8090  213.7930  148.3140 C   0  0  2  0  0  3  0  0  0  0  0  0
  159.0510  213.9430  149.5470 N   0  0  0  0  0  1  0  0  0  0  0  0
  159.1340  212.7670  147.3930 C   0  0  2  0  0  3  0  0  0  0  0  0
  159.9030  212.5800  146.0740 C   0  0  0  0  0  2  0  0  0  0  0  0
  157.6500  213.1220  147.1770 C   0  0  0  0  0  2  0  0  0  0  0  0
  159.5940  213.6830  145.0600 C   0  0  2  0  0  3  0  0  0  0  0  0
  157.2140  213.0190  145.7150 C   0  0  0  0  0  2  0  0  0  0  0  0
  158.0910  213.9150  144.8400 C   0  0  2  0  0  3  0  0  0  0  0  0
  158.8870  213.0660  143.8700 C   0  0  1  0  0  3  0  0  0  0  0  0
  159.1920  213.8780  142.6260 C   0  0  0  0  0  2  0  0  0  0  0  0
  160.5670  213.8640  142.3850 O   0  0  0  0  0  0  0  0  0  0  0  0
  162.0400  212.1370  142.5470 O   0  0  0  0  0  1  0  0  0  0  0  0
  160.8390  212.5590  141.9770 C   0  0  0  0  0  2  0  0  0  0  0  0
  159.8320  205.1730  149.0960 N   0  0  0  0  0  1  0  0  0  0  0  0
  160.4920  204.8530  150.3530 C   0  0  1  0  0  3  0  0  0  0  0  0
  160.8230  203.3950  150.3660 C   0  0  0  0  0  0  0  0  0  0  0  0
  161.2710  202.7850  151.5300 O   0  0  0  0  0  1  0  0  0  0  0  0
  160.7350  202.7250  149.3040 O   0  0  0  0  0  0  0  0  0  0  0  0
  162.2630  206.8300  148.4950 O   0  0  0  0  0  0  0  0  0  0  0  0
  161.2520  206.6500  147.6700 O   0  0  0  0  0  0  0  0  0  0  0  0
  162.4720  204.8120  146.7600 C   0  0  1  0  0  3  0  0  0  0  0  0
  160.7300  205.9720  145.4320 C   0  0  2  0  0  3  0  0  0  0  0  0
  161.8320  206.1810  146.4900 C   0  0  1  0  0  3  0  0  0  0  0  0
  161.5420  203.8760  146.0960 C   0  0  0  0  0  0  0  0  0  0  0  0
  161.6370  202.6230  146.1590 O   0  0  0  0  0  0  0  0  0  0  0  0
  159.4570  203.8840  144.6420 C   0  0  0  0  0  1  0  0  0  0  0  0
  160.5330  204.5390  145.3670 N   0  0  0  0  0  0  0  0  0  0  0  0
  163.7140  204.7500  146.1320 O   0  0  0  0  0  1  0  0  0  0  0  0
  161.1890  206.4290  144.1950 O   0  0  0  0  0  0  0  0  0  0  0  0
  161.5760  205.3470  143.5560 O   0  0  0  0  0  1  0  0  0  0  0  0
  1 34  1  6  0  0  0
  1  7  1  0  0  0  0
  1  4  1  0  0  0  0
  2  5  2  1  0  0  0
  2  3  1  0  0  0  0
  4  9  1  6  0  0  0
  4  6  1  0  0  0  0
  6  2  1  0  0  0  0
  7 30  1  1  0  0  0
  7  2  1  0  0  0  0
  8 13  1  0  0  0  0
  9 13  2  0  0  0  0
 10  8  2  0  0  0  0
 11  9  1  0  0  0  0
 12 11  2  0  0  0  0
 12 10  1  0  0  0  0
 14 10  1  0  0  0  0
 15 14  2  0  0  0  0
 16 14  1  0  0  0  0
 16 17  1  1  0  0  0
 18 16  1  6  0  0  0
 19 18  1  0  0  0  0
 20 18  1  0  0  0  0
 21 19  1  1  0  0  0
 22 20  1  0  0  0  0
 23 21  1  0  0  0  0
 23 22  1  1  0  0  0
 24 25  1  6  0  0  0
 24 23  1  0  0  0  0
 24 21  1  0  0  0  0
 26 25  1  0  0  0  0
 28 26  1  0  0  0  0
 28 27  1  0  0  0  0
 30 29  1  6  0  0  0
 30 31  1  0  0  0  0
 31 32  1  0  0  0  0
 33 31  2  0  0  0  0
 35 34  1  0  0  0  0
 36 43  1  6  0  0  0
 37 44  1  6  0  0  0
 37 38  1  0  0  0  0
 38 36  1  0  0  0  0
 38 35  1  1  0  0  0
 39 40  2  0  0  0  0
 39 36  1  0  0  0  0
 41 42  1  0  0  0  0
 42 37  1  0  0  0  0
 42 39  1  0  0  0  0
 45 44  1  0  0  0  0
M  END
>  <MODEL>
4

>  <REMARK>
 VINA RESULT:      -4.7      3.390      9.411
  Name = 
  13 active torsions:
  status: ('A' for Active; 'I' for Inactive)
    1  A    between atoms: C_1  and  O_7
    2  A    between atoms: C_4  and  C_17
    3  A    between atoms: C_4  and  C_24
    4  A    between atoms: O_5  and  C_10
    5  A    between atoms: O_6  and  O_7
    6  A    between atoms: O_6  and  C_19
    7  A    between atoms: C_12  and  C_23
    8  A    between atoms: C_14  and  C_17
    9  A    between atoms: C_18  and  O_31
   10  A    between atoms: C_21  and  CA_43
   11  A    between atoms: C_25  and  O_31
   12  A    between atoms: C_25  and  C_45
   13  A    between atoms: C_38  and  CA_43
                            x       y       z     vdW  Elec       q    Type
                         _______ _______ _______ _____ _____    ______ ____

>  <TORSDO>
F 13

$$$$
=
 OpenBabel11072414483D

 45 49  0  0  1  0  0  0  0  0999 V2000
  160.6870  209.2750  154.2090 C   0  0  2  0  0  3  0  0  0  0  0  0
  161.2930  207.7470  156.1730 P   0  0  2  0  0  0  0  0  0  0  0  0
  162.6960  207.8240  156.7330 O   0  0  0  0  0  0  0  0  0  0  0  0
  160.5460  207.7910  153.8330 C   0  0  2  0  0  3  0  0  0  0  0  0
  160.2590  206.9630  157.2580 O   0  0  0  0  0  1  0  0  0  0  0  0
  161.3060  206.9590  154.6780 O   0  0  0  0  0  0  0  0  0  0  0  0
  160.6500  209.3610  155.7190 C   0  0  1  0  0  3  0  0  0  0  0  0
  161.5830  208.4140  150.2480 C   0  0  0  0  0  3  0  0  0  0  0  0
  160.9050  207.5430  152.4040 C   0  0  0  0  0  0  0  0  0  0  0  0
  161.5620  207.1210  149.7030 C   0  0  0  0  0  0  0  0  0  0  0  0
  160.8720  206.2500  151.8630 C   0  0  0  0  0  3  0  0  0  0  0  0
  161.2020  206.0410  150.5220 C   0  0  0  0  0  3  0  0  0  0  0  0
  161.2550  208.6230  151.5900 C   0  0  0  0  0  3  0  0  0  0  0  0
  161.9060  206.8990  148.2860 C   0  0  0  0  0  0  0  0  0  0  0  0
  161.9180  207.8690  147.4780 O   0  0  0  0  0  0  0  0  0  0  0  0
  162.2380  205.5200  147.7880 C   0  0  2  0  0  3  0  0  0  0  0  0
  163.1930  205.6230  146.6940 N   0  0  0  0  0  1  0  0  0  0  0  0
  160.9840  204.7600  147.3340 C   0  0  2  0  0  3  0  0  0  0  0  0
  160.7690  203.4670  148.1380 C   0  0  0  0  0  2  0  0  0  0  0  0
  161.0120  204.5220  145.8120 C   0  0  0  0  0  2  0  0  0  0  0  0
  161.6420  202.3170  147.6310 C   0  0  2  0  0  3  0  0  0  0  0  0
  160.6270  203.0970  145.4180 C   0  0  0  0  0  2  0  0  0  0  0  0
  161.5460  202.0920  146.1150 C   0  0  2  0  0  3  0  0  0  0  0  0
  160.7420  201.2350  147.0690 C   0  0  1  0  0  3  0  0  0  0  0  0
  161.4180  199.8860  147.2240 C   0  0  0  0  0  2  0  0  0  0  0  0
  161.9280  199.4740  145.9910 O   0  0  0  0  0  0  0  0  0  0  0  0
  161.1570  197.9370  144.5010 O   0  0  0  0  0  1  0  0  0  0  0  0
  161.4700  198.1660  145.8410 C   0  0  0  0  0  2  0  0  0  0  0  0
  162.3680  211.0350  155.1860 N   0  0  0  0  0  1  0  0  0  0  0  0
  161.5260  210.5030  156.2460 C   0  0  1  0  0  3  0  0  0  0  0  0
  160.6980  211.6150  156.8070 C   0  0  0  0  0  0  0  0  0  0  0  0
  161.2070  212.9040  156.8810 O   0  0  0  0  0  0  0  0  0  0  0  0
  159.5470  211.3710  157.2540 O   0  0  0  0  0  1  0  0  0  0  0  0
  159.6360  210.0140  153.6610 O   0  0  0  0  0  0  0  0  0  0  0  0
  158.8500  210.2780  154.6840 O   0  0  0  0  0  0  0  0  0  0  0  0
  156.5890  210.9580  155.0320 C   0  0  1  0  0  3  0  0  0  0  0  0
  158.2990  212.5670  154.2400 C   0  0  2  0  0  3  0  0  0  0  0  0
  157.8460  211.0960  154.1620 C   0  0  1  0  0  3  0  0  0  0  0  0
  156.5610  212.2330  155.7760 C   0  0  0  0  0  0  0  0  0  0  0  0
  155.7360  212.5000  156.6880 O   0  0  0  0  0  0  0  0  0  0  0  0
  157.7940  214.4510  155.9130 C   0  0  0  0  0  1  0  0  0  0  0  0
  157.5550  213.1350  155.3450 N   0  0  0  0  0  0  0  0  0  0  0  0
  155.4650  210.8770  154.2120 O   0  0  0  0  0  1  0  0  0  0  0  0
  157.9400  213.2210  153.0600 O   0  0  0  0  0  0  0  0  0  0  0  0
  158.8790  212.9010  152.1960 O   0  0  0  0  0  1  0  0  0  0  0  0
  1 34  1  6  0  0  0
  1  7  1  0  0  0  0
  2  3  2  1  0  0  0
  2  5  1  0  0  0  0
  4  9  1  6  0  0  0
  4  1  1  0  0  0  0
  4  6  1  0  0  0  0
  6  2  1  0  0  0  0
  7  2  1  0  0  0  0
  7 30  1  1  0  0  0
  8 13  1  0  0  0  0
 10  8  2  0  0  0  0
 10 12  1  0  0  0  0
 11  9  1  0  0  0  0
 12 11  2  0  0  0  0
 13  9  2  0  0  0  0
 14 10  1  0  0  0  0
 15 14  2  0  0  0  0
 16 17  1  6  0  0  0
 16 14  1  0  0  0  0
 18 16  1  1  0  0  0
 18 19  1  0  0  0  0
 20 18  1  0  0  0  0
 21 19  1  6  0  0  0
 22 20  1  0  0  0  0
 23 22  1  6  0  0  0
 23 24  1  0  0  0  0
 23 21  1  0  0  0  0
 24 25  1  1  0  0  0
 24 21  1  0  0  0  0
 26 25  1  0  0  0  0
 27 28  1  0  0  0  0
 28 26  1  0  0  0  0
 30 29  1  6  0  0  0
 30 31  1  0  0  0  0
 31 32  2  0  0  0  0
 31 33  1  0  0  0  0
 34 35  1  0  0  0  0
 36 43  1  6  0  0  0
 36 39  1  0  0  0  0
 37 44  1  6  0  0  0
 37 42  1  0  0  0  0
 38 37  1  0  0  0  0
 38 35  1  1  0  0  0
 38 36  1  0  0  0  0
 39 40  2  0  0  0  0
 42 39  1  0  0  0  0
 42 41  1  0  0  0  0
 45 44  1  0  0  0  0
M  END
>  <MODEL>
5

>  <REMARK>
 VINA RESULT:      -4.4      3.074      5.381
  Name = 
  13 active torsions:
  status: ('A' for Active; 'I' for Inactive)
    1  A    between atoms: C_1  and  O_7
    2  A    between atoms: C_4  and  C_17
    3  A    between atoms: C_4  and  C_24
    4  A    between atoms: O_5  and  C_10
    5  A    between atoms: O_6  and  O_7
    6  A    between atoms: O_6  and  C_19
    7  A    between atoms: C_12  and  C_23
    8  A    between atoms: C_14  and  C_17
    9  A    between atoms: C_18  and  O_31
   10  A    between atoms: C_21  and  CA_43
   11  A    between atoms: C_25  and  O_31
   12  A    between atoms: C_25  and  C_45
   13  A    between atoms: C_38  and  CA_43
                            x       y       z     vdW  Elec       q    Type
                         _______ _______ _______ _____ _____    ______ ____

>  <TORSDO>
F 13

$$$$
=
 OpenBabel11072414483D

 45 49  0  0  1  0  0  0  0  0999 V2000
  161.2040  209.2420  153.3280 C   0  0  2  0  0  3  0  0  0  0  0  0
  160.7160  207.5960  155.2290 P   0  0  2  0  0  0  0  0  0  0  0  0
  161.8850  207.0450  156.0160 O   0  0  0  0  0  0  0  0  0  0  0  0
  160.5080  207.9720  152.8100 C   0  0  2  0  0  3  0  0  0  0  0  0
  159.2650  207.3440  156.0600 O   0  0  0  0  0  1  0  0  0  0  0  0
  160.6630  206.8870  153.6950 O   0  0  0  0  0  0  0  0  0  0  0  0
  160.9300  209.3300  154.8120 C   0  0  1  0  0  3  0  0  0  0  0  0
  161.7080  208.2720  149.2340 C   0  0  0  0  0  3  0  0  0  0  0  0
  160.9810  207.5960  151.4440 C   0  0  0  0  0  0  0  0  0  0  0  0
  161.8480  206.9300  148.8540 C   0  0  0  0  0  0  0  0  0  0  0  0
  161.1090  206.2520  151.0670 C   0  0  0  0  0  3  0  0  0  0  0  0
  161.5440  205.9220  149.7800 C   0  0  0  0  0  3  0  0  0  0  0  0
  161.2750  208.6030  150.5210 C   0  0  0  0  0  3  0  0  0  0  0  0
  162.3040  206.5780  147.4950 C   0  0  0  0  0  0  0  0  0  0  0  0
  162.4790  207.4840  146.6340 O   0  0  0  0  0  0  0  0  0  0  0  0
  162.5550  205.1450  147.1210 C   0  0  2  0  0  3  0  0  0  0  0  0
  163.3990  205.1010  145.9350 N   0  0  0  0  0  1  0  0  0  0  0  0
  161.2470  204.3800  146.8760 C   0  0  2  0  0  3  0  0  0  0  0  0
  160.4880  204.1010  148.1830 C   0  0  0  0  0  2  0  0  0  0  0  0
  161.5080  203.1070  146.0490 C   0  0  0  0  0  2  0  0  0  0  0  0
  161.0480  202.8900  148.9320 C   0  0  2  0  0  3  0  0  0  0  0  0
  160.7900  201.8750  146.6000 C   0  0  0  0  0  2  0  0  0  0  0  0
  161.1960  201.6370  148.0550 C   0  0  2  0  0  3  0  0  0  0  0  0
  159.9920  201.8030  148.9580 C   0  0  1  0  0  3  0  0  0  0  0  0
  160.1740  200.9520  150.2010 C   0  0  0  0  0  2  0  0  0  0  0  0
  161.3250  201.3580  150.8800 O   0  0  0  0  0  0  0  0  0  0  0  0
  161.1500  203.3690  151.9300 O   0  0  0  0  0  1  0  0  0  0  0  0
  160.8500  202.0100  152.0170 C   0  0  0  0  0  2  0  0  0  0  0  0
  162.9640  210.6990  154.6580 N   0  0  0  0  0  1  0  0  0  0  0  0
  162.1000  209.9680  155.5710 C   0  0  1  0  0  3  0  0  0  0  0  0
  161.6180  210.9050  156.6330 C   0  0  0  0  0  0  0  0  0  0  0  0
  162.5020  211.7720  157.2610 O   0  0  0  0  0  1  0  0  0  0  0  0
  160.4120  210.8770  156.9890 O   0  0  0  0  0  0  0  0  0  0  0  0
  160.6960  210.3690  152.6780 O   0  0  0  0  0  0  0  0  0  0  0  0
  159.7070  210.7750  153.4470 O   0  0  0  0  0  0  0  0  0  0  0  0
  159.3180  212.5180  151.8640 C   0  0  1  0  0  3  0  0  0  0  0  0
  158.6020  212.7530  154.2250 C   0  0  2  0  0  3  0  0  0  0  0  0
  159.6940  212.1650  153.3100 C   0  0  1  0  0  3  0  0  0  0  0  0
  157.9310  213.0090  151.9950 C   0  0  0  0  0  0  0  0  0  0  0  0
  157.1960  213.3160  151.0200 O   0  0  0  0  0  0  0  0  0  0  0  0
  156.1940  213.5310  153.7760 C   0  0  0  0  0  1  0  0  0  0  0  0
  157.5160  213.1120  153.3380 N   0  0  0  0  0  0  0  0  0  0  0  0
  160.1330  213.5540  151.4140 O   0  0  0  0  0  1  0  0  0  0  0  0
  159.0920  213.9060  154.8410 O   0  0  0  0  0  0  0  0  0  0  0  0
  159.7140  213.4780  155.9180 O   0  0  0  0  0  1  0  0  0  0  0  0
  1 34  1  6  0  0  0
  1  7  1  0  0  0  0
  2  3  2  1  0  0  0
  2  5  1  0  0  0  0
  4  9  1  6  0  0  0
  4  1  1  0  0  0  0
  4  6  1  0  0  0  0
  6  2  1  0  0  0  0
  7  2  1  0  0  0  0
  7 30  1  1  0  0  0
  8 13  1  0  0  0  0
 10  8  2  0  0  0  0
 10 12  1  0  0  0  0
 11  9  1  0  0  0  0
 12 11  2  0  0  0  0
 13  9  2  0  0  0  0
 14 10  1  0  0  0  0
 15 14  2  0  0  0  0
 16 17  1  6  0  0  0
 16 14  1  0  0  0  0
 18 16  1  1  0  0  0
 18 19  1  0  0  0  0
 20 22  1  0  0  0  0
 20 18  1  0  0  0  0
 21 19  1  6  0  0  0
 21 24  1  0  0  0  0
 23 22  1  6  0  0  0
 23 21  1  0  0  0  0
 23 24  1  0  0  0  0
 24 25  1  1  0  0  0
 25 26  1  0  0  0  0
 26 28  1  0  0  0  0
 27 28  1  0  0  0  0
 30 29  1  6  0  0  0
 30 31  1  0  0  0  0
 31 33  2  0  0  0  0
 31 32  1  0  0  0  0
 34 35  1  0  0  0  0
 36 43  1  1  0  0  0
 36 39  1  0  0  0  0
 36 38  1  0  0  0  0
 37 44  1  6  0  0  0
 38 35  1  6  0  0  0
 38 37  1  0  0  0  0
 39 42  1  0  0  0  0
 40 39  2  0  0  0  0
 42 41  1  0  0  0  0
 42 37  1  0  0  0  0
 44 45  1  0  0  0  0
M  END
>  <MODEL>
6

>  <REMARK>
 VINA RESULT:      -4.4      2.454      5.244
  Name = 
  13 active torsions:
  status: ('A' for Active; 'I' for Inactive)
    1  A    between atoms: C_1  and  O_7
    2  A    between atoms: C_4  and  C_17
    3  A    between atoms: C_4  and  C_24
    4  A    between atoms: O_5  and  C_10
    5  A    between atoms: O_6  and  O_7
    6  A    between atoms: O_6  and  C_19
    7  A    between atoms: C_12  and  C_23
    8  A    between atoms: C_14  and  C_17
    9  A    between atoms: C_18  and  O_31
   10  A    between atoms: C_21  and  CA_43
   11  A    between atoms: C_25  and  O_31
   12  A    between atoms: C_25  and  C_45
   13  A    between atoms: C_38  and  CA_43
                            x       y       z     vdW  Elec       q    Type
                         _______ _______ _______ _____ _____    ______ ____

>  <TORSDO>
F 13

$$$$
