=
 OpenBabel11072414263D

 47 51  0  0  1  0  0  0  0  0999 V2000
  162.2640  205.4960  147.9540 C   0  0  2  0  0  3  0  0  0  0  0  0
  161.3640  206.5240  145.8290 C   0  0  0  0  0  2  0  0  0  0  0  0
  162.5940  206.3500  146.7270 C   0  0  0  0  0  2  0  0  0  0  0  0
  161.1890  204.4370  147.6820 C   0  0  1  0  0  3  0  0  0  0  0  0
  160.7790  205.2480  145.3720 N   0  0  0  0  0  0  0  0  0  0  0  0
  161.1470  204.0860  146.1920 C   0  0  0  0  0  2  0  0  0  0  0  0
  161.1900  205.6320  152.7310 C   0  0  0  0  0  1  0  0  0  0  0  0
  161.9430  209.8490  150.0730 N   0  0  0  0  0  0  0  0  0  0  0  0
  161.6750  205.7300  150.3360 N   0  0  0  0  0  0  0  0  0  0  0  0
  162.2620  210.0590  148.6650 C   0  0  0  0  0  3  0  0  0  0  0  0
  161.4990  207.8370  151.4910 C   0  0  0  0  0  0  0  0  0  0  0  0
  162.3620  208.6650  148.0170 C   0  0  0  0  0  3  0  0  0  0  0  0
  162.0480  207.7450  149.1420 C   0  0  0  0  0  0  0  0  0  0  0  0
  161.4370  206.4200  151.4920 C   0  0  0  0  0  0  0  0  0  0  0  0
  161.8250  208.4550  150.2840 C   0  0  0  0  0  0  0  0  0  0  0  0
  161.9660  206.3450  149.1560 C   0  0  1  0  0  3  0  0  0  0  0  0
  161.2700  208.6550  152.6490 N   0  0  0  0  0  2  0  0  0  0  0  0
  160.0560  209.4060  152.9220 C   0  0  0  0  0  2  0  0  0  0  0  0
  160.3990  210.7070  153.6330 C   0  0  2  0  0  3  0  0  0  0  0  0
  161.9560  210.4870  155.6350 C   0  0  0  0  0  1  0  0  0  0  0  0
  159.8600  209.3450  155.5410 O   0  0  0  0  0  1  0  0  0  0  0  0
  160.5120  210.5160  155.1510 C   0  0  2  0  0  3  0  0  0  0  0  0
  159.4550  211.8070  153.2480 C   0  0  0  0  0  0  0  0  0  0  0  0
  158.6360  211.6550  152.3040 O   0  0  0  0  0  0  0  0  0  0  0  0
  159.4580  212.9920  153.9700 O   0  0  0  0  0  1  0  0  0  0  0  0
  160.7150  202.0990  150.7210 C   0  0  0  0  0  2  0  0  0  0  0  0
  160.4830  203.2980  149.8090 C   0  0  0  0  0  2  0  0  0  0  0  0
  160.4490  200.8010  149.9640 C   0  0  0  0  0  2  0  0  0  0  0  0
  161.3670  200.7060  148.7500 C   0  0  0  0  0  2  0  0  0  0  0  0
  161.1410  201.8960  147.8230 C   0  0  0  0  0  2  0  0  0  0  0  0
  161.3810  203.2100  148.5760 C   0  0  0  0  0  3  0  0  0  0  0  0
  161.2820  204.9920  144.0300 C   0  0  0  0  0  2  0  0  0  0  0  0
  161.4890  206.3020  143.2810 C   0  0  0  0  0  2  0  0  0  0  0  0
  161.6530  206.0630  141.7880 C   0  0  0  0  0  2  0  0  0  0  0  0
  162.2970  207.1530  141.1980 O   0  0  0  0  0  0  0  0  0  0  0  0
  161.3030  207.9110  140.6730 N   0  0  0  0  0  2  0  0  0  0  0  0
  161.9890  208.5180  137.0300 C   0  0  0  0  0  3  0  0  0  0  0  0
  162.0960  210.6860  138.2040 C   0  0  0  0  0  2  0  0  0  0  0  0
  161.9380  209.9110  139.4950 C   0  0  0  0  0  0  0  0  0  0  0  0
  161.1010  208.0140  138.1350 C   0  0  1  0  0  3  0  0  0  0  0  0
  162.4610  209.7730  137.0630 C   0  0  0  0  0  3  0  0  0  0  0  0
  161.4750  208.6470  139.4580 C   0  0  0  0  0  0  0  0  0  0  0  0
  159.4000  208.3910  137.7550 Cl  0  0  0  0  0  0  0  0  0  0  0  0
  161.8770  211.7440  141.0390 C   0  0  0  0  0  3  0  0  0  0  0  0
  162.2230  210.5290  140.7550 N   0  0  0  0  0  0  0  0  0  0  0  0
  162.4460  212.7690  143.4060 C   0  0  0  0  0  3  0  0  0  0  0  0
  162.1880  212.3010  142.3250 C   0  0  0  0  0  0  0  0  0  0  0  0
  1  3  1  6  0  0  0
  1 16  1  0  0  0  0
  2  3  1  0  0  0  0
  4  1  1  0  0  0  0
  4 31  1  1  0  0  0
  5  2  1  0  0  0  0
  5  6  1  0  0  0  0
  6  4  1  0  0  0  0
  8 15  1  0  0  0  0
  9 14  2  0  0  0  0
 10  8  2  0  0  0  0
 11 14  1  0  0  0  0
 11 17  1  0  0  0  0
 12 10  1  0  0  0  0
 12 13  2  0  0  0  0
 13 15  1  0  0  0  0
 14  7  1  0  0  0  0
 15 11  2  0  0  0  0
 16 13  1  1  0  0  0
 16  9  1  0  0  0  0
 17 18  1  0  0  0  0
 19 18  1  6  0  0  0
 19 22  1  0  0  0  0
 22 21  1  0  0  0  0
 22 20  1  6  0  0  0
 23 19  1  0  0  0  0
 23 25  1  0  0  0  0
 24 23  2  0  0  0  0
 27 26  1  0  0  0  0
 28 26  1  0  0  0  0
 29 28  1  0  0  0  0
 30 31  1  0  0  0  0
 30 29  1  0  0  0  0
 31 27  1  0  0  0  0
 32  5  1  0  0  0  0
 33 32  1  0  0  0  0
 34 33  1  0  0  0  0
 35 34  1  0  0  0  0
 36 35  1  0  0  0  0
 37 41  2  0  0  0  0
 37 40  1  0  0  0  0
 38 39  1  0  0  0  0
 39 45  1  0  0  0  0
 40 43  1  6  0  0  0
 40 42  1  0  0  0  0
 41 38  1  0  0  0  0
 42 39  2  0  0  0  0
 42 36  1  0  0  0  0
 44 47  1  0  0  0  0
 45 44  2  0  0  0  0
 47 46  3  0  0  0  0
M  END
>  <MODEL>
1

>  <REMARK>
 VINA RESULT:      -6.3      0.000      0.000
  Name = 
  15 active torsions:
  status: ('A' for Active; 'I' for Inactive)
    1  A    between atoms: O_1  and  N_15
    2  A    between atoms: O_1  and  C_31
    3  A    between atoms: C_3  and  C_39
    4  A    between atoms: C_8  and  C_31
    5  A    between atoms: C_8  and  C_41
    6  A    between atoms: N_15  and  C_36
    7  A    between atoms: N_16  and  C_17
    8  A    between atoms: N_16  and  C_43
    9  A    between atoms: C_19  and  C_25
   10  A    between atoms: C_22  and  N_30
   11  A    between atoms: C_23  and  C_47
   12  A    between atoms: C_25  and  C_32
   13  A    between atoms: C_25  and  C_43
   14  A    between atoms: C_28  and  C_42
   15  A    between atoms: N_35  and  C_41
                            x       y       z     vdW  Elec       q    Type
                         _______ _______ _______ _____ _____    ______ ____

>  <TORSDO>
F 15

$$$$
=
 OpenBabel11072414263D

 47 51  0  0  1  0  0  0  0  0999 V2000
  162.0630  204.5940  147.0160 C   0  0  2  0  0  3  0  0  0  0  0  0
  161.8370  206.3470  145.2120 C   0  0  0  0  0  2  0  0  0  0  0  0
  162.7940  205.6500  146.1840 C   0  0  0  0  0  2  0  0  0  0  0  0
  160.9000  203.9330  146.2670 C   0  0  1  0  0  3  0  0  0  0  0  0
  161.1450  205.4210  144.2950 N   0  0  0  0  0  0  0  0  0  0  0  0
  161.1150  204.0250  144.7530 C   0  0  0  0  0  2  0  0  0  0  0  0
  160.6870  203.5620  151.6030 C   0  0  0  0  0  1  0  0  0  0  0  0
  161.5130  208.3020  150.0960 N   0  0  0  0  0  0  0  0  0  0  0  0
  161.3200  204.2400  149.3390 N   0  0  0  0  0  0  0  0  0  0  0  0
  161.9150  208.8480  148.8040 C   0  0  0  0  0  3  0  0  0  0  0  0
  161.0250  206.0040  150.9540 C   0  0  0  0  0  0  0  0  0  0  0  0
  162.0860  207.6540  147.8470 C   0  0  0  0  0  3  0  0  0  0  0  0
  161.7220  206.4870  148.6940 C   0  0  0  0  0  0  0  0  0  0  0  0
  160.9950  204.6280  150.6090 C   0  0  0  0  0  0  0  0  0  0  0  0
  161.4130  206.8980  149.9560 C   0  0  0  0  0  0  0  0  0  0  0  0
  161.6710  205.1250  148.3650 C   0  0  1  0  0  3  0  0  0  0  0  0
  160.7060  206.5160  152.2570 N   0  0  0  0  0  2  0  0  0  0  0  0
  161.6250  207.2250  153.1310 C   0  0  0  0  0  2  0  0  0  0  0  0
  160.8560  208.1950  154.0160 C   0  0  2  0  0  3  0  0  0  0  0  0
  160.5490  210.6470  154.6310 C   0  0  0  0  0  1  0  0  0  0  0  0
  161.6400  209.9840  152.6120 O   0  0  0  0  0  1  0  0  0  0  0  0
  161.4330  209.6160  153.9420 C   0  0  2  0  0  3  0  0  0  0  0  0
  160.7400  207.6820  155.4210 C   0  0  0  0  0  0  0  0  0  0  0  0
  161.7160  207.7430  156.2140 O   0  0  0  0  0  1  0  0  0  0  0  0
  159.5270  207.1710  155.8620 O   0  0  0  0  0  0  0  0  0  0  0  0
  160.4440  200.1030  146.0450 C   0  0  0  0  0  2  0  0  0  0  0  0
  160.7200  201.5250  145.5700 C   0  0  0  0  0  2  0  0  0  0  0  0
  161.4580  199.6960  147.1090 C   0  0  0  0  0  2  0  0  0  0  0  0
  161.3880  200.6550  148.2930 C   0  0  0  0  0  2  0  0  0  0  0  0
  161.6710  202.0810  147.8340 C   0  0  0  0  0  2  0  0  0  0  0  0
  160.6730  202.4980  146.7470 C   0  0  0  0  0  3  0  0  0  0  0  0
  161.8690  205.4330  143.0320 C   0  0  0  0  0  2  0  0  0  0  0  0
  161.5470  206.6980  142.2460 C   0  0  0  0  0  2  0  0  0  0  0  0
  161.9810  206.5710  140.7950 C   0  0  0  0  0  2  0  0  0  0  0  0
  162.5820  207.7580  140.3700 O   0  0  0  0  0  0  0  0  0  0  0  0
  161.5900  208.4660  139.7770 N   0  0  0  0  0  2  0  0  0  0  0  0
  162.1360  211.8590  141.2960 C   0  0  0  0  0  3  0  0  0  0  0  0
  160.2260  212.0110  139.7410 C   0  0  0  0  0  2  0  0  0  0  0  0
  160.3350  210.5100  139.5770 C   0  0  0  0  0  0  0  0  0  0  0  0
  162.6280  210.6760  140.5050 C   0  0  1  0  0  3  0  0  0  0  0  0
  161.0050  212.4840  140.9400 C   0  0  0  0  0  3  0  0  0  0  0  0
  161.4680  209.8820  139.9460 C   0  0  0  0  0  0  0  0  0  0  0  0
  163.6630  211.2400  139.1670 Cl  0  0  0  0  0  0  0  0  0  0  0  0
  158.0890  210.2580  138.7770 C   0  0  0  0  0  3  0  0  0  0  0  0
  159.2670  209.7630  138.9820 N   0  0  0  0  0  0  0  0  0  0  0  0
  156.2060  208.7790  137.6610 C   0  0  0  0  0  3  0  0  0  0  0  0
  157.0640  209.4560  138.1710 C   0  0  0  0  0  0  0  0  0  0  0  0
  1  3  1  6  0  0  0
  1 16  1  0  0  0  0
  2  3  1  0  0  0  0
  4 31  1  1  0  0  0
  4  1  1  0  0  0  0
  5  6  1  0  0  0  0
  5  2  1  0  0  0  0
  6  4  1  0  0  0  0
  9 14  2  0  0  0  0
 10  8  2  0  0  0  0
 11 17  1  0  0  0  0
 12 13  2  0  0  0  0
 12 10  1  0  0  0  0
 13 15  1  0  0  0  0
 14 11  1  0  0  0  0
 14  7  1  0  0  0  0
 15  8  1  0  0  0  0
 15 11  2  0  0  0  0
 16 13  1  1  0  0  0
 16  9  1  0  0  0  0
 17 18  1  0  0  0  0
 19 18  1  6  0  0  0
 19 23  1  0  0  0  0
 21 22  1  0  0  0  0
 22 19  1  0  0  0  0
 22 20  1  6  0  0  0
 23 25  2  0  0  0  0
 23 24  1  0  0  0  0
 26 28  1  0  0  0  0
 27 26  1  0  0  0  0
 27 31  1  0  0  0  0
 28 29  1  0  0  0  0
 30 29  1  0  0  0  0
 31 30  1  0  0  0  0
 32  5  1  0  0  0  0
 33 32  1  0  0  0  0
 34 33  1  0  0  0  0
 35 34  1  0  0  0  0
 36 42  1  0  0  0  0
 36 35  1  0  0  0  0
 38 41  1  0  0  0  0
 39 38  1  0  0  0  0
 39 42  2  0  0  0  0
 40 43  1  6  0  0  0
 40 37  1  0  0  0  0
 41 37  2  0  0  0  0
 42 40  1  0  0  0  0
 44 45  2  0  0  0  0
 45 39  1  0  0  0  0
 46 47  3  0  0  0  0
 47 44  1  0  0  0  0
M  END
>  <MODEL>
2

>  <REMARK>
 VINA RESULT:      -5.7      2.055      3.353
  Name = 
  15 active torsions:
  status: ('A' for Active; 'I' for Inactive)
    1  A    between atoms: O_1  and  N_15
    2  A    between atoms: O_1  and  C_31
    3  A    between atoms: C_3  and  C_39
    4  A    between atoms: C_8  and  C_31
    5  A    between atoms: C_8  and  C_41
    6  A    between atoms: N_15  and  C_36
    7  A    between atoms: N_16  and  C_17
    8  A    between atoms: N_16  and  C_43
    9  A    between atoms: C_19  and  C_25
   10  A    between atoms: C_22  and  N_30
   11  A    between atoms: C_23  and  C_47
   12  A    between atoms: C_25  and  C_32
   13  A    between atoms: C_25  and  C_43
   14  A    between atoms: C_28  and  C_42
   15  A    between atoms: N_35  and  C_41
                            x       y       z     vdW  Elec       q    Type
                         _______ _______ _______ _____ _____    ______ ____

>  <TORSDO>
F 15

$$$$
=
 OpenBabel11072414263D

 47 51  0  0  1  0  0  0  0  0999 V2000
  161.5930  210.1730  153.2170 C   0  0  2  0  0  3  0  0  0  0  0  0
  161.5580  209.4860  150.7870 C   0  0  0  0  0  2  0  0  0  0  0  0
  162.2660  210.3300  151.8510 C   0  0  0  0  0  2  0  0  0  0  0  0
  160.9750  208.7870  153.4310 C   0  0  1  0  0  3  0  0  0  0  0  0
  161.4910  208.0490  151.1170 N   0  0  0  0  0  0  0  0  0  0  0  0
  161.6690  207.7480  152.5450 C   0  0  0  0  0  2  0  0  0  0  0  0
  158.0140  213.0470  151.5060 C   0  0  0  0  0  1  0  0  0  0  0  0
  159.5490  213.3120  156.3010 N   0  0  0  0  0  0  0  0  0  0  0  0
  159.8210  211.7250  152.4910 N   0  0  0  0  0  0  0  0  0  0  0  0
  160.5810  212.5790  157.0260 C   0  0  0  0  0  2  0  0  0  0  0  0
  158.7310  213.3140  153.9380 C   0  0  0  0  0  0  0  0  0  0  0  0
  161.2110  211.5890  156.0290 C   0  0  0  0  0  3  0  0  0  0  0  0
  160.4830  211.8730  154.7640 C   0  0  0  0  0  0  0  0  0  0  0  0
  158.8860  212.7070  152.6650 C   0  0  0  0  0  0  0  0  0  0  0  0
  159.5500  212.8470  154.9650 C   0  0  0  0  0  0  0  0  0  0  0  0
  160.6350  211.2960  153.4950 C   0  0  0  0  0  0  0  0  0  0  0  0
  157.7780  214.3490  154.2270 N   0  0  0  0  0  2  0  0  0  0  0  0
  156.3340  214.1890  154.2180 C   0  0  0  0  0  2  0  0  0  0  0  0
  155.8600  213.6660  155.5650 C   0  0  2  0  0  3  0  0  0  0  0  0
  155.2290  211.4540  154.4730 C   0  0  0  0  0  1  0  0  0  0  0  0
  155.3900  211.6840  156.8450 O   0  0  0  0  0  1  0  0  0  0  0  0
  155.9320  212.1340  155.6410 C   0  0  2  0  0  3  0  0  0  0  0  0
  154.5080  214.2080  155.9210 C   0  0  0  0  0  0  0  0  0  0  0  0
  153.6540  214.4490  155.0270 O   0  0  0  0  0  0  0  0  0  0  0  0
  154.1820  214.4080  157.2540 O   0  0  0  0  0  1  0  0  0  0  0  0
  159.6340  208.3340  157.0270 C   0  0  0  0  0  2  0  0  0  0  0  0
  159.6120  208.6740  155.5400 C   0  0  0  0  0  2  0  0  0  0  0  0
  160.0280  206.8740  157.2290 C   0  0  0  0  0  2  0  0  0  0  0  0
  161.4030  206.6140  156.6230 C   0  0  0  0  0  2  0  0  0  0  0  0
  161.3940  206.9410  155.1340 C   0  0  0  0  0  2  0  0  0  0  0  0
  160.9780  208.4000  154.9110 C   0  0  0  0  0  3  0  0  0  0  0  0
  162.5780  207.3870  150.4100 C   0  0  0  0  0  2  0  0  0  0  0  0
  162.6490  205.9160  150.8020 C   0  0  0  0  0  2  0  0  0  0  0  0
  161.4930  205.1300  150.2050 C   0  0  0  0  0  2  0  0  0  0  0  0
  161.9030  204.4980  149.0290 O   0  0  0  0  0  0  0  0  0  0  0  0
  160.7930  203.8840  148.5500 N   0  0  0  0  0  2  0  0  0  0  0  0
  161.5350  200.2020  148.6420 C   0  0  0  0  0  3  0  0  0  0  0  0
  160.8300  200.7870  146.3510 C   0  0  0  0  0  2  0  0  0  0  0  0
  160.8320  202.2330  146.7990 C   0  0  0  0  0  0  0  0  0  0  0  0
  160.7750  201.4040  149.1350 C   0  0  1  0  0  3  0  0  0  0  0  0
  161.5660  199.9130  147.3330 C   0  0  0  0  0  3  0  0  0  0  0  0
  160.8130  202.5210  148.1150 C   0  0  0  0  0  0  0  0  0  0  0  0
  159.0800  200.9490  149.4570 Cl  0  0  0  0  0  0  0  0  0  0  0  0
  161.7610  204.1420  145.6860 C   0  0  0  0  0  3  0  0  0  0  0  0
  160.7950  203.2940  145.8380 N   0  0  0  0  0  0  0  0  0  0  0  0
  161.5770  206.0520  143.8710 C   0  0  0  0  0  3  0  0  0  0  0  0
  161.6630  205.1800  144.6990 C   0  0  0  0  0  0  0  0  0  0  0  0
  1  4  1  0  0  0  0
  1 16  1  6  0  0  0
  2  5  1  0  0  0  0
  2  3  1  0  0  0  0
  3  1  1  0  0  0  0
  4 31  1  1  0  0  0
  5  6  1  0  0  0  0
  6  4  1  0  0  0  0
  7 14  1  0  0  0  0
  8 10  1  0  0  0  0
  9 14  1  0  0  0  0
  9 16  2  0  0  0  0
 11 17  1  0  0  0  0
 11 15  1  0  0  0  0
 12 10  1  0  0  0  0
 13 15  1  0  0  0  0
 13 12  2  0  0  0  0
 14 11  2  0  0  0  0
 15  8  2  0  0  0  0
 16 13  1  0  0  0  0
 18 17  1  0  0  0  0
 19 18  1  6  0  0  0
 19 22  1  0  0  0  0
 19 23  1  0  0  0  0
 22 20  1  6  0  0  0
 22 21  1  0  0  0  0
 23 25  1  0  0  0  0
 24 23  2  0  0  0  0
 26 28  1  0  0  0  0
 27 26  1  0  0  0  0
 29 28  1  0  0  0  0
 30 29  1  0  0  0  0
 31 30  1  0  0  0  0
 31 27  1  0  0  0  0
 32 33  1  0  0  0  0
 32  5  1  0  0  0  0
 34 33  1  0  0  0  0
 35 34  1  0  0  0  0
 36 35  1  0  0  0  0
 37 40  1  0  0  0  0
 38 39  1  0  0  0  0
 38 41  1  0  0  0  0
 39 42  2  0  0  0  0
 40 43  1  6  0  0  0
 41 37  2  0  0  0  0
 42 36  1  0  0  0  0
 42 40  1  0  0  0  0
 44 45  2  0  0  0  0
 45 39  1  0  0  0  0
 46 47  3  0  0  0  0
 47 44  1  0  0  0  0
M  END
>  <MODEL>
3

>  <REMARK>
 VINA RESULT:      -5.3      4.507      8.483
  Name = 
  15 active torsions:
  status: ('A' for Active; 'I' for Inactive)
    1  A    between atoms: O_1  and  N_15
    2  A    between atoms: O_1  and  C_31
    3  A    between atoms: C_3  and  C_39
    4  A    between atoms: C_8  and  C_31
    5  A    between atoms: C_8  and  C_41
    6  A    between atoms: N_15  and  C_36
    7  A    between atoms: N_16  and  C_17
    8  A    between atoms: N_16  and  C_43
    9  A    between atoms: C_19  and  C_25
   10  A    between atoms: C_22  and  N_30
   11  A    between atoms: C_23  and  C_47
   12  A    between atoms: C_25  and  C_32
   13  A    between atoms: C_25  and  C_43
   14  A    between atoms: C_28  and  C_42
   15  A    between atoms: N_35  and  C_41
                            x       y       z     vdW  Elec       q    Type
                         _______ _______ _______ _____ _____    ______ ____

>  <TORSDO>
F 15

$$$$
=
 OpenBabel11072414263D

 47 51  0  0  1  0  0  0  0  0999 V2000
  161.8210  208.9080  152.1450 C   0  0  2  0  0  3  0  0  0  0  0  0
  161.9890  210.2050  149.9840 C   0  0  0  0  0  2  0  0  0  0  0  0
  162.6990  209.8230  151.2870 C   0  0  0  0  0  2  0  0  0  0  0  0
  160.9050  207.9990  151.3170 C   0  0  1  0  0  3  0  0  0  0  0  0
  161.5800  209.0450  149.1690 N   0  0  0  0  0  0  0  0  0  0  0  0
  161.4880  207.7830  149.9170 C   0  0  0  0  0  2  0  0  0  0  0  0
  160.6630  209.3010  156.8890 C   0  0  0  0  0  1  0  0  0  0  0  0
  159.2350  212.7740  153.5240 N   0  0  0  0  0  0  0  0  0  0  0  0
  161.1130  209.2160  154.4850 N   0  0  0  0  0  0  0  0  0  0  0  0
  159.4500  212.8690  152.0840 C   0  0  0  0  0  3  0  0  0  0  0  0
  159.8380  211.1000  155.2820 C   0  0  0  0  0  0  0  0  0  0  0  0
  160.2740  211.6350  151.6730 C   0  0  0  0  0  3  0  0  0  0  0  0
  160.4380  210.8950  152.9530 C   0  0  0  0  0  0  0  0  0  0  0  0
  160.5140  209.8760  155.5230 C   0  0  0  0  0  0  0  0  0  0  0  0
  159.8430  211.5770  153.9710 C   0  0  0  0  0  0  0  0  0  0  0  0
  161.0870  209.6780  153.2050 C   0  0  1  0  0  3  0  0  0  0  0  0
  159.1810  211.8720  156.2990 N   0  0  0  0  0  2  0  0  0  0  0  0
  157.8810  211.5730  156.8740 C   0  0  0  0  0  2  0  0  0  0  0  0
  156.7780  212.0360  155.9330 C   0  0  2  0  0  3  0  0  0  0  0  0
  156.1410  214.2690  154.8900 C   0  0  0  0  0  1  0  0  0  0  0  0
  157.3860  214.1410  156.9250 O   0  0  0  0  0  1  0  0  0  0  0  0
  156.3940  213.5010  156.1810 C   0  0  2  0  0  3  0  0  0  0  0  0
  155.6010  211.1070  155.9680 C   0  0  0  0  0  0  0  0  0  0  0  0
  154.8450  211.0600  156.9750 O   0  0  0  0  0  1  0  0  0  0  0  0
  155.3200  210.3200  154.8610 O   0  0  0  0  0  0  0  0  0  0  0  0
  160.2240  204.2240  151.7850 C   0  0  0  0  0  2  0  0  0  0  0  0
  160.5600  205.5230  151.0590 C   0  0  0  0  0  2  0  0  0  0  0  0
  161.2560  203.9450  152.8730 C   0  0  0  0  0  2  0  0  0  0  0  0
  161.2890  205.0970  153.8710 C   0  0  0  0  0  2  0  0  0  0  0  0
  161.6330  206.4010  153.1610 C   0  0  0  0  0  2  0  0  0  0  0  0
  160.6180  206.6860  152.0480 C   0  0  0  0  0  3  0  0  0  0  0  0
  162.5960  208.8510  148.1440 C   0  0  0  0  0  2  0  0  0  0  0  0
  163.0690  207.4030  148.1310 C   0  0  0  0  0  2  0  0  0  0  0  0
  161.9590  206.4640  147.6860 C   0  0  0  0  0  2  0  0  0  0  0  0
  162.3480  205.1370  147.8830 O   0  0  0  0  0  0  0  0  0  0  0  0
  161.1930  204.4500  148.0590 N   0  0  0  0  0  2  0  0  0  0  0  0
  161.4140  200.7820  148.8400 C   0  0  0  0  0  3  0  0  0  0  0  0
  161.2290  201.0370  146.3930 C   0  0  0  0  0  2  0  0  0  0  0  0
  161.3380  202.5310  146.6150 C   0  0  0  0  0  0  0  0  0  0  0  0
  160.7400  202.1200  148.9860 C   0  0  1  0  0  3  0  0  0  0  0  0
  161.6480  200.2740  147.6210 C   0  0  0  0  0  3  0  0  0  0  0  0
  161.1130  203.0380  147.8420 C   0  0  0  0  0  0  0  0  0  0  0  0
  158.9710  201.8990  149.0190 Cl  0  0  0  0  0  0  0  0  0  0  0  0
  160.7390  204.2170  145.0190 C   0  0  0  0  0  3  0  0  0  0  0  0
  161.6200  203.4110  145.5210 N   0  0  0  0  0  0  0  0  0  0  0  0
  161.3850  205.8040  143.0080 C   0  0  0  0  0  3  0  0  0  0  0  0
  161.0890  205.0780  143.9250 C   0  0  0  0  0  0  0  0  0  0  0  0
  1  3  1  6  0  0  0
  1 16  1  0  0  0  0
  2  3  1  0  0  0  0
  4 31  1  1  0  0  0
  4  1  1  0  0  0  0
  5  6  1  0  0  0  0
  5  2  1  0  0  0  0
  6  4  1  0  0  0  0
  8 15  1  0  0  0  0
  9 14  2  0  0  0  0
 10  8  2  0  0  0  0
 11 14  1  0  0  0  0
 11 17  1  0  0  0  0
 12 10  1  0  0  0  0
 12 13  2  0  0  0  0
 13 15  1  0  0  0  0
 14  7  1  0  0  0  0
 15 11  2  0  0  0  0
 16 13  1  1  0  0  0
 16  9  1  0  0  0  0
 17 18  1  0  0  0  0
 19 23  1  0  0  0  0
 19 22  1  0  0  0  0
 19 18  1  1  0  0  0
 22 20  1  6  0  0  0
 22 21  1  0  0  0  0
 23 24  1  0  0  0  0
 25 23  2  0  0  0  0
 26 28  1  0  0  0  0
 27 26  1  0  0  0  0
 27 31  1  0  0  0  0
 28 29  1  0  0  0  0
 30 29  1  0  0  0  0
 31 30  1  0  0  0  0
 32  5  1  0  0  0  0
 33 32  1  0  0  0  0
 34 35  1  0  0  0  0
 34 33  1  0  0  0  0
 35 36  1  0  0  0  0
 37 40  1  0  0  0  0
 38 39  1  0  0  0  0
 38 41  1  0  0  0  0
 39 42  2  0  0  0  0
 40 43  1  6  0  0  0
 41 37  2  0  0  0  0
 42 36  1  0  0  0  0
 42 40  1  0  0  0  0
 44 45  2  0  0  0  0
 45 39  1  0  0  0  0
 46 47  3  0  0  0  0
 47 44  1  0  0  0  0
M  END
>  <MODEL>
4

>  <REMARK>
 VINA RESULT:      -5.3      4.086      7.190
  Name = 
  15 active torsions:
  status: ('A' for Active; 'I' for Inactive)
    1  A    between atoms: O_1  and  N_15
    2  A    between atoms: O_1  and  C_31
    3  A    between atoms: C_3  and  C_39
    4  A    between atoms: C_8  and  C_31
    5  A    between atoms: C_8  and  C_41
    6  A    between atoms: N_15  and  C_36
    7  A    between atoms: N_16  and  C_17
    8  A    between atoms: N_16  and  C_43
    9  A    between atoms: C_19  and  C_25
   10  A    between atoms: C_22  and  N_30
   11  A    between atoms: C_23  and  C_47
   12  A    between atoms: C_25  and  C_32
   13  A    between atoms: C_25  and  C_43
   14  A    between atoms: C_28  and  C_42
   15  A    between atoms: N_35  and  C_41
                            x       y       z     vdW  Elec       q    Type
                         _______ _______ _______ _____ _____    ______ ____

>  <TORSDO>
F 15

$$$$
=
 OpenBabel11072414263D

 47 51  0  0  1  0  0  0  0  0999 V2000
  161.6920  210.0930  152.6110 C   0  0  2  0  0  3  0  0  0  0  0  0
  161.8830  210.9100  150.2290 C   0  0  0  0  0  2  0  0  0  0  0  0
  162.5690  210.8310  151.5960 C   0  0  0  0  0  2  0  0  0  0  0  0
  160.8170  209.0050  151.9760 C   0  0  1  0  0  3  0  0  0  0  0  0
  161.5210  209.5940  149.6690 N   0  0  0  0  0  0  0  0  0  0  0  0
  161.4380  208.5160  150.6640 C   0  0  0  0  0  2  0  0  0  0  0  0
  161.0140  211.9990  157.0730 C   0  0  0  0  0  1  0  0  0  0  0  0
  158.4060  213.6320  153.0790 N   0  0  0  0  0  0  0  0  0  0  0  0
  161.1970  211.1110  154.8000 N   0  0  0  0  0  0  0  0  0  0  0  0
  158.4270  213.2220  151.6790 C   0  0  0  0  0  3  0  0  0  0  0  0
  159.5960  212.8790  155.1460 C   0  0  0  0  0  0  0  0  0  0  0  0
  159.4780  212.1030  151.5560 C   0  0  0  0  0  3  0  0  0  0  0  0
  159.9620  211.9390  152.9530 C   0  0  0  0  0  0  0  0  0  0  0  0
  160.5750  211.9840  155.6490 C   0  0  0  0  0  0  0  0  0  0  0  0
  159.3350  212.8250  153.7760 C   0  0  0  0  0  0  0  0  0  0  0  0
  160.9140  211.0490  153.4700 C   0  0  1  0  0  3  0  0  0  0  0  0
  158.8880  213.8350  155.9490 N   0  0  0  0  0  2  0  0  0  0  0  0
  157.6610  213.5740  156.6820 C   0  0  0  0  0  2  0  0  0  0  0  0
  156.5190  213.3200  155.7080 C   0  0  2  0  0  3  0  0  0  0  0  0
  154.5520  214.3680  156.9380 C   0  0  0  0  0  1  0  0  0  0  0  0
  154.7340  214.4500  154.5580 O   0  0  0  0  0  1  0  0  0  0  0  0
  155.4820  214.4520  155.7360 C   0  0  2  0  0  3  0  0  0  0  0  0
  155.9130  211.9640  155.9140 C   0  0  0  0  0  0  0  0  0  0  0  0
  155.7580  211.4950  157.0730 O   0  0  0  0  0  1  0  0  0  0  0  0
  155.4810  211.2350  154.8160 O   0  0  0  0  0  0  0  0  0  0  0  0
  161.1970  205.5570  153.6780 C   0  0  0  0  0  2  0  0  0  0  0  0
  161.5080  206.7090  152.7270 C   0  0  0  0  0  2  0  0  0  0  0  0
  161.2800  206.0320  155.1250 C   0  0  0  0  0  2  0  0  0  0  0  0
  160.2950  207.1710  155.3610 C   0  0  0  0  0  2  0  0  0  0  0  0
  160.5990  208.3340  154.4220 C   0  0  0  0  0  2  0  0  0  0  0  0
  160.5410  207.8690  152.9620 C   0  0  0  0  0  3  0  0  0  0  0  0
  162.5650  209.2160  148.7270 C   0  0  0  0  0  2  0  0  0  0  0  0
  162.5930  207.7040  148.5430 C   0  0  0  0  0  2  0  0  0  0  0  0
  161.2810  207.1940  147.9690 C   0  0  0  0  0  2  0  0  0  0  0  0
  161.5330  206.2710  146.9510 O   0  0  0  0  0  0  0  0  0  0  0  0
  161.3510  205.0550  147.5200 N   0  0  0  0  0  2  0  0  0  0  0  0
  160.1640  202.8730  144.7020 C   0  0  0  0  0  3  0  0  0  0  0  0
  161.0490  201.4130  146.4840 C   0  0  0  0  0  2  0  0  0  0  0  0
  161.2010  202.6610  147.3280 C   0  0  0  0  0  0  0  0  0  0  0  0
  161.0400  203.9770  145.2330 C   0  0  1  0  0  3  0  0  0  0  0  0
  160.1650  201.6690  145.2920 C   0  0  0  0  0  3  0  0  0  0  0  0
  161.1890  203.8700  146.7350 C   0  0  0  0  0  0  0  0  0  0  0  0
  162.6480  203.8860  144.4680 Cl  0  0  0  0  0  0  0  0  0  0  0  0
  160.5240  202.9120  149.6140 C   0  0  0  0  0  3  0  0  0  0  0  0
  161.4140  202.5620  148.7410 N   0  0  0  0  0  0  0  0  0  0  0  0
  161.0340  202.6770  152.1960 C   0  0  0  0  0  3  0  0  0  0  0  0
  160.8000  202.7830  151.0170 C   0  0  0  0  0  0  0  0  0  0  0  0
  1  3  1  6  0  0  0
  1 16  1  0  0  0  0
  2  3  1  0  0  0  0
  4  1  1  0  0  0  0
  4 31  1  1  0  0  0
  5  2  1  0  0  0  0
  5  6  1  0  0  0  0
  6  4  1  0  0  0  0
  8 15  1  0  0  0  0
  9 14  2  0  0  0  0
 10  8  2  0  0  0  0
 11 14  1  0  0  0  0
 11 17  1  0  0  0  0
 12 10  1  0  0  0  0
 12 13  2  0  0  0  0
 13 15  1  0  0  0  0
 14  7  1  0  0  0  0
 15 11  2  0  0  0  0
 16 13  1  6  0  0  0
 16  9  1  0  0  0  0
 17 18  1  0  0  0  0
 19 22  1  0  0  0  0
 19 23  1  0  0  0  0
 19 18  1  1  0  0  0
 21 22  1  0  0  0  0
 22 20  1  1  0  0  0
 23 24  1  0  0  0  0
 25 23  2  0  0  0  0
 26 28  1  0  0  0  0
 27 31  1  0  0  0  0
 27 26  1  0  0  0  0
 28 29  1  0  0  0  0
 30 29  1  0  0  0  0
 31 30  1  0  0  0  0
 32  5  1  0  0  0  0
 33 32  1  0  0  0  0
 34 33  1  0  0  0  0
 35 36  1  0  0  0  0
 35 34  1  0  0  0  0
 37 40  1  0  0  0  0
 37 41  2  0  0  0  0
 38 39  1  0  0  0  0
 39 45  1  0  0  0  0
 40 43  1  6  0  0  0
 40 42  1  0  0  0  0
 41 38  1  0  0  0  0
 42 39  2  0  0  0  0
 42 36  1  0  0  0  0
 44 47  1  0  0  0  0
 45 44  2  0  0  0  0
 47 46  3  0  0  0  0
M  END
>  <MODEL>
5

>  <REMARK>
 VINA RESULT:      -5.2      4.692      7.811
  Name = 
  15 active torsions:
  status: ('A' for Active; 'I' for Inactive)
    1  A    between atoms: O_1  and  N_15
    2  A    between atoms: O_1  and  C_31
    3  A    between atoms: C_3  and  C_39
    4  A    between atoms: C_8  and  C_31
    5  A    between atoms: C_8  and  C_41
    6  A    between atoms: N_15  and  C_36
    7  A    between atoms: N_16  and  C_17
    8  A    between atoms: N_16  and  C_43
    9  A    between atoms: C_19  and  C_25
   10  A    between atoms: C_22  and  N_30
   11  A    between atoms: C_23  and  C_47
   12  A    between atoms: C_25  and  C_32
   13  A    between atoms: C_25  and  C_43
   14  A    between atoms: C_28  and  C_42
   15  A    between atoms: N_35  and  C_41
                            x       y       z     vdW  Elec       q    Type
                         _______ _______ _______ _____ _____    ______ ____

>  <TORSDO>
F 15

$$$$
=
 OpenBabel11072414263D

 47 51  0  0  1  0  0  0  0  0999 V2000
  161.4130  209.8240  152.6500 C   0  0  2  0  0  3  0  0  0  0  0  0
  161.0270  208.9060  150.3290 C   0  0  0  0  0  2  0  0  0  0  0  0
  161.9180  209.7920  151.2050 C   0  0  0  0  0  2  0  0  0  0  0  0
  160.7360  208.5180  153.0820 C   0  0  1  0  0  3  0  0  0  0  0  0
  160.9070  207.5180  150.8160 N   0  0  0  0  0  0  0  0  0  0  0  0
  161.2420  207.3450  152.2370 C   0  0  0  0  0  2  0  0  0  0  0  0
  158.0290  212.9400  150.9660 C   0  0  0  0  0  1  0  0  0  0  0  0
  159.8080  213.2640  155.6720 N   0  0  0  0  0  0  0  0  0  0  0  0
  159.7550  211.4990  151.9310 N   0  0  0  0  0  0  0  0  0  0  0  0
  160.8040  212.4700  156.3840 C   0  0  0  0  0  2  0  0  0  0  0  0
  158.8820  213.2410  153.3490 C   0  0  0  0  0  0  0  0  0  0  0  0
  161.2940  211.3850  155.4070 C   0  0  0  0  0  3  0  0  0  0  0  0
  160.5340  211.6820  154.1630 C   0  0  0  0  0  0  0  0  0  0  0  0
  158.9210  212.5700  152.1000 C   0  0  0  0  0  0  0  0  0  0  0  0
  159.7040  212.7440  154.3600 C   0  0  0  0  0  0  0  0  0  0  0  0
  160.5740  211.0400  152.9170 C   0  0  0  0  0  0  0  0  0  0  0  0
  158.0410  214.3700  153.6310 N   0  0  0  0  0  2  0  0  0  0  0  0
  156.6370  214.3030  153.9990 C   0  0  0  0  0  2  0  0  0  0  0  0
  156.4960  213.7690  155.4170 C   0  0  2  0  0  3  0  0  0  0  0  0
  155.7850  211.3980  154.8200 C   0  0  0  0  0  1  0  0  0  0  0  0
  156.9770  211.8840  156.8320 O   0  0  0  0  0  1  0  0  0  0  0  0
  156.8300  212.2730  155.5000 C   0  0  2  0  0  3  0  0  0  0  0  0
  155.1550  214.1050  155.9990 C   0  0  0  0  0  0  0  0  0  0  0  0
  154.9760  214.1110  157.2460 O   0  0  0  0  0  1  0  0  0  0  0  0
  154.1120  214.4530  155.1540 O   0  0  0  0  0  0  0  0  0  0  0  0
  159.9430  208.7280  156.8580 C   0  0  0  0  0  2  0  0  0  0  0  0
  159.7500  208.9240  155.3580 C   0  0  0  0  0  2  0  0  0  0  0  0
  160.0350  207.2410  157.1880 C   0  0  0  0  0  2  0  0  0  0  0  0
  161.2000  206.6080  156.4340 C   0  0  0  0  0  2  0  0  0  0  0  0
  161.0160  206.7900  154.9310 C   0  0  0  0  0  2  0  0  0  0  0  0
  160.8990  208.2790  154.5850 C   0  0  0  0  0  3  0  0  0  0  0  0
  161.8500  206.7060  150.0610 C   0  0  0  0  0  2  0  0  0  0  0  0
  161.6890  205.2340  150.4180 C   0  0  0  0  0  2  0  0  0  0  0  0
  160.3460  204.6970  149.9510 C   0  0  0  0  0  2  0  0  0  0  0  0
  160.5370  203.6420  149.0570 O   0  0  0  0  0  0  0  0  0  0  0  0
  161.5850  204.0170  148.2830 N   0  0  0  0  0  2  0  0  0  0  0  0
  160.3730  206.5510  145.7870 C   0  0  0  0  0  3  0  0  0  0  0  0
  161.1870  204.5780  144.5480 C   0  0  0  0  0  2  0  0  0  0  0  0
  161.3640  203.9000  145.8890 C   0  0  0  0  0  0  0  0  0  0  0  0
  161.2740  206.1510  146.9260 C   0  0  1  0  0  3  0  0  0  0  0  0
  160.3290  205.8100  144.6700 C   0  0  0  0  0  3  0  0  0  0  0  0
  161.3980  204.6450  147.0110 C   0  0  0  0  0  0  0  0  0  0  0  0
  162.8900  206.8680  146.6910 Cl  0  0  0  0  0  0  0  0  0  0  0  0
  160.6210  201.6300  145.6890 C   0  0  0  0  0  3  0  0  0  0  0  0
  161.5540  202.4830  145.9700 N   0  0  0  0  0  0  0  0  0  0  0  0
  161.1000  199.0380  145.8680 C   0  0  0  0  0  3  0  0  0  0  0  0
  160.8800  200.2200  145.7860 C   0  0  0  0  0  0  0  0  0  0  0  0
  1 16  1  6  0  0  0
  1  4  1  0  0  0  0
  2  5  1  0  0  0  0
  2  3  1  0  0  0  0
  3  1  1  0  0  0  0
  4 31  1  1  0  0  0
  5  6  1  0  0  0  0
  6  4  1  0  0  0  0
  7 14  1  0  0  0  0
  8 10  1  0  0  0  0
  9 14  1  0  0  0  0
  9 16  2  0  0  0  0
 11 17  1  0  0  0  0
 11 15  1  0  0  0  0
 12 10  1  0  0  0  0
 13 15  1  0  0  0  0
 13 12  2  0  0  0  0
 14 11  2  0  0  0  0
 15  8  2  0  0  0  0
 16 13  1  0  0  0  0
 17 18  1  0  0  0  0
 19 18  1  6  0  0  0
 19 22  1  0  0  0  0
 19 23  1  0  0  0  0
 22 20  1  1  0  0  0
 22 21  1  0  0  0  0
 23 24  1  0  0  0  0
 25 23  2  0  0  0  0
 26 28  1  0  0  0  0
 27 26  1  0  0  0  0
 29 28  1  0  0  0  0
 30 29  1  0  0  0  0
 31 30  1  0  0  0  0
 31 27  1  0  0  0  0
 32 33  1  0  0  0  0
 32  5  1  0  0  0  0
 34 33  1  0  0  0  0
 35 34  1  0  0  0  0
 36 35  1  0  0  0  0
 37 40  1  0  0  0  0
 38 41  1  0  0  0  0
 38 39  1  0  0  0  0
 39 45  1  0  0  0  0
 39 42  2  0  0  0  0
 40 43  1  6  0  0  0
 40 42  1  0  0  0  0
 41 37  2  0  0  0  0
 42 36  1  0  0  0  0
 44 47  1  0  0  0  0
 44 45  2  0  0  0  0
 47 46  3  0  0  0  0
M  END
>  <MODEL>
6

>  <REMARK>
 VINA RESULT:      -5.0      4.583      7.891
  Name = 
  15 active torsions:
  status: ('A' for Active; 'I' for Inactive)
    1  A    between atoms: O_1  and  N_15
    2  A    between atoms: O_1  and  C_31
    3  A    between atoms: C_3  and  C_39
    4  A    between atoms: C_8  and  C_31
    5  A    between atoms: C_8  and  C_41
    6  A    between atoms: N_15  and  C_36
    7  A    between atoms: N_16  and  C_17
    8  A    between atoms: N_16  and  C_43
    9  A    between atoms: C_19  and  C_25
   10  A    between atoms: C_22  and  N_30
   11  A    between atoms: C_23  and  C_47
   12  A    between atoms: C_25  and  C_32
   13  A    between atoms: C_25  and  C_43
   14  A    between atoms: C_28  and  C_42
   15  A    between atoms: N_35  and  C_41
                            x       y       z     vdW  Elec       q    Type
                         _______ _______ _______ _____ _____    ______ ____

>  <TORSDO>
F 15

$$$$
=
 OpenBabel11072414263D

 47 51  0  0  1  0  0  0  0  0999 V2000
  160.8300  207.3490  149.7520 C   0  0  2  0  0  3  0  0  0  0  0  0
  162.2960  208.9760  148.4940 C   0  0  0  0  0  2  0  0  0  0  0  0
  160.9300  208.2850  148.5450 C   0  0  0  0  0  2  0  0  0  0  0  0
  161.6430  207.8310  150.9600 C   0  0  1  0  0  3  0  0  0  0  0  0
  162.6190  209.7430  149.7120 N   0  0  0  0  0  0  0  0  0  0  0  0
  161.8460  209.3490  150.8980 C   0  0  0  0  0  2  0  0  0  0  0  0
  160.9520  202.6600  151.1650 C   0  0  0  0  0  1  0  0  0  0  0  0
  161.9780  204.0150  146.4190 N   0  0  0  0  0  0  0  0  0  0  0  0
  160.9890  204.9570  150.3230 N   0  0  0  0  0  0  0  0  0  0  0  0
  162.0130  205.3240  145.7740 C   0  0  0  0  0  3  0  0  0  0  0  0
  161.5390  203.2180  148.7480 C   0  0  0  0  0  0  0  0  0  0  0  0
  161.6420  206.3620  146.8500 C   0  0  0  0  0  3  0  0  0  0  0  0
  161.4530  205.5330  148.0700 C   0  0  0  0  0  0  0  0  0  0  0  0
  161.1870  203.6300  150.0590 C   0  0  0  0  0  0  0  0  0  0  0  0
  161.6460  204.2150  147.7790 C   0  0  1  0  0  3  0  0  0  0  0  0
  161.1230  205.9250  149.3750 C   0  0  0  0  0  0  0  0  0  0  0  0
  161.7660  201.8520  148.3660 N   0  0  0  0  0  2  0  0  0  0  0  0
  160.7470  200.9320  147.8890 C   0  0  0  0  0  2  0  0  0  0  0  0
  160.8060  200.8320  146.3720 C   0  0  2  0  0  3  0  0  0  0  0  0
  159.7500  202.2250  144.5210 C   0  0  0  0  0  1  0  0  0  0  0  0
  158.7060  201.9720  146.6550 O   0  0  0  0  0  1  0  0  0  0  0  0
  159.5040  201.3150  145.7170 C   0  0  2  0  0  3  0  0  0  0  0  0
  161.2120  199.4580  145.9280 C   0  0  0  0  0  0  0  0  0  0  0  0
  162.2220  198.8920  146.4230 O   0  0  0  0  0  1  0  0  0  0  0  0
  160.4410  198.7890  144.9890 O   0  0  0  0  0  0  0  0  0  0  0  0
  161.2070  205.8000  154.2170 C   0  0  0  0  0  2  0  0  0  0  0  0
  161.8670  206.2920  152.9330 C   0  0  0  0  0  2  0  0  0  0  0  0
  160.9890  206.9650  155.1780 C   0  0  0  0  0  2  0  0  0  0  0  0
  160.1110  208.0260  154.5240 C   0  0  0  0  0  2  0  0  0  0  0  0
  160.7630  208.5340  153.2430 C   0  0  0  0  0  2  0  0  0  0  0  0
  161.0100  207.3710  152.2740 C   0  0  0  0  0  3  0  0  0  0  0  0
  162.3000  211.1390  149.4480 C   0  0  0  0  0  2  0  0  0  0  0  0
  162.4180  211.4390  147.9590 C   0  0  0  0  0  2  0  0  0  0  0  0
  162.8890  212.8640  147.7200 C   0  0  0  0  0  2  0  0  0  0  0  0
  162.4840  213.2950  146.4540 O   0  0  0  0  0  0  0  0  0  0  0  0
  161.3520  212.5990  146.1880 N   0  0  0  0  0  2  0  0  0  0  0  0
  160.1950  214.0310  142.9120 C   0  0  0  0  0  3  0  0  0  0  0  0
  158.2350  213.8250  144.3970 C   0  0  0  0  0  2  0  0  0  0  0  0
  159.1980  213.4170  145.4910 C   0  0  0  0  0  0  0  0  0  0  0  0
  160.8580  212.9410  143.7110 C   0  0  1  0  0  3  0  0  0  0  0  0
  158.9630  214.4500  143.2360 C   0  0  0  0  0  3  0  0  0  0  0  0
  160.4390  213.0070  145.1640 C   0  0  0  0  0  0  0  0  0  0  0  0
  160.4160  211.3500  143.0360 Cl  0  0  0  0  0  0  0  0  0  0  0  0
  157.5410  213.3630  147.2220 C   0  0  0  0  0  3  0  0  0  0  0  0
  158.7840  213.4090  146.8620 N   0  0  0  0  0  0  0  0  0  0  0  0
  156.8990  213.3460  149.7840 C   0  0  0  0  0  3  0  0  0  0  0  0
  157.1930  213.3530  148.6150 C   0  0  0  0  0  0  0  0  0  0  0  0
  1 16  1  6  0  0  0
  1  4  1  0  0  0  0
  2  3  1  0  0  0  0
  2  5  1  0  0  0  0
  3  1  1  0  0  0  0
  4 31  1  1  0  0  0
  5  6  1  0  0  0  0
  6  4  1  0  0  0  0
 10  8  2  0  0  0  0
 10 12  1  0  0  0  0
 11 14  2  0  0  0  0
 12 13  2  0  0  0  0
 13 16  1  0  0  0  0
 14  9  1  0  0  0  0
 14  7  1  0  0  0  0
 15  8  1  1  0  0  0
 15 13  1  0  0  0  0
 15 11  1  0  0  0  0
 16  9  2  0  0  0  0
 17 11  1  0  0  0  0
 18 17  1  0  0  0  0
 19 18  1  1  0  0  0
 22 20  1  6  0  0  0
 22 19  1  0  0  0  0
 22 21  1  0  0  0  0
 23 19  1  0  0  0  0
 23 24  1  0  0  0  0
 25 23  2  0  0  0  0
 26 28  1  0  0  0  0
 27 26  1  0  0  0  0
 29 28  1  0  0  0  0
 30 29  1  0  0  0  0
 31 27  1  0  0  0  0
 31 30  1  0  0  0  0
 32  5  1  0  0  0  0
 33 32  1  0  0  0  0
 34 33  1  0  0  0  0
 35 34  1  0  0  0  0
 36 35  1  0  0  0  0
 37 41  2  0  0  0  0
 37 40  1  0  0  0  0
 38 39  1  0  0  0  0
 39 45  1  0  0  0  0
 40 43  1  6  0  0  0
 40 42  1  0  0  0  0
 41 38  1  0  0  0  0
 42 39  2  0  0  0  0
 42 36  1  0  0  0  0
 44 47  1  0  0  0  0
 45 44  2  0  0  0  0
 47 46  3  0  0  0  0
M  END
>  <MODEL>
7

>  <REMARK>
 VINA RESULT:      -4.9      4.145      8.148
  Name = 
  15 active torsions:
  status: ('A' for Active; 'I' for Inactive)
    1  A    between atoms: O_1  and  N_15
    2  A    between atoms: O_1  and  C_31
    3  A    between atoms: C_3  and  C_39
    4  A    between atoms: C_8  and  C_31
    5  A    between atoms: C_8  and  C_41
    6  A    between atoms: N_15  and  C_36
    7  A    between atoms: N_16  and  C_17
    8  A    between atoms: N_16  and  C_43
    9  A    between atoms: C_19  and  C_25
   10  A    between atoms: C_22  and  N_30
   11  A    between atoms: C_23  and  C_47
   12  A    between atoms: C_25  and  C_32
   13  A    between atoms: C_25  and  C_43
   14  A    between atoms: C_28  and  C_42
   15  A    between atoms: N_35  and  C_41
                            x       y       z     vdW  Elec       q    Type
                         _______ _______ _______ _____ _____    ______ ____

>  <TORSDO>
F 15

$$$$
=
 OpenBabel11072414263D

 47 51  0  0  1  0  0  0  0  0999 V2000
  161.9640  207.4220  151.7550 C   0  0  2  0  0  3  0  0  0  0  0  0
  161.0930  206.7720  154.0350 C   0  0  0  0  0  2  0  0  0  0  0  0
  162.3290  206.8730  153.1360 C   0  0  0  0  0  2  0  0  0  0  0  0
  160.7900  208.4080  151.7870 C   0  0  1  0  0  3  0  0  0  0  0  0
  160.3810  208.0530  154.2100 N   0  0  0  0  0  0  0  0  0  0  0  0
  160.6700  209.0520  153.1720 C   0  0  0  0  0  2  0  0  0  0  0  0
  162.2960  206.0240  147.0710 C   0  0  0  0  0  1  0  0  0  0  0  0
  160.9850  202.7870  150.7070 N   0  0  0  0  0  0  0  0  0  0  0  0
  162.0320  206.5820  149.4390 N   0  0  0  0  0  0  0  0  0  0  0  0
  160.8150  202.9670  152.1450 C   0  0  0  0  0  2  0  0  0  0  0  0
  161.5750  204.3020  148.8060 C   0  0  0  0  0  0  0  0  0  0  0  0
  161.1340  204.4420  152.4520 C   0  0  0  0  0  3  0  0  0  0  0  0
  161.4380  205.0080  151.1100 C   0  0  0  0  0  0  0  0  0  0  0  0
  161.9380  205.6290  148.4620 C   0  0  0  0  0  0  0  0  0  0  0  0
  161.3490  204.0380  150.1580 C   0  0  0  0  0  0  0  0  0  0  0  0
  161.7810  206.3190  150.7510 C   0  0  0  0  0  0  0  0  0  0  0  0
  161.4530  203.2280  147.8610 N   0  0  0  0  0  2  0  0  0  0  0  0
  160.3280  203.0210  146.9650 C   0  0  0  0  0  2  0  0  0  0  0  0
  160.8200  202.4850  145.6280 C   0  0  2  0  0  3  0  0  0  0  0  0
  160.6940  204.8380  144.6650 C   0  0  0  0  0  1  0  0  0  0  0  0
  158.9940  203.2140  144.2420 O   0  0  0  0  0  1  0  0  0  0  0  0
  160.3650  203.3660  144.4570 C   0  0  2  0  0  3  0  0  0  0  0  0
  160.4600  201.0400  145.4500 C   0  0  0  0  0  0  0  0  0  0  0  0
  159.7050  200.6730  144.5110 O   0  0  0  0  0  0  0  0  0  0  0  0
  161.0000  200.0910  146.3070 O   0  0  0  0  0  1  0  0  0  0  0  0
  161.1860  211.8670  150.1120 C   0  0  0  0  0  2  0  0  0  0  0  0
  161.1280  210.8360  151.2340 C   0  0  0  0  0  2  0  0  0  0  0  0
  162.2930  211.5110  149.1240 C   0  0  0  0  0  2  0  0  0  0  0  0
  162.0440  210.1260  148.5360 C   0  0  0  0  0  2  0  0  0  0  0  0
  161.9930  209.0820  149.6470 C   0  0  0  0  0  2  0  0  0  0  0  0
  160.8990  209.4380  150.6610 C   0  0  0  0  0  3  0  0  0  0  0  0
  160.8160  208.6260  155.4760 C   0  0  0  0  0  2  0  0  0  0  0  0
  159.7200  209.5030  156.0670 C   0  0  0  0  0  2  0  0  0  0  0  0
  160.2050  210.9300  156.2700 C   0  0  0  0  0  2  0  0  0  0  0  0
  160.0960  211.6460  155.0760 O   0  0  0  0  0  0  0  0  0  0  0  0
  158.7820  211.5940  154.7490 N   0  0  0  0  0  2  0  0  0  0  0  0
  156.2550  213.4770  156.7950 C   0  0  0  0  0  3  0  0  0  0  0  0
  156.2890  214.4520  154.5280 C   0  0  0  0  0  2  0  0  0  0  0  0
  157.2320  213.3320  154.1410 C   0  0  0  0  0  0  0  0  0  0  0  0
  157.6610  212.9930  156.5590 C   0  0  1  0  0  3  0  0  0  0  0  0
  155.6080  214.1590  155.8380 C   0  0  0  0  0  3  0  0  0  0  0  0
  157.8730  212.6410  155.1030 C   0  0  0  0  0  0  0  0  0  0  0  0
  158.8190  214.2620  157.0380 Cl  0  0  0  0  0  0  0  0  0  0  0  0
  157.5100  213.9510  151.8410 C   0  0  0  0  0  3  0  0  0  0  0  0
  157.4910  213.0410  152.7620 N   0  0  0  0  0  0  0  0  0  0  0  0
  158.0080  213.2890  149.3330 C   0  0  0  0  0  3  0  0  0  0  0  0
  157.7820  213.5920  150.4780 C   0  0  0  0  0  0  0  0  0  0  0  0
  1 16  1  6  0  0  0
  1  4  1  0  0  0  0
  1  3  1  0  0  0  0
  2  5  1  0  0  0  0
  3  2  1  0  0  0  0
  4 31  1  6  0  0  0
  4  6  1  0  0  0  0
  5 32  1  0  0  0  0
  6  5  1  0  0  0  0
  7 14  1  0  0  0  0
  8 10  1  0  0  0  0
  9 16  2  0  0  0  0
 10 12  1  0  0  0  0
 11 15  1  0  0  0  0
 13 12  2  0  0  0  0
 14 11  2  0  0  0  0
 14  9  1  0  0  0  0
 15  8  2  0  0  0  0
 15 13  1  0  0  0  0
 16 13  1  0  0  0  0
 17 11  1  0  0  0  0
 18 17  1  0  0  0  0
 19 18  1  1  0  0  0
 21 22  1  0  0  0  0
 22 20  1  1  0  0  0
 22 19  1  0  0  0  0
 23 19  1  0  0  0  0
 23 25  1  0  0  0  0
 24 23  2  0  0  0  0
 26 27  1  0  0  0  0
 28 26  1  0  0  0  0
 29 28  1  0  0  0  0
 29 30  1  0  0  0  0
 30 31  1  0  0  0  0
 31 27  1  0  0  0  0
 32 33  1  0  0  0  0
 33 34  1  0  0  0  0
 35 34  1  0  0  0  0
 36 35  1  0  0  0  0
 36 42  1  0  0  0  0
 38 41  1  0  0  0  0
 39 38  1  0  0  0  0
 39 42  2  0  0  0  0
 40 37  1  0  0  0  0
 40 43  1  6  0  0  0
 41 37  2  0  0  0  0
 42 40  1  0  0  0  0
 44 45  2  0  0  0  0
 45 39  1  0  0  0  0
 46 47  3  0  0  0  0
 47 44  1  0  0  0  0
M  END
>  <MODEL>
8

>  <REMARK>
 VINA RESULT:      -4.4      5.156     11.581
  Name = 
  15 active torsions:
  status: ('A' for Active; 'I' for Inactive)
    1  A    between atoms: O_1  and  N_15
    2  A    between atoms: O_1  and  C_31
    3  A    between atoms: C_3  and  C_39
    4  A    between atoms: C_8  and  C_31
    5  A    between atoms: C_8  and  C_41
    6  A    between atoms: N_15  and  C_36
    7  A    between atoms: N_16  and  C_17
    8  A    between atoms: N_16  and  C_43
    9  A    between atoms: C_19  and  C_25
   10  A    between atoms: C_22  and  N_30
   11  A    between atoms: C_23  and  C_47
   12  A    between atoms: C_25  and  C_32
   13  A    between atoms: C_25  and  C_43
   14  A    between atoms: C_28  and  C_42
   15  A    between atoms: N_35  and  C_41
                            x       y       z     vdW  Elec       q    Type
                         _______ _______ _______ _____ _____    ______ ____

>  <TORSDO>
F 15

$$$$
=
 OpenBabel11072414263D

 47 51  0  0  1  0  0  0  0  0999 V2000
  162.0380  210.0460  151.9120 C   0  0  2  0  0  3  0  0  0  0  0  0
  161.8660  209.9400  154.4290 C   0  0  0  0  0  2  0  0  0  0  0  0
  162.8150  209.9510  153.2270 C   0  0  0  0  0  2  0  0  0  0  0  0
  160.7310  210.8390  152.0370 C   0  0  1  0  0  3  0  0  0  0  0  0
  160.9740  211.1130  154.4930 N   0  0  0  0  0  0  0  0  0  0  0  0
  160.8090  211.8170  153.2130 C   0  0  0  0  0  2  0  0  0  0  0  0
  162.3790  207.3140  147.8590 C   0  0  0  0  0  1  0  0  0  0  0  0
  161.0260  205.3150  152.2850 N   0  0  0  0  0  0  0  0  0  0  0  0
  162.1090  208.5540  149.9510 N   0  0  0  0  0  0  0  0  0  0  0  0
  160.8510  205.9170  153.6030 C   0  0  0  0  0  2  0  0  0  0  0  0
  161.6370  206.1920  150.0240 C   0  0  0  0  0  0  0  0  0  0  0  0
  161.1810  207.4140  153.4590 C   0  0  0  0  0  3  0  0  0  0  0  0
  161.4950  207.5530  152.0120 C   0  0  0  0  0  0  0  0  0  0  0  0
  162.0120  207.3540  149.3020 C   0  0  0  0  0  0  0  0  0  0  0  0
  161.4020  206.3440  151.3910 C   0  0  0  0  0  0  0  0  0  0  0  0
  161.8500  208.6960  151.2810 C   0  0  0  0  0  0  0  0  0  0  0  0
  161.5100  204.8860  149.4400 N   0  0  0  0  0  2  0  0  0  0  0  0
  160.8420  204.5870  148.1850 C   0  0  0  0  0  2  0  0  0  0  0  0
  161.6620  203.5860  147.3850 C   0  0  2  0  0  3  0  0  0  0  0  0
  163.0810  204.8690  145.7050 C   0  0  0  0  0  1  0  0  0  0  0  0
  160.7060  204.7260  145.4950 O   0  0  0  0  0  1  0  0  0  0  0  0
  161.8330  204.0240  145.9240 C   0  0  2  0  0  3  0  0  0  0  0  0
  161.1150  202.1960  147.5210 C   0  0  0  0  0  0  0  0  0  0  0  0
  160.6940  201.5670  146.5140 O   0  0  0  0  0  0  0  0  0  0  0  0
  161.1130  201.5820  148.7650 O   0  0  0  0  0  1  0  0  0  0  0  0
  159.2680  213.5150  149.6660 C   0  0  0  0  0  2  0  0  0  0  0  0
  159.6730  212.8590  150.9820 C   0  0  0  0  0  2  0  0  0  0  0  0
  160.4930  213.7220  148.7800 C   0  0  0  0  0  2  0  0  0  0  0  0
  161.1680  212.3830  148.5000 C   0  0  0  0  0  2  0  0  0  0  0  0
  161.5860  211.7190  149.8070 C   0  0  0  0  0  2  0  0  0  0  0  0
  160.3690  211.5240  150.7180 C   0  0  0  0  0  3  0  0  0  0  0  0
  161.5680  212.0650  155.4210 C   0  0  0  0  0  2  0  0  0  0  0  0
  160.8720  211.9930  156.7740 C   0  0  0  0  0  2  0  0  0  0  0  0
  160.4680  213.3750  157.2610 C   0  0  0  0  0  2  0  0  0  0  0  0
  159.5190  213.9280  156.3980 O   0  0  0  0  0  0  0  0  0  0  0  0
  158.3570  213.2980  156.6970 N   0  0  0  0  0  2  0  0  0  0  0  0
  155.3340  213.3740  154.4670 C   0  0  0  0  0  3  0  0  0  0  0  0
  156.3360  211.1230  154.3280 C   0  0  0  0  0  2  0  0  0  0  0  0
  157.2880  211.5600  155.4210 C   0  0  0  0  0  0  0  0  0  0  0  0
  156.6850  213.9010  154.8710 C   0  0  1  0  0  3  0  0  0  0  0  0
  155.1680  212.0670  154.2150 C   0  0  0  0  0  3  0  0  0  0  0  0
  157.4450  212.8720  155.6800 C   0  0  0  0  0  0  0  0  0  0  0  0
  157.6230  214.3240  153.4140 Cl  0  0  0  0  0  0  0  0  0  0  0  0
  158.6040  209.5620  155.5760 C   0  0  0  0  0  3  0  0  0  0  0  0
  158.0630  210.5940  156.1400 N   0  0  0  0  0  0  0  0  0  0  0  0
  160.0200  207.8560  157.0120 C   0  0  0  0  0  3  0  0  0  0  0  0
  159.3750  208.6340  156.3550 C   0  0  0  0  0  0  0  0  0  0  0  0
  1 16  1  1  0  0  0
  1  4  1  0  0  0  0
  1  3  1  0  0  0  0
  2  5  1  0  0  0  0
  3  2  1  0  0  0  0
  4 31  1  6  0  0  0
  4  6  1  0  0  0  0
  5 32  1  0  0  0  0
  6  5  1  0  0  0  0
  7 14  1  0  0  0  0
  8 10  1  0  0  0  0
  9 16  2  0  0  0  0
 11 15  1  0  0  0  0
 12 10  1  0  0  0  0
 13 12  2  0  0  0  0
 14  9  1  0  0  0  0
 14 11  2  0  0  0  0
 15 13  1  0  0  0  0
 15  8  2  0  0  0  0
 16 13  1  0  0  0  0
 17 11  1  0  0  0  0
 18 17  1  0  0  0  0
 19 23  1  0  0  0  0
 19 18  1  1  0  0  0
 21 22  1  0  0  0  0
 22 20  1  1  0  0  0
 22 19  1  0  0  0  0
 23 25  1  0  0  0  0
 24 23  2  0  0  0  0
 26 27  1  0  0  0  0
 28 26  1  0  0  0  0
 29 28  1  0  0  0  0
 29 30  1  0  0  0  0
 30 31  1  0  0  0  0
 31 27  1  0  0  0  0
 32 33  1  0  0  0  0
 33 34  1  0  0  0  0
 35 36  1  0  0  0  0
 35 34  1  0  0  0  0
 37 40  1  0  0  0  0
 38 39  1  0  0  0  0
 39 42  2  0  0  0  0
 39 45  1  0  0  0  0
 40 43  1  6  0  0  0
 40 42  1  0  0  0  0
 41 38  1  0  0  0  0
 41 37  2  0  0  0  0
 42 36  1  0  0  0  0
 44 45  2  0  0  0  0
 44 47  1  0  0  0  0
 47 46  3  0  0  0  0
M  END
>  <MODEL>
9

>  <REMARK>
 VINA RESULT:      -4.4      5.170     11.950
  Name = 
  15 active torsions:
  status: ('A' for Active; 'I' for Inactive)
    1  A    between atoms: O_1  and  N_15
    2  A    between atoms: O_1  and  C_31
    3  A    between atoms: C_3  and  C_39
    4  A    between atoms: C_8  and  C_31
    5  A    between atoms: C_8  and  C_41
    6  A    between atoms: N_15  and  C_36
    7  A    between atoms: N_16  and  C_17
    8  A    between atoms: N_16  and  C_43
    9  A    between atoms: C_19  and  C_25
   10  A    between atoms: C_22  and  N_30
   11  A    between atoms: C_23  and  C_47
   12  A    between atoms: C_25  and  C_32
   13  A    between atoms: C_25  and  C_43
   14  A    between atoms: C_28  and  C_42
   15  A    between atoms: N_35  and  C_41
                            x       y       z     vdW  Elec       q    Type
                         _______ _______ _______ _____ _____    ______ ____

>  <TORSDO>
F 15

$$$$
