=
 OpenBabel11072413233D

 44 49  0  0  1  0  0  0  0  0999 V2000
  161.9220  214.0820  148.5030 C   0  0  0  0  0  2  0  0  0  0  0  0
  160.1450  207.8030  152.7940 O   0  0  0  0  0  1  0  0  0  0  0  0
  159.0890  213.1440  151.4930 C   0  0  0  0  0  2  0  0  0  0  0  0
  160.3330  211.6320  155.6180 C   0  0  0  0  0  3  0  0  0  0  0  0
  162.8290  210.2360  152.3950 C   0  0  0  0  0  2  0  0  0  0  0  0
  162.1680  211.9270  147.0080 O   0  0  0  0  0  0  0  0  0  0  0  0
  160.4640  209.8120  154.0080 C   0  0  0  0  0  0  0  0  0  0  0  0
  161.9460  214.1000  146.9670 C   0  0  0  0  0  2  0  0  0  0  0  0
  162.4480  208.0570  151.3960 O   0  0  0  0  0  0  0  0  0  0  0  0
  157.3710  213.5980  153.2460 C   0  0  0  0  0  2  0  0  0  0  0  0
  158.2070  212.5150  152.5670 C   0  0  2  0  0  3  0  0  0  0  0  0
  161.4640  212.8890  146.4330 O   0  0  0  0  0  0  0  0  0  0  0  0
  161.4930  211.5950  148.2070 C   0  0  2  0  0  3  0  0  0  0  0  0
  161.5650  210.0900  150.2020 C   0  0  2  0  0  3  0  0  0  0  0  0
  161.1090  208.5310  153.4990 C   0  0  2  0  0  0  0  0  0  0  0  0
  161.1890  212.8510  149.0520 C   0  0  2  0  0  3  0  0  0  0  0  0
  159.0050  212.3480  150.2000 C   0  0  0  0  0  2  0  0  0  0  0  0
  160.8620  210.4040  155.2190 C   0  0  0  0  0  3  0  0  0  0  0  0
  158.8370  213.6100  155.2930 C   0  0  1  0  0  3  0  0  0  0  0  0
  159.5520  210.5000  153.1910 C   0  0  0  0  0  3  0  0  0  0  0  0
  161.5190  208.5460  150.4450 C   0  0  1  0  0  3  0  0  0  0  0  0
  159.4280  212.3140  154.7990 C   0  0  0  0  0  0  0  0  0  0  0  0
  159.6900  213.1150  149.0780 C   0  0  0  0  0  2  0  0  0  0  0  0
  162.3650  208.7960  152.6010 C   0  0  2  0  0  3  0  0  0  0  0  0
  161.5590  207.6560  154.6630 C   0  0  0  0  0  1  0  0  0  0  0  0
  158.2380  214.4530  154.1680 C   0  0  0  0  0  2  0  0  0  0  0  0
  162.3380  210.5950  148.9900 C   0  0  0  0  0  2  0  0  0  0  0  0
  161.8870  210.9350  151.4300 C   0  0  0  0  0  2  0  0  0  0  0  0
  159.0400  211.7490  153.5620 C   0  0  0  0  0  0  0  0  0  0  0  0
  157.3400  214.3540  157.0110 O   0  0  0  0  0  1  0  0  0  0  0  0
  157.8350  213.3810  156.3800 C   0  0  0  0  0  0  0  0  0  0  0  0
  157.4600  212.0790  156.6980 O   0  0  0  0  0  0  0  0  0  0  0  0
  161.1240  206.4370  149.1450 C   0  0  0  0  0  3  0  0  0  0  0  0
  161.5850  207.7040  149.1850 C   0  0  0  0  0  0  0  0  0  0  0  0
  159.7640  204.5040  149.7950 C   0  0  0  0  0  2  0  0  0  0  0  0
  160.5120  205.7130  150.3050 C   0  0  1  0  0  3  0  0  0  0  0  0
  160.0940  203.3850  150.5810 O   0  0  0  0  0  0  0  0  0  0  0  0
  161.6040  205.1290  151.1460 C   0  0  0  0  0  2  0  0  0  0  0  0
  161.3590  203.6380  151.1370 C   0  0  1  0  0  3  0  0  0  0  0  0
  161.0920  204.2350  153.2690 C   0  0  0  0  0  1  0  0  0  0  0  0
  161.3930  203.1450  152.4460 O   0  0  0  0  0  0  0  0  0  0  0  0
  162.3600  208.2000  147.9960 C   0  0  0  0  0  2  0  0  0  0  0  0
  162.6540  207.0530  147.0360 C   0  0  0  0  0  2  0  0  0  0  0  0
  161.4700  206.5690  146.4830 O   0  0  0  0  0  1  0  0  0  0  0  0
  2 15  1  0  0  0  0
  6 13  1  0  0  0  0
  7 18  2  0  0  0  0
  8  1  1  0  0  0  0
  9 24  1  0  0  0  0
 10 26  1  0  0  0  0
 11  3  1  6  0  0  0
 11 10  1  0  0  0  0
 11 29  1  0  0  0  0
 12  8  1  0  0  0  0
 12  6  1  0  0  0  0
 13 27  1  1  0  0  0
 13 16  1  0  0  0  0
 14 27  1  6  0  0  0
 14 21  1  0  0  0  0
 14 28  1  0  0  0  0
 15  7  1  0  0  0  0
 15 25  1  1  0  0  0
 16  1  1  6  0  0  0
 16 23  1  0  0  0  0
 17  3  1  0  0  0  0
 18  4  1  0  0  0  0
 19 31  1  1  0  0  0
 20 29  2  0  0  0  0
 20  7  1  0  0  0  0
 21 34  1  6  0  0  0
 21  9  1  0  0  0  0
 22 19  1  0  0  0  0
 22  4  2  0  0  0  0
 23 17  1  0  0  0  0
 24  5  1  6  0  0  0
 24 15  1  0  0  0  0
 26 19  1  0  0  0  0
 28  5  1  0  0  0  0
 29 22  1  0  0  0  0
 31 32  2  0  0  0  0
 31 30  1  0  0  0  0
 33 34  2  0  0  0  0
 35 36  1  0  0  0  0
 35 37  1  0  0  0  0
 36 33  1  6  0  0  0
 36 38  1  0  0  0  0
 37 39  1  0  0  0  0
 39 38  1  0  0  0  0
 39 41  1  1  0  0  0
 41 40  1  0  0  0  0
 42 34  1  0  0  0  0
 43 42  1  0  0  0  0
 44 43  1  0  0  0  0
M  END
>  <MODEL>
1

>  <REMARK>
 VINA RESULT:      -2.9      0.000      0.000
  Name = 
  6 active torsions:
  status: ('A' for Active; 'I' for Inactive)
    1  A    between atoms: C_6  and  C_30
    2  A    between atoms: C_17  and  C_24
    3  A    between atoms: O_18  and  C_41
    4  A    between atoms: C_25  and  C_27
    5  A    between atoms: C_28  and  C_30
    6  A    between atoms: C_28  and  C_32
                            x       y       z     vdW  Elec       q    Type
                         _______ _______ _______ _____ _____    ______ ____

>  <TORSDO>
F 6

$$$$
=
 OpenBabel11072413233D

 44 49  0  0  1  0  0  0  0  0999 V2000
  158.7470  212.4290  150.8100 C   0  0  0  0  0  2  0  0  0  0  0  0
  162.0650  208.1820  156.4630 O   0  0  0  0  0  1  0  0  0  0  0  0
  161.3250  209.0860  150.9890 C   0  0  0  0  0  2  0  0  0  0  0  0
  160.1800  205.2630  153.2070 C   0  0  0  0  0  3  0  0  0  0  0  0
  158.7690  208.8810  155.0740 C   0  0  0  0  0  2  0  0  0  0  0  0
  159.4700  214.0310  152.7710 O   0  0  0  0  0  0  0  0  0  0  0  0
  160.9060  206.9480  154.8060 C   0  0  0  0  0  0  0  0  0  0  0  0
  158.9140  213.9490  150.6600 C   0  0  0  0  0  2  0  0  0  0  0  0
  160.0180  209.9000  156.8880 O   0  0  0  0  0  0  0  0  0  0  0  0
  162.5340  207.0760  150.1350 C   0  0  0  0  0  2  0  0  0  0  0  0
  162.2270  207.9170  151.3720 C   0  0  2  0  0  3  0  0  0  0  0  0
  159.8560  214.4530  151.5780 O   0  0  0  0  0  0  0  0  0  0  0  0
  160.0610  212.7590  152.9600 C   0  0  2  0  0  3  0  0  0  0  0  0
  160.2710  210.8620  154.5750 C   0  0  2  0  0  3  0  0  0  0  0  0
  160.8250  207.6010  156.1780 C   0  0  2  0  0  0  0  0  0  0  0  0
  159.7920  211.8260  151.7590 C   0  0  2  0  0  3  0  0  0  0  0  0
  161.8480  210.3830  151.5860 C   0  0  0  0  0  2  0  0  0  0  0  0
  160.1740  205.7870  154.5010 C   0  0  0  0  0  3  0  0  0  0  0  0
  160.9110  205.2760  150.8150 C   0  0  1  0  0  3  0  0  0  0  0  0
  161.6120  207.5890  153.7750 C   0  0  0  0  0  3  0  0  0  0  0  0
  160.8280  210.6790  156.0240 C   0  0  1  0  0  3  0  0  0  0  0  0
  160.8830  205.9070  152.1840 C   0  0  0  0  0  0  0  0  0  0  0  0
  161.0840  211.5630  151.0010 C   0  0  0  0  0  2  0  0  0  0  0  0
  159.6820  208.6670  156.2790 C   0  0  2  0  0  3  0  0  0  0  0  0
  160.5690  206.5560  157.2570 C   0  0  0  0  0  1  0  0  0  0  0  0
  161.3110  206.2610  149.7180 C   0  0  0  0  0  2  0  0  0  0  0  0
  159.5300  212.1550  154.2570 C   0  0  0  0  0  2  0  0  0  0  0  0
  159.5180  209.6630  154.0080 C   0  0  0  0  0  2  0  0  0  0  0  0
  161.6000  207.0930  152.4660 C   0  0  0  0  0  0  0  0  0  0  0  0
  162.6600  203.8780  151.6720 O   0  0  0  0  0  1  0  0  0  0  0  0
  161.7820  204.0600  150.7850 C   0  0  0  0  0  0  0  0  0  0  0  0
  161.6230  203.1320  149.7600 O   0  0  0  0  0  0  0  0  0  0  0  0
  162.5050  212.2480  157.0330 C   0  0  0  0  0  3  0  0  0  0  0  0
  161.2240  211.9680  156.7190 C   0  0  0  0  0  0  0  0  0  0  0  0
  163.8740  211.2500  155.2600 C   0  0  0  0  0  2  0  0  0  0  0  0
  163.6700  211.3480  156.7540 C   0  0  1  0  0  3  0  0  0  0  0  0
  165.2390  211.4210  154.9630 O   0  0  0  0  0  0  0  0  0  0  0  0
  164.9220  212.0060  157.2430 C   0  0  0  0  0  2  0  0  0  0  0  0
  165.7940  212.1610  156.0190 C   0  0  1  0  0  3  0  0  0  0  0  0
  167.9380  212.7690  156.1110 C   0  0  0  0  0  1  0  0  0  0  0  0
  167.0800  211.6800  156.2910 O   0  0  0  0  0  0  0  0  0  0  0  0
  160.1600  212.8810  157.2610 C   0  0  0  0  0  2  0  0  0  0  0  0
  159.8370  213.9790  156.2550 C   0  0  0  0  0  2  0  0  0  0  0  0
  158.4940  214.3390  156.3460 O   0  0  0  0  0  1  0  0  0  0  0  0
  3 11  1  0  0  0  0
  3 17  1  0  0  0  0
  4 18  1  0  0  0  0
  6 13  1  0  0  0  0
  7 15  1  0  0  0  0
  8  1  1  0  0  0  0
  8 12  1  0  0  0  0
 11 10  1  6  0  0  0
 11 29  1  0  0  0  0
 12  6  1  0  0  0  0
 13 27  1  1  0  0  0
 14 28  1  1  0  0  0
 14 21  1  0  0  0  0
 15 24  1  0  0  0  0
 15  2  1  0  0  0  0
 15 25  1  1  0  0  0
 16  1  1  6  0  0  0
 16 13  1  0  0  0  0
 18  7  2  0  0  0  0
 19 31  1  1  0  0  0
 19 22  1  0  0  0  0
 20  7  1  0  0  0  0
 21 34  1  1  0  0  0
 21  9  1  0  0  0  0
 22 29  1  0  0  0  0
 22  4  2  0  0  0  0
 23 17  1  0  0  0  0
 23 16  1  0  0  0  0
 24  5  1  6  0  0  0
 24  9  1  0  0  0  0
 26 10  1  0  0  0  0
 26 19  1  0  0  0  0
 27 14  1  0  0  0  0
 28  5  1  0  0  0  0
 29 20  2  0  0  0  0
 31 30  1  0  0  0  0
 32 31  2  0  0  0  0
 34 33  2  0  0  0  0
 34 42  1  0  0  0  0
 35 36  1  0  0  0  0
 36 33  1  6  0  0  0
 36 38  1  0  0  0  0
 37 35  1  0  0  0  0
 37 39  1  0  0  0  0
 39 41  1  1  0  0  0
 39 38  1  0  0  0  0
 40 41  1  0  0  0  0
 43 44  1  0  0  0  0
 43 42  1  0  0  0  0
M  END
>  <MODEL>
2

>  <REMARK>
 VINA RESULT:      -0.3      2.882      7.817
  Name = 
  6 active torsions:
  status: ('A' for Active; 'I' for Inactive)
    1  A    between atoms: C_6  and  C_30
    2  A    between atoms: C_17  and  C_24
    3  A    between atoms: O_18  and  C_41
    4  A    between atoms: C_25  and  C_27
    5  A    between atoms: C_28  and  C_30
    6  A    between atoms: C_28  and  C_32
                            x       y       z     vdW  Elec       q    Type
                         _______ _______ _______ _____ _____    ______ ____

>  <TORSDO>
F 6

$$$$
=
 OpenBabel11072413233D

 44 49  0  0  1  0  0  0  0  0999 V2000
  159.2740  212.7060  149.9090 C   0  0  0  0  0  2  0  0  0  0  0  0
  162.6310  207.1490  154.2500 O   0  0  0  0  0  1  0  0  0  0  0  0
  161.6590  209.2970  149.1730 C   0  0  0  0  0  2  0  0  0  0  0  0
  160.4130  205.1270  150.5540 C   0  0  0  0  0  3  0  0  0  0  0  0
  159.3130  208.2900  153.2650 C   0  0  0  0  0  2  0  0  0  0  0  0
  160.1900  213.7910  152.1270 O   0  0  0  0  0  0  0  0  0  0  0  0
  161.3180  206.3740  152.4380 C   0  0  0  0  0  0  0  0  0  0  0  0
  159.5200  214.2110  150.0910 C   0  0  0  0  0  2  0  0  0  0  0  0
  160.7120  208.8170  155.1770 O   0  0  0  0  0  0  0  0  0  0  0  0
  162.7040  207.4800  147.8180 C   0  0  0  0  0  2  0  0  0  0  0  0
  162.5120  208.0330  149.2290 C   0  0  2  0  0  3  0  0  0  0  0  0
  160.5370  214.4530  151.0360 O   0  0  0  0  0  0  0  0  0  0  0  0
  160.7150  212.4830  151.9890 C   0  0  2  0  0  3  0  0  0  0  0  0
  160.8990  210.2640  153.1250 C   0  0  2  0  0  3  0  0  0  0  0  0
  161.3460  206.7040  153.9230 C   0  0  2  0  0  0  0  0  0  0  0  0
  160.3300  211.8590  150.6310 C   0  0  2  0  0  3  0  0  0  0  0  0
  162.2870  210.4020  150.0090 C   0  0  0  0  0  2  0  0  0  0  0  0
  160.5050  205.3460  151.9290 C   0  0  0  0  0  3  0  0  0  0  0  0
  161.0170  205.6470  148.1820 C   0  0  1  0  0  3  0  0  0  0  0  0
  162.0050  207.1990  151.5320 C   0  0  0  0  0  3  0  0  0  0  0  0
  161.5200  209.7330  154.4580 C   0  0  1  0  0  3  0  0  0  0  0  0
  161.0970  205.9530  149.6570 C   0  0  0  0  0  0  0  0  0  0  0  0
  161.5630  211.7160  149.7520 C   0  0  0  0  0  2  0  0  0  0  0  0
  160.2740  207.7690  154.3320 C   0  0  2  0  0  3  0  0  0  0  0  0
  161.0870  205.4540  154.7570 C   0  0  0  0  0  1  0  0  0  0  0  0
  161.4160  206.8360  147.3090 C   0  0  0  0  0  2  0  0  0  0  0  0
  160.2190  211.6270  153.1510 C   0  0  0  0  0  2  0  0  0  0  0  0
  160.0490  209.2580  152.3550 C   0  0  0  0  0  2  0  0  0  0  0  0
  161.8950  207.0120  150.1490 C   0  0  0  0  0  0  0  0  0  0  0  0
  162.7610  204.5060  146.9980 O   0  0  0  0  0  0  0  0  0  0  0  0
  161.8130  204.4320  147.8270 C   0  0  0  0  0  0  0  0  0  0  0  0
  161.4920  203.2110  148.4120 O   0  0  0  0  0  1  0  0  0  0  0  0
  161.2020  211.7320  155.9400 C   0  0  0  0  0  3  0  0  0  0  0  0
  162.0250  210.8140  155.3960 C   0  0  0  0  0  0  0  0  0  0  0  0
  159.0030  211.0180  156.7570 C   0  0  0  0  0  2  0  0  0  0  0  0
  159.7260  211.8110  155.6930 C   0  0  1  0  0  3  0  0  0  0  0  0
  157.9300  211.7790  157.2570 O   0  0  0  0  0  0  0  0  0  0  0  0
  159.2680  213.2170  155.9220 C   0  0  0  0  0  2  0  0  0  0  0  0
  158.2520  213.1280  157.0360 C   0  0  1  0  0  3  0  0  0  0  0  0
  156.6730  213.2580  155.4670 C   0  0  0  0  0  1  0  0  0  0  0  0
  157.0920  213.8240  156.6740 O   0  0  0  0  0  0  0  0  0  0  0  0
  163.5040  211.0090  155.5790 C   0  0  0  0  0  2  0  0  0  0  0  0
  163.8390  211.1880  157.0560 C   0  0  0  0  0  2  0  0  0  0  0  0
  165.0540  211.8560  157.1990 O   0  0  0  0  0  1  0  0  0  0  0  0
  1  8  1  0  0  0  0
  1 16  1  0  0  0  0
  3 11  1  0  0  0  0
  3 17  1  0  0  0  0
  4 18  1  0  0  0  0
  7 15  1  0  0  0  0
  8 12  1  0  0  0  0
 11 10  1  6  0  0  0
 11 29  1  0  0  0  0
 12  6  1  0  0  0  0
 13  6  1  0  0  0  0
 13 27  1  1  0  0  0
 14 28  1  1  0  0  0
 14 27  1  0  0  0  0
 14 21  1  0  0  0  0
 15  2  1  0  0  0  0
 15 24  1  0  0  0  0
 15 25  1  1  0  0  0
 16 23  1  6  0  0  0
 16 13  1  0  0  0  0
 18  7  2  0  0  0  0
 19 31  1  1  0  0  0
 19 22  1  0  0  0  0
 20  7  1  0  0  0  0
 21  9  1  0  0  0  0
 21 34  1  1  0  0  0
 22 29  1  0  0  0  0
 22  4  2  0  0  0  0
 23 17  1  0  0  0  0
 24  5  1  6  0  0  0
 24  9  1  0  0  0  0
 26 10  1  0  0  0  0
 26 19  1  0  0  0  0
 28  5  1  0  0  0  0
 29 20  2  0  0  0  0
 30 31  2  0  0  0  0
 31 32  1  0  0  0  0
 34 42  1  0  0  0  0
 34 33  2  0  0  0  0
 35 37  1  0  0  0  0
 36 38  1  0  0  0  0
 36 33  1  1  0  0  0
 36 35  1  0  0  0  0
 38 39  1  0  0  0  0
 39 41  1  6  0  0  0
 39 37  1  0  0  0  0
 40 41  1  0  0  0  0
 42 43  1  0  0  0  0
 43 44  1  0  0  0  0
M  END
>  <MODEL>
3

>  <REMARK>
 VINA RESULT:       0.1      2.245      7.811
  Name = 
  6 active torsions:
  status: ('A' for Active; 'I' for Inactive)
    1  A    between atoms: C_6  and  C_30
    2  A    between atoms: C_17  and  C_24
    3  A    between atoms: O_18  and  C_41
    4  A    between atoms: C_25  and  C_27
    5  A    between atoms: C_28  and  C_30
    6  A    between atoms: C_28  and  C_32
                            x       y       z     vdW  Elec       q    Type
                         _______ _______ _______ _____ _____    ______ ____

>  <TORSDO>
F 6

$$$$
