=
 OpenBabel11072410563D

 42 45  0  0  1  0  0  0  0  0999 V2000
  160.4530  209.3340  152.0070 N   0  0  0  0  0  2  0  0  0  0  0  0
  160.9980  208.3360  152.6240 C   0  0  0  0  0  0  0  0  0  0  0  0
  161.9330  207.4550  151.9010 C   0  0  0  0  0  0  0  0  0  0  0  0
  162.1760  206.2680  152.3560 N   0  0  0  0  0  2  0  0  0  0  0  0
  162.0270  207.5430  149.4400 C   0  0  0  0  0  0  0  0  0  0  0  0
  162.6760  208.1550  148.2520 C   0  0  0  0  0  1  0  0  0  0  0  0
  162.4500  207.8780  150.6260 N   0  0  0  0  0  0  0  0  0  0  0  0
  160.9370  206.5380  149.2060 C   0  0  0  0  0  2  0  0  0  0  0  0
  160.7540  206.2710  147.7190 C   0  0  0  0  0  2  0  0  0  0  0  0
  161.0080  202.4950  145.3250 O   0  0  0  0  0  0  0  0  0  0  0  0
  161.3870  203.9980  147.1090 N   0  0  0  0  0  0  0  0  0  0  0  0
  161.3710  203.6260  145.7430 C   0  0  0  0  0  0  0  0  0  0  0  0
  161.8220  204.6490  144.8830 N   0  0  0  0  0  0  0  0  0  0  0  0
  162.1840  205.7820  145.7260 C   0  0  0  0  0  3  0  0  0  0  0  0
  161.8610  205.3760  147.1800 C   0  0  1  0  0  3  0  0  0  0  0  0
  161.0450  203.6910  149.5280 C   0  0  0  0  0  3  0  0  0  0  0  0
  160.7330  201.4820  150.4700 C   0  0  0  0  0  3  0  0  0  0  0  0
  161.0690  201.7480  148.0870 C   0  0  0  0  0  3  0  0  0  0  0  0
  160.8500  200.9240  149.1950 C   0  0  0  0  0  3  0  0  0  0  0  0
  160.8320  202.8660  150.6380 C   0  0  0  0  0  0  0  0  0  0  0  0
  160.7300  203.4070  151.8750 F   0  0  0  0  0  0  0  0  0  0  0  0
  161.1690  203.1400  148.2430 C   0  0  0  0  0  0  0  0  0  0  0  0
  160.8110  208.1860  154.1090 C   0  0  0  0  0  2  0  0  0  0  0  0
  160.9930  209.4710  154.9470 C   0  0  2  0  0  0  0  0  0  0  0  0
  162.1870  210.2800  154.4580 C   0  0  0  0  0  1  0  0  0  0  0  0
  161.2870  209.0660  156.2360 F   0  0  0  0  0  0  0  0  0  0  0  0
  159.5620  212.1570  156.0160 C   0  0  0  0  0  2  0  0  0  0  0  0
  159.7500  210.3840  155.0330 C   0  0  2  0  0  3  0  0  0  0  0  0
  160.0610  211.7690  154.7000 N   0  0  0  0  0  0  0  0  0  0  0  0
  159.2810  210.7270  156.4310 C   0  0  0  0  0  2  0  0  0  0  0  0
  159.0780  212.1960  153.7160 C   0  0  0  0  0  2  0  0  0  0  0  0
  159.7140  212.2170  152.3320 C   0  0  0  0  0  2  0  0  0  0  0  0
  158.8380  214.4530  152.4870 O   0  0  0  0  0  1  0  0  0  0  0  0
  159.5170  213.5710  151.6410 C   0  0  2  0  0  3  0  0  0  0  0  0
  158.9490  213.8470  147.8160 C   0  0  0  0  0  2  0  0  0  0  0  0
  157.4140  213.1180  150.2490 C   0  0  0  0  0  2  0  0  0  0  0  0
  156.8720  213.7730  146.6430 O   0  0  0  0  0  1  0  0  0  0  0  0
  158.8350  213.4820  150.3400 N   0  0  0  0  0  0  0  0  0  0  0  0
  159.6140  213.5630  149.1300 C   0  0  0  0  0  0  0  0  0  0  0  0
  160.8700  213.4730  149.1700 O   0  0  0  0  0  0  0  0  0  0  0  0
  156.7630  213.7480  149.0240 C   0  0  0  0  0  2  0  0  0  0  0  0
  157.5240  213.3030  147.7840 C   0  0  2  0  0  3  0  0  0  0  0  0
  1  2  2  0  0  0  0
  2 23  1  0  0  0  0
  3  4  2  0  0  0  0
  3  2  1  0  0  0  0
  5  7  2  0  0  0  0
  6  5  1  0  0  0  0
  7  3  1  0  0  0  0
  8  5  1  0  0  0  0
  9  8  1  0  0  0  0
 10 12  2  0  0  0  0
 11 15  1  0  0  0  0
 11 22  1  0  0  0  0
 12 11  1  0  0  0  0
 13 14  2  0  0  0  0
 13 12  1  0  0  0  0
 14 15  1  0  0  0  0
 15  9  1  6  0  0  0
 16 20  1  0  0  0  0
 17 20  2  0  0  0  0
 18 22  1  0  0  0  0
 18 19  2  0  0  0  0
 19 17  1  0  0  0  0
 20 21  1  0  0  0  0
 22 16  2  0  0  0  0
 23 24  1  0  0  0  0
 24 25  1  6  0  0  0
 24 26  1  0  0  0  0
 27 30  1  0  0  0  0
 28 24  1  1  0  0  0
 28 30  1  0  0  0  0
 29 28  1  0  0  0  0
 29 27  1  0  0  0  0
 31 29  1  0  0  0  0
 32 31  1  0  0  0  0
 34 32  1  0  0  0  0
 34 33  1  1  0  0  0
 35 39  1  0  0  0  0
 36 38  1  0  0  0  0
 38 34  1  0  0  0  0
 39 40  2  0  0  0  0
 39 38  1  0  0  0  0
 41 36  1  0  0  0  0
 42 37  1  6  0  0  0
 42 35  1  0  0  0  0
 42 41  1  0  0  0  0
M  END
>  <MODEL>
1

>  <REMARK>
 VINA RESULT:      -8.9      0.000      0.000
  Name = 
  13 active torsions:
  status: ('A' for Active; 'I' for Inactive)
    1  A    between atoms: C_4  and  C_25
    2  A    between atoms: C_5  and  C_12
    3  A    between atoms: C_5  and  C_30
    4  A    between atoms: C_6  and  C_32
    5  A    between atoms: C_6  and  C_41
    6  A    between atoms: C_13  and  C_25
    7  A    between atoms: C_13  and  C_42
    8  A    between atoms: N_15  and  C_38
    9  A    between atoms: N_19  and  C_41
   10  A    between atoms: N_21  and  C_22
   11  A    between atoms: C_22  and  C_23
   12  A    between atoms: C_23  and  C_30
   13  A    between atoms: N_27  and  C_32
                            x       y       z     vdW  Elec       q    Type
                         _______ _______ _______ _____ _____    ______ ____

>  <TORSDO>
F 13

$$$$
=
 OpenBabel11072410563D

 42 45  0  0  1  0  0  0  0  0999 V2000
  160.8720  205.7400  153.7840 N   0  0  0  0  0  2  0  0  0  0  0  0
  161.3220  206.7470  153.1090 C   0  0  0  0  0  0  0  0  0  0  0  0
  162.2550  206.5170  151.9910 C   0  0  0  0  0  0  0  0  0  0  0  0
  162.8850  205.3900  151.9050 N   0  0  0  0  0  2  0  0  0  0  0  0
  161.6030  207.5870  149.8690 C   0  0  0  0  0  0  0  0  0  0  0  0
  161.8310  208.7240  148.9410 C   0  0  0  0  0  1  0  0  0  0  0  0
  162.3410  207.4950  150.9390 N   0  0  0  0  0  0  0  0  0  0  0  0
  160.5520  206.5800  149.5030 C   0  0  0  0  0  2  0  0  0  0  0  0
  160.5390  206.3300  148.0010 C   0  0  0  0  0  2  0  0  0  0  0  0
  161.5440  202.8600  145.3540 O   0  0  0  0  0  0  0  0  0  0  0  0
  161.5060  204.2070  147.2960 N   0  0  0  0  0  0  0  0  0  0  0  0
  161.7160  203.9750  145.9150 C   0  0  0  0  0  0  0  0  0  0  0  0
  162.1550  205.1200  145.2190 N   0  0  0  0  0  0  0  0  0  0  0  0
  162.2690  206.1940  146.2000 C   0  0  0  0  0  3  0  0  0  0  0  0
  161.8040  205.6120  147.5520 C   0  0  1  0  0  3  0  0  0  0  0  0
  161.1470  203.6050  149.6570 C   0  0  0  0  0  3  0  0  0  0  0  0
  160.7110  201.3130  150.3040 C   0  0  0  0  0  3  0  0  0  0  0  0
  161.0630  201.8690  147.9740 C   0  0  0  0  0  3  0  0  0  0  0  0
  160.7980  200.9200  148.9660 C   0  0  0  0  0  3  0  0  0  0  0  0
  160.8880  202.6550  150.6500 C   0  0  0  0  0  0  0  0  0  0  0  0
  160.8150  203.0340  151.9480 F   0  0  0  0  0  0  0  0  0  0  0  0
  161.2400  203.2210  148.3100 C   0  0  0  0  0  0  0  0  0  0  0  0
  160.7580  208.1200  153.3550 C   0  0  0  0  0  2  0  0  0  0  0  0
  160.5820  208.5230  154.8360 C   0  0  2  0  0  0  0  0  0  0  0  0
  161.6000  207.8180  155.7210 C   0  0  0  0  0  1  0  0  0  0  0  0
  159.3340  208.0710  155.2240 F   0  0  0  0  0  0  0  0  0  0  0  0
  160.5480  211.5650  153.7650 C   0  0  0  0  0  2  0  0  0  0  0  0
  160.6180  210.0420  155.1140 C   0  0  2  0  0  3  0  0  0  0  0  0
  159.5390  210.7510  154.4360 N   0  0  0  0  0  0  0  0  0  0  0  0
  161.7040  210.8160  154.3960 C   0  0  0  0  0  2  0  0  0  0  0  0
  158.8940  211.5900  155.4360 C   0  0  0  0  0  2  0  0  0  0  0  0
  158.5510  212.9420  154.8250 C   0  0  0  0  0  2  0  0  0  0  0  0
  156.4690  211.7640  154.5610 O   0  0  0  0  0  1  0  0  0  0  0  0
  157.0820  213.0080  154.3920 C   0  0  2  0  0  3  0  0  0  0  0  0
  155.2550  214.2600  151.2100 C   0  0  0  0  0  2  0  0  0  0  0  0
  158.0070  213.5510  152.0650 C   0  0  0  0  0  2  0  0  0  0  0  0
  156.1180  214.3800  148.9880 O   0  0  0  0  0  1  0  0  0  0  0  0
  156.8880  213.4930  153.0160 N   0  0  0  0  0  0  0  0  0  0  0  0
  155.6310  214.0960  152.6520 C   0  0  0  0  0  0  0  0  0  0  0  0
  154.7980  214.4240  153.5400 O   0  0  0  0  0  0  0  0  0  0  0  0
  157.5210  213.3750  150.6320 C   0  0  0  0  0  2  0  0  0  0  0  0
  156.4880  214.4510  150.3320 C   0  0  2  0  0  3  0  0  0  0  0  0
  2 23  1  0  0  0  0
  2  1  2  0  0  0  0
  3  2  1  0  0  0  0
  4  3  2  0  0  0  0
  5  7  2  0  0  0  0
  6  5  1  0  0  0  0
  7  3  1  0  0  0  0
  8  5  1  0  0  0  0
  9  8  1  0  0  0  0
 10 12  2  0  0  0  0
 11 15  1  0  0  0  0
 11 22  1  0  0  0  0
 12 11  1  0  0  0  0
 13 12  1  0  0  0  0
 13 14  2  0  0  0  0
 14 15  1  0  0  0  0
 15  9  1  6  0  0  0
 16 20  1  0  0  0  0
 17 20  2  0  0  0  0
 18 22  1  0  0  0  0
 18 19  2  0  0  0  0
 19 17  1  0  0  0  0
 20 21  1  0  0  0  0
 22 16  2  0  0  0  0
 23 24  1  0  0  0  0
 24 26  1  0  0  0  0
 24 25  1  1  0  0  0
 27 30  1  0  0  0  0
 27 29  1  0  0  0  0
 28 24  1  6  0  0  0
 29 28  1  0  0  0  0
 29 31  1  0  0  0  0
 30 28  1  0  0  0  0
 32 31  1  0  0  0  0
 34 33  1  6  0  0  0
 34 32  1  0  0  0  0
 35 39  1  0  0  0  0
 36 38  1  0  0  0  0
 38 34  1  0  0  0  0
 39 38  1  0  0  0  0
 39 40  2  0  0  0  0
 41 36  1  0  0  0  0
 42 37  1  6  0  0  0
 42 41  1  0  0  0  0
 42 35  1  0  0  0  0
M  END
>  <MODEL>
2

>  <REMARK>
 VINA RESULT:      -8.8      1.703      2.425
  Name = 
  13 active torsions:
  status: ('A' for Active; 'I' for Inactive)
    1  A    between atoms: C_4  and  C_25
    2  A    between atoms: C_5  and  C_12
    3  A    between atoms: C_5  and  C_30
    4  A    between atoms: C_6  and  C_32
    5  A    between atoms: C_6  and  C_41
    6  A    between atoms: C_13  and  C_25
    7  A    between atoms: C_13  and  C_42
    8  A    between atoms: N_15  and  C_38
    9  A    between atoms: N_19  and  C_41
   10  A    between atoms: N_21  and  C_22
   11  A    between atoms: C_22  and  C_23
   12  A    between atoms: C_23  and  C_30
   13  A    between atoms: N_27  and  C_32
                            x       y       z     vdW  Elec       q    Type
                         _______ _______ _______ _____ _____    ______ ____

>  <TORSDO>
F 13

$$$$
=
 OpenBabel11072410563D

 42 45  0  0  1  0  0  0  0  0999 V2000
  161.7310  209.5330  156.0620 N   0  0  0  0  0  2  0  0  0  0  0  0
  160.8340  209.2440  155.1770 C   0  0  0  0  0  0  0  0  0  0  0  0
  160.9580  208.0020  154.3920 C   0  0  0  0  0  0  0  0  0  0  0  0
  160.4610  206.9000  154.8550 N   0  0  0  0  0  2  0  0  0  0  0  0
  161.7580  207.0770  152.2530 C   0  0  0  0  0  0  0  0  0  0  0  0
  162.2670  207.3820  150.8910 C   0  0  0  0  0  1  0  0  0  0  0  0
  161.5040  208.0660  153.0620 N   0  0  0  0  0  0  0  0  0  0  0  0
  161.5990  205.6340  152.6370 C   0  0  0  0  0  2  0  0  0  0  0  0
  161.9850  204.7190  151.4840 C   0  0  0  0  0  2  0  0  0  0  0  0
  161.1830  201.4630  148.5150 O   0  0  0  0  0  0  0  0  0  0  0  0
  161.0740  203.6000  149.5200 N   0  0  0  0  0  0  0  0  0  0  0  0
  160.9700  202.1880  149.5230 C   0  0  0  0  0  0  0  0  0  0  0  0
  160.5850  201.6610  150.7740 N   0  0  0  0  0  0  0  0  0  0  0  0
  160.3980  202.7960  151.6720 C   0  0  0  0  0  3  0  0  0  0  0  0
  160.7580  204.0630  150.8670 C   0  0  1  0  0  3  0  0  0  0  0  0
  162.1180  204.0560  147.3370 C   0  0  0  0  0  3  0  0  0  0  0  0
  161.6320  206.0960  146.1280 C   0  0  0  0  0  3  0  0  0  0  0  0
  160.5890  205.6810  148.2740 C   0  0  0  0  0  3  0  0  0  0  0  0
  160.7730  206.4980  147.1540 C   0  0  0  0  0  3  0  0  0  0  0  0
  162.3060  204.8760  146.2200 C   0  0  0  0  0  0  0  0  0  0  0  0
  163.1470  204.4910  145.2310 F   0  0  0  0  0  0  0  0  0  0  0  0
  161.2610  204.4520  148.3760 C   0  0  0  0  0  0  0  0  0  0  0  0
  159.5880  210.0820  155.0760 C   0  0  0  0  0  2  0  0  0  0  0  0
  159.7340  211.4230  154.3220 C   0  0  2  0  0  0  0  0  0  0  0  0
  160.8270  211.3410  153.2660 C   0  0  0  0  0  1  0  0  0  0  0  0
  160.1460  212.3580  155.2530 F   0  0  0  0  0  0  0  0  0  0  0  0
  157.5370  213.7620  154.0010 C   0  0  0  0  0  2  0  0  0  0  0  0
  158.4360  211.9630  153.6830 C   0  0  2  0  0  3  0  0  0  0  0  0
  158.6120  213.3000  153.1290 N   0  0  0  0  0  0  0  0  0  0  0  0
  157.3600  212.4050  154.6530 C   0  0  0  0  0  2  0  0  0  0  0  0
  158.0880  213.2650  151.7710 C   0  0  0  0  0  2  0  0  0  0  0  0
  158.9820  214.0920  150.8560 C   0  0  0  0  0  2  0  0  0  0  0  0
  157.5340  213.0630  149.2330 O   0  0  0  0  0  1  0  0  0  0  0  0
  158.4700  214.0850  149.4110 C   0  0  2  0  0  3  0  0  0  0  0  0
  160.1650  213.5770  145.9620 C   0  0  0  0  0  2  0  0  0  0  0  0
  160.9540  214.0310  148.7860 C   0  0  0  0  0  2  0  0  0  0  0  0
  162.4740  213.1660  145.5200 O   0  0  0  0  0  1  0  0  0  0  0  0
  159.5360  213.9860  148.4020 N   0  0  0  0  0  0  0  0  0  0  0  0
  159.1900  214.0380  147.0040 C   0  0  0  0  0  0  0  0  0  0  0  0
  158.0370  214.3980  146.6430 O   0  0  0  0  0  0  0  0  0  0  0  0
  161.8140  213.2390  147.8100 C   0  0  0  0  0  2  0  0  0  0  0  0
  161.6060  213.8000  146.4110 C   0  0  2  0  0  3  0  0  0  0  0  0
  2  1  2  0  0  0  0
  3  4  2  0  0  0  0
  3  2  1  0  0  0  0
  5  8  1  0  0  0  0
  5  7  2  0  0  0  0
  6  5  1  0  0  0  0
  7  3  1  0  0  0  0
  9  8  1  0  0  0  0
 10 12  2  0  0  0  0
 11 12  1  0  0  0  0
 11 15  1  0  0  0  0
 12 13  1  0  0  0  0
 13 14  2  0  0  0  0
 15  9  1  1  0  0  0
 15 14  1  0  0  0  0
 16 22  1  0  0  0  0
 17 20  1  0  0  0  0
 17 19  2  0  0  0  0
 18 22  2  0  0  0  0
 19 18  1  0  0  0  0
 20 16  2  0  0  0  0
 21 20  1  0  0  0  0
 22 11  1  0  0  0  0
 23  2  1  0  0  0  0
 24 25  1  6  0  0  0
 24 23  1  0  0  0  0
 24 26  1  0  0  0  0
 27 30  1  0  0  0  0
 28 24  1  1  0  0  0
 28 30  1  0  0  0  0
 29 28  1  0  0  0  0
 29 27  1  0  0  0  0
 31 29  1  0  0  0  0
 32 31  1  0  0  0  0
 34 33  1  1  0  0  0
 34 32  1  0  0  0  0
 35 42  1  0  0  0  0
 35 39  1  0  0  0  0
 38 36  1  0  0  0  0
 38 34  1  0  0  0  0
 39 38  1  0  0  0  0
 40 39  2  0  0  0  0
 41 36  1  0  0  0  0
 42 37  1  6  0  0  0
 42 41  1  0  0  0  0
M  END
>  <MODEL>
3

>  <REMARK>
 VINA RESULT:      -8.2      2.314      3.891
  Name = 
  13 active torsions:
  status: ('A' for Active; 'I' for Inactive)
    1  A    between atoms: C_4  and  C_25
    2  A    between atoms: C_5  and  C_12
    3  A    between atoms: C_5  and  C_30
    4  A    between atoms: C_6  and  C_32
    5  A    between atoms: C_6  and  C_41
    6  A    between atoms: C_13  and  C_25
    7  A    between atoms: C_13  and  C_42
    8  A    between atoms: N_15  and  C_38
    9  A    between atoms: N_19  and  C_41
   10  A    between atoms: N_21  and  C_22
   11  A    between atoms: C_22  and  C_23
   12  A    between atoms: C_23  and  C_30
   13  A    between atoms: N_27  and  C_32
                            x       y       z     vdW  Elec       q    Type
                         _______ _______ _______ _____ _____    ______ ____

>  <TORSDO>
F 13

$$$$
=
 OpenBabel11072410563D

 42 45  0  0  1  0  0  0  0  0999 V2000
  160.0780  206.4560  148.5870 N   0  0  0  0  0  2  0  0  0  0  0  0
  160.9340  206.9220  149.4360 C   0  0  0  0  0  0  0  0  0  0  0  0
  162.0800  207.7170  148.9560 C   0  0  0  0  0  0  0  0  0  0  0  0
  163.1260  207.1150  148.4890 N   0  0  0  0  0  2  0  0  0  0  0  0
  161.9580  210.0040  149.8660 C   0  0  0  0  0  0  0  0  0  0  0  0
  161.8790  211.4530  149.5510 C   0  0  0  0  0  1  0  0  0  0  0  0
  161.9560  209.1490  148.8830 N   0  0  0  0  0  0  0  0  0  0  0  0
  161.9990  209.5990  151.3110 C   0  0  0  0  0  2  0  0  0  0  0  0
  161.7380  210.7940  152.2170 C   0  0  0  0  0  2  0  0  0  0  0  0
  159.5250  212.6830  155.6220 O   0  0  0  0  0  0  0  0  0  0  0  0
  160.3350  210.9760  154.2010 N   0  0  0  0  0  0  0  0  0  0  0  0
  159.6800  212.2030  154.4680 C   0  0  0  0  0  0  0  0  0  0  0  0
  159.1980  212.8390  153.3050 N   0  0  0  0  0  0  0  0  0  0  0  0
  159.5330  211.9740  152.1790 C   0  0  0  0  0  3  0  0  0  0  0  0
  160.3140  210.7750  152.7570 C   0  0  1  0  0  3  0  0  0  0  0  0
  160.0640  208.7990  155.3200 C   0  0  0  0  0  3  0  0  0  0  0  0
  161.6160  208.0780  157.0330 C   0  0  0  0  0  3  0  0  0  0  0  0
  161.9110  210.2270  155.9560 C   0  0  0  0  0  3  0  0  0  0  0  0
  162.3310  209.2690  156.8840 C   0  0  0  0  0  3  0  0  0  0  0  0
  160.4810  207.8430  156.2520 C   0  0  0  0  0  0  0  0  0  0  0  0
  159.7810  206.6940  156.4040 F   0  0  0  0  0  0  0  0  0  0  0  0
  160.7730  210.0000  155.1650 C   0  0  0  0  0  0  0  0  0  0  0  0
  160.6640  206.7990  150.9110 C   0  0  0  0  0  2  0  0  0  0  0  0
  161.5820  205.8290  151.6880 C   0  0  2  0  0  0  0  0  0  0  0  0
  161.2060  205.7810  153.1620 C   0  0  0  0  0  1  0  0  0  0  0  0
  162.8610  206.3510  151.6190 F   0  0  0  0  0  0  0  0  0  0  0  0
  160.9860  202.6740  151.9900 C   0  0  0  0  0  2  0  0  0  0  0  0
  161.6500  204.3920  151.1240 C   0  0  2  0  0  3  0  0  0  0  0  0
  160.3590  203.7170  151.1830 N   0  0  0  0  0  0  0  0  0  0  0  0
  162.3310  203.3700  152.0110 C   0  0  0  0  0  2  0  0  0  0  0  0
  160.1150  203.1600  149.8610 C   0  0  0  0  0  2  0  0  0  0  0  0
  160.7790  201.7940  149.7500 C   0  0  0  0  0  2  0  0  0  0  0  0
  161.8690  200.3710  148.1440 O   0  0  0  0  0  1  0  0  0  0  0  0
  160.8540  201.3210  148.2940 C   0  0  2  0  0  3  0  0  0  0  0  0
  160.9080  203.1680  144.8860 C   0  0  0  0  0  2  0  0  0  0  0  0
  161.5910  203.7070  147.7220 C   0  0  0  0  0  2  0  0  0  0  0  0
  161.9560  205.2500  144.3740 O   0  0  0  0  0  1  0  0  0  0  0  0
  161.0250  202.4120  147.3210 N   0  0  0  0  0  0  0  0  0  0  0  0
  160.4560  202.2770  146.0040 C   0  0  0  0  0  0  0  0  0  0  0  0
  159.6280  201.3600  145.7560 O   0  0  0  0  0  0  0  0  0  0  0  0
  162.3180  204.3740  146.5610 C   0  0  0  0  0  2  0  0  0  0  0  0
  161.3430  204.5350  145.4040 C   0  0  2  0  0  3  0  0  0  0  0  0
  1  2  2  0  0  0  0
  2 23  1  0  0  0  0
  3  2  1  0  0  0  0
  4  3  2  0  0  0  0
  5  8  1  0  0  0  0
  6  5  1  0  0  0  0
  7  3  1  0  0  0  0
  7  5  2  0  0  0  0
  8  9  1  0  0  0  0
 11 12  1  0  0  0  0
 11 22  1  0  0  0  0
 12 10  2  0  0  0  0
 13 12  1  0  0  0  0
 14 15  1  0  0  0  0
 14 13  2  0  0  0  0
 15  9  1  6  0  0  0
 15 11  1  0  0  0  0
 16 20  1  0  0  0  0
 18 19  2  0  0  0  0
 19 17  1  0  0  0  0
 20 21  1  0  0  0  0
 20 17  2  0  0  0  0
 22 16  2  0  0  0  0
 22 18  1  0  0  0  0
 23 24  1  0  0  0  0
 24 25  1  1  0  0  0
 26 24  1  0  0  0  0
 27 30  1  0  0  0  0
 28 29  1  0  0  0  0
 28 24  1  1  0  0  0
 28 30  1  0  0  0  0
 29 27  1  0  0  0  0
 31 29  1  0  0  0  0
 32 31  1  0  0  0  0
 34 33  1  1  0  0  0
 34 32  1  0  0  0  0
 35 42  1  0  0  0  0
 35 39  1  0  0  0  0
 38 36  1  0  0  0  0
 38 34  1  0  0  0  0
 39 38  1  0  0  0  0
 40 39  2  0  0  0  0
 41 36  1  0  0  0  0
 42 37  1  6  0  0  0
 42 41  1  0  0  0  0
M  END
>  <MODEL>
4

>  <REMARK>
 VINA RESULT:      -8.0      2.848      9.143
  Name = 
  13 active torsions:
  status: ('A' for Active; 'I' for Inactive)
    1  A    between atoms: C_4  and  C_25
    2  A    between atoms: C_5  and  C_12
    3  A    between atoms: C_5  and  C_30
    4  A    between atoms: C_6  and  C_32
    5  A    between atoms: C_6  and  C_41
    6  A    between atoms: C_13  and  C_25
    7  A    between atoms: C_13  and  C_42
    8  A    between atoms: N_15  and  C_38
    9  A    between atoms: N_19  and  C_41
   10  A    between atoms: N_21  and  C_22
   11  A    between atoms: C_22  and  C_23
   12  A    between atoms: C_23  and  C_30
   13  A    between atoms: N_27  and  C_32
                            x       y       z     vdW  Elec       q    Type
                         _______ _______ _______ _____ _____    ______ ____

>  <TORSDO>
F 13

$$$$
=
 OpenBabel11072410563D

 42 45  0  0  1  0  0  0  0  0999 V2000
  161.4270  207.5080  154.8270 N   0  0  0  0  0  2  0  0  0  0  0  0
  160.8750  208.4940  154.1990 C   0  0  0  0  0  0  0  0  0  0  0  0
  160.7600  209.8070  154.8610 C   0  0  0  0  0  0  0  0  0  0  0  0
  161.8300  210.4860  155.1250 N   0  0  0  0  0  2  0  0  0  0  0  0
  158.8840  211.3410  154.4110 C   0  0  0  0  0  0  0  0  0  0  0  0
  157.4930  211.7240  154.7650 C   0  0  0  0  0  1  0  0  0  0  0  0
  159.4540  210.3730  155.0720 N   0  0  0  0  0  0  0  0  0  0  0  0
  159.5750  212.1190  153.3300 C   0  0  0  0  0  2  0  0  0  0  0  0
  158.7060  212.2050  152.0830 C   0  0  0  0  0  2  0  0  0  0  0  0
  156.1100  214.3600  149.1370 O   0  0  0  0  0  0  0  0  0  0  0  0
  158.0770  213.7260  150.2860 N   0  0  0  0  0  0  0  0  0  0  0  0
  156.7390  214.1860  150.2150 C   0  0  0  0  0  0  0  0  0  0  0  0
  156.1740  214.4500  151.4800 N   0  0  0  0  0  0  0  0  0  0  0  0
  157.2060  214.1680  152.4720 C   0  0  0  0  0  3  0  0  0  0  0  0
  158.4380  213.6540  151.6980 C   0  0  1  0  0  3  0  0  0  0  0  0
  160.3560  213.8210  149.3590 C   0  0  0  0  0  3  0  0  0  0  0  0
  160.7930  213.1900  147.0630 C   0  0  0  0  0  3  0  0  0  0  0  0
  158.5380  213.0870  147.9410 C   0  0  0  0  0  3  0  0  0  0  0  0
  159.4360  212.9090  146.8840 C   0  0  0  0  0  3  0  0  0  0  0  0
  161.2530  213.6480  148.3000 C   0  0  0  0  0  0  0  0  0  0  0  0
  162.5660  213.9310  148.4710 F   0  0  0  0  0  0  0  0  0  0  0  0
  158.9900  213.5460  149.1890 C   0  0  0  0  0  0  0  0  0  0  0  0
  160.5140  208.3450  152.7460 C   0  0  0  0  0  2  0  0  0  0  0  0
  161.6870  208.4390  151.7450 C   0  0  2  0  0  0  0  0  0  0  0  0
  162.3330  207.0780  151.5280 C   0  0  0  0  0  1  0  0  0  0  0  0
  162.6450  209.2470  152.3310 F   0  0  0  0  0  0  0  0  0  0  0  0
  162.5550  210.1350  149.1430 C   0  0  0  0  0  2  0  0  0  0  0  0
  161.3380  209.0700  150.3790 C   0  0  2  0  0  3  0  0  0  0  0  0
  162.3030  208.7120  149.3460 N   0  0  0  0  0  0  0  0  0  0  0  0
  161.6110  210.5540  150.2520 C   0  0  0  0  0  2  0  0  0  0  0  0
  161.5380  208.2360  148.2030 C   0  0  0  0  0  2  0  0  0  0  0  0
  161.8560  206.7690  147.9490 C   0  0  0  0  0  2  0  0  0  0  0  0
  159.9870  206.2190  149.3610 O   0  0  0  0  0  1  0  0  0  0  0  0
  160.6260  205.8790  148.1660 C   0  0  2  0  0  3  0  0  0  0  0  0
  161.2250  202.3300  146.7260 C   0  0  0  0  0  2  0  0  0  0  0  0
  161.0450  203.6580  149.3730 C   0  0  0  0  0  2  0  0  0  0  0  0
  161.2320  200.2590  147.9110 O   0  0  0  0  0  1  0  0  0  0  0  0
  160.9210  204.4380  148.1330 N   0  0  0  0  0  0  0  0  0  0  0  0
  161.2800  203.8210  146.8820 C   0  0  0  0  0  0  0  0  0  0  0  0
  161.5720  204.5280  145.8800 O   0  0  0  0  0  0  0  0  0  0  0  0
  160.6410  202.2060  149.1530 C   0  0  0  0  0  2  0  0  0  0  0  0
  161.5060  201.6220  148.0470 C   0  0  2  0  0  3  0  0  0  0  0  0
  2  1  2  0  0  0  0
  2  3  1  0  0  0  0
  3  7  1  0  0  0  0
  3  4  2  0  0  0  0
  5  6  1  0  0  0  0
  5  7  2  0  0  0  0
  8  5  1  0  0  0  0
  9  8  1  0  0  0  0
 10 12  2  0  0  0  0
 11 15  1  0  0  0  0
 12 11  1  0  0  0  0
 12 13  1  0  0  0  0
 13 14  2  0  0  0  0
 15  9  1  1  0  0  0
 15 14  1  0  0  0  0
 17 20  1  0  0  0  0
 18 22  2  0  0  0  0
 19 17  2  0  0  0  0
 19 18  1  0  0  0  0
 20 21  1  0  0  0  0
 20 16  2  0  0  0  0
 22 16  1  0  0  0  0
 22 11  1  0  0  0  0
 23  2  1  0  0  0  0
 24 25  1  6  0  0  0
 24 26  1  0  0  0  0
 24 23  1  0  0  0  0
 27 29  1  0  0  0  0
 27 30  1  0  0  0  0
 28 24  1  1  0  0  0
 29 28  1  0  0  0  0
 30 28  1  0  0  0  0
 31 29  1  0  0  0  0
 32 34  1  0  0  0  0
 32 31  1  0  0  0  0
 34 33  1  1  0  0  0
 35 39  1  0  0  0  0
 35 42  1  0  0  0  0
 38 34  1  0  0  0  0
 38 36  1  0  0  0  0
 39 38  1  0  0  0  0
 40 39  2  0  0  0  0
 41 36  1  0  0  0  0
 42 37  1  6  0  0  0
 42 41  1  0  0  0  0
M  END
>  <MODEL>
5

>  <REMARK>
 VINA RESULT:      -7.9      2.405      9.260
  Name = 
  13 active torsions:
  status: ('A' for Active; 'I' for Inactive)
    1  A    between atoms: C_4  and  C_25
    2  A    between atoms: C_5  and  C_12
    3  A    between atoms: C_5  and  C_30
    4  A    between atoms: C_6  and  C_32
    5  A    between atoms: C_6  and  C_41
    6  A    between atoms: C_13  and  C_25
    7  A    between atoms: C_13  and  C_42
    8  A    between atoms: N_15  and  C_38
    9  A    between atoms: N_19  and  C_41
   10  A    between atoms: N_21  and  C_22
   11  A    between atoms: C_22  and  C_23
   12  A    between atoms: C_23  and  C_30
   13  A    between atoms: N_27  and  C_32
                            x       y       z     vdW  Elec       q    Type
                         _______ _______ _______ _____ _____    ______ ____

>  <TORSDO>
F 13

$$$$
=
 OpenBabel11072410563D

 42 45  0  0  1  0  0  0  0  0999 V2000
  163.2470  212.2560  148.0470 N   0  0  0  0  0  2  0  0  0  0  0  0
  162.1390  211.8000  148.5320 C   0  0  0  0  0  0  0  0  0  0  0  0
  162.0530  210.3910  148.9560 C   0  0  0  0  0  0  0  0  0  0  0  0
  162.4240  209.4540  148.1430 N   0  0  0  0  0  2  0  0  0  0  0  0
  161.8140  208.9540  150.9430 C   0  0  0  0  0  0  0  0  0  0  0  0
  161.4330  208.8870  152.3780 C   0  0  0  0  0  1  0  0  0  0  0  0
  161.6940  210.0900  150.3160 N   0  0  0  0  0  0  0  0  0  0  0  0
  162.2840  207.6910  150.2810 C   0  0  0  0  0  2  0  0  0  0  0  0
  162.2800  206.5280  151.2640 C   0  0  0  0  0  2  0  0  0  0  0  0
  161.1150  202.3830  150.0320 O   0  0  0  0  0  0  0  0  0  0  0  0
  161.1050  204.7460  150.0880 N   0  0  0  0  0  0  0  0  0  0  0  0
  161.0410  203.4610  150.6800 C   0  0  0  0  0  0  0  0  0  0  0  0
  160.8710  203.5010  152.0790 N   0  0  0  0  0  0  0  0  0  0  0  0
  160.7940  204.9080  152.4560 C   0  0  0  0  0  3  0  0  0  0  0  0
  160.9900  205.7270  151.1620 C   0  0  1  0  0  3  0  0  0  0  0  0
  161.7680  204.2280  147.7740 C   0  0  0  0  0  3  0  0  0  0  0  0
  161.0610  205.6320  145.9330 C   0  0  0  0  0  3  0  0  0  0  0  0
  160.3930  206.1730  148.1970 C   0  0  0  0  0  3  0  0  0  0  0  0
  160.3770  206.4590  146.8280 C   0  0  0  0  0  3  0  0  0  0  0  0
  161.7580  204.5180  146.4060 C   0  0  0  0  0  0  0  0  0  0  0  0
  162.4300  203.7220  145.5400 F   0  0  0  0  0  0  0  0  0  0  0  0
  161.0890  205.0550  148.6820 C   0  0  0  0  0  0  0  0  0  0  0  0
  161.0050  212.7470  148.8190 C   0  0  0  0  0  2  0  0  0  0  0  0
  160.2540  213.2970  147.5860 C   0  0  2  0  0  0  0  0  0  0  0  0
  159.9880  212.1950  146.5700 C   0  0  0  0  0  1  0  0  0  0  0  0
  161.1010  214.2050  146.9780 F   0  0  0  0  0  0  0  0  0  0  0  0
  157.0480  213.2870  147.9390 C   0  0  0  0  0  2  0  0  0  0  0  0
  158.9380  214.0430  147.8960 C   0  0  2  0  0  3  0  0  0  0  0  0
  158.1410  213.3570  148.9050 N   0  0  0  0  0  0  0  0  0  0  0  0
  157.8590  213.9390  146.8380 C   0  0  0  0  0  2  0  0  0  0  0  0
  157.7790  214.3520  149.9040 C   0  0  0  0  0  2  0  0  0  0  0  0
  157.4460  213.6600  151.2190 C   0  0  0  0  0  2  0  0  0  0  0  0
  159.6510  214.4530  151.7710 O   0  0  0  0  0  1  0  0  0  0  0  0
  158.4330  214.0500  152.3260 C   0  0  2  0  0  3  0  0  0  0  0  0
  158.0140  212.0060  155.5930 C   0  0  0  0  0  2  0  0  0  0  0  0
  159.7410  212.0190  153.1810 C   0  0  0  0  0  2  0  0  0  0  0  0
  159.5040  210.3720  156.4910 O   0  0  0  0  0  1  0  0  0  0  0  0
  158.6510  212.9940  153.3270 N   0  0  0  0  0  0  0  0  0  0  0  0
  157.6700  212.7930  154.3640 C   0  0  0  0  0  0  0  0  0  0  0  0
  156.5370  213.3390  154.2870 O   0  0  0  0  0  0  0  0  0  0  0  0
  160.2300  211.5320  154.5390 C   0  0  0  0  0  2  0  0  0  0  0  0
  159.0540  210.9310  155.2930 C   0  0  2  0  0  3  0  0  0  0  0  0
  1  2  2  0  0  0  0
  2 23  1  0  0  0  0
  2  3  1  0  0  0  0
  3  7  1  0  0  0  0
  4  3  2  0  0  0  0
  5  6  1  0  0  0  0
  7  5  2  0  0  0  0
  8  5  1  0  0  0  0
  8  9  1  0  0  0  0
 10 12  2  0  0  0  0
 11 12  1  0  0  0  0
 11 15  1  0  0  0  0
 12 13  1  0  0  0  0
 13 14  2  0  0  0  0
 15  9  1  1  0  0  0
 15 14  1  0  0  0  0
 16 22  1  0  0  0  0
 17 20  1  0  0  0  0
 17 19  2  0  0  0  0
 18 22  2  0  0  0  0
 19 18  1  0  0  0  0
 20 16  2  0  0  0  0
 21 20  1  0  0  0  0
 22 11  1  0  0  0  0
 24 25  1  6  0  0  0
 24 23  1  0  0  0  0
 26 24  1  0  0  0  0
 27 29  1  0  0  0  0
 28 24  1  6  0  0  0
 28 29  1  0  0  0  0
 29 31  1  0  0  0  0
 30 28  1  0  0  0  0
 30 27  1  0  0  0  0
 31 32  1  0  0  0  0
 32 34  1  0  0  0  0
 34 33  1  6  0  0  0
 34 38  1  0  0  0  0
 36 38  1  0  0  0  0
 36 41  1  0  0  0  0
 38 39  1  0  0  0  0
 39 35  1  0  0  0  0
 40 39  2  0  0  0  0
 41 42  1  0  0  0  0
 42 35  1  0  0  0  0
 42 37  1  1  0  0  0
M  END
>  <MODEL>
6

>  <REMARK>
 VINA RESULT:      -7.9      2.907      5.988
  Name = 
  13 active torsions:
  status: ('A' for Active; 'I' for Inactive)
    1  A    between atoms: C_4  and  C_25
    2  A    between atoms: C_5  and  C_12
    3  A    between atoms: C_5  and  C_30
    4  A    between atoms: C_6  and  C_32
    5  A    between atoms: C_6  and  C_41
    6  A    between atoms: C_13  and  C_25
    7  A    between atoms: C_13  and  C_42
    8  A    between atoms: N_15  and  C_38
    9  A    between atoms: N_19  and  C_41
   10  A    between atoms: N_21  and  C_22
   11  A    between atoms: C_22  and  C_23
   12  A    between atoms: C_23  and  C_30
   13  A    between atoms: N_27  and  C_32
                            x       y       z     vdW  Elec       q    Type
                         _______ _______ _______ _____ _____    ______ ____

>  <TORSDO>
F 13

$$$$
=
 OpenBabel11072410563D

 42 45  0  0  1  0  0  0  0  0999 V2000
  161.9310  208.0770  147.5820 N   0  0  0  0  0  2  0  0  0  0  0  0
  162.1250  208.2340  148.8510 C   0  0  0  0  0  0  0  0  0  0  0  0
  162.1020  209.5910  149.4280 C   0  0  0  0  0  0  0  0  0  0  0  0
  161.5790  209.7800  150.5970 N   0  0  0  0  0  2  0  0  0  0  0  0
  162.2950  211.7820  148.3180 C   0  0  0  0  0  0  0  0  0  0  0  0
  163.2100  212.7680  147.6870 C   0  0  0  0  0  1  0  0  0  0  0  0
  162.7890  210.6550  148.7440 N   0  0  0  0  0  0  0  0  0  0  0  0
  160.8370  212.1270  148.3960 C   0  0  0  0  0  2  0  0  0  0  0  0
  160.2200  212.2000  147.0060 C   0  0  0  0  0  2  0  0  0  0  0  0
  157.8990  214.3270  143.8210 O   0  0  0  0  0  0  0  0  0  0  0  0
  159.7570  213.6980  145.1410 N   0  0  0  0  0  0  0  0  0  0  0  0
  158.4340  214.1660  144.9500 C   0  0  0  0  0  0  0  0  0  0  0  0
  157.7660  214.4530  146.1590 N   0  0  0  0  0  0  0  0  0  0  0  0
  158.7080  214.1790  147.2380 C   0  0  0  0  0  3  0  0  0  0  0  0
  159.9970  213.6440  146.5790 C   0  0  1  0  0  3  0  0  0  0  0  0
  160.6550  212.4080  143.2450 C   0  0  0  0  0  3  0  0  0  0  0  0
  162.6970  213.0860  142.1340 C   0  0  0  0  0  3  0  0  0  0  0  0
  161.8440  214.3760  143.9980 C   0  0  0  0  0  3  0  0  0  0  0  0
  162.8070  214.1740  143.0050 C   0  0  0  0  0  3  0  0  0  0  0  0
  161.6210  212.2020  142.2550 C   0  0  0  0  0  0  0  0  0  0  0  0
  161.5200  211.1420  141.4190 F   0  0  0  0  0  0  0  0  0  0  0  0
  160.7580  213.4950  144.1270 C   0  0  0  0  0  0  0  0  0  0  0  0
  162.1980  207.0300  149.7490 C   0  0  0  0  0  2  0  0  0  0  0  0
  161.0820  205.9780  149.5620 C   0  0  2  0  0  0  0  0  0  0  0  0
  161.4370  204.9920  148.4580 C   0  0  0  0  0  1  0  0  0  0  0  0
  159.9580  206.6630  149.1390 F   0  0  0  0  0  0  0  0  0  0  0  0
  161.7260  203.7350  151.7880 C   0  0  0  0  0  2  0  0  0  0  0  0
  160.6850  205.2050  150.8390 C   0  0  2  0  0  3  0  0  0  0  0  0
  161.7550  205.1930  151.8300 N   0  0  0  0  0  0  0  0  0  0  0  0
  160.6600  203.6950  150.7120 C   0  0  0  0  0  2  0  0  0  0  0  0
  161.1620  205.6060  153.0930 C   0  0  0  0  0  2  0  0  0  0  0  0
  161.2670  207.1190  153.2370 C   0  0  0  0  0  2  0  0  0  0  0  0
  160.1900  206.8080  155.3670 O   0  0  0  0  0  1  0  0  0  0  0  0
  161.1690  207.5530  154.7040 C   0  0  2  0  0  3  0  0  0  0  0  0
  160.9530  211.0060  156.4540 C   0  0  0  0  0  2  0  0  0  0  0  0
  160.3100  209.7990  153.8200 C   0  0  0  0  0  2  0  0  0  0  0  0
  159.7990  212.9530  155.6960 O   0  0  0  0  0  1  0  0  0  0  0  0
  160.9260  208.9940  154.8840 N   0  0  0  0  0  0  0  0  0  0  0  0
  161.4710  209.6620  156.0390 C   0  0  0  0  0  0  0  0  0  0  0  0
  162.3340  209.0920  156.7590 O   0  0  0  0  0  0  0  0  0  0  0  0
  159.5270  210.9710  154.4000 C   0  0  0  0  0  2  0  0  0  0  0  0
  160.4670  211.8100  155.2520 C   0  0  2  0  0  3  0  0  0  0  0  0
  1  2  2  0  0  0  0
  2  3  1  0  0  0  0
  2 23  1  0  0  0  0
  3  4  2  0  0  0  0
  5  8  1  0  0  0  0
  5  7  2  0  0  0  0
  6  5  1  0  0  0  0
  7  3  1  0  0  0  0
  9  8  1  0  0  0  0
 10 12  2  0  0  0  0
 11 15  1  0  0  0  0
 12 11  1  0  0  0  0
 12 13  1  0  0  0  0
 13 14  2  0  0  0  0
 15  9  1  1  0  0  0
 15 14  1  0  0  0  0
 16 22  1  0  0  0  0
 17 20  1  0  0  0  0
 17 19  2  0  0  0  0
 18 22  2  0  0  0  0
 19 18  1  0  0  0  0
 20 16  2  0  0  0  0
 21 20  1  0  0  0  0
 22 11  1  0  0  0  0
 24 25  1  6  0  0  0
 24 23  1  0  0  0  0
 26 24  1  0  0  0  0
 27 29  1  0  0  0  0
 28 24  1  6  0  0  0
 28 29  1  0  0  0  0
 29 31  1  0  0  0  0
 30 28  1  0  0  0  0
 30 27  1  0  0  0  0
 31 32  1  0  0  0  0
 32 34  1  0  0  0  0
 34 38  1  0  0  0  0
 34 33  1  6  0  0  0
 36 41  1  0  0  0  0
 36 38  1  0  0  0  0
 38 39  1  0  0  0  0
 39 35  1  0  0  0  0
 39 40  2  0  0  0  0
 41 42  1  0  0  0  0
 42 37  1  1  0  0  0
 42 35  1  0  0  0  0
M  END
>  <MODEL>
7

>  <REMARK>
 VINA RESULT:      -7.8      4.060      8.686
  Name = 
  13 active torsions:
  status: ('A' for Active; 'I' for Inactive)
    1  A    between atoms: C_4  and  C_25
    2  A    between atoms: C_5  and  C_12
    3  A    between atoms: C_5  and  C_30
    4  A    between atoms: C_6  and  C_32
    5  A    between atoms: C_6  and  C_41
    6  A    between atoms: C_13  and  C_25
    7  A    between atoms: C_13  and  C_42
    8  A    between atoms: N_15  and  C_38
    9  A    between atoms: N_19  and  C_41
   10  A    between atoms: N_21  and  C_22
   11  A    between atoms: C_22  and  C_23
   12  A    between atoms: C_23  and  C_30
   13  A    between atoms: N_27  and  C_32
                            x       y       z     vdW  Elec       q    Type
                         _______ _______ _______ _____ _____    ______ ____

>  <TORSDO>
F 13

$$$$
=
 OpenBabel11072410563D

 42 45  0  0  1  0  0  0  0  0999 V2000
  163.0040  211.8350  148.4030 N   0  0  0  0  0  2  0  0  0  0  0  0
  162.0650  211.3230  149.1300 C   0  0  0  0  0  0  0  0  0  0  0  0
  161.9910  209.8600  149.2990 C   0  0  0  0  0  0  0  0  0  0  0  0
  162.2760  209.0850  148.3030 N   0  0  0  0  0  2  0  0  0  0  0  0
  161.8370  208.0780  150.9950 C   0  0  0  0  0  0  0  0  0  0  0  0
  161.5890  207.7540  152.4230 C   0  0  0  0  0  1  0  0  0  0  0  0
  161.7400  209.3190  150.6090 N   0  0  0  0  0  0  0  0  0  0  0  0
  162.1520  206.9460  150.0610 C   0  0  0  0  0  2  0  0  0  0  0  0
  161.9720  205.6030  150.7550 C   0  0  0  0  0  2  0  0  0  0  0  0
  161.2700  201.7280  148.6230 O   0  0  0  0  0  0  0  0  0  0  0  0
  161.1880  204.0520  149.0470 N   0  0  0  0  0  0  0  0  0  0  0  0
  161.0040  202.6900  149.3910 C   0  0  0  0  0  0  0  0  0  0  0  0
  160.4750  202.5100  150.6850 N   0  0  0  0  0  0  0  0  0  0  0  0
  160.2680  203.8410  151.2470 C   0  0  0  0  0  3  0  0  0  0  0  0
  160.7730  204.8510  150.1950 C   0  0  1  0  0  3  0  0  0  0  0  0
  160.6380  205.4320  147.0830 C   0  0  0  0  0  3  0  0  0  0  0  0
  162.1840  205.6320  145.2300 C   0  0  0  0  0  3  0  0  0  0  0  0
  162.7560  204.2640  147.1450 C   0  0  0  0  0  3  0  0  0  0  0  0
  163.0810  204.7880  145.8910 C   0  0  0  0  0  3  0  0  0  0  0  0
  160.9600  205.9520  145.8260 C   0  0  0  0  0  0  0  0  0  0  0  0
  160.0850  206.7600  145.1810 F   0  0  0  0  0  0  0  0  0  0  0  0
  161.5300  204.5800  147.7530 C   0  0  0  0  0  0  0  0  0  0  0  0
  161.1680  212.2250  149.9330 C   0  0  0  0  0  2  0  0  0  0  0  0
  160.5650  213.4280  149.1750 C   0  0  2  0  0  0  0  0  0  0  0  0
  160.0270  213.0050  147.8150 C   0  0  0  0  0  1  0  0  0  0  0  0
  161.6040  214.3090  148.9370 F   0  0  0  0  0  0  0  0  0  0  0  0
  157.5520  213.6510  150.3050 C   0  0  0  0  0  2  0  0  0  0  0  0
  159.4760  214.2110  149.9410 C   0  0  2  0  0  3  0  0  0  0  0  0
  158.8300  213.3960  150.9640 N   0  0  0  0  0  0  0  0  0  0  0  0
  158.1850  214.4520  149.1860 C   0  0  0  0  0  2  0  0  0  0  0  0
  158.8510  214.1720  152.1950 C   0  0  0  0  0  2  0  0  0  0  0  0
  157.5720  213.9180  152.9810 C   0  0  0  0  0  2  0  0  0  0  0  0
  156.4190  212.3410  154.3870 O   0  0  0  0  0  1  0  0  0  0  0  0
  157.5540  212.5110  153.5890 C   0  0  2  0  0  3  0  0  0  0  0  0
  160.6300  210.4880  154.8040 C   0  0  0  0  0  2  0  0  0  0  0  0
  159.2410  213.0300  155.4460 C   0  0  0  0  0  2  0  0  0  0  0  0
  161.9240  210.8490  156.7760 O   0  0  0  0  0  1  0  0  0  0  0  0
  158.7690  212.1750  154.3480 N   0  0  0  0  0  0  0  0  0  0  0  0
  159.6120  211.1000  153.8880 C   0  0  0  0  0  0  0  0  0  0  0  0
  159.4540  210.6110  152.7380 O   0  0  0  0  0  0  0  0  0  0  0  0
  159.9930  212.2170  156.4920 C   0  0  0  0  0  2  0  0  0  0  0  0
  161.1530  211.5040  155.8140 C   0  0  2  0  0  3  0  0  0  0  0  0
  1  2  2  0  0  0  0
  2  3  1  0  0  0  0
  2 23  1  0  0  0  0
  3  7  1  0  0  0  0
  4  3  2  0  0  0  0
  5  6  1  0  0  0  0
  7  5  2  0  0  0  0
  8  9  1  0  0  0  0
  8  5  1  0  0  0  0
 10 12  2  0  0  0  0
 11 12  1  0  0  0  0
 11 15  1  0  0  0  0
 12 13  1  0  0  0  0
 13 14  2  0  0  0  0
 15  9  1  1  0  0  0
 15 14  1  0  0  0  0
 16 22  1  0  0  0  0
 17 20  1  0  0  0  0
 17 19  2  0  0  0  0
 18 22  2  0  0  0  0
 19 18  1  0  0  0  0
 20 16  2  0  0  0  0
 21 20  1  0  0  0  0
 22 11  1  0  0  0  0
 24 25  1  6  0  0  0
 24 23  1  0  0  0  0
 26 24  1  0  0  0  0
 27 29  1  0  0  0  0
 28 24  1  6  0  0  0
 28 29  1  0  0  0  0
 29 31  1  0  0  0  0
 30 28  1  0  0  0  0
 30 27  1  0  0  0  0
 31 32  1  0  0  0  0
 32 34  1  0  0  0  0
 34 38  1  0  0  0  0
 34 33  1  1  0  0  0
 35 42  1  0  0  0  0
 36 41  1  0  0  0  0
 38 36  1  0  0  0  0
 39 38  1  0  0  0  0
 39 35  1  0  0  0  0
 40 39  2  0  0  0  0
 42 41  1  0  0  0  0
 42 37  1  1  0  0  0
M  END
>  <MODEL>
8

>  <REMARK>
 VINA RESULT:      -7.7      2.835      5.564
  Name = 
  13 active torsions:
  status: ('A' for Active; 'I' for Inactive)
    1  A    between atoms: C_4  and  C_25
    2  A    between atoms: C_5  and  C_12
    3  A    between atoms: C_5  and  C_30
    4  A    between atoms: C_6  and  C_32
    5  A    between atoms: C_6  and  C_41
    6  A    between atoms: C_13  and  C_25
    7  A    between atoms: C_13  and  C_42
    8  A    between atoms: N_15  and  C_38
    9  A    between atoms: N_19  and  C_41
   10  A    between atoms: N_21  and  C_22
   11  A    between atoms: C_22  and  C_23
   12  A    between atoms: C_23  and  C_30
   13  A    between atoms: N_27  and  C_32
                            x       y       z     vdW  Elec       q    Type
                         _______ _______ _______ _____ _____    ______ ____

>  <TORSDO>
F 13

$$$$
=
 OpenBabel11072410563D

 42 45  0  0  1  0  0  0  0  0999 V2000
  161.0480  212.6070  149.3320 N   0  0  0  0  0  2  0  0  0  0  0  0
  161.5220  211.9370  148.3330 C   0  0  0  0  0  0  0  0  0  0  0  0
  162.3460  210.7400  148.5840 C   0  0  0  0  0  0  0  0  0  0  0  0
  163.5520  210.6850  148.1180 N   0  0  0  0  0  2  0  0  0  0  0  0
  161.8710  208.4260  149.2850 C   0  0  0  0  0  0  0  0  0  0  0  0
  161.3460  207.5470  150.3620 C   0  0  0  0  0  1  0  0  0  0  0  0
  161.8440  209.7160  149.4620 N   0  0  0  0  0  0  0  0  0  0  0  0
  162.3720  207.7760  148.0280 C   0  0  0  0  0  2  0  0  0  0  0  0
  161.4780  206.6110  147.6260 C   0  0  0  0  0  2  0  0  0  0  0  0
  160.6210  202.8260  145.3900 O   0  0  0  0  0  0  0  0  0  0  0  0
  161.5150  204.2410  147.0590 N   0  0  0  0  0  0  0  0  0  0  0  0
  161.2710  203.8530  145.7190 C   0  0  0  0  0  0  0  0  0  0  0  0
  161.8460  204.7280  144.7740 N   0  0  0  0  0  0  0  0  0  0  0  0
  162.5420  205.7670  145.5260 C   0  0  0  0  0  3  0  0  0  0  0  0
  162.2920  205.4760  147.0210 C   0  0  1  0  0  3  0  0  0  0  0  0
  161.2850  204.0960  149.5060 C   0  0  0  0  0  3  0  0  0  0  0  0
  160.6730  202.0130  150.5770 C   0  0  0  0  0  3  0  0  0  0  0  0
  160.8940  202.1190  148.1680 C   0  0  0  0  0  3  0  0  0  0  0  0
  160.6140  201.3900  149.3280 C   0  0  0  0  0  3  0  0  0  0  0  0
  161.0100  203.3660  150.6670 C   0  0  0  0  0  0  0  0  0  0  0  0
  161.0790  203.9670  151.8780 F   0  0  0  0  0  0  0  0  0  0  0  0
  161.2320  203.4790  148.2470 C   0  0  0  0  0  0  0  0  0  0  0  0
  161.0880  212.2770  146.9330 C   0  0  0  0  0  2  0  0  0  0  0  0
  161.3520  213.7300  146.4780 C   0  0  2  0  0  0  0  0  0  0  0  0
  162.4500  214.3750  147.3130 C   0  0  0  0  0  1  0  0  0  0  0  0
  160.1930  214.4410  146.7260 F   0  0  0  0  0  0  0  0  0  0  0  0
  162.4650  212.5270  143.7000 C   0  0  0  0  0  2  0  0  0  0  0  0
  161.6760  213.9020  144.9780 C   0  0  2  0  0  3  0  0  0  0  0  0
  161.1150  212.8270  144.1680 N   0  0  0  0  0  0  0  0  0  0  0  0
  163.1010  213.5900  144.5720 C   0  0  0  0  0  2  0  0  0  0  0  0
  160.4010  213.4570  143.0680 C   0  0  0  0  0  2  0  0  0  0  0  0
  159.6670  212.3960  142.2590 C   0  0  0  0  0  2  0  0  0  0  0  0
  158.8540  213.3010  140.1820 O   0  0  0  0  0  1  0  0  0  0  0  0
  159.9010  212.5720  140.7540 C   0  0  2  0  0  3  0  0  0  0  0  0
  161.7250  209.7190  138.8670 C   0  0  0  0  0  2  0  0  0  0  0  0
  158.9580  210.4760  139.6220 C   0  0  0  0  0  2  0  0  0  0  0  0
  160.7500  208.0060  137.5230 O   0  0  0  0  0  1  0  0  0  0  0  0
  160.0990  211.3060  140.0300 N   0  0  0  0  0  0  0  0  0  0  0  0
  161.4330  210.7780  139.8880 C   0  0  0  0  0  0  0  0  0  0  0  0
  162.3840  211.2520  140.5640 O   0  0  0  0  0  0  0  0  0  0  0  0
  159.2770  209.6810  138.3630 C   0  0  0  0  0  2  0  0  0  0  0  0
  160.5110  208.8300  138.6240 C   0  0  2  0  0  3  0  0  0  0  0  0
  2  3  1  0  0  0  0
  2  1  2  0  0  0  0
  3  7  1  0  0  0  0
  4  3  2  0  0  0  0
  5  7  2  0  0  0  0
  5  6  1  0  0  0  0
  8  5  1  0  0  0  0
  9  8  1  0  0  0  0
 10 12  2  0  0  0  0
 11 22  1  0  0  0  0
 12 11  1  0  0  0  0
 13 14  2  0  0  0  0
 13 12  1  0  0  0  0
 14 15  1  0  0  0  0
 15 11  1  0  0  0  0
 15  9  1  6  0  0  0
 16 20  1  0  0  0  0
 17 20  2  0  0  0  0
 18 22  1  0  0  0  0
 18 19  2  0  0  0  0
 19 17  1  0  0  0  0
 20 21  1  0  0  0  0
 22 16  2  0  0  0  0
 23  2  1  0  0  0  0
 24 26  1  0  0  0  0
 24 23  1  0  0  0  0
 24 25  1  1  0  0  0
 27 29  1  0  0  0  0
 27 30  1  0  0  0  0
 28 24  1  1  0  0  0
 29 28  1  0  0  0  0
 30 28  1  0  0  0  0
 31 29  1  0  0  0  0
 32 31  1  0  0  0  0
 34 33  1  6  0  0  0
 34 32  1  0  0  0  0
 35 39  1  0  0  0  0
 36 38  1  0  0  0  0
 38 34  1  0  0  0  0
 39 38  1  0  0  0  0
 39 40  2  0  0  0  0
 41 42  1  0  0  0  0
 41 36  1  0  0  0  0
 42 37  1  6  0  0  0
 42 35  1  0  0  0  0
M  END
>  <MODEL>
9

>  <REMARK>
 VINA RESULT:      -7.7      4.970      7.593
  Name = 
  13 active torsions:
  status: ('A' for Active; 'I' for Inactive)
    1  A    between atoms: C_4  and  C_25
    2  A    between atoms: C_5  and  C_12
    3  A    between atoms: C_5  and  C_30
    4  A    between atoms: C_6  and  C_32
    5  A    between atoms: C_6  and  C_41
    6  A    between atoms: C_13  and  C_25
    7  A    between atoms: C_13  and  C_42
    8  A    between atoms: N_15  and  C_38
    9  A    between atoms: N_19  and  C_41
   10  A    between atoms: N_21  and  C_22
   11  A    between atoms: C_22  and  C_23
   12  A    between atoms: C_23  and  C_30
   13  A    between atoms: N_27  and  C_32
                            x       y       z     vdW  Elec       q    Type
                         _______ _______ _______ _____ _____    ______ ____

>  <TORSDO>
F 13

$$$$
