=
 OpenBabel11072413393D

 59 65  0  0  1  0  0  0  0  0999 V2000
  162.6210  211.9980  149.1290 C   0  0  0  0  0  1  0  0  0  0  0  0
  161.5120  212.9280  148.6590 C   0  0  1  0  0  3  0  0  0  0  0  0
  160.5570  211.3680  147.1650 O   0  0  0  0  0  0  0  0  0  0  0  0
  161.0200  212.4910  147.3010 C   0  0  0  0  0  0  0  0  0  0  0  0
  161.1060  213.3890  146.1010 C   0  0  0  0  0  2  0  0  0  0  0  0
  160.7980  212.6810  144.9360 O   0  0  0  0  0  0  0  0  0  0  0  0
  159.4160  213.7340  143.3520 C   0  0  0  0  0  0  0  0  0  0  0  0
  159.3690  213.4900  141.9980 O   0  0  0  0  0  0  0  0  0  0  0  0
  161.5790  213.1400  142.7080 C   0  0  1  0  0  3  0  0  0  0  0  0
  162.9200  213.8600  142.6130 C   0  0  0  0  0  1  0  0  0  0  0  0
  160.7770  213.6350  143.9120 C   0  0  2  0  0  3  0  0  0  0  0  0
  160.6600  213.2590  141.4600 C   0  0  2  0  0  0  0  0  0  0  0  0
  158.3930  214.0130  144.0300 O   0  0  0  0  0  0  0  0  0  0  0  0
  161.0170  214.4520  140.5680 C   0  0  0  0  0  1  0  0  0  0  0  0
  160.6870  211.9210  140.6810 C   0  0  2  0  0  3  0  0  0  0  0  0
  162.2170  210.1320  140.3520 O   0  0  0  0  0  0  0  0  0  0  0  0
  161.7730  210.9750  141.1160 C   0  0  0  0  0  3  0  0  0  0  0  0
  160.5810  212.0000  139.1510 C   0  0  2  0  0  3  0  0  0  0  0  0
  161.7250  212.6850  138.5630 N   0  0  0  0  0  2  0  0  0  0  0  0
  161.2960  213.1990  137.2730 C   0  0  0  0  0  1  0  0  0  0  0  0
  159.2740  212.6680  138.7410 C   0  0  0  0  0  2  0  0  0  0  0  0
  158.1420  211.6910  138.7140 C   0  0  0  0  0  0  0  0  0  0  0  0
  159.3270  210.1640  137.2740 N   0  0  0  0  0  2  0  0  0  0  0  0
  155.8580  211.0200  139.4260 C   0  0  0  0  0  2  0  0  0  0  0  0
  157.0770  209.5060  137.8290 C   0  0  0  0  0  2  0  0  0  0  0  0
  157.0190  211.9710  139.3870 C   0  0  0  0  0  3  0  0  0  0  0  0
  158.2320  210.4590  137.8950 C   0  0  0  0  0  0  0  0  0  0  0  0
  155.7580  210.2350  138.1170 C   0  0  1  0  0  3  0  0  0  0  0  0
  154.5550  209.2930  138.1380 C   0  0  0  0  0  3  0  0  0  0  0  0
  154.1330  208.9840  139.5630 C   0  0  0  0  0  1  0  0  0  0  0  0
  153.3680  209.8340  137.3530 C   0  0  0  0  0  1  0  0  0  0  0  0
  160.3930  212.9510  149.6950 C   0  0  0  0  0  2  0  0  0  0  0  0
  160.5200  211.1480  151.3770 C   0  0  0  0  0  0  0  0  0  0  0  0
  160.2790  213.3730  152.0520 O   0  0  0  0  0  0  0  0  0  0  0  0
  160.8900  212.5520  151.0810 C   0  0  2  0  0  3  0  0  0  0  0  0
  159.6470  211.1110  152.5680 C   0  0  2  0  0  3  0  0  0  0  0  0
  159.3440  212.5840  152.7650 C   0  0  2  0  0  3  0  0  0  0  0  0
  157.9340  212.8950  152.2920 C   0  0  0  0  0  1  0  0  0  0  0  0
  160.8750  210.1230  150.5690 C   0  0  0  0  0  3  0  0  0  0  0  0
  162.9820  206.7540  148.7980 C   0  0  1  0  0  3  0  0  0  0  0  0
  160.5050  208.6560  150.6180 C   0  0  2  0  0  3  0  0  0  0  0  0
  160.6510  208.0500  151.9410 C   0  0  0  0  0  2  0  0  0  0  0  0
  160.4220  207.3740  147.5940 O   0  0  0  0  0  0  0  0  0  0  0  0
  162.5370  206.1140  147.4910 C   0  0  0  0  0  2  0  0  0  0  0  0
  161.7280  207.7450  150.8730 C   0  0  2  0  0  0  0  0  0  0  0  0
  161.0150  206.1070  147.4940 C   0  0  1  0  0  0  0  0  0  0  0  0
  163.5550  207.9980  148.5260 O   0  0  0  0  0  1  0  0  0  0  0  0
  160.4560  206.5820  148.7680 C   0  0  1  0  0  3  0  0  0  0  0  0
  161.6880  206.9410  149.5980 C   0  0  1  0  0  0  0  0  0  0  0  0
  160.1960  205.1010  146.7100 C   0  0  0  0  0  1  0  0  0  0  0  0
  161.6140  206.2560  150.8810 N   0  0  0  0  0  0  0  0  0  0  0  0
  162.9010  205.7490  151.3580 C   0  0  0  0  0  2  0  0  0  0  0  0
  162.6880  204.5350  152.2520 C   0  0  0  0  0  2  0  0  0  0  0  0
  161.2690  203.9960  152.1270 C   0  0  0  0  0  2  0  0  0  0  0  0
  161.0570  203.4000  150.8050 C   0  0  0  0  0  0  0  0  0  0  0  0
  160.8790  202.9080  149.7210 C   0  0  0  0  0  3  0  0  0  0  0  0
  160.3600  210.5960  153.7890 C   0  0  0  0  0  0  0  0  0  0  0  0
  161.8520  210.6050  153.8940 C   0  0  0  0  0  1  0  0  0  0  0  0
  159.7040  210.2030  154.7400 O   0  0  0  0  0  0  0  0  0  0  0  0
  2  1  1  1  0  0  0
  2 32  1  0  0  0  0
  3  4  2  0  0  0  0
  4  2  1  0  0  0  0
  5  4  1  0  0  0  0
  6  5  1  0  0  0  0
  7 11  1  0  0  0  0
  7 13  2  0  0  0  0
  8  7  1  0  0  0  0
  9 10  1  6  0  0  0
  9 11  1  0  0  0  0
 11  6  1  1  0  0  0
 12 14  1  6  0  0  0
 12  8  1  0  0  0  0
 12  9  1  0  0  0  0
 15 17  1  6  0  0  0
 15 12  1  0  0  0  0
 16 17  2  0  0  0  0
 18 21  1  1  0  0  0
 18 15  1  0  0  0  0
 19 18  1  0  0  0  0
 20 19  1  0  0  0  0
 22 21  1  0  0  0  0
 22 26  2  0  0  0  0
 23 27  2  0  0  0  0
 25 27  1  0  0  0  0
 25 28  1  0  0  0  0
 26 24  1  0  0  0  0
 27 22  1  0  0  0  0
 28 29  1  1  0  0  0
 28 24  1  0  0  0  0
 29 30  1  0  0  0  0
 31 29  1  0  0  0  0
 33 36  1  0  0  0  0
 34 37  1  0  0  0  0
 35 32  1  6  0  0  0
 35 33  1  0  0  0  0
 35 34  1  0  0  0  0
 36 37  1  0  0  0  0
 36 57  1  1  0  0  0
 37 38  1  6  0  0  0
 39 33  2  0  0  0  0
 40 47  1  6  0  0  0
 40 49  1  0  0  0  0
 41 39  1  1  0  0  0
 41 45  1  0  0  0  0
 41 42  1  0  0  0  0
 44 46  1  0  0  0  0
 44 40  1  0  0  0  0
 45 51  1  0  0  0  0
 45 42  1  1  0  0  0
 46 50  1  6  0  0  0
 46 43  1  0  0  0  0
 46 48  1  0  0  0  0
 48 43  1  6  0  0  0
 48 49  1  0  0  0  0
 49 45  1  0  0  0  0
 49 51  1  1  0  0  0
 51 52  1  0  0  0  0
 52 53  1  0  0  0  0
 54 53  1  0  0  0  0
 55 54  1  0  0  0  0
 56 55  3  0  0  0  0
 57 58  1  0  0  0  0
 57 59  2  0  0  0  0
M  END
>  <MODEL>
1

>  <REMARK>
 VINA RESULT:      -1.9      0.000      0.000
  Name = 
  19 active torsions:
  status: ('A' for Active; 'I' for Inactive)
    1  A    between atoms: C_4  and  C_13
    2  A    between atoms: C_4  and  C_34
    3  A    between atoms: C_6  and  C_57
    4  A    between atoms: C_8  and  C_27
    5  A    between atoms: C_8  and  C_29
    6  A    between atoms: C_8  and  C_42
    7  A    between atoms: C_9  and  C_25
    8  A    between atoms: C_9  and  C_29
    9  A    between atoms: C_11  and  C_34
   10  A    between atoms: N_12  and  C_29
   11  A    between atoms: C_13  and  N_59
   12  A    between atoms: C_14  and  C_56
   13  A    between atoms: C_21  and  C_45
   14  A    between atoms: C_26  and  O_38
   15  A    between atoms: C_32  and  O_38
   16  A    between atoms: C_32  and  C_55
   17  A    between atoms: C_35  and  C_40
   18  A    between atoms: C_35  and  C_51
   19  A    between atoms: C_51  and  C_55
                            x       y       z     vdW  Elec       q    Type
                         _______ _______ _______ _____ _____    ______ ____

>  <TORSDO>
F 19

$$$$
=
 OpenBabel11072413393D

 59 65  0  0  1  0  0  0  0  0999 V2000
  161.9760  211.9700  149.9320 C   0  0  0  0  0  1  0  0  0  0  0  0
  161.1340  212.9660  149.1500 C   0  0  1  0  0  3  0  0  0  0  0  0
  162.1580  211.9550  147.2770 O   0  0  0  0  0  0  0  0  0  0  0  0
  161.2810  212.7090  147.6700 C   0  0  0  0  0  0  0  0  0  0  0  0
  160.3940  213.3770  146.6590 C   0  0  0  0  0  2  0  0  0  0  0  0
  160.4020  212.6650  145.4550 O   0  0  0  0  0  0  0  0  0  0  0  0
  159.2650  213.9920  143.8820 C   0  0  0  0  0  0  0  0  0  0  0  0
  159.1920  213.7890  142.5220 O   0  0  0  0  0  0  0  0  0  0  0  0
  161.2870  213.0150  143.2460 C   0  0  1  0  0  3  0  0  0  0  0  0
  162.7400  213.4710  143.1810 C   0  0  0  0  0  1  0  0  0  0  0  0
  160.5760  213.6270  144.4530 C   0  0  2  0  0  3  0  0  0  0  0  0
  160.4250  213.3310  141.9920 C   0  0  2  0  0  0  0  0  0  0  0  0
  158.3030  214.4440  144.5560 O   0  0  0  0  0  0  0  0  0  0  0  0
  161.0130  214.4530  141.1310 C   0  0  0  0  0  1  0  0  0  0  0  0
  160.2110  212.0280  141.1830 C   0  0  2  0  0  3  0  0  0  0  0  0
  161.4470  210.1560  140.3960 O   0  0  0  0  0  0  0  0  0  0  0  0
  161.4100  211.1200  141.1450 C   0  0  0  0  0  3  0  0  0  0  0  0
  159.5560  212.1620  139.8010 C   0  0  2  0  0  3  0  0  0  0  0  0
  160.4840  212.6910  138.8090 N   0  0  0  0  0  2  0  0  0  0  0  0
  160.3970  211.8290  137.6420 C   0  0  0  0  0  1  0  0  0  0  0  0
  158.3000  213.0200  139.8870 C   0  0  0  0  0  2  0  0  0  0  0  0
  157.0770  212.2480  139.5060 C   0  0  0  0  0  0  0  0  0  0  0  0
  155.5900  214.0090  140.2150 N   0  0  0  0  0  2  0  0  0  0  0  0
  156.0270  210.2050  138.5620 C   0  0  0  0  0  2  0  0  0  0  0  0
  154.5020  212.0120  139.4200 C   0  0  0  0  0  2  0  0  0  0  0  0
  157.2110  211.0190  138.9940 C   0  0  0  0  0  3  0  0  0  0  0  0
  155.7270  212.8080  139.7570 C   0  0  0  0  0  0  0  0  0  0  0  0
  154.8120  210.5090  139.4400 C   0  0  1  0  0  3  0  0  0  0  0  0
  153.6140  209.6540  139.0270 C   0  0  0  0  0  3  0  0  0  0  0  0
  153.0690  208.8780  140.2120 C   0  0  0  0  0  1  0  0  0  0  0  0
  152.5010  210.4700  138.3860 C   0  0  0  0  0  1  0  0  0  0  0  0
  159.6810  212.8750  149.6060 C   0  0  0  0  0  2  0  0  0  0  0  0
  159.0330  212.4000  151.9400 C   0  0  0  0  0  0  0  0  0  0  0  0
  158.4860  214.4510  150.9600 O   0  0  0  0  0  0  0  0  0  0  0  0
  159.4850  213.4550  151.0020 C   0  0  2  0  0  3  0  0  0  0  0  0
  157.7080  212.7630  152.4850 C   0  0  2  0  0  3  0  0  0  0  0  0
  157.3340  213.9430  151.6090 C   0  0  2  0  0  3  0  0  0  0  0  0
  156.3000  213.5220  150.5780 C   0  0  0  0  0  1  0  0  0  0  0  0
  159.7300  211.2580  152.1310 C   0  0  0  0  0  3  0  0  0  0  0  0
  162.3910  208.0500  153.3770 C   0  0  1  0  0  3  0  0  0  0  0  0
  159.3940  210.0190  152.9340 C   0  0  2  0  0  3  0  0  0  0  0  0
  159.0650  210.2890  154.3320 C   0  0  0  0  0  2  0  0  0  0  0  0
  160.4240  207.3110  151.3850 O   0  0  0  0  0  0  0  0  0  0  0  0
  162.4570  206.7180  152.6440 C   0  0  0  0  0  2  0  0  0  0  0  0
  160.4590  209.7020  154.0080 C   0  0  2  0  0  0  0  0  0  0  0  0
  161.0360  206.3700  152.2260 C   0  0  1  0  0  0  0  0  0  0  0  0
  163.0020  209.0320  152.5950 O   0  0  0  0  0  1  0  0  0  0  0  0
  160.0480  207.3240  152.7500 C   0  0  1  0  0  3  0  0  0  0  0  0
  160.8930  208.3470  153.5090 C   0  0  1  0  0  0  0  0  0  0  0  0
  160.5710  204.9450  152.0010 C   0  0  0  0  0  1  0  0  0  0  0  0
  160.3760  208.4810  154.8640 N   0  0  0  0  0  0  0  0  0  0  0  0
  161.4150  208.6250  155.8840 C   0  0  0  0  0  2  0  0  0  0  0  0
  161.9330  210.0570  155.9050 C   0  0  0  0  0  2  0  0  0  0  0  0
  162.7950  210.3180  157.1340 C   0  0  0  0  0  2  0  0  0  0  0  0
  163.9340  211.1760  156.7950 C   0  0  0  0  0  0  0  0  0  0  0  0
  164.8660  211.8850  156.5170 C   0  0  0  0  0  3  0  0  0  0  0  0
  157.7800  213.2250  153.9150 C   0  0  0  0  0  0  0  0  0  0  0  0
  159.0430  213.7650  154.5070 C   0  0  0  0  0  1  0  0  0  0  0  0
  156.7700  213.2020  154.6000 O   0  0  0  0  0  0  0  0  0  0  0  0
  2 32  1  0  0  0  0
  2  1  1  1  0  0  0
  3  4  2  0  0  0  0
  4  2  1  0  0  0  0
  5  4  1  0  0  0  0
  6  5  1  0  0  0  0
  7 11  1  0  0  0  0
  7 13  2  0  0  0  0
  8  7  1  0  0  0  0
  9 10  1  6  0  0  0
  9 11  1  0  0  0  0
 11  6  1  1  0  0  0
 12 14  1  6  0  0  0
 12  8  1  0  0  0  0
 12  9  1  0  0  0  0
 15 17  1  6  0  0  0
 15 12  1  0  0  0  0
 16 17  2  0  0  0  0
 18 21  1  1  0  0  0
 18 15  1  0  0  0  0
 19 18  1  0  0  0  0
 20 19  1  0  0  0  0
 22 27  1  0  0  0  0
 22 21  1  0  0  0  0
 24 26  1  0  0  0  0
 24 28  1  0  0  0  0
 25 28  1  0  0  0  0
 25 27  1  0  0  0  0
 26 22  2  0  0  0  0
 27 23  2  0  0  0  0
 28 29  1  6  0  0  0
 29 30  1  0  0  0  0
 31 29  1  0  0  0  0
 33 39  2  0  0  0  0
 33 36  1  0  0  0  0
 34 35  1  0  0  0  0
 34 37  1  0  0  0  0
 35 32  1  6  0  0  0
 35 33  1  0  0  0  0
 36 57  1  1  0  0  0
 37 38  1  6  0  0  0
 37 36  1  0  0  0  0
 40 47  1  6  0  0  0
 40 49  1  0  0  0  0
 41 39  1  6  0  0  0
 41 45  1  0  0  0  0
 41 42  1  0  0  0  0
 43 46  1  0  0  0  0
 44 40  1  0  0  0  0
 45 42  1  1  0  0  0
 45 51  1  0  0  0  0
 46 50  1  6  0  0  0
 46 44  1  0  0  0  0
 46 48  1  0  0  0  0
 48 43  1  6  0  0  0
 48 49  1  0  0  0  0
 49 45  1  0  0  0  0
 49 51  1  1  0  0  0
 51 52  1  0  0  0  0
 52 53  1  0  0  0  0
 53 54  1  0  0  0  0
 55 54  1  0  0  0  0
 56 55  3  0  0  0  0
 57 58  1  0  0  0  0
 57 59  2  0  0  0  0
M  END
>  <MODEL>
2

>  <REMARK>
 VINA RESULT:      -1.8      2.164      3.690
  Name = 
  19 active torsions:
  status: ('A' for Active; 'I' for Inactive)
    1  A    between atoms: C_4  and  C_13
    2  A    between atoms: C_4  and  C_34
    3  A    between atoms: C_6  and  C_57
    4  A    between atoms: C_8  and  C_27
    5  A    between atoms: C_8  and  C_29
    6  A    between atoms: C_8  and  C_42
    7  A    between atoms: C_9  and  C_25
    8  A    between atoms: C_9  and  C_29
    9  A    between atoms: C_11  and  C_34
   10  A    between atoms: N_12  and  C_29
   11  A    between atoms: C_13  and  N_59
   12  A    between atoms: C_14  and  C_56
   13  A    between atoms: C_21  and  C_45
   14  A    between atoms: C_26  and  O_38
   15  A    between atoms: C_32  and  O_38
   16  A    between atoms: C_32  and  C_55
   17  A    between atoms: C_35  and  C_40
   18  A    between atoms: C_35  and  C_51
   19  A    between atoms: C_51  and  C_55
                            x       y       z     vdW  Elec       q    Type
                         _______ _______ _______ _____ _____    ______ ____

>  <TORSDO>
F 19

$$$$
=
 OpenBabel11072413393D

 59 65  0  0  1  0  0  0  0  0999 V2000
  159.7970  211.4280  148.9970 C   0  0  0  0  0  1  0  0  0  0  0  0
  161.2730  211.0660  149.0620 C   0  0  1  0  0  3  0  0  0  0  0  0
  162.7010  212.8220  148.3870 O   0  0  0  0  0  0  0  0  0  0  0  0
  162.0400  211.8590  148.0310 C   0  0  0  0  0  0  0  0  0  0  0  0
  161.9910  211.5130  146.5710 C   0  0  0  0  0  2  0  0  0  0  0  0
  160.6660  211.3880  146.1420 O   0  0  0  0  0  0  0  0  0  0  0  0
  158.9200  212.6490  145.1970 C   0  0  0  0  0  0  0  0  0  0  0  0
  158.6630  212.8370  143.8570 O   0  0  0  0  0  0  0  0  0  0  0  0
  160.9880  212.6420  144.1150 C   0  0  1  0  0  3  0  0  0  0  0  0
  162.2050  213.5600  144.0920 C   0  0  0  0  0  1  0  0  0  0  0  0
  160.3620  212.5990  145.5080 C   0  0  2  0  0  3  0  0  0  0  0  0
  159.8560  212.9970  143.1100 C   0  0  2  0  0  0  0  0  0  0  0  0
  158.0090  212.5330  146.0570 O   0  0  0  0  0  0  0  0  0  0  0  0
  159.9190  214.4500  142.6300 C   0  0  0  0  0  1  0  0  0  0  0  0
  159.8920  211.9940  141.9310 C   0  0  2  0  0  3  0  0  0  0  0  0
  161.1570  210.1410  141.1460 O   0  0  0  0  0  0  0  0  0  0  0  0
  161.0550  211.0410  141.9650 C   0  0  0  0  0  3  0  0  0  0  0  0
  159.6620  212.5600  140.5220 C   0  0  2  0  0  3  0  0  0  0  0  0
  160.8080  213.3310  140.0550 N   0  0  0  0  0  2  0  0  0  0  0  0
  160.4200  213.9490  138.7980 C   0  0  0  0  0  1  0  0  0  0  0  0
  158.3890  213.3960  140.4850 C   0  0  0  0  0  2  0  0  0  0  0  0
  157.2370  212.6210  139.9280 C   0  0  0  0  0  0  0  0  0  0  0  0
  155.6270  214.2790  140.6130 N   0  0  0  0  0  2  0  0  0  0  0  0
  156.3580  210.6270  138.7360 C   0  0  0  0  0  2  0  0  0  0  0  0
  154.6930  212.3190  139.5680 C   0  0  0  0  0  2  0  0  0  0  0  0
  157.4650  211.4400  139.3420 C   0  0  0  0  0  3  0  0  0  0  0  0
  155.8500  213.1210  140.0830 C   0  0  0  0  0  0  0  0  0  0  0  0
  155.0540  210.8280  139.5080 C   0  0  1  0  0  3  0  0  0  0  0  0
  153.9330  209.9740  138.9160 C   0  0  0  0  0  3  0  0  0  0  0  0
  154.3170  209.4500  137.5450 C   0  0  0  0  0  1  0  0  0  0  0  0
  153.5350  208.8160  139.8200 C   0  0  0  0  0  1  0  0  0  0  0  0
  161.7960  211.3070  150.4750 C   0  0  0  0  0  2  0  0  0  0  0  0
  161.7530  208.8440  150.6370 C   0  0  0  0  0  0  0  0  0  0  0  0
  162.4540  210.1320  152.4570 O   0  0  0  0  0  0  0  0  0  0  0  0
  162.4780  210.0690  151.0480 C   0  0  2  0  0  3  0  0  0  0  0  0
  161.2640  208.1370  151.8390 C   0  0  2  0  0  3  0  0  0  0  0  0
  161.5320  209.1620  152.9230 C   0  0  2  0  0  3  0  0  0  0  0  0
  160.2350  209.8360  153.3370 C   0  0  0  0  0  1  0  0  0  0  0  0
  161.5200  208.5450  149.3390 C   0  0  0  0  0  3  0  0  0  0  0  0
  162.9580  205.0500  147.1840 C   0  0  1  0  0  3  0  0  0  0  0  0
  160.7090  207.4290  148.7140 C   0  0  2  0  0  3  0  0  0  0  0  0
  160.0500  206.5580  149.6860 C   0  0  0  0  0  2  0  0  0  0  0  0
  161.5520  206.9980  145.5680 O   0  0  0  0  0  0  0  0  0  0  0  0
  162.9530  204.9730  145.6640 C   0  0  0  0  0  2  0  0  0  0  0  0
  161.3210  206.0340  148.9760 C   0  0  2  0  0  0  0  0  0  0  0  0
  161.6760  205.6530  145.1900 C   0  0  1  0  0  0  0  0  0  0  0  0
  163.9640  205.9270  147.5940 O   0  0  0  0  0  1  0  0  0  0  0  0
  160.8040  206.0470  146.3050 C   0  0  1  0  0  3  0  0  0  0  0  0
  161.5850  205.6260  147.5490 C   0  0  1  0  0  0  0  0  0  0  0  0
  161.0080  205.3160  143.8720 C   0  0  0  0  0  1  0  0  0  0  0  0
  160.7340  204.7930  148.3880 N   0  0  0  0  0  0  0  0  0  0  0  0
  161.4350  203.6720  149.0150 C   0  0  0  0  0  2  0  0  0  0  0  0
  160.6360  202.3880  148.8350 C   0  0  0  0  0  2  0  0  0  0  0  0
  160.7560  201.4840  150.0560 C   0  0  0  0  0  2  0  0  0  0  0  0
  160.6880  202.2710  151.2900 C   0  0  0  0  0  0  0  0  0  0  0  0
  160.6270  202.9170  152.3040 C   0  0  0  0  0  3  0  0  0  0  0  0
  162.0600  206.8950  152.1400 C   0  0  0  0  0  0  0  0  0  0  0  0
  161.4790  205.7540  152.9140 C   0  0  0  0  0  1  0  0  0  0  0  0
  163.1940  206.7940  151.7010 O   0  0  0  0  0  0  0  0  0  0  0  0
  2  1  1  1  0  0  0
  2 32  1  0  0  0  0
  4  3  2  0  0  0  0
  4  2  1  0  0  0  0
  5  4  1  0  0  0  0
  6  5  1  0  0  0  0
  7 11  1  0  0  0  0
  7 13  2  0  0  0  0
  8  7  1  0  0  0  0
  9 10  1  1  0  0  0
  9 11  1  0  0  0  0
 11  6  1  6  0  0  0
 12 14  1  6  0  0  0
 12  8  1  0  0  0  0
 12  9  1  0  0  0  0
 15 17  1  6  0  0  0
 15 12  1  0  0  0  0
 16 17  2  0  0  0  0
 18 21  1  1  0  0  0
 18 15  1  0  0  0  0
 19 18  1  0  0  0  0
 20 19  1  0  0  0  0
 22 27  1  0  0  0  0
 22 21  1  0  0  0  0
 24 26  1  0  0  0  0
 24 28  1  0  0  0  0
 25 27  1  0  0  0  0
 26 22  2  0  0  0  0
 27 23  2  0  0  0  0
 28 29  1  6  0  0  0
 28 25  1  0  0  0  0
 29 31  1  0  0  0  0
 30 29  1  0  0  0  0
 33 35  1  0  0  0  0
 33 36  1  0  0  0  0
 34 37  1  0  0  0  0
 35 32  1  6  0  0  0
 35 34  1  0  0  0  0
 36 57  1  1  0  0  0
 36 37  1  0  0  0  0
 37 38  1  6  0  0  0
 39 33  2  0  0  0  0
 40 49  1  0  0  0  0
 40 47  1  6  0  0  0
 41 45  1  0  0  0  0
 41 39  1  1  0  0  0
 41 42  1  0  0  0  0
 44 40  1  0  0  0  0
 45 42  1  1  0  0  0
 46 50  1  6  0  0  0
 46 43  1  0  0  0  0
 46 44  1  0  0  0  0
 46 48  1  0  0  0  0
 48 43  1  1  0  0  0
 48 49  1  0  0  0  0
 49 51  1  1  0  0  0
 49 45  1  0  0  0  0
 51 45  1  0  0  0  0
 51 52  1  0  0  0  0
 53 52  1  0  0  0  0
 53 54  1  0  0  0  0
 54 55  1  0  0  0  0
 55 56  3  0  0  0  0
 57 58  1  0  0  0  0
 59 57  2  0  0  0  0
M  END
>  <MODEL>
3

>  <REMARK>
 VINA RESULT:      -1.1      1.865      2.824
  Name = 
  19 active torsions:
  status: ('A' for Active; 'I' for Inactive)
    1  A    between atoms: C_4  and  C_13
    2  A    between atoms: C_4  and  C_34
    3  A    between atoms: C_6  and  C_57
    4  A    between atoms: C_8  and  C_27
    5  A    between atoms: C_8  and  C_29
    6  A    between atoms: C_8  and  C_42
    7  A    between atoms: C_9  and  C_25
    8  A    between atoms: C_9  and  C_29
    9  A    between atoms: C_11  and  C_34
   10  A    between atoms: N_12  and  C_29
   11  A    between atoms: C_13  and  N_59
   12  A    between atoms: C_14  and  C_56
   13  A    between atoms: C_21  and  C_45
   14  A    between atoms: C_26  and  O_38
   15  A    between atoms: C_32  and  O_38
   16  A    between atoms: C_32  and  C_55
   17  A    between atoms: C_35  and  C_40
   18  A    between atoms: C_35  and  C_51
   19  A    between atoms: C_51  and  C_55
                            x       y       z     vdW  Elec       q    Type
                         _______ _______ _______ _____ _____    ______ ____

>  <TORSDO>
F 19

$$$$
=
 OpenBabel11072413393D

 59 65  0  0  1  0  0  0  0  0999 V2000
  160.3990  206.7660  154.6010 C   0  0  0  0  0  1  0  0  0  0  0  0
  160.0370  208.2390  154.7150 C   0  0  1  0  0  3  0  0  0  0  0  0
  160.4710  208.0360  157.0280 O   0  0  0  0  0  0  0  0  0  0  0  0
  159.8170  208.6000  156.1640 C   0  0  0  0  0  0  0  0  0  0  0  0
  158.7940  209.6170  156.5790 C   0  0  0  0  0  2  0  0  0  0  0  0
  158.1620  210.1610  155.4560 O   0  0  0  0  0  0  0  0  0  0  0  0
  155.8960  210.6210  155.0280 C   0  0  0  0  0  0  0  0  0  0  0  0
  155.3620  211.8000  154.5580 O   0  0  0  0  0  0  0  0  0  0  0  0
  157.2300  212.3390  155.8740 C   0  0  1  0  0  3  0  0  0  0  0  0
  157.5040  212.9210  157.2560 C   0  0  0  0  0  1  0  0  0  0  0  0
  157.0310  210.8250  155.9480 C   0  0  2  0  0  3  0  0  0  0  0  0
  156.0030  212.9300  155.1250 C   0  0  2  0  0  0  0  0  0  0  0  0
  155.4490  209.4920  154.6990 O   0  0  0  0  0  0  0  0  0  0  0  0
  155.0050  213.6160  156.0630 C   0  0  0  0  0  1  0  0  0  0  0  0
  156.5010  213.8820  154.0090 C   0  0  2  0  0  3  0  0  0  0  0  0
  154.6610  213.7170  152.5130 O   0  0  0  0  0  0  0  0  0  0  0  0
  155.4080  214.4480  153.1450 C   0  0  0  0  0  3  0  0  0  0  0  0
  157.7010  213.4120  153.1730 C   0  0  2  0  0  3  0  0  0  0  0  0
  158.8610  213.1200  154.0050 N   0  0  0  0  0  2  0  0  0  0  0  0
  158.9440  214.1730  155.0040 C   0  0  0  0  0  1  0  0  0  0  0  0
  158.0400  214.4420  152.1030 C   0  0  0  0  0  2  0  0  0  0  0  0
  158.0390  213.8360  150.7350 C   0  0  0  0  0  0  0  0  0  0  0  0
  160.4440  213.8780  150.5770 N   0  0  0  0  0  2  0  0  0  0  0  0
  156.8020  212.9030  148.7940 C   0  0  0  0  0  2  0  0  0  0  0  0
  159.3060  213.0700  148.6140 C   0  0  0  0  0  2  0  0  0  0  0  0
  156.8720  213.5400  150.1510 C   0  0  0  0  0  3  0  0  0  0  0  0
  159.3120  213.6310  150.0040 C   0  0  0  0  0  0  0  0  0  0  0  0
  157.9690  213.3630  147.9190 C   0  0  1  0  0  3  0  0  0  0  0  0
  157.8810  212.7450  146.5240 C   0  0  0  0  0  3  0  0  0  0  0  0
  157.3960  213.7650  145.5090 C   0  0  0  0  0  1  0  0  0  0  0  0
  159.2000  212.1430  146.0620 C   0  0  0  0  0  1  0  0  0  0  0  0
  161.1330  209.0850  154.0730 C   0  0  0  0  0  2  0  0  0  0  0  0
  161.5400  208.6160  151.6840 C   0  0  0  0  0  0  0  0  0  0  0  0
  161.1670  210.8070  152.4070 O   0  0  0  0  0  0  0  0  0  0  0  0
  160.7900  209.4670  152.6380 C   0  0  2  0  0  3  0  0  0  0  0  0
  162.4100  209.4660  150.8460 C   0  0  2  0  0  3  0  0  0  0  0  0
  162.2960  210.8030  151.5530 C   0  0  2  0  0  3  0  0  0  0  0  0
  163.5560  211.0770  152.3570 C   0  0  0  0  0  1  0  0  0  0  0  0
  161.4680  207.2660  151.7130 C   0  0  0  0  0  3  0  0  0  0  0  0
  159.9630  203.5710  149.9780 C   0  0  1  0  0  3  0  0  0  0  0  0
  162.2310  206.2210  150.9250 C   0  0  2  0  0  3  0  0  0  0  0  0
  162.6560  206.6690  149.6010 C   0  0  0  0  0  2  0  0  0  0  0  0
  161.7750  203.2320  152.2110 O   0  0  0  0  0  0  0  0  0  0  0  0
  160.1640  202.2180  150.6460 C   0  0  0  0  0  2  0  0  0  0  0  0
  161.4420  205.7140  149.6960 C   0  0  2  0  0  0  0  0  0  0  0  0
  161.5580  202.2270  151.2570 C   0  0  1  0  0  0  0  0  0  0  0  0
  159.0120  204.2990  150.6950 O   0  0  0  0  0  1  0  0  0  0  0  0
  162.3110  203.4430  150.9170 C   0  0  1  0  0  3  0  0  0  0  0  0
  161.3290  204.2600  150.0780 C   0  0  1  0  0  0  0  0  0  0  0  0
  162.3570  200.9620  151.4980 C   0  0  0  0  0  1  0  0  0  0  0  0
  161.9660  204.6240  148.8190 N   0  0  0  0  0  0  0  0  0  0  0  0
  161.0710  204.5640  147.6630 C   0  0  0  0  0  2  0  0  0  0  0  0
  161.3160  203.2830  146.8760 C   0  0  0  0  0  2  0  0  0  0  0  0
  160.5900  203.3070  145.5370 C   0  0  0  0  0  2  0  0  0  0  0  0
  161.0400  204.4410  144.7240 C   0  0  0  0  0  0  0  0  0  0  0  0
  161.4090  205.3700  144.0530 C   0  0  0  0  0  3  0  0  0  0  0  0
  161.8890  209.6160  149.4420 C   0  0  0  0  0  0  0  0  0  0  0  0
  161.7730  210.9530  148.7810 C   0  0  0  0  0  1  0  0  0  0  0  0
  161.5960  208.6160  148.8060 O   0  0  0  0  0  0  0  0  0  0  0  0
  2  1  1  1  0  0  0
  2  4  1  0  0  0  0
  4  5  1  0  0  0  0
  4  3  2  0  0  0  0
  6  5  1  0  0  0  0
  7 11  1  0  0  0  0
  8  7  1  0  0  0  0
  8 12  1  0  0  0  0
  9 11  1  0  0  0  0
  9 10  1  1  0  0  0
 11  6  1  6  0  0  0
 12  9  1  0  0  0  0
 12 14  1  1  0  0  0
 13  7  2  0  0  0  0
 15 17  1  6  0  0  0
 15 12  1  0  0  0  0
 16 17  2  0  0  0  0
 18 21  1  6  0  0  0
 18 19  1  0  0  0  0
 18 15  1  0  0  0  0
 19 20  1  0  0  0  0
 22 21  1  0  0  0  0
 24 26  1  0  0  0  0
 25 27  1  0  0  0  0
 26 22  2  0  0  0  0
 27 23  2  0  0  0  0
 27 22  1  0  0  0  0
 28 29  1  6  0  0  0
 28 25  1  0  0  0  0
 28 24  1  0  0  0  0
 30 29  1  0  0  0  0
 31 29  1  0  0  0  0
 32  2  1  0  0  0  0
 33 39  2  0  0  0  0
 33 35  1  0  0  0  0
 34 35  1  0  0  0  0
 35 32  1  1  0  0  0
 36 57  1  6  0  0  0
 36 37  1  0  0  0  0
 36 33  1  0  0  0  0
 37 38  1  1  0  0  0
 37 34  1  0  0  0  0
 40 49  1  0  0  0  0
 40 44  1  0  0  0  0
 40 47  1  1  0  0  0
 41 39  1  1  0  0  0
 42 41  1  0  0  0  0
 44 46  1  0  0  0  0
 45 42  1  6  0  0  0
 45 49  1  0  0  0  0
 45 41  1  0  0  0  0
 46 50  1  1  0  0  0
 46 43  1  0  0  0  0
 48 46  1  0  0  0  0
 48 43  1  1  0  0  0
 49 51  1  6  0  0  0
 49 48  1  0  0  0  0
 51 45  1  0  0  0  0
 52 51  1  0  0  0  0
 53 52  1  0  0  0  0
 54 53  1  0  0  0  0
 55 54  1  0  0  0  0
 56 55  3  0  0  0  0
 58 57  1  0  0  0  0
 59 57  2  0  0  0  0
M  END
>  <MODEL>
4

>  <REMARK>
 VINA RESULT:       0.2      5.281      9.750
  Name = 
  19 active torsions:
  status: ('A' for Active; 'I' for Inactive)
    1  A    between atoms: C_4  and  C_13
    2  A    between atoms: C_4  and  C_34
    3  A    between atoms: C_6  and  C_57
    4  A    between atoms: C_8  and  C_27
    5  A    between atoms: C_8  and  C_29
    6  A    between atoms: C_8  and  C_42
    7  A    between atoms: C_9  and  C_25
    8  A    between atoms: C_9  and  C_29
    9  A    between atoms: C_11  and  C_34
   10  A    between atoms: N_12  and  C_29
   11  A    between atoms: C_13  and  N_59
   12  A    between atoms: C_14  and  C_56
   13  A    between atoms: C_21  and  C_45
   14  A    between atoms: C_26  and  O_38
   15  A    between atoms: C_32  and  O_38
   16  A    between atoms: C_32  and  C_55
   17  A    between atoms: C_35  and  C_40
   18  A    between atoms: C_35  and  C_51
   19  A    between atoms: C_51  and  C_55
                            x       y       z     vdW  Elec       q    Type
                         _______ _______ _______ _____ _____    ______ ____

>  <TORSDO>
F 19

$$$$
=
 OpenBabel11072413393D

 59 65  0  0  1  0  0  0  0  0999 V2000
  161.2670  206.5470  146.0250 C   0  0  0  0  0  1  0  0  0  0  0  0
  162.1440  206.8480  147.2310 C   0  0  1  0  0  3  0  0  0  0  0  0
  160.3140  207.7910  148.3880 O   0  0  0  0  0  0  0  0  0  0  0  0
  161.4910  207.9070  148.0850 C   0  0  0  0  0  0  0  0  0  0  0  0
  162.2440  209.1190  148.5540 C   0  0  0  0  0  2  0  0  0  0  0  0
  161.3860  210.0010  149.2180 O   0  0  0  0  0  0  0  0  0  0  0  0
  161.2050  212.2500  149.8780 C   0  0  0  0  0  0  0  0  0  0  0  0
  160.9970  213.3410  149.0630 O   0  0  0  0  0  0  0  0  0  0  0  0
  162.2590  211.7760  147.8500 C   0  0  1  0  0  3  0  0  0  0  0  0
  163.7030  211.6080  147.3910 C   0  0  0  0  0  1  0  0  0  0  0  0
  162.0670  211.2230  149.2630 C   0  0  2  0  0  3  0  0  0  0  0  0
  161.7160  213.2330  147.8470 C   0  0  2  0  0  0  0  0  0  0  0  0
  160.7050  212.1540  151.0290 O   0  0  0  0  0  0  0  0  0  0  0  0
  162.8300  214.2840  147.8640 C   0  0  0  0  0  1  0  0  0  0  0  0
  160.7630  213.4150  146.6400 C   0  0  2  0  0  3  0  0  0  0  0  0
  158.4380  212.9590  146.8230 O   0  0  0  0  0  0  0  0  0  0  0  0
  159.5620  212.5110  146.6580 C   0  0  0  0  0  3  0  0  0  0  0  0
  161.4040  213.4800  145.2460 C   0  0  2  0  0  3  0  0  0  0  0  0
  162.6770  214.1900  145.2660 N   0  0  0  0  0  2  0  0  0  0  0  0
  163.5910  213.4510  144.4120 C   0  0  0  0  0  1  0  0  0  0  0  0
  160.4430  214.1100  144.2460 C   0  0  0  0  0  2  0  0  0  0  0  0
  160.7060  213.6340  142.8530 C   0  0  0  0  0  0  0  0  0  0  0  0
  159.7440  211.4650  143.2770 N   0  0  0  0  0  2  0  0  0  0  0  0
  161.5780  214.0480  140.5640 C   0  0  0  0  0  2  0  0  0  0  0  0
  160.6750  211.7560  141.0730 C   0  0  0  0  0  2  0  0  0  0  0  0
  161.3120  214.4530  141.9850 C   0  0  0  0  0  3  0  0  0  0  0  0
  160.3640  212.2470  142.4560 C   0  0  0  0  0  0  0  0  0  0  0  0
  161.8450  212.5450  140.4700 C   0  0  1  0  0  3  0  0  0  0  0  0
  162.1520  212.1350  139.0300 C   0  0  0  0  0  3  0  0  0  0  0  0
  163.0720  213.1420  138.3650 C   0  0  0  0  0  1  0  0  0  0  0  0
  162.7530  210.7400  138.9300 C   0  0  0  0  0  1  0  0  0  0  0  0
  162.3990  205.5610  148.0090 C   0  0  0  0  0  2  0  0  0  0  0  0
  161.3790  205.1690  150.2230 C   0  0  0  0  0  0  0  0  0  0  0  0
  160.8930  203.7450  148.4330 O   0  0  0  0  0  0  0  0  0  0  0  0
  161.1570  205.0920  148.7590 C   0  0  2  0  0  3  0  0  0  0  0  0
  161.2520  203.8190  150.8100 C   0  0  2  0  0  3  0  0  0  0  0  0
  161.2010  202.9530  149.5660 C   0  0  2  0  0  3  0  0  0  0  0  0
  162.5350  202.2530  149.3620 C   0  0  0  0  0  1  0  0  0  0  0  0
  161.7470  206.3160  150.8370 C   0  0  0  0  0  3  0  0  0  0  0  0
  160.1250  209.2950  153.5620 C   0  0  1  0  0  3  0  0  0  0  0  0
  162.1380  206.5820  152.2750 C   0  0  2  0  0  3  0  0  0  0  0  0
  161.7470  205.5220  153.2030 C   0  0  0  0  0  2  0  0  0  0  0  0
  162.8560  209.7580  152.7180 O   0  0  0  0  0  0  0  0  0  0  0  0
  160.8380  210.6080  153.8470 C   0  0  0  0  0  2  0  0  0  0  0  0
  160.9130  206.8250  153.1870 C   0  0  2  0  0  0  0  0  0  0  0  0
  162.3280  210.3040  153.8980 C   0  0  1  0  0  0  0  0  0  0  0  0
  159.5850  209.3380  152.2740 O   0  0  0  0  0  1  0  0  0  0  0  0
  162.6100  208.8650  153.7890 C   0  0  1  0  0  3  0  0  0  0  0  0
  161.2280  208.2320  153.6270 C   0  0  1  0  0  0  0  0  0  0  0  0
  163.3130  211.1450  154.6840 C   0  0  0  0  0  1  0  0  0  0  0  0
  161.0620  207.1860  154.6280 N   0  0  0  0  0  0  0  0  0  0  0  0
  159.7190  207.1260  155.2060 C   0  0  0  0  0  2  0  0  0  0  0  0
  159.8010  207.1420  156.7270 C   0  0  0  0  0  2  0  0  0  0  0  0
  161.2010  207.5100  157.2030 C   0  0  0  0  0  2  0  0  0  0  0  0
  161.3710  208.9650  157.2320 C   0  0  0  0  0  0  0  0  0  0  0  0
  161.5120  210.1610  157.2610 C   0  0  0  0  0  3  0  0  0  0  0  0
  159.9680  203.6420  151.5750 C   0  0  0  0  0  0  0  0  0  0  0  0
  159.8710  202.7260  152.7530 C   0  0  0  0  0  1  0  0  0  0  0  0
  158.9900  204.2990  151.2560 O   0  0  0  0  0  0  0  0  0  0  0  0
  2  1  1  6  0  0  0
  2 32  1  0  0  0  0
  2  4  1  0  0  0  0
  4  3  2  0  0  0  0
  4  5  1  0  0  0  0
  5  6  1  0  0  0  0
  7 13  2  0  0  0  0
  8  7  1  0  0  0  0
  9 10  1  1  0  0  0
  9 11  1  0  0  0  0
 11  6  1  6  0  0  0
 11  7  1  0  0  0  0
 12  9  1  0  0  0  0
 12 14  1  6  0  0  0
 12  8  1  0  0  0  0
 15 17  1  6  0  0  0
 15 12  1  0  0  0  0
 17 16  2  0  0  0  0
 18 21  1  6  0  0  0
 18 19  1  0  0  0  0
 18 15  1  0  0  0  0
 20 19  1  0  0  0  0
 22 21  1  0  0  0  0
 24 26  1  0  0  0  0
 25 27  1  0  0  0  0
 26 22  2  0  0  0  0
 27 22  1  0  0  0  0
 27 23  2  0  0  0  0
 28 29  1  6  0  0  0
 28 24  1  0  0  0  0
 28 25  1  0  0  0  0
 30 29  1  0  0  0  0
 31 29  1  0  0  0  0
 33 36  1  0  0  0  0
 33 39  2  0  0  0  0
 34 35  1  0  0  0  0
 34 37  1  0  0  0  0
 35 32  1  6  0  0  0
 35 33  1  0  0  0  0
 36 57  1  6  0  0  0
 37 38  1  6  0  0  0
 37 36  1  0  0  0  0
 40 47  1  6  0  0  0
 40 49  1  0  0  0  0
 40 44  1  0  0  0  0
 41 39  1  6  0  0  0
 41 45  1  0  0  0  0
 41 42  1  0  0  0  0
 43 46  1  0  0  0  0
 44 46  1  0  0  0  0
 45 42  1  6  0  0  0
 45 49  1  0  0  0  0
 45 51  1  0  0  0  0
 46 50  1  1  0  0  0
 48 43  1  6  0  0  0
 48 46  1  0  0  0  0
 49 48  1  0  0  0  0
 49 51  1  1  0  0  0
 51 52  1  0  0  0  0
 52 53  1  0  0  0  0
 53 54  1  0  0  0  0
 54 55  1  0  0  0  0
 55 56  3  0  0  0  0
 57 58  1  0  0  0  0
 59 57  2  0  0  0  0
M  END
>  <MODEL>
5

>  <REMARK>
 VINA RESULT:       0.6      3.258      6.905
  Name = 
  19 active torsions:
  status: ('A' for Active; 'I' for Inactive)
    1  A    between atoms: C_4  and  C_13
    2  A    between atoms: C_4  and  C_34
    3  A    between atoms: C_6  and  C_57
    4  A    between atoms: C_8  and  C_27
    5  A    between atoms: C_8  and  C_29
    6  A    between atoms: C_8  and  C_42
    7  A    between atoms: C_9  and  C_25
    8  A    between atoms: C_9  and  C_29
    9  A    between atoms: C_11  and  C_34
   10  A    between atoms: N_12  and  C_29
   11  A    between atoms: C_13  and  N_59
   12  A    between atoms: C_14  and  C_56
   13  A    between atoms: C_21  and  C_45
   14  A    between atoms: C_26  and  O_38
   15  A    between atoms: C_32  and  O_38
   16  A    between atoms: C_32  and  C_55
   17  A    between atoms: C_35  and  C_40
   18  A    between atoms: C_35  and  C_51
   19  A    between atoms: C_51  and  C_55
                            x       y       z     vdW  Elec       q    Type
                         _______ _______ _______ _____ _____    ______ ____

>  <TORSDO>
F 19

$$$$
