=
 OpenBabel11072411103D

 30 33  0  0  1  0  0  0  0  0999 V2000
  160.4880  207.5200  151.7090 C   0  0  0  0  0  2  0  0  0  0  0  0
  161.2460  204.0340  148.2430 C   0  0  0  0  0  2  0  0  0  0  0  0
  161.2780  205.9710  149.8890 C   0  0  1  0  0  3  0  0  0  0  0  0
  162.0390  206.8710  148.9000 C   0  0  0  0  0  2  0  0  0  0  0  0
  161.2700  205.1680  147.2050 C   0  0  1  0  0  3  0  0  0  0  0  0
  162.3350  206.2020  147.5520 C   0  0  0  0  0  2  0  0  0  0  0  0
  161.5160  205.3690  152.3710 C   0  0  0  0  0  0  0  0  0  0  0  0
  161.6150  204.4870  149.6610 C   0  0  1  0  0  3  0  0  0  0  0  0
  161.5180  206.4620  151.3330 C   0  0  2  0  0  3  0  0  0  0  0  0
  161.2650  204.0080  152.0140 N   0  0  0  0  0  2  0  0  0  0  0  0
  161.7920  205.6490  153.5670 O   0  0  0  0  0  0  0  0  0  0  0  0
  160.8630  203.6360  150.6670 C   0  0  0  0  0  2  0  0  0  0  0  0
  161.5300  204.6100  145.8170 C   0  0  0  0  0  2  0  0  0  0  0  0
  161.4840  205.5210  143.4960 O   0  0  0  0  0  0  0  0  0  0  0  0
  160.9410  205.4960  144.7730 C   0  0  0  0  0  0  0  0  0  0  0  0
  159.9710  206.2470  145.0560 O   0  0  0  0  0  1  0  0  0  0  0  0
  161.0690  209.1540  153.5510 C   0  0  0  0  0  0  0  0  0  0  0  0
  160.4540  208.4620  154.4060 O   0  0  0  0  0  0  0  0  0  0  0  0
  161.1520  208.7170  152.1930 N   0  0  0  0  0  2  0  0  0  0  0  0
  160.0440  211.7090  152.5060 N   0  0  0  0  0  0  0  0  0  0  0  0
  159.8170  211.6750  154.9460 C   0  0  2  0  0  3  0  0  0  0  0  0
  160.9380  211.6230  156.3640 S   0  0  0  0  0  0  0  0  0  0  0  0
  159.0270  212.5180  152.4120 C   0  0  0  0  0  3  0  0  0  0  0  0
  162.0120  210.4330  155.4610 C   0  0  0  0  0  2  0  0  0  0  0  0
  158.5520  213.2230  153.5770 N   0  0  0  0  0  0  0  0  0  0  0  0
  161.6860  210.4580  153.9640 C   0  0  2  0  0  3  0  0  0  0  0  0
  160.7610  211.6430  153.7740 C   0  0  1  0  0  3  0  0  0  0  0  0
  158.9110  212.8810  154.7850 C   0  0  0  0  0  0  0  0  0  0  0  0
  157.2610  213.1080  156.6280 C   0  0  0  0  0  1  0  0  0  0  0  0
  158.3610  213.5810  155.8650 O   0  0  0  0  0  0  0  0  0  0  0  0
  1 19  1  0  0  0  0
  3  4  1  6  0  0  0
  3  9  1  0  0  0  0
  5 13  1  6  0  0  0
  5  6  1  0  0  0  0
  5  2  1  0  0  0  0
  6  4  1  0  0  0  0
  7 11  2  0  0  0  0
  8  2  1  6  0  0  0
  8  3  1  0  0  0  0
  8 12  1  0  0  0  0
  9  1  1  1  0  0  0
  9  7  1  0  0  0  0
 10  7  1  0  0  0  0
 12 10  1  0  0  0  0
 14 15  2  0  0  0  0
 15 16  1  0  0  0  0
 15 13  1  0  0  0  0
 17 18  2  0  0  0  0
 19 17  1  0  0  0  0
 21 28  1  1  0  0  0
 21 22  1  0  0  0  0
 23 20  2  0  0  0  0
 23 25  1  0  0  0  0
 24 22  1  0  0  0  0
 25 28  2  0  0  0  0
 26 17  1  1  0  0  0
 26 24  1  0  0  0  0
 27 20  1  6  0  0  0
 27 26  1  0  0  0  0
 27 21  1  0  0  0  0
 28 30  1  0  0  0  0
 30 29  1  0  0  0  0
M  END
>  <MODEL>
1

>  <REMARK>
 VINA RESULT:      -7.8      0.000      0.000
  Name = 
  6 active torsions:
  status: ('A' for Active; 'I' for Inactive)
    1  A    between atoms: C_6  and  N_20
    2  A    between atoms: C_6  and  C_26
    3  A    between atoms: C_8  and  C_21
    4  A    between atoms: C_11  and  C_23
    5  A    between atoms: C_14  and  C_23
    6  A    between atoms: O_17  and  C_28
                            x       y       z     vdW  Elec       q    Type
                         _______ _______ _______ _____ _____    ______ ____

>  <TORSDO>
F 6

$$$$
=
 OpenBabel11072411103D

 30 33  0  0  1  0  0  0  0  0999 V2000
  160.4550  207.9880  151.7670 C   0  0  0  0  0  2  0  0  0  0  0  0
  161.2160  204.2090  148.6240 C   0  0  0  0  0  2  0  0  0  0  0  0
  161.2520  206.2780  150.1000 C   0  0  1  0  0  3  0  0  0  0  0  0
  162.0450  207.0790  149.0530 C   0  0  0  0  0  2  0  0  0  0  0  0
  161.2760  205.2500  147.4940 C   0  0  1  0  0  3  0  0  0  0  0  0
  162.3520  206.2930  147.7720 C   0  0  0  0  0  2  0  0  0  0  0  0
  161.4360  205.8860  152.6280 C   0  0  0  0  0  0  0  0  0  0  0  0
  161.5680  204.7760  150.0060 C   0  0  1  0  0  3  0  0  0  0  0  0
  161.4750  206.8870  151.5010 C   0  0  2  0  0  3  0  0  0  0  0  0
  161.1690  204.5030  152.3830 N   0  0  0  0  0  2  0  0  0  0  0  0
  161.6960  206.2630  153.8010 O   0  0  0  0  0  0  0  0  0  0  0  0
  160.7840  204.0240  151.0660 C   0  0  0  0  0  2  0  0  0  0  0  0
  161.5520  204.5720  146.1630 C   0  0  0  0  0  2  0  0  0  0  0  0
  161.4930  205.2140  143.7550 O   0  0  0  0  0  0  0  0  0  0  0  0
  160.9880  205.3710  145.0390 C   0  0  0  0  0  0  0  0  0  0  0  0
  160.0750  206.2090  145.2550 O   0  0  0  0  0  1  0  0  0  0  0  0
  161.1560  209.9950  153.1390 C   0  0  0  0  0  0  0  0  0  0  0  0
  161.2380  210.7150  152.1080 O   0  0  0  0  0  0  0  0  0  0  0  0
  160.7350  208.6330  153.0380 N   0  0  0  0  0  2  0  0  0  0  0  0
  160.0740  212.5850  154.0280 N   0  0  0  0  0  0  0  0  0  0  0  0
  159.3910  210.8330  155.6000 C   0  0  2  0  0  3  0  0  0  0  0  0
  160.2200  209.7150  156.7550 S   0  0  0  0  0  0  0  0  0  0  0  0
  159.0110  213.2790  154.3220 C   0  0  0  0  0  3  0  0  0  0  0  0
  161.5710  209.4650  155.5310 C   0  0  0  0  0  2  0  0  0  0  0  0
  158.2470  212.9670  155.5070 N   0  0  0  0  0  0  0  0  0  0  0  0
  161.5360  210.5710  154.4720 C   0  0  2  0  0  3  0  0  0  0  0  0
  160.5380  211.5900  154.9870 C   0  0  1  0  0  3  0  0  0  0  0  0
  158.4050  211.8440  156.1540 C   0  0  0  0  0  0  0  0  0  0  0  0
  156.1820  211.8070  157.2610 C   0  0  0  0  0  1  0  0  0  0  0  0
  157.5860  211.5950  157.2610 O   0  0  0  0  0  0  0  0  0  0  0  0
  1 19  1  0  0  0  0
  3  4  1  6  0  0  0
  3  9  1  0  0  0  0
  5 13  1  6  0  0  0
  5  6  1  0  0  0  0
  5  2  1  0  0  0  0
  6  4  1  0  0  0  0
  7 11  2  0  0  0  0
  8  2  1  6  0  0  0
  8  3  1  0  0  0  0
  8 12  1  0  0  0  0
  9  1  1  1  0  0  0
  9  7  1  0  0  0  0
 10  7  1  0  0  0  0
 12 10  1  0  0  0  0
 14 15  2  0  0  0  0
 15 16  1  0  0  0  0
 15 13  1  0  0  0  0
 18 17  2  0  0  0  0
 19 17  1  0  0  0  0
 20 23  2  0  0  0  0
 21 28  1  1  0  0  0
 21 22  1  0  0  0  0
 23 25  1  0  0  0  0
 24 22  1  0  0  0  0
 25 28  2  0  0  0  0
 26 17  1  6  0  0  0
 26 27  1  0  0  0  0
 26 24  1  0  0  0  0
 27 20  1  6  0  0  0
 27 21  1  0  0  0  0
 28 30  1  0  0  0  0
 29 30  1  0  0  0  0
M  END
>  <MODEL>
2

>  <REMARK>
 VINA RESULT:      -7.3      1.204      1.272
  Name = 
  6 active torsions:
  status: ('A' for Active; 'I' for Inactive)
    1  A    between atoms: C_6  and  N_20
    2  A    between atoms: C_6  and  C_26
    3  A    between atoms: C_8  and  C_21
    4  A    between atoms: C_11  and  C_23
    5  A    between atoms: C_14  and  C_23
    6  A    between atoms: O_17  and  C_28
                            x       y       z     vdW  Elec       q    Type
                         _______ _______ _______ _____ _____    ______ ____

>  <TORSDO>
F 6

$$$$
=
 OpenBabel11072411103D

 30 33  0  0  1  0  0  0  0  0999 V2000
  160.5650  207.2560  150.7560 C   0  0  0  0  0  2  0  0  0  0  0  0
  160.7880  202.4700  149.4210 C   0  0  0  0  0  2  0  0  0  0  0  0
  161.0940  204.9460  149.9070 C   0  0  1  0  0  3  0  0  0  0  0  0
  161.8470  205.1690  148.5840 C   0  0  0  0  0  2  0  0  0  0  0  0
  160.8220  202.9490  147.9610 C   0  0  1  0  0  3  0  0  0  0  0  0
  161.9870  203.9030  147.7290 C   0  0  0  0  0  2  0  0  0  0  0  0
  161.4690  205.6010  152.3580 C   0  0  0  0  0  0  0  0  0  0  0  0
  161.2960  203.5120  150.4260 C   0  0  1  0  0  3  0  0  0  0  0  0
  161.4790  206.0480  150.9180 C   0  0  2  0  0  3  0  0  0  0  0  0
  161.0870  204.2730  152.7200 N   0  0  0  0  0  2  0  0  0  0  0  0
  161.8550  206.3960  153.2560 O   0  0  0  0  0  0  0  0  0  0  0  0
  160.5570  203.3390  151.7400 C   0  0  0  0  0  2  0  0  0  0  0  0
  160.9330  201.7640  147.0170 C   0  0  0  0  0  2  0  0  0  0  0  0
  159.7800  201.3020  144.8560 O   0  0  0  0  0  0  0  0  0  0  0  0
  160.5500  202.1570  145.6320 C   0  0  0  0  0  0  0  0  0  0  0  0
  160.9490  203.2500  145.1520 O   0  0  0  0  0  1  0  0  0  0  0  0
  161.3800  209.4260  151.7700 C   0  0  0  0  0  0  0  0  0  0  0  0
  161.7890  209.8360  150.6510 O   0  0  0  0  0  0  0  0  0  0  0  0
  160.7270  208.1600  151.8820 N   0  0  0  0  0  2  0  0  0  0  0  0
  160.2550  212.1400  151.9740 N   0  0  0  0  0  0  0  0  0  0  0  0
  159.3570  210.7460  153.7800 C   0  0  2  0  0  3  0  0  0  0  0  0
  160.0220  209.8940  155.2300 S   0  0  0  0  0  0  0  0  0  0  0  0
  159.1800  212.8750  151.9930 C   0  0  0  0  0  3  0  0  0  0  0  0
  161.5010  209.4020  154.2520 C   0  0  0  0  0  2  0  0  0  0  0  0
  158.2770  212.8110  153.1170 N   0  0  0  0  0  0  0  0  0  0  0  0
  161.6130  210.2660  152.9920 C   0  0  2  0  0  3  0  0  0  0  0  0
  160.5840  211.3650  153.1660 C   0  0  1  0  0  3  0  0  0  0  0  0
  158.3350  211.8460  153.9940 C   0  0  0  0  0  0  0  0  0  0  0  0
  156.1410  211.1520  154.9300 C   0  0  0  0  0  1  0  0  0  0  0  0
  157.3870  211.8270  155.0230 O   0  0  0  0  0  0  0  0  0  0  0  0
  1 19  1  0  0  0  0
  3  4  1  6  0  0  0
  3  8  1  0  0  0  0
  3  9  1  0  0  0  0
  5 13  1  6  0  0  0
  5  2  1  0  0  0  0
  6  5  1  0  0  0  0
  6  4  1  0  0  0  0
  7 10  1  0  0  0  0
  7 11  2  0  0  0  0
  8  2  1  6  0  0  0
  8 12  1  0  0  0  0
  9  1  1  1  0  0  0
  9  7  1  0  0  0  0
 12 10  1  0  0  0  0
 14 15  2  0  0  0  0
 15 13  1  0  0  0  0
 16 15  1  0  0  0  0
 17 19  1  0  0  0  0
 18 17  2  0  0  0  0
 20 23  2  0  0  0  0
 21 28  1  1  0  0  0
 21 22  1  0  0  0  0
 23 25  1  0  0  0  0
 24 22  1  0  0  0  0
 25 28  2  0  0  0  0
 26 17  1  6  0  0  0
 26 27  1  0  0  0  0
 26 24  1  0  0  0  0
 27 20  1  6  0  0  0
 27 21  1  0  0  0  0
 28 30  1  0  0  0  0
 29 30  1  0  0  0  0
M  END
>  <MODEL>
3

>  <REMARK>
 VINA RESULT:      -7.1      1.858      2.073
  Name = 
  6 active torsions:
  status: ('A' for Active; 'I' for Inactive)
    1  A    between atoms: C_6  and  N_20
    2  A    between atoms: C_6  and  C_26
    3  A    between atoms: C_8  and  C_21
    4  A    between atoms: C_11  and  C_23
    5  A    between atoms: C_14  and  C_23
    6  A    between atoms: O_17  and  C_28
                            x       y       z     vdW  Elec       q    Type
                         _______ _______ _______ _____ _____    ______ ____

>  <TORSDO>
F 6

$$$$
=
 OpenBabel11072411103D

 30 33  0  0  1  0  0  0  0  0999 V2000
  160.0080  210.2110  153.0430 C   0  0  0  0  0  2  0  0  0  0  0  0
  161.2680  205.6820  151.4190 C   0  0  0  0  0  2  0  0  0  0  0  0
  161.0220  208.1320  152.0510 C   0  0  1  0  0  3  0  0  0  0  0  0
  161.6760  208.5930  150.7380 C   0  0  0  0  0  2  0  0  0  0  0  0
  161.1620  206.2390  149.9910 C   0  0  1  0  0  3  0  0  0  0  0  0
  162.0780  207.4430  149.8060 C   0  0  0  0  0  2  0  0  0  0  0  0
  161.2960  208.7140  154.5340 C   0  0  0  0  0  0  0  0  0  0  0  0
  161.5530  206.7530  152.4800 C   0  0  1  0  0  3  0  0  0  0  0  0
  161.1730  209.2320  153.1240 C   0  0  2  0  0  3  0  0  0  0  0  0
  161.2290  207.3150  154.8190 N   0  0  0  0  0  2  0  0  0  0  0  0
  161.5140  209.5220  155.4750 O   0  0  0  0  0  0  0  0  0  0  0  0
  160.9010  206.3430  153.7880 C   0  0  0  0  0  2  0  0  0  0  0  0
  161.5150  205.1650  148.9760 C   0  0  0  0  0  2  0  0  0  0  0  0
  162.2060  205.4610  146.5990 O   0  0  0  0  0  0  0  0  0  0  0  0
  161.2510  205.6440  147.5890 C   0  0  0  0  0  0  0  0  0  0  0  0
  160.1760  206.2410  147.3210 O   0  0  0  0  0  1  0  0  0  0  0  0
  159.5050  212.3230  151.7450 C   0  0  0  0  0  0  0  0  0  0  0  0
  158.2650  212.1030  151.8000 O   0  0  0  0  0  0  0  0  0  0  0  0
  160.4260  211.4330  152.3780 N   0  0  0  0  0  2  0  0  0  0  0  0
  161.5670  212.0170  149.6650 N   0  0  0  0  0  0  0  0  0  0  0  0
  159.5240  212.9300  148.6630 C   0  0  2  0  0  3  0  0  0  0  0  0
  158.5600  214.4530  148.8120 S   0  0  0  0  0  0  0  0  0  0  0  0
  161.8940  211.4740  148.5280 C   0  0  0  0  0  3  0  0  0  0  0  0
  158.8430  214.4430  150.6310 C   0  0  0  0  0  2  0  0  0  0  0  0
  161.2470  211.8950  147.3090 N   0  0  0  0  0  0  0  0  0  0  0  0
  160.0080  213.5120  150.9790 C   0  0  2  0  0  3  0  0  0  0  0  0
  160.6390  213.1430  149.6510 C   0  0  1  0  0  3  0  0  0  0  0  0
  160.1470  212.5990  147.3200 C   0  0  0  0  0  0  0  0  0  0  0  0
  160.2070  212.7730  144.8430 C   0  0  0  0  0  1  0  0  0  0  0  0
  159.5520  212.9190  146.0940 O   0  0  0  0  0  0  0  0  0  0  0  0
  3  4  1  6  0  0  0
  3  8  1  0  0  0  0
  3  9  1  0  0  0  0
  5 13  1  6  0  0  0
  5  2  1  0  0  0  0
  6  5  1  0  0  0  0
  6  4  1  0  0  0  0
  7 10  1  0  0  0  0
  7 11  2  0  0  0  0
  8  2  1  6  0  0  0
  8 12  1  0  0  0  0
  9  1  1  1  0  0  0
  9  7  1  0  0  0  0
 12 10  1  0  0  0  0
 14 15  2  0  0  0  0
 15 13  1  0  0  0  0
 16 15  1  0  0  0  0
 17 18  2  0  0  0  0
 17 19  1  0  0  0  0
 19  1  1  0  0  0  0
 21 28  1  6  0  0  0
 21 22  1  0  0  0  0
 21 27  1  0  0  0  0
 22 24  1  0  0  0  0
 23 20  2  0  0  0  0
 24 26  1  0  0  0  0
 25 28  2  0  0  0  0
 25 23  1  0  0  0  0
 26 17  1  6  0  0  0
 27 20  1  1  0  0  0
 27 26  1  0  0  0  0
 29 30  1  0  0  0  0
 30 28  1  0  0  0  0
M  END
>  <MODEL>
4

>  <REMARK>
 VINA RESULT:      -7.0      3.439      5.220
  Name = 
  6 active torsions:
  status: ('A' for Active; 'I' for Inactive)
    1  A    between atoms: C_6  and  N_20
    2  A    between atoms: C_6  and  C_26
    3  A    between atoms: C_8  and  C_21
    4  A    between atoms: C_11  and  C_23
    5  A    between atoms: C_14  and  C_23
    6  A    between atoms: O_17  and  C_28
                            x       y       z     vdW  Elec       q    Type
                         _______ _______ _______ _____ _____    ______ ____

>  <TORSDO>
F 6

$$$$
=
 OpenBabel11072411103D

 30 33  0  0  1  0  0  0  0  0999 V2000
  161.8960  207.2930  150.4860 C   0  0  0  0  0  2  0  0  0  0  0  0
  161.7480  203.1130  147.7940 C   0  0  0  0  0  2  0  0  0  0  0  0
  161.3680  205.1760  149.2300 C   0  0  1  0  0  3  0  0  0  0  0  0
  160.3150  204.4540  150.0870 C   0  0  0  0  0  2  0  0  0  0  0  0
  161.3400  202.3790  149.0820 C   0  0  1  0  0  3  0  0  0  0  0  0
  160.0810  202.9930  149.6830 C   0  0  0  0  0  2  0  0  0  0  0  0
  161.5190  207.4470  148.0450 C   0  0  0  0  0  0  0  0  0  0  0  0
  161.4040  204.6080  147.8000 C   0  0  1  0  0  3  0  0  0  0  0  0
  161.1420  206.7020  149.3010 C   0  0  2  0  0  3  0  0  0  0  0  0
  162.0770  206.7670  146.9190 N   0  0  0  0  0  2  0  0  0  0  0  0
  161.2890  208.6820  147.9650 O   0  0  0  0  0  0  0  0  0  0  0  0
  162.4380  205.3600  146.9820 C   0  0  0  0  0  2  0  0  0  0  0  0
  161.1070  200.9050  148.8000 C   0  0  0  0  0  2  0  0  0  0  0  0
  161.6450  199.5850  146.7540 O   0  0  0  0  0  1  0  0  0  0  0  0
  160.9880  200.6610  147.3340 C   0  0  0  0  0  0  0  0  0  0  0  0
  160.3160  201.4460  146.6160 O   0  0  0  0  0  0  0  0  0  0  0  0
  160.9620  209.1700  151.9020 C   0  0  0  0  0  0  0  0  0  0  0  0
  161.7560  210.0010  151.3850 O   0  0  0  0  0  0  0  0  0  0  0  0
  160.9590  207.8080  151.4690 N   0  0  0  0  0  2  0  0  0  0  0  0
  160.8580  207.7230  154.4650 N   0  0  0  0  0  0  0  0  0  0  0  0
  161.5580  210.0380  154.8620 C   0  0  2  0  0  3  0  0  0  0  0  0
  160.8190  211.6790  154.6800 S   0  0  0  0  0  0  0  0  0  0  0  0
  161.5100  207.3330  155.5220 C   0  0  0  0  0  3  0  0  0  0  0  0
  160.0440  211.1440  153.0990 C   0  0  0  0  0  2  0  0  0  0  0  0
  161.9450  208.2980  156.5040 N   0  0  0  0  0  0  0  0  0  0  0  0
  160.0420  209.6160  153.0010 C   0  0  2  0  0  3  0  0  0  0  0  0
  160.4670  209.1250  154.3710 C   0  0  1  0  0  3  0  0  0  0  0  0
  161.9640  209.5790  156.2500 C   0  0  0  0  0  0  0  0  0  0  0  0
  163.7510  211.0150  157.2040 C   0  0  0  0  0  1  0  0  0  0  0  0
  162.4520  210.4440  157.2360 O   0  0  0  0  0  0  0  0  0  0  0  0
  1 19  1  0  0  0  0
  2  8  1  0  0  0  0
  2  5  1  0  0  0  0
  3  9  1  0  0  0  0
  3  4  1  1  0  0  0
  5 13  1  6  0  0  0
  5  6  1  0  0  0  0
  6  4  1  0  0  0  0
  7  9  1  0  0  0  0
  8 12  1  6  0  0  0
  8  3  1  0  0  0  0
  9  1  1  1  0  0  0
 10 12  1  0  0  0  0
 10  7  1  0  0  0  0
 11  7  2  0  0  0  0
 14 15  1  0  0  0  0
 15 13  1  0  0  0  0
 16 15  2  0  0  0  0
 18 17  2  0  0  0  0
 19 17  1  0  0  0  0
 20 23  2  0  0  0  0
 21 22  1  1  0  0  0
 21 28  1  0  0  0  0
 23 25  1  0  0  0  0
 24 22  1  0  0  0  0
 26 17  1  6  0  0  0
 26 24  1  0  0  0  0
 26 27  1  0  0  0  0
 27 20  1  6  0  0  0
 27 21  1  0  0  0  0
 28 25  2  0  0  0  0
 28 30  1  0  0  0  0
 29 30  1  0  0  0  0
M  END
>  <MODEL>
5

>  <REMARK>
 VINA RESULT:      -6.8      2.899      4.276
  Name = 
  6 active torsions:
  status: ('A' for Active; 'I' for Inactive)
    1  A    between atoms: C_6  and  N_20
    2  A    between atoms: C_6  and  C_26
    3  A    between atoms: C_8  and  C_21
    4  A    between atoms: C_11  and  C_23
    5  A    between atoms: C_14  and  C_23
    6  A    between atoms: O_17  and  C_28
                            x       y       z     vdW  Elec       q    Type
                         _______ _______ _______ _____ _____    ______ ____

>  <TORSDO>
F 6

$$$$
=
 OpenBabel11072411103D

 30 33  0  0  1  0  0  0  0  0999 V2000
  162.2760  207.5120  152.0490 C   0  0  0  0  0  2  0  0  0  0  0  0
  161.5670  204.8330  147.9180 C   0  0  0  0  0  2  0  0  0  0  0  0
  161.4760  206.1290  150.1030 C   0  0  1  0  0  3  0  0  0  0  0  0
  160.4410  205.1600  150.6990 C   0  0  0  0  0  2  0  0  0  0  0  0
  161.2070  203.6490  148.8300 C   0  0  1  0  0  3  0  0  0  0  0  0
  160.0560  204.0090  149.7610 C   0  0  0  0  0  2  0  0  0  0  0  0
  161.7140  208.6780  149.9400 C   0  0  0  0  0  0  0  0  0  0  0  0
  161.3480  206.2040  148.5710 C   0  0  1  0  0  3  0  0  0  0  0  0
  161.3810  207.4960  150.8150 C   0  0  2  0  0  3  0  0  0  0  0  0
  162.1220  208.5040  148.5810 N   0  0  0  0  0  2  0  0  0  0  0  0
  161.5810  209.8440  150.3960 O   0  0  0  0  0  0  0  0  0  0  0  0
  162.3700  207.1840  148.0240 C   0  0  0  0  0  2  0  0  0  0  0  0
  160.8320  202.4350  147.9980 C   0  0  0  0  0  2  0  0  0  0  0  0
  161.2060  201.1220  150.0840 O   0  0  0  0  0  1  0  0  0  0  0  0
  161.2170  201.1760  148.6980 C   0  0  0  0  0  0  0  0  0  0  0  0
  161.5810  200.1710  148.0340 O   0  0  0  0  0  0  0  0  0  0  0  0
  161.6370  209.2190  153.8040 C   0  0  0  0  0  0  0  0  0  0  0  0
  160.9920  208.3560  154.4570 O   0  0  0  0  0  0  0  0  0  0  0  0
  162.3310  208.8500  152.6100 N   0  0  0  0  0  2  0  0  0  0  0  0
  159.6200  211.1350  152.8380 N   0  0  0  0  0  0  0  0  0  0  0  0
  159.4380  210.9140  155.2730 C   0  0  2  0  0  3  0  0  0  0  0  0
  160.4800  211.2880  156.7030 S   0  0  0  0  0  0  0  0  0  0  0  0
  158.3570  211.4390  152.7610 C   0  0  0  0  0  3  0  0  0  0  0  0
  161.9550  210.7020  155.7710 C   0  0  0  0  0  2  0  0  0  0  0  0
  157.6300  211.8310  153.9450 N   0  0  0  0  0  0  0  0  0  0  0  0
  161.6440  210.6440  154.2720 C   0  0  2  0  0  3  0  0  0  0  0  0
  160.3020  211.3310  154.1130 C   0  0  1  0  0  3  0  0  0  0  0  0
  158.1050  211.6270  155.1440 C   0  0  0  0  0  0  0  0  0  0  0  0
  156.0350  212.5910  156.1210 C   0  0  0  0  0  1  0  0  0  0  0  0
  157.3140  211.9860  156.2410 O   0  0  0  0  0  0  0  0  0  0  0  0
  1 19  1  0  0  0  0
  2  5  1  0  0  0  0
  3  4  1  1  0  0  0
  3  9  1  0  0  0  0
  5 13  1  6  0  0  0
  5  6  1  0  0  0  0
  6  4  1  0  0  0  0
  7 11  2  0  0  0  0
  7  9  1  0  0  0  0
  8  2  1  6  0  0  0
  8  3  1  0  0  0  0
  9  1  1  1  0  0  0
 10  7  1  0  0  0  0
 12  8  1  0  0  0  0
 12 10  1  0  0  0  0
 13 15  1  0  0  0  0
 15 14  1  0  0  0  0
 16 15  2  0  0  0  0
 17 18  2  0  0  0  0
 19 17  1  0  0  0  0
 21 28  1  1  0  0  0
 21 22  1  0  0  0  0
 23 20  2  0  0  0  0
 23 25  1  0  0  0  0
 24 22  1  0  0  0  0
 25 28  2  0  0  0  0
 26 17  1  1  0  0  0
 26 24  1  0  0  0  0
 27 20  1  6  0  0  0
 27 26  1  0  0  0  0
 27 21  1  0  0  0  0
 28 30  1  0  0  0  0
 29 30  1  0  0  0  0
M  END
>  <MODEL>
6

>  <REMARK>
 VINA RESULT:      -6.6      2.405      3.217
  Name = 
  6 active torsions:
  status: ('A' for Active; 'I' for Inactive)
    1  A    between atoms: C_6  and  N_20
    2  A    between atoms: C_6  and  C_26
    3  A    between atoms: C_8  and  C_21
    4  A    between atoms: C_11  and  C_23
    5  A    between atoms: C_14  and  C_23
    6  A    between atoms: O_17  and  C_28
                            x       y       z     vdW  Elec       q    Type
                         _______ _______ _______ _____ _____    ______ ____

>  <TORSDO>
F 6

$$$$
=
 OpenBabel11072411103D

 30 33  0  0  1  0  0  0  0  0999 V2000
  162.7280  208.0470  150.7600 C   0  0  0  0  0  2  0  0  0  0  0  0
  161.1860  203.6140  149.1140 C   0  0  0  0  0  2  0  0  0  0  0  0
  161.5780  205.8790  150.1980 C   0  0  1  0  0  3  0  0  0  0  0  0
  160.9100  205.4290  151.5090 C   0  0  0  0  0  2  0  0  0  0  0  0
  161.2800  203.1180  150.5660 C   0  0  1  0  0  3  0  0  0  0  0  0
  160.4220  203.9750  151.4900 C   0  0  0  0  0  2  0  0  0  0  0  0
  161.4080  207.9320  148.6700 C   0  0  0  0  0  0  0  0  0  0  0  0
  160.9890  205.1300  148.9900 C   0  0  1  0  0  3  0  0  0  0  0  0
  161.5160  207.4180  150.0830 C   0  0  2  0  0  3  0  0  0  0  0  0
  161.4100  207.0400  147.5540 N   0  0  0  0  0  2  0  0  0  0  0  0
  161.2600  209.1670  148.4700 O   0  0  0  0  0  0  0  0  0  0  0  0
  161.6570  205.6170  147.7170 C   0  0  0  0  0  2  0  0  0  0  0  0
  160.8420  201.6670  150.6590 C   0  0  0  0  0  2  0  0  0  0  0  0
  161.2240  200.5640  148.4560 O   0  0  0  0  0  0  0  0  0  0  0  0
  160.3490  201.1790  149.3400 C   0  0  0  0  0  0  0  0  0  0  0  0
  159.1460  201.3510  149.0130 O   0  0  0  0  0  1  0  0  0  0  0  0
  161.9730  210.0290  152.1390 C   0  0  0  0  0  0  0  0  0  0  0  0
  161.9150  210.7630  151.1160 O   0  0  0  0  0  0  0  0  0  0  0  0
  162.3380  208.6530  152.0220 N   0  0  0  0  0  2  0  0  0  0  0  0
  160.3310  212.4590  152.4020 N   0  0  0  0  0  0  0  0  0  0  0  0
  159.2530  210.6110  153.5990 C   0  0  2  0  0  3  0  0  0  0  0  0
  159.6380  209.5790  155.0330 S   0  0  0  0  0  0  0  0  0  0  0  0
  159.1730  213.0180  152.1990 C   0  0  0  0  0  3  0  0  0  0  0  0
  161.3980  209.5100  154.5000 C   0  0  0  0  0  2  0  0  0  0  0  0
  158.0210  212.5990  152.9620 N   0  0  0  0  0  0  0  0  0  0  0  0
  161.6880  210.6230  153.4880 C   0  0  2  0  0  3  0  0  0  0  0  0
  160.4580  211.5080  153.5010 C   0  0  1  0  0  3  0  0  0  0  0  0
  158.0180  211.4900  153.6530 C   0  0  0  0  0  0  0  0  0  0  0  0
  156.0730  212.0310  155.0990 C   0  0  0  0  0  1  0  0  0  0  0  0
  156.8420  211.1280  154.3200 O   0  0  0  0  0  0  0  0  0  0  0  0
  1 19  1  0  0  0  0
  2  5  1  0  0  0  0
  3  4  1  1  0  0  0
  5 13  1  6  0  0  0
  5  6  1  0  0  0  0
  6  4  1  0  0  0  0
  7  9  1  0  0  0  0
  8 12  1  6  0  0  0
  8  2  1  0  0  0  0
  8  3  1  0  0  0  0
  9  3  1  0  0  0  0
  9  1  1  6  0  0  0
 10 12  1  0  0  0  0
 10  7  1  0  0  0  0
 11  7  2  0  0  0  0
 14 15  2  0  0  0  0
 15 13  1  0  0  0  0
 16 15  1  0  0  0  0
 18 17  2  0  0  0  0
 19 17  1  0  0  0  0
 21 28  1  1  0  0  0
 21 22  1  0  0  0  0
 23 20  2  0  0  0  0
 23 25  1  0  0  0  0
 24 22  1  0  0  0  0
 25 28  2  0  0  0  0
 26 17  1  6  0  0  0
 26 27  1  0  0  0  0
 26 24  1  0  0  0  0
 27 20  1  6  0  0  0
 27 21  1  0  0  0  0
 28 30  1  0  0  0  0
 30 29  1  0  0  0  0
M  END
>  <MODEL>
7

>  <REMARK>
 VINA RESULT:      -6.5      2.673      3.571
  Name = 
  6 active torsions:
  status: ('A' for Active; 'I' for Inactive)
    1  A    between atoms: C_6  and  N_20
    2  A    between atoms: C_6  and  C_26
    3  A    between atoms: C_8  and  C_21
    4  A    between atoms: C_11  and  C_23
    5  A    between atoms: C_14  and  C_23
    6  A    between atoms: O_17  and  C_28
                            x       y       z     vdW  Elec       q    Type
                         _______ _______ _______ _____ _____    ______ ____

>  <TORSDO>
F 6

$$$$
=
 OpenBabel11072411103D

 30 33  0  0  1  0  0  0  0  0999 V2000
  162.3640  207.0860  152.0730 C   0  0  0  0  0  2  0  0  0  0  0  0
  161.5310  204.6170  147.8360 C   0  0  0  0  0  2  0  0  0  0  0  0
  161.5050  205.8060  150.0830 C   0  0  1  0  0  3  0  0  0  0  0  0
  160.4790  204.8140  150.6570 C   0  0  0  0  0  2  0  0  0  0  0  0
  161.1860  203.3920  148.6970 C   0  0  1  0  0  3  0  0  0  0  0  0
  160.0620  203.7130  149.6750 C   0  0  0  0  0  2  0  0  0  0  0  0
  161.7570  208.3580  150.0390 C   0  0  0  0  0  0  0  0  0  0  0  0
  161.3390  205.9560  148.5610 C   0  0  1  0  0  3  0  0  0  0  0  0
  161.4380  207.1360  150.8630 C   0  0  2  0  0  3  0  0  0  0  0  0
  162.1280  208.2480  148.6630 N   0  0  0  0  0  2  0  0  0  0  0  0
  161.6430  209.5010  150.5550 O   0  0  0  0  0  0  0  0  0  0  0  0
  162.3530  206.9560  148.0360 C   0  0  0  0  0  2  0  0  0  0  0  0
  160.7820  202.2230  147.8160 C   0  0  0  0  0  2  0  0  0  0  0  0
  161.6600  199.9030  147.5650 O   0  0  0  0  0  0  0  0  0  0  0  0
  161.2560  200.9350  148.3990 C   0  0  0  0  0  0  0  0  0  0  0  0
  161.2630  200.7720  149.6470 O   0  0  0  0  0  1  0  0  0  0  0  0
  161.3730  208.3910  154.0010 C   0  0  0  0  0  0  0  0  0  0  0  0
  161.8030  209.4780  153.5310 O   0  0  0  0  0  0  0  0  0  0  0  0
  161.5890  207.1650  153.2990 N   0  0  0  0  0  2  0  0  0  0  0  0
  162.5790  209.6540  156.3710 N   0  0  0  0  0  0  0  0  0  0  0  0
  160.4550  210.7610  155.8470 C   0  0  2  0  0  3  0  0  0  0  0  0
  158.7080  210.2950  155.8180 S   0  0  0  0  0  0  0  0  0  0  0  0
  163.0300  210.7510  156.9100 C   0  0  0  0  0  3  0  0  0  0  0  0
  159.1650  208.6600  155.1080 C   0  0  0  0  0  2  0  0  0  0  0  0
  162.1200  211.8160  157.2580 N   0  0  0  0  0  0  0  0  0  0  0  0
  160.6580  208.3910  155.3200 C   0  0  2  0  0  3  0  0  0  0  0  0
  161.1340  209.4830  156.2570 C   0  0  1  0  0  3  0  0  0  0  0  0
  160.8960  211.8530  156.8030 C   0  0  0  0  0  0  0  0  0  0  0  0
  159.9110  214.0770  156.3000 C   0  0  0  0  0  1  0  0  0  0  0  0
  160.0950  212.9490  157.1430 O   0  0  0  0  0  0  0  0  0  0  0  0
  1 19  1  0  0  0  0
  2  5  1  0  0  0  0
  3  4  1  1  0  0  0
  3  9  1  0  0  0  0
  5 13  1  6  0  0  0
  5  6  1  0  0  0  0
  6  4  1  0  0  0  0
  7 11  2  0  0  0  0
  7  9  1  0  0  0  0
  8  2  1  6  0  0  0
  8  3  1  0  0  0  0
  9  1  1  1  0  0  0
 10  7  1  0  0  0  0
 12  8  1  0  0  0  0
 12 10  1  0  0  0  0
 13 15  1  0  0  0  0
 14 15  2  0  0  0  0
 15 16  1  0  0  0  0
 18 17  2  0  0  0  0
 19 17  1  0  0  0  0
 20 23  2  0  0  0  0
 21 22  1  1  0  0  0
 21 27  1  0  0  0  0
 21 28  1  0  0  0  0
 23 25  1  0  0  0  0
 24 26  1  0  0  0  0
 24 22  1  0  0  0  0
 26 17  1  6  0  0  0
 26 27  1  0  0  0  0
 27 20  1  6  0  0  0
 28 30  1  0  0  0  0
 28 25  2  0  0  0  0
 29 30  1  0  0  0  0
M  END
>  <MODEL>
8

>  <REMARK>
 VINA RESULT:      -6.4      2.952      3.811
  Name = 
  6 active torsions:
  status: ('A' for Active; 'I' for Inactive)
    1  A    between atoms: C_6  and  N_20
    2  A    between atoms: C_6  and  C_26
    3  A    between atoms: C_8  and  C_21
    4  A    between atoms: C_11  and  C_23
    5  A    between atoms: C_14  and  C_23
    6  A    between atoms: O_17  and  C_28
                            x       y       z     vdW  Elec       q    Type
                         _______ _______ _______ _____ _____    ______ ____

>  <TORSDO>
F 6

$$$$
=
 OpenBabel11072411103D

 30 33  0  0  1  0  0  0  0  0999 V2000
  161.2100  208.2470  149.3260 C   0  0  0  0  0  2  0  0  0  0  0  0
  160.4240  208.8760  154.1970 C   0  0  0  0  0  2  0  0  0  0  0  0
  161.2260  208.3580  151.8410 C   0  0  1  0  0  3  0  0  0  0  0  0
  161.8900  207.0480  152.2950 C   0  0  0  0  0  2  0  0  0  0  0  0
  160.4210  207.3440  154.3250 C   0  0  1  0  0  3  0  0  0  0  0  0
  161.7190  206.7500  153.7900 C   0  0  0  0  0  2  0  0  0  0  0  0
  161.9250  210.3600  150.3970 C   0  0  0  0  0  0  0  0  0  0  0  0
  161.2020  209.3920  152.9790 C   0  0  1  0  0  3  0  0  0  0  0  0
  161.8940  208.8590  150.5420 C   0  0  2  0  0  3  0  0  0  0  0  0
  161.3360  211.2130  151.3800 N   0  0  0  0  0  2  0  0  0  0  0  0
  162.5280  210.8750  149.4180 O   0  0  0  0  0  0  0  0  0  0  0  0
  160.5600  210.6760  152.4860 C   0  0  0  0  0  2  0  0  0  0  0  0
  160.2290  206.9340  155.7740 C   0  0  0  0  0  2  0  0  0  0  0  0
  162.0960  208.0950  156.9500 O   0  0  0  0  0  0  0  0  0  0  0  0
  160.7360  207.9920  156.6930 C   0  0  0  0  0  0  0  0  0  0  0  0
  159.9310  208.7750  157.2610 O   0  0  0  0  0  1  0  0  0  0  0  0
  161.6380  206.3650  147.6890 C   0  0  0  0  0  0  0  0  0  0  0  0
  160.4510  206.4150  147.2680 O   0  0  0  0  0  0  0  0  0  0  0  0
  162.0880  207.2790  148.6920 N   0  0  0  0  0  2  0  0  0  0  0  0
  161.6100  203.6270  148.7720 N   0  0  0  0  0  0  0  0  0  0  0  0
  161.0500  203.5680  146.3870 C   0  0  2  0  0  3  0  0  0  0  0  0
  161.8930  203.9550  144.8340 S   0  0  0  0  0  0  0  0  0  0  0  0
  160.9180  202.5430  148.9730 C   0  0  0  0  0  3  0  0  0  0  0  0
  162.6590  205.4280  145.6270 C   0  0  0  0  0  2  0  0  0  0  0  0
  160.5290  201.7130  147.8570 N   0  0  0  0  0  0  0  0  0  0  0  0
  162.5660  205.3160  147.1520 C   0  0  2  0  0  3  0  0  0  0  0  0
  162.0890  203.9020  147.4220 C   0  0  1  0  0  3  0  0  0  0  0  0
  160.5940  202.1410  146.6250 C   0  0  0  0  0  0  0  0  0  0  0  0
  160.6210  199.9690  145.4200 C   0  0  0  0  0  1  0  0  0  0  0  0
  160.1460  201.2940  145.6040 O   0  0  0  0  0  0  0  0  0  0  0  0
  2  5  1  0  0  0  0
  3  4  1  1  0  0  0
  3  8  1  0  0  0  0
  4  6  1  0  0  0  0
  5 13  1  1  0  0  0
  6  5  1  0  0  0  0
  7  9  1  0  0  0  0
  7 10  1  0  0  0  0
  8 12  1  6  0  0  0
  8  2  1  0  0  0  0
  9  1  1  6  0  0  0
  9  3  1  0  0  0  0
 10 12  1  0  0  0  0
 11  7  2  0  0  0  0
 13 15  1  0  0  0  0
 15 14  2  0  0  0  0
 15 16  1  0  0  0  0
 17 19  1  0  0  0  0
 18 17  2  0  0  0  0
 19  1  1  0  0  0  0
 20 23  2  0  0  0  0
 21 22  1  6  0  0  0
 21 28  1  0  0  0  0
 21 27  1  0  0  0  0
 22 24  1  0  0  0  0
 24 26  1  0  0  0  0
 25 23  1  0  0  0  0
 26 27  1  0  0  0  0
 26 17  1  6  0  0  0
 27 20  1  1  0  0  0
 28 25  2  0  0  0  0
 29 30  1  0  0  0  0
 30 28  1  0  0  0  0
M  END
>  <MODEL>
9

>  <REMARK>
 VINA RESULT:      -6.3      3.741      9.773
  Name = 
  6 active torsions:
  status: ('A' for Active; 'I' for Inactive)
    1  A    between atoms: C_6  and  N_20
    2  A    between atoms: C_6  and  C_26
    3  A    between atoms: C_8  and  C_21
    4  A    between atoms: C_11  and  C_23
    5  A    between atoms: C_14  and  C_23
    6  A    between atoms: O_17  and  C_28
                            x       y       z     vdW  Elec       q    Type
                         _______ _______ _______ _____ _____    ______ ____

>  <TORSDO>
F 6

$$$$
