=
 OpenBabel11072413333D

 36 40  0  0  1  0  0  0  0  0999 V2000
  160.6670  209.0440  156.1860 O   0  0  0  0  0  0  0  0  0  0  0  0
  160.8370  203.6590  149.7290 O   0  0  0  0  0  1  0  0  0  0  0  0
  161.1020  212.3520  149.6290 C   0  0  0  0  0  3  0  0  0  0  0  0
  162.5870  205.7820  152.2400 C   0  0  0  0  0  2  0  0  0  0  0  0
  161.7860  210.1910  152.3390 C   0  0  0  0  0  0  0  0  0  0  0  0
  161.9910  207.2320  149.7810 C   0  0  2  0  0  3  0  0  0  0  0  0
  161.0860  206.0390  149.6520 C   0  0  0  0  0  0  0  0  0  0  0  0
  162.1820  210.2130  150.0340 N   0  0  0  0  0  2  0  0  0  0  0  0
  161.6860  208.0080  151.0870 C   0  0  2  0  0  3  0  0  0  0  0  0
  160.8290  210.4280  156.0380 C   0  0  0  0  0  2  0  0  0  0  0  0
  161.5950  204.7360  150.1950 C   0  0  1  0  0  3  0  0  0  0  0  0
  160.8780  207.2530  153.4330 C   0  0  0  0  0  2  0  0  0  0  0  0
  161.5900  204.7540  151.7160 C   0  0  0  0  0  2  0  0  0  0  0  0
  161.7210  210.7430  154.8340 C   0  0  0  0  0  2  0  0  0  0  0  0
  160.4610  208.6800  153.8080 C   0  0  1  0  0  3  0  0  0  0  0  0
  161.1660  211.2660  151.8590 C   0  0  0  0  0  0  0  0  0  0  0  0
  159.7700  208.6760  155.1740 C   0  0  0  0  0  2  0  0  0  0  0  0
  159.7780  206.2150  149.4240 C   0  0  0  0  0  2  0  0  0  0  0  0
  162.4020  209.3790  151.2160 C   0  0  2  0  0  3  0  0  0  0  0  0
  161.4230  211.3420  150.4370 C   0  0  0  0  0  0  0  0  0  0  0  0
  161.8630  208.0270  148.6390 O   0  0  0  0  0  1  0  0  0  0  0  0
  161.9830  207.1860  152.3720 C   0  0  1  0  0  3  0  0  0  0  0  0
  161.6480  209.6620  153.7400 C   0  0  1  0  0  3  0  0  0  0  0  0
  158.9490  212.0910  152.8070 C   0  0  0  0  0  0  0  0  0  0  0  0
  160.3680  212.1580  152.6480 N   0  0  0  0  0  2  0  0  0  0  0  0
  158.3040  211.0770  152.4260 O   0  0  0  0  0  0  0  0  0  0  0  0
  157.5990  214.1120  152.6520 N   0  0  0  0  0  0  0  0  0  0  0  0
  158.2610  213.1870  153.5610 C   0  0  1  0  0  3  0  0  0  0  0  0
  155.9900  213.1710  153.9440 N   0  0  0  0  0  0  0  0  0  0  0  0
  157.1040  212.6530  154.3320 C   0  0  0  0  0  0  0  0  0  0  0  0
  156.3300  214.0750  152.9010 C   0  0  0  0  0  3  0  0  0  0  0  0
  157.1960  211.6300  155.4170 C   0  0  0  0  0  2  0  0  0  0  0  0
  155.3000  210.1800  155.3710 O   0  0  0  0  0  1  0  0  0  0  0  0
  155.8240  211.3170  155.9880 C   0  0  0  0  0  2  0  0  0  0  0  0
  162.7530  213.1080  147.9510 C   0  0  0  0  0  1  0  0  0  0  0  0
  161.4520  212.3610  148.1770 C   0  0  0  0  0  2  0  0  0  0  0  0
  2 11  1  0  0  0  0
  3 20  2  0  0  0  0
  4 22  1  0  0  0  0
  5 23  1  0  0  0  0
  6 21  1  6  0  0  0
  6  9  1  0  0  0  0
  7  6  1  0  0  0  0
  7 11  1  0  0  0  0
  8 20  1  0  0  0  0
  8 19  1  0  0  0  0
  9 19  1  0  0  0  0
  9 22  1  0  0  0  0
 10  1  1  0  0  0  0
 11 13  1  0  0  0  0
 12 15  1  0  0  0  0
 13  4  1  0  0  0  0
 14 10  1  0  0  0  0
 15 17  1  0  0  0  0
 16  5  2  0  0  0  0
 16 25  1  0  0  0  0
 17  1  1  0  0  0  0
 18  7  2  0  0  0  0
 19  5  1  0  0  0  0
 20 16  1  0  0  0  0
 22 12  1  0  0  0  0
 23 15  1  0  0  0  0
 23 14  1  0  0  0  0
 24 28  1  0  0  0  0
 25 24  1  0  0  0  0
 26 24  2  0  0  0  0
 27 31  2  0  0  0  0
 27 28  1  0  0  0  0
 28 30  1  0  0  0  0
 29 30  2  0  0  0  0
 30 32  1  0  0  0  0
 31 29  1  0  0  0  0
 32 34  1  0  0  0  0
 33 34  1  0  0  0  0
 35 36  1  0  0  0  0
 36  3  1  0  0  0  0
M  END
>  <MODEL>
1

>  <REMARK>
 VINA RESULT:      -6.9      0.000      0.000
  Name = 
  5 active torsions:
  status: ('A' for Active; 'I' for Inactive)
    1  A    between atoms: C_4  and  C_30
    2  A    between atoms: C_7  and  C_14
    3  A    between atoms: C_8  and  C_31
    4  A    between atoms: N_17  and  C_23
    5  A    between atoms: C_26  and  C_31
                            x       y       z     vdW  Elec       q    Type
                         _______ _______ _______ _____ _____    ______ ____

>  <TORSDO>
F 5

$$$$
=
 OpenBabel11072413333D

 36 40  0  0  1  0  0  0  0  0999 V2000
  160.8300  203.9830  152.7260 O   0  0  0  0  0  0  0  0  0  0  0  0
  160.2160  203.4060  144.3590 O   0  0  0  0  0  1  0  0  0  0  0  0
  161.7860  210.4080  149.2720 C   0  0  0  0  0  3  0  0  0  0  0  0
  162.2550  203.4270  147.4760 C   0  0  0  0  0  2  0  0  0  0  0  0
  162.1250  207.0080  150.1690 C   0  0  0  0  0  0  0  0  0  0  0  0
  161.8930  206.0990  146.3660 C   0  0  2  0  0  3  0  0  0  0  0  0
  160.8200  205.3300  145.6490 C   0  0  0  0  0  0  0  0  0  0  0  0
  162.5300  208.3210  148.2760 N   0  0  0  0  0  2  0  0  0  0  0  0
  161.7040  205.9990  147.9000 C   0  0  2  0  0  3  0  0  0  0  0  0
  161.1980  205.1610  153.3910 C   0  0  0  0  0  2  0  0  0  0  0  0
  161.1260  203.9040  145.2950 C   0  0  1  0  0  3  0  0  0  0  0  0
  160.7810  204.1260  149.4390 C   0  0  0  0  0  2  0  0  0  0  0  0
  161.1160  203.0320  146.5410 C   0  0  0  0  0  2  0  0  0  0  0  0
  162.1330  206.0040  152.5200 C   0  0  0  0  0  2  0  0  0  0  0  0
  160.5820  205.1040  150.6020 C   0  0  1  0  0  3  0  0  0  0  0  0
  161.6760  208.2280  150.4520 C   0  0  0  0  0  0  0  0  0  0  0  0
  159.8920  204.3900  151.7670 C   0  0  0  0  0  2  0  0  0  0  0  0
  159.5550  205.7670  145.6760 C   0  0  0  0  0  2  0  0  0  0  0  0
  162.6170  206.9350  148.7360 C   0  0  2  0  0  3  0  0  0  0  0  0
  161.9470  209.0870  149.3190 C   0  0  0  0  0  0  0  0  0  0  0  0
  161.8910  207.4200  145.9080 O   0  0  0  0  0  1  0  0  0  0  0  0
  161.8680  204.5530  148.4450 C   0  0  1  0  0  3  0  0  0  0  0  0
  161.9030  205.7830  151.0130 C   0  0  1  0  0  3  0  0  0  0  0  0
  161.5490  209.4360  152.6930 C   0  0  0  0  0  0  0  0  0  0  0  0
  161.0180  208.5840  151.6740 N   0  0  0  0  0  2  0  0  0  0  0  0
  162.5780  210.1320  152.4790 O   0  0  0  0  0  0  0  0  0  0  0  0
  161.6750  209.7910  155.0980 N   0  0  0  0  0  0  0  0  0  0  0  0
  160.7800  209.5920  153.9680 C   0  0  1  0  0  3  0  0  0  0  0  0
  160.3930  211.6530  154.9200 N   0  0  0  0  0  0  0  0  0  0  0  0
  160.0140  210.8690  153.9710 C   0  0  0  0  0  0  0  0  0  0  0  0
  161.4250  210.9550  155.6050 C   0  0  0  0  0  3  0  0  0  0  0  0
  158.9430  211.2280  152.9930 C   0  0  0  0  0  2  0  0  0  0  0  0
  160.0470  212.6320  151.4080 O   0  0  0  0  0  1  0  0  0  0  0  0
  159.1380  212.6400  152.4670 C   0  0  0  0  0  2  0  0  0  0  0  0
  161.8850  212.6920  148.3300 C   0  0  0  0  0  1  0  0  0  0  0  0
  162.1390  211.2200  148.0690 C   0  0  0  0  0  2  0  0  0  0  0  0
  1 10  1  0  0  0  0
  2 11  1  0  0  0  0
  3 20  2  0  0  0  0
  4 22  1  0  0  0  0
  5 16  2  0  0  0  0
  5 23  1  0  0  0  0
  6 21  1  6  0  0  0
  6  9  1  0  0  0  0
  7 18  2  0  0  0  0
  7  6  1  0  0  0  0
  8 19  1  0  0  0  0
  8 20  1  0  0  0  0
  9 22  1  0  0  0  0
  9 19  1  0  0  0  0
 11  7  1  0  0  0  0
 11 13  1  0  0  0  0
 12 15  1  0  0  0  0
 13  4  1  0  0  0  0
 14 10  1  0  0  0  0
 15 23  1  0  0  0  0
 15 17  1  0  0  0  0
 16 25  1  0  0  0  0
 17  1  1  0  0  0  0
 19  5  1  0  0  0  0
 20 16  1  0  0  0  0
 22 12  1  0  0  0  0
 23 14  1  0  0  0  0
 24 28  1  0  0  0  0
 25 24  1  0  0  0  0
 26 24  2  0  0  0  0
 27 31  2  0  0  0  0
 28 30  1  0  0  0  0
 28 27  1  0  0  0  0
 29 31  1  0  0  0  0
 30 29  2  0  0  0  0
 32 30  1  0  0  0  0
 33 34  1  0  0  0  0
 34 32  1  0  0  0  0
 36 35  1  0  0  0  0
 36  3  1  0  0  0  0
M  END
>  <MODEL>
2

>  <REMARK>
 VINA RESULT:      -5.9      2.529      4.489
  Name = 
  5 active torsions:
  status: ('A' for Active; 'I' for Inactive)
    1  A    between atoms: C_4  and  C_30
    2  A    between atoms: C_7  and  C_14
    3  A    between atoms: C_8  and  C_31
    4  A    between atoms: N_17  and  C_23
    5  A    between atoms: C_26  and  C_31
                            x       y       z     vdW  Elec       q    Type
                         _______ _______ _______ _____ _____    ______ ____

>  <TORSDO>
F 5

$$$$
=
 OpenBabel11072413333D

 36 40  0  0  1  0  0  0  0  0999 V2000
  160.8090  203.7610  152.6810 O   0  0  0  0  0  0  0  0  0  0  0  0
  160.2190  203.5570  144.2950 O   0  0  0  0  0  1  0  0  0  0  0  0
  161.7670  210.3350  149.5190 C   0  0  0  0  0  3  0  0  0  0  0  0
  162.2490  203.4410  147.4160 C   0  0  0  0  0  2  0  0  0  0  0  0
  162.1080  206.8980  150.2650 C   0  0  0  0  0  0  0  0  0  0  0  0
  161.8880  206.1600  146.4240 C   0  0  2  0  0  3  0  0  0  0  0  0
  160.8180  205.4220  145.6710 C   0  0  0  0  0  0  0  0  0  0  0  0
  162.5170  208.2950  148.4340 N   0  0  0  0  0  2  0  0  0  0  0  0
  161.6940  205.9910  147.9520 C   0  0  2  0  0  3  0  0  0  0  0  0
  161.1740  204.9080  153.3990 C   0  0  0  0  0  2  0  0  0  0  0  0
  161.1260  204.0130  145.2540 C   0  0  1  0  0  3  0  0  0  0  0  0
  160.7690  204.0500  149.4030 C   0  0  0  0  0  2  0  0  0  0  0  0
  161.1140  203.0870  146.4610 C   0  0  0  0  0  2  0  0  0  0  0  0
  162.1100  205.7910  152.5690 C   0  0  0  0  0  2  0  0  0  0  0  0
  160.5650  204.9750  150.6080 C   0  0  1  0  0  3  0  0  0  0  0  0
  161.6560  208.1040  150.6010 C   0  0  0  0  0  0  0  0  0  0  0  0
  159.8730  204.2090  151.7380 C   0  0  0  0  0  2  0  0  0  0  0  0
  159.5520  205.8560  145.7130 C   0  0  0  0  0  2  0  0  0  0  0  0
  162.6040  206.8890  148.8310 C   0  0  2  0  0  3  0  0  0  0  0  0
  161.9300  209.0120  149.5070 C   0  0  0  0  0  0  0  0  0  0  0  0
  161.8860  207.4990  146.0260 O   0  0  0  0  0  1  0  0  0  0  0  0
  161.8580  204.5220  148.4320 C   0  0  1  0  0  3  0  0  0  0  0  0
  161.8850  205.6370  151.0530 C   0  0  1  0  0  3  0  0  0  0  0  0
  161.4950  209.2590  152.8670 C   0  0  0  0  0  0  0  0  0  0  0  0
  160.9950  208.4040  151.8360 N   0  0  0  0  0  2  0  0  0  0  0  0
  162.4900  210.0050  152.6590 O   0  0  0  0  0  0  0  0  0  0  0  0
  160.0910  208.0870  154.4740 N   0  0  0  0  0  0  0  0  0  0  0  0
  160.7320  209.3540  154.1510 C   0  0  1  0  0  3  0  0  0  0  0  0
  161.5690  208.5350  156.1350 N   0  0  0  0  0  0  0  0  0  0  0  0
  161.6580  209.5170  155.3060 C   0  0  0  0  0  0  0  0  0  0  0  0
  160.5840  207.6630  155.5930 C   0  0  0  0  0  3  0  0  0  0  0  0
  162.5990  210.6620  155.4950 C   0  0  0  0  0  2  0  0  0  0  0  0
  164.3140  211.4310  156.9680 O   0  0  0  0  0  1  0  0  0  0  0  0
  163.1190  210.7100  156.9210 C   0  0  0  0  0  2  0  0  0  0  0  0
  161.7190  212.6370  148.6190 C   0  0  0  0  0  1  0  0  0  0  0  0
  162.1230  211.1990  148.3540 C   0  0  0  0  0  2  0  0  0  0  0  0
  1 10  1  0  0  0  0
  2 11  1  0  0  0  0
  4 22  1  0  0  0  0
  5 16  2  0  0  0  0
  5 23  1  0  0  0  0
  6 21  1  1  0  0  0
  6  9  1  0  0  0  0
  7 18  2  0  0  0  0
  7  6  1  0  0  0  0
  8 19  1  0  0  0  0
  8 20  1  0  0  0  0
  9 22  1  0  0  0  0
  9 19  1  0  0  0  0
 11  7  1  0  0  0  0
 11 13  1  0  0  0  0
 12 15  1  0  0  0  0
 13  4  1  0  0  0  0
 14 10  1  0  0  0  0
 15 23  1  0  0  0  0
 15 17  1  0  0  0  0
 16 25  1  0  0  0  0
 17  1  1  0  0  0  0
 19  5  1  0  0  0  0
 20  3  2  0  0  0  0
 20 16  1  0  0  0  0
 22 12  1  0  0  0  0
 23 14  1  0  0  0  0
 24 28  1  0  0  0  0
 25 24  1  0  0  0  0
 26 24  2  0  0  0  0
 27 31  2  0  0  0  0
 28 27  1  0  0  0  0
 28 30  1  0  0  0  0
 30 32  1  0  0  0  0
 30 29  2  0  0  0  0
 31 29  1  0  0  0  0
 32 34  1  0  0  0  0
 34 33  1  0  0  0  0
 36 35  1  0  0  0  0
 36  3  1  0  0  0  0
M  END
>  <MODEL>
3

>  <REMARK>
 VINA RESULT:      -5.3      3.366      5.041
  Name = 
  5 active torsions:
  status: ('A' for Active; 'I' for Inactive)
    1  A    between atoms: C_4  and  C_30
    2  A    between atoms: C_7  and  C_14
    3  A    between atoms: C_8  and  C_31
    4  A    between atoms: N_17  and  C_23
    5  A    between atoms: C_26  and  C_31
                            x       y       z     vdW  Elec       q    Type
                         _______ _______ _______ _____ _____    ______ ____

>  <TORSDO>
F 5

$$$$
=
 OpenBabel11072413333D

 36 40  0  0  1  0  0  0  0  0999 V2000
  161.0510  203.7380  152.4110 O   0  0  0  0  0  0  0  0  0  0  0  0
  162.1580  210.5180  157.2610 O   0  0  0  0  0  1  0  0  0  0  0  0
  162.3310  209.8920  148.5880 C   0  0  0  0  0  3  0  0  0  0  0  0
  159.9660  208.2990  155.2260 C   0  0  0  0  0  2  0  0  0  0  0  0
  160.9270  207.6190  150.9000 C   0  0  0  0  0  0  0  0  0  0  0  0
  161.1930  210.4120  153.6340 C   0  0  2  0  0  3  0  0  0  0  0  0
  162.0460  210.4350  154.8710 C   0  0  0  0  0  0  0  0  0  0  0  0
  161.0860  209.9420  150.6740 N   0  0  0  0  0  2  0  0  0  0  0  0
  161.2170  209.0070  152.9820 C   0  0  2  0  0  3  0  0  0  0  0  0
  160.9940  203.7940  151.0120 C   0  0  0  0  0  2  0  0  0  0  0  0
  161.3630  210.1450  156.1750 C   0  0  1  0  0  3  0  0  0  0  0  0
  161.4130  206.6150  153.9670 C   0  0  0  0  0  2  0  0  0  0  0  0
  161.0100  208.6690  156.2740 C   0  0  0  0  0  2  0  0  0  0  0  0
  160.4270  205.1370  150.5470 C   0  0  0  0  0  2  0  0  0  0  0  0
  161.7950  206.0260  152.6040 C   0  0  1  0  0  3  0  0  0  0  0  0
  161.6920  207.8440  149.8350 C   0  0  0  0  0  0  0  0  0  0  0  0
  162.1440  204.5440  152.7600 C   0  0  0  0  0  2  0  0  0  0  0  0
  163.3770  210.3380  154.7650 C   0  0  0  0  0  2  0  0  0  0  0  0
  160.5560  208.9240  151.5810 C   0  0  2  0  0  3  0  0  0  0  0  0
  161.7820  209.2750  149.6340 C   0  0  0  0  0  0  0  0  0  0  0  0
  161.6240  211.4170  152.7640 O   0  0  0  0  0  1  0  0  0  0  0  0
  160.5870  207.9040  153.8790 C   0  0  1  0  0  3  0  0  0  0  0  0
  160.7050  206.2780  151.5430 C   0  0  1  0  0  3  0  0  0  0  0  0
  161.7630  206.1710  147.9140 C   0  0  0  0  0  0  0  0  0  0  0  0
  162.3220  206.8150  149.0620 N   0  0  0  0  0  2  0  0  0  0  0  0
  160.7310  206.6320  147.3540 O   0  0  0  0  0  0  0  0  0  0  0  0
  162.0820  203.7570  147.8920 N   0  0  0  0  0  0  0  0  0  0  0  0
  162.5040  205.0210  147.3060 C   0  0  1  0  0  3  0  0  0  0  0  0
  161.5680  203.6800  145.6840 N   0  0  0  0  0  0  0  0  0  0  0  0
  162.1120  204.8320  145.8820 C   0  0  0  0  0  0  0  0  0  0  0  0
  161.5660  203.0340  146.9520 C   0  0  0  0  0  3  0  0  0  0  0  0
  162.2990  205.8430  144.7990 C   0  0  0  0  0  2  0  0  0  0  0  0
  161.6080  205.8320  142.5130 O   0  0  0  0  0  1  0  0  0  0  0  0
  161.1330  205.8210  143.8260 C   0  0  0  0  0  2  0  0  0  0  0  0
  161.1830  211.8280  147.5630 C   0  0  0  0  0  1  0  0  0  0  0  0
  162.3340  211.3790  148.4440 C   0  0  0  0  0  2  0  0  0  0  0  0
  1 17  1  0  0  0  0
  3 20  2  0  0  0  0
  4 13  1  0  0  0  0
  5 23  1  0  0  0  0
  5 19  1  0  0  0  0
  6 21  1  6  0  0  0
  6  7  1  0  0  0  0
  7 11  1  0  0  0  0
  8 19  1  0  0  0  0
  9  6  1  0  0  0  0
  9 22  1  0  0  0  0
 10  1  1  0  0  0  0
 11 13  1  0  0  0  0
 11  2  1  0  0  0  0
 14 10  1  0  0  0  0
 14 23  1  0  0  0  0
 15 17  1  0  0  0  0
 15 12  1  0  0  0  0
 16  5  2  0  0  0  0
 18  7  2  0  0  0  0
 19  9  1  0  0  0  0
 20 16  1  0  0  0  0
 20  8  1  0  0  0  0
 22 12  1  0  0  0  0
 22  4  1  0  0  0  0
 23 15  1  0  0  0  0
 24 25  1  0  0  0  0
 25 16  1  0  0  0  0
 26 24  2  0  0  0  0
 28 27  1  0  0  0  0
 28 24  1  0  0  0  0
 29 30  2  0  0  0  0
 29 31  1  0  0  0  0
 30 28  1  0  0  0  0
 31 27  2  0  0  0  0
 32 30  1  0  0  0  0
 33 34  1  0  0  0  0
 34 32  1  0  0  0  0
 35 36  1  0  0  0  0
 36  3  1  0  0  0  0
M  END
>  <MODEL>
4

>  <REMARK>
 VINA RESULT:      -4.7      3.051      7.891
  Name = 
  5 active torsions:
  status: ('A' for Active; 'I' for Inactive)
    1  A    between atoms: C_4  and  C_30
    2  A    between atoms: C_7  and  C_14
    3  A    between atoms: C_8  and  C_31
    4  A    between atoms: N_17  and  C_23
    5  A    between atoms: C_26  and  C_31
                            x       y       z     vdW  Elec       q    Type
                         _______ _______ _______ _____ _____    ______ ____

>  <TORSDO>
F 5

$$$$
=
 OpenBabel11072413333D

 36 40  0  0  1  0  0  0  0  0999 V2000
  159.6020  213.3420  149.7430 O   0  0  0  0  0  0  0  0  0  0  0  0
  155.8670  213.8460  157.2610 O   0  0  0  0  0  1  0  0  0  0  0  0
  160.8600  207.4990  154.0320 C   0  0  0  0  0  3  0  0  0  0  0  0
  158.8290  214.3550  155.0610 C   0  0  0  0  0  2  0  0  0  0  0  0
  160.6130  210.8440  152.9210 C   0  0  0  0  0  0  0  0  0  0  0  0
  158.7910  211.7060  156.2800 C   0  0  2  0  0  3  0  0  0  0  0  0
  157.3720  212.1520  156.4890 C   0  0  0  0  0  0  0  0  0  0  0  0
  160.6270  209.7260  154.9760 N   0  0  0  0  0  2  0  0  0  0  0  0
  159.1530  211.7260  154.7730 C   0  0  2  0  0  3  0  0  0  0  0  0
  160.4760  212.3070  149.3860 C   0  0  0  0  0  2  0  0  0  0  0  0
  157.1490  213.6120  156.7600 C   0  0  1  0  0  3  0  0  0  0  0  0
  158.4010  213.2410  152.8060 C   0  0  0  0  0  2  0  0  0  0  0  0
  157.3690  214.4270  155.4940 C   0  0  0  0  0  2  0  0  0  0  0  0
  161.2140  211.7740  150.6170 C   0  0  0  0  0  2  0  0  0  0  0  0
  158.8970  212.2290  151.7660 C   0  0  1  0  0  3  0  0  0  0  0  0
  160.6280  209.5420  152.6430 C   0  0  0  0  0  0  0  0  0  0  0  0
  158.5180  212.7020  150.3600 C   0  0  0  0  0  2  0  0  0  0  0  0
  156.3610  211.3750  156.0790 C   0  0  0  0  0  2  0  0  0  0  0  0
  160.5140  211.0740  154.4170 C   0  0  2  0  0  3  0  0  0  0  0  0
  160.6810  208.8120  153.8920 C   0  0  0  0  0  0  0  0  0  0  0  0
  158.9630  210.4460  156.8580 O   0  0  0  0  0  1  0  0  0  0  0  0
  159.1240  213.1520  154.1550 C   0  0  1  0  0  3  0  0  0  0  0  0
  160.4050  211.9440  151.9170 C   0  0  1  0  0  3  0  0  0  0  0  0
  161.6780  208.4520  150.5940 C   0  0  0  0  0  0  0  0  0  0  0  0
  160.5740  208.9980  151.3190 N   0  0  0  0  0  2  0  0  0  0  0  0
  162.7710  208.2050  151.1730 O   0  0  0  0  0  0  0  0  0  0  0  0
  162.6580  208.3110  148.3690 N   0  0  0  0  0  0  0  0  0  0  0  0
  161.4690  208.0490  149.1670 C   0  0  1  0  0  3  0  0  0  0  0  0
  162.2940  206.0730  148.3180 N   0  0  0  0  0  0  0  0  0  0  0  0
  161.3530  206.5690  149.0460 C   0  0  0  0  0  0  0  0  0  0  0  0
  163.0870  207.1800  147.9100 C   0  0  0  0  0  3  0  0  0  0  0  0
  160.2960  205.7370  149.6930 C   0  0  0  0  0  2  0  0  0  0  0  0
  161.8040  204.8040  151.2930 O   0  0  0  0  0  1  0  0  0  0  0  0
  160.8890  204.4730  150.2930 C   0  0  0  0  0  2  0  0  0  0  0  0
  159.6370  206.9830  156.1190 C   0  0  0  0  0  1  0  0  0  0  0  0
  160.9480  206.8390  155.3690 C   0  0  0  0  0  2  0  0  0  0  0  0
  1 17  1  0  0  0  0
  3 36  1  0  0  0  0
  4 13  1  0  0  0  0
  5 19  1  0  0  0  0
  6  7  1  0  0  0  0
  6 21  1  6  0  0  0
  7 11  1  0  0  0  0
  9  6  1  0  0  0  0
 10  1  1  0  0  0  0
 10 14  1  0  0  0  0
 11  2  1  0  0  0  0
 12 22  1  0  0  0  0
 13 11  1  0  0  0  0
 14 23  1  0  0  0  0
 15 23  1  0  0  0  0
 15 12  1  0  0  0  0
 16  5  2  0  0  0  0
 16 20  1  0  0  0  0
 17 15  1  0  0  0  0
 18  7  2  0  0  0  0
 19  9  1  0  0  0  0
 19  8  1  0  0  0  0
 20  3  2  0  0  0  0
 20  8  1  0  0  0  0
 22  9  1  0  0  0  0
 22  4  1  0  0  0  0
 23  5  1  0  0  0  0
 24 26  2  0  0  0  0
 24 25  1  0  0  0  0
 25 16  1  0  0  0  0
 27 28  1  0  0  0  0
 28 24  1  0  0  0  0
 29 30  2  0  0  0  0
 30 28  1  0  0  0  0
 30 32  1  0  0  0  0
 31 29  1  0  0  0  0
 31 27  2  0  0  0  0
 32 34  1  0  0  0  0
 34 33  1  0  0  0  0
 36 35  1  0  0  0  0
M  END
>  <MODEL>
5

>  <REMARK>
 VINA RESULT:      -4.2      2.291      8.003
  Name = 
  5 active torsions:
  status: ('A' for Active; 'I' for Inactive)
    1  A    between atoms: C_4  and  C_30
    2  A    between atoms: C_7  and  C_14
    3  A    between atoms: C_8  and  C_31
    4  A    between atoms: N_17  and  C_23
    5  A    between atoms: C_26  and  C_31
                            x       y       z     vdW  Elec       q    Type
                         _______ _______ _______ _____ _____    ______ ____

>  <TORSDO>
F 5

$$$$
