=
 OpenBabel11072412193D

 38 42  0  0  1  0  0  0  0  0999 V2000
  161.2510  207.7990  153.2480 C   0  0  0  0  0  0  0  0  0  0  0  0
  159.3470  210.5320  152.5530 O   0  0  0  0  0  0  0  0  0  0  0  0
  162.2580  207.9240  150.9620 C   0  0  0  0  0  3  0  0  0  0  0  0
  160.4760  209.9890  152.4100 C   0  0  0  0  0  0  0  0  0  0  0  0
  161.1440  205.5440  153.5060 C   0  0  0  0  0  2  0  0  0  0  0  0
  161.7740  207.2470  152.0090 C   0  0  0  0  0  0  0  0  0  0  0  0
  162.3610  209.4190  150.9200 C   0  0  0  0  0  2  0  0  0  0  0  0
  161.1370  209.2710  153.5580 C   0  0  1  0  0  3  0  0  0  0  0  0
  161.6900  205.7670  152.0880 C   0  0  2  0  0  3  0  0  0  0  0  0
  160.9070  206.8690  154.0700 N   0  0  0  0  0  0  0  0  0  0  0  0
  161.0940  210.0260  151.1570 O   0  0  0  0  0  0  0  0  0  0  0  0
  160.4520  209.5590  154.8940 C   0  0  0  0  0  2  0  0  0  0  0  0
  160.6400  211.0180  155.2780 C   0  0  0  0  0  2  0  0  0  0  0  0
  159.6630  211.4060  156.3810 C   0  0  1  0  0  3  0  0  0  0  0  0
  160.3010  212.4790  157.2510 C   0  0  0  0  0  1  0  0  0  0  0  0
  158.3500  211.9190  155.7770 C   0  0  1  0  0  3  0  0  0  0  0  0
  157.2700  212.0450  156.8140 C   0  0  0  0  0  3  0  0  0  0  0  0
  156.0840  211.6100  156.5890 N   0  0  0  0  0  2  0  0  0  0  0  0
  158.5530  213.2080  155.1290 N   0  0  0  0  0  2  0  0  0  0  0  0
  157.1010  214.4430  153.6370 C   0  0  0  0  0  2  0  0  0  0  0  0
  158.4280  214.2230  152.9370 C   0  0  1  0  0  3  0  0  0  0  0  0
  157.8610  213.1530  153.8540 C   0  0  1  0  0  3  0  0  0  0  0  0
  158.2050  213.8270  151.5160 C   0  0  0  0  0  0  0  0  0  0  0  0
  157.0610  213.9650  151.0030 O   0  0  0  0  0  0  0  0  0  0  0  0
  159.2520  213.2710  150.7780 O   0  0  0  0  0  0  0  0  0  0  0  0
  160.1650  214.0770  150.0470 C   0  0  0  0  0  1  0  0  0  0  0  0
  160.6910  205.2420  151.0610 C   0  0  0  0  0  2  0  0  0  0  0  0
  161.1170  203.8830  150.5210 C   0  0  0  0  0  2  0  0  0  0  0  0
  161.3900  205.0100  144.7550 C   0  0  0  0  0  0  0  0  0  0  0  0
  161.4810  205.5900  143.4590 N   0  0  0  0  0  1  0  0  0  0  0  0
  161.0420  202.2990  146.9950 C   0  0  0  0  0  2  0  0  0  0  0  0
  161.2720  203.6810  144.9610 N   0  0  0  0  0  0  0  0  0  0  0  0
  161.3500  204.9910  148.3020 C   0  0  0  0  0  2  0  0  0  0  0  0
  161.2390  203.5520  146.2720 N   0  0  0  0  0  0  0  0  0  0  0  0
  160.8140  203.7570  149.0360 C   0  0  1  0  0  3  0  0  0  0  0  0
  161.2990  204.7720  146.8240 C   0  0  0  0  0  0  0  0  0  0  0  0
  161.4200  205.7390  145.8950 N   0  0  0  0  0  0  0  0  0  0  0  0
  161.4310  202.4710  148.4670 C   0  0  0  0  0  2  0  0  0  0  0  0
  1  8  1  0  0  0  0
  1 10  2  0  0  0  0
  3  6  2  0  0  0  0
  4  2  2  0  0  0  0
  4  8  1  0  0  0  0
  5 10  1  0  0  0  0
  6  9  1  0  0  0  0
  6  1  1  0  0  0  0
  7  3  1  0  0  0  0
  7 11  1  0  0  0  0
  8 12  1  1  0  0  0
  9 27  1  6  0  0  0
  9  5  1  0  0  0  0
 11  4  1  0  0  0  0
 12 13  1  0  0  0  0
 13 14  1  0  0  0  0
 14 15  1  6  0  0  0
 16 14  1  0  0  0  0
 16 17  1  1  0  0  0
 18 17  2  0  0  0  0
 19 16  1  0  0  0  0
 20 22  1  0  0  0  0
 21 23  1  6  0  0  0
 21 20  1  0  0  0  0
 21 22  1  0  0  0  0
 22 19  1  1  0  0  0
 24 23  2  0  0  0  0
 25 23  1  0  0  0  0
 26 25  1  0  0  0  0
 28 27  1  0  0  0  0
 29 32  2  0  0  0  0
 29 37  1  0  0  0  0
 30 29  1  0  0  0  0
 31 38  1  0  0  0  0
 32 34  1  0  0  0  0
 33 35  1  0  0  0  0
 34 36  1  0  0  0  0
 34 31  1  0  0  0  0
 35 28  1  1  0  0  0
 36 33  1  0  0  0  0
 37 36  2  0  0  0  0
 38 35  1  0  0  0  0
M  END
>  <MODEL>
1

>  <REMARK>
 VINA RESULT:      -7.5      0.000      0.000
  Name = 
  12 active torsions:
  status: ('A' for Active; 'I' for Inactive)
    1  A    between atoms: C_2  and  C_17
    2  A    between atoms: C_2  and  O_25
    3  A    between atoms: C_3  and  C_26
    4  A    between atoms: C_6  and  C_27
    5  A    between atoms: C_6  and  C_29
    6  A    between atoms: C_8  and  C_26
    7  A    between atoms: C_8  and  C_29
    8  A    between atoms: C_11  and  C_30
    9  A    between atoms: C_11  and  C_32
   10  A    between atoms: N_14  and  C_21
   11  A    between atoms: N_14  and  C_26
   12  A    between atoms: C_28  and  C_30
                            x       y       z     vdW  Elec       q    Type
                         _______ _______ _______ _____ _____    ______ ____

>  <TORSDO>
F 12

$$$$
=
 OpenBabel11072412193D

 38 42  0  0  1  0  0  0  0  0999 V2000
  160.7960  207.2090  153.6870 C   0  0  0  0  0  0  0  0  0  0  0  0
  163.3710  206.0840  151.7690 O   0  0  0  0  0  0  0  0  0  0  0  0
  160.8880  209.4140  152.5090 C   0  0  0  0  0  3  0  0  0  0  0  0
  162.3140  206.7710  151.7890 C   0  0  0  0  0  0  0  0  0  0  0  0
  160.2810  207.9080  155.7870 C   0  0  0  0  0  2  0  0  0  0  0  0
  160.7270  208.6590  153.6010 C   0  0  0  0  0  0  0  0  0  0  0  0
  161.1470  208.8490  151.1450 C   0  0  0  0  0  2  0  0  0  0  0  0
  161.0950  206.2890  152.5300 C   0  0  1  0  0  3  0  0  0  0  0  0
  160.4400  209.1900  154.9580 C   0  0  2  0  0  3  0  0  0  0  0  0
  160.5500  206.7950  154.8820 N   0  0  0  0  0  0  0  0  0  0  0  0
  162.2990  208.0130  151.1480 O   0  0  0  0  0  0  0  0  0  0  0  0
  161.2060  204.8190  152.9360 C   0  0  0  0  0  2  0  0  0  0  0  0
  160.4960  203.9370  151.9210 C   0  0  0  0  0  2  0  0  0  0  0  0
  161.5070  203.1030  151.1440 C   0  0  1  0  0  3  0  0  0  0  0  0
  161.2830  201.6320  151.4630 C   0  0  0  0  0  1  0  0  0  0  0  0
  161.3600  203.3510  149.6380 C   0  0  1  0  0  3  0  0  0  0  0  0
  160.5130  202.2990  148.9790 C   0  0  0  0  0  3  0  0  0  0  0  0
  160.8390  201.8060  147.8400 N   0  0  0  0  0  2  0  0  0  0  0  0
  160.7810  204.6640  149.3880 N   0  0  0  0  0  2  0  0  0  0  0  0
  160.6430  206.3520  147.6590 C   0  0  0  0  0  2  0  0  0  0  0  0
  162.0320  205.7440  147.6210 C   0  0  1  0  0  3  0  0  0  0  0  0
  160.8270  204.8800  147.9530 C   0  0  1  0  0  3  0  0  0  0  0  0
  162.4490  205.4920  146.2110 C   0  0  0  0  0  0  0  0  0  0  0  0
  163.4800  204.8030  145.9810 O   0  0  0  0  0  0  0  0  0  0  0  0
  161.7190  206.0510  145.1600 O   0  0  0  0  0  0  0  0  0  0  0  0
  161.3550  205.2950  144.0150 C   0  0  0  0  0  1  0  0  0  0  0  0
  161.6310  209.9930  155.4710 C   0  0  0  0  0  2  0  0  0  0  0  0
  161.2080  211.3880  155.9140 C   0  0  0  0  0  2  0  0  0  0  0  0
  155.7920  213.6280  156.4110 C   0  0  0  0  0  0  0  0  0  0  0  0
  154.5340  214.1280  156.8480 N   0  0  0  0  0  1  0  0  0  0  0  0
  158.1690  212.7490  153.9480 C   0  0  0  0  0  2  0  0  0  0  0  0
  156.1510  213.5710  155.1110 N   0  0  0  0  0  0  0  0  0  0  0  0
  159.0620  212.3040  156.7860 C   0  0  0  0  0  2  0  0  0  0  0  0
  157.3720  213.0750  155.1260 N   0  0  0  0  0  0  0  0  0  0  0  0
  159.7490  211.6580  155.5780 C   0  0  1  0  0  3  0  0  0  0  0  0
  157.7120  212.8150  156.3970 C   0  0  0  0  0  0  0  0  0  0  0  0
  156.7430  213.1730  157.2600 N   0  0  0  0  0  0  0  0  0  0  0  0
  159.6380  212.5580  154.3390 C   0  0  0  0  0  2  0  0  0  0  0  0
  1 10  2  0  0  0  0
  2  4  2  0  0  0  0
  3  6  2  0  0  0  0
  4  8  1  0  0  0  0
  6  1  1  0  0  0  0
  6  9  1  0  0  0  0
  7 11  1  0  0  0  0
  7  3  1  0  0  0  0
  8 12  1  1  0  0  0
  8  1  1  0  0  0  0
  9 27  1  1  0  0  0
  9  5  1  0  0  0  0
 10  5  1  0  0  0  0
 11  4  1  0  0  0  0
 13 12  1  0  0  0  0
 14 15  1  6  0  0  0
 14 13  1  0  0  0  0
 16 17  1  1  0  0  0
 16 14  1  0  0  0  0
 18 17  2  0  0  0  0
 19 16  1  0  0  0  0
 20 22  1  0  0  0  0
 21 23  1  6  0  0  0
 21 20  1  0  0  0  0
 21 22  1  0  0  0  0
 22 19  1  1  0  0  0
 24 23  2  0  0  0  0
 25 23  1  0  0  0  0
 26 25  1  0  0  0  0
 27 28  1  0  0  0  0
 29 30  1  0  0  0  0
 29 37  1  0  0  0  0
 31 38  1  0  0  0  0
 31 34  1  0  0  0  0
 32 34  1  0  0  0  0
 32 29  2  0  0  0  0
 34 36  1  0  0  0  0
 35 28  1  1  0  0  0
 35 33  1  0  0  0  0
 36 33  1  0  0  0  0
 36 37  2  0  0  0  0
 38 35  1  0  0  0  0
M  END
>  <MODEL>
2

>  <REMARK>
 VINA RESULT:      -7.3      2.592     10.075
  Name = 
  12 active torsions:
  status: ('A' for Active; 'I' for Inactive)
    1  A    between atoms: C_2  and  C_17
    2  A    between atoms: C_2  and  O_25
    3  A    between atoms: C_3  and  C_26
    4  A    between atoms: C_6  and  C_27
    5  A    between atoms: C_6  and  C_29
    6  A    between atoms: C_8  and  C_26
    7  A    between atoms: C_8  and  C_29
    8  A    between atoms: C_11  and  C_30
    9  A    between atoms: C_11  and  C_32
   10  A    between atoms: N_14  and  C_21
   11  A    between atoms: N_14  and  C_26
   12  A    between atoms: C_28  and  C_30
                            x       y       z     vdW  Elec       q    Type
                         _______ _______ _______ _____ _____    ______ ____

>  <TORSDO>
F 12

$$$$
=
 OpenBabel11072412193D

 38 42  0  0  1  0  0  0  0  0999 V2000
  160.8030  209.2230  153.9850 C   0  0  0  0  0  0  0  0  0  0  0  0
  159.7180  207.2900  156.5650 O   0  0  0  0  0  0  0  0  0  0  0  0
  161.5840  210.9530  155.6140 C   0  0  0  0  0  3  0  0  0  0  0  0
  160.6220  208.0700  156.1610 C   0  0  0  0  0  0  0  0  0  0  0  0
  160.0710  210.5690  152.3060 C   0  0  0  0  0  2  0  0  0  0  0  0
  161.0260  210.5800  154.4580 C   0  0  0  0  0  0  0  0  0  0  0  0
  162.1120  209.9830  156.6270 C   0  0  0  0  0  2  0  0  0  0  0  0
  161.1500  207.9730  154.7530 C   0  0  1  0  0  3  0  0  0  0  0  0
  160.5230  211.5200  153.4230 C   0  0  2  0  0  3  0  0  0  0  0  0
  160.2820  209.2140  152.8060 N   0  0  0  0  0  0  0  0  0  0  0  0
  161.1040  209.0580  157.0240 O   0  0  0  0  0  0  0  0  0  0  0  0
  160.7070  206.6870  154.0550 C   0  0  0  0  0  2  0  0  0  0  0  0
  161.8200  206.1620  153.1630 C   0  0  0  0  0  2  0  0  0  0  0  0
  161.4080  206.2380  151.6980 C   0  0  1  0  0  3  0  0  0  0  0  0
  162.3080  207.2350  150.9840 C   0  0  0  0  0  1  0  0  0  0  0  0
  161.5130  204.8570  151.0410 C   0  0  1  0  0  3  0  0  0  0  0  0
  160.9510  203.7760  151.9200 C   0  0  0  0  0  3  0  0  0  0  0  0
  161.1800  202.5380  151.6730 N   0  0  0  0  0  2  0  0  0  0  0  0
  160.8220  204.8450  149.7580 N   0  0  0  0  0  2  0  0  0  0  0  0
  161.4290  203.3880  147.9240 C   0  0  0  0  0  2  0  0  0  0  0  0
  161.1970  204.7810  147.3690 C   0  0  1  0  0  3  0  0  0  0  0  0
  161.8270  204.5980  148.7390 C   0  0  1  0  0  3  0  0  0  0  0  0
  162.2580  205.1280  146.3790 C   0  0  0  0  0  0  0  0  0  0  0  0
  163.4440  204.7490  146.5790 O   0  0  0  0  0  0  0  0  0  0  0  0
  161.9370  205.9010  145.2610 O   0  0  0  0  0  0  0  0  0  0  0  0
  161.1910  205.3750  144.1750 C   0  0  0  0  0  1  0  0  0  0  0  0
  159.3230  212.2960  153.9580 C   0  0  0  0  0  2  0  0  0  0  0  0
  159.1060  213.5840  153.1750 C   0  0  0  0  0  2  0  0  0  0  0  0
  157.5690  213.3440  147.5030 C   0  0  0  0  0  0  0  0  0  0  0  0
  156.9150  213.1810  146.2500 N   0  0  0  0  0  1  0  0  0  0  0  0
  160.3310  214.1540  149.5530 C   0  0  0  0  0  2  0  0  0  0  0  0
  158.8390  213.7860  147.6190 N   0  0  0  0  0  0  0  0  0  0  0  0
  157.8490  213.3290  151.0390 C   0  0  0  0  0  2  0  0  0  0  0  0
  159.0620  213.8140  148.9170 N   0  0  0  0  0  0  0  0  0  0  0  0
  159.2430  213.3540  151.6780 C   0  0  1  0  0  3  0  0  0  0  0  0
  157.9660  213.3680  149.5500 C   0  0  0  0  0  0  0  0  0  0  0  0
  156.9730  213.0750  148.6880 N   0  0  0  0  0  0  0  0  0  0  0  0
  160.1170  214.4440  151.0420 C   0  0  0  0  0  2  0  0  0  0  0  0
  1  6  1  0  0  0  0
  1  8  1  0  0  0  0
  3  7  1  0  0  0  0
  4  2  2  0  0  0  0
  4 11  1  0  0  0  0
  5 10  1  0  0  0  0
  5  9  1  0  0  0  0
  6  3  2  0  0  0  0
  7 11  1  0  0  0  0
  8 12  1  6  0  0  0
  8  4  1  0  0  0  0
  9 27  1  1  0  0  0
  9  6  1  0  0  0  0
 10  1  2  0  0  0  0
 13 12  1  0  0  0  0
 14 15  1  6  0  0  0
 14 13  1  0  0  0  0
 16 14  1  0  0  0  0
 16 17  1  1  0  0  0
 18 17  2  0  0  0  0
 19 16  1  0  0  0  0
 20 22  1  0  0  0  0
 21 23  1  6  0  0  0
 21 20  1  0  0  0  0
 21 22  1  0  0  0  0
 22 19  1  1  0  0  0
 23 24  2  0  0  0  0
 25 23  1  0  0  0  0
 26 25  1  0  0  0  0
 28 27  1  0  0  0  0
 29 32  2  0  0  0  0
 29 37  1  0  0  0  0
 30 29  1  0  0  0  0
 31 38  1  0  0  0  0
 32 34  1  0  0  0  0
 33 35  1  0  0  0  0
 34 36  1  0  0  0  0
 34 31  1  0  0  0  0
 35 28  1  1  0  0  0
 36 33  1  0  0  0  0
 37 36  2  0  0  0  0
 38 35  1  0  0  0  0
M  END
>  <MODEL>
3

>  <REMARK>
 VINA RESULT:      -6.8      3.530      8.807
  Name = 
  12 active torsions:
  status: ('A' for Active; 'I' for Inactive)
    1  A    between atoms: C_2  and  C_17
    2  A    between atoms: C_2  and  O_25
    3  A    between atoms: C_3  and  C_26
    4  A    between atoms: C_6  and  C_27
    5  A    between atoms: C_6  and  C_29
    6  A    between atoms: C_8  and  C_26
    7  A    between atoms: C_8  and  C_29
    8  A    between atoms: C_11  and  C_30
    9  A    between atoms: C_11  and  C_32
   10  A    between atoms: N_14  and  C_21
   11  A    between atoms: N_14  and  C_26
   12  A    between atoms: C_28  and  C_30
                            x       y       z     vdW  Elec       q    Type
                         _______ _______ _______ _____ _____    ______ ____

>  <TORSDO>
F 12

$$$$
=
 OpenBabel11072412193D

 38 42  0  0  1  0  0  0  0  0999 V2000
  160.9950  209.0850  154.2450 C   0  0  0  0  0  0  0  0  0  0  0  0
  159.6970  207.1130  156.6950 O   0  0  0  0  0  0  0  0  0  0  0  0
  162.1300  210.4860  155.9780 C   0  0  0  0  0  3  0  0  0  0  0  0
  160.7060  207.7660  156.3120 C   0  0  0  0  0  0  0  0  0  0  0  0
  160.4390  210.6960  152.7420 C   0  0  0  0  0  2  0  0  0  0  0  0
  161.4680  210.3300  154.8270 C   0  0  0  0  0  0  0  0  0  0  0  0
  162.5230  209.3430  156.8660 C   0  0  0  0  0  2  0  0  0  0  0  0
  161.1510  207.7230  154.8740 C   0  0  1  0  0  3  0  0  0  0  0  0
  161.0940  211.4410  153.9140 C   0  0  2  0  0  3  0  0  0  0  0  0
  160.4320  209.2820  153.1020 N   0  0  0  0  0  0  0  0  0  0  0  0
  161.3870  208.5670  157.2330 O   0  0  0  0  0  0  0  0  0  0  0  0
  160.4630  206.6070  154.0870 C   0  0  0  0  0  2  0  0  0  0  0  0
  161.4960  205.7630  153.3590 C   0  0  0  0  0  2  0  0  0  0  0  0
  161.3770  205.9610  151.8520 C   0  0  1  0  0  3  0  0  0  0  0  0
  162.4430  206.9480  151.4000 C   0  0  0  0  0  1  0  0  0  0  0  0
  161.5430  204.6240  151.1220 C   0  0  1  0  0  3  0  0  0  0  0  0
  161.1760  203.4600  151.9980 C   0  0  0  0  0  3  0  0  0  0  0  0
  161.3030  202.2530  151.5810 N   0  0  0  0  0  2  0  0  0  0  0  0
  160.7290  204.5960  149.9130 N   0  0  0  0  0  2  0  0  0  0  0  0
  161.5350  203.7700  147.7860 C   0  0  0  0  0  2  0  0  0  0  0  0
  160.7860  205.0650  147.5410 C   0  0  1  0  0  3  0  0  0  0  0  0
  161.6160  204.8880  148.8010 C   0  0  1  0  0  3  0  0  0  0  0  0
  161.5320  205.9210  146.5730 C   0  0  0  0  0  0  0  0  0  0  0  0
  162.4500  206.6780  146.9910 O   0  0  0  0  0  0  0  0  0  0  0  0
  161.1830  205.9060  145.2200 O   0  0  0  0  0  0  0  0  0  0  0  0
  160.9140  204.6960  144.5290 C   0  0  0  0  0  1  0  0  0  0  0  0
  160.0710  212.3500  154.5860 C   0  0  0  0  0  2  0  0  0  0  0  0
  158.8850  212.6190  153.6690 C   0  0  0  0  0  2  0  0  0  0  0  0
  154.3540  210.4420  156.7230 C   0  0  0  0  0  0  0  0  0  0  0  0
  153.2920  209.6630  157.2610 N   0  0  0  0  0  1  0  0  0  0  0  0
  156.4000  213.3180  156.5470 C   0  0  0  0  0  2  0  0  0  0  0  0
  154.6950  211.6550  157.2050 N   0  0  0  0  0  0  0  0  0  0  0  0
  157.0900  211.1500  154.5780 C   0  0  0  0  0  2  0  0  0  0  0  0
  155.7180  212.0290  156.4630 N   0  0  0  0  0  0  0  0  0  0  0  0
  157.5730  212.5980  154.4380 C   0  0  1  0  0  3  0  0  0  0  0  0
  155.9530  211.0790  155.5460 C   0  0  0  0  0  0  0  0  0  0  0  0
  155.1200  210.0300  155.6850 N   0  0  0  0  0  0  0  0  0  0  0  0
  157.7440  213.2540  155.8150 C   0  0  0  0  0  2  0  0  0  0  0  0
  1  6  1  0  0  0  0
  1  8  1  0  0  0  0
  3  7  1  0  0  0  0
  4  2  2  0  0  0  0
  4 11  1  0  0  0  0
  5 10  1  0  0  0  0
  5  9  1  0  0  0  0
  6  3  2  0  0  0  0
  7 11  1  0  0  0  0
  8 12  1  6  0  0  0
  8  4  1  0  0  0  0
  9 27  1  1  0  0  0
  9  6  1  0  0  0  0
 10  1  2  0  0  0  0
 13 12  1  0  0  0  0
 14 15  1  6  0  0  0
 14 13  1  0  0  0  0
 16 14  1  0  0  0  0
 16 17  1  1  0  0  0
 18 17  2  0  0  0  0
 19 16  1  0  0  0  0
 20 22  1  0  0  0  0
 21 23  1  6  0  0  0
 21 20  1  0  0  0  0
 21 22  1  0  0  0  0
 22 19  1  1  0  0  0
 23 24  2  0  0  0  0
 25 23  1  0  0  0  0
 26 25  1  0  0  0  0
 28 27  1  0  0  0  0
 29 32  2  0  0  0  0
 29 30  1  0  0  0  0
 33 36  1  0  0  0  0
 34 31  1  0  0  0  0
 34 32  1  0  0  0  0
 35 28  1  1  0  0  0
 35 33  1  0  0  0  0
 35 38  1  0  0  0  0
 36 37  2  0  0  0  0
 36 34  1  0  0  0  0
 37 29  1  0  0  0  0
 38 31  1  0  0  0  0
M  END
>  <MODEL>
4

>  <REMARK>
 VINA RESULT:      -6.8      3.274      9.867
  Name = 
  12 active torsions:
  status: ('A' for Active; 'I' for Inactive)
    1  A    between atoms: C_2  and  C_17
    2  A    between atoms: C_2  and  O_25
    3  A    between atoms: C_3  and  C_26
    4  A    between atoms: C_6  and  C_27
    5  A    between atoms: C_6  and  C_29
    6  A    between atoms: C_8  and  C_26
    7  A    between atoms: C_8  and  C_29
    8  A    between atoms: C_11  and  C_30
    9  A    between atoms: C_11  and  C_32
   10  A    between atoms: N_14  and  C_21
   11  A    between atoms: N_14  and  C_26
   12  A    between atoms: C_28  and  C_30
                            x       y       z     vdW  Elec       q    Type
                         _______ _______ _______ _____ _____    ______ ____

>  <TORSDO>
F 12

$$$$
=
 OpenBabel11072412193D

 38 42  0  0  1  0  0  0  0  0999 V2000
  161.9470  208.3730  150.2320 C   0  0  0  0  0  0  0  0  0  0  0  0
  160.0720  205.6940  149.2930 O   0  0  0  0  0  0  0  0  0  0  0  0
  161.5180  207.8270  152.6350 C   0  0  0  0  0  3  0  0  0  0  0  0
  160.9130  206.1340  150.1240 C   0  0  0  0  0  0  0  0  0  0  0  0
  161.9240  210.6430  150.3360 C   0  0  0  0  0  2  0  0  0  0  0  0
  161.6740  208.6900  151.6240 C   0  0  0  0  0  0  0  0  0  0  0  0
  161.6310  206.3410  152.4770 C   0  0  0  0  0  2  0  0  0  0  0  0
  162.0740  206.9790  149.6710 C   0  0  1  0  0  3  0  0  0  0  0  0
  161.5970  210.1670  151.7580 C   0  0  2  0  0  3  0  0  0  0  0  0
  162.0850  209.4410  149.5240 N   0  0  0  0  0  0  0  0  0  0  0  0
  160.7310  205.8620  151.4830 O   0  0  0  0  0  0  0  0  0  0  0  0
  162.2570  206.9480  148.1530 C   0  0  0  0  0  2  0  0  0  0  0  0
  162.8910  205.6340  147.7260 C   0  0  0  0  0  2  0  0  0  0  0  0
  162.7040  205.4170  146.2300 C   0  0  1  0  0  3  0  0  0  0  0  0
  163.7390  204.4130  145.7440 C   0  0  0  0  0  1  0  0  0  0  0  0
  161.2880  204.9090  145.9350 C   0  0  1  0  0  3  0  0  0  0  0  0
  160.6720  205.6200  144.7630 C   0  0  0  0  0  3  0  0  0  0  0  0
  161.2210  205.5800  143.6040 N   0  0  0  0  0  2  0  0  0  0  0  0
  161.3000  203.4750  145.6790 N   0  0  0  0  0  2  0  0  0  0  0  0
  160.7900  201.3640  146.7480 C   0  0  0  0  0  2  0  0  0  0  0  0
  161.4600  202.2640  147.7670 C   0  0  1  0  0  3  0  0  0  0  0  0
  160.5170  202.8520  146.7320 C   0  0  1  0  0  3  0  0  0  0  0  0
  160.7580  202.1730  149.0810 C   0  0  0  0  0  0  0  0  0  0  0  0
  159.7050  201.4860  149.1770 O   0  0  0  0  0  0  0  0  0  0  0  0
  161.2500  202.8780  150.1820 O   0  0  0  0  0  0  0  0  0  0  0  0
  161.0910  202.4020  151.5090 C   0  0  0  0  0  1  0  0  0  0  0  0
  160.1800  210.5870  152.1320 C   0  0  0  0  0  2  0  0  0  0  0  0
  160.0850  212.0940  152.3340 C   0  0  0  0  0  2  0  0  0  0  0  0
  155.9500  211.7410  156.5010 C   0  0  0  0  0  0  0  0  0  0  0  0
  154.7570  211.5810  157.2590 N   0  0  0  0  0  1  0  0  0  0  0  0
  159.3860  212.4720  156.1170 C   0  0  0  0  0  2  0  0  0  0  0  0
  157.1380  212.0610  157.0550 N   0  0  0  0  0  0  0  0  0  0  0  0
  157.9580  211.7270  153.5760 C   0  0  0  0  0  2  0  0  0  0  0  0
  157.9780  212.0930  156.0410 N   0  0  0  0  0  0  0  0  0  0  0  0
  159.3160  212.4370  153.6000 C   0  0  1  0  0  3  0  0  0  0  0  0
  157.2990  211.8340  154.9130 C   0  0  0  0  0  0  0  0  0  0  0  0
  155.9990  211.5790  155.1580 N   0  0  0  0  0  0  0  0  0  0  0  0
  160.1210  212.0370  154.8450 C   0  0  0  0  0  2  0  0  0  0  0  0
  1  6  1  0  0  0  0
  2  4  2  0  0  0  0
  4 11  1  0  0  0  0
  5  9  1  0  0  0  0
  6  9  1  0  0  0  0
  6  3  2  0  0  0  0
  7  3  1  0  0  0  0
  8 12  1  6  0  0  0
  8  4  1  0  0  0  0
  8  1  1  0  0  0  0
  9 27  1  6  0  0  0
 10  1  2  0  0  0  0
 10  5  1  0  0  0  0
 11  7  1  0  0  0  0
 13 12  1  0  0  0  0
 14 15  1  1  0  0  0
 14 13  1  0  0  0  0
 16 17  1  6  0  0  0
 16 14  1  0  0  0  0
 18 17  2  0  0  0  0
 19 16  1  0  0  0  0
 20 21  1  0  0  0  0
 21 23  1  1  0  0  0
 22 19  1  6  0  0  0
 22 20  1  0  0  0  0
 22 21  1  0  0  0  0
 23 24  2  0  0  0  0
 23 25  1  0  0  0  0
 25 26  1  0  0  0  0
 27 28  1  0  0  0  0
 29 32  2  0  0  0  0
 29 30  1  0  0  0  0
 33 35  1  0  0  0  0
 33 36  1  0  0  0  0
 34 31  1  0  0  0  0
 34 32  1  0  0  0  0
 35 28  1  6  0  0  0
 35 38  1  0  0  0  0
 36 37  2  0  0  0  0
 36 34  1  0  0  0  0
 37 29  1  0  0  0  0
 38 31  1  0  0  0  0
M  END
>  <MODEL>
5

>  <REMARK>
 VINA RESULT:      -6.7      2.747     10.776
  Name = 
  12 active torsions:
  status: ('A' for Active; 'I' for Inactive)
    1  A    between atoms: C_2  and  C_17
    2  A    between atoms: C_2  and  O_25
    3  A    between atoms: C_3  and  C_26
    4  A    between atoms: C_6  and  C_27
    5  A    between atoms: C_6  and  C_29
    6  A    between atoms: C_8  and  C_26
    7  A    between atoms: C_8  and  C_29
    8  A    between atoms: C_11  and  C_30
    9  A    between atoms: C_11  and  C_32
   10  A    between atoms: N_14  and  C_21
   11  A    between atoms: N_14  and  C_26
   12  A    between atoms: C_28  and  C_30
                            x       y       z     vdW  Elec       q    Type
                         _______ _______ _______ _____ _____    ______ ____

>  <TORSDO>
F 12

$$$$
=
 OpenBabel11072412193D

 38 42  0  0  1  0  0  0  0  0999 V2000
  161.2280  208.2110  153.8530 C   0  0  0  0  0  0  0  0  0  0  0  0
  159.3740  210.7430  152.5390 O   0  0  0  0  0  0  0  0  0  0  0  0
  162.2240  207.7770  151.6000 C   0  0  0  0  0  3  0  0  0  0  0  0
  160.4910  210.1590  152.5260 C   0  0  0  0  0  0  0  0  0  0  0  0
  161.0790  206.0820  154.6320 C   0  0  0  0  0  2  0  0  0  0  0  0
  161.7340  207.3740  152.7770 C   0  0  0  0  0  0  0  0  0  0  0  0
  162.3560  209.2180  151.2090 C   0  0  0  0  0  2  0  0  0  0  0  0
  161.1440  209.7170  153.8090 C   0  0  1  0  0  3  0  0  0  0  0  0
  161.6210  205.9550  153.2010 C   0  0  2  0  0  3  0  0  0  0  0  0
  160.8700  207.5070  154.8710 N   0  0  0  0  0  0  0  0  0  0  0  0
  161.1030  209.8880  151.2980 O   0  0  0  0  0  0  0  0  0  0  0  0
  160.4720  210.3240  155.0410 C   0  0  0  0  0  2  0  0  0  0  0  0
  160.4640  211.8410  154.9420 C   0  0  0  0  0  2  0  0  0  0  0  0
  159.6210  212.4410  156.0610 C   0  0  1  0  0  3  0  0  0  0  0  0
  160.0270  213.8930  156.2600 C   0  0  0  0  0  1  0  0  0  0  0  0
  158.1300  212.3460  155.7170 C   0  0  1  0  0  3  0  0  0  0  0  0
  157.2880  212.1190  156.9400 C   0  0  0  0  0  3  0  0  0  0  0  0
  156.2930  211.3090  156.9160 N   0  0  0  0  0  2  0  0  0  0  0  0
  157.6820  213.5540  155.0380 N   0  0  0  0  0  2  0  0  0  0  0  0
  155.7240  213.3890  153.6240 C   0  0  0  0  0  2  0  0  0  0  0  0
  156.6880  214.3730  152.9900 C   0  0  1  0  0  3  0  0  0  0  0  0
  157.2140  213.1520  153.7230 C   0  0  1  0  0  3  0  0  0  0  0  0
  156.7710  214.1420  151.5180 C   0  0  0  0  0  0  0  0  0  0  0  0
  157.8430  213.7040  151.0170 O   0  0  0  0  0  0  0  0  0  0  0  0
  155.6780  214.4480  150.7040 O   0  0  0  0  0  0  0  0  0  0  0  0
  155.5600  213.9370  149.3850 C   0  0  0  0  0  1  0  0  0  0  0  0
  160.6070  205.2250  152.3270 C   0  0  0  0  0  2  0  0  0  0  0  0
  161.0530  203.7980  152.0380 C   0  0  0  0  0  2  0  0  0  0  0  0
  160.8300  201.5700  146.5990 C   0  0  0  0  0  0  0  0  0  0  0  0
  160.7290  200.7520  145.4400 N   0  0  0  0  0  1  0  0  0  0  0  0
  161.3020  204.6460  148.2740 C   0  0  0  0  0  2  0  0  0  0  0  0
  161.0270  202.9040  146.5440 N   0  0  0  0  0  0  0  0  0  0  0  0
  160.7970  202.2880  150.0730 C   0  0  0  0  0  2  0  0  0  0  0  0
  161.0410  203.2890  147.8040 N   0  0  0  0  0  0  0  0  0  0  0  0
  161.3950  203.6100  150.5680 C   0  0  1  0  0  3  0  0  0  0  0  0
  160.8920  202.2070  148.5840 C   0  0  0  0  0  0  0  0  0  0  0  0
  160.7290  201.0840  147.8590 N   0  0  0  0  0  0  0  0  0  0  0  0
  160.8730  204.7920  149.7370 C   0  0  0  0  0  2  0  0  0  0  0  0
  1 10  2  0  0  0  0
  3  6  2  0  0  0  0
  4  2  2  0  0  0  0
  4  8  1  0  0  0  0
  5 10  1  0  0  0  0
  6  9  1  0  0  0  0
  6  1  1  0  0  0  0
  7 11  1  0  0  0  0
  7  3  1  0  0  0  0
  8  1  1  0  0  0  0
  8 12  1  1  0  0  0
  9 27  1  6  0  0  0
  9  5  1  0  0  0  0
 11  4  1  0  0  0  0
 13 12  1  0  0  0  0
 13 14  1  0  0  0  0
 14 15  1  6  0  0  0
 16 14  1  0  0  0  0
 16 17  1  1  0  0  0
 18 17  2  0  0  0  0
 19 16  1  0  0  0  0
 20 22  1  0  0  0  0
 21 23  1  6  0  0  0
 21 20  1  0  0  0  0
 21 22  1  0  0  0  0
 22 19  1  1  0  0  0
 24 23  2  0  0  0  0
 25 23  1  0  0  0  0
 26 25  1  0  0  0  0
 28 27  1  0  0  0  0
 29 37  1  0  0  0  0
 30 29  1  0  0  0  0
 31 38  1  0  0  0  0
 32 29  2  0  0  0  0
 32 34  1  0  0  0  0
 33 35  1  0  0  0  0
 34 31  1  0  0  0  0
 34 36  1  0  0  0  0
 35 28  1  1  0  0  0
 36 33  1  0  0  0  0
 37 36  2  0  0  0  0
 38 35  1  0  0  0  0
M  END
>  <MODEL>
6

>  <REMARK>
 VINA RESULT:      -6.4      1.467      2.146
  Name = 
  12 active torsions:
  status: ('A' for Active; 'I' for Inactive)
    1  A    between atoms: C_2  and  C_17
    2  A    between atoms: C_2  and  O_25
    3  A    between atoms: C_3  and  C_26
    4  A    between atoms: C_6  and  C_27
    5  A    between atoms: C_6  and  C_29
    6  A    between atoms: C_8  and  C_26
    7  A    between atoms: C_8  and  C_29
    8  A    between atoms: C_11  and  C_30
    9  A    between atoms: C_11  and  C_32
   10  A    between atoms: N_14  and  C_21
   11  A    between atoms: N_14  and  C_26
   12  A    between atoms: C_28  and  C_30
                            x       y       z     vdW  Elec       q    Type
                         _______ _______ _______ _____ _____    ______ ____

>  <TORSDO>
F 12

$$$$
=
 OpenBabel11072412193D

 38 42  0  0  1  0  0  0  0  0999 V2000
  160.8720  209.2860  153.8350 C   0  0  0  0  0  0  0  0  0  0  0  0
  159.7710  206.8220  155.9070 O   0  0  0  0  0  0  0  0  0  0  0  0
  161.4810  210.6790  155.8210 C   0  0  0  0  0  3  0  0  0  0  0  0
  160.6500  207.7060  155.7200 C   0  0  0  0  0  0  0  0  0  0  0  0
  160.1490  210.9120  152.4220 C   0  0  0  0  0  2  0  0  0  0  0  0
  160.9980  210.5260  154.5830 C   0  0  0  0  0  0  0  0  0  0  0  0
  162.0110  209.5460  156.6470 C   0  0  0  0  0  2  0  0  0  0  0  0
  161.2490  207.9210  154.3550 C   0  0  1  0  0  3  0  0  0  0  0  0
  160.4950  211.6350  153.7320 C   0  0  2  0  0  3  0  0  0  0  0  0
  160.4090  209.4950  152.6500 N   0  0  0  0  0  0  0  0  0  0  0  0
  161.0370  208.5180  156.7900 O   0  0  0  0  0  0  0  0  0  0  0  0
  160.9090  206.7870  153.3870 C   0  0  0  0  0  2  0  0  0  0  0  0
  161.8090  206.8510  152.1640 C   0  0  0  0  0  2  0  0  0  0  0  0
  161.0640  206.3560  150.9300 C   0  0  1  0  0  3  0  0  0  0  0  0
  161.1280  207.4280  149.8520 C   0  0  0  0  0  1  0  0  0  0  0  0
  161.6810  205.0490  150.4210 C   0  0  1  0  0  3  0  0  0  0  0  0
  160.7250  203.8960  150.5430 C   0  0  0  0  0  3  0  0  0  0  0  0
  160.8150  203.0640  151.5160 N   0  0  0  0  0  2  0  0  0  0  0  0
  162.0980  205.1850  149.0310 N   0  0  0  0  0  2  0  0  0  0  0  0
  161.1980  204.9160  146.8010 C   0  0  0  0  0  2  0  0  0  0  0  0
  161.9240  203.6390  147.1790 C   0  0  1  0  0  3  0  0  0  0  0  0
  161.1570  204.4230  148.2300 C   0  0  1  0  0  3  0  0  0  0  0  0
  161.1250  202.4470  146.7690 C   0  0  0  0  0  0  0  0  0  0  0  0
  160.7390  201.6260  147.6460 O   0  0  0  0  0  0  0  0  0  0  0  0
  160.8450  202.2300  145.4190 O   0  0  0  0  0  0  0  0  0  0  0  0
  159.9380  201.2250  144.9930 C   0  0  0  0  0  1  0  0  0  0  0  0
  159.2320  212.2330  154.3420 C   0  0  0  0  0  2  0  0  0  0  0  0
  159.2180  213.7500  154.2050 C   0  0  0  0  0  2  0  0  0  0  0  0
  156.1560  214.2920  149.2130 C   0  0  0  0  0  0  0  0  0  0  0  0
  155.7090  214.4220  147.8690 N   0  0  0  0  0  1  0  0  0  0  0  0
  155.6690  214.0680  152.7060 C   0  0  0  0  0  2  0  0  0  0  0  0
  155.3150  214.2360  150.2670 N   0  0  0  0  0  0  0  0  0  0  0  0
  158.5380  213.9080  151.8150 C   0  0  0  0  0  2  0  0  0  0  0  0
  156.1040  214.0990  151.3130 N   0  0  0  0  0  0  0  0  0  0  0  0
  158.1210  214.2120  153.2590 C   0  0  1  0  0  3  0  0  0  0  0  0
  157.3780  214.1090  150.8930 C   0  0  0  0  0  0  0  0  0  0  0  0
  157.4640  214.2080  149.5530 N   0  0  0  0  0  0  0  0  0  0  0  0
  156.7900  213.5280  153.6000 C   0  0  0  0  0  2  0  0  0  0  0  0
  1  8  1  0  0  0  0
  1  6  1  0  0  0  0
  3  7  1  0  0  0  0
  4  2  2  0  0  0  0
  4 11  1  0  0  0  0
  5 10  1  0  0  0  0
  5  9  1  0  0  0  0
  6  3  2  0  0  0  0
  7 11  1  0  0  0  0
  8 12  1  6  0  0  0
  8  4  1  0  0  0  0
  9 27  1  1  0  0  0
  9  6  1  0  0  0  0
 10  1  2  0  0  0  0
 13 12  1  0  0  0  0
 14 15  1  6  0  0  0
 14 13  1  0  0  0  0
 16 17  1  6  0  0  0
 16 14  1  0  0  0  0
 17 18  2  0  0  0  0
 19 16  1  0  0  0  0
 20 21  1  0  0  0  0
 20 22  1  0  0  0  0
 21 23  1  6  0  0  0
 21 22  1  0  0  0  0
 22 19  1  1  0  0  0
 23 24  2  0  0  0  0
 25 23  1  0  0  0  0
 26 25  1  0  0  0  0
 28 27  1  0  0  0  0
 29 37  1  0  0  0  0
 29 32  2  0  0  0  0
 30 29  1  0  0  0  0
 31 38  1  0  0  0  0
 32 34  1  0  0  0  0
 33 35  1  0  0  0  0
 34 31  1  0  0  0  0
 35 38  1  0  0  0  0
 35 28  1  1  0  0  0
 36 34  1  0  0  0  0
 36 33  1  0  0  0  0
 37 36  2  0  0  0  0
M  END
>  <MODEL>
7

>  <REMARK>
 VINA RESULT:      -6.3      3.527      9.697
  Name = 
  12 active torsions:
  status: ('A' for Active; 'I' for Inactive)
    1  A    between atoms: C_2  and  C_17
    2  A    between atoms: C_2  and  O_25
    3  A    between atoms: C_3  and  C_26
    4  A    between atoms: C_6  and  C_27
    5  A    between atoms: C_6  and  C_29
    6  A    between atoms: C_8  and  C_26
    7  A    between atoms: C_8  and  C_29
    8  A    between atoms: C_11  and  C_30
    9  A    between atoms: C_11  and  C_32
   10  A    between atoms: N_14  and  C_21
   11  A    between atoms: N_14  and  C_26
   12  A    between atoms: C_28  and  C_30
                            x       y       z     vdW  Elec       q    Type
                         _______ _______ _______ _____ _____    ______ ____

>  <TORSDO>
F 12

$$$$
=
 OpenBabel11072412193D

 38 42  0  0  1  0  0  0  0  0999 V2000
  161.1670  207.3570  150.7990 C   0  0  0  0  0  0  0  0  0  0  0  0
  162.6250  205.9270  153.5200 O   0  0  0  0  0  0  0  0  0  0  0  0
  160.4740  205.0950  149.9870 C   0  0  0  0  0  3  0  0  0  0  0  0
  161.6420  205.8950  152.7320 C   0  0  0  0  0  0  0  0  0  0  0  0
  161.6410  208.3570  148.8150 C   0  0  0  0  0  2  0  0  0  0  0  0
  160.9240  206.3380  149.7900 C   0  0  0  0  0  0  0  0  0  0  0  0
  160.1110  204.5510  151.3360 C   0  0  0  0  0  2  0  0  0  0  0  0
  160.9720  207.1670  152.2830 C   0  0  1  0  0  3  0  0  0  0  0  0
  161.2620  206.9110  148.4620 C   0  0  2  0  0  3  0  0  0  0  0  0
  161.5580  208.4640  150.2680 N   0  0  0  0  0  0  0  0  0  0  0  0
  161.2040  204.6610  152.2430 O   0  0  0  0  0  0  0  0  0  0  0  0
  161.4060  208.3750  153.1130 C   0  0  0  0  0  2  0  0  0  0  0  0
  160.3310  208.7300  154.1270 C   0  0  0  0  0  2  0  0  0  0  0  0
  160.5140  210.1630  154.6140 C   0  0  1  0  0  3  0  0  0  0  0  0
  161.9100  210.6380  154.2390 C   0  0  0  0  0  1  0  0  0  0  0  0
  159.4530  211.0780  153.9920 C   0  0  1  0  0  3  0  0  0  0  0  0
  158.4880  211.5950  155.0220 C   0  0  0  0  0  3  0  0  0  0  0  0
  157.4200  210.9460  155.3110 N   0  0  0  0  0  2  0  0  0  0  0  0
  160.0810  212.2020  153.3100 N   0  0  0  0  0  2  0  0  0  0  0  0
  158.4310  213.1770  151.8320 C   0  0  0  0  0  2  0  0  0  0  0  0
  159.8080  213.5740  151.3360 C   0  0  1  0  0  3  0  0  0  0  0  0
  159.5810  212.2010  151.9470 C   0  0  1  0  0  3  0  0  0  0  0  0
  159.8800  213.4490  149.8510 C   0  0  0  0  0  0  0  0  0  0  0  0
  158.8140  213.3850  149.1790 O   0  0  0  0  0  0  0  0  0  0  0  0
  161.1230  213.3650  149.2210 O   0  0  0  0  0  0  0  0  0  0  0  0
  161.5930  212.1550  148.6480 C   0  0  0  0  0  1  0  0  0  0  0  0
  162.4690  206.1900  147.8700 C   0  0  0  0  0  2  0  0  0  0  0  0
  162.5740  206.4290  146.3700 C   0  0  0  0  0  2  0  0  0  0  0  0
  160.2830  201.1120  145.3350 C   0  0  0  0  0  0  0  0  0  0  0  0
  159.9290  199.7340  145.3220 N   0  0  0  0  0  1  0  0  0  0  0  0
  160.0790  204.4460  144.1820 C   0  0  0  0  0  2  0  0  0  0  0  0
  159.7240  202.0230  144.5120 N   0  0  0  0  0  0  0  0  0  0  0  0
  161.9790  204.0120  146.4740 C   0  0  0  0  0  2  0  0  0  0  0  0
  160.2960  203.1630  144.8450 N   0  0  0  0  0  0  0  0  0  0  0  0
  162.0080  205.2580  145.5810 C   0  0  1  0  0  3  0  0  0  0  0  0
  161.1930  202.9260  145.8130 C   0  0  0  0  0  0  0  0  0  0  0  0
  161.2060  201.6300  146.1790 N   0  0  0  0  0  0  0  0  0  0  0  0
  160.6040  205.5890  145.0560 C   0  0  0  0  0  2  0  0  0  0  0  0
  1  8  1  0  0  0  0
  3  7  1  0  0  0  0
  4  2  2  0  0  0  0
  5 10  1  0  0  0  0
  6  3  2  0  0  0  0
  6  1  1  0  0  0  0
  7 11  1  0  0  0  0
  8  4  1  0  0  0  0
  8 12  1  1  0  0  0
  9 27  1  1  0  0  0
  9  5  1  0  0  0  0
  9  6  1  0  0  0  0
 10  1  2  0  0  0  0
 11  4  1  0  0  0  0
 12 13  1  0  0  0  0
 13 14  1  0  0  0  0
 14 15  1  6  0  0  0
 16 14  1  0  0  0  0
 16 17  1  1  0  0  0
 17 18  2  0  0  0  0
 19 16  1  0  0  0  0
 20 22  1  0  0  0  0
 21 23  1  6  0  0  0
 21 20  1  0  0  0  0
 21 22  1  0  0  0  0
 22 19  1  1  0  0  0
 24 23  2  0  0  0  0
 25 23  1  0  0  0  0
 26 25  1  0  0  0  0
 28 27  1  0  0  0  0
 29 37  1  0  0  0  0
 30 29  1  0  0  0  0
 31 34  1  0  0  0  0
 31 38  1  0  0  0  0
 32 34  1  0  0  0  0
 32 29  2  0  0  0  0
 34 36  1  0  0  0  0
 35 28  1  1  0  0  0
 35 33  1  0  0  0  0
 36 37  2  0  0  0  0
 36 33  1  0  0  0  0
 38 35  1  0  0  0  0
M  END
>  <MODEL>
8

>  <REMARK>
 VINA RESULT:      -6.3      2.172      3.569
  Name = 
  12 active torsions:
  status: ('A' for Active; 'I' for Inactive)
    1  A    between atoms: C_2  and  C_17
    2  A    between atoms: C_2  and  O_25
    3  A    between atoms: C_3  and  C_26
    4  A    between atoms: C_6  and  C_27
    5  A    between atoms: C_6  and  C_29
    6  A    between atoms: C_8  and  C_26
    7  A    between atoms: C_8  and  C_29
    8  A    between atoms: C_11  and  C_30
    9  A    between atoms: C_11  and  C_32
   10  A    between atoms: N_14  and  C_21
   11  A    between atoms: N_14  and  C_26
   12  A    between atoms: C_28  and  C_30
                            x       y       z     vdW  Elec       q    Type
                         _______ _______ _______ _____ _____    ______ ____

>  <TORSDO>
F 12

$$$$
=
 OpenBabel11072412193D

 38 42  0  0  1  0  0  0  0  0999 V2000
  161.0400  208.8150  153.4830 C   0  0  0  0  0  0  0  0  0  0  0  0
  159.2820  206.9470  155.7180 O   0  0  0  0  0  0  0  0  0  0  0  0
  161.1680  210.6790  155.1470 C   0  0  0  0  0  3  0  0  0  0  0  0
  160.2280  207.7670  155.5660 C   0  0  0  0  0  0  0  0  0  0  0  0
  160.8190  210.0150  151.5660 C   0  0  0  0  0  2  0  0  0  0  0  0
  161.0300  210.2070  153.9030 C   0  0  0  0  0  0  0  0  0  0  0  0
  161.3900  209.8030  156.3420 C   0  0  0  0  0  2  0  0  0  0  0  0
  161.1850  207.6340  154.4100 C   0  0  1  0  0  3  0  0  0  0  0  0
  160.8390  211.0530  152.6970 C   0  0  2  0  0  3  0  0  0  0  0  0
  160.9270  208.7070  152.2040 N   0  0  0  0  0  0  0  0  0  0  0  0
  160.3560  208.8310  156.4640 O   0  0  0  0  0  0  0  0  0  0  0  0
  161.0550  206.2850  153.7020 C   0  0  0  0  0  2  0  0  0  0  0  0
  161.6260  206.3720  152.2960 C   0  0  0  0  0  2  0  0  0  0  0  0
  161.6320  204.9970  151.6400 C   0  0  1  0  0  3  0  0  0  0  0  0
  161.2660  203.9510  152.6830 C   0  0  0  0  0  1  0  0  0  0  0  0
  160.6410  204.9570  150.4720 C   0  0  1  0  0  3  0  0  0  0  0  0
  161.2860  205.3640  149.1770 C   0  0  0  0  0  3  0  0  0  0  0  0
  161.4590  206.6010  148.8860 N   0  0  0  0  0  2  0  0  0  0  0  0
  160.0690  203.6240  150.3290 N   0  0  0  0  0  2  0  0  0  0  0  0
  160.9070  201.3990  149.8810 C   0  0  0  0  0  2  0  0  0  0  0  0
  160.1790  201.8910  148.6460 C   0  0  1  0  0  3  0  0  0  0  0  0
  160.9810  202.8600  149.4970 C   0  0  1  0  0  3  0  0  0  0  0  0
  160.9550  201.5530  147.4170 C   0  0  0  0  0  0  0  0  0  0  0  0
  161.1160  202.4270  146.5220 O   0  0  0  0  0  0  0  0  0  0  0  0
  161.4630  200.2620  147.2490 O   0  0  0  0  0  0  0  0  0  0  0  0
  161.1970  199.4980  146.0840 C   0  0  0  0  0  1  0  0  0  0  0  0
  159.4940  211.7690  152.7660 C   0  0  0  0  0  2  0  0  0  0  0  0
  159.6600  213.2740  152.5980 C   0  0  0  0  0  2  0  0  0  0  0  0
  159.4090  213.8060  146.7460 C   0  0  0  0  0  0  0  0  0  0  0  0
  159.6710  213.9290  145.3530 N   0  0  0  0  0  1  0  0  0  0  0  0
  157.2870  213.6130  149.5650 C   0  0  0  0  0  2  0  0  0  0  0  0
  158.1620  213.7650  147.2600 N   0  0  0  0  0  0  0  0  0  0  0  0
  160.2260  213.4200  150.1770 C   0  0  0  0  0  2  0  0  0  0  0  0
  158.3430  213.6290  148.5580 N   0  0  0  0  0  0  0  0  0  0  0  0
  159.1660  213.7380  151.2370 C   0  0  1  0  0  3  0  0  0  0  0  0
  159.6610  213.6240  148.8080 C   0  0  0  0  0  0  0  0  0  0  0  0
  160.3870  213.7120  147.6770 N   0  0  0  0  0  0  0  0  0  0  0  0
  157.8270  213.0690  150.8910 C   0  0  0  0  0  2  0  0  0  0  0  0
  1  6  1  0  0  0  0
  1  8  1  0  0  0  0
  3  7  1  0  0  0  0
  4  2  2  0  0  0  0
  4 11  1  0  0  0  0
  5 10  1  0  0  0  0
  5  9  1  0  0  0  0
  6  3  2  0  0  0  0
  7 11  1  0  0  0  0
  8 12  1  6  0  0  0
  8  4  1  0  0  0  0
  9 27  1  1  0  0  0
  9  6  1  0  0  0  0
 10  1  2  0  0  0  0
 13 12  1  0  0  0  0
 14 13  1  0  0  0  0
 14 15  1  1  0  0  0
 16 17  1  6  0  0  0
 16 14  1  0  0  0  0
 18 17  2  0  0  0  0
 19 16  1  0  0  0  0
 21 23  1  6  0  0  0
 21 22  1  0  0  0  0
 21 20  1  0  0  0  0
 22 20  1  0  0  0  0
 22 19  1  1  0  0  0
 24 23  2  0  0  0  0
 25 23  1  0  0  0  0
 26 25  1  0  0  0  0
 28 27  1  0  0  0  0
 29 32  2  0  0  0  0
 29 37  1  0  0  0  0
 30 29  1  0  0  0  0
 31 38  1  0  0  0  0
 32 34  1  0  0  0  0
 33 35  1  0  0  0  0
 34 36  1  0  0  0  0
 34 31  1  0  0  0  0
 35 28  1  1  0  0  0
 36 33  1  0  0  0  0
 37 36  2  0  0  0  0
 38 35  1  0  0  0  0
M  END
>  <MODEL>
9

>  <REMARK>
 VINA RESULT:      -6.2      3.851      9.259
  Name = 
  12 active torsions:
  status: ('A' for Active; 'I' for Inactive)
    1  A    between atoms: C_2  and  C_17
    2  A    between atoms: C_2  and  O_25
    3  A    between atoms: C_3  and  C_26
    4  A    between atoms: C_6  and  C_27
    5  A    between atoms: C_6  and  C_29
    6  A    between atoms: C_8  and  C_26
    7  A    between atoms: C_8  and  C_29
    8  A    between atoms: C_11  and  C_30
    9  A    between atoms: C_11  and  C_32
   10  A    between atoms: N_14  and  C_21
   11  A    between atoms: N_14  and  C_26
   12  A    between atoms: C_28  and  C_30
                            x       y       z     vdW  Elec       q    Type
                         _______ _______ _______ _____ _____    ______ ____

>  <TORSDO>
F 12

$$$$
