=
 OpenBabel11072414173D

 34 38  0  0  1  0  0  0  0  0999 V2000
  161.9230  214.1220  147.1770 C   0  0  1  0  0  3  0  0  0  0  0  0
  157.8620  214.4500  148.8530 C   0  0  0  0  0  2  0  0  0  0  0  0
  157.9390  213.8290  144.0640 S   0  0  0  0  0  0  0  0  0  0  0  0
  157.3800  213.2470  146.6630 C   0  0  0  0  0  2  0  0  0  0  0  0
  158.2820  214.1690  145.8310 C   0  0  1  0  0  3  0  0  0  0  0  0
  160.0610  213.3750  150.0000 C   0  0  2  0  0  3  0  0  0  0  0  0
  163.6770  212.9270  146.0530 O   0  0  0  0  0  0  0  0  0  0  0  0
  162.2160  213.4830  148.5330 C   0  0  0  0  0  2  0  0  0  0  0  0
  161.5300  214.4530  149.9190 S   0  0  0  0  0  0  0  0  0  0  0  0
  159.7320  213.9020  146.0160 C   0  0  0  0  0  0  0  0  0  0  0  0
  162.4600  213.2480  146.0630 C   0  0  0  0  0  0  0  0  0  0  0  0
  159.4310  212.7820  143.8490 C   0  0  2  0  0  3  0  0  0  0  0  0
  160.4470  214.3960  147.0230 C   0  0  0  0  0  3  0  0  0  0  0  0
  160.3500  213.1340  144.9590 C   0  0  0  0  0  0  0  0  0  0  0  0
  156.7010  212.2350  148.8180 C   0  0  0  0  0  1  0  0  0  0  0  0
  160.0620  213.0930  142.5030 C   0  0  0  0  0  1  0  0  0  0  0  0
  157.7430  213.1040  148.1410 C   0  0  2  0  0  3  0  0  0  0  0  0
  161.6090  212.8150  144.9900 N   0  0  0  0  0  0  0  0  0  0  0  0
  158.5600  214.2670  150.5380 S   0  0  0  0  0  0  0  0  0  0  0  0
  159.9290  210.8320  152.8540 C   0  0  0  0  0  2  0  0  0  0  0  0
  161.2850  209.9200  150.9610 C   0  0  0  0  0  0  0  0  0  0  0  0
  161.2970  211.0560  148.8280 C   0  0  0  0  0  3  0  0  0  0  0  0
  160.3070  212.1760  150.8110 N   0  0  0  0  0  0  0  0  0  0  0  0
  161.9660  209.9640  148.2730 C   0  0  0  0  0  3  0  0  0  0  0  0
  160.9000  209.8770  152.3360 N   0  0  0  0  0  2  0  0  0  0  0  0
  160.2060  212.2230  152.2840 C   0  0  1  0  0  3  0  0  0  0  0  0
  161.9790  208.8540  150.3730 C   0  0  0  0  0  0  0  0  0  0  0  0
  160.9580  211.0460  150.1880 C   0  0  0  0  0  0  0  0  0  0  0  0
  162.3350  207.7110  151.1440 N   0  0  0  0  0  1  0  0  0  0  0  0
  162.2950  208.8990  149.0510 N   0  0  0  0  0  0  0  0  0  0  0  0
  159.1770  213.1150  152.7000 O   0  0  0  0  0  0  0  0  0  0  0  0
  159.2290  213.6670  155.1610 C   0  0  0  0  0  1  0  0  0  0  0  0
  157.4790  212.4670  154.0960 O   0  0  0  0  0  0  0  0  0  0  0  0
  158.5860  213.0500  153.9640 C   0  0  0  0  0  0  0  0  0  0  0  0
  1 13  1  6  0  0  0
  1  8  1  0  0  0  0
  2 19  1  0  0  0  0
  3  5  1  0  0  0  0
  4 17  1  0  0  0  0
  5 10  1  0  0  0  0
  5  4  1  1  0  0  0
  6 19  1  0  0  0  0
  6 23  1  1  0  0  0
  7 11  2  0  0  0  0
  8  9  1  0  0  0  0
  9  6  1  0  0  0  0
 10 13  2  0  0  0  0
 11  1  1  0  0  0  0
 12 16  1  6  0  0  0
 12  3  1  0  0  0  0
 12 14  1  0  0  0  0
 14 18  2  0  0  0  0
 14 10  1  0  0  0  0
 17 15  1  1  0  0  0
 17  2  1  0  0  0  0
 18 11  1  0  0  0  0
 21 25  1  0  0  0  0
 22 28  1  0  0  0  0
 23 26  1  0  0  0  0
 24 22  2  0  0  0  0
 24 30  1  0  0  0  0
 25 20  1  0  0  0  0
 26 31  1  6  0  0  0
 26 20  1  0  0  0  0
 27 21  1  0  0  0  0
 27 29  1  0  0  0  0
 28 23  1  0  0  0  0
 28 21  2  0  0  0  0
 30 27  2  0  0  0  0
 31 34  1  0  0  0  0
 34 33  2  0  0  0  0
 34 32  1  0  0  0  0
M  END
>  <MODEL>
1

>  <REMARK>
 VINA RESULT:      -2.0      0.000      0.000
  Name = 
  3 active torsions:
  status: ('A' for Active; 'I' for Inactive)
    1  A    between atoms: C_8  and  N_14
    2  A    between atoms: C_20  and  O_22
    3  A    between atoms: O_22  and  C_24
                            x       y       z     vdW  Elec       q    Type
                         _______ _______ _______ _____ _____    ______ ____

>  <TORSDO>
F 3

$$$$
=
 OpenBabel11072414173D

 34 38  0  0  1  0  0  0  0  0999 V2000
  161.9540  211.8470  149.6280 C   0  0  1  0  0  3  0  0  0  0  0  0
  159.9560  212.1180  153.5440 C   0  0  0  0  0  2  0  0  0  0  0  0
  157.6290  214.4530  150.0150 S   0  0  0  0  0  0  0  0  0  0  0  0
  158.0100  212.6090  151.9800 C   0  0  0  0  0  2  0  0  0  0  0  0
  158.8140  213.5840  151.1080 C   0  0  1  0  0  3  0  0  0  0  0  0
  161.4100  210.0680  152.5480 C   0  0  2  0  0  3  0  0  0  0  0  0
  162.0600  211.1580  147.3290 O   0  0  0  0  0  0  0  0  0  0  0  0
  162.3830  210.4820  150.1630 C   0  0  0  0  0  2  0  0  0  0  0  0
  163.0240  210.5780  151.8700 S   0  0  0  0  0  0  0  0  0  0  0  0
  159.7770  212.9090  150.2000 C   0  0  0  0  0  0  0  0  0  0  0  0
  161.3760  211.7020  148.2360 C   0  0  0  0  0  0  0  0  0  0  0  0
  158.0160  213.4060  148.5580 C   0  0  2  0  0  3  0  0  0  0  0  0
  160.9900  212.5160  150.5760 C   0  0  0  0  0  3  0  0  0  0  0  0
  159.3390  212.7910  148.8280 C   0  0  0  0  0  0  0  0  0  0  0  0
  157.8780  210.7280  153.5830 C   0  0  0  0  0  1  0  0  0  0  0  0
  158.0670  214.2840  147.3190 C   0  0  0  0  0  1  0  0  0  0  0  0
  158.8170  211.5360  152.7090 C   0  0  2  0  0  3  0  0  0  0  0  0
  160.0720  212.2160  147.9210 N   0  0  0  0  0  0  0  0  0  0  0  0
  161.0670  210.8090  154.1840 S   0  0  0  0  0  0  0  0  0  0  0  0
  160.7450  206.4990  153.7540 C   0  0  0  0  0  2  0  0  0  0  0  0
  161.1580  206.5040  151.2880 C   0  0  0  0  0  0  0  0  0  0  0  0
  161.2440  208.5970  150.0820 C   0  0  0  0  0  3  0  0  0  0  0  0
  161.2610  208.6080  152.5640 N   0  0  0  0  0  0  0  0  0  0  0  0
  161.2410  207.8830  148.8830 C   0  0  0  0  0  3  0  0  0  0  0  0
  161.0740  205.7920  152.5230 N   0  0  0  0  0  2  0  0  0  0  0  0
  161.4840  207.8360  153.8040 C   0  0  1  0  0  3  0  0  0  0  0  0
  161.1820  205.8230  150.0630 C   0  0  0  0  0  0  0  0  0  0  0  0
  161.2120  207.9070  151.3020 C   0  0  0  0  0  0  0  0  0  0  0  0
  161.1460  204.3990  150.0270 N   0  0  0  0  0  1  0  0  0  0  0  0
  161.2170  206.5240  148.8990 N   0  0  0  0  0  0  0  0  0  0  0  0
  161.0570  208.5680  154.9490 O   0  0  0  0  0  0  0  0  0  0  0  0
  159.9730  207.4030  156.9060 C   0  0  0  0  0  1  0  0  0  0  0  0
  162.2300  208.1390  156.8700 O   0  0  0  0  0  0  0  0  0  0  0  0
  161.1410  208.0570  156.2460 C   0  0  0  0  0  0  0  0  0  0  0  0
  1  8  1  1  0  0  0
  1 13  1  0  0  0  0
  2 19  1  0  0  0  0
  3  5  1  0  0  0  0
  4 17  1  0  0  0  0
  5  4  1  6  0  0  0
  6 23  1  1  0  0  0
  6 19  1  0  0  0  0
  7 11  2  0  0  0  0
  8  9  1  0  0  0  0
  9  6  1  0  0  0  0
 10 13  2  0  0  0  0
 10  5  1  0  0  0  0
 11  1  1  0  0  0  0
 12 16  1  6  0  0  0
 12 14  1  0  0  0  0
 12  3  1  0  0  0  0
 14 10  1  0  0  0  0
 17  2  1  0  0  0  0
 17 15  1  1  0  0  0
 18 11  1  0  0  0  0
 18 14  2  0  0  0  0
 20 26  1  0  0  0  0
 21 28  1  0  0  0  0
 21 25  1  0  0  0  0
 22 28  2  0  0  0  0
 23 26  1  0  0  0  0
 24 30  2  0  0  0  0
 24 22  1  0  0  0  0
 25 20  1  0  0  0  0
 26 31  1  1  0  0  0
 27 21  2  0  0  0  0
 28 23  1  0  0  0  0
 29 27  1  0  0  0  0
 30 27  1  0  0  0  0
 31 34  1  0  0  0  0
 34 33  2  0  0  0  0
 34 32  1  0  0  0  0
M  END
>  <MODEL>
2

>  <REMARK>
 VINA RESULT:      -1.2      3.017      4.547
  Name = 
  3 active torsions:
  status: ('A' for Active; 'I' for Inactive)
    1  A    between atoms: C_8  and  N_14
    2  A    between atoms: C_20  and  O_22
    3  A    between atoms: O_22  and  C_24
                            x       y       z     vdW  Elec       q    Type
                         _______ _______ _______ _____ _____    ______ ____

>  <TORSDO>
F 3

$$$$
=
 OpenBabel11072414173D

 34 38  0  0  1  0  0  0  0  0999 V2000
  160.0650  213.8230  151.1260 C   0  0  1  0  0  3  0  0  0  0  0  0
  162.9950  211.0220  149.4000 C   0  0  0  0  0  2  0  0  0  0  0  0
  160.8870  209.3860  153.4260 S   0  0  0  0  0  0  0  0  0  0  0  0
  161.5770  209.4330  150.7930 C   0  0  0  0  0  2  0  0  0  0  0  0
  161.5580  210.3530  152.0220 C   0  0  1  0  0  3  0  0  0  0  0  0
  161.3800  212.7600  148.1040 C   0  0  2  0  0  3  0  0  0  0  0  0
  157.8390  214.4530  151.7720 O   0  0  0  0  0  0  0  0  0  0  0  0
  159.8570  214.1970  149.6600 C   0  0  0  0  0  2  0  0  0  0  0  0
  161.4350  214.4530  148.7790 S   0  0  0  0  0  0  0  0  0  0  0  0
  160.6530  211.5220  151.8720 C   0  0  0  0  0  0  0  0  0  0  0  0
  158.7300  213.5640  151.7920 C   0  0  0  0  0  0  0  0  0  0  0  0
  159.2130  210.1290  153.2970 C   0  0  2  0  0  3  0  0  0  0  0  0
  161.0000  212.6450  151.2500 C   0  0  0  0  0  3  0  0  0  0  0  0
  159.3780  211.3940  152.5400 C   0  0  0  0  0  0  0  0  0  0  0  0
  161.8460  209.0580  148.3610 C   0  0  0  0  0  1  0  0  0  0  0  0
  158.6850  210.3990  154.6960 C   0  0  0  0  0  1  0  0  0  0  0  0
  161.7630  210.1200  149.4410 C   0  0  2  0  0  3  0  0  0  0  0  0
  158.4800  212.3330  152.4880 N   0  0  0  0  0  0  0  0  0  0  0  0
  163.0430  212.0370  147.8750 S   0  0  0  0  0  0  0  0  0  0  0  0
  158.3840  212.6530  145.7280 C   0  0  0  0  0  2  0  0  0  0  0  0
  160.5120  212.7150  144.4160 C   0  0  0  0  0  0  0  0  0  0  0  0
  162.6070  213.1670  145.5340 C   0  0  0  0  0  3  0  0  0  0  0  0
  160.5750  212.6860  146.8780 N   0  0  0  0  0  0  0  0  0  0  0  0
  163.2220  213.2890  144.2870 C   0  0  0  0  0  3  0  0  0  0  0  0
  159.1080  212.4600  144.4780 N   0  0  0  0  0  2  0  0  0  0  0  0
  159.2100  212.1230  146.9000 C   0  0  1  0  0  3  0  0  0  0  0  0
  161.1720  212.8210  143.1840 C   0  0  0  0  0  0  0  0  0  0  0  0
  161.2390  212.8680  145.6080 C   0  0  0  0  0  0  0  0  0  0  0  0
  160.4560  212.6530  141.9640 N   0  0  0  0  0  1  0  0  0  0  0  0
  162.5000  213.1090  143.1500 N   0  0  0  0  0  0  0  0  0  0  0  0
  158.5460  212.4310  148.1210 O   0  0  0  0  0  0  0  0  0  0  0  0
  157.1220  214.4040  147.4580 C   0  0  0  0  0  1  0  0  0  0  0  0
  156.3680  212.6060  148.8120 O   0  0  0  0  0  0  0  0  0  0  0  0
  157.3240  213.1070  148.1680 C   0  0  0  0  0  0  0  0  0  0  0  0
  1  8  1  6  0  0  0
  1 13  1  0  0  0  0
  1 11  1  0  0  0  0
  2 17  1  0  0  0  0
  5  4  1  6  0  0  0
  5  3  1  0  0  0  0
  6 23  1  6  0  0  0
  6  9  1  0  0  0  0
  7 11  2  0  0  0  0
  9  8  1  0  0  0  0
 10  5  1  0  0  0  0
 10 14  1  0  0  0  0
 11 18  1  0  0  0  0
 12  3  1  0  0  0  0
 12 16  1  1  0  0  0
 13 10  2  0  0  0  0
 14 12  1  0  0  0  0
 17 15  1  6  0  0  0
 17  4  1  0  0  0  0
 18 14  2  0  0  0  0
 19  6  1  0  0  0  0
 19  2  1  0  0  0  0
 20 26  1  0  0  0  0
 21 25  1  0  0  0  0
 21 28  1  0  0  0  0
 22 28  2  0  0  0  0
 23 26  1  0  0  0  0
 24 22  1  0  0  0  0
 25 20  1  0  0  0  0
 26 31  1  1  0  0  0
 27 21  2  0  0  0  0
 28 23  1  0  0  0  0
 29 27  1  0  0  0  0
 30 27  1  0  0  0  0
 30 24  2  0  0  0  0
 31 34  1  0  0  0  0
 32 34  1  0  0  0  0
 34 33  2  0  0  0  0
M  END
>  <MODEL>
3

>  <REMARK>
 VINA RESULT:      -0.5      2.567      6.934
  Name = 
  3 active torsions:
  status: ('A' for Active; 'I' for Inactive)
    1  A    between atoms: C_8  and  N_14
    2  A    between atoms: C_20  and  O_22
    3  A    between atoms: O_22  and  C_24
                            x       y       z     vdW  Elec       q    Type
                         _______ _______ _______ _____ _____    ______ ____

>  <TORSDO>
F 3

$$$$
=
 OpenBabel11072414173D

 34 38  0  0  1  0  0  0  0  0999 V2000
  160.1810  211.9690  152.7400 C   0  0  1  0  0  3  0  0  0  0  0  0
  162.1610  212.2870  148.8180 C   0  0  0  0  0  2  0  0  0  0  0  0
  162.6430  207.9500  150.8860 S   0  0  0  0  0  0  0  0  0  0  0  0
  161.8790  209.7660  149.0080 C   0  0  0  0  0  2  0  0  0  0  0  0
  162.3680  209.7100  150.4620 C   0  0  1  0  0  3  0  0  0  0  0  0
  159.8970  213.5070  149.6500 C   0  0  2  0  0  3  0  0  0  0  0  0
  158.5360  211.0550  154.2320 O   0  0  0  0  0  0  0  0  0  0  0  0
  159.2060  212.9590  152.1060 C   0  0  0  0  0  2  0  0  0  0  0  0
  160.0630  214.3350  151.2660 S   0  0  0  0  0  0  0  0  0  0  0  0
  161.3670  210.2070  151.4420 C   0  0  0  0  0  0  0  0  0  0  0  0
  159.4210  210.8200  153.3680 C   0  0  0  0  0  0  0  0  0  0  0  0
  161.0560  207.7940  151.7970 C   0  0  2  0  0  3  0  0  0  0  0  0
  161.1950  211.4940  151.7290 C   0  0  0  0  0  3  0  0  0  0  0  0
  160.6410  209.1750  152.1470 C   0  0  0  0  0  0  0  0  0  0  0  0
  160.9160  210.9870  147.0820 C   0  0  0  0  0  1  0  0  0  0  0  0
  161.2860  206.9630  153.0480 C   0  0  0  0  0  1  0  0  0  0  0  0
  161.2550  211.0850  148.5570 C   0  0  2  0  0  3  0  0  0  0  0  0
  159.7270  209.4590  153.0270 N   0  0  0  0  0  0  0  0  0  0  0  0
  161.2890  213.8720  148.5230 S   0  0  0  0  0  0  0  0  0  0  0  0
  156.2050  214.3990  149.1900 C   0  0  0  0  0  2  0  0  0  0  0  0
  157.3110  214.1630  146.9590 C   0  0  0  0  0  0  0  0  0  0  0  0
  159.7170  213.9770  146.8180 C   0  0  0  0  0  3  0  0  0  0  0  0
  158.5970  213.7840  149.0250 N   0  0  0  0  0  0  0  0  0  0  0  0
  159.6260  214.1290  145.4340 C   0  0  0  0  0  3  0  0  0  0  0  0
  156.1200  214.2220  147.7470 N   0  0  0  0  0  2  0  0  0  0  0  0
  157.3370  213.5420  149.7580 C   0  0  1  0  0  3  0  0  0  0  0  0
  157.2600  214.2870  145.5640 C   0  0  0  0  0  0  0  0  0  0  0  0
  158.5500  213.9840  147.5950 C   0  0  0  0  0  0  0  0  0  0  0  0
  156.0120  214.4520  144.8990 N   0  0  0  0  0  1  0  0  0  0  0  0
  158.4110  214.2720  144.8410 N   0  0  0  0  0  0  0  0  0  0  0  0
  157.4880  213.8200  151.1460 O   0  0  0  0  0  0  0  0  0  0  0  0
  156.5620  214.2790  153.4470 C   0  0  0  0  0  1  0  0  0  0  0  0
  155.3000  214.4330  151.4430 O   0  0  0  0  0  0  0  0  0  0  0  0
  156.4150  214.1780  151.9660 C   0  0  0  0  0  0  0  0  0  0  0  0
  1 13  1  6  0  0  0
  1 11  1  0  0  0  0
  3 12  1  0  0  0  0
  5  4  1  6  0  0  0
  5  3  1  0  0  0  0
  5 10  1  0  0  0  0
  6 23  1  6  0  0  0
  6  9  1  0  0  0  0
  8  1  1  0  0  0  0
  9  8  1  0  0  0  0
 10 13  2  0  0  0  0
 10 14  1  0  0  0  0
 11  7  2  0  0  0  0
 12 14  1  0  0  0  0
 12 16  1  1  0  0  0
 14 18  2  0  0  0  0
 17 15  1  6  0  0  0
 17  2  1  0  0  0  0
 17  4  1  0  0  0  0
 18 11  1  0  0  0  0
 19  2  1  0  0  0  0
 19  6  1  0  0  0  0
 20 26  1  0  0  0  0
 21 28  1  0  0  0  0
 21 25  1  0  0  0  0
 22 28  2  0  0  0  0
 23 26  1  0  0  0  0
 24 22  1  0  0  0  0
 25 20  1  0  0  0  0
 26 31  1  1  0  0  0
 27 21  2  0  0  0  0
 28 23  1  0  0  0  0
 29 27  1  0  0  0  0
 30 24  2  0  0  0  0
 30 27  1  0  0  0  0
 31 34  1  0  0  0  0
 33 34  2  0  0  0  0
 34 32  1  0  0  0  0
M  END
>  <MODEL>
4

>  <REMARK>
 VINA RESULT:      -0.0      2.596      6.676
  Name = 
  3 active torsions:
  status: ('A' for Active; 'I' for Inactive)
    1  A    between atoms: C_8  and  N_14
    2  A    between atoms: C_20  and  O_22
    3  A    between atoms: O_22  and  C_24
                            x       y       z     vdW  Elec       q    Type
                         _______ _______ _______ _____ _____    ______ ____

>  <TORSDO>
F 3

$$$$
=
 OpenBabel11072414173D

 34 38  0  0  1  0  0  0  0  0999 V2000
  159.3640  212.7710  152.4860 C   0  0  1  0  0  3  0  0  0  0  0  0
  161.6700  211.3870  155.9750 C   0  0  0  0  0  2  0  0  0  0  0  0
  157.6310  213.7640  157.1400 S   0  0  0  0  0  0  0  0  0  0  0  0
  159.3630  211.6680  157.0090 C   0  0  0  0  0  2  0  0  0  0  0  0
  159.1140  213.0330  156.3510 C   0  0  1  0  0  3  0  0  0  0  0  0
  161.4300  210.2060  153.5550 C   0  0  2  0  0  3  0  0  0  0  0  0
  157.4140  212.7780  151.0840 O   0  0  0  0  0  0  0  0  0  0  0  0
  159.9410  211.5060  151.8530 C   0  0  0  0  0  2  0  0  0  0  0  0
  161.7330  211.3350  152.1560 S   0  0  0  0  0  0  0  0  0  0  0  0
  158.7940  212.9430  154.9030 C   0  0  0  0  0  0  0  0  0  0  0  0
  157.8690  212.8320  152.2570 C   0  0  0  0  0  0  0  0  0  0  0  0
  156.5170  213.3040  155.7560 C   0  0  2  0  0  3  0  0  0  0  0  0
  159.7170  212.8450  153.9510 C   0  0  0  0  0  3  0  0  0  0  0  0
  157.3910  213.0660  154.5810 C   0  0  0  0  0  0  0  0  0  0  0  0
  160.5160  209.4800  157.1080 C   0  0  0  0  0  1  0  0  0  0  0  0
  155.5560  214.4520  155.4940 C   0  0  0  0  0  1  0  0  0  0  0  0
  160.3230  210.7330  156.2760 C   0  0  2  0  0  3  0  0  0  0  0  0
  156.9600  212.9970  153.3560 N   0  0  0  0  0  0  0  0  0  0  0  0
  162.6960  210.3500  154.8660 S   0  0  0  0  0  0  0  0  0  0  0  0
  160.4520  206.5080  153.4900 C   0  0  0  0  0  2  0  0  0  0  0  0
  161.4090  207.1770  151.2790 C   0  0  0  0  0  0  0  0  0  0  0  0
  161.7990  209.5120  150.7880 C   0  0  0  0  0  3  0  0  0  0  0  0
  161.2570  208.8180  153.1090 N   0  0  0  0  0  0  0  0  0  0  0  0
  162.0540  209.1680  149.4590 C   0  0  0  0  0  3  0  0  0  0  0  0
  161.0380  206.1540  152.2040 N   0  0  0  0  0  2  0  0  0  0  0  0
  161.1830  207.7110  154.0860 C   0  0  1  0  0  3  0  0  0  0  0  0
  161.6970  206.8710  149.9410 C   0  0  0  0  0  0  0  0  0  0  0  0
  161.4810  208.5100  151.7150 C   0  0  0  0  0  0  0  0  0  0  0  0
  161.6460  205.5230  149.4820 N   0  0  0  0  0  1  0  0  0  0  0  0
  162.0040  207.8670  149.0700 N   0  0  0  0  0  0  0  0  0  0  0  0
  160.5210  208.1210  155.2780 O   0  0  0  0  0  0  0  0  0  0  0  0
  160.5110  206.5620  157.2610 C   0  0  0  0  0  1  0  0  0  0  0  0
  158.6230  206.9900  155.8860 O   0  0  0  0  0  0  0  0  0  0  0  0
  159.8380  207.2290  156.1080 C   0  0  0  0  0  0  0  0  0  0  0  0
  1  8  1  1  0  0  0
  1 13  1  0  0  0  0
  2 17  1  0  0  0  0
  5  4  1  1  0  0  0
  5  3  1  0  0  0  0
  6 23  1  6  0  0  0
  6 19  1  0  0  0  0
  7 11  2  0  0  0  0
  8  9  1  0  0  0  0
  9  6  1  0  0  0  0
 10  5  1  0  0  0  0
 11  1  1  0  0  0  0
 11 18  1  0  0  0  0
 12 16  1  6  0  0  0
 12  3  1  0  0  0  0
 13 10  2  0  0  0  0
 14 10  1  0  0  0  0
 14 12  1  0  0  0  0
 17  4  1  0  0  0  0
 17 15  1  1  0  0  0
 18 14  2  0  0  0  0
 19  2  1  0  0  0  0
 20 26  1  0  0  0  0
 21 28  1  0  0  0  0
 21 25  1  0  0  0  0
 22 28  2  0  0  0  0
 23 26  1  0  0  0  0
 24 22  1  0  0  0  0
 25 20  1  0  0  0  0
 26 31  1  1  0  0  0
 27 21  2  0  0  0  0
 28 23  1  0  0  0  0
 29 27  1  0  0  0  0
 30 24  2  0  0  0  0
 30 27  1  0  0  0  0
 31 34  1  0  0  0  0
 33 34  2  0  0  0  0
 34 32  1  0  0  0  0
M  END
>  <MODEL>
5

>  <REMARK>
 VINA RESULT:       0.1      4.592      7.390
  Name = 
  3 active torsions:
  status: ('A' for Active; 'I' for Inactive)
    1  A    between atoms: C_8  and  N_14
    2  A    between atoms: C_20  and  O_22
    3  A    between atoms: O_22  and  C_24
                            x       y       z     vdW  Elec       q    Type
                         _______ _______ _______ _____ _____    ______ ____

>  <TORSDO>
F 3

$$$$
=
 OpenBabel11072414173D

 34 38  0  0  1  0  0  0  0  0999 V2000
  160.1910  211.8110  152.8160 C   0  0  1  0  0  3  0  0  0  0  0  0
  162.2730  211.9080  148.9350 C   0  0  0  0  0  2  0  0  0  0  0  0
  162.6400  207.6720  151.2270 S   0  0  0  0  0  0  0  0  0  0  0  0
  161.9500  209.4030  149.2420 C   0  0  0  0  0  2  0  0  0  0  0  0
  162.4010  209.4130  150.7090 C   0  0  1  0  0  3  0  0  0  0  0  0
  160.0060  213.1960  149.6480 C   0  0  2  0  0  3  0  0  0  0  0  0
  158.4960  210.9940  154.3080 O   0  0  0  0  0  0  0  0  0  0  0  0
  159.2460  212.7810  152.1090 C   0  0  0  0  0  2  0  0  0  0  0  0
  160.1440  214.1020  151.2250 S   0  0  0  0  0  0  0  0  0  0  0  0
  161.3830  209.9710  151.6370 C   0  0  0  0  0  0  0  0  0  0  0  0
  159.3990  210.7040  153.4800 C   0  0  0  0  0  0  0  0  0  0  0  0
  161.0300  207.5830  152.1030 C   0  0  2  0  0  3  0  0  0  0  0  0
  161.2230  211.2730  151.8560 C   0  0  0  0  0  3  0  0  0  0  0  0
  160.6260  208.9850  152.3730 C   0  0  0  0  0  0  0  0  0  0  0  0
  161.0530  210.5390  147.2340 C   0  0  0  0  0  1  0  0  0  0  0  0
  161.2160  206.8130  153.3990 C   0  0  0  0  0  1  0  0  0  0  0  0
  161.3570  210.7060  148.7110 C   0  0  2  0  0  3  0  0  0  0  0  0
  159.6940  209.3240  153.2140 N   0  0  0  0  0  0  0  0  0  0  0  0
  161.4310  213.4870  148.5400 S   0  0  0  0  0  0  0  0  0  0  0  0
  157.3440  213.5800  146.9280 C   0  0  0  0  0  2  0  0  0  0  0  0
  156.3140  213.9120  149.1820 C   0  0  0  0  0  0  0  0  0  0  0  0
  157.5750  213.3830  151.1750 C   0  0  0  0  0  3  0  0  0  0  0  0
  158.7260  213.4590  148.9770 N   0  0  0  0  0  0  0  0  0  0  0  0
  156.4130  213.5480  151.9290 C   0  0  0  0  0  3  0  0  0  0  0  0
  156.2510  214.0610  147.7630 N   0  0  0  0  0  2  0  0  0  0  0  0
  158.6870  213.9190  147.5740 C   0  0  1  0  0  3  0  0  0  0  0  0
  155.1740  214.0930  149.9780 C   0  0  0  0  0  0  0  0  0  0  0  0
  157.5350  213.5740  149.7870 C   0  0  0  0  0  0  0  0  0  0  0  0
  153.9300  214.4520  149.3860 N   0  0  0  0  0  1  0  0  0  0  0  0
  155.2500  213.9020  151.3220 N   0  0  0  0  0  0  0  0  0  0  0  0
  159.7370  213.3350  146.8110 O   0  0  0  0  0  0  0  0  0  0  0  0
  161.0320  212.9740  144.6760 C   0  0  0  0  0  1  0  0  0  0  0  0
  159.1840  214.4500  144.8870 O   0  0  0  0  0  0  0  0  0  0  0  0
  159.9420  213.6270  145.4600 C   0  0  0  0  0  0  0  0  0  0  0  0
  1 13  1  6  0  0  0
  1 11  1  0  0  0  0
  3 12  1  0  0  0  0
  5  4  1  6  0  0  0
  5  3  1  0  0  0  0
  5 10  1  0  0  0  0
  6 23  1  6  0  0  0
  6  9  1  0  0  0  0
  8  1  1  0  0  0  0
  9  8  1  0  0  0  0
 10 13  2  0  0  0  0
 10 14  1  0  0  0  0
 11  7  2  0  0  0  0
 12 14  1  0  0  0  0
 12 16  1  1  0  0  0
 14 18  2  0  0  0  0
 17 15  1  6  0  0  0
 17  2  1  0  0  0  0
 17  4  1  0  0  0  0
 18 11  1  0  0  0  0
 19  2  1  0  0  0  0
 19  6  1  0  0  0  0
 20 26  1  0  0  0  0
 20 25  1  0  0  0  0
 21 28  2  0  0  0  0
 21 27  1  0  0  0  0
 22 24  2  0  0  0  0
 23 28  1  0  0  0  0
 25 21  1  0  0  0  0
 26 31  1  6  0  0  0
 26 23  1  0  0  0  0
 27 30  2  0  0  0  0
 28 22  1  0  0  0  0
 29 27  1  0  0  0  0
 30 24  1  0  0  0  0
 32 34  1  0  0  0  0
 33 34  2  0  0  0  0
 34 31  1  0  0  0  0
M  END
>  <MODEL>
6

>  <REMARK>
 VINA RESULT:       0.6      2.862      7.490
  Name = 
  3 active torsions:
  status: ('A' for Active; 'I' for Inactive)
    1  A    between atoms: C_8  and  N_14
    2  A    between atoms: C_20  and  O_22
    3  A    between atoms: O_22  and  C_24
                            x       y       z     vdW  Elec       q    Type
                         _______ _______ _______ _____ _____    ______ ____

>  <TORSDO>
F 3

$$$$
=
 OpenBabel11072414173D

 34 38  0  0  1  0  0  0  0  0999 V2000
  159.1050  212.7990  152.5080 C   0  0  1  0  0  3  0  0  0  0  0  0
  162.0580  210.6110  154.9370 C   0  0  0  0  0  2  0  0  0  0  0  0
  157.9210  211.5100  157.2610 S   0  0  0  0  0  0  0  0  0  0  0  0
  159.9030  210.0120  156.1500 C   0  0  0  0  0  2  0  0  0  0  0  0
  159.3680  211.4510  156.1390 C   0  0  1  0  0  3  0  0  0  0  0  0
  161.6530  210.4660  152.2680 C   0  0  2  0  0  3  0  0  0  0  0  0
  156.9970  212.9900  151.3730 O   0  0  0  0  0  0  0  0  0  0  0  0
  159.7650  212.0260  151.3680 C   0  0  0  0  0  2  0  0  0  0  0  0
  161.5870  212.0940  151.4480 S   0  0  0  0  0  0  0  0  0  0  0  0
  158.8630  211.8840  154.8100 C   0  0  0  0  0  0  0  0  0  0  0  0
  157.5990  212.6590  152.4280 C   0  0  0  0  0  0  0  0  0  0  0  0
  156.7010  211.4340  155.8910 C   0  0  2  0  0  3  0  0  0  0  0  0
  159.6470  212.3510  153.8430 C   0  0  0  0  0  3  0  0  0  0  0  0
  157.4260  211.8540  154.6660 C   0  0  0  0  0  0  0  0  0  0  0  0
  161.3660  208.2290  155.2510 C   0  0  0  0  0  1  0  0  0  0  0  0
  155.5560  212.3840  156.1970 C   0  0  0  0  0  1  0  0  0  0  0  0
  160.8770  209.6480  155.0300 C   0  0  2  0  0  3  0  0  0  0  0  0
  156.8410  212.1960  153.5560 N   0  0  0  0  0  0  0  0  0  0  0  0
  163.0570  210.3170  153.4290 S   0  0  0  0  0  0  0  0  0  0  0  0
  162.1280  208.4410  149.0580 C   0  0  0  0  0  2  0  0  0  0  0  0
  161.1830  206.9820  150.8560 C   0  0  0  0  0  0  0  0  0  0  0  0
  161.0880  207.7820  153.1350 C   0  0  0  0  0  3  0  0  0  0  0  0
  161.6230  209.3650  151.2980 N   0  0  0  0  0  0  0  0  0  0  0  0
  160.7380  206.4970  153.5500 C   0  0  0  0  0  3  0  0  0  0  0  0
  161.4510  207.2190  149.4730 N   0  0  0  0  0  2  0  0  0  0  0  0
  161.5870  209.6340  149.8460 C   0  0  1  0  0  3  0  0  0  0  0  0
  160.8060  205.7110  151.3100 C   0  0  0  0  0  0  0  0  0  0  0  0
  161.3060  208.0380  151.7740 C   0  0  0  0  0  0  0  0  0  0  0  0
  160.6590  204.6300  150.3930 N   0  0  0  0  0  1  0  0  0  0  0  0
  160.6000  205.4990  152.6370 N   0  0  0  0  0  0  0  0  0  0  0  0
  162.3430  210.7950  149.5190 O   0  0  0  0  0  0  0  0  0  0  0  0
  163.2230  212.3840  147.7690 C   0  0  0  0  0  1  0  0  0  0  0  0
  161.0570  211.4140  147.7270 O   0  0  0  0  0  0  0  0  0  0  0  0
  162.1530  211.5130  148.3360 C   0  0  0  0  0  0  0  0  0  0  0  0
  1  8  1  6  0  0  0
  1 13  1  0  0  0  0
  2 17  1  0  0  0  0
  5  4  1  6  0  0  0
  5  3  1  0  0  0  0
  6 23  1  6  0  0  0
  6 19  1  0  0  0  0
  7 11  2  0  0  0  0
  8  9  1  0  0  0  0
  9  6  1  0  0  0  0
 10  5  1  0  0  0  0
 11  1  1  0  0  0  0
 11 18  1  0  0  0  0
 12 16  1  1  0  0  0
 12  3  1  0  0  0  0
 13 10  2  0  0  0  0
 14 10  1  0  0  0  0
 14 12  1  0  0  0  0
 17 15  1  1  0  0  0
 17  4  1  0  0  0  0
 18 14  2  0  0  0  0
 19  2  1  0  0  0  0
 20 25  1  0  0  0  0
 20 26  1  0  0  0  0
 21 27  2  0  0  0  0
 21 28  1  0  0  0  0
 22 24  1  0  0  0  0
 23 28  1  0  0  0  0
 25 21  1  0  0  0  0
 26 31  1  1  0  0  0
 26 23  1  0  0  0  0
 27 30  1  0  0  0  0
 28 22  2  0  0  0  0
 29 27  1  0  0  0  0
 30 24  2  0  0  0  0
 32 34  1  0  0  0  0
 33 34  2  0  0  0  0
 34 31  1  0  0  0  0
M  END
>  <MODEL>
7

>  <REMARK>
 VINA RESULT:       0.8      3.596      7.637
  Name = 
  3 active torsions:
  status: ('A' for Active; 'I' for Inactive)
    1  A    between atoms: C_8  and  N_14
    2  A    between atoms: C_20  and  O_22
    3  A    between atoms: O_22  and  C_24
                            x       y       z     vdW  Elec       q    Type
                         _______ _______ _______ _____ _____    ______ ____

>  <TORSDO>
F 3

$$$$
