=
 OpenBabel11072411123D

 30 33  0  0  1  0  0  0  0  0999 V2000
  161.9920  206.4980  152.3470 C   0  0  2  0  0  3  0  0  0  0  0  0
  161.8280  205.0510  151.7750 C   0  0  2  0  0  0  0  0  0  0  0  0
  160.4610  204.4210  151.4590 C   0  0  1  0  0  3  0  0  0  0  0  0
  161.4920  205.4280  153.2240 C   0  0  0  0  0  2  0  0  0  0  0  0
  161.0680  205.3160  150.4580 C   0  0  0  0  0  2  0  0  0  0  0  0
  160.6530  202.9690  151.0380 C   0  0  2  0  0  3  0  0  0  0  0  0
  161.8630  202.4730  151.5290 O   0  0  0  0  0  1  0  0  0  0  0  0
  160.5910  202.8250  149.5840 N   0  0  0  0  0  2  0  0  0  0  0  0
  160.3850  201.4700  149.2710 N   0  0  0  0  0  2  0  0  0  0  0  0
  161.0530  201.2270  148.0640 N   0  0  0  0  0  2  0  0  0  0  0  0
  161.1710  202.4620  147.4120 N   0  0  0  0  0  2  0  0  0  0  0  0
  160.1230  201.4230  145.2210 S   0  0  0  0  0  0  0  0  0  0  0  0
  160.9760  202.5820  146.0040 C   0  0  0  0  0  0  0  0  0  0  0  0
  160.4780  204.3490  144.4720 O   0  0  0  0  0  1  0  0  0  0  0  0
  161.4790  203.7920  145.2710 C   0  0  1  0  0  3  0  0  0  0  0  0
  162.0390  204.8160  146.2100 C   0  0  0  0  0  0  0  0  0  0  0  0
  161.1420  205.8570  146.7830 C   0  0  0  0  0  1  0  0  0  0  0  0
  163.2240  204.8060  146.5070 O   0  0  0  0  0  0  0  0  0  0  0  0
  160.8460  207.4960  152.1570 C   0  0  0  0  0  2  0  0  0  0  0  0
  161.3520  208.2350  149.4650 O   0  0  0  0  0  0  0  0  0  0  0  0
  162.0910  210.3820  150.0050 N   0  0  0  0  0  2  0  0  0  0  0  0
  161.3810  208.7800  151.7350 N   0  0  0  0  0  2  0  0  0  0  0  0
  161.5960  209.0920  150.3580 C   0  0  0  0  0  0  0  0  0  0  0  0
  162.3470  210.7600  148.6210 C   0  0  0  0  0  2  0  0  0  0  0  0
  162.3700  212.2780  148.4620 C   0  0  2  0  0  3  0  0  0  0  0  0
  160.2390  212.7520  147.1790 C   0  0  0  0  0  2  0  0  0  0  0  0
  161.0620  213.9880  147.4720 C   0  0  2  0  0  3  0  0  0  0  0  0
  162.4450  213.8500  146.8650 C   0  0  0  0  0  2  0  0  0  0  0  0
  160.9820  212.8960  148.4980 C   0  0  2  0  0  3  0  0  0  0  0  0
  163.0520  212.6590  147.2970 O   0  0  0  0  0  0  0  0  0  0  0  0
  1 19  1  6  0  0  0
  1  4  1  0  0  0  0
  2  5  1  6  0  0  0
  2  1  1  0  0  0  0
  2  4  1  0  0  0  0
  3  6  1  6  0  0  0
  3  2  1  0  0  0  0
  5  3  1  0  0  0  0
  6  7  1  6  0  0  0
  8  6  1  0  0  0  0
  9  8  1  0  0  0  0
 10  9  1  0  0  0  0
 11 10  1  0  0  0  0
 12 13  2  0  0  0  0
 13 11  1  0  0  0  0
 15 14  1  1  0  0  0
 15 13  1  0  0  0  0
 15 16  1  0  0  0  0
 16 18  2  0  0  0  0
 16 17  1  0  0  0  0
 20 23  2  0  0  0  0
 21 23  1  0  0  0  0
 22 19  1  0  0  0  0
 23 22  1  0  0  0  0
 24 21  1  0  0  0  0
 25 29  1  0  0  0  0
 25 24  1  6  0  0  0
 26 27  1  0  0  0  0
 27 28  1  6  0  0  0
 27 29  1  0  0  0  0
 28 30  1  0  0  0  0
 29 26  1  6  0  0  0
 30 25  1  0  0  0  0
M  END
>  <MODEL>
1

>  <REMARK>
 VINA RESULT:      -7.4      0.000      0.000
  Name = 
  12 active torsions:
  status: ('A' for Active; 'I' for Inactive)
    1  A    between atoms: C_1  and  C_24
    2  A    between atoms: C_2  and  C_20
    3  A    between atoms: N_4  and  N_10
    4  A    between atoms: N_4  and  N_16
    5  A    between atoms: C_5  and  C_15
    6  A    between atoms: C_5  and  N_16
    7  A    between atoms: C_8  and  C_13
    8  A    between atoms: N_10  and  N_29
    9  A    between atoms: N_12  and  C_20
   10  A    between atoms: C_13  and  N_27
   11  A    between atoms: C_19  and  C_24
   12  A    between atoms: C_19  and  N_29
                            x       y       z     vdW  Elec       q    Type
                         _______ _______ _______ _____ _____    ______ ____

>  <TORSDO>
F 12

$$$$
=
 OpenBabel11072411123D

 30 33  0  0  1  0  0  0  0  0999 V2000
  162.2920  206.3690  151.9580 C   0  0  2  0  0  3  0  0  0  0  0  0
  161.9360  204.9000  151.5510 C   0  0  2  0  0  0  0  0  0  0  0  0
  160.5250  204.4670  151.1190 C   0  0  1  0  0  3  0  0  0  0  0  0
  161.5010  205.5360  152.8780 C   0  0  0  0  0  2  0  0  0  0  0  0
  161.4040  205.0920  150.1150 C   0  0  0  0  0  2  0  0  0  0  0  0
  160.4960  202.9570  150.9110 C   0  0  2  0  0  3  0  0  0  0  0  0
  161.5830  202.3550  151.5520 O   0  0  0  0  0  1  0  0  0  0  0  0
  160.4850  202.6160  149.4890 N   0  0  0  0  0  2  0  0  0  0  0  0
  160.9600  201.3020  149.3350 N   0  0  0  0  0  2  0  0  0  0  0  0
  161.1780  201.1100  147.9640 N   0  0  0  0  0  2  0  0  0  0  0  0
  161.1220  202.3750  147.3650 N   0  0  0  0  0  2  0  0  0  0  0  0
  160.0550  201.4030  145.1520 S   0  0  0  0  0  0  0  0  0  0  0  0
  160.9360  202.5240  145.9580 C   0  0  0  0  0  0  0  0  0  0  0  0
  160.5240  204.2700  144.3750 O   0  0  0  0  0  1  0  0  0  0  0  0
  161.4740  203.7330  145.2480 C   0  0  1  0  0  3  0  0  0  0  0  0
  161.9550  204.7740  146.2120 C   0  0  0  0  0  0  0  0  0  0  0  0
  161.0350  205.8670  146.6340 C   0  0  0  0  0  1  0  0  0  0  0  0
  163.0930  204.7360  146.6530 O   0  0  0  0  0  0  0  0  0  0  0  0
  161.3810  207.5040  151.4830 C   0  0  0  0  0  2  0  0  0  0  0  0
  161.9930  210.0840  152.4910 O   0  0  0  0  0  0  0  0  0  0  0  0
  160.3840  210.0020  154.1810 N   0  0  0  0  0  2  0  0  0  0  0  0
  160.7330  208.1230  152.6270 N   0  0  0  0  0  2  0  0  0  0  0  0
  161.0800  209.4350  153.0720 C   0  0  0  0  0  0  0  0  0  0  0  0
  160.6970  211.3290  154.6940 C   0  0  0  0  0  2  0  0  0  0  0  0
  159.6410  212.3450  154.2680 C   0  0  2  0  0  3  0  0  0  0  0  0
  158.3700  212.7840  156.4150 C   0  0  0  0  0  2  0  0  0  0  0  0
  157.8320  213.5430  155.2210 C   0  0  2  0  0  3  0  0  0  0  0  0
  157.4140  212.5740  154.1310 C   0  0  0  0  0  2  0  0  0  0  0  0
  159.3130  213.3480  155.3630 C   0  0  2  0  0  3  0  0  0  0  0  0
  158.4760  211.7110  153.8120 O   0  0  0  0  0  0  0  0  0  0  0  0
  1 19  1  6  0  0  0
  1  4  1  0  0  0  0
  2  5  1  1  0  0  0
  2  1  1  0  0  0  0
  2  4  1  0  0  0  0
  3  6  1  6  0  0  0
  3  2  1  0  0  0  0
  5  3  1  0  0  0  0
  6  7  1  6  0  0  0
  8  6  1  0  0  0  0
  9  8  1  0  0  0  0
 10  9  1  0  0  0  0
 11 10  1  0  0  0  0
 12 13  2  0  0  0  0
 13 11  1  0  0  0  0
 15 14  1  1  0  0  0
 15 13  1  0  0  0  0
 15 16  1  0  0  0  0
 16 17  1  0  0  0  0
 16 18  2  0  0  0  0
 19 22  1  0  0  0  0
 20 23  2  0  0  0  0
 21 24  1  0  0  0  0
 22 23  1  0  0  0  0
 23 21  1  0  0  0  0
 25 24  1  1  0  0  0
 25 29  1  0  0  0  0
 27 28  1  6  0  0  0
 27 29  1  0  0  0  0
 27 26  1  0  0  0  0
 29 26  1  1  0  0  0
 30 28  1  0  0  0  0
 30 25  1  0  0  0  0
M  END
>  <MODEL>
2

>  <REMARK>
 VINA RESULT:      -7.1      3.243      4.000
  Name = 
  12 active torsions:
  status: ('A' for Active; 'I' for Inactive)
    1  A    between atoms: C_1  and  C_24
    2  A    between atoms: C_2  and  C_20
    3  A    between atoms: N_4  and  N_10
    4  A    between atoms: N_4  and  N_16
    5  A    between atoms: C_5  and  C_15
    6  A    between atoms: C_5  and  N_16
    7  A    between atoms: C_8  and  C_13
    8  A    between atoms: N_10  and  N_29
    9  A    between atoms: N_12  and  C_20
   10  A    between atoms: C_13  and  N_27
   11  A    between atoms: C_19  and  C_24
   12  A    between atoms: C_19  and  N_29
                            x       y       z     vdW  Elec       q    Type
                         _______ _______ _______ _____ _____    ______ ____

>  <TORSDO>
F 12

$$$$
=
 OpenBabel11072411123D

 30 33  0  0  1  0  0  0  0  0999 V2000
  162.1430  206.1440  152.4050 C   0  0  2  0  0  3  0  0  0  0  0  0
  161.8320  204.6860  151.9290 C   0  0  2  0  0  0  0  0  0  0  0  0
  160.4720  204.2640  151.3460 C   0  0  1  0  0  3  0  0  0  0  0  0
  161.2640  205.2910  153.2200 C   0  0  0  0  0  2  0  0  0  0  0  0
  161.4470  204.9120  150.4510 C   0  0  0  0  0  2  0  0  0  0  0  0
  160.4670  202.7600  151.1010 C   0  0  2  0  0  3  0  0  0  0  0  0
  161.7280  202.2180  151.3610 O   0  0  0  0  0  1  0  0  0  0  0  0
  160.0440  202.4450  149.7370 N   0  0  0  0  0  2  0  0  0  0  0  0
  161.0580  201.7020  149.1080 N   0  0  0  0  0  2  0  0  0  0  0  0
  161.0620  202.0830  147.7600 N   0  0  0  0  0  2  0  0  0  0  0  0
  161.7840  203.2810  147.6810 N   0  0  0  0  0  2  0  0  0  0  0  0
  160.9940  203.5200  145.1710 S   0  0  0  0  0  0  0  0  0  0  0  0
  161.7760  204.0790  146.4980 C   0  0  0  0  0  0  0  0  0  0  0  0
  162.5730  205.9220  145.1990 O   0  0  0  0  0  1  0  0  0  0  0  0
  162.4070  205.4410  146.5000 C   0  0  1  0  0  3  0  0  0  0  0  0
  161.6250  206.4140  147.3280 C   0  0  0  0  0  0  0  0  0  0  0  0
  162.3430  207.4640  148.1020 C   0  0  0  0  0  1  0  0  0  0  0  0
  160.4060  206.3540  147.3750 O   0  0  0  0  0  0  0  0  0  0  0  0
  161.2840  207.2910  151.8670 C   0  0  0  0  0  2  0  0  0  0  0  0
  161.6550  210.0480  152.4250 O   0  0  0  0  0  0  0  0  0  0  0  0
  160.2310  210.0500  154.2740 N   0  0  0  0  0  2  0  0  0  0  0  0
  160.6700  208.0040  152.9760 N   0  0  0  0  0  2  0  0  0  0  0  0
  160.8880  209.3990  153.1890 C   0  0  0  0  0  0  0  0  0  0  0  0
  160.4200  211.4670  154.5560 C   0  0  0  0  0  2  0  0  0  0  0  0
  159.1070  212.2330  154.4220 C   0  0  2  0  0  3  0  0  0  0  0  0
  159.1080  212.9470  151.9930 C   0  0  0  0  0  2  0  0  0  0  0  0
  157.9010  213.4290  152.7700 C   0  0  2  0  0  3  0  0  0  0  0  0
  158.3430  214.2860  153.9400 C   0  0  0  0  0  2  0  0  0  0  0  0
  158.4660  212.0680  153.0540 C   0  0  2  0  0  3  0  0  0  0  0  0
  159.2750  213.5910  154.7300 O   0  0  0  0  0  0  0  0  0  0  0  0
  1 19  1  6  0  0  0
  1  4  1  0  0  0  0
  2  5  1  1  0  0  0
  2  1  1  0  0  0  0
  2  4  1  0  0  0  0
  3  6  1  6  0  0  0
  3  2  1  0  0  0  0
  5  3  1  0  0  0  0
  6  7  1  6  0  0  0
  8  6  1  0  0  0  0
  9  8  1  0  0  0  0
 10  9  1  0  0  0  0
 11 10  1  0  0  0  0
 12 13  2  0  0  0  0
 13 15  1  0  0  0  0
 13 11  1  0  0  0  0
 15 14  1  6  0  0  0
 15 16  1  0  0  0  0
 16 18  2  0  0  0  0
 16 17  1  0  0  0  0
 19 22  1  0  0  0  0
 20 23  2  0  0  0  0
 21 24  1  0  0  0  0
 22 23  1  0  0  0  0
 23 21  1  0  0  0  0
 25 24  1  6  0  0  0
 25 30  1  0  0  0  0
 27 26  1  6  0  0  0
 27 29  1  0  0  0  0
 27 28  1  0  0  0  0
 28 30  1  0  0  0  0
 29 26  1  6  0  0  0
 29 25  1  0  0  0  0
M  END
>  <MODEL>
3

>  <REMARK>
 VINA RESULT:      -6.7      3.049      3.673
  Name = 
  12 active torsions:
  status: ('A' for Active; 'I' for Inactive)
    1  A    between atoms: C_1  and  C_24
    2  A    between atoms: C_2  and  C_20
    3  A    between atoms: N_4  and  N_10
    4  A    between atoms: N_4  and  N_16
    5  A    between atoms: C_5  and  C_15
    6  A    between atoms: C_5  and  N_16
    7  A    between atoms: C_8  and  C_13
    8  A    between atoms: N_10  and  N_29
    9  A    between atoms: N_12  and  C_20
   10  A    between atoms: C_13  and  N_27
   11  A    between atoms: C_19  and  C_24
   12  A    between atoms: C_19  and  N_29
                            x       y       z     vdW  Elec       q    Type
                         _______ _______ _______ _____ _____    ______ ____

>  <TORSDO>
F 12

$$$$
=
 OpenBabel11072411123D

 30 33  0  0  1  0  0  0  0  0999 V2000
  161.4650  208.7930  149.2000 C   0  0  2  0  0  3  0  0  0  0  0  0
  161.1470  207.6160  150.1810 C   0  0  2  0  0  0  0  0  0  0  0  0
  161.9480  207.3570  151.4690 C   0  0  1  0  0  3  0  0  0  0  0  0
  162.3640  207.6280  149.2460 C   0  0  0  0  0  2  0  0  0  0  0  0
  160.8780  208.3710  151.5010 C   0  0  0  0  0  2  0  0  0  0  0  0
  161.4580  206.0700  152.1230 C   0  0  2  0  0  3  0  0  0  0  0  0
  161.9780  205.9490  153.4140 O   0  0  0  0  0  1  0  0  0  0  0  0
  161.8030  204.9000  151.3180 N   0  0  0  0  0  2  0  0  0  0  0  0
  160.6290  204.1750  151.0460 N   0  0  0  0  0  2  0  0  0  0  0  0
  160.8660  203.4480  149.8720 N   0  0  0  0  0  2  0  0  0  0  0  0
  161.4480  204.3350  148.9570 N   0  0  0  0  0  2  0  0  0  0  0  0
  161.1840  202.4830  147.0920 S   0  0  0  0  0  0  0  0  0  0  0  0
  161.6700  203.9630  147.5970 C   0  0  0  0  0  0  0  0  0  0  0  0
  163.1930  204.3290  145.7900 O   0  0  0  0  0  1  0  0  0  0  0  0
  162.2650  204.9470  146.6320 C   0  0  1  0  0  3  0  0  0  0  0  0
  161.2100  205.6490  145.8330 C   0  0  0  0  0  0  0  0  0  0  0  0
  161.1420  205.4380  144.3600 C   0  0  0  0  0  1  0  0  0  0  0  0
  160.4080  206.3920  146.3770 O   0  0  0  0  0  0  0  0  0  0  0  0
  162.2570  209.9930  149.7240 C   0  0  0  0  0  2  0  0  0  0  0  0
  161.0490  212.4190  148.8870 O   0  0  0  0  0  0  0  0  0  0  0  0
  162.5790  212.7970  147.1650 N   0  0  0  0  0  2  0  0  0  0  0  0
  162.7120  210.8060  148.6080 N   0  0  0  0  0  2  0  0  0  0  0  0
  162.0650  212.0270  148.2500 C   0  0  0  0  0  0  0  0  0  0  0  0
  161.9600  214.0450  146.7400 C   0  0  0  0  0  2  0  0  0  0  0  0
  161.6510  214.0230  145.2450 C   0  0  2  0  0  3  0  0  0  0  0  0
  159.8060  212.2970  145.0670 C   0  0  0  0  0  2  0  0  0  0  0  0
  160.2210  212.8850  143.7360 C   0  0  2  0  0  3  0  0  0  0  0  0
  161.6950  212.6290  143.4890 C   0  0  0  0  0  2  0  0  0  0  0  0
  160.1820  213.7660  144.9510 C   0  0  2  0  0  3  0  0  0  0  0  0
  162.4610  213.0980  144.5700 O   0  0  0  0  0  0  0  0  0  0  0  0
  1  4  1  0  0  0  0
  1 19  1  1  0  0  0
  1  2  1  0  0  0  0
  2  4  1  6  0  0  0
  2  3  1  0  0  0  0
  2  5  1  0  0  0  0
  3  5  1  0  0  0  0
  3  6  1  1  0  0  0
  6  7  1  1  0  0  0
  8  6  1  0  0  0  0
  9  8  1  0  0  0  0
 10  9  1  0  0  0  0
 11 10  1  0  0  0  0
 12 13  2  0  0  0  0
 13 11  1  0  0  0  0
 15 14  1  6  0  0  0
 15 13  1  0  0  0  0
 16 18  2  0  0  0  0
 16 15  1  0  0  0  0
 17 16  1  0  0  0  0
 21 23  1  0  0  0  0
 22 19  1  0  0  0  0
 23 22  1  0  0  0  0
 23 20  2  0  0  0  0
 24 21  1  0  0  0  0
 25 24  1  1  0  0  0
 27 28  1  1  0  0  0
 27 29  1  0  0  0  0
 27 26  1  0  0  0  0
 28 30  1  0  0  0  0
 29 26  1  1  0  0  0
 29 25  1  0  0  0  0
 30 25  1  0  0  0  0
M  END
>  <MODEL>
4

>  <REMARK>
 VINA RESULT:      -6.5      2.146      3.315
  Name = 
  12 active torsions:
  status: ('A' for Active; 'I' for Inactive)
    1  A    between atoms: C_1  and  C_24
    2  A    between atoms: C_2  and  C_20
    3  A    between atoms: N_4  and  N_10
    4  A    between atoms: N_4  and  N_16
    5  A    between atoms: C_5  and  C_15
    6  A    between atoms: C_5  and  N_16
    7  A    between atoms: C_8  and  C_13
    8  A    between atoms: N_10  and  N_29
    9  A    between atoms: N_12  and  C_20
   10  A    between atoms: C_13  and  N_27
   11  A    between atoms: C_19  and  C_24
   12  A    between atoms: C_19  and  N_29
                            x       y       z     vdW  Elec       q    Type
                         _______ _______ _______ _____ _____    ______ ____

>  <TORSDO>
F 12

$$$$
=
 OpenBabel11072411123D

 30 33  0  0  1  0  0  0  0  0999 V2000
  160.9780  207.5740  149.5390 C   0  0  2  0  0  3  0  0  0  0  0  0
  161.0770  206.9170  148.1220 C   0  0  2  0  0  0  0  0  0  0  0  0
  162.3880  206.3510  147.5480 C   0  0  1  0  0  3  0  0  0  0  0  0
  161.6410  208.3060  148.4480 C   0  0  0  0  0  2  0  0  0  0  0  0
  161.6020  205.5060  148.4650 C   0  0  0  0  0  2  0  0  0  0  0  0
  162.1620  205.9010  146.1090 C   0  0  2  0  0  3  0  0  0  0  0  0
  160.8690  206.2260  145.6930 O   0  0  0  0  0  1  0  0  0  0  0  0
  162.4050  204.4670  145.9570 N   0  0  0  0  0  2  0  0  0  0  0  0
  161.4380  203.9330  145.0870 N   0  0  0  0  0  2  0  0  0  0  0  0
  160.9980  202.7330  145.6590 N   0  0  0  0  0  2  0  0  0  0  0  0
  161.2880  202.8070  147.0280 N   0  0  0  0  0  2  0  0  0  0  0  0
  161.4380  200.2550  147.6940 S   0  0  0  0  0  0  0  0  0  0  0  0
  160.8860  201.7780  147.9310 C   0  0  0  0  0  0  0  0  0  0  0  0
  159.0330  201.1530  149.3080 O   0  0  0  0  0  1  0  0  0  0  0  0
  160.0340  202.1090  149.1230 C   0  0  1  0  0  3  0  0  0  0  0  0
  160.8550  202.2640  150.3660 C   0  0  0  0  0  0  0  0  0  0  0  0
  160.8240  203.5520  151.1120 C   0  0  0  0  0  1  0  0  0  0  0  0
  161.5490  201.3450  150.7720 O   0  0  0  0  0  0  0  0  0  0  0  0
  162.0520  207.2450  150.5780 C   0  0  0  0  0  2  0  0  0  0  0  0
  160.6890  207.0400  153.0570 O   0  0  0  0  0  0  0  0  0  0  0  0
  161.4330  209.1080  153.8420 N   0  0  0  0  0  2  0  0  0  0  0  0
  162.0580  208.2630  151.6160 N   0  0  0  0  0  2  0  0  0  0  0  0
  161.3620  208.0870  152.8490 C   0  0  0  0  0  0  0  0  0  0  0  0
  160.7360  208.9990  155.1170 C   0  0  0  0  0  2  0  0  0  0  0  0
  160.5650  210.3680  155.7680 C   0  0  2  0  0  3  0  0  0  0  0  0
  158.1370  210.9210  155.3100 C   0  0  0  0  0  2  0  0  0  0  0  0
  158.8800  212.0090  156.0560 C   0  0  2  0  0  3  0  0  0  0  0  0
  160.0630  212.4880  155.2360 C   0  0  0  0  0  2  0  0  0  0  0  0
  159.1800  210.5710  156.3600 C   0  0  2  0  0  3  0  0  0  0  0  0
  160.8780  211.4020  154.8740 O   0  0  0  0  0  0  0  0  0  0  0  0
  1 19  1  1  0  0  0
  2  4  1  6  0  0  0
  2  5  1  0  0  0  0
  2  1  1  0  0  0  0
  3  6  1  6  0  0  0
  3  2  1  0  0  0  0
  3  5  1  0  0  0  0
  4  1  1  0  0  0  0
  6  7  1  1  0  0  0
  8  6  1  0  0  0  0
  9 10  1  0  0  0  0
  9  8  1  0  0  0  0
 10 11  1  0  0  0  0
 11 13  1  0  0  0  0
 12 13  2  0  0  0  0
 13 15  1  0  0  0  0
 15 14  1  1  0  0  0
 15 16  1  0  0  0  0
 16 18  2  0  0  0  0
 16 17  1  0  0  0  0
 19 22  1  0  0  0  0
 21 24  1  0  0  0  0
 22 23  1  0  0  0  0
 23 20  2  0  0  0  0
 23 21  1  0  0  0  0
 25 24  1  6  0  0  0
 25 29  1  0  0  0  0
 26 27  1  0  0  0  0
 27 28  1  6  0  0  0
 27 29  1  0  0  0  0
 29 26  1  6  0  0  0
 30 28  1  0  0  0  0
 30 25  1  0  0  0  0
M  END
>  <MODEL>
5

>  <REMARK>
 VINA RESULT:      -6.4      3.203      5.457
  Name = 
  12 active torsions:
  status: ('A' for Active; 'I' for Inactive)
    1  A    between atoms: C_1  and  C_24
    2  A    between atoms: C_2  and  C_20
    3  A    between atoms: N_4  and  N_10
    4  A    between atoms: N_4  and  N_16
    5  A    between atoms: C_5  and  C_15
    6  A    between atoms: C_5  and  N_16
    7  A    between atoms: C_8  and  C_13
    8  A    between atoms: N_10  and  N_29
    9  A    between atoms: N_12  and  C_20
   10  A    between atoms: C_13  and  N_27
   11  A    between atoms: C_19  and  C_24
   12  A    between atoms: C_19  and  N_29
                            x       y       z     vdW  Elec       q    Type
                         _______ _______ _______ _____ _____    ______ ____

>  <TORSDO>
F 12

$$$$
=
 OpenBabel11072411123D

 30 33  0  0  1  0  0  0  0  0999 V2000
  162.8430  205.5270  145.9150 C   0  0  2  0  0  3  0  0  0  0  0  0
  162.1750  204.2170  145.3820 C   0  0  2  0  0  0  0  0  0  0  0  0
  160.8200  203.6970  145.8930 C   0  0  1  0  0  3  0  0  0  0  0  0
  162.8270  204.3270  146.7670 C   0  0  0  0  0  2  0  0  0  0  0  0
  160.8230  204.7440  144.8560 C   0  0  0  0  0  2  0  0  0  0  0  0
  160.5210  202.3440  145.2590 C   0  0  2  0  0  3  0  0  0  0  0  0
  159.4030  202.4300  144.4260 O   0  0  0  0  0  1  0  0  0  0  0  0
  160.3250  201.3110  146.2760 N   0  0  0  0  0  2  0  0  0  0  0  0
  161.5830  200.8820  146.7340 N   0  0  0  0  0  2  0  0  0  0  0  0
  161.3970  200.4050  148.0380 N   0  0  0  0  0  2  0  0  0  0  0  0
  161.5180  201.5080  148.8930 N   0  0  0  0  0  2  0  0  0  0  0  0
  158.9680  201.3300  149.5630 S   0  0  0  0  0  0  0  0  0  0  0  0
  160.5030  201.8270  149.8450 C   0  0  0  0  0  0  0  0  0  0  0  0
  161.9500  201.9300  151.7460 O   0  0  0  0  0  1  0  0  0  0  0  0
  160.8590  202.5370  151.1190 C   0  0  1  0  0  3  0  0  0  0  0  0
  161.1220  203.9930  150.8890 C   0  0  0  0  0  0  0  0  0  0  0  0
  160.3790  204.7150  149.8190 C   0  0  0  0  0  1  0  0  0  0  0  0
  161.9400  204.5930  151.5690 O   0  0  0  0  0  0  0  0  0  0  0  0
  161.9620  206.5760  146.5990 C   0  0  0  0  0  2  0  0  0  0  0  0
  161.5820  208.8370  148.2690 O   0  0  0  0  0  0  0  0  0  0  0  0
  162.3200  207.7580  150.2030 N   0  0  0  0  0  2  0  0  0  0  0  0
  162.2660  206.6190  148.0200 N   0  0  0  0  0  2  0  0  0  0  0  0
  162.0340  207.7880  148.8060 C   0  0  0  0  0  0  0  0  0  0  0  0
  162.1210  208.9190  151.0590 C   0  0  0  0  0  2  0  0  0  0  0  0
  161.0450  208.6490  152.1070 C   0  0  2  0  0  3  0  0  0  0  0  0
  161.6230  210.2820  153.9540 C   0  0  0  0  0  2  0  0  0  0  0  0
  160.4290  209.4060  154.2670 C   0  0  2  0  0  3  0  0  0  0  0  0
  160.8300  207.9440  154.2260 C   0  0  0  0  0  2  0  0  0  0  0  0
  160.6330  209.9010  152.8650 C   0  0  2  0  0  3  0  0  0  0  0  0
  161.4400  207.6390  152.9980 O   0  0  0  0  0  0  0  0  0  0  0  0
  1 19  1  1  0  0  0
  1  4  1  0  0  0  0
  2  5  1  6  0  0  0
  2  3  1  0  0  0  0
  2  1  1  0  0  0  0
  2  4  1  0  0  0  0
  3  6  1  6  0  0  0
  5  3  1  0  0  0  0
  6  7  1  1  0  0  0
  6  8  1  0  0  0  0
  8  9  1  0  0  0  0
  9 10  1  0  0  0  0
 10 11  1  0  0  0  0
 11 13  1  0  0  0  0
 12 13  2  0  0  0  0
 13 15  1  0  0  0  0
 15 14  1  6  0  0  0
 16 15  1  0  0  0  0
 16 18  2  0  0  0  0
 17 16  1  0  0  0  0
 19 22  1  0  0  0  0
 20 23  2  0  0  0  0
 21 24  1  0  0  0  0
 22 23  1  0  0  0  0
 23 21  1  0  0  0  0
 25 24  1  6  0  0  0
 25 29  1  0  0  0  0
 25 30  1  0  0  0  0
 27 26  1  1  0  0  0
 28 27  1  0  0  0  0
 29 26  1  1  0  0  0
 29 27  1  0  0  0  0
 30 28  1  0  0  0  0
M  END
>  <MODEL>
6

>  <REMARK>
 VINA RESULT:      -6.2      3.013      5.501
  Name = 
  12 active torsions:
  status: ('A' for Active; 'I' for Inactive)
    1  A    between atoms: C_1  and  C_24
    2  A    between atoms: C_2  and  C_20
    3  A    between atoms: N_4  and  N_10
    4  A    between atoms: N_4  and  N_16
    5  A    between atoms: C_5  and  C_15
    6  A    between atoms: C_5  and  N_16
    7  A    between atoms: C_8  and  C_13
    8  A    between atoms: N_10  and  N_29
    9  A    between atoms: N_12  and  C_20
   10  A    between atoms: C_13  and  N_27
   11  A    between atoms: C_19  and  C_24
   12  A    between atoms: C_19  and  N_29
                            x       y       z     vdW  Elec       q    Type
                         _______ _______ _______ _____ _____    ______ ____

>  <TORSDO>
F 12

$$$$
=
 OpenBabel11072411123D

 30 33  0  0  1  0  0  0  0  0999 V2000
  161.0290  209.3930  152.2190 C   0  0  2  0  0  3  0  0  0  0  0  0
  160.7580  207.8590  152.0710 C   0  0  2  0  0  0  0  0  0  0  0  0
  161.7170  206.7800  152.6030 C   0  0  1  0  0  3  0  0  0  0  0  0
  161.8150  208.6110  151.2510 C   0  0  0  0  0  2  0  0  0  0  0  0
  160.7620  207.3940  153.5430 C   0  0  0  0  0  2  0  0  0  0  0  0
  161.2170  205.4020  152.1850 C   0  0  2  0  0  3  0  0  0  0  0  0
  161.2000  204.5360  153.2810 O   0  0  0  0  0  1  0  0  0  0  0  0
  162.0290  204.8470  151.1040 N   0  0  0  0  0  2  0  0  0  0  0  0
  161.2080  204.0600  150.2780 N   0  0  0  0  0  2  0  0  0  0  0  0
  160.7130  204.9050  149.2770 N   0  0  0  0  0  2  0  0  0  0  0  0
  161.5530  204.7500  148.1660 N   0  0  0  0  0  2  0  0  0  0  0  0
  161.9800  207.3530  148.0240 S   0  0  0  0  0  0  0  0  0  0  0  0
  161.9220  205.8610  147.3500 C   0  0  0  0  0  0  0  0  0  0  0  0
  163.3480  204.7020  145.8200 O   0  0  0  0  0  1  0  0  0  0  0  0
  162.3250  205.6480  145.9200 C   0  0  1  0  0  3  0  0  0  0  0  0
  161.1580  205.2590  145.0660 C   0  0  0  0  0  0  0  0  0  0  0  0
  160.8240  203.8180  144.8900 C   0  0  0  0  0  1  0  0  0  0  0  0
  160.4800  206.1100  144.5120 O   0  0  0  0  0  0  0  0  0  0  0  0
  161.9980  209.8650  153.3070 C   0  0  0  0  0  2  0  0  0  0  0  0
  160.3130  209.9060  155.5890 O   0  0  0  0  0  0  0  0  0  0  0  0
  160.1970  212.2360  155.6840 N   0  0  0  0  0  2  0  0  0  0  0  0
  161.4790  211.0690  153.9350 N   0  0  0  0  0  2  0  0  0  0  0  0
  160.6470  211.0180  155.0940 C   0  0  0  0  0  0  0  0  0  0  0  0
  159.3350  212.2550  156.8580 C   0  0  0  0  0  2  0  0  0  0  0  0
  157.9770  212.8690  156.5330 C   0  0  2  0  0  3  0  0  0  0  0  0
  156.8640  211.0820  155.1240 C   0  0  0  0  0  2  0  0  0  0  0  0
  156.0210  212.3260  155.3090 C   0  0  2  0  0  3  0  0  0  0  0  0
  156.7570  213.5390  154.7740 C   0  0  0  0  0  2  0  0  0  0  0  0
  156.8670  211.8340  156.4470 C   0  0  2  0  0  3  0  0  0  0  0  0
  158.0310  213.6350  155.3590 O   0  0  0  0  0  0  0  0  0  0  0  0
  1 19  1  1  0  0  0
  2  4  1  6  0  0  0
  2  1  1  0  0  0  0
  2  3  1  0  0  0  0
  2  5  1  0  0  0  0
  3  6  1  6  0  0  0
  3  5  1  0  0  0  0
  4  1  1  0  0  0  0
  6  7  1  1  0  0  0
  8  6  1  0  0  0  0
  9  8  1  0  0  0  0
 10  9  1  0  0  0  0
 11 10  1  0  0  0  0
 13 12  2  0  0  0  0
 13 11  1  0  0  0  0
 15 14  1  1  0  0  0
 15 13  1  0  0  0  0
 16 15  1  0  0  0  0
 17 16  1  0  0  0  0
 18 16  2  0  0  0  0
 19 22  1  0  0  0  0
 21 24  1  0  0  0  0
 22 23  1  0  0  0  0
 23 20  2  0  0  0  0
 23 21  1  0  0  0  0
 25 24  1  6  0  0  0
 26 27  1  0  0  0  0
 27 28  1  6  0  0  0
 27 29  1  0  0  0  0
 28 30  1  0  0  0  0
 29 26  1  6  0  0  0
 29 25  1  0  0  0  0
 30 25  1  0  0  0  0
M  END
>  <MODEL>
7

>  <REMARK>
 VINA RESULT:      -6.1      4.413      5.569
  Name = 
  12 active torsions:
  status: ('A' for Active; 'I' for Inactive)
    1  A    between atoms: C_1  and  C_24
    2  A    between atoms: C_2  and  C_20
    3  A    between atoms: N_4  and  N_10
    4  A    between atoms: N_4  and  N_16
    5  A    between atoms: C_5  and  C_15
    6  A    between atoms: C_5  and  N_16
    7  A    between atoms: C_8  and  C_13
    8  A    between atoms: N_10  and  N_29
    9  A    between atoms: N_12  and  C_20
   10  A    between atoms: C_13  and  N_27
   11  A    between atoms: C_19  and  C_24
   12  A    between atoms: C_19  and  N_29
                            x       y       z     vdW  Elec       q    Type
                         _______ _______ _______ _____ _____    ______ ____

>  <TORSDO>
F 12

$$$$
=
 OpenBabel11072411123D

 30 33  0  0  1  0  0  0  0  0999 V2000
  161.9010  206.7110  152.9970 C   0  0  2  0  0  3  0  0  0  0  0  0
  161.6250  205.2100  152.6510 C   0  0  2  0  0  0  0  0  0  0  0  0
  160.8740  204.7640  151.3840 C   0  0  1  0  0  3  0  0  0  0  0  0
  160.5380  206.1760  153.1400 C   0  0  0  0  0  2  0  0  0  0  0  0
  162.3110  205.0730  151.2740 C   0  0  0  0  0  2  0  0  0  0  0  0
  160.6730  203.2530  151.4170 C   0  0  2  0  0  3  0  0  0  0  0  0
  161.7300  202.6340  152.0880 O   0  0  0  0  0  1  0  0  0  0  0  0
  160.5290  202.7070  150.0690 N   0  0  0  0  0  2  0  0  0  0  0  0
  160.4750  203.7710  149.1520 N   0  0  0  0  0  2  0  0  0  0  0  0
  161.2290  203.3830  148.0370 N   0  0  0  0  0  2  0  0  0  0  0  0
  162.2660  204.3160  147.9070 N   0  0  0  0  0  2  0  0  0  0  0  0
  161.8910  206.9310  147.9380 S   0  0  0  0  0  0  0  0  0  0  0  0
  162.1010  205.5120  147.1460 C   0  0  0  0  0  0  0  0  0  0  0  0
  163.0880  204.4850  145.2250 O   0  0  0  0  0  1  0  0  0  0  0  0
  162.1980  205.4750  145.6490 C   0  0  1  0  0  3  0  0  0  0  0  0
  160.8560  205.2890  145.0100 C   0  0  0  0  0  0  0  0  0  0  0  0
  160.4580  203.9420  144.5150 C   0  0  0  0  0  1  0  0  0  0  0  0
  160.0880  206.2300  144.8890 O   0  0  0  0  0  0  0  0  0  0  0  0
  161.8610  207.7440  151.8680 C   0  0  0  0  0  2  0  0  0  0  0  0
  161.9880  210.3170  153.0560 O   0  0  0  0  0  0  0  0  0  0  0  0
  159.7140  210.7580  152.7720 N   0  0  0  0  0  2  0  0  0  0  0  0
  160.7240  208.6300  152.0540 N   0  0  0  0  0  2  0  0  0  0  0  0
  160.8620  209.9220  152.6470 C   0  0  0  0  0  0  0  0  0  0  0  0
  159.7820  212.0810  153.3790 C   0  0  0  0  0  2  0  0  0  0  0  0
  158.5150  212.3870  154.1720 C   0  0  2  0  0  3  0  0  0  0  0  0
  158.8650  211.1030  156.3270 C   0  0  0  0  0  2  0  0  0  0  0  0
  157.5400  211.8320  156.2600 C   0  0  2  0  0  3  0  0  0  0  0  0
  156.7390  211.3490  155.0660 C   0  0  0  0  0  2  0  0  0  0  0  0
  158.7630  212.4710  155.6690 C   0  0  2  0  0  3  0  0  0  0  0  0
  157.4990  211.4620  153.8900 O   0  0  0  0  0  0  0  0  0  0  0  0
  1 19  1  6  0  0  0
  1  4  1  0  0  0  0
  2  5  1  1  0  0  0
  2  1  1  0  0  0  0
  2  4  1  0  0  0  0
  3  6  1  1  0  0  0
  3  2  1  0  0  0  0
  5  3  1  0  0  0  0
  6  7  1  6  0  0  0
  8  6  1  0  0  0  0
  9  8  1  0  0  0  0
 10  9  1  0  0  0  0
 11 10  1  0  0  0  0
 13 11  1  0  0  0  0
 13 12  2  0  0  0  0
 15 14  1  1  0  0  0
 15 13  1  0  0  0  0
 16 15  1  0  0  0  0
 17 16  1  0  0  0  0
 18 16  2  0  0  0  0
 19 22  1  0  0  0  0
 21 24  1  0  0  0  0
 22 23  1  0  0  0  0
 23 21  1  0  0  0  0
 23 20  2  0  0  0  0
 25 24  1  6  0  0  0
 25 29  1  0  0  0  0
 27 28  1  6  0  0  0
 27 26  1  0  0  0  0
 29 27  1  0  0  0  0
 29 26  1  6  0  0  0
 30 25  1  0  0  0  0
 30 28  1  0  0  0  0
M  END
>  <MODEL>
8

>  <REMARK>
 VINA RESULT:      -6.1      3.461      4.653
  Name = 
  12 active torsions:
  status: ('A' for Active; 'I' for Inactive)
    1  A    between atoms: C_1  and  C_24
    2  A    between atoms: C_2  and  C_20
    3  A    between atoms: N_4  and  N_10
    4  A    between atoms: N_4  and  N_16
    5  A    between atoms: C_5  and  C_15
    6  A    between atoms: C_5  and  N_16
    7  A    between atoms: C_8  and  C_13
    8  A    between atoms: N_10  and  N_29
    9  A    between atoms: N_12  and  C_20
   10  A    between atoms: C_13  and  N_27
   11  A    between atoms: C_19  and  C_24
   12  A    between atoms: C_19  and  N_29
                            x       y       z     vdW  Elec       q    Type
                         _______ _______ _______ _____ _____    ______ ____

>  <TORSDO>
F 12

$$$$
=
 OpenBabel11072411123D

 30 33  0  0  1  0  0  0  0  0999 V2000
  161.3800  206.5290  148.4180 C   0  0  2  0  0  3  0  0  0  0  0  0
  161.4120  205.3870  147.3490 C   0  0  2  0  0  0  0  0  0  0  0  0
  161.9780  205.5780  145.9310 C   0  0  1  0  0  3  0  0  0  0  0  0
  160.4400  206.5720  147.2870 C   0  0  0  0  0  2  0  0  0  0  0  0
  162.9200  205.2970  147.0290 C   0  0  0  0  0  2  0  0  0  0  0  0
  161.7450  204.3130  145.1140 C   0  0  2  0  0  3  0  0  0  0  0  0
  160.4780  204.3370  144.5250 O   0  0  0  0  0  1  0  0  0  0  0  0
  161.9070  203.1130  145.9350 N   0  0  0  0  0  2  0  0  0  0  0  0
  160.8320  202.2440  145.6830 N   0  0  0  0  0  2  0  0  0  0  0  0
  160.7780  201.3460  146.7570 N   0  0  0  0  0  2  0  0  0  0  0  0
  160.8580  202.1120  147.9280 N   0  0  0  0  0  2  0  0  0  0  0  0
  158.6700  201.0220  148.9320 S   0  0  0  0  0  0  0  0  0  0  0  0
  160.1230  201.7590  149.1000 C   0  0  0  0  0  0  0  0  0  0  0  0
  161.9540  201.3570  150.5860 O   0  0  0  0  0  1  0  0  0  0  0  0
  160.7140  201.9900  150.4600 C   0  0  1  0  0  3  0  0  0  0  0  0
  160.8320  203.4510  150.7740 C   0  0  0  0  0  0  0  0  0  0  0  0
  161.9510  203.9310  151.6310 C   0  0  0  0  0  1  0  0  0  0  0  0
  160.0190  204.2490  150.3350 O   0  0  0  0  0  0  0  0  0  0  0  0
  162.3350  207.7140  148.2550 C   0  0  0  0  0  2  0  0  0  0  0  0
  162.7050  207.6670  151.0670 O   0  0  0  0  0  0  0  0  0  0  0  0
  161.8080  209.7950  151.4020 N   0  0  0  0  0  2  0  0  0  0  0  0
  161.9480  208.7830  149.1620 N   0  0  0  0  0  2  0  0  0  0  0  0
  162.1800  208.7000  150.5680 C   0  0  0  0  0  0  0  0  0  0  0  0
  162.0030  209.7700  152.8460 C   0  0  0  0  0  2  0  0  0  0  0  0
  160.8440  209.0650  153.5440 C   0  0  2  0  0  3  0  0  0  0  0  0
  161.3110  209.4900  155.9970 C   0  0  0  0  0  2  0  0  0  0  0  0
  160.0790  208.6460  155.7480 C   0  0  2  0  0  3  0  0  0  0  0  0
  160.4520  207.3900  154.9840 C   0  0  0  0  0  2  0  0  0  0  0  0
  160.4010  209.7750  154.8130 C   0  0  2  0  0  3  0  0  0  0  0  0
  161.1490  207.7220  153.8100 O   0  0  0  0  0  0  0  0  0  0  0  0
  1 19  1  6  0  0  0
  2  5  1  1  0  0  0
  2  1  1  0  0  0  0
  3  6  1  6  0  0  0
  3  5  1  0  0  0  0
  3  2  1  0  0  0  0
  4  2  1  0  0  0  0
  4  1  1  0  0  0  0
  6  7  1  1  0  0  0
  6  8  1  0  0  0  0
  9  8  1  0  0  0  0
  9 10  1  0  0  0  0
 10 11  1  0  0  0  0
 11 13  1  0  0  0  0
 12 13  2  0  0  0  0
 13 15  1  0  0  0  0
 15 14  1  6  0  0  0
 15 16  1  0  0  0  0
 16 17  1  0  0  0  0
 18 16  2  0  0  0  0
 19 22  1  0  0  0  0
 21 24  1  0  0  0  0
 22 23  1  0  0  0  0
 23 20  2  0  0  0  0
 23 21  1  0  0  0  0
 25 24  1  1  0  0  0
 25 30  1  0  0  0  0
 25 29  1  0  0  0  0
 27 28  1  6  0  0  0
 27 26  1  0  0  0  0
 29 27  1  0  0  0  0
 29 26  1  1  0  0  0
 30 28  1  0  0  0  0
M  END
>  <MODEL>
9

>  <REMARK>
 VINA RESULT:      -6.0      3.014      5.594
  Name = 
  12 active torsions:
  status: ('A' for Active; 'I' for Inactive)
    1  A    between atoms: C_1  and  C_24
    2  A    between atoms: C_2  and  C_20
    3  A    between atoms: N_4  and  N_10
    4  A    between atoms: N_4  and  N_16
    5  A    between atoms: C_5  and  C_15
    6  A    between atoms: C_5  and  N_16
    7  A    between atoms: C_8  and  C_13
    8  A    between atoms: N_10  and  N_29
    9  A    between atoms: N_12  and  C_20
   10  A    between atoms: C_13  and  N_27
   11  A    between atoms: C_19  and  C_24
   12  A    between atoms: C_19  and  N_29
                            x       y       z     vdW  Elec       q    Type
                         _______ _______ _______ _____ _____    ______ ____

>  <TORSDO>
F 12

$$$$
