=
 OpenBabel11072413483D

 29 31  0  0  1  0  0  0  0  0999 V2000
  161.6100  206.7560  153.1640 C   0  0  0  0  0  0  0  0  0  0  0  0
  160.1860  206.8950  155.0790 C   0  0  0  0  0  3  0  0  0  0  0  0
  162.9310  207.3140  151.2890 N   0  0  0  0  0  2  0  0  0  0  0  0
  162.5380  206.1890  152.1610 C   0  0  2  0  0  3  0  0  0  0  0  0
  160.0150  208.2290  154.8290 N   0  0  0  0  0  0  0  0  0  0  0  0
  161.4290  208.0810  152.9320 C   0  0  0  0  0  0  0  0  0  0  0  0
  162.2150  208.5150  151.7590 C   0  0  2  0  0  3  0  0  0  0  0  0
  160.6240  208.8450  153.7750 C   0  0  0  0  0  3  0  0  0  0  0  0
  161.0030  206.1170  154.2440 C   0  0  0  0  0  3  0  0  0  0  0  0
  160.6820  203.0980  149.8010 C   0  0  0  0  0  0  0  0  0  0  0  0
  161.6770  203.8250  151.8940 C   0  0  0  0  0  3  0  0  0  0  0  0
  160.8960  204.3760  149.2680 C   0  0  0  0  0  3  0  0  0  0  0  0
  161.4970  205.3730  150.0410 C   0  0  0  0  0  3  0  0  0  0  0  0
  161.0760  202.8290  151.1190 C   0  0  0  0  0  3  0  0  0  0  0  0
  161.8880  205.1050  151.3560 C   0  0  0  0  0  0  0  0  0  0  0  0
  160.4700  201.8340  147.6760 O   0  0  0  0  0  0  0  0  0  0  0  0
  160.0470  202.0540  148.9810 C   0  0  0  0  0  0  0  0  0  0  0  0
  159.1160  201.3480  149.4540 O   0  0  0  0  0  1  0  0  0  0  0  0
  161.2860  209.0210  150.6640 C   0  0  0  0  0  2  0  0  0  0  0  0
  161.5280  210.4330  150.4110 N   0  0  0  0  0  2  0  0  0  0  0  0
  162.1660  210.5430  149.1060 C   0  0  1  0  0  3  0  0  0  0  0  0
  161.9670  209.2530  148.3250 C   0  0  0  0  0  1  0  0  0  0  0  0
  161.6540  211.7810  148.3520 C   0  0  2  0  0  3  0  0  0  0  0  0
  162.7140  212.4580  147.5360 C   0  0  0  0  0  0  0  0  0  0  0  0
  162.3810  213.0150  146.3090 O   0  0  0  0  0  0  0  0  0  0  0  0
  163.9070  212.5060  147.9380 O   0  0  0  0  0  1  0  0  0  0  0  0
  160.9510  212.7660  149.2790 C   0  0  0  0  0  2  0  0  0  0  0  0
  158.9940  213.7330  149.5880 C   0  0  0  0  0  1  0  0  0  0  0  0
  159.9180  213.4080  148.5970 O   0  0  0  0  0  0  0  0  0  0  0  0
  1  9  1  0  0  0  0
  3  7  1  0  0  0  0
  3  4  1  0  0  0  0
  4 15  1  6  0  0  0
  4  1  1  0  0  0  0
  5  2  1  0  0  0  0
  6  1  2  0  0  0  0
  6  8  1  0  0  0  0
  7 19  1  6  0  0  0
  7  6  1  0  0  0  0
  8  5  2  0  0  0  0
  9  2  2  0  0  0  0
 10 14  1  0  0  0  0
 12 10  2  0  0  0  0
 12 13  1  0  0  0  0
 13 15  2  0  0  0  0
 14 11  2  0  0  0  0
 15 11  1  0  0  0  0
 16 17  2  0  0  0  0
 17 18  1  0  0  0  0
 17 10  1  0  0  0  0
 20 19  1  0  0  0  0
 21 22  1  6  0  0  0
 21 20  1  0  0  0  0
 23 21  1  0  0  0  0
 23 27  1  1  0  0  0
 24 26  1  0  0  0  0
 24 23  1  0  0  0  0
 25 24  2  0  0  0  0
 29 27  1  0  0  0  0
 29 28  1  0  0  0  0
M  END
>  <MODEL>
1

>  <REMARK>
 VINA RESULT:      -6.3      0.000      0.000
  Name = 
  9 active torsions:
  status: ('A' for Active; 'I' for Inactive)
    1  A    between atoms: C_1  and  N_2
    2  A    between atoms: C_1  and  C_6
    3  A    between atoms: N_2  and  C_18
    4  A    between atoms: C_6  and  C_7
    5  A    between atoms: C_6  and  C_28
    6  A    between atoms: C_8  and  C_9
    7  A    between atoms: C_17  and  C_24
    8  A    between atoms: C_18  and  C_26
    9  A    between atoms: O_22  and  C_28
                            x       y       z     vdW  Elec       q    Type
                         _______ _______ _______ _____ _____    ______ ____

>  <TORSDO>
F 9

$$$$
=
 OpenBabel11072413483D

 29 31  0  0  1  0  0  0  0  0999 V2000
  162.0610  209.5150  151.0030 C   0  0  0  0  0  0  0  0  0  0  0  0
  162.0560  210.7700  148.9680 C   0  0  0  0  0  3  0  0  0  0  0  0
  162.1430  207.7450  152.5610 N   0  0  0  0  0  2  0  0  0  0  0  0
  162.1110  209.2160  152.4510 C   0  0  2  0  0  3  0  0  0  0  0  0
  162.0380  209.5950  148.2680 N   0  0  0  0  0  0  0  0  0  0  0  0
  162.0440  208.3590  150.2910 C   0  0  0  0  0  0  0  0  0  0  0  0
  162.0800  207.1920  151.1950 C   0  0  2  0  0  3  0  0  0  0  0  0
  162.0370  208.3850  148.8970 C   0  0  0  0  0  3  0  0  0  0  0  0
  162.0730  210.7580  150.3710 C   0  0  0  0  0  3  0  0  0  0  0  0
  158.7100  210.7990  154.5700 C   0  0  0  0  0  0  0  0  0  0  0  0
  160.0050  210.6160  152.5240 C   0  0  0  0  0  3  0  0  0  0  0  0
  159.6250  209.9560  155.2130 C   0  0  0  0  0  3  0  0  0  0  0  0
  160.7250  209.4450  154.5170 C   0  0  0  0  0  3  0  0  0  0  0  0
  158.9070  211.1270  153.2220 C   0  0  0  0  0  3  0  0  0  0  0  0
  160.9190  209.7700  153.1710 C   0  0  0  0  0  0  0  0  0  0  0  0
  157.6650  211.6390  156.6590 O   0  0  0  0  0  1  0  0  0  0  0  0
  157.5540  211.3320  155.3080 C   0  0  0  0  0  0  0  0  0  0  0  0
  156.4520  211.5160  154.7240 O   0  0  0  0  0  0  0  0  0  0  0  0
  160.8120  206.3640  151.0340 C   0  0  0  0  0  2  0  0  0  0  0  0
  160.8140  205.6860  149.7460 N   0  0  0  0  0  2  0  0  0  0  0  0
  161.1810  204.2970  149.9810 C   0  0  1  0  0  3  0  0  0  0  0  0
  160.5870  203.8230  151.3000 C   0  0  0  0  0  1  0  0  0  0  0  0
  160.7670  203.4150  148.7920 C   0  0  2  0  0  3  0  0  0  0  0  0
  160.5990  201.9700  149.1550 C   0  0  0  0  0  0  0  0  0  0  0  0
  159.3240  201.4340  149.2560 O   0  0  0  0  0  0  0  0  0  0  0  0
  161.6010  201.2440  149.3960 O   0  0  0  0  0  1  0  0  0  0  0  0
  161.7050  203.5840  147.6020 C   0  0  0  0  0  2  0  0  0  0  0  0
  161.3500  203.7060  145.4300 C   0  0  0  0  0  1  0  0  0  0  0  0
  161.2360  202.8430  146.5170 O   0  0  0  0  0  0  0  0  0  0  0  0
  1  4  1  0  0  0  0
  2  9  2  0  0  0  0
  4  3  1  0  0  0  0
  4 15  1  1  0  0  0
  5  8  2  0  0  0  0
  5  2  1  0  0  0  0
  6  1  2  0  0  0  0
  6  7  1  0  0  0  0
  7 19  1  1  0  0  0
  7  3  1  0  0  0  0
  8  6  1  0  0  0  0
  9  1  1  0  0  0  0
 10 12  1  0  0  0  0
 10 17  1  0  0  0  0
 11 15  2  0  0  0  0
 11 14  1  0  0  0  0
 13 12  2  0  0  0  0
 14 10  2  0  0  0  0
 15 13  1  0  0  0  0
 17 16  1  0  0  0  0
 18 17  2  0  0  0  0
 20 21  1  0  0  0  0
 20 19  1  0  0  0  0
 21 22  1  1  0  0  0
 23 27  1  6  0  0  0
 23 24  1  0  0  0  0
 23 21  1  0  0  0  0
 24 25  2  0  0  0  0
 24 26  1  0  0  0  0
 28 29  1  0  0  0  0
 29 27  1  0  0  0  0
M  END
>  <MODEL>
2

>  <REMARK>
 VINA RESULT:      -6.2      3.479      8.131
  Name = 
  9 active torsions:
  status: ('A' for Active; 'I' for Inactive)
    1  A    between atoms: C_1  and  N_2
    2  A    between atoms: C_1  and  C_6
    3  A    between atoms: N_2  and  C_18
    4  A    between atoms: C_6  and  C_7
    5  A    between atoms: C_6  and  C_28
    6  A    between atoms: C_8  and  C_9
    7  A    between atoms: C_17  and  C_24
    8  A    between atoms: C_18  and  C_26
    9  A    between atoms: O_22  and  C_28
                            x       y       z     vdW  Elec       q    Type
                         _______ _______ _______ _____ _____    ______ ____

>  <TORSDO>
F 9

$$$$
=
 OpenBabel11072413483D

 29 31  0  0  1  0  0  0  0  0999 V2000
  161.9010  207.3490  152.2400 C   0  0  0  0  0  0  0  0  0  0  0  0
  161.2060  205.7210  153.8460 C   0  0  0  0  0  3  0  0  0  0  0  0
  162.3040  209.3900  151.1260 N   0  0  0  0  0  2  0  0  0  0  0  0
  162.5780  207.9410  151.0650 C   0  0  2  0  0  3  0  0  0  0  0  0
  160.5660  206.7090  154.5410 N   0  0  0  0  0  0  0  0  0  0  0  0
  161.2600  208.3170  152.9430 C   0  0  0  0  0  0  0  0  0  0  0  0
  161.4510  209.6350  152.3040 C   0  0  2  0  0  3  0  0  0  0  0  0
  160.5810  208.0070  154.1200 C   0  0  0  0  0  3  0  0  0  0  0  0
  161.9030  206.0210  152.6660 C   0  0  0  0  0  3  0  0  0  0  0  0
  161.1500  206.2850  147.3520 C   0  0  0  0  0  0  0  0  0  0  0  0
  160.8940  206.5880  149.7480 C   0  0  0  0  0  3  0  0  0  0  0  0
  162.3180  207.0580  147.3900 C   0  0  0  0  0  3  0  0  0  0  0  0
  162.7730  207.5930  148.5980 C   0  0  0  0  0  3  0  0  0  0  0  0
  160.4410  206.0530  148.5390 C   0  0  0  0  0  3  0  0  0  0  0  0
  162.0640  207.3640  149.7810 C   0  0  0  0  0  0  0  0  0  0  0  0
  161.0200  204.4320  145.7070 O   0  0  0  0  0  1  0  0  0  0  0  0
  160.6770  205.7260  146.0760 C   0  0  0  0  0  0  0  0  0  0  0  0
  159.9550  206.4150  145.3050 O   0  0  0  0  0  0  0  0  0  0  0  0
  160.1090  210.1990  151.8580 C   0  0  0  0  0  2  0  0  0  0  0  0
  159.3670  210.7000  153.0050 N   0  0  0  0  0  2  0  0  0  0  0  0
  159.9860  211.9510  153.4180 C   0  0  1  0  0  3  0  0  0  0  0  0
  159.5900  213.0640  152.4580 C   0  0  0  0  0  1  0  0  0  0  0  0
  159.6390  212.2750  154.8790 C   0  0  2  0  0  3  0  0  0  0  0  0
  160.7180  211.8880  155.8450 C   0  0  0  0  0  0  0  0  0  0  0  0
  160.6990  212.4000  157.1350 O   0  0  0  0  0  1  0  0  0  0  0  0
  161.6570  211.1240  155.4930 O   0  0  0  0  0  0  0  0  0  0  0  0
  158.2910  211.6940  155.2890 C   0  0  0  0  0  2  0  0  0  0  0  0
  156.3720  212.4580  154.5200 C   0  0  0  0  0  1  0  0  0  0  0  0
  157.3620  212.7200  155.4650 O   0  0  0  0  0  0  0  0  0  0  0  0
  1  9  2  0  0  0  0
  1  6  1  0  0  0  0
  2  5  2  0  0  0  0
  3  7  1  0  0  0  0
  4 15  1  6  0  0  0
  4  3  1  0  0  0  0
  4  1  1  0  0  0  0
  6  8  2  0  0  0  0
  7 19  1  6  0  0  0
  7  6  1  0  0  0  0
  8  5  1  0  0  0  0
  9  2  1  0  0  0  0
 10 12  2  0  0  0  0
 10 14  1  0  0  0  0
 11 15  1  0  0  0  0
 12 13  1  0  0  0  0
 13 15  2  0  0  0  0
 14 11  2  0  0  0  0
 16 17  1  0  0  0  0
 17 10  1  0  0  0  0
 18 17  2  0  0  0  0
 19 20  1  0  0  0  0
 20 21  1  0  0  0  0
 21 22  1  6  0  0  0
 21 23  1  0  0  0  0
 23 27  1  1  0  0  0
 23 24  1  0  0  0  0
 24 25  1  0  0  0  0
 26 24  2  0  0  0  0
 27 29  1  0  0  0  0
 28 29  1  0  0  0  0
M  END
>  <MODEL>
3

>  <REMARK>
 VINA RESULT:      -6.0      3.621      4.878
  Name = 
  9 active torsions:
  status: ('A' for Active; 'I' for Inactive)
    1  A    between atoms: C_1  and  N_2
    2  A    between atoms: C_1  and  C_6
    3  A    between atoms: N_2  and  C_18
    4  A    between atoms: C_6  and  C_7
    5  A    between atoms: C_6  and  C_28
    6  A    between atoms: C_8  and  C_9
    7  A    between atoms: C_17  and  C_24
    8  A    between atoms: C_18  and  C_26
    9  A    between atoms: O_22  and  C_28
                            x       y       z     vdW  Elec       q    Type
                         _______ _______ _______ _____ _____    ______ ____

>  <TORSDO>
F 9

$$$$
=
 OpenBabel11072413483D

 29 31  0  0  1  0  0  0  0  0999 V2000
  161.1000  208.7100  153.9750 C   0  0  0  0  0  0  0  0  0  0  0  0
  160.1070  207.5020  155.7820 C   0  0  0  0  0  3  0  0  0  0  0  0
  161.7330  210.4320  152.4900 N   0  0  0  0  0  2  0  0  0  0  0  0
  161.9790  209.0160  152.8250 C   0  0  2  0  0  3  0  0  0  0  0  0
  159.3820  208.6160  156.1020 N   0  0  0  0  0  0  0  0  0  0  0  0
  160.3730  209.8070  154.3080 C   0  0  0  0  0  0  0  0  0  0  0  0
  160.7000  210.9370  153.4140 C   0  0  2  0  0  3  0  0  0  0  0  0
  159.4980  209.7750  155.3920 C   0  0  0  0  0  3  0  0  0  0  0  0
  160.9990  207.5230  154.7000 C   0  0  0  0  0  3  0  0  0  0  0  0
  161.1390  206.5250  149.4100 C   0  0  0  0  0  0  0  0  0  0  0  0
  161.1870  206.8340  151.8190 C   0  0  0  0  0  3  0  0  0  0  0  0
  161.6280  207.8270  149.2440 C   0  0  0  0  0  3  0  0  0  0  0  0
  161.8960  208.6290  150.3570 C   0  0  0  0  0  3  0  0  0  0  0  0
  160.9200  206.0330  150.7040 C   0  0  0  0  0  3  0  0  0  0  0  0
  161.6750  208.1390  151.6480 C   0  0  0  0  0  0  0  0  0  0  0  0
  161.1670  204.3330  148.2480 O   0  0  0  0  0  1  0  0  0  0  0  0
  160.8580  205.6870  148.2340 C   0  0  0  0  0  0  0  0  0  0  0  0
  160.3330  206.1880  147.2030 O   0  0  0  0  0  0  0  0  0  0  0  0
  159.4650  211.3540  152.6250 C   0  0  0  0  0  2  0  0  0  0  0  0
  159.7670  212.5090  151.7930 N   0  0  0  0  0  2  0  0  0  0  0  0
  158.5040  213.1550  151.4630 C   0  0  1  0  0  3  0  0  0  0  0  0
  158.1680  214.1990  152.5170 C   0  0  0  0  0  1  0  0  0  0  0  0
  158.5450  213.7370  150.0410 C   0  0  2  0  0  3  0  0  0  0  0  0
  157.3230  213.4160  149.2330 C   0  0  0  0  0  0  0  0  0  0  0  0
  156.0660  213.6600  149.7670 O   0  0  0  0  0  1  0  0  0  0  0  0
  157.4240  212.9040  148.0850 O   0  0  0  0  0  0  0  0  0  0  0  0
  159.8200  213.3490  149.3000 C   0  0  0  0  0  2  0  0  0  0  0  0
  161.6620  214.0460  148.3100 C   0  0  0  0  0  1  0  0  0  0  0  0
  160.6650  214.4530  149.1940 O   0  0  0  0  0  0  0  0  0  0  0  0
  1  6  2  0  0  0  0
  1  9  1  0  0  0  0
  2  5  1  0  0  0  0
  3  4  1  0  0  0  0
  3  7  1  0  0  0  0
  4 15  1  6  0  0  0
  4  1  1  0  0  0  0
  6  8  1  0  0  0  0
  7 19  1  6  0  0  0
  7  6  1  0  0  0  0
  8  5  2  0  0  0  0
  9  2  2  0  0  0  0
 10 14  1  0  0  0  0
 12 10  2  0  0  0  0
 12 13  1  0  0  0  0
 13 15  2  0  0  0  0
 14 11  2  0  0  0  0
 15 11  1  0  0  0  0
 17 16  1  0  0  0  0
 17 10  1  0  0  0  0
 18 17  2  0  0  0  0
 20 19  1  0  0  0  0
 21 20  1  0  0  0  0
 21 22  1  1  0  0  0
 23 27  1  6  0  0  0
 23 21  1  0  0  0  0
 24 25  1  0  0  0  0
 24 23  1  0  0  0  0
 26 24  2  0  0  0  0
 28 29  1  0  0  0  0
 29 27  1  0  0  0  0
M  END
>  <MODEL>
4

>  <REMARK>
 VINA RESULT:      -6.0      2.265      3.847
  Name = 
  9 active torsions:
  status: ('A' for Active; 'I' for Inactive)
    1  A    between atoms: C_1  and  N_2
    2  A    between atoms: C_1  and  C_6
    3  A    between atoms: N_2  and  C_18
    4  A    between atoms: C_6  and  C_7
    5  A    between atoms: C_6  and  C_28
    6  A    between atoms: C_8  and  C_9
    7  A    between atoms: C_17  and  C_24
    8  A    between atoms: C_18  and  C_26
    9  A    between atoms: O_22  and  C_28
                            x       y       z     vdW  Elec       q    Type
                         _______ _______ _______ _____ _____    ______ ____

>  <TORSDO>
F 9

$$$$
=
 OpenBabel11072413483D

 29 31  0  0  1  0  0  0  0  0999 V2000
  162.0580  209.5810  150.8910 C   0  0  0  0  0  0  0  0  0  0  0  0
  162.1790  211.1400  149.0830 C   0  0  0  0  0  3  0  0  0  0  0  0
  161.9530  207.5850  152.1460 N   0  0  0  0  0  2  0  0  0  0  0  0
  162.0840  209.0490  152.2720 C   0  0  2  0  0  3  0  0  0  0  0  0
  162.0270  210.1020  148.2060 N   0  0  0  0  0  0  0  0  0  0  0  0
  161.9080  208.5630  150.0050 C   0  0  0  0  0  0  0  0  0  0  0  0
  161.8200  207.2690  150.7110 C   0  0  2  0  0  3  0  0  0  0  0  0
  161.8950  208.8140  148.6340 C   0  0  0  0  0  3  0  0  0  0  0  0
  162.2040  210.9010  150.4650 C   0  0  0  0  0  3  0  0  0  0  0  0
  158.8960  210.6370  154.6980 C   0  0  0  0  0  0  0  0  0  0  0  0
  160.0730  210.5550  152.5750 C   0  0  0  0  0  3  0  0  0  0  0  0
  159.7900  209.6920  155.2180 C   0  0  0  0  0  3  0  0  0  0  0  0
  160.8200  209.1810  154.4240 C   0  0  0  0  0  3  0  0  0  0  0  0
  159.0430  211.0650  153.3720 C   0  0  0  0  0  3  0  0  0  0  0  0
  160.9650  209.6060  153.1000 C   0  0  0  0  0  0  0  0  0  0  0  0
  158.1060  211.8040  156.7410 O   0  0  0  0  0  1  0  0  0  0  0  0
  157.8130  211.1700  155.5400 C   0  0  0  0  0  0  0  0  0  0  0  0
  156.6100  211.0580  155.1810 O   0  0  0  0  0  0  0  0  0  0  0  0
  160.4660  206.6220  150.4510 C   0  0  0  0  0  2  0  0  0  0  0  0
  160.5270  205.7920  149.2570 N   0  0  0  0  0  2  0  0  0  0  0  0
  161.3310  204.6200  149.5760 C   0  0  1  0  0  3  0  0  0  0  0  0
  160.6700  203.8310  150.6960 C   0  0  0  0  0  1  0  0  0  0  0  0
  161.5810  203.7730  148.3180 C   0  0  2  0  0  3  0  0  0  0  0  0
  161.7280  204.5920  147.0710 C   0  0  0  0  0  0  0  0  0  0  0  0
  162.8480  205.3930  146.9060 O   0  0  0  0  0  1  0  0  0  0  0  0
  160.8340  204.5810  146.1820 O   0  0  0  0  0  0  0  0  0  0  0  0
  160.5320  202.6810  148.1470 C   0  0  0  0  0  2  0  0  0  0  0  0
  161.2170  200.6910  148.8040 C   0  0  0  0  0  1  0  0  0  0  0  0
  161.1330  201.5110  147.6810 O   0  0  0  0  0  0  0  0  0  0  0  0
  1  4  1  0  0  0  0
  2  9  2  0  0  0  0
  3  4  1  0  0  0  0
  4 15  1  1  0  0  0
  5  8  2  0  0  0  0
  5  2  1  0  0  0  0
  6  7  1  0  0  0  0
  6  1  2  0  0  0  0
  7 19  1  1  0  0  0
  7  3  1  0  0  0  0
  8  6  1  0  0  0  0
  9  1  1  0  0  0  0
 10 12  1  0  0  0  0
 10 17  1  0  0  0  0
 11 15  2  0  0  0  0
 11 14  1  0  0  0  0
 13 12  2  0  0  0  0
 14 10  2  0  0  0  0
 15 13  1  0  0  0  0
 17 16  1  0  0  0  0
 18 17  2  0  0  0  0
 20 21  1  0  0  0  0
 20 19  1  0  0  0  0
 21 22  1  1  0  0  0
 23 27  1  6  0  0  0
 23 21  1  0  0  0  0
 24 23  1  0  0  0  0
 25 24  1  0  0  0  0
 26 24  2  0  0  0  0
 29 27  1  0  0  0  0
 29 28  1  0  0  0  0
M  END
>  <MODEL>
5

>  <REMARK>
 VINA RESULT:      -6.0      3.026      7.840
  Name = 
  9 active torsions:
  status: ('A' for Active; 'I' for Inactive)
    1  A    between atoms: C_1  and  N_2
    2  A    between atoms: C_1  and  C_6
    3  A    between atoms: N_2  and  C_18
    4  A    between atoms: C_6  and  C_7
    5  A    between atoms: C_6  and  C_28
    6  A    between atoms: C_8  and  C_9
    7  A    between atoms: C_17  and  C_24
    8  A    between atoms: C_18  and  C_26
    9  A    between atoms: O_22  and  C_28
                            x       y       z     vdW  Elec       q    Type
                         _______ _______ _______ _____ _____    ______ ____

>  <TORSDO>
F 9

$$$$
=
 OpenBabel11072413483D

 29 31  0  0  1  0  0  0  0  0999 V2000
  161.1120  208.7850  154.0720 C   0  0  0  0  0  0  0  0  0  0  0  0
  160.4390  207.5180  155.9840 C   0  0  0  0  0  3  0  0  0  0  0  0
  161.3700  210.5180  152.4910 N   0  0  0  0  0  2  0  0  0  0  0  0
  161.8540  209.1710  152.8520 C   0  0  2  0  0  3  0  0  0  0  0  0
  159.5730  208.5220  156.3190 N   0  0  0  0  0  0  0  0  0  0  0  0
  160.2460  209.7720  154.4200 C   0  0  0  0  0  0  0  0  0  0  0  0
  160.3340  210.8980  153.4690 C   0  0  2  0  0  3  0  0  0  0  0  0
  159.4600  209.6530  155.5650 C   0  0  0  0  0  3  0  0  0  0  0  0
  161.2430  207.6290  154.8400 C   0  0  0  0  0  3  0  0  0  0  0  0
  161.1900  206.4350  149.5900 C   0  0  0  0  0  0  0  0  0  0  0  0
  161.2530  206.8740  151.9780 C   0  0  0  0  0  3  0  0  0  0  0  0
  161.5520  207.7660  149.3470 C   0  0  0  0  0  3  0  0  0  0  0  0
  161.7630  208.6480  150.4100 C   0  0  0  0  0  3  0  0  0  0  0  0
  161.0430  205.9940  150.9130 C   0  0  0  0  0  3  0  0  0  0  0  0
  161.6130  208.2080  151.7290 C   0  0  0  0  0  0  0  0  0  0  0  0
  160.4900  205.9910  147.2510 O   0  0  0  0  0  0  0  0  0  0  0  0
  160.9680  205.5130  148.4650 C   0  0  0  0  0  0  0  0  0  0  0  0
  161.2090  204.2820  148.5900 O   0  0  0  0  0  1  0  0  0  0  0  0
  159.0000  211.0880  152.7580 C   0  0  0  0  0  2  0  0  0  0  0  0
  158.6920  212.5050  152.6370 N   0  0  0  0  0  2  0  0  0  0  0  0
  158.2480  212.9720  153.9430 C   0  0  1  0  0  3  0  0  0  0  0  0
  158.5740  214.4500  154.1000 C   0  0  0  0  0  1  0  0  0  0  0  0
  156.7560  212.6660  154.1530 C   0  0  2  0  0  3  0  0  0  0  0  0
  155.8500  213.7070  153.5670 C   0  0  0  0  0  0  0  0  0  0  0  0
  155.0280  214.4480  154.4050 O   0  0  0  0  0  1  0  0  0  0  0  0
  155.8060  213.9010  152.3220 O   0  0  0  0  0  0  0  0  0  0  0  0
  156.4270  212.4010  155.6170 C   0  0  0  0  0  2  0  0  0  0  0  0
  155.5720  210.4570  155.0280 C   0  0  0  0  0  1  0  0  0  0  0  0
  156.5060  211.0350  155.8840 O   0  0  0  0  0  0  0  0  0  0  0  0
  1  6  2  0  0  0  0
  1  9  1  0  0  0  0
  2  5  1  0  0  0  0
  3  4  1  0  0  0  0
  3  7  1  0  0  0  0
  4 15  1  6  0  0  0
  4  1  1  0  0  0  0
  6  8  1  0  0  0  0
  7 19  1  6  0  0  0
  7  6  1  0  0  0  0
  8  5  2  0  0  0  0
  9  2  2  0  0  0  0
 10 14  1  0  0  0  0
 12 10  2  0  0  0  0
 12 13  1  0  0  0  0
 13 15  2  0  0  0  0
 14 11  2  0  0  0  0
 15 11  1  0  0  0  0
 16 17  2  0  0  0  0
 17 18  1  0  0  0  0
 17 10  1  0  0  0  0
 20 19  1  0  0  0  0
 20 21  1  0  0  0  0
 21 22  1  6  0  0  0
 21 23  1  0  0  0  0
 23 27  1  1  0  0  0
 24 23  1  0  0  0  0
 24 25  1  0  0  0  0
 26 24  2  0  0  0  0
 27 29  1  0  0  0  0
 28 29  1  0  0  0  0
M  END
>  <MODEL>
6

>  <REMARK>
 VINA RESULT:      -5.8      3.720      5.415
  Name = 
  9 active torsions:
  status: ('A' for Active; 'I' for Inactive)
    1  A    between atoms: C_1  and  N_2
    2  A    between atoms: C_1  and  C_6
    3  A    between atoms: N_2  and  C_18
    4  A    between atoms: C_6  and  C_7
    5  A    between atoms: C_6  and  C_28
    6  A    between atoms: C_8  and  C_9
    7  A    between atoms: C_17  and  C_24
    8  A    between atoms: C_18  and  C_26
    9  A    between atoms: O_22  and  C_28
                            x       y       z     vdW  Elec       q    Type
                         _______ _______ _______ _____ _____    ______ ____

>  <TORSDO>
F 9

$$$$
=
 OpenBabel11072413483D

 29 31  0  0  1  0  0  0  0  0999 V2000
  162.0420  209.9800  150.9760 C   0  0  0  0  0  0  0  0  0  0  0  0
  161.9910  211.3960  149.0510 C   0  0  0  0  0  3  0  0  0  0  0  0
  162.1920  208.0930  152.3850 N   0  0  0  0  0  2  0  0  0  0  0  0
  162.1010  209.5660  152.3950 C   0  0  2  0  0  3  0  0  0  0  0  0
  162.0230  210.2830  148.2570 N   0  0  0  0  0  0  0  0  0  0  0  0
  162.0740  208.8860  150.1720 C   0  0  0  0  0  0  0  0  0  0  0  0
  162.1550  207.6520  150.9780 C   0  0  2  0  0  3  0  0  0  0  0  0
  162.0700  209.0260  148.7850 C   0  0  0  0  0  3  0  0  0  0  0  0
  162.0050  211.2700  150.4480 C   0  0  0  0  0  3  0  0  0  0  0  0
  158.5790  210.8480  154.5220 C   0  0  0  0  0  0  0  0  0  0  0  0
  160.7200  209.7010  154.5110 C   0  0  0  0  0  3  0  0  0  0  0  0
  158.7470  211.1520  153.1640 C   0  0  0  0  0  3  0  0  0  0  0  0
  159.8930  210.7340  152.4830 C   0  0  0  0  0  3  0  0  0  0  0  0
  159.5720  210.1200  155.1910 C   0  0  0  0  0  3  0  0  0  0  0  0
  160.8850  210.0100  153.1520 C   0  0  0  0  0  0  0  0  0  0  0  0
  156.1100  211.0030  154.7230 O   0  0  0  0  0  0  0  0  0  0  0  0
  157.3700  211.2920  155.2330 C   0  0  0  0  0  0  0  0  0  0  0  0
  157.4640  211.9380  156.3110 O   0  0  0  0  0  1  0  0  0  0  0  0
  160.9220  206.7900  150.7420 C   0  0  0  0  0  2  0  0  0  0  0  0
  161.3140  205.4190  150.4530 N   0  0  0  0  0  2  0  0  0  0  0  0
  160.6610  205.0270  149.2110 C   0  0  1  0  0  3  0  0  0  0  0  0
  160.1560  206.2640  148.4830 C   0  0  0  0  0  1  0  0  0  0  0  0
  161.6010  204.1710  148.3480 C   0  0  2  0  0  3  0  0  0  0  0  0
  161.8930  204.7780  147.0080 C   0  0  0  0  0  0  0  0  0  0  0  0
  161.2080  204.3270  145.8890 O   0  0  0  0  0  0  0  0  0  0  0  0
  162.7710  205.6740  146.8820 O   0  0  0  0  0  1  0  0  0  0  0  0
  161.1050  202.7360  148.2130 C   0  0  0  0  0  2  0  0  0  0  0  0
  159.9310  201.3680  149.4810 C   0  0  0  0  0  1  0  0  0  0  0  0
  161.1100  202.1100  149.4590 O   0  0  0  0  0  0  0  0  0  0  0  0
  1  4  1  0  0  0  0
  2  9  2  0  0  0  0
  3  4  1  0  0  0  0
  4 15  1  1  0  0  0
  5  8  2  0  0  0  0
  5  2  1  0  0  0  0
  6  1  2  0  0  0  0
  6  7  1  0  0  0  0
  7 19  1  1  0  0  0
  7  3  1  0  0  0  0
  8  6  1  0  0  0  0
  9  1  1  0  0  0  0
 10 14  1  0  0  0  0
 10 17  1  0  0  0  0
 11 14  2  0  0  0  0
 12 10  2  0  0  0  0
 13 15  2  0  0  0  0
 13 12  1  0  0  0  0
 15 11  1  0  0  0  0
 16 17  2  0  0  0  0
 17 18  1  0  0  0  0
 20 19  1  0  0  0  0
 21 22  1  6  0  0  0
 21 20  1  0  0  0  0
 23 27  1  6  0  0  0
 23 21  1  0  0  0  0
 24 23  1  0  0  0  0
 25 24  2  0  0  0  0
 26 24  1  0  0  0  0
 27 29  1  0  0  0  0
 29 28  1  0  0  0  0
M  END
>  <MODEL>
7

>  <REMARK>
 VINA RESULT:      -5.8      3.072      7.663
  Name = 
  9 active torsions:
  status: ('A' for Active; 'I' for Inactive)
    1  A    between atoms: C_1  and  N_2
    2  A    between atoms: C_1  and  C_6
    3  A    between atoms: N_2  and  C_18
    4  A    between atoms: C_6  and  C_7
    5  A    between atoms: C_6  and  C_28
    6  A    between atoms: C_8  and  C_9
    7  A    between atoms: C_17  and  C_24
    8  A    between atoms: C_18  and  C_26
    9  A    between atoms: O_22  and  C_28
                            x       y       z     vdW  Elec       q    Type
                         _______ _______ _______ _____ _____    ______ ____

>  <TORSDO>
F 9

$$$$
=
 OpenBabel11072413483D

 29 31  0  0  1  0  0  0  0  0999 V2000
  161.1240  208.5190  154.0190 C   0  0  0  0  0  0  0  0  0  0  0  0
  160.0540  207.3210  155.7890 C   0  0  0  0  0  3  0  0  0  0  0  0
  161.8510  210.2400  152.5770 N   0  0  0  0  0  2  0  0  0  0  0  0
  162.0290  208.8080  152.8850 C   0  0  2  0  0  3  0  0  0  0  0  0
  159.3770  208.4610  156.1240 N   0  0  0  0  0  0  0  0  0  0  0  0
  160.4420  209.6410  154.3650 C   0  0  0  0  0  0  0  0  0  0  0  0
  160.8300  210.7720  153.4980 C   0  0  2  0  0  3  0  0  0  0  0  0
  159.5530  209.6270  155.4380 C   0  0  0  0  0  3  0  0  0  0  0  0
  160.9600  207.3240  154.7170 C   0  0  0  0  0  3  0  0  0  0  0  0
  161.1160  206.4290  149.4100 C   0  0  0  0  0  0  0  0  0  0  0  0
  161.2330  206.6530  151.8250 C   0  0  0  0  0  3  0  0  0  0  0  0
  161.5850  207.7420  149.2760 C   0  0  0  0  0  3  0  0  0  0  0  0
  161.8770  208.5080  150.4080 C   0  0  0  0  0  3  0  0  0  0  0  0
  160.9430  205.8880  150.6910 C   0  0  0  0  0  3  0  0  0  0  0  0
  161.7000  207.9690  151.6870 C   0  0  0  0  0  0  0  0  0  0  0  0
  160.8820  204.2430  148.2590 O   0  0  0  0  0  1  0  0  0  0  0  0
  160.8100  205.6290  148.2130 C   0  0  0  0  0  0  0  0  0  0  0  0
  160.4790  206.1930  147.1350 O   0  0  0  0  0  0  0  0  0  0  0  0
  159.6250  211.2610  152.7050 C   0  0  0  0  0  2  0  0  0  0  0  0
  159.8010  212.6560  152.3310 N   0  0  0  0  0  2  0  0  0  0  0  0
  158.6790  213.4040  152.8810 C   0  0  1  0  0  3  0  0  0  0  0  0
  157.4870  213.3100  151.9390 C   0  0  0  0  0  1  0  0  0  0  0  0
  158.3510  212.9270  154.3040 C   0  0  2  0  0  3  0  0  0  0  0  0
  156.8830  212.7380  154.5430 C   0  0  0  0  0  0  0  0  0  0  0  0
  156.3520  211.4560  154.5620 O   0  0  0  0  0  0  0  0  0  0  0  0
  156.1210  213.7300  154.7020 O   0  0  0  0  0  1  0  0  0  0  0  0
  158.9760  213.8240  155.3660 C   0  0  0  0  0  2  0  0  0  0  0  0
  159.6790  212.9290  157.2540 C   0  0  0  0  0  1  0  0  0  0  0  0
  160.0740  213.1860  155.9430 O   0  0  0  0  0  0  0  0  0  0  0  0
  1  6  2  0  0  0  0
  1  9  1  0  0  0  0
  2  5  1  0  0  0  0
  3  4  1  0  0  0  0
  3  7  1  0  0  0  0
  4 15  1  6  0  0  0
  4  1  1  0  0  0  0
  6  8  1  0  0  0  0
  7 19  1  6  0  0  0
  7  6  1  0  0  0  0
  8  5  2  0  0  0  0
  9  2  2  0  0  0  0
 10 14  1  0  0  0  0
 12 10  2  0  0  0  0
 12 13  1  0  0  0  0
 13 15  2  0  0  0  0
 14 11  2  0  0  0  0
 15 11  1  0  0  0  0
 17 16  1  0  0  0  0
 17 10  1  0  0  0  0
 18 17  2  0  0  0  0
 20 19  1  0  0  0  0
 20 21  1  0  0  0  0
 21 22  1  6  0  0  0
 21 23  1  0  0  0  0
 23 24  1  0  0  0  0
 23 27  1  1  0  0  0
 24 25  2  0  0  0  0
 24 26  1  0  0  0  0
 27 29  1  0  0  0  0
 29 28  1  0  0  0  0
M  END
>  <MODEL>
8

>  <REMARK>
 VINA RESULT:      -5.6      3.547      5.144
  Name = 
  9 active torsions:
  status: ('A' for Active; 'I' for Inactive)
    1  A    between atoms: C_1  and  N_2
    2  A    between atoms: C_1  and  C_6
    3  A    between atoms: N_2  and  C_18
    4  A    between atoms: C_6  and  C_7
    5  A    between atoms: C_6  and  C_28
    6  A    between atoms: C_8  and  C_9
    7  A    between atoms: C_17  and  C_24
    8  A    between atoms: C_18  and  C_26
    9  A    between atoms: O_22  and  C_28
                            x       y       z     vdW  Elec       q    Type
                         _______ _______ _______ _____ _____    ______ ____

>  <TORSDO>
F 9

$$$$
=
 OpenBabel11072413483D

 29 31  0  0  1  0  0  0  0  0999 V2000
  161.9240  207.2870  152.3480 C   0  0  0  0  0  0  0  0  0  0  0  0
  161.2020  205.6090  153.8890 C   0  0  0  0  0  3  0  0  0  0  0  0
  162.3420  209.3620  151.3040 N   0  0  0  0  0  2  0  0  0  0  0  0
  162.6230  207.9170  151.2060 C   0  0  2  0  0  3  0  0  0  0  0  0
  160.5440  206.5750  154.6000 N   0  0  0  0  0  0  0  0  0  0  0  0
  161.2650  208.2320  153.0660 C   0  0  0  0  0  0  0  0  0  0  0  0
  161.4640  209.5690  152.4710 C   0  0  2  0  0  3  0  0  0  0  0  0
  160.5630  207.8840  154.2190 C   0  0  0  0  0  3  0  0  0  0  0  0
  161.9220  205.9480  152.7330 C   0  0  0  0  0  3  0  0  0  0  0  0
  161.1770  206.3550  147.4590 C   0  0  0  0  0  0  0  0  0  0  0  0
  162.7590  207.7300  148.6860 C   0  0  0  0  0  3  0  0  0  0  0  0
  160.5580  206.0080  148.6670 C   0  0  0  0  0  3  0  0  0  0  0  0
  161.0350  206.5170  149.8780 C   0  0  0  0  0  3  0  0  0  0  0  0
  162.2800  207.2190  147.4760 C   0  0  0  0  0  3  0  0  0  0  0  0
  162.1370  207.3770  149.8940 C   0  0  0  0  0  0  0  0  0  0  0  0
  160.8340  204.4670  145.8840 O   0  0  0  0  0  1  0  0  0  0  0  0
  160.6700  205.8130  146.1880 C   0  0  0  0  0  0  0  0  0  0  0  0
  160.0830  206.5630  145.3630 O   0  0  0  0  0  0  0  0  0  0  0  0
  160.1290  210.1430  152.0140 C   0  0  0  0  0  2  0  0  0  0  0  0
  159.9480  211.4830  152.5500 N   0  0  0  0  0  2  0  0  0  0  0  0
  158.8250  211.4390  153.4760 C   0  0  1  0  0  3  0  0  0  0  0  0
  159.3330  211.5390  154.9070 C   0  0  0  0  0  1  0  0  0  0  0  0
  157.7930  212.5260  153.1340 C   0  0  2  0  0  3  0  0  0  0  0  0
  158.2660  213.4800  152.0780 C   0  0  0  0  0  0  0  0  0  0  0  0
  157.8970  213.2760  150.7560 O   0  0  0  0  0  0  0  0  0  0  0  0
  159.0140  214.4510  152.3730 O   0  0  0  0  0  1  0  0  0  0  0  0
  157.3080  213.2650  154.3750 C   0  0  0  0  0  2  0  0  0  0  0  0
  155.1840  213.6840  153.9570 C   0  0  0  0  0  1  0  0  0  0  0  0
  156.0160  212.8510  154.7020 O   0  0  0  0  0  0  0  0  0  0  0  0
  1  9  2  0  0  0  0
  1  6  1  0  0  0  0
  2  5  2  0  0  0  0
  3  7  1  0  0  0  0
  4 15  1  6  0  0  0
  4  3  1  0  0  0  0
  4  1  1  0  0  0  0
  6  8  2  0  0  0  0
  7 19  1  6  0  0  0
  7  6  1  0  0  0  0
  8  5  1  0  0  0  0
  9  2  1  0  0  0  0
 10 14  2  0  0  0  0
 10 12  1  0  0  0  0
 11 15  2  0  0  0  0
 12 13  2  0  0  0  0
 13 15  1  0  0  0  0
 14 11  1  0  0  0  0
 16 17  1  0  0  0  0
 17 10  1  0  0  0  0
 18 17  2  0  0  0  0
 19 20  1  0  0  0  0
 20 21  1  0  0  0  0
 21 22  1  1  0  0  0
 23 21  1  0  0  0  0
 23 27  1  1  0  0  0
 24 26  1  0  0  0  0
 24 23  1  0  0  0  0
 25 24  2  0  0  0  0
 27 29  1  0  0  0  0
 28 29  1  0  0  0  0
M  END
>  <MODEL>
9

>  <REMARK>
 VINA RESULT:      -5.5      3.098      4.480
  Name = 
  9 active torsions:
  status: ('A' for Active; 'I' for Inactive)
    1  A    between atoms: C_1  and  N_2
    2  A    between atoms: C_1  and  C_6
    3  A    between atoms: N_2  and  C_18
    4  A    between atoms: C_6  and  C_7
    5  A    between atoms: C_6  and  C_28
    6  A    between atoms: C_8  and  C_9
    7  A    between atoms: C_17  and  C_24
    8  A    between atoms: C_18  and  C_26
    9  A    between atoms: O_22  and  C_28
                            x       y       z     vdW  Elec       q    Type
                         _______ _______ _______ _____ _____    ______ ____

>  <TORSDO>
F 9

$$$$
