=
 OpenBabel11072411043D

 30 34  0  0  1  0  0  0  0  0999 V2000
  161.9090  208.0470  151.9800 C   0  0  1  0  0  3  0  0  0  0  0  0
  159.8260  208.0490  154.6450 C   0  0  1  0  0  3  0  0  0  0  0  0
  162.0670  205.8820  153.0690 C   0  0  0  0  0  2  0  0  0  0  0  0
  159.8720  207.5330  155.9110 N   0  0  0  0  0  0  0  0  0  0  0  0
  159.6100  211.2940  155.3750 C   0  0  0  0  0  2  0  0  0  0  0  0
  162.1210  207.0450  150.8400 C   0  0  1  0  0  3  0  0  0  0  0  0
  160.7910  209.2270  154.4660 C   0  0  1  0  0  3  0  0  0  0  0  0
  160.5990  209.8610  153.0850 C   0  0  0  0  0  0  0  0  0  0  0  0
  160.6790  210.2320  155.6290 C   0  0  1  0  0  3  0  0  0  0  0  0
  160.5450  206.9050  154.8430 C   0  0  0  0  0  0  0  0  0  0  0  0
  159.9090  212.0500  154.0880 C   0  0  0  0  0  2  0  0  0  0  0  0
  161.3700  205.8430  154.3520 N   0  0  0  0  0  2  0  0  0  0  0  0
  160.7800  209.0570  151.8280 C   0  0  0  0  0  2  0  0  0  0  0  0
  161.2790  206.6700  152.0420 C   0  0  2  0  0  3  0  0  0  0  0  0
  160.1270  211.1100  152.9380 C   0  0  0  0  0  3  0  0  0  0  0  0
  162.0040  210.8310  155.9810 C   0  0  0  0  0  0  0  0  0  0  0  0
  162.1850  211.5000  157.1860 O   0  0  0  0  0  1  0  0  0  0  0  0
  162.9730  210.7060  155.1880 O   0  0  0  0  0  0  0  0  0  0  0  0
  161.2190  207.2780  149.6320 C   0  0  0  0  0  2  0  0  0  0  0  0
  161.9110  204.6760  146.6800 C   0  0  2  0  0  3  0  0  0  0  0  0
  160.8550  204.9900  148.7790 C   0  0  0  0  0  3  0  0  0  0  0  0
  161.1100  204.1350  147.7220 O   0  0  0  0  0  0  0  0  0  0  0  0
  161.3890  206.1860  148.6330 C   0  0  0  0  0  0  0  0  0  0  0  0
  162.2710  206.4200  147.1010 S   0  0  0  0  0  0  0  0  0  0  0  0
  161.1870  204.5960  145.3730 C   0  0  0  0  0  0  0  0  0  0  0  0
  161.2330  205.5700  144.5730 O   0  0  0  0  0  0  0  0  0  0  0  0
  159.5010  203.4360  144.1790 O   0  0  0  0  0  0  0  0  0  0  0  0
  160.4440  203.3790  145.0120 C   0  0  0  0  0  0  0  0  0  0  0  0
  160.1210  201.0430  144.9450 O   0  0  0  0  0  1  0  0  0  0  0  0
  160.8180  202.0600  145.5970 C   0  0  0  0  0  2  0  0  0  0  0  0
  1 13  1  6  0  0  0
  1 14  1  0  0  0  0
  2 10  1  6  0  0  0
  2  4  1  0  0  0  0
  3 12  1  0  0  0  0
  5  9  1  0  0  0  0
  6 19  1  6  0  0  0
  6  1  1  0  0  0  0
  6 14  1  0  0  0  0
  7  8  1  6  0  0  0
  7  2  1  0  0  0  0
  7  9  1  0  0  0  0
  9 16  1  6  0  0  0
 10  4  2  0  0  0  0
 11  5  1  0  0  0  0
 12 10  1  0  0  0  0
 13  8  1  0  0  0  0
 14  3  1  1  0  0  0
 15  8  2  0  0  0  0
 15 11  1  0  0  0  0
 16 17  1  0  0  0  0
 18 16  2  0  0  0  0
 20 25  1  6  0  0  0
 20 24  1  0  0  0  0
 20 22  1  0  0  0  0
 22 21  1  0  0  0  0
 23 21  2  0  0  0  0
 23 19  1  0  0  0  0
 24 23  1  0  0  0  0
 26 25  2  0  0  0  0
 27 28  2  0  0  0  0
 28 25  1  0  0  0  0
 28 30  1  0  0  0  0
 29 30  1  0  0  0  0
M  END
>  <MODEL>
1

>  <REMARK>
 VINA RESULT:      -7.4      0.000      0.000
  Name = 
  6 active torsions:
  status: ('A' for Active; 'I' for Inactive)
    1  A    between atoms: C_1  and  C_21
    2  A    between atoms: C_2  and  C_8
    3  A    between atoms: C_8  and  C_28
    4  A    between atoms: C_9  and  C_16
    5  A    between atoms: C_9  and  C_17
    6  A    between atoms: C_18  and  C_28
                            x       y       z     vdW  Elec       q    Type
                         _______ _______ _______ _____ _____    ______ ____

>  <TORSDO>
F 6

$$$$
=
 OpenBabel11072411043D

 30 34  0  0  1  0  0  0  0  0999 V2000
  162.0730  208.6160  152.3680 C   0  0  1  0  0  3  0  0  0  0  0  0
  159.7690  208.1560  154.8030 C   0  0  1  0  0  3  0  0  0  0  0  0
  162.0810  206.2680  152.9880 C   0  0  0  0  0  2  0  0  0  0  0  0
  159.6930  207.3880  155.9310 N   0  0  0  0  0  0  0  0  0  0  0  0
  159.5740  211.1850  156.1790 C   0  0  0  0  0  2  0  0  0  0  0  0
  162.3560  207.8640  151.0640 C   0  0  1  0  0  3  0  0  0  0  0  0
  160.7760  209.3030  154.9510 C   0  0  1  0  0  3  0  0  0  0  0  0
  160.7190  210.2160  153.7240 C   0  0  0  0  0  0  0  0  0  0  0  0
  160.5900  210.0490  156.2870 C   0  0  1  0  0  3  0  0  0  0  0  0
  160.4390  206.9660  154.8110 C   0  0  0  0  0  0  0  0  0  0  0  0
  160.0020  212.1780  155.1060 C   0  0  0  0  0  2  0  0  0  0  0  0
  161.2750  205.9940  154.1750 N   0  0  0  0  0  2  0  0  0  0  0  0
  160.9870  209.6830  152.3440 C   0  0  0  0  0  2  0  0  0  0  0  0
  161.4050  207.2850  152.0910 C   0  0  2  0  0  3  0  0  0  0  0  0
  160.2940  211.4880  153.8050 C   0  0  0  0  0  3  0  0  0  0  0  0
  161.8950  210.5050  156.8600 C   0  0  0  0  0  0  0  0  0  0  0  0
  162.9810  209.6400  156.9300 O   0  0  0  0  0  0  0  0  0  0  0  0
  162.0180  211.6910  157.2600 O   0  0  0  0  0  1  0  0  0  0  0  0
  161.5680  208.3810  149.8640 C   0  0  0  0  0  2  0  0  0  0  0  0
  161.1300  205.5160  147.1140 C   0  0  2  0  0  3  0  0  0  0  0  0
  162.5500  207.2430  147.9060 C   0  0  0  0  0  3  0  0  0  0  0  0
  162.3550  206.2270  146.9870 O   0  0  0  0  0  0  0  0  0  0  0  0
  161.5610  207.3730  148.7680 C   0  0  0  0  0  0  0  0  0  0  0  0
  160.2420  206.1900  148.5640 S   0  0  0  0  0  0  0  0  0  0  0  0
  161.3930  204.0550  147.2970 C   0  0  0  0  0  0  0  0  0  0  0  0
  161.6330  203.6040  148.4500 O   0  0  0  0  0  0  0  0  0  0  0  0
  161.7570  203.5300  145.0160 O   0  0  0  0  0  0  0  0  0  0  0  0
  161.3490  203.1450  146.1430 C   0  0  0  0  0  0  0  0  0  0  0  0
  160.1020  201.3880  145.1800 O   0  0  0  0  0  1  0  0  0  0  0  0
  160.8550  201.7470  146.2980 C   0  0  0  0  0  2  0  0  0  0  0  0
  1 13  1  6  0  0  0
  2 10  1  6  0  0  0
  2  7  1  0  0  0  0
  2  4  1  0  0  0  0
  3 12  1  0  0  0  0
  5  9  1  0  0  0  0
  6 19  1  6  0  0  0
  6 14  1  0  0  0  0
  6  1  1  0  0  0  0
  7  8  1  6  0  0  0
  7  9  1  0  0  0  0
  8 15  2  0  0  0  0
  9 16  1  6  0  0  0
 10  4  2  0  0  0  0
 11  5  1  0  0  0  0
 12 10  1  0  0  0  0
 13  8  1  0  0  0  0
 14  1  1  0  0  0  0
 14  3  1  1  0  0  0
 15 11  1  0  0  0  0
 16 17  2  0  0  0  0
 16 18  1  0  0  0  0
 20 25  1  1  0  0  0
 20 24  1  0  0  0  0
 21 23  2  0  0  0  0
 22 20  1  0  0  0  0
 22 21  1  0  0  0  0
 23 19  1  0  0  0  0
 24 23  1  0  0  0  0
 25 26  2  0  0  0  0
 27 28  2  0  0  0  0
 28 30  1  0  0  0  0
 28 25  1  0  0  0  0
 29 30  1  0  0  0  0
M  END
>  <MODEL>
2

>  <REMARK>
 VINA RESULT:      -7.3      1.168      1.586
  Name = 
  6 active torsions:
  status: ('A' for Active; 'I' for Inactive)
    1  A    between atoms: C_1  and  C_21
    2  A    between atoms: C_2  and  C_8
    3  A    between atoms: C_8  and  C_28
    4  A    between atoms: C_9  and  C_16
    5  A    between atoms: C_9  and  C_17
    6  A    between atoms: C_18  and  C_28
                            x       y       z     vdW  Elec       q    Type
                         _______ _______ _______ _____ _____    ______ ____

>  <TORSDO>
F 6

$$$$
=
 OpenBabel11072411043D

 30 34  0  0  1  0  0  0  0  0999 V2000
  160.3660  206.7290  150.7480 C   0  0  1  0  0  3  0  0  0  0  0  0
  162.5340  209.0520  151.9120 C   0  0  1  0  0  3  0  0  0  0  0  0
  161.2540  207.9590  148.8510 C   0  0  0  0  0  2  0  0  0  0  0  0
  162.8470  210.3390  151.5740 N   0  0  0  0  0  0  0  0  0  0  0  0
  161.4450  209.5430  155.0240 C   0  0  0  0  0  2  0  0  0  0  0  0
  160.4720  205.6960  149.6210 C   0  0  1  0  0  3  0  0  0  0  0  0
  161.1490  208.9460  152.5640 C   0  0  1  0  0  3  0  0  0  0  0  0
  160.9050  207.5160  153.0550 C   0  0  0  0  0  0  0  0  0  0  0  0
  160.9550  210.0170  153.6550 C   0  0  1  0  0  3  0  0  0  0  0  0
  162.3880  209.4220  150.6060 C   0  0  0  0  0  0  0  0  0  0  0  0
  160.7160  208.2710  155.4360 C   0  0  0  0  0  2  0  0  0  0  0  0
  162.0380  209.1240  149.2500 N   0  0  0  0  0  2  0  0  0  0  0  0
  160.9420  206.3510  152.1060 C   0  0  0  0  0  2  0  0  0  0  0  0
  161.5190  206.7800  149.7660 C   0  0  2  0  0  3  0  0  0  0  0  0
  160.7890  207.2250  154.3610 C   0  0  0  0  0  3  0  0  0  0  0  0
  159.5480  210.5240  153.6980 C   0  0  0  0  0  0  0  0  0  0  0  0
  158.8950  210.7090  154.9110 O   0  0  0  0  0  1  0  0  0  0  0  0
  158.9590  210.8110  152.6240 O   0  0  0  0  0  0  0  0  0  0  0  0
  161.0540  204.3550  150.0590 C   0  0  0  0  0  2  0  0  0  0  0  0
  161.4820  202.2040  146.7210 C   0  0  2  0  0  3  0  0  0  0  0  0
  160.6150  202.2060  148.9270 C   0  0  0  0  0  3  0  0  0  0  0  0
  160.7760  201.5110  147.7420 O   0  0  0  0  0  0  0  0  0  0  0  0
  161.1350  203.4170  148.9050 C   0  0  0  0  0  0  0  0  0  0  0  0
  161.8790  203.8750  147.3510 S   0  0  0  0  0  0  0  0  0  0  0  0
  160.6470  202.3000  145.4840 C   0  0  0  0  0  0  0  0  0  0  0  0
  160.0350  201.2800  145.0630 O   0  0  0  0  0  0  0  0  0  0  0  0
  159.4210  203.9160  144.2590 O   0  0  0  0  0  0  0  0  0  0  0  0
  160.5210  203.5810  144.7730 C   0  0  0  0  0  0  0  0  0  0  0  0
  161.3650  205.5690  143.8230 O   0  0  0  0  0  1  0  0  0  0  0  0
  161.6790  204.5140  144.6800 C   0  0  0  0  0  2  0  0  0  0  0  0
  1 13  1  1  0  0  0
  2 10  1  6  0  0  0
  2  7  1  0  0  0  0
  3 12  1  0  0  0  0
  4  2  1  0  0  0  0
  5 11  1  0  0  0  0
  6 14  1  0  0  0  0
  6 19  1  1  0  0  0
  6  1  1  0  0  0  0
  7  8  1  1  0  0  0
  7  9  1  0  0  0  0
  8 15  2  0  0  0  0
  9 16  1  1  0  0  0
  9  5  1  0  0  0  0
 10  4  2  0  0  0  0
 12 10  1  0  0  0  0
 13  8  1  0  0  0  0
 14  3  1  6  0  0  0
 14  1  1  0  0  0  0
 15 11  1  0  0  0  0
 16 17  1  0  0  0  0
 18 16  2  0  0  0  0
 20 25  1  6  0  0  0
 20 24  1  0  0  0  0
 20 22  1  0  0  0  0
 22 21  1  0  0  0  0
 23 21  2  0  0  0  0
 23 19  1  0  0  0  0
 24 23  1  0  0  0  0
 26 25  2  0  0  0  0
 27 28  2  0  0  0  0
 28 25  1  0  0  0  0
 29 30  1  0  0  0  0
 30 28  1  0  0  0  0
M  END
>  <MODEL>
3

>  <REMARK>
 VINA RESULT:      -7.1      2.266      3.510
  Name = 
  6 active torsions:
  status: ('A' for Active; 'I' for Inactive)
    1  A    between atoms: C_1  and  C_21
    2  A    between atoms: C_2  and  C_8
    3  A    between atoms: C_8  and  C_28
    4  A    between atoms: C_9  and  C_16
    5  A    between atoms: C_9  and  C_17
    6  A    between atoms: C_18  and  C_28
                            x       y       z     vdW  Elec       q    Type
                         _______ _______ _______ _____ _____    ______ ____

>  <TORSDO>
F 6

$$$$
=
 OpenBabel11072411043D

 30 34  0  0  1  0  0  0  0  0999 V2000
  160.5350  204.4700  149.6640 C   0  0  1  0  0  3  0  0  0  0  0  0
  161.8280  202.2420  147.4710 C   0  0  1  0  0  3  0  0  0  0  0  0
  159.6920  202.2650  150.2350 C   0  0  0  0  0  2  0  0  0  0  0  0
  161.3620  201.1220  146.8400 N   0  0  0  0  0  0  0  0  0  0  0  0
  162.4690  204.1500  144.8140 C   0  0  0  0  0  2  0  0  0  0  0  0
  160.4330  204.4690  151.1930 C   0  0  1  0  0  3  0  0  0  0  0  0
  161.1850  203.5230  146.9250 C   0  0  1  0  0  3  0  0  0  0  0  0
  161.8420  204.7540  147.5570 C   0  0  0  0  0  0  0  0  0  0  0  0
  161.1870  203.5430  145.3830 C   0  0  1  0  0  3  0  0  0  0  0  0
  160.8770  201.4990  148.1090 C   0  0  0  0  0  0  0  0  0  0  0  0
  162.6590  205.5690  145.3340 C   0  0  0  0  0  2  0  0  0  0  0  0
  160.0170  201.2580  149.2280 N   0  0  0  0  0  2  0  0  0  0  0  0
  161.8370  204.9590  149.0460 C   0  0  0  0  0  2  0  0  0  0  0  0
  160.8520  203.2160  150.4520 C   0  0  2  0  0  3  0  0  0  0  0  0
  162.5660  205.6220  146.8310 C   0  0  0  0  0  3  0  0  0  0  0  0
  159.9560  204.1910  144.8310 C   0  0  0  0  0  0  0  0  0  0  0  0
  159.6980  205.5370  145.0580 O   0  0  0  0  0  1  0  0  0  0  0  0
  159.1590  203.5140  144.1310 O   0  0  0  0  0  0  0  0  0  0  0  0
  161.6410  205.0800  151.8970 C   0  0  0  0  0  2  0  0  0  0  0  0
  160.7410  208.7970  153.0510 C   0  0  2  0  0  3  0  0  0  0  0  0
  161.1080  206.5730  153.7890 C   0  0  0  0  0  3  0  0  0  0  0  0
  160.8160  207.8800  154.1360 O   0  0  0  0  0  0  0  0  0  0  0  0
  161.2880  206.3970  152.4950 C   0  0  0  0  0  0  0  0  0  0  0  0
  161.1500  207.8840  151.5190 S   0  0  0  0  0  0  0  0  0  0  0  0
  161.7010  209.9250  153.2560 C   0  0  0  0  0  0  0  0  0  0  0  0
  162.5520  210.1910  152.3640 O   0  0  0  0  0  0  0  0  0  0  0  0
  162.6030  210.7330  155.2930 O   0  0  0  0  0  0  0  0  0  0  0  0
  161.6390  210.7360  154.4820 C   0  0  0  0  0  0  0  0  0  0  0  0
  160.0710  212.2620  153.5990 O   0  0  0  0  0  1  0  0  0  0  0  0
  160.4550  211.5970  154.7630 C   0  0  0  0  0  2  0  0  0  0  0  0
  1 13  1  1  0  0  0
  1 14  1  0  0  0  0
  1  6  1  0  0  0  0
  2  4  1  6  0  0  0
  2 10  1  0  0  0  0
  4 10  2  0  0  0  0
  5 11  1  0  0  0  0
  5  9  1  0  0  0  0
  6 19  1  1  0  0  0
  7  2  1  0  0  0  0
  7  8  1  1  0  0  0
  8 13  1  0  0  0  0
  9 16  1  1  0  0  0
  9  7  1  0  0  0  0
 10 12  1  0  0  0  0
 11 15  1  0  0  0  0
 12  3  1  0  0  0  0
 14  3  1  6  0  0  0
 14  6  1  0  0  0  0
 15  8  2  0  0  0  0
 16 17  1  0  0  0  0
 18 16  2  0  0  0  0
 19 23  1  0  0  0  0
 20 25  1  1  0  0  0
 20 22  1  0  0  0  0
 21 22  1  0  0  0  0
 23 21  2  0  0  0  0
 24 23  1  0  0  0  0
 24 20  1  0  0  0  0
 25 28  1  0  0  0  0
 26 25  2  0  0  0  0
 28 30  1  0  0  0  0
 28 27  2  0  0  0  0
 29 30  1  0  0  0  0
M  END
>  <MODEL>
4

>  <REMARK>
 VINA RESULT:      -7.0      2.866      9.531
  Name = 
  6 active torsions:
  status: ('A' for Active; 'I' for Inactive)
    1  A    between atoms: C_1  and  C_21
    2  A    between atoms: C_2  and  C_8
    3  A    between atoms: C_8  and  C_28
    4  A    between atoms: C_9  and  C_16
    5  A    between atoms: C_9  and  C_17
    6  A    between atoms: C_18  and  C_28
                            x       y       z     vdW  Elec       q    Type
                         _______ _______ _______ _____ _____    ______ ____

>  <TORSDO>
F 6

$$$$
=
 OpenBabel11072411043D

 30 34  0  0  1  0  0  0  0  0999 V2000
  162.2540  205.9920  150.5990 C   0  0  1  0  0  3  0  0  0  0  0  0
  160.4830  206.3730  147.7420 C   0  0  1  0  0  3  0  0  0  0  0  0
  162.1410  208.3630  150.0850 C   0  0  0  0  0  2  0  0  0  0  0  0
  160.5650  207.1960  146.6540 N   0  0  0  0  0  0  0  0  0  0  0  0
  160.9100  203.4260  146.2430 C   0  0  0  0  0  2  0  0  0  0  0  0
  162.1720  206.6890  151.9610 C   0  0  1  0  0  3  0  0  0  0  0  0
  161.6150  205.3390  147.7730 C   0  0  1  0  0  3  0  0  0  0  0  0
  161.3980  204.3520  148.9230 C   0  0  0  0  0  0  0  0  0  0  0  0
  161.7980  204.6600  146.4010 C   0  0  1  0  0  3  0  0  0  0  0  0
  161.0080  207.6200  147.9240 C   0  0  0  0  0  0  0  0  0  0  0  0
  161.2050  202.4170  147.3440 C   0  0  0  0  0  2  0  0  0  0  0  0
  161.5810  208.6290  148.7630 N   0  0  0  0  0  2  0  0  0  0  0  0
  161.3080  204.8250  150.3470 C   0  0  0  0  0  2  0  0  0  0  0  0
  161.4030  207.2330  150.7750 C   0  0  2  0  0  3  0  0  0  0  0  0
  161.1390  203.0530  148.7030 C   0  0  0  0  0  3  0  0  0  0  0  0
  163.2360  204.3680  146.1080 C   0  0  0  0  0  0  0  0  0  0  0  0
  163.6090  203.7590  144.9150 O   0  0  0  0  0  0  0  0  0  0  0  0
  164.1190  204.7010  146.9390 O   0  0  0  0  0  1  0  0  0  0  0  0
  161.2070  206.0260  152.9410 C   0  0  0  0  0  2  0  0  0  0  0  0
  160.3530  208.9220  155.5570 C   0  0  2  0  0  3  0  0  0  0  0  0
  160.3940  206.5780  155.2060 C   0  0  0  0  0  3  0  0  0  0  0  0
  160.1300  207.6190  156.0780 O   0  0  0  0  0  0  0  0  0  0  0  0
  160.8310  206.9740  154.0270 C   0  0  0  0  0  0  0  0  0  0  0  0
  161.0110  208.7400  153.8590 S   0  0  0  0  0  0  0  0  0  0  0  0
  161.3270  209.6660  156.4150 C   0  0  0  0  0  0  0  0  0  0  0  0
  162.3310  209.0650  156.8850 O   0  0  0  0  0  0  0  0  0  0  0  0
  162.0340  211.7660  157.2550 O   0  0  0  0  0  0  0  0  0  0  0  0
  161.1280  211.0970  156.6920 C   0  0  0  0  0  0  0  0  0  0  0  0
  160.0820  212.4800  155.0910 O   0  0  0  0  0  1  0  0  0  0  0  0
  159.8690  211.7810  156.2800 C   0  0  0  0  0  2  0  0  0  0  0  0
  1 13  1  1  0  0  0
  1 14  1  0  0  0  0
  1  6  1  0  0  0  0
  2  4  1  6  0  0  0
  2  7  1  0  0  0  0
  2 10  1  0  0  0  0
  4 10  2  0  0  0  0
  5  9  1  0  0  0  0
  5 11  1  0  0  0  0
  6 19  1  1  0  0  0
  7  8  1  1  0  0  0
  8 13  1  0  0  0  0
  9 16  1  1  0  0  0
  9  7  1  0  0  0  0
 10 12  1  0  0  0  0
 11 15  1  0  0  0  0
 12  3  1  0  0  0  0
 14  3  1  6  0  0  0
 14  6  1  0  0  0  0
 15  8  2  0  0  0  0
 16 18  1  0  0  0  0
 17 16  2  0  0  0  0
 19 23  1  0  0  0  0
 20 22  1  0  0  0  0
 20 25  1  1  0  0  0
 21 22  1  0  0  0  0
 23 21  2  0  0  0  0
 24 23  1  0  0  0  0
 24 20  1  0  0  0  0
 25 28  1  0  0  0  0
 25 26  2  0  0  0  0
 28 27  2  0  0  0  0
 29 30  1  0  0  0  0
 30 28  1  0  0  0  0
M  END
>  <MODEL>
5

>  <REMARK>
 VINA RESULT:      -6.7      2.933      9.740
  Name = 
  6 active torsions:
  status: ('A' for Active; 'I' for Inactive)
    1  A    between atoms: C_1  and  C_21
    2  A    between atoms: C_2  and  C_8
    3  A    between atoms: C_8  and  C_28
    4  A    between atoms: C_9  and  C_16
    5  A    between atoms: C_9  and  C_17
    6  A    between atoms: C_18  and  C_28
                            x       y       z     vdW  Elec       q    Type
                         _______ _______ _______ _____ _____    ______ ____

>  <TORSDO>
F 6

$$$$
=
 OpenBabel11072411043D

 30 34  0  0  1  0  0  0  0  0999 V2000
  160.4740  206.9590  151.5330 C   0  0  1  0  0  3  0  0  0  0  0  0
  162.4870  209.6500  151.9210 C   0  0  1  0  0  3  0  0  0  0  0  0
  161.1670  207.7140  149.3310 C   0  0  0  0  0  2  0  0  0  0  0  0
  162.6750  210.8240  151.2460 N   0  0  0  0  0  0  0  0  0  0  0  0
  161.5040  210.8540  154.8690 C   0  0  0  0  0  2  0  0  0  0  0  0
  160.6160  205.6790  150.7020 C   0  0  1  0  0  3  0  0  0  0  0  0
  161.1480  209.6190  152.6680 C   0  0  1  0  0  3  0  0  0  0  0  0
  161.0490  208.3530  153.5220 C   0  0  0  0  0  0  0  0  0  0  0  0
  160.9140  210.9210  153.4600 C   0  0  1  0  0  3  0  0  0  0  0  0
  162.2520  209.6580  150.5760 C   0  0  0  0  0  0  0  0  0  0  0  0
  160.9050  209.6840  155.6390 C   0  0  0  0  0  2  0  0  0  0  0  0
  161.8660  208.9950  149.3670 N   0  0  0  0  0  2  0  0  0  0  0  0
  161.1420  206.9870  152.9010 C   0  0  0  0  0  2  0  0  0  0  0  0
  161.5730  206.8350  150.4970 C   0  0  2  0  0  3  0  0  0  0  0  0
  161.0180  208.4030  154.8640 C   0  0  0  0  0  3  0  0  0  0  0  0
  159.4720  211.3220  153.4650 C   0  0  0  0  0  0  0  0  0  0  0  0
  158.9150  211.9580  154.5680 O   0  0  0  0  0  1  0  0  0  0  0  0
  158.7630  211.1030  152.4490 O   0  0  0  0  0  0  0  0  0  0  0  0
  161.3290  204.5420  151.4280 C   0  0  0  0  0  2  0  0  0  0  0  0
  161.5120  201.5820  148.7510 C   0  0  2  0  0  3  0  0  0  0  0  0
  161.2280  202.1050  151.0460 C   0  0  0  0  0  3  0  0  0  0  0  0
  161.2830  201.1210  150.0760 O   0  0  0  0  0  0  0  0  0  0  0  0
  161.3820  203.3250  150.5710 C   0  0  0  0  0  0  0  0  0  0  0  0
  161.5830  203.4100  148.8010 S   0  0  0  0  0  0  0  0  0  0  0  0
  160.4120  201.1290  147.8450 C   0  0  0  0  0  0  0  0  0  0  0  0
  159.2170  201.1640  148.2470 O   0  0  0  0  0  0  0  0  0  0  0  0
  161.3590  199.5970  146.3060 O   0  0  0  0  0  0  0  0  0  0  0  0
  160.7180  200.6660  146.4830 C   0  0  0  0  0  0  0  0  0  0  0  0
  160.8550  202.6890  145.2760 O   0  0  0  0  0  1  0  0  0  0  0  0
  160.2450  201.4340  145.2960 C   0  0  0  0  0  2  0  0  0  0  0  0
  1 13  1  1  0  0  0
  2 10  1  6  0  0  0
  2  7  1  0  0  0  0
  3 12  1  0  0  0  0
  4  2  1  0  0  0  0
  5 11  1  0  0  0  0
  6 19  1  1  0  0  0
  6  1  1  0  0  0  0
  7  9  1  0  0  0  0
  7  8  1  1  0  0  0
  8 15  2  0  0  0  0
  9 16  1  1  0  0  0
  9  5  1  0  0  0  0
 10  4  2  0  0  0  0
 12 10  1  0  0  0  0
 13  8  1  0  0  0  0
 14  3  1  6  0  0  0
 14  6  1  0  0  0  0
 14  1  1  0  0  0  0
 15 11  1  0  0  0  0
 16 17  1  0  0  0  0
 18 16  2  0  0  0  0
 20 25  1  6  0  0  0
 20 24  1  0  0  0  0
 20 22  1  0  0  0  0
 22 21  1  0  0  0  0
 23 21  2  0  0  0  0
 23 19  1  0  0  0  0
 24 23  1  0  0  0  0
 25 26  2  0  0  0  0
 27 28  2  0  0  0  0
 28 25  1  0  0  0  0
 29 30  1  0  0  0  0
 30 28  1  0  0  0  0
M  END
>  <MODEL>
6

>  <REMARK>
 VINA RESULT:      -6.4      2.748      3.728
  Name = 
  6 active torsions:
  status: ('A' for Active; 'I' for Inactive)
    1  A    between atoms: C_1  and  C_21
    2  A    between atoms: C_2  and  C_8
    3  A    between atoms: C_8  and  C_28
    4  A    between atoms: C_9  and  C_16
    5  A    between atoms: C_9  and  C_17
    6  A    between atoms: C_18  and  C_28
                            x       y       z     vdW  Elec       q    Type
                         _______ _______ _______ _____ _____    ______ ____

>  <TORSDO>
F 6

$$$$
=
 OpenBabel11072411043D

 30 34  0  0  1  0  0  0  0  0999 V2000
  160.7730  207.5320  152.3060 C   0  0  1  0  0  3  0  0  0  0  0  0
  162.4750  209.5930  154.3800 C   0  0  1  0  0  3  0  0  0  0  0  0
  161.8590  209.2360  150.9600 C   0  0  0  0  0  2  0  0  0  0  0  0
  162.7210  210.9370  154.4220 N   0  0  0  0  0  0  0  0  0  0  0  0
  160.8170  209.2410  157.2500 C   0  0  0  0  0  2  0  0  0  0  0  0
  161.1710  206.8180  151.0100 C   0  0  1  0  0  3  0  0  0  0  0  0
  161.0140  209.2610  154.7090 C   0  0  1  0  0  3  0  0  0  0  0  0
  160.8230  207.7450  154.7930 C   0  0  0  0  0  0  0  0  0  0  0  0
  160.5330  210.0160  155.9640 C   0  0  1  0  0  3  0  0  0  0  0  0
  162.5270  210.2690  153.1950 C   0  0  0  0  0  0  0  0  0  0  0  0
  160.1500  207.8730  157.2020 C   0  0  0  0  0  2  0  0  0  0  0  0
  162.4490  210.3020  151.7660 N   0  0  0  0  0  2  0  0  0  0  0  0
  161.1350  206.8550  153.6220 C   0  0  0  0  0  2  0  0  0  0  0  0
  162.0700  207.8810  151.6060 C   0  0  2  0  0  3  0  0  0  0  0  0
  160.5080  207.1320  155.9460 C   0  0  0  0  0  3  0  0  0  0  0  0
  159.0990  210.4290  155.8530 C   0  0  0  0  0  0  0  0  0  0  0  0
  158.3620  210.1410  154.7090 O   0  0  0  0  0  0  0  0  0  0  0  0
  158.5460  211.0210  156.8150 O   0  0  0  0  0  1  0  0  0  0  0  0
  161.7900  205.4400  151.2240 C   0  0  0  0  0  2  0  0  0  0  0  0
  160.3740  202.5680  148.8360 C   0  0  2  0  0  3  0  0  0  0  0  0
  161.3990  204.7050  148.9000 C   0  0  0  0  0  3  0  0  0  0  0  0
  160.9100  203.6730  148.1190 O   0  0  0  0  0  0  0  0  0  0  0  0
  161.3010  204.4800  150.1950 C   0  0  0  0  0  0  0  0  0  0  0  0
  160.6020  202.8960  150.6210 S   0  0  0  0  0  0  0  0  0  0  0  0
  161.0750  201.3050  148.4450 C   0  0  0  0  0  0  0  0  0  0  0  0
  161.6460  200.6090  149.3290 O   0  0  0  0  0  0  0  0  0  0  0  0
  161.5640  199.7450  146.7310 O   0  0  0  0  0  0  0  0  0  0  0  0
  161.0800  200.8650  147.0420 C   0  0  0  0  0  0  0  0  0  0  0  0
  160.2040  200.9420  144.8520 O   0  0  0  0  0  1  0  0  0  0  0  0
  160.4830  201.7190  145.9770 C   0  0  0  0  0  2  0  0  0  0  0  0
  1 13  1  1  0  0  0
  2 10  1  6  0  0  0
  2  4  1  0  0  0  0
  2  7  1  0  0  0  0
  3 12  1  0  0  0  0
  6 19  1  1  0  0  0
  6 14  1  0  0  0  0
  6  1  1  0  0  0  0
  7  8  1  1  0  0  0
  7  9  1  0  0  0  0
  8 15  2  0  0  0  0
  9 16  1  6  0  0  0
  9  5  1  0  0  0  0
 10  4  2  0  0  0  0
 11  5  1  0  0  0  0
 12 10  1  0  0  0  0
 13  8  1  0  0  0  0
 14  3  1  6  0  0  0
 14  1  1  0  0  0  0
 15 11  1  0  0  0  0
 16 18  1  0  0  0  0
 17 16  2  0  0  0  0
 20 25  1  6  0  0  0
 20 24  1  0  0  0  0
 21 23  2  0  0  0  0
 22 20  1  0  0  0  0
 22 21  1  0  0  0  0
 23 24  1  0  0  0  0
 23 19  1  0  0  0  0
 25 26  2  0  0  0  0
 27 28  2  0  0  0  0
 28 25  1  0  0  0  0
 29 30  1  0  0  0  0
 30 28  1  0  0  0  0
M  END
>  <MODEL>
7

>  <REMARK>
 VINA RESULT:      -6.3      2.506      3.575
  Name = 
  6 active torsions:
  status: ('A' for Active; 'I' for Inactive)
    1  A    between atoms: C_1  and  C_21
    2  A    between atoms: C_2  and  C_8
    3  A    between atoms: C_8  and  C_28
    4  A    between atoms: C_9  and  C_16
    5  A    between atoms: C_9  and  C_17
    6  A    between atoms: C_18  and  C_28
                            x       y       z     vdW  Elec       q    Type
                         _______ _______ _______ _____ _____    ______ ____

>  <TORSDO>
F 6

$$$$
=
 OpenBabel11072411043D

 30 34  0  0  1  0  0  0  0  0999 V2000
  160.8330  205.6840  149.5180 C   0  0  1  0  0  3  0  0  0  0  0  0
  161.7990  202.8660  147.9140 C   0  0  1  0  0  3  0  0  0  0  0  0
  159.8790  203.7800  150.6860 C   0  0  0  0  0  2  0  0  0  0  0  0
  161.2100  201.6680  147.6220 N   0  0  0  0  0  0  0  0  0  0  0  0
  162.3780  203.9700  144.8230 C   0  0  0  0  0  2  0  0  0  0  0  0
  160.8440  206.0810  150.9980 C   0  0  1  0  0  3  0  0  0  0  0  0
  161.2110  204.0170  147.0890 C   0  0  1  0  0  3  0  0  0  0  0  0
  161.9990  205.3050  147.3440 C   0  0  0  0  0  0  0  0  0  0  0  0
  161.1010  203.6430  145.5970 C   0  0  1  0  0  3  0  0  0  0  0  0
  160.8470  202.3970  148.7730 C   0  0  0  0  0  0  0  0  0  0  0  0
  162.7070  205.4520  144.9450 C   0  0  0  0  0  2  0  0  0  0  0  0
  160.0570  202.5250  149.9600 N   0  0  0  0  0  2  0  0  0  0  0  0
  162.1180  205.8830  148.7260 C   0  0  0  0  0  2  0  0  0  0  0  0
  161.1170  204.6490  150.5880 C   0  0  2  0  0  3  0  0  0  0  0  0
  162.7280  205.8930  146.3810 C   0  0  0  0  0  3  0  0  0  0  0  0
  159.8830  204.2340  144.9610 C   0  0  0  0  0  0  0  0  0  0  0  0
  159.5160  205.5510  145.2120 O   0  0  0  0  0  1  0  0  0  0  0  0
  159.1960  203.5380  144.1690 O   0  0  0  0  0  0  0  0  0  0  0  0
  162.1410  206.7430  151.4540 C   0  0  0  0  0  2  0  0  0  0  0  0
  161.2630  210.2080  153.2380 C   0  0  2  0  0  3  0  0  0  0  0  0
  162.0620  209.2020  151.2450 C   0  0  0  0  0  3  0  0  0  0  0  0
  161.7260  210.3710  151.9040 O   0  0  0  0  0  0  0  0  0  0  0  0
  161.8760  208.1160  151.9680 C   0  0  0  0  0  0  0  0  0  0  0  0
  161.2070  208.4140  153.5940 S   0  0  0  0  0  0  0  0  0  0  0  0
  159.9040  210.8130  153.3940 C   0  0  0  0  0  0  0  0  0  0  0  0
  159.1120  210.8320  152.4120 O   0  0  0  0  0  0  0  0  0  0  0  0
  159.9990  212.4250  155.1280 O   0  0  0  0  0  0  0  0  0  0  0  0
  159.4830  211.3620  154.6920 C   0  0  0  0  0  0  0  0  0  0  0  0
  157.1990  211.3360  155.2830 O   0  0  0  0  0  1  0  0  0  0  0  0
  158.4180  210.6910  155.4900 C   0  0  0  0  0  2  0  0  0  0  0  0
  1 13  1  6  0  0  0
  1 14  1  0  0  0  0
  1  6  1  0  0  0  0
  2  4  1  6  0  0  0
  2 10  1  0  0  0  0
  4 10  2  0  0  0  0
  5 11  1  0  0  0  0
  5  9  1  0  0  0  0
  6 19  1  6  0  0  0
  7  8  1  6  0  0  0
  7  2  1  0  0  0  0
  8 13  1  0  0  0  0
  9 16  1  6  0  0  0
  9  7  1  0  0  0  0
 10 12  1  0  0  0  0
 11 15  1  0  0  0  0
 12  3  1  0  0  0  0
 14  3  1  1  0  0  0
 14  6  1  0  0  0  0
 15  8  2  0  0  0  0
 16 17  1  0  0  0  0
 18 16  2  0  0  0  0
 19 23  1  0  0  0  0
 20 25  1  6  0  0  0
 20 24  1  0  0  0  0
 21 22  1  0  0  0  0
 21 23  2  0  0  0  0
 22 20  1  0  0  0  0
 23 24  1  0  0  0  0
 25 28  1  0  0  0  0
 26 25  2  0  0  0  0
 28 27  2  0  0  0  0
 28 30  1  0  0  0  0
 29 30  1  0  0  0  0
M  END
>  <MODEL>
8

>  <REMARK>
 VINA RESULT:      -5.9      2.945      9.516
  Name = 
  6 active torsions:
  status: ('A' for Active; 'I' for Inactive)
    1  A    between atoms: C_1  and  C_21
    2  A    between atoms: C_2  and  C_8
    3  A    between atoms: C_8  and  C_28
    4  A    between atoms: C_9  and  C_16
    5  A    between atoms: C_9  and  C_17
    6  A    between atoms: C_18  and  C_28
                            x       y       z     vdW  Elec       q    Type
                         _______ _______ _______ _____ _____    ______ ____

>  <TORSDO>
F 6

$$$$
=
 OpenBabel11072411043D

 30 34  0  0  1  0  0  0  0  0999 V2000
  162.0760  210.2020  151.2700 C   0  0  1  0  0  3  0  0  0  0  0  0
  160.4580  208.0450  153.3140 C   0  0  1  0  0  3  0  0  0  0  0  0
  162.7530  207.9450  150.6820 C   0  0  0  0  0  2  0  0  0  0  0  0
  160.7830  206.8720  153.9350 N   0  0  0  0  0  0  0  0  0  0  0  0
  159.8280  209.9350  155.9860 C   0  0  0  0  0  2  0  0  0  0  0  0
  162.2710  210.2310  149.7510 C   0  0  1  0  0  3  0  0  0  0  0  0
  161.1780  209.2480  153.9360 C   0  0  1  0  0  3  0  0  0  0  0  0
  160.6730  210.5490  153.3050 C   0  0  0  0  0  0  0  0  0  0  0  0
  161.0830  209.2290  155.4740 C   0  0  1  0  0  3  0  0  0  0  0  0
  161.3770  207.2360  152.7090 C   0  0  0  0  0  0  0  0  0  0  0  0
  159.7970  211.3780  155.5010 C   0  0  0  0  0  2  0  0  0  0  0  0
  162.2790  206.9460  151.6350 N   0  0  0  0  0  2  0  0  0  0  0  0
  160.7870  210.7920  151.8260 C   0  0  0  0  0  2  0  0  0  0  0  0
  161.6980  209.0030  150.4260 C   0  0  2  0  0  3  0  0  0  0  0  0
  159.9850  211.4600  154.0140 C   0  0  0  0  0  3  0  0  0  0  0  0
  162.3300  209.7470  156.1180 C   0  0  0  0  0  0  0  0  0  0  0  0
  163.1170  210.6990  155.4810 O   0  0  0  0  0  0  0  0  0  0  0  0
  162.6570  209.3340  157.2610 O   0  0  0  0  0  1  0  0  0  0  0  0
  161.1670  210.9670  148.9970 C   0  0  0  0  0  2  0  0  0  0  0  0
  162.2840  213.6130  146.2200 C   0  0  2  0  0  3  0  0  0  0  0  0
  163.0410  212.2050  147.9700 C   0  0  0  0  0  3  0  0  0  0  0  0
  163.3750  213.1130  146.9820 O   0  0  0  0  0  0  0  0  0  0  0  0
  161.7510  211.9380  148.0300 C   0  0  0  0  0  0  0  0  0  0  0  0
  160.7640  212.7780  146.8050 S   0  0  0  0  0  0  0  0  0  0  0  0
  162.4980  213.3430  144.7640 C   0  0  0  0  0  0  0  0  0  0  0  0
  163.6490  213.0350  144.3490 O   0  0  0  0  0  0  0  0  0  0  0  0
  160.4280  214.2270  144.0240 O   0  0  0  0  0  0  0  0  0  0  0  0
  161.3700  213.4150  143.8240 C   0  0  0  0  0  0  0  0  0  0  0  0
  160.3160  211.6160  142.7190 O   0  0  0  0  0  1  0  0  0  0  0  0
  161.3410  212.5550  142.6060 C   0  0  0  0  0  2  0  0  0  0  0  0
  1 13  1  6  0  0  0
  2 10  1  6  0  0  0
  2  4  1  0  0  0  0
  2  7  1  0  0  0  0
  3 12  1  0  0  0  0
  6 19  1  6  0  0  0
  6 14  1  0  0  0  0
  6  1  1  0  0  0  0
  7  8  1  6  0  0  0
  7  9  1  0  0  0  0
  8 15  2  0  0  0  0
  9  5  1  0  0  0  0
  9 16  1  1  0  0  0
 10  4  2  0  0  0  0
 11  5  1  0  0  0  0
 12 10  1  0  0  0  0
 13  8  1  0  0  0  0
 14  3  1  1  0  0  0
 14  1  1  0  0  0  0
 15 11  1  0  0  0  0
 16 18  1  0  0  0  0
 17 16  2  0  0  0  0
 20 25  1  6  0  0  0
 20 24  1  0  0  0  0
 20 22  1  0  0  0  0
 21 23  2  0  0  0  0
 22 21  1  0  0  0  0
 23 19  1  0  0  0  0
 24 23  1  0  0  0  0
 26 25  2  0  0  0  0
 28 27  2  0  0  0  0
 28 25  1  0  0  0  0
 30 29  1  0  0  0  0
 30 28  1  0  0  0  0
M  END
>  <MODEL>
9

>  <REMARK>
 VINA RESULT:      -5.4      4.662      5.749
  Name = 
  6 active torsions:
  status: ('A' for Active; 'I' for Inactive)
    1  A    between atoms: C_1  and  C_21
    2  A    between atoms: C_2  and  C_8
    3  A    between atoms: C_8  and  C_28
    4  A    between atoms: C_9  and  C_16
    5  A    between atoms: C_9  and  C_17
    6  A    between atoms: C_18  and  C_28
                            x       y       z     vdW  Elec       q    Type
                         _______ _______ _______ _____ _____    ______ ____

>  <TORSDO>
F 6

$$$$
