=
 OpenBabel11072412243D

 27 30  0  0  1  0  0  0  0  0999 V2000
  161.4550  209.6360  154.7830 C   0  0  2  0  0  3  0  0  0  0  0  0
  161.4970  208.8930  151.6200 C   0  0  0  0  0  0  0  0  0  0  0  0
  161.4600  211.1330  150.4910 C   0  0  1  0  0  3  0  0  0  0  0  0
  161.2430  208.0630  152.5820 C   0  0  0  0  0  0  0  0  0  0  0  0
  159.6650  212.1740  152.4700 N   0  0  0  0  0  0  0  0  0  0  0  0
  157.6040  212.7910  153.6060 C   0  0  0  0  0  2  0  0  0  0  0  0
  161.1100  208.1540  154.9920 C   0  0  0  0  0  2  0  0  0  0  0  0
  160.7770  210.2290  151.5440 C   0  0  2  0  0  3  0  0  0  0  0  0
  161.7770  210.3540  149.2460 C   0  0  0  0  0  3  0  0  0  0  0  0
  162.2750  209.1680  149.3350 N   0  0  0  0  0  0  0  0  0  0  0  0
  158.1150  211.1240  155.4650 C   0  0  0  0  0  0  0  0  0  0  0  0
  162.1010  210.2260  156.0310 C   0  0  0  0  0  1  0  0  0  0  0  0
  160.2490  210.4110  154.1960 C   0  0  1  0  0  3  0  0  0  0  0  0
  157.0640  211.9050  154.7170 C   0  0  0  0  0  2  0  0  0  0  0  0
  159.8760  214.2570  151.4350 O   0  0  0  0  0  0  0  0  0  0  0  0
  161.0080  207.4130  153.6880 C   0  0  0  0  0  0  0  0  0  0  0  0
  162.5660  208.5560  150.6190 C   0  0  0  0  0  2  0  0  0  0  0  0
  160.6460  212.3850  150.1540 C   0  0  0  0  0  2  0  0  0  0  0  0
  157.7420  210.2860  156.2670 O   0  0  0  0  0  0  0  0  0  0  0  0
  159.5960  211.3090  155.2730 C   0  0  1  0  0  3  0  0  0  0  0  0
  160.1100  212.7400  155.3940 C   0  0  0  0  0  1  0  0  0  0  0  0
  160.0880  213.0170  151.3940 C   0  0  0  0  0  0  0  0  0  0  0  0
  160.5940  211.0960  152.8290 C   0  0  2  0  0  3  0  0  0  0  0  0
  158.2290  211.9300  152.5300 C   0  0  0  0  0  2  0  0  0  0  0  0
  160.7250  205.9490  153.6760 C   0  0  0  0  0  2  0  0  0  0  0  0
  160.8330  203.9460  152.2270 C   0  0  0  0  0  1  0  0  0  0  0  0
  161.4980  205.2630  152.5650 C   0  0  0  0  0  2  0  0  0  0  0  0
  1  7  1  0  0  0  0
  1 12  1  1  0  0  0
  2  4  2  0  0  0  0
  3  9  1  6  0  0  0
  3  8  1  0  0  0  0
  4 16  2  0  0  0  0
  5 24  1  0  0  0  0
  5 23  1  0  0  0  0
  6 14  1  0  0  0  0
  8  2  1  1  0  0  0
  8 23  1  0  0  0  0
  9 10  2  0  0  0  0
 10 17  1  0  0  0  0
 11 19  2  0  0  0  0
 13  1  1  0  0  0  0
 13 20  1  0  0  0  0
 14 11  1  0  0  0  0
 16  7  1  0  0  0  0
 17  2  1  0  0  0  0
 18  3  1  0  0  0  0
 18 22  1  0  0  0  0
 20 21  1  0  0  0  0
 20 11  1  0  0  0  0
 22 15  2  0  0  0  0
 22  5  1  0  0  0  0
 23 13  1  0  0  0  0
 24  6  1  0  0  0  0
 25 16  1  0  0  0  0
 26 27  1  0  0  0  0
 27 25  1  0  0  0  0
M  END
>  <MODEL>
1

>  <REMARK>
 VINA RESULT:      -5.4      0.000      0.000
  Name = 
  2 active torsions:
  status: ('A' for Active; 'I' for Inactive)
    1  A    between atoms: C_16  and  C_27
    2  A    between atoms: C_18  and  C_27
                            x       y       z     vdW  Elec       q    Type
                         _______ _______ _______ _____ _____    ______ ____

>  <TORSDO>
F 2

$$$$
=
 OpenBabel11072412243D

 27 30  0  0  1  0  0  0  0  0999 V2000
  159.0210  211.1190  152.7640 C   0  0  2  0  0  3  0  0  0  0  0  0
  161.2180  209.0910  151.4930 C   0  0  0  0  0  0  0  0  0  0  0  0
  161.1040  207.0850  152.9960 C   0  0  1  0  0  3  0  0  0  0  0  0
  161.1110  210.3510  151.2140 C   0  0  0  0  0  0  0  0  0  0  0  0
  160.7410  208.7520  155.3010 N   0  0  0  0  0  0  0  0  0  0  0  0
  161.2390  210.1050  157.2610 C   0  0  0  0  0  2  0  0  0  0  0  0
  159.6830  212.1830  151.8780 C   0  0  0  0  0  2  0  0  0  0  0  0
  161.2660  208.6230  152.9380 C   0  0  2  0  0  3  0  0  0  0  0  0
  161.9420  206.4220  151.9410 C   0  0  0  0  0  3  0  0  0  0  0  0
  161.9850  206.9100  150.7480 N   0  0  0  0  0  0  0  0  0  0  0  0
  160.3620  212.1790  156.0680 C   0  0  0  0  0  0  0  0  0  0  0  0
  157.5840  211.5040  153.0940 C   0  0  0  0  0  1  0  0  0  0  0  0
  159.9300  210.7460  153.9620 C   0  0  1  0  0  3  0  0  0  0  0  0
  161.2600  211.6210  157.1420 C   0  0  0  0  0  2  0  0  0  0  0  0
  160.4550  206.8020  156.5540 O   0  0  0  0  0  0  0  0  0  0  0  0
  160.8340  211.6200  151.0910 C   0  0  0  0  0  0  0  0  0  0  0  0
  161.2190  208.0860  150.3750 C   0  0  0  0  0  2  0  0  0  0  0  0
  161.4090  206.5000  154.3780 C   0  0  0  0  0  2  0  0  0  0  0  0
  160.4380  213.3690  155.8200 O   0  0  0  0  0  0  0  0  0  0  0  0
  159.3830  211.3540  155.2760 C   0  0  1  0  0  3  0  0  0  0  0  0
  158.4190  210.4990  156.0910 C   0  0  0  0  0  1  0  0  0  0  0  0
  160.7960  207.3320  155.4640 C   0  0  0  0  0  0  0  0  0  0  0  0
  160.2770  209.2190  153.9890 C   0  0  2  0  0  3  0  0  0  0  0  0
  161.7900  209.4910  155.9920 C   0  0  0  0  0  2  0  0  0  0  0  0
  161.5840  212.4830  150.1350 C   0  0  0  0  0  2  0  0  0  0  0  0
  162.8420  212.5600  148.0040 C   0  0  0  0  0  1  0  0  0  0  0  0
  161.9750  211.6970  148.8960 C   0  0  0  0  0  2  0  0  0  0  0  0
  1 12  1  1  0  0  0
  1 13  1  0  0  0  0
  3  9  1  6  0  0  0
  3 18  1  0  0  0  0
  4  2  2  0  0  0  0
  5 22  1  0  0  0  0
  5 24  1  0  0  0  0
  7  1  1  0  0  0  0
  8  2  1  6  0  0  0
  8  3  1  0  0  0  0
  8 23  1  0  0  0  0
 10  9  2  0  0  0  0
 11 14  1  0  0  0  0
 13 23  1  0  0  0  0
 13 20  1  0  0  0  0
 14  6  1  0  0  0  0
 16  4  2  0  0  0  0
 16  7  1  0  0  0  0
 17 10  1  0  0  0  0
 17  2  1  0  0  0  0
 18 22  1  0  0  0  0
 19 11  2  0  0  0  0
 20 11  1  0  0  0  0
 20 21  1  0  0  0  0
 22 15  2  0  0  0  0
 23  5  1  0  0  0  0
 24  6  1  0  0  0  0
 25 16  1  0  0  0  0
 26 27  1  0  0  0  0
 27 25  1  0  0  0  0
M  END
>  <MODEL>
2

>  <REMARK>
 VINA RESULT:      -4.4      1.900      5.091
  Name = 
  2 active torsions:
  status: ('A' for Active; 'I' for Inactive)
    1  A    between atoms: C_16  and  C_27
    2  A    between atoms: C_18  and  C_27
                            x       y       z     vdW  Elec       q    Type
                         _______ _______ _______ _____ _____    ______ ____

>  <TORSDO>
F 2

$$$$
=
 OpenBabel11072412243D

 27 30  0  0  1  0  0  0  0  0999 V2000
  162.7200  205.5570  147.9160 C   0  0  2  0  0  3  0  0  0  0  0  0
  161.1520  204.1330  150.3800 C   0  0  0  0  0  0  0  0  0  0  0  0
  161.3430  201.6860  149.8620 C   0  0  1  0  0  3  0  0  0  0  0  0
  161.0900  205.3920  150.0790 C   0  0  0  0  0  0  0  0  0  0  0  0
  161.0140  202.1870  147.0580 N   0  0  0  0  0  0  0  0  0  0  0  0
  159.9620  202.4930  144.8860 C   0  0  0  0  0  2  0  0  0  0  0  0
  162.0500  206.8480  148.4070 C   0  0  0  0  0  2  0  0  0  0  0  0
  160.9360  203.0740  149.3130 C   0  0  2  0  0  3  0  0  0  0  0  0
  160.8250  201.4930  151.2590 C   0  0  0  0  0  3  0  0  0  0  0  0
  160.9070  202.4530  152.1170 N   0  0  0  0  0  0  0  0  0  0  0  0
  160.6680  204.9420  144.8750 C   0  0  0  0  0  0  0  0  0  0  0  0
  163.9920  205.8660  147.1360 C   0  0  0  0  0  1  0  0  0  0  0  0
  161.6940  204.6240  147.2240 C   0  0  1  0  0  3  0  0  0  0  0  0
  159.7060  203.8990  144.3660 C   0  0  0  0  0  2  0  0  0  0  0  0
  161.4060  199.9130  146.6980 O   0  0  0  0  0  0  0  0  0  0  0  0
  161.1650  206.6020  149.5970 C   0  0  0  0  0  0  0  0  0  0  0  0
  161.5140  203.7280  151.7820 C   0  0  0  0  0  2  0  0  0  0  0  0
  160.9080  200.5300  148.9580 C   0  0  0  0  0  2  0  0  0  0  0  0
  160.4350  206.1100  144.6170 O   0  0  0  0  0  0  0  0  0  0  0  0
  161.8940  204.6300  145.6900 C   0  0  1  0  0  3  0  0  0  0  0  0
  162.8340  203.5810  145.1050 C   0  0  0  0  0  1  0  0  0  0  0  0
  161.1730  200.8420  147.5160 C   0  0  0  0  0  0  0  0  0  0  0  0
  161.6120  203.2200  147.9140 C   0  0  2  0  0  3  0  0  0  0  0  0
  159.7510  202.4620  146.3840 C   0  0  0  0  0  2  0  0  0  0  0  0
  160.4560  207.7380  150.2540 C   0  0  0  0  0  2  0  0  0  0  0  0
  160.8310  207.8550  152.6970 C   0  0  0  0  0  1  0  0  0  0  0  0
  161.3150  208.3440  151.3490 C   0  0  0  0  0  2  0  0  0  0  0  0
  1 12  1  6  0  0  0
  1  7  1  0  0  0  0
  2 17  1  0  0  0  0
  3 18  1  6  0  0  0
  3  9  1  0  0  0  0
  4  2  2  0  0  0  0
  5 22  1  0  0  0  0
  5 23  1  0  0  0  0
  6 24  1  0  0  0  0
  7 16  1  0  0  0  0
  8  3  1  0  0  0  0
  8  2  1  1  0  0  0
  9 10  2  0  0  0  0
 11 20  1  0  0  0  0
 13 23  1  0  0  0  0
 13  1  1  0  0  0  0
 14 11  1  0  0  0  0
 14  6  1  0  0  0  0
 15 22  2  0  0  0  0
 16  4  2  0  0  0  0
 16 25  1  0  0  0  0
 17 10  1  0  0  0  0
 19 11  2  0  0  0  0
 20 13  1  0  0  0  0
 21 20  1  0  0  0  0
 22 18  1  0  0  0  0
 23  8  1  0  0  0  0
 24  5  1  0  0  0  0
 25 27  1  0  0  0  0
 27 26  1  0  0  0  0
M  END
>  <MODEL>
3

>  <REMARK>
 VINA RESULT:      -2.9      5.880      9.833
  Name = 
  2 active torsions:
  status: ('A' for Active; 'I' for Inactive)
    1  A    between atoms: C_16  and  C_27
    2  A    between atoms: C_18  and  C_27
                            x       y       z     vdW  Elec       q    Type
                         _______ _______ _______ _____ _____    ______ ____

>  <TORSDO>
F 2

$$$$
