=
 OpenBabel11072415143D

 40 45  0  0  1  0  0  0  0  0999 V2000
  160.1620  212.5670  155.3430 N   0  0  0  0  0  2  0  0  0  0  0  0
  162.6380  209.8630  155.8860 C   0  0  0  0  0  2  0  0  0  0  0  0
  160.6740  208.8920  154.7680 C   0  0  2  0  0  3  0  0  0  0  0  0
  160.5500  210.3090  154.1820 C   0  0  0  0  0  2  0  0  0  0  0  0
  161.8680  211.0950  156.0290 N   0  0  0  0  0  0  0  0  0  0  0  0
  160.8740  211.3290  155.2320 C   0  0  0  0  0  0  0  0  0  0  0  0
  161.7370  208.7090  155.7780 N   0  0  0  0  0  2  0  0  0  0  0  0
  159.1530  213.4390  153.2530 C   0  0  0  0  0  3  0  0  0  0  0  0
  159.0250  212.9950  154.5760 C   0  0  0  0  0  0  0  0  0  0  0  0
  156.6310  213.3680  154.4380 C   0  0  0  0  0  0  0  0  0  0  0  0
  157.7560  212.9590  155.1630 C   0  0  0  0  0  3  0  0  0  0  0  0
  156.7720  213.8300  153.1240 C   0  0  0  0  0  3  0  0  0  0  0  0
  158.0360  213.8770  152.5280 C   0  0  0  0  0  0  0  0  0  0  0  0
  157.6310  213.2990  150.1690 N   0  0  2  0  0  0  0  0  0  0  0  0
  157.0720  213.1310  148.9130 C   0  0  0  0  0  2  0  0  0  0  0  0
  158.1780  214.3320  151.1100 C   0  0  2  0  0  3  0  0  0  0  0  0
  158.1020  213.5020  148.1460 C   0  0  0  0  0  2  0  0  0  0  0  0
  159.3530  213.9120  148.9720 C   0  0  0  0  0  2  0  0  0  0  0  0
  159.0490  213.5200  150.4350 C   0  0  2  0  0  3  0  0  0  0  0  0
  155.2880  213.3460  155.0800 C   0  0  0  0  0  2  0  0  0  0  0  0
  155.4270  213.3550  156.5890 C   0  0  0  0  0  1  0  0  0  0  0  0
  160.9450  205.9010  151.6880 C   0  0  0  0  0  0  0  0  0  0  0  0
  160.8430  207.2560  151.3430 C   0  0  0  0  0  3  0  0  0  0  0  0
  160.7760  207.8650  153.6880 C   0  0  0  0  0  0  0  0  0  0  0  0
  160.7660  208.2340  152.3370 C   0  0  0  0  0  3  0  0  0  0  0  0
  160.9510  205.5380  153.0430 C   0  0  0  0  0  3  0  0  0  0  0  0
  160.8690  206.5150  154.0370 C   0  0  0  0  0  3  0  0  0  0  0  0
  161.2320  205.1840  149.3260 C   0  0  0  0  0  0  0  0  0  0  0  0
  160.9530  202.8540  148.6560 C   0  0  0  0  0  0  0  0  0  0  0  0
  160.7220  203.4300  151.0100 C   0  0  1  0  0  3  0  0  0  0  0  0
  161.7470  202.9540  152.0250 C   0  0  0  0  0  1  0  0  0  0  0  0
  160.9330  201.8830  147.6200 N   0  0  0  0  0  1  0  0  0  0  0  0
  161.2290  204.1840  148.3500 O   0  0  0  0  0  0  0  0  0  0  0  0
  160.9930  204.8720  150.6190 C   0  0  0  0  0  0  0  0  0  0  0  0
  160.7040  202.5010  149.8770 N   0  0  0  0  0  0  0  0  0  0  0  0
  161.4560  206.5920  148.8660 C   0  0  0  0  0  2  0  0  0  0  0  0
  162.2430  206.6070  147.5670 C   0  0  0  0  0  2  0  0  0  0  0  0
  161.3030  206.4810  146.3810 C   0  0  0  0  0  2  0  0  0  0  0  0
  161.1710  204.4430  144.9600 C   0  0  0  0  0  1  0  0  0  0  0  0
  161.9710  205.6980  145.2660 C   0  0  0  0  0  2  0  0  0  0  0  0
  2  5  1  0  0  0  0
  3 24  1  6  0  0  0
  3  7  1  0  0  0  0
  4  3  1  0  0  0  0
  4  6  1  0  0  0  0
  6  1  1  0  0  0  0
  6  5  2  0  0  0  0
  7  2  1  0  0  0  0
  8  9  1  0  0  0  0
  9 11  2  0  0  0  0
  9  1  1  0  0  0  0
 10 20  1  0  0  0  0
 10 11  1  0  0  0  0
 12 10  2  0  0  0  0
 13 12  1  0  0  0  0
 13  8  2  0  0  0  0
 14 15  1  6  0  0  0
 14 19  1  0  0  0  0
 14 16  1  0  0  0  0
 16 13  1  1  0  0  0
 17 15  1  0  0  0  0
 17 18  1  0  0  0  0
 19 18  1  6  0  0  0
 19 16  1  0  0  0  0
 20 21  1  0  0  0  0
 22 26  1  0  0  0  0
 23 22  2  0  0  0  0
 23 25  1  0  0  0  0
 24 27  1  0  0  0  0
 25 24  2  0  0  0  0
 26 27  2  0  0  0  0
 28 34  2  0  0  0  0
 29 35  2  0  0  0  0
 30 31  1  1  0  0  0
 32 29  1  0  0  0  0
 33 29  1  0  0  0  0
 33 28  1  0  0  0  0
 34 30  1  0  0  0  0
 34 22  1  0  0  0  0
 35 30  1  0  0  0  0
 36 28  1  0  0  0  0
 37 36  1  0  0  0  0
 38 37  1  0  0  0  0
 39 40  1  0  0  0  0
 40 38  1  0  0  0  0
M  END
>  <MODEL>
1

>  <REMARK>
 VINA RESULT:      -8.9      0.000      0.000
  Name = 
  9 active torsions:
  status: ('A' for Active; 'I' for Inactive)
    1  A    between atoms: C_2  and  C_37
    2  A    between atoms: N_5  and  C_7
    3  A    between atoms: C_6  and  C_10
    4  A    between atoms: C_8  and  C_18
    5  A    between atoms: C_8  and  C_24
    6  A    between atoms: C_9  and  C_12
    7  A    between atoms: C_10  and  C_18
    8  A    between atoms: C_14  and  C_34
    9  A    between atoms: C_16  and  C_21
                            x       y       z     vdW  Elec       q    Type
                         _______ _______ _______ _____ _____    ______ ____

>  <TORSDO>
F 9

$$$$
=
 OpenBabel11072415143D

 40 45  0  0  1  0  0  0  0  0999 V2000
  159.8810  211.5970  156.9180 N   0  0  0  0  0  2  0  0  0  0  0  0
  162.1230  208.6500  156.7540 C   0  0  0  0  0  2  0  0  0  0  0  0
  160.4390  208.4340  154.9740 C   0  0  2  0  0  3  0  0  0  0  0  0
  160.4750  209.9710  155.0210 C   0  0  0  0  0  2  0  0  0  0  0  0
  161.3640  209.7960  157.2450 N   0  0  0  0  0  0  0  0  0  0  0  0
  160.5760  210.4390  156.4410 C   0  0  0  0  0  0  0  0  0  0  0  0
  161.2470  207.7440  156.0010 N   0  0  0  0  0  2  0  0  0  0  0  0
  159.2550  212.9360  154.9280 C   0  0  0  0  0  3  0  0  0  0  0  0
  158.9520  212.4190  156.1950 C   0  0  0  0  0  0  0  0  0  0  0  0
  156.7820  213.5010  156.0830 C   0  0  0  0  0  0  0  0  0  0  0  0
  157.7080  212.7050  156.7670 C   0  0  0  0  0  3  0  0  0  0  0  0
  157.1030  214.0300  154.8270 C   0  0  0  0  0  3  0  0  0  0  0  0
  158.3470  213.7580  154.2470 C   0  0  0  0  0  0  0  0  0  0  0  0
  157.9240  213.5270  151.8330 N   0  0  2  0  0  0  0  0  0  0  0  0
  157.4040  213.6270  150.5530 C   0  0  0  0  0  2  0  0  0  0  0  0
  158.6710  214.2900  152.8870 C   0  0  2  0  0  3  0  0  0  0  0  0
  158.5310  213.7880  149.8530 C   0  0  0  0  0  2  0  0  0  0  0  0
  159.8030  213.7800  150.7460 C   0  0  0  0  0  2  0  0  0  0  0  0
  159.3370  213.3460  152.1530 C   0  0  2  0  0  3  0  0  0  0  0  0
  155.4700  213.8170  156.7100 C   0  0  0  0  0  2  0  0  0  0  0  0
  154.8340  212.5560  157.2610 C   0  0  0  0  0  1  0  0  0  0  0  0
  161.3430  206.9230  151.0480 C   0  0  0  0  0  0  0  0  0  0  0  0
  161.0400  208.2810  151.2250 C   0  0  0  0  0  3  0  0  0  0  0  0
  160.7590  207.9240  153.6070 C   0  0  0  0  0  0  0  0  0  0  0  0
  160.7560  208.7810  152.4980 C   0  0  0  0  0  3  0  0  0  0  0  0
  161.3400  206.0700  152.1620 C   0  0  0  0  0  3  0  0  0  0  0  0
  161.0530  206.5690  153.4350 C   0  0  0  0  0  3  0  0  0  0  0  0
  161.2190  205.1670  149.2950 C   0  0  0  0  0  0  0  0  0  0  0  0
  162.2640  205.4690  147.1110 C   0  0  0  0  0  0  0  0  0  0  0  0
  162.3840  207.2860  148.7250 C   0  0  1  0  0  3  0  0  0  0  0  0
  161.6360  208.5860  148.4810 C   0  0  0  0  0  1  0  0  0  0  0  0
  162.5760  204.9390  145.8300 N   0  0  0  0  0  1  0  0  0  0  0  0
  161.5280  204.7060  148.0130 O   0  0  0  0  0  0  0  0  0  0  0  0
  161.6090  206.4010  149.6850 C   0  0  0  0  0  0  0  0  0  0  0  0
  162.6740  206.6530  147.4370 N   0  0  0  0  0  0  0  0  0  0  0  0
  160.4970  204.2250  150.2090 C   0  0  0  0  0  2  0  0  0  0  0  0
  161.1730  202.8650  150.2110 C   0  0  0  0  0  2  0  0  0  0  0  0
  160.1320  201.7600  150.2620 C   0  0  0  0  0  2  0  0  0  0  0  0
  161.2920  201.2350  148.1240 C   0  0  0  0  0  1  0  0  0  0  0  0
  159.9890  201.1140  148.8970 C   0  0  0  0  0  2  0  0  0  0  0  0
  2  5  1  0  0  0  0
  3 24  1  6  0  0  0
  3  4  1  0  0  0  0
  3  7  1  0  0  0  0
  4  6  1  0  0  0  0
  6  1  1  0  0  0  0
  6  5  2  0  0  0  0
  7  2  1  0  0  0  0
  8  9  1  0  0  0  0
  9 11  2  0  0  0  0
  9  1  1  0  0  0  0
 10 20  1  0  0  0  0
 10 11  1  0  0  0  0
 12 10  2  0  0  0  0
 13 12  1  0  0  0  0
 13  8  2  0  0  0  0
 14 15  1  6  0  0  0
 14 19  1  0  0  0  0
 14 16  1  0  0  0  0
 16 13  1  1  0  0  0
 17 15  1  0  0  0  0
 17 18  1  0  0  0  0
 19 18  1  6  0  0  0
 19 16  1  0  0  0  0
 20 21  1  0  0  0  0
 22 23  2  0  0  0  0
 22 26  1  0  0  0  0
 23 25  1  0  0  0  0
 25 24  2  0  0  0  0
 26 27  2  0  0  0  0
 27 24  1  0  0  0  0
 28 34  2  0  0  0  0
 28 36  1  0  0  0  0
 29 35  2  0  0  0  0
 29 33  1  0  0  0  0
 30 31  1  6  0  0  0
 30 34  1  0  0  0  0
 32 29  1  0  0  0  0
 33 28  1  0  0  0  0
 34 22  1  0  0  0  0
 35 30  1  0  0  0  0
 36 37  1  0  0  0  0
 37 38  1  0  0  0  0
 39 40  1  0  0  0  0
 40 38  1  0  0  0  0
M  END
>  <MODEL>
2

>  <REMARK>
 VINA RESULT:      -8.8      1.618      2.792
  Name = 
  9 active torsions:
  status: ('A' for Active; 'I' for Inactive)
    1  A    between atoms: C_2  and  C_37
    2  A    between atoms: N_5  and  C_7
    3  A    between atoms: C_6  and  C_10
    4  A    between atoms: C_8  and  C_18
    5  A    between atoms: C_8  and  C_24
    6  A    between atoms: C_9  and  C_12
    7  A    between atoms: C_10  and  C_18
    8  A    between atoms: C_14  and  C_34
    9  A    between atoms: C_16  and  C_21
                            x       y       z     vdW  Elec       q    Type
                         _______ _______ _______ _____ _____    ______ ____

>  <TORSDO>
F 9

$$$$
=
 OpenBabel11072415143D

 40 45  0  0  1  0  0  0  0  0999 V2000
  160.6850  211.7050  152.3170 N   0  0  0  0  0  2  0  0  0  0  0  0
  161.6680  211.3330  148.7630 C   0  0  0  0  0  2  0  0  0  0  0  0
  162.1100  209.2010  149.9090 C   0  0  2  0  0  3  0  0  0  0  0  0
  160.9330  209.6550  150.7900 C   0  0  0  0  0  2  0  0  0  0  0  0
  161.3770  211.9040  150.0740 N   0  0  0  0  0  0  0  0  0  0  0  0
  161.0250  211.1280  151.0510 C   0  0  0  0  0  0  0  0  0  0  0  0
  162.5650  210.1790  148.8980 N   0  0  0  0  0  2  0  0  0  0  0  0
  159.4660  211.6090  154.4740 C   0  0  0  0  0  3  0  0  0  0  0  0
  160.3020  211.0160  153.5180 C   0  0  0  0  0  0  0  0  0  0  0  0
  160.4120  209.0210  154.8960 C   0  0  0  0  0  0  0  0  0  0  0  0
  160.7710  209.7170  153.7350 C   0  0  0  0  0  3  0  0  0  0  0  0
  159.5930  209.6290  155.8540 C   0  0  0  0  0  3  0  0  0  0  0  0
  159.1230  210.9320  155.6520 C   0  0  0  0  0  0  0  0  0  0  0  0
  156.7870  211.4770  156.2040 N   0  0  2  0  0  0  0  0  0  0  0  0
  155.4800  211.4420  156.6620 C   0  0  0  0  0  2  0  0  0  0  0  0
  158.2140  211.5640  156.6580 C   0  0  2  0  0  3  0  0  0  0  0  0
  155.3890  212.6570  157.2110 C   0  0  0  0  0  2  0  0  0  0  0  0
  156.7020  213.4780  157.0790 C   0  0  0  0  0  2  0  0  0  0  0  0
  157.6170  212.6750  156.1280 C   0  0  2  0  0  3  0  0  0  0  0  0
  160.9340  207.6460  155.1270 C   0  0  0  0  0  2  0  0  0  0  0  0
  160.3160  207.0550  156.3790 C   0  0  0  0  0  1  0  0  0  0  0  0
  161.3830  205.3640  148.1060 C   0  0  0  0  0  0  0  0  0  0  0  0
  160.5760  205.8060  149.1640 C   0  0  0  0  0  3  0  0  0  0  0  0
  161.8410  207.8700  149.2870 C   0  0  0  0  0  0  0  0  0  0  0  0
  160.7990  207.0550  149.7470 C   0  0  0  0  0  3  0  0  0  0  0  0
  162.4270  206.1830  147.6520 C   0  0  0  0  0  3  0  0  0  0  0  0
  162.6520  207.4310  148.2370 C   0  0  0  0  0  3  0  0  0  0  0  0
  160.6670  202.9880  148.2430 C   0  0  0  0  0  0  0  0  0  0  0  0
  160.8630  201.4830  146.3330 C   0  0  0  0  0  0  0  0  0  0  0  0
  161.5250  203.8090  146.0610 C   0  0  1  0  0  3  0  0  0  0  0  0
  160.7220  204.7410  145.1700 C   0  0  0  0  0  1  0  0  0  0  0  0
  160.7060  200.1780  145.7940 N   0  0  0  0  0  1  0  0  0  0  0  0
  160.5050  201.7310  147.6560 O   0  0  0  0  0  0  0  0  0  0  0  0
  161.1540  204.0190  147.5190 C   0  0  0  0  0  0  0  0  0  0  0  0
  161.3470  202.4320  145.5960 N   0  0  0  0  0  0  0  0  0  0  0  0
  160.3290  203.1150  149.6970 C   0  0  0  0  0  2  0  0  0  0  0  0
  161.0600  202.0590  150.5060 C   0  0  0  0  0  2  0  0  0  0  0  0
  161.6850  202.6810  151.7430 C   0  0  0  0  0  2  0  0  0  0  0  0
  161.5990  205.0280  152.5650 C   0  0  0  0  0  1  0  0  0  0  0  0
  160.7860  203.7740  152.2890 C   0  0  0  0  0  2  0  0  0  0  0  0
  1  9  1  0  0  0  0
  2  7  1  0  0  0  0
  2  5  1  0  0  0  0
  3 24  1  6  0  0  0
  3  4  1  0  0  0  0
  4  6  1  0  0  0  0
  5  6  2  0  0  0  0
  6  1  1  0  0  0  0
  7  3  1  0  0  0  0
  8 13  1  0  0  0  0
  9 11  1  0  0  0  0
  9  8  2  0  0  0  0
 10 20  1  0  0  0  0
 10 12  1  0  0  0  0
 11 10  2  0  0  0  0
 13 12  2  0  0  0  0
 14 16  1  0  0  0  0
 14 15  1  1  0  0  0
 15 17  1  0  0  0  0
 16 13  1  6  0  0  0
 18 17  1  0  0  0  0
 19 14  1  0  0  0  0
 19 16  1  0  0  0  0
 19 18  1  1  0  0  0
 20 21  1  0  0  0  0
 22 23  1  0  0  0  0
 23 25  2  0  0  0  0
 24 25  1  0  0  0  0
 26 22  2  0  0  0  0
 26 27  1  0  0  0  0
 27 24  2  0  0  0  0
 28 36  1  0  0  0  0
 29 33  1  0  0  0  0
 30 31  1  6  0  0  0
 30 34  1  0  0  0  0
 32 29  1  0  0  0  0
 33 28  1  0  0  0  0
 34 22  1  0  0  0  0
 34 28  2  0  0  0  0
 35 30  1  0  0  0  0
 35 29  2  0  0  0  0
 36 37  1  0  0  0  0
 37 38  1  0  0  0  0
 38 40  1  0  0  0  0
 40 39  1  0  0  0  0
M  END
>  <MODEL>
3

>  <REMARK>
 VINA RESULT:      -8.6      2.523      5.585
  Name = 
  9 active torsions:
  status: ('A' for Active; 'I' for Inactive)
    1  A    between atoms: C_2  and  C_37
    2  A    between atoms: N_5  and  C_7
    3  A    between atoms: C_6  and  C_10
    4  A    between atoms: C_8  and  C_18
    5  A    between atoms: C_8  and  C_24
    6  A    between atoms: C_9  and  C_12
    7  A    between atoms: C_10  and  C_18
    8  A    between atoms: C_14  and  C_34
    9  A    between atoms: C_16  and  C_21
                            x       y       z     vdW  Elec       q    Type
                         _______ _______ _______ _____ _____    ______ ____

>  <TORSDO>
F 9

$$$$
=
 OpenBabel11072415143D

 40 45  0  0  1  0  0  0  0  0999 V2000
  160.1590  214.1530  150.2240 N   0  0  0  0  0  2  0  0  0  0  0  0
  162.3420  212.6410  147.6380 C   0  0  0  0  0  2  0  0  0  0  0  0
  162.1060  211.0290  149.4820 C   0  0  2  0  0  3  0  0  0  0  0  0
  160.7410  211.7180  149.6500 C   0  0  0  0  0  2  0  0  0  0  0  0
  161.6470  213.6090  148.4810 N   0  0  0  0  0  0  0  0  0  0  0  0
  160.8820  213.1950  149.4410 C   0  0  0  0  0  0  0  0  0  0  0  0
  163.0010  211.6250  148.4670 N   0  0  0  0  0  2  0  0  0  0  0  0
  159.7530  213.2660  152.5040 C   0  0  0  0  0  3  0  0  0  0  0  0
  159.2910  213.8940  151.3390 C   0  0  0  0  0  0  0  0  0  0  0  0
  157.0830  214.0490  152.3350 C   0  0  0  0  0  0  0  0  0  0  0  0
  157.9510  214.2870  151.2620 C   0  0  0  0  0  3  0  0  0  0  0  0
  157.5490  213.4020  153.4850 C   0  0  0  0  0  3  0  0  0  0  0  0
  158.8860  212.9980  153.5720 C   0  0  0  0  0  0  0  0  0  0  0  0
  160.5590  211.4560  154.5100 N   0  0  2  0  0  0  0  0  0  0  0  0
  161.7030  210.9010  155.0600 C   0  0  0  0  0  2  0  0  0  0  0  0
  159.3910  212.3450  154.8190 C   0  0  2  0  0  3  0  0  0  0  0  0
  161.1580  210.1140  155.9930 C   0  0  0  0  0  2  0  0  0  0  0  0
  159.6060  210.1870  156.0120 C   0  0  0  0  0  2  0  0  0  0  0  0
  159.1980  210.9910  154.7580 C   0  0  2  0  0  3  0  0  0  0  0  0
  155.6530  214.4520  152.2340 C   0  0  0  0  0  2  0  0  0  0  0  0
  154.8300  213.7300  153.2820 C   0  0  0  0  0  1  0  0  0  0  0  0
  161.6480  206.7910  148.9030 C   0  0  0  0  0  0  0  0  0  0  0  0
  161.3330  207.6790  147.8650 C   0  0  0  0  0  3  0  0  0  0  0  0
  161.9510  209.5600  149.2640 C   0  0  0  0  0  0  0  0  0  0  0  0
  161.4900  209.0560  148.0410 C   0  0  0  0  0  3  0  0  0  0  0  0
  162.1050  207.3030  150.1270 C   0  0  0  0  0  3  0  0  0  0  0  0
  162.2590  208.6800  150.3050 C   0  0  0  0  0  3  0  0  0  0  0  0
  160.8900  204.5500  149.6620 C   0  0  0  0  0  0  0  0  0  0  0  0
  161.2070  202.5610  148.2850 C   0  0  0  0  0  0  0  0  0  0  0  0
  161.9210  204.7160  147.4080 C   0  0  1  0  0  3  0  0  0  0  0  0
  161.2000  205.3460  146.2280 C   0  0  0  0  0  1  0  0  0  0  0  0
  161.0720  201.1550  148.1330 N   0  0  0  0  0  1  0  0  0  0  0  0
  160.7550  203.1760  149.4490 O   0  0  0  0  0  0  0  0  0  0  0  0
  161.4450  205.3330  148.7110 C   0  0  0  0  0  0  0  0  0  0  0  0
  161.7580  203.2620  147.3450 N   0  0  0  0  0  0  0  0  0  0  0  0
  160.4460  205.0860  150.9890 C   0  0  0  0  0  2  0  0  0  0  0  0
  161.1800  204.3840  152.1180 C   0  0  0  0  0  2  0  0  0  0  0  0
  161.9350  205.3930  152.9640 C   0  0  0  0  0  2  0  0  0  0  0  0
  160.8500  207.5650  153.5120 C   0  0  0  0  0  1  0  0  0  0  0  0
  160.9800  206.1030  153.9060 C   0  0  0  0  0  2  0  0  0  0  0  0
  1  9  1  0  0  0  0
  2  7  1  0  0  0  0
  2  5  1  0  0  0  0
  3 24  1  6  0  0  0
  3  4  1  0  0  0  0
  5  6  2  0  0  0  0
  6  4  1  0  0  0  0
  6  1  1  0  0  0  0
  7  3  1  0  0  0  0
  8 13  1  0  0  0  0
  9  8  2  0  0  0  0
 10 12  1  0  0  0  0
 11  9  1  0  0  0  0
 11 10  2  0  0  0  0
 12 13  2  0  0  0  0
 14 19  1  0  0  0  0
 14 16  1  0  0  0  0
 14 15  1  1  0  0  0
 15 17  1  0  0  0  0
 16 13  1  6  0  0  0
 17 18  1  0  0  0  0
 19 16  1  0  0  0  0
 19 18  1  1  0  0  0
 20 10  1  0  0  0  0
 20 21  1  0  0  0  0
 22 26  1  0  0  0  0
 23 25  1  0  0  0  0
 23 22  2  0  0  0  0
 24 27  1  0  0  0  0
 25 24  2  0  0  0  0
 26 27  2  0  0  0  0
 28 36  1  0  0  0  0
 29 33  1  0  0  0  0
 30 31  1  6  0  0  0
 30 34  1  0  0  0  0
 32 29  1  0  0  0  0
 33 28  1  0  0  0  0
 34 22  1  0  0  0  0
 34 28  2  0  0  0  0
 35 30  1  0  0  0  0
 35 29  2  0  0  0  0
 36 37  1  0  0  0  0
 37 38  1  0  0  0  0
 38 40  1  0  0  0  0
 39 40  1  0  0  0  0
M  END
>  <MODEL>
4

>  <REMARK>
 VINA RESULT:      -8.0      2.019      5.192
  Name = 
  9 active torsions:
  status: ('A' for Active; 'I' for Inactive)
    1  A    between atoms: C_2  and  C_37
    2  A    between atoms: N_5  and  C_7
    3  A    between atoms: C_6  and  C_10
    4  A    between atoms: C_8  and  C_18
    5  A    between atoms: C_8  and  C_24
    6  A    between atoms: C_9  and  C_12
    7  A    between atoms: C_10  and  C_18
    8  A    between atoms: C_14  and  C_34
    9  A    between atoms: C_16  and  C_21
                            x       y       z     vdW  Elec       q    Type
                         _______ _______ _______ _____ _____    ______ ____

>  <TORSDO>
F 9

$$$$
=
 OpenBabel11072415143D

 40 45  0  0  1  0  0  0  0  0999 V2000
  160.4870  214.4410  149.0510 N   0  0  0  0  0  2  0  0  0  0  0  0
  163.2260  212.4580  147.5320 C   0  0  0  0  0  2  0  0  0  0  0  0
  162.2870  211.1640  149.4020 C   0  0  2  0  0  3  0  0  0  0  0  0
  161.0030  211.9250  149.0280 C   0  0  0  0  0  2  0  0  0  0  0  0
  162.3910  213.5730  147.9680 N   0  0  0  0  0  0  0  0  0  0  0  0
  161.3310  213.3450  148.6780 C   0  0  0  0  0  0  0  0  0  0  0  0
  163.5020  211.5590  148.6580 N   0  0  0  0  0  2  0  0  0  0  0  0
  159.3490  214.3000  151.2490 C   0  0  0  0  0  3  0  0  0  0  0  0
  159.2950  214.3950  149.8510 C   0  0  0  0  0  0  0  0  0  0  0  0
  156.8720  214.4120  149.9760 C   0  0  0  0  0  0  0  0  0  0  0  0
  158.0490  214.4530  149.2200 C   0  0  0  0  0  3  0  0  0  0  0  0
  156.9360  214.2960  151.3690 C   0  0  0  0  0  3  0  0  0  0  0  0
  158.1770  214.2290  152.0130 C   0  0  0  0  0  0  0  0  0  0  0  0
  158.2910  212.7160  153.9510 N   0  0  2  0  0  0  0  0  0  0  0  0
  158.7210  211.8900  154.9760 C   0  0  0  0  0  2  0  0  0  0  0  0
  158.2420  214.1480  153.5050 C   0  0  2  0  0  3  0  0  0  0  0  0
  157.9500  212.3320  155.9750 C   0  0  0  0  0  2  0  0  0  0  0  0
  156.9980  213.4800  155.5380 C   0  0  0  0  0  2  0  0  0  0  0  0
  157.1060  213.5670  154.0000 C   0  0  2  0  0  3  0  0  0  0  0  0
  155.5500  214.4530  149.2920 C   0  0  0  0  0  2  0  0  0  0  0  0
  154.4390  214.1540  150.2790 C   0  0  0  0  0  1  0  0  0  0  0  0
  161.6750  206.9080  149.2900 C   0  0  0  0  0  0  0  0  0  0  0  0
  161.4470  207.6800  148.1430 C   0  0  0  0  0  3  0  0  0  0  0  0
  162.0790  209.6870  149.3470 C   0  0  0  0  0  0  0  0  0  0  0  0
  161.6540  209.0610  148.1680 C   0  0  0  0  0  3  0  0  0  0  0  0
  162.0980  207.5410  150.4690 C   0  0  0  0  0  3  0  0  0  0  0  0
  162.3010  208.9230  150.4960 C   0  0  0  0  0  3  0  0  0  0  0  0
  161.8860  204.6540  148.2670 C   0  0  0  0  0  0  0  0  0  0  0  0
  160.7800  202.7050  149.2320 C   0  0  0  0  0  0  0  0  0  0  0  0
  160.5660  204.8500  150.3620 C   0  0  1  0  0  3  0  0  0  0  0  0
  161.2160  205.0770  151.7160 C   0  0  0  0  0  1  0  0  0  0  0  0
  160.4810  201.3180  149.1580 N   0  0  0  0  0  1  0  0  0  0  0  0
  161.5860  203.2890  148.2580 O   0  0  0  0  0  0  0  0  0  0  0  0
  161.4190  205.4460  149.2570 C   0  0  0  0  0  0  0  0  0  0  0  0
  160.2950  203.4200  150.1970 N   0  0  0  0  0  0  0  0  0  0  0  0
  162.6910  205.1870  147.1210 C   0  0  0  0  0  2  0  0  0  0  0  0
  162.4760  204.3370  145.8810 C   0  0  0  0  0  2  0  0  0  0  0  0
  161.4070  204.9560  144.9970 C   0  0  0  0  0  2  0  0  0  0  0  0
  160.7060  202.5850  145.2790 C   0  0  0  0  0  1  0  0  0  0  0  0
  160.3420  203.9270  144.6660 C   0  0  0  0  0  2  0  0  0  0  0  0
  1  9  1  0  0  0  0
  2  5  1  0  0  0  0
  2  7  1  0  0  0  0
  3 24  1  6  0  0  0
  4  3  1  0  0  0  0
  5  6  2  0  0  0  0
  6  4  1  0  0  0  0
  6  1  1  0  0  0  0
  7  3  1  0  0  0  0
  8 13  1  0  0  0  0
  9  8  2  0  0  0  0
 10 12  1  0  0  0  0
 11  9  1  0  0  0  0
 11 10  2  0  0  0  0
 12 13  2  0  0  0  0
 14 19  1  0  0  0  0
 14 15  1  1  0  0  0
 15 17  1  0  0  0  0
 16 13  1  6  0  0  0
 16 14  1  0  0  0  0
 16 19  1  0  0  0  0
 18 17  1  0  0  0  0
 19 18  1  1  0  0  0
 20 10  1  0  0  0  0
 20 21  1  0  0  0  0
 22 26  1  0  0  0  0
 23 25  1  0  0  0  0
 23 22  2  0  0  0  0
 24 27  1  0  0  0  0
 25 24  2  0  0  0  0
 26 27  2  0  0  0  0
 28 34  2  0  0  0  0
 29 35  2  0  0  0  0
 30 31  1  1  0  0  0
 32 29  1  0  0  0  0
 33 28  1  0  0  0  0
 33 29  1  0  0  0  0
 34 22  1  0  0  0  0
 34 30  1  0  0  0  0
 35 30  1  0  0  0  0
 36 28  1  0  0  0  0
 37 36  1  0  0  0  0
 38 37  1  0  0  0  0
 40 38  1  0  0  0  0
 40 39  1  0  0  0  0
M  END
>  <MODEL>
5

>  <REMARK>
 VINA RESULT:      -7.8      2.251      4.645
  Name = 
  9 active torsions:
  status: ('A' for Active; 'I' for Inactive)
    1  A    between atoms: C_2  and  C_37
    2  A    between atoms: N_5  and  C_7
    3  A    between atoms: C_6  and  C_10
    4  A    between atoms: C_8  and  C_18
    5  A    between atoms: C_8  and  C_24
    6  A    between atoms: C_9  and  C_12
    7  A    between atoms: C_10  and  C_18
    8  A    between atoms: C_14  and  C_34
    9  A    between atoms: C_16  and  C_21
                            x       y       z     vdW  Elec       q    Type
                         _______ _______ _______ _____ _____    ______ ____

>  <TORSDO>
F 9

$$$$
=
 OpenBabel11072415143D

 40 45  0  0  1  0  0  0  0  0999 V2000
  160.3100  214.4160  148.4570 N   0  0  0  0  0  2  0  0  0  0  0  0
  163.1560  212.4490  147.1270 C   0  0  0  0  0  2  0  0  0  0  0  0
  162.1990  211.2230  149.0330 C   0  0  2  0  0  3  0  0  0  0  0  0
  160.9050  211.9210  148.5820 C   0  0  0  0  0  2  0  0  0  0  0  0
  162.2730  213.5570  147.4790 N   0  0  0  0  0  0  0  0  0  0  0  0
  161.1990  213.3310  148.1680 C   0  0  0  0  0  0  0  0  0  0  0  0
  163.4240  211.6180  148.3070 N   0  0  0  0  0  2  0  0  0  0  0  0
  159.1080  214.2720  150.6210 C   0  0  0  0  0  3  0  0  0  0  0  0
  159.0950  214.3720  149.2230 C   0  0  0  0  0  0  0  0  0  0  0  0
  156.6690  214.3980  149.2770 C   0  0  0  0  0  0  0  0  0  0  0  0
  157.8680  214.4380  148.5560 C   0  0  0  0  0  3  0  0  0  0  0  0
  156.6920  214.2770  150.6710 C   0  0  0  0  0  3  0  0  0  0  0  0
  157.9130  214.2040  151.3500 C   0  0  0  0  0  0  0  0  0  0  0  0
  157.9730  212.6830  153.2860 N   0  0  2  0  0  0  0  0  0  0  0  0
  158.3740  211.8540  154.3200 C   0  0  0  0  0  2  0  0  0  0  0  0
  157.9350  214.1170  152.8430 C   0  0  2  0  0  3  0  0  0  0  0  0
  157.5740  212.2920  155.2970 C   0  0  0  0  0  2  0  0  0  0  0  0
  156.6330  213.4400  154.8370 C   0  0  0  0  0  2  0  0  0  0  0  0
  156.7860  213.5330  153.3030 C   0  0  2  0  0  3  0  0  0  0  0  0
  155.3680  214.4470  148.5560 C   0  0  0  0  0  2  0  0  0  0  0  0
  154.2190  214.4240  149.5440 C   0  0  0  0  0  1  0  0  0  0  0  0
  161.7360  206.9470  149.1270 C   0  0  0  0  0  0  0  0  0  0  0  0
  161.2260  207.6840  148.0490 C   0  0  0  0  0  3  0  0  0  0  0  0
  162.0390  209.7380  149.0490 C   0  0  0  0  0  0  0  0  0  0  0  0
  161.3820  209.0720  148.0060 C   0  0  0  0  0  3  0  0  0  0  0  0
  162.3890  207.6210  150.1700 C   0  0  0  0  0  3  0  0  0  0  0  0
  162.5420  209.0090  150.1290 C   0  0  0  0  0  3  0  0  0  0  0  0
  160.9040  204.8680  150.2030 C   0  0  0  0  0  0  0  0  0  0  0  0
  161.3000  202.6720  149.2150 C   0  0  0  0  0  0  0  0  0  0  0  0
  162.0960  204.6460  148.0350 C   0  0  1  0  0  3  0  0  0  0  0  0
  161.4690  205.0620  146.7150 C   0  0  0  0  0  1  0  0  0  0  0  0
  161.1630  201.2610  149.2980 N   0  0  0  0  0  1  0  0  0  0  0  0
  160.7710  203.4770  150.2200 O   0  0  0  0  0  0  0  0  0  0  0  0
  161.5330  205.4770  149.1740 C   0  0  0  0  0  0  0  0  0  0  0  0
  161.9240  203.2030  148.2120 N   0  0  0  0  0  0  0  0  0  0  0  0
  160.3700  205.6230  151.3810 C   0  0  0  0  0  2  0  0  0  0  0  0
  160.9740  205.0930  152.6700 C   0  0  0  0  0  2  0  0  0  0  0  0
  161.7380  206.1940  153.3850 C   0  0  0  0  0  2  0  0  0  0  0  0
  161.0050  208.4660  154.0880 C   0  0  0  0  0  1  0  0  0  0  0  0
  160.8040  206.9730  154.2920 C   0  0  0  0  0  2  0  0  0  0  0  0
  1  9  1  0  0  0  0
  2  5  1  0  0  0  0
  2  7  1  0  0  0  0
  3 24  1  6  0  0  0
  4  3  1  0  0  0  0
  5  6  2  0  0  0  0
  6  1  1  0  0  0  0
  6  4  1  0  0  0  0
  7  3  1  0  0  0  0
  8 13  1  0  0  0  0
  9  8  2  0  0  0  0
 10 12  1  0  0  0  0
 11  9  1  0  0  0  0
 11 10  2  0  0  0  0
 12 13  2  0  0  0  0
 14 19  1  0  0  0  0
 14 15  1  1  0  0  0
 15 17  1  0  0  0  0
 16 13  1  6  0  0  0
 16 14  1  0  0  0  0
 16 19  1  0  0  0  0
 18 17  1  0  0  0  0
 19 18  1  1  0  0  0
 20 10  1  0  0  0  0
 20 21  1  0  0  0  0
 22 34  1  0  0  0  0
 22 26  1  0  0  0  0
 23 22  2  0  0  0  0
 24 27  1  0  0  0  0
 25 23  1  0  0  0  0
 25 24  2  0  0  0  0
 27 26  2  0  0  0  0
 28 33  1  0  0  0  0
 28 36  1  0  0  0  0
 29 32  1  0  0  0  0
 29 33  1  0  0  0  0
 30 31  1  6  0  0  0
 30 35  1  0  0  0  0
 30 34  1  0  0  0  0
 34 28  2  0  0  0  0
 35 29  2  0  0  0  0
 36 37  1  0  0  0  0
 37 38  1  0  0  0  0
 38 40  1  0  0  0  0
 39 40  1  0  0  0  0
M  END
>  <MODEL>
6

>  <REMARK>
 VINA RESULT:      -6.7      2.280      5.516
  Name = 
  9 active torsions:
  status: ('A' for Active; 'I' for Inactive)
    1  A    between atoms: C_2  and  C_37
    2  A    between atoms: N_5  and  C_7
    3  A    between atoms: C_6  and  C_10
    4  A    between atoms: C_8  and  C_18
    5  A    between atoms: C_8  and  C_24
    6  A    between atoms: C_9  and  C_12
    7  A    between atoms: C_10  and  C_18
    8  A    between atoms: C_14  and  C_34
    9  A    between atoms: C_16  and  C_21
                            x       y       z     vdW  Elec       q    Type
                         _______ _______ _______ _____ _____    ______ ____

>  <TORSDO>
F 9

$$$$
=
 OpenBabel11072415143D

 40 45  0  0  1  0  0  0  0  0999 V2000
  160.8460  212.3520  152.0540 N   0  0  0  0  0  2  0  0  0  0  0  0
  162.1740  209.5610  154.0990 C   0  0  0  0  0  2  0  0  0  0  0  0
  160.5340  208.6380  152.5140 C   0  0  2  0  0  3  0  0  0  0  0  0
  160.9990  209.8210  151.6470 C   0  0  0  0  0  2  0  0  0  0  0  0
  161.7570  210.8880  153.6600 N   0  0  0  0  0  0  0  0  0  0  0  0
  161.1980  211.0370  152.5000 C   0  0  0  0  0  0  0  0  0  0  0  0
  161.0950  208.5900  153.8810 N   0  0  0  0  0  2  0  0  0  0  0  0
  160.7960  212.4740  149.5780 C   0  0  0  0  0  3  0  0  0  0  0  0
  160.2000  212.7150  150.8230 C   0  0  0  0  0  0  0  0  0  0  0  0
  158.2850  213.6790  149.6860 C   0  0  0  0  0  0  0  0  0  0  0  0
  158.9390  213.3170  150.8700 C   0  0  0  0  0  3  0  0  0  0  0  0
  158.8980  213.4530  148.4480 C   0  0  0  0  0  3  0  0  0  0  0  0
  160.1630  212.8580  148.3880 C   0  0  0  0  0  0  0  0  0  0  0  0
  161.5250  213.7940  146.5630 N   0  0  2  0  0  0  0  0  0  0  0  0
  162.5700  214.2020  145.7520 C   0  0  0  0  0  2  0  0  0  0  0  0
  160.7970  212.5800  147.0630 C   0  0  2  0  0  3  0  0  0  0  0  0
  162.1160  213.7980  144.5610 C   0  0  0  0  0  2  0  0  0  0  0  0
  160.7230  213.1150  144.6470 C   0  0  0  0  0  2  0  0  0  0  0  0
  160.2180  213.3470  146.0880 C   0  0  2  0  0  3  0  0  0  0  0  0
  156.9520  214.3390  149.7470 C   0  0  0  0  0  2  0  0  0  0  0  0
  156.2760  214.2810  148.3920 C   0  0  0  0  0  1  0  0  0  0  0  0
  161.0610  204.8670  150.5120 C   0  0  0  0  0  0  0  0  0  0  0  0
  161.0800  206.0610  149.7770 C   0  0  0  0  0  3  0  0  0  0  0  0
  160.7270  207.3370  151.8080 C   0  0  0  0  0  0  0  0  0  0  0  0
  160.9210  207.2900  150.4210 C   0  0  0  0  0  3  0  0  0  0  0  0
  160.8630  204.9210  151.9000 C   0  0  0  0  0  3  0  0  0  0  0  0
  160.7000  206.1500  152.5440 C   0  0  0  0  0  3  0  0  0  0  0  0
  161.6570  203.4780  148.5410 C   0  0  0  0  0  0  0  0  0  0  0  0
  161.3160  201.0620  148.5310 C   0  0  0  0  0  0  0  0  0  0  0  0
  160.7670  202.3120  150.5460 C   0  0  1  0  0  3  0  0  0  0  0  0
  161.5850  202.1320  151.8130 C   0  0  0  0  0  1  0  0  0  0  0  0
  161.3860  199.8280  147.8300 N   0  0  0  0  0  1  0  0  0  0  0  0
  161.7320  202.2350  147.9070 O   0  0  0  0  0  0  0  0  0  0  0  0
  161.1990  203.5670  149.8080 C   0  0  0  0  0  0  0  0  0  0  0  0
  160.8570  201.0910  149.7420 N   0  0  0  0  0  0  0  0  0  0  0  0
  162.0510  204.6810  147.7400 C   0  0  0  0  0  2  0  0  0  0  0  0
  161.5730  204.5450  146.3050 C   0  0  0  0  0  2  0  0  0  0  0  0
  161.2250  205.9080  145.7340 C   0  0  0  0  0  2  0  0  0  0  0  0
  160.2380  204.2860  144.1260 C   0  0  0  0  0  1  0  0  0  0  0  0
  160.5400  205.7520  144.3890 C   0  0  0  0  0  2  0  0  0  0  0  0
  1  6  1  0  0  0  0
  3 24  1  6  0  0  0
  3  7  1  0  0  0  0
  4  6  1  0  0  0  0
  4  3  1  0  0  0  0
  5  2  1  0  0  0  0
  6  5  2  0  0  0  0
  7  2  1  0  0  0  0
  8  9  1  0  0  0  0
  9 11  2  0  0  0  0
  9  1  1  0  0  0  0
 10 20  1  0  0  0  0
 10 11  1  0  0  0  0
 12 10  2  0  0  0  0
 13 12  1  0  0  0  0
 13  8  2  0  0  0  0
 14 15  1  6  0  0  0
 14 16  1  0  0  0  0
 16 13  1  1  0  0  0
 17 18  1  0  0  0  0
 17 15  1  0  0  0  0
 19 18  1  6  0  0  0
 19 14  1  0  0  0  0
 19 16  1  0  0  0  0
 21 20  1  0  0  0  0
 22 26  1  0  0  0  0
 23 25  1  0  0  0  0
 23 22  2  0  0  0  0
 24 27  1  0  0  0  0
 25 24  2  0  0  0  0
 26 27  2  0  0  0  0
 28 34  2  0  0  0  0
 29 35  2  0  0  0  0
 30 31  1  1  0  0  0
 32 29  1  0  0  0  0
 33 29  1  0  0  0  0
 33 28  1  0  0  0  0
 34 22  1  0  0  0  0
 34 30  1  0  0  0  0
 35 30  1  0  0  0  0
 36 28  1  0  0  0  0
 37 36  1  0  0  0  0
 38 37  1  0  0  0  0
 39 40  1  0  0  0  0
 40 38  1  0  0  0  0
M  END
>  <MODEL>
7

>  <REMARK>
 VINA RESULT:      -6.7      2.399      3.525
  Name = 
  9 active torsions:
  status: ('A' for Active; 'I' for Inactive)
    1  A    between atoms: C_2  and  C_37
    2  A    between atoms: N_5  and  C_7
    3  A    between atoms: C_6  and  C_10
    4  A    between atoms: C_8  and  C_18
    5  A    between atoms: C_8  and  C_24
    6  A    between atoms: C_9  and  C_12
    7  A    between atoms: C_10  and  C_18
    8  A    between atoms: C_14  and  C_34
    9  A    between atoms: C_16  and  C_21
                            x       y       z     vdW  Elec       q    Type
                         _______ _______ _______ _____ _____    ______ ____

>  <TORSDO>
F 9

$$$$
=
 OpenBabel11072415143D

 40 45  0  0  1  0  0  0  0  0999 V2000
  160.3190  212.4750  152.8510 N   0  0  0  0  0  2  0  0  0  0  0  0
  161.2440  211.7750  149.3300 C   0  0  0  0  0  2  0  0  0  0  0  0
  161.9460  209.8580  150.7040 C   0  0  2  0  0  3  0  0  0  0  0  0
  160.7500  210.2910  151.5700 C   0  0  0  0  0  2  0  0  0  0  0  0
  160.9260  212.4680  150.5750 N   0  0  0  0  0  0  0  0  0  0  0  0
  160.6870  211.7860  151.6500 C   0  0  0  0  0  0  0  0  0  0  0  0
  162.2640  210.7470  149.5670 N   0  0  0  0  0  2  0  0  0  0  0  0
  159.0120  212.3810  154.9550 C   0  0  0  0  0  3  0  0  0  0  0  0
  160.0450  211.9010  154.1390 C   0  0  0  0  0  0  0  0  0  0  0  0
  160.5800  210.2520  155.8380 C   0  0  0  0  0  0  0  0  0  0  0  0
  160.8260  210.8310  154.5870 C   0  0  0  0  0  3  0  0  0  0  0  0
  159.5590  210.7520  156.6540 C   0  0  0  0  0  3  0  0  0  0  0  0
  158.7750  211.8270  156.2200 C   0  0  0  0  0  0  0  0  0  0  0  0
  156.3310  211.9420  156.4960 N   0  0  2  0  0  0  0  0  0  0  0  0
  155.0120  211.6820  156.8250 C   0  0  0  0  0  2  0  0  0  0  0  0
  157.6580  212.3320  157.0770 C   0  0  2  0  0  3  0  0  0  0  0  0
  154.6350  212.8890  157.2610 C   0  0  0  0  0  2  0  0  0  0  0  0
  155.7780  213.9390  157.1890 C   0  0  0  0  0  2  0  0  0  0  0  0
  156.9270  213.2720  156.4010 C   0  0  2  0  0  3  0  0  0  0  0  0
  161.4300  209.1270  156.3140 C   0  0  0  0  0  2  0  0  0  0  0  0
  160.5640  207.9980  156.8330 C   0  0  0  0  0  1  0  0  0  0  0  0
  161.5960  205.7720  149.4040 C   0  0  0  0  0  0  0  0  0  0  0  0
  160.7080  206.2820  150.3620 C   0  0  0  0  0  3  0  0  0  0  0  0
  161.8070  208.4400  150.2550 C   0  0  0  0  0  0  0  0  0  0  0  0
  160.8080  207.6110  150.7810 C   0  0  0  0  0  3  0  0  0  0  0  0
  162.5960  206.6070  148.8840 C   0  0  0  0  0  3  0  0  0  0  0  0
  162.6990  207.9350  149.3050 C   0  0  0  0  0  3  0  0  0  0  0  0
  161.9560  203.9070  147.8020 C   0  0  0  0  0  0  0  0  0  0  0  0
  161.1590  201.6500  148.2710 C   0  0  0  0  0  0  0  0  0  0  0  0
  160.8160  203.3820  149.9460 C   0  0  1  0  0  3  0  0  0  0  0  0
  161.5580  203.3310  151.2710 C   0  0  0  0  0  1  0  0  0  0  0  0
  161.0060  200.3030  147.8450 N   0  0  0  0  0  1  0  0  0  0  0  0
  161.8050  202.5650  147.4450 O   0  0  0  0  0  0  0  0  0  0  0  0
  161.4970  204.3490  148.9930 C   0  0  0  0  0  0  0  0  0  0  0  0
  160.6880  202.0210  149.4190 N   0  0  0  0  0  0  0  0  0  0  0  0
  162.5910  204.8180  146.7960 C   0  0  0  0  0  2  0  0  0  0  0  0
  162.5570  204.1900  145.4150 C   0  0  0  0  0  2  0  0  0  0  0  0
  161.6840  205.0120  144.4830 C   0  0  0  0  0  2  0  0  0  0  0  0
  160.0620  206.5420  145.5860 C   0  0  0  0  0  1  0  0  0  0  0  0
  160.2840  205.1360  145.0540 C   0  0  0  0  0  2  0  0  0  0  0  0
  1  9  1  0  0  0  0
  2  7  1  0  0  0  0
  2  5  1  0  0  0  0
  3 24  1  6  0  0  0
  3  4  1  0  0  0  0
  4  6  1  0  0  0  0
  5  6  2  0  0  0  0
  6  1  1  0  0  0  0
  7  3  1  0  0  0  0
  8 13  1  0  0  0  0
  9 11  1  0  0  0  0
  9  8  2  0  0  0  0
 10 20  1  0  0  0  0
 10 12  1  0  0  0  0
 11 10  2  0  0  0  0
 13 12  2  0  0  0  0
 14 15  1  1  0  0  0
 14 16  1  0  0  0  0
 15 17  1  0  0  0  0
 16 13  1  6  0  0  0
 18 17  1  0  0  0  0
 19 14  1  0  0  0  0
 19 16  1  0  0  0  0
 19 18  1  1  0  0  0
 20 21  1  0  0  0  0
 22 23  1  0  0  0  0
 23 25  2  0  0  0  0
 24 25  1  0  0  0  0
 26 27  1  0  0  0  0
 26 22  2  0  0  0  0
 27 24  2  0  0  0  0
 28 34  2  0  0  0  0
 29 35  2  0  0  0  0
 30 31  1  1  0  0  0
 32 29  1  0  0  0  0
 33 28  1  0  0  0  0
 33 29  1  0  0  0  0
 34 22  1  0  0  0  0
 34 30  1  0  0  0  0
 35 30  1  0  0  0  0
 36 28  1  0  0  0  0
 37 36  1  0  0  0  0
 38 40  1  0  0  0  0
 38 37  1  0  0  0  0
 40 39  1  0  0  0  0
M  END
>  <MODEL>
8

>  <REMARK>
 VINA RESULT:      -6.6      2.302      4.666
  Name = 
  9 active torsions:
  status: ('A' for Active; 'I' for Inactive)
    1  A    between atoms: C_2  and  C_37
    2  A    between atoms: N_5  and  C_7
    3  A    between atoms: C_6  and  C_10
    4  A    between atoms: C_8  and  C_18
    5  A    between atoms: C_8  and  C_24
    6  A    between atoms: C_9  and  C_12
    7  A    between atoms: C_10  and  C_18
    8  A    between atoms: C_14  and  C_34
    9  A    between atoms: C_16  and  C_21
                            x       y       z     vdW  Elec       q    Type
                         _______ _______ _______ _____ _____    ______ ____

>  <TORSDO>
F 9

$$$$
=
 OpenBabel11072415143D

 40 45  0  0  1  0  0  0  0  0999 V2000
  160.4390  214.2930  146.8590 N   0  0  0  0  0  2  0  0  0  0  0  0
  163.5650  212.3020  146.8860 C   0  0  0  0  0  2  0  0  0  0  0  0
  162.1510  211.5340  148.7470 C   0  0  2  0  0  3  0  0  0  0  0  0
  161.0150  211.9770  147.8080 C   0  0  0  0  0  2  0  0  0  0  0  0
  162.6050  213.3820  146.6850 N   0  0  0  0  0  0  0  0  0  0  0  0
  161.3890  213.2510  147.1130 C   0  0  0  0  0  0  0  0  0  0  0  0
  163.5200  211.8320  148.2760 N   0  0  0  0  0  2  0  0  0  0  0  0
  158.7030  214.3760  148.6280 C   0  0  0  0  0  3  0  0  0  0  0  0
  159.0650  214.3440  147.2740 C   0  0  0  0  0  0  0  0  0  0  0  0
  156.7140  214.4220  146.6750 C   0  0  0  0  0  0  0  0  0  0  0  0
  158.0620  214.3700  146.3000 C   0  0  0  0  0  3  0  0  0  0  0  0
  156.3630  214.4320  148.0300 C   0  0  0  0  0  3  0  0  0  0  0  0
  157.3570  214.3990  149.0140 C   0  0  0  0  0  0  0  0  0  0  0  0
  158.1760  214.1870  151.3260 N   0  0  2  0  0  0  0  0  0  0  0  0
  158.7100  214.4300  152.5800 C   0  0  0  0  0  2  0  0  0  0  0  0
  156.9790  214.4520  150.4610 C   0  0  2  0  0  3  0  0  0  0  0  0
  157.8260  213.7800  153.3440 C   0  0  0  0  0  2  0  0  0  0  0  0
  156.6990  213.1020  152.5160 C   0  0  0  0  0  2  0  0  0  0  0  0
  157.1230  213.2180  151.0350 C   0  0  2  0  0  3  0  0  0  0  0  0
  155.6530  214.4280  145.6310 C   0  0  0  0  0  2  0  0  0  0  0  0
  156.2770  214.4190  144.2500 C   0  0  0  0  0  1  0  0  0  0  0  0
  161.7300  207.4060  149.8800 C   0  0  0  0  0  0  0  0  0  0  0  0
  161.8270  207.7550  148.5260 C   0  0  0  0  0  3  0  0  0  0  0  0
  162.0140  210.0970  149.1260 C   0  0  0  0  0  0  0  0  0  0  0  0
  161.9750  209.0920  148.1500 C   0  0  0  0  0  3  0  0  0  0  0  0
  161.7660  208.4170  150.8520 C   0  0  0  0  0  3  0  0  0  0  0  0
  161.9100  209.7550  150.4770 C   0  0  0  0  0  3  0  0  0  0  0  0
  161.4930  204.9910  149.3460 C   0  0  0  0  0  0  0  0  0  0  0  0
  161.0650  203.3340  151.0850 C   0  0  0  0  0  0  0  0  0  0  0  0
  161.3550  205.6620  151.7330 C   0  0  1  0  0  3  0  0  0  0  0  0
  162.5740  206.0960  152.5290 C   0  0  0  0  0  1  0  0  0  0  0  0
  160.8160  201.9810  151.4380 N   0  0  0  0  0  1  0  0  0  0  0  0
  161.2740  203.6720  149.7500 O   0  0  0  0  0  0  0  0  0  0  0  0
  161.5400  205.9840  150.2610 C   0  0  0  0  0  0  0  0  0  0  0  0
  161.0870  204.2480  152.0030 N   0  0  0  0  0  0  0  0  0  0  0  0
  161.6180  205.2460  147.8740 C   0  0  0  0  0  2  0  0  0  0  0  0
  162.4880  204.1860  147.2240 C   0  0  0  0  0  2  0  0  0  0  0  0
  162.7110  204.5130  145.7580 C   0  0  0  0  0  2  0  0  0  0  0  0
  160.4370  204.1170  144.8290 C   0  0  0  0  0  1  0  0  0  0  0  0
  161.4740  205.1720  145.1760 C   0  0  0  0  0  2  0  0  0  0  0  0
  1  6  1  0  0  0  0
  1  9  1  0  0  0  0
  2  7  1  0  0  0  0
  3 24  1  6  0  0  0
  4  3  1  0  0  0  0
  5  2  1  0  0  0  0
  5  6  2  0  0  0  0
  6  4  1  0  0  0  0
  7  3  1  0  0  0  0
  8 13  1  0  0  0  0
  9  8  2  0  0  0  0
 10 12  1  0  0  0  0
 11 10  2  0  0  0  0
 11  9  1  0  0  0  0
 12 13  2  0  0  0  0
 14 15  1  1  0  0  0
 15 17  1  0  0  0  0
 16 13  1  6  0  0  0
 16 19  1  0  0  0  0
 16 14  1  0  0  0  0
 18 17  1  0  0  0  0
 19 14  1  0  0  0  0
 19 18  1  1  0  0  0
 20 10  1  0  0  0  0
 21 20  1  0  0  0  0
 22 34  1  0  0  0  0
 22 26  1  0  0  0  0
 23 22  2  0  0  0  0
 24 27  1  0  0  0  0
 25 23  1  0  0  0  0
 25 24  2  0  0  0  0
 27 26  2  0  0  0  0
 28 33  1  0  0  0  0
 28 34  2  0  0  0  0
 29 32  1  0  0  0  0
 29 35  2  0  0  0  0
 30 35  1  0  0  0  0
 30 31  1  1  0  0  0
 33 29  1  0  0  0  0
 34 30  1  0  0  0  0
 36 28  1  0  0  0  0
 37 36  1  0  0  0  0
 38 37  1  0  0  0  0
 39 40  1  0  0  0  0
 40 38  1  0  0  0  0
M  END
>  <MODEL>
9

>  <REMARK>
 VINA RESULT:      -5.9      2.682      5.540
  Name = 
  9 active torsions:
  status: ('A' for Active; 'I' for Inactive)
    1  A    between atoms: C_2  and  C_37
    2  A    between atoms: N_5  and  C_7
    3  A    between atoms: C_6  and  C_10
    4  A    between atoms: C_8  and  C_18
    5  A    between atoms: C_8  and  C_24
    6  A    between atoms: C_9  and  C_12
    7  A    between atoms: C_10  and  C_18
    8  A    between atoms: C_14  and  C_34
    9  A    between atoms: C_16  and  C_21
                            x       y       z     vdW  Elec       q    Type
                         _______ _______ _______ _____ _____    ______ ____

>  <TORSDO>
F 9

$$$$
