=
 OpenBabel11072415243D

 25 27  0  0  1  0  0  0  0  0999 V2000
  161.0510  206.0990  153.2420 C   0  0  0  0  0  3  0  0  0  0  0  0
  161.9790  209.4170  150.9030 N   0  0  0  0  0  0  0  0  0  0  0  0
  161.8100  208.1380  150.2800 C   0  0  0  0  0  3  0  0  0  0  0  0
  161.2220  205.7370  150.3820 C   0  0  1  0  0  3  0  0  0  0  0  0
  161.1680  204.6980  151.2330 C   0  0  0  0  0  3  0  0  0  0  0  0
  161.8210  209.5590  152.3220 C   0  0  0  0  0  3  0  0  0  0  0  0
  161.3090  207.1050  150.9660 C   0  0  0  0  0  0  0  0  0  0  0  0
  161.1740  204.8850  152.6990 C   0  0  0  0  0  3  0  0  0  0  0  0
  160.8090  207.3080  152.3840 C   0  0  0  0  0  0  0  0  0  0  0  0
  161.3140  208.5610  153.0450 C   0  0  0  0  0  3  0  0  0  0  0  0
  161.1880  204.9770  146.1460 C   0  0  0  0  0  0  0  0  0  0  0  0
  161.5610  203.9670  147.0360 C   0  0  0  0  0  3  0  0  0  0  0  0
  161.2200  205.4810  148.9150 C   0  0  0  0  0  0  0  0  0  0  0  0
  160.8300  206.4800  148.0090 C   0  0  0  0  0  3  0  0  0  0  0  0
  160.8140  206.2310  146.6340 C   0  0  0  0  0  3  0  0  0  0  0  0
  161.5770  204.2170  148.4110 C   0  0  0  0  0  3  0  0  0  0  0  0
  161.1490  204.7040  144.6840 C   0  0  0  0  0  2  0  0  0  0  0  0
  161.2620  205.9010  143.9770 O   0  0  0  0  0  1  0  0  0  0  0  0
  162.4490  210.5420  150.1080 C   0  0  0  0  0  2  0  0  0  0  0  0
  161.8440  210.5250  148.7030 C   0  0  0  0  0  2  0  0  0  0  0  0
  160.7170  211.8210  147.0330 O   0  0  0  0  0  1  0  0  0  0  0  0
  161.5620  211.9170  148.1410 C   0  0  0  0  0  0  0  0  0  0  0  0
  160.9640  212.7170  149.1190 O   0  0  0  0  0  1  0  0  0  0  0  0
  162.7500  213.9740  147.5430 N   0  0  0  0  0  1  0  0  0  0  0  0
  162.8840  212.5370  147.7150 C   0  0  0  0  0  2  0  0  0  0  0  0
  2  6  1  0  0  0  0
  3  2  1  0  0  0  0
  3  7  2  0  0  0  0
  4 13  1  6  0  0  0
  4  7  1  0  0  0  0
  4  5  1  0  0  0  0
  5  8  2  0  0  0  0
  6 10  2  0  0  0  0
  7  9  1  0  0  0  0
  8  1  1  0  0  0  0
  9 10  1  0  0  0  0
  9  1  2  0  0  0  0
 11 15  2  0  0  0  0
 11 12  1  0  0  0  0
 12 16  2  0  0  0  0
 14 13  2  0  0  0  0
 15 14  1  0  0  0  0
 16 13  1  0  0  0  0
 17 11  1  0  0  0  0
 18 17  1  0  0  0  0
 19  2  1  0  0  0  0
 20 19  1  0  0  0  0
 21 22  1  0  0  0  0
 22 20  1  0  0  0  0
 22 23  1  0  0  0  0
 24 25  1  0  0  0  0
 25 22  1  0  0  0  0
M  END
>  <MODEL>
1

>  <REMARK>
 VINA RESULT:      -8.8      0.000      0.000
  Name = 
  6 active torsions:
  status: ('A' for Active; 'I' for Inactive)
    1  A    between atoms: N_3  and  C_4
    2  A    between atoms: C_4  and  C_22
    3  A    between atoms: C_6  and  C_12
    4  A    between atoms: C_6  and  C_22
    5  A    between atoms: C_7  and  C_14
    6  A    between atoms: C_8  and  C_13
                            x       y       z     vdW  Elec       q    Type
                         _______ _______ _______ _____ _____    ______ ____

>  <TORSDO>
F 6

$$$$
=
 OpenBabel11072415243D

 25 27  0  0  1  0  0  0  0  0999 V2000
  161.1340  207.1030  153.5100 C   0  0  0  0  0  3  0  0  0  0  0  0
  161.7680  209.1050  149.9130 N   0  0  0  0  0  0  0  0  0  0  0  0
  161.6640  207.6760  149.9190 C   0  0  0  0  0  3  0  0  0  0  0  0
  161.2370  205.5370  151.0850 C   0  0  1  0  0  3  0  0  0  0  0  0
  161.2780  204.9720  152.3040 C   0  0  0  0  0  3  0  0  0  0  0  0
  161.6470  209.8450  151.1370 C   0  0  0  0  0  3  0  0  0  0  0  0
  161.2530  207.0250  151.0120 C   0  0  0  0  0  0  0  0  0  0  0  0
  161.3190  205.7800  153.5410 C   0  0  0  0  0  3  0  0  0  0  0  0
  160.7870  207.8030  152.2280 C   0  0  0  0  0  0  0  0  0  0  0  0
  161.2290  209.2410  152.2500 C   0  0  0  0  0  3  0  0  0  0  0  0
  161.1100  203.0200  147.5960 C   0  0  0  0  0  0  0  0  0  0  0  0
  160.7850  202.4970  148.8500 C   0  0  0  0  0  3  0  0  0  0  0  0
  161.2050  204.6660  149.8770 C   0  0  0  0  0  0  0  0  0  0  0  0
  161.5120  205.1820  148.6080 C   0  0  0  0  0  3  0  0  0  0  0  0
  161.4650  204.3660  147.4750 C   0  0  0  0  0  3  0  0  0  0  0  0
  160.8320  203.3140  149.9830 C   0  0  0  0  0  3  0  0  0  0  0  0
  161.0380  202.1560  146.3870 C   0  0  0  0  0  2  0  0  0  0  0  0
  160.9240  202.9500  145.2460 O   0  0  0  0  0  1  0  0  0  0  0  0
  162.1390  209.7890  148.6840 C   0  0  0  0  0  2  0  0  0  0  0  0
  162.5160  211.2480  148.9480 C   0  0  0  0  0  2  0  0  0  0  0  0
  160.8220  211.5710  147.2850 O   0  0  0  0  0  1  0  0  0  0  0  0
  161.7090  212.2490  148.1230 C   0  0  0  0  0  0  0  0  0  0  0  0
  160.9950  213.1020  148.9690 O   0  0  0  0  0  1  0  0  0  0  0  0
  162.0990  213.3790  145.9840 N   0  0  0  0  0  1  0  0  0  0  0  0
  162.6790  213.0640  147.2800 C   0  0  0  0  0  2  0  0  0  0  0  0
  1  8  1  0  0  0  0
  2  3  1  0  0  0  0
  2  6  1  0  0  0  0
  3  7  2  0  0  0  0
  4 13  1  6  0  0  0
  4  5  1  0  0  0  0
  5  8  2  0  0  0  0
  6 10  2  0  0  0  0
  7  4  1  0  0  0  0
  7  9  1  0  0  0  0
  9 10  1  0  0  0  0
  9  1  2  0  0  0  0
 11 12  1  0  0  0  0
 12 16  2  0  0  0  0
 13 16  1  0  0  0  0
 14 13  2  0  0  0  0
 15 11  2  0  0  0  0
 15 14  1  0  0  0  0
 17 11  1  0  0  0  0
 18 17  1  0  0  0  0
 19 20  1  0  0  0  0
 19  2  1  0  0  0  0
 21 22  1  0  0  0  0
 22 20  1  0  0  0  0
 22 23  1  0  0  0  0
 24 25  1  0  0  0  0
 25 22  1  0  0  0  0
M  END
>  <MODEL>
2

>  <REMARK>
 VINA RESULT:      -8.7      1.280      1.563
  Name = 
  6 active torsions:
  status: ('A' for Active; 'I' for Inactive)
    1  A    between atoms: N_3  and  C_4
    2  A    between atoms: C_4  and  C_22
    3  A    between atoms: C_6  and  C_12
    4  A    between atoms: C_6  and  C_22
    5  A    between atoms: C_7  and  C_14
    6  A    between atoms: C_8  and  C_13
                            x       y       z     vdW  Elec       q    Type
                         _______ _______ _______ _____ _____    ______ ____

>  <TORSDO>
F 6

$$$$
=
 OpenBabel11072415243D

 25 27  0  0  1  0  0  0  0  0999 V2000
  161.1690  206.9090  153.3220 C   0  0  0  0  0  3  0  0  0  0  0  0
  161.8690  209.2860  149.9740 N   0  0  0  0  0  0  0  0  0  0  0  0
  161.7460  207.8660  149.8210 C   0  0  0  0  0  3  0  0  0  0  0  0
  161.2800  205.6180  150.7410 C   0  0  1  0  0  3  0  0  0  0  0  0
  161.3000  204.9220  151.8910 C   0  0  0  0  0  3  0  0  0  0  0  0
  161.7430  209.8880  151.2700 C   0  0  0  0  0  3  0  0  0  0  0  0
  161.3150  207.1040  150.8320 C   0  0  0  0  0  0  0  0  0  0  0  0
  161.3370  205.5890  153.2090 C   0  0  0  0  0  3  0  0  0  0  0  0
  160.8450  207.7510  152.1210 C   0  0  0  0  0  0  0  0  0  0  0  0
  161.3050  209.1710  152.3060 C   0  0  0  0  0  3  0  0  0  0  0  0
  161.2280  203.5060  146.9910 C   0  0  0  0  0  0  0  0  0  0  0  0
  161.4260  204.8890  147.0140 C   0  0  0  0  0  3  0  0  0  0  0  0
  161.2500  204.8850  149.4440 C   0  0  0  0  0  0  0  0  0  0  0  0
  161.0710  203.4940  149.4060 C   0  0  0  0  0  3  0  0  0  0  0  0
  161.0590  202.8070  148.1890 C   0  0  0  0  0  3  0  0  0  0  0  0
  161.4370  205.5740  148.2310 C   0  0  0  0  0  3  0  0  0  0  0  0
  161.2390  202.7730  145.6960 C   0  0  0  0  0  2  0  0  0  0  0  0
  160.4040  201.6590  145.7770 O   0  0  0  0  0  1  0  0  0  0  0  0
  162.2610  210.0960  148.8310 C   0  0  0  0  0  2  0  0  0  0  0  0
  162.1750  211.5890  149.1480 C   0  0  0  0  0  2  0  0  0  0  0  0
  162.8540  212.6820  147.1280 O   0  0  0  0  0  1  0  0  0  0  0  0
  161.7550  212.4470  147.9560 C   0  0  0  0  0  0  0  0  0  0  0  0
  160.7500  211.8000  147.2310 O   0  0  0  0  0  1  0  0  0  0  0  0
  160.3970  213.5680  149.6600 N   0  0  0  0  0  1  0  0  0  0  0  0
  161.2270  213.7730  148.4840 C   0  0  0  0  0  2  0  0  0  0  0  0
  2  6  1  0  0  0  0
  3  2  1  0  0  0  0
  3  7  2  0  0  0  0
  4 13  1  6  0  0  0
  4  7  1  0  0  0  0
  4  5  1  0  0  0  0
  5  8  2  0  0  0  0
  6 10  2  0  0  0  0
  7  9  1  0  0  0  0
  8  1  1  0  0  0  0
  9 10  1  0  0  0  0
  9  1  2  0  0  0  0
 11 12  2  0  0  0  0
 11 15  1  0  0  0  0
 12 16  1  0  0  0  0
 14 13  1  0  0  0  0
 15 14  2  0  0  0  0
 16 13  2  0  0  0  0
 17 18  1  0  0  0  0
 17 11  1  0  0  0  0
 19 20  1  0  0  0  0
 19  2  1  0  0  0  0
 21 22  1  0  0  0  0
 22 25  1  0  0  0  0
 22 20  1  0  0  0  0
 23 22  1  0  0  0  0
 25 24  1  0  0  0  0
M  END
>  <MODEL>
3

>  <REMARK>
 VINA RESULT:      -8.7      1.521      1.922
  Name = 
  6 active torsions:
  status: ('A' for Active; 'I' for Inactive)
    1  A    between atoms: N_3  and  C_4
    2  A    between atoms: C_4  and  C_22
    3  A    between atoms: C_6  and  C_12
    4  A    between atoms: C_6  and  C_22
    5  A    between atoms: C_7  and  C_14
    6  A    between atoms: C_8  and  C_13
                            x       y       z     vdW  Elec       q    Type
                         _______ _______ _______ _____ _____    ______ ____

>  <TORSDO>
F 6

$$$$
=
 OpenBabel11072415243D

 25 27  0  0  1  0  0  0  0  0999 V2000
  161.0750  205.0900  153.4950 C   0  0  0  0  0  3  0  0  0  0  0  0
  161.0850  204.2040  149.4260 N   0  0  0  0  0  0  0  0  0  0  0  0
  161.1960  205.5670  149.8530 C   0  0  0  0  0  3  0  0  0  0  0  0
  161.4200  207.2710  151.6330 C   0  0  1  0  0  3  0  0  0  0  0  0
  161.1640  207.4770  152.9360 C   0  0  0  0  0  3  0  0  0  0  0  0
  160.9800  203.1490  150.3920 C   0  0  0  0  0  3  0  0  0  0  0  0
  161.4080  205.8650  151.1390 C   0  0  0  0  0  0  0  0  0  0  0  0
  160.8960  206.3610  153.8680 C   0  0  0  0  0  3  0  0  0  0  0  0
  161.6430  204.7550  152.1460 C   0  0  0  0  0  0  0  0  0  0  0  0
  161.1940  203.3950  151.6840 C   0  0  0  0  0  3  0  0  0  0  0  0
  162.1240  210.6460  149.0560 C   0  0  0  0  0  0  0  0  0  0  0  0
  162.0280  209.3600  148.5170 C   0  0  0  0  0  3  0  0  0  0  0  0
  161.6750  208.4400  150.7450 C   0  0  0  0  0  0  0  0  0  0  0  0
  161.7560  209.7390  151.2700 C   0  0  0  0  0  3  0  0  0  0  0  0
  161.9800  210.8350  150.4320 C   0  0  0  0  0  3  0  0  0  0  0  0
  161.8040  208.2650  149.3550 C   0  0  0  0  0  3  0  0  0  0  0  0
  162.3390  211.8140  148.1600 C   0  0  0  0  0  2  0  0  0  0  0  0
  161.2150  212.0060  147.3570 O   0  0  0  0  0  1  0  0  0  0  0  0
  160.9380  203.9100  148.0080 C   0  0  0  0  0  2  0  0  0  0  0  0
  161.5430  205.0160  147.1420 C   0  0  0  0  0  2  0  0  0  0  0  0
  163.3740  204.5880  145.6580 O   0  0  0  0  0  1  0  0  0  0  0  0
  161.9820  204.5410  145.7590 C   0  0  0  0  0  0  0  0  0  0  0  0
  161.5400  203.2330  145.5380 O   0  0  0  0  0  1  0  0  0  0  0  0
  160.2470  206.2030  145.2800 N   0  0  0  0  0  1  0  0  0  0  0  0
  161.3680  205.4670  144.7190 C   0  0  0  0  0  2  0  0  0  0  0  0
  1  8  1  0  0  0  0
  2  3  1  0  0  0  0
  2  6  1  0  0  0  0
  3  7  2  0  0  0  0
  4 13  1  6  0  0  0
  4  5  1  0  0  0  0
  5  8  2  0  0  0  0
  6 10  2  0  0  0  0
  7  4  1  0  0  0  0
  7  9  1  0  0  0  0
  9  1  2  0  0  0  0
 10  9  1  0  0  0  0
 11 15  1  0  0  0  0
 12 11  2  0  0  0  0
 12 16  1  0  0  0  0
 13 14  1  0  0  0  0
 15 14  2  0  0  0  0
 16 13  2  0  0  0  0
 17 11  1  0  0  0  0
 18 17  1  0  0  0  0
 19  2  1  0  0  0  0
 20 19  1  0  0  0  0
 21 22  1  0  0  0  0
 22 20  1  0  0  0  0
 23 22  1  0  0  0  0
 25 24  1  0  0  0  0
 25 22  1  0  0  0  0
M  END
>  <MODEL>
4

>  <REMARK>
 VINA RESULT:      -8.7      2.309      5.849
  Name = 
  6 active torsions:
  status: ('A' for Active; 'I' for Inactive)
    1  A    between atoms: N_3  and  C_4
    2  A    between atoms: C_4  and  C_22
    3  A    between atoms: C_6  and  C_12
    4  A    between atoms: C_6  and  C_22
    5  A    between atoms: C_7  and  C_14
    6  A    between atoms: C_8  and  C_13
                            x       y       z     vdW  Elec       q    Type
                         _______ _______ _______ _____ _____    ______ ____

>  <TORSDO>
F 6

$$$$
=
 OpenBabel11072415243D

 25 27  0  0  1  0  0  0  0  0999 V2000
  160.9860  205.1800  153.7090 C   0  0  0  0  0  3  0  0  0  0  0  0
  160.9250  204.1740  149.6680 N   0  0  0  0  0  0  0  0  0  0  0  0
  161.0650  205.5470  150.0530 C   0  0  0  0  0  3  0  0  0  0  0  0
  161.3400  207.2980  151.7780 C   0  0  1  0  0  3  0  0  0  0  0  0
  161.1060  207.5460  153.0780 C   0  0  0  0  0  3  0  0  0  0  0  0
  160.8160  203.1490  150.6660 C   0  0  0  0  0  3  0  0  0  0  0  0
  161.2990  205.8790  151.3270 C   0  0  0  0  0  0  0  0  0  0  0  0
  160.8340  206.4630  154.0460 C   0  0  0  0  0  3  0  0  0  0  0  0
  161.5300  204.7950  152.3630 C   0  0  0  0  0  0  0  0  0  0  0  0
  161.0530  203.4300  151.9470 C   0  0  0  0  0  3  0  0  0  0  0  0
  162.1270  210.5860  149.1150 C   0  0  0  0  0  0  0  0  0  0  0  0
  162.0340  210.8060  150.4920 C   0  0  0  0  0  3  0  0  0  0  0  0
  161.6020  208.4360  150.8530 C   0  0  0  0  0  0  0  0  0  0  0  0
  161.7160  208.2280  149.4690 C   0  0  0  0  0  3  0  0  0  0  0  0
  161.9770  209.2950  148.6050 C   0  0  0  0  0  3  0  0  0  0  0  0
  161.7730  209.7390  151.3550 C   0  0  0  0  0  3  0  0  0  0  0  0
  162.4280  211.7190  148.1990 C   0  0  0  0  0  2  0  0  0  0  0  0
  161.3100  212.0010  147.4140 O   0  0  0  0  0  1  0  0  0  0  0  0
  160.7540  203.8410  148.2620 C   0  0  0  0  0  2  0  0  0  0  0  0
  161.9950  204.2040  147.4450 C   0  0  0  0  0  2  0  0  0  0  0  0
  160.4310  205.7480  146.4930 O   0  0  0  0  0  1  0  0  0  0  0  0
  161.7690  205.3520  146.4640 C   0  0  0  0  0  0  0  0  0  0  0  0
  162.5860  206.4360  146.7980 O   0  0  0  0  0  1  0  0  0  0  0  0
  161.2800  205.5000  144.0680 N   0  0  0  0  0  1  0  0  0  0  0  0
  162.1210  204.8620  145.0670 C   0  0  0  0  0  2  0  0  0  0  0  0
  1  8  1  0  0  0  0
  2  3  1  0  0  0  0
  2  6  1  0  0  0  0
  3  7  2  0  0  0  0
  4 13  1  6  0  0  0
  4  5  1  0  0  0  0
  5  8  2  0  0  0  0
  6 10  2  0  0  0  0
  7  4  1  0  0  0  0
  7  9  1  0  0  0  0
  9  1  2  0  0  0  0
 10  9  1  0  0  0  0
 11 12  1  0  0  0  0
 12 16  2  0  0  0  0
 13 16  1  0  0  0  0
 14 13  2  0  0  0  0
 15 11  2  0  0  0  0
 15 14  1  0  0  0  0
 17 11  1  0  0  0  0
 18 17  1  0  0  0  0
 19  2  1  0  0  0  0
 20 19  1  0  0  0  0
 22 21  1  0  0  0  0
 22 23  1  0  0  0  0
 22 20  1  0  0  0  0
 24 25  1  0  0  0  0
 25 22  1  0  0  0  0
M  END
>  <MODEL>
5

>  <REMARK>
 VINA RESULT:      -8.0      2.424      5.659
  Name = 
  6 active torsions:
  status: ('A' for Active; 'I' for Inactive)
    1  A    between atoms: N_3  and  C_4
    2  A    between atoms: C_4  and  C_22
    3  A    between atoms: C_6  and  C_12
    4  A    between atoms: C_6  and  C_22
    5  A    between atoms: C_7  and  C_14
    6  A    between atoms: C_8  and  C_13
                            x       y       z     vdW  Elec       q    Type
                         _______ _______ _______ _____ _____    ______ ____

>  <TORSDO>
F 6

$$$$
=
 OpenBabel11072415243D

 25 27  0  0  1  0  0  0  0  0999 V2000
  161.9560  209.4330  149.2080 C   0  0  0  0  0  3  0  0  0  0  0  0
  161.2390  207.6950  152.9250 N   0  0  0  0  0  0  0  0  0  0  0  0
  161.1580  206.8920  151.7410 C   0  0  0  0  0  3  0  0  0  0  0  0
  161.4140  206.5980  149.2980 C   0  0  1  0  0  3  0  0  0  0  0  0
  161.4200  207.2890  148.1460 C   0  0  0  0  0  3  0  0  0  0  0  0
  161.5740  209.0870  152.8340 C   0  0  0  0  0  3  0  0  0  0  0  0
  161.5850  207.3630  150.5650 C   0  0  0  0  0  0  0  0  0  0  0  0
  161.6050  208.7550  148.1120 C   0  0  0  0  0  3  0  0  0  0  0  0
  162.2650  208.7180  150.4920 C   0  0  0  0  0  0  0  0  0  0  0  0
  162.0170  209.6000  151.6860 C   0  0  0  0  0  3  0  0  0  0  0  0
  160.8730  202.3290  149.1960 C   0  0  0  0  0  0  0  0  0  0  0  0
  161.2230  203.0190  148.0320 C   0  0  0  0  0  3  0  0  0  0  0  0
  161.2150  205.1220  149.2640 C   0  0  0  0  0  0  0  0  0  0  0  0
  160.8810  204.4120  150.4280 C   0  0  0  0  0  3  0  0  0  0  0  0
  160.7100  203.0260  150.3950 C   0  0  0  0  0  3  0  0  0  0  0  0
  161.3930  204.4060  148.0660 C   0  0  0  0  0  3  0  0  0  0  0  0
  160.7150  200.8500  149.1650 C   0  0  0  0  0  2  0  0  0  0  0  0
  161.5250  200.3100  148.1660 O   0  0  0  0  0  1  0  0  0  0  0  0
  160.8430  207.1240  154.2030 C   0  0  0  0  0  2  0  0  0  0  0  0
  160.0970  208.1450  155.0640 C   0  0  0  0  0  2  0  0  0  0  0  0
  159.9960  207.1960  157.2610 O   0  0  0  0  0  1  0  0  0  0  0  0
  160.5910  208.2090  156.5070 C   0  0  0  0  0  0  0  0  0  0  0  0
  161.9820  208.0660  156.5440 O   0  0  0  0  0  1  0  0  0  0  0  0
  159.6470  210.4240  156.0540 N   0  0  0  0  0  1  0  0  0  0  0  0
  160.2050  209.5630  157.0840 C   0  0  0  0  0  2  0  0  0  0  0  0
  1  9  2  0  0  0  0
  2 19  1  0  0  0  0
  3  2  1  0  0  0  0
  4 13  1  1  0  0  0
  4  7  1  0  0  0  0
  5  4  1  0  0  0  0
  6  2  1  0  0  0  0
  7  3  2  0  0  0  0
  8  5  2  0  0  0  0
  8  1  1  0  0  0  0
  9  7  1  0  0  0  0
  9 10  1  0  0  0  0
 10  6  2  0  0  0  0
 11 15  1  0  0  0  0
 12 16  1  0  0  0  0
 12 11  2  0  0  0  0
 13 14  1  0  0  0  0
 15 14  2  0  0  0  0
 16 13  2  0  0  0  0
 17 11  1  0  0  0  0
 18 17  1  0  0  0  0
 19 20  1  0  0  0  0
 20 22  1  0  0  0  0
 22 23  1  0  0  0  0
 22 25  1  0  0  0  0
 22 21  1  0  0  0  0
 24 25  1  0  0  0  0
M  END
>  <MODEL>
6

>  <REMARK>
 VINA RESULT:      -8.0      3.842      5.697
  Name = 
  6 active torsions:
  status: ('A' for Active; 'I' for Inactive)
    1  A    between atoms: N_3  and  C_4
    2  A    between atoms: C_4  and  C_22
    3  A    between atoms: C_6  and  C_12
    4  A    between atoms: C_6  and  C_22
    5  A    between atoms: C_7  and  C_14
    6  A    between atoms: C_8  and  C_13
                            x       y       z     vdW  Elec       q    Type
                         _______ _______ _______ _____ _____    ______ ____

>  <TORSDO>
F 6

$$$$
=
 OpenBabel11072415243D

 25 27  0  0  1  0  0  0  0  0999 V2000
  161.2040  208.3470  153.4810 C   0  0  0  0  0  3  0  0  0  0  0  0
  161.9150  208.2240  149.3790 N   0  0  0  0  0  0  0  0  0  0  0  0
  161.6930  207.0030  150.0960 C   0  0  0  0  0  3  0  0  0  0  0  0
  161.1190  205.7770  152.1660 C   0  0  0  0  0  0  0  0  0  0  0  0
  161.1410  205.8960  153.5050 C   0  0  0  0  0  3  0  0  0  0  0  0
  161.8850  209.4830  150.0670 C   0  0  0  0  0  3  0  0  0  0  0  0
  161.2560  207.0220  151.3590 C   0  0  0  0  0  0  0  0  0  0  0  0
  161.2790  207.2070  154.1730 C   0  0  0  0  0  3  0  0  0  0  0  0
  160.8850  208.3400  152.0140 C   0  0  2  0  0  3  0  0  0  0  0  0
  161.4460  209.5530  151.3230 C   0  0  0  0  0  3  0  0  0  0  0  0
  160.7610  201.8770  150.3800 C   0  0  0  0  0  0  0  0  0  0  0  0
  160.4750  203.0210  149.6290 C   0  0  0  0  0  3  0  0  0  0  0  0
  160.9850  204.4250  151.5540 C   0  0  0  0  0  0  0  0  0  0  0  0
  161.2860  203.2680  152.2900 C   0  0  0  0  0  3  0  0  0  0  0  0
  161.1740  202.0030  151.7080 C   0  0  0  0  0  3  0  0  0  0  0  0
  160.5860  204.2860  150.2120 C   0  0  0  0  0  3  0  0  0  0  0  0
  160.6640  200.5320  149.7530 C   0  0  0  0  0  2  0  0  0  0  0  0
  161.1970  200.5730  148.4640 O   0  0  0  0  0  1  0  0  0  0  0  0
  162.3110  208.1690  147.9800 C   0  0  0  0  0  2  0  0  0  0  0  0
  162.9550  206.8260  147.6340 C   0  0  0  0  0  2  0  0  0  0  0  0
  162.7160  205.9970  145.3990 O   0  0  0  0  0  1  0  0  0  0  0  0
  162.1290  205.9810  146.6660 C   0  0  0  0  0  0  0  0  0  0  0  0
  162.0480  204.6640  147.1290 O   0  0  0  0  0  1  0  0  0  0  0  0
  160.0820  206.2020  145.3390 N   0  0  0  0  0  1  0  0  0  0  0  0
  160.7320  206.5780  146.5840 C   0  0  0  0  0  2  0  0  0  0  0  0
  1  8  2  0  0  0  0
  2  6  1  0  0  0  0
  2  3  1  0  0  0  0
  3  7  2  0  0  0  0
  4  5  2  0  0  0  0
  5  8  1  0  0  0  0
  6 10  2  0  0  0  0
  7  9  1  0  0  0  0
  7  4  1  0  0  0  0
  9 10  1  6  0  0  0
  9  1  1  0  0  0  0
 11 15  1  0  0  0  0
 12 16  1  0  0  0  0
 12 11  2  0  0  0  0
 13  4  1  0  0  0  0
 13 14  1  0  0  0  0
 15 14  2  0  0  0  0
 16 13  2  0  0  0  0
 17 11  1  0  0  0  0
 18 17  1  0  0  0  0
 19  2  1  0  0  0  0
 20 19  1  0  0  0  0
 21 22  1  0  0  0  0
 22 23  1  0  0  0  0
 22 20  1  0  0  0  0
 24 25  1  0  0  0  0
 25 22  1  0  0  0  0
M  END
>  <MODEL>
7

>  <REMARK>
 VINA RESULT:      -8.0      2.885      4.646
  Name = 
  6 active torsions:
  status: ('A' for Active; 'I' for Inactive)
    1  A    between atoms: N_3  and  C_4
    2  A    between atoms: C_4  and  C_22
    3  A    between atoms: C_6  and  C_12
    4  A    between atoms: C_6  and  C_22
    5  A    between atoms: C_7  and  C_14
    6  A    between atoms: C_8  and  C_13
                            x       y       z     vdW  Elec       q    Type
                         _______ _______ _______ _____ _____    ______ ____

>  <TORSDO>
F 6

$$$$
=
 OpenBabel11072415243D

 25 27  0  0  1  0  0  0  0  0999 V2000
  161.1210  202.8130  152.0610 C   0  0  0  0  0  3  0  0  0  0  0  0
  161.6770  206.9330  151.8220 N   0  0  0  0  0  0  0  0  0  0  0  0
  161.5890  206.1600  150.6190 C   0  0  0  0  0  3  0  0  0  0  0  0
  161.2060  204.0200  149.4390 C   0  0  1  0  0  3  0  0  0  0  0  0
  161.2720  202.6900  149.6160 C   0  0  0  0  0  3  0  0  0  0  0  0
  161.5650  206.2950  153.1020 C   0  0  0  0  0  3  0  0  0  0  0  0
  161.2030  204.8810  150.6550 C   0  0  0  0  0  0  0  0  0  0  0  0
  161.3220  202.0810  150.9620 C   0  0  0  0  0  3  0  0  0  0  0  0
  160.7460  204.2630  151.9630 C   0  0  0  0  0  0  0  0  0  0  0  0
  161.1710  205.0250  153.1890 C   0  0  0  0  0  3  0  0  0  0  0  0
  161.1160  205.6340  145.4490 C   0  0  0  0  0  0  0  0  0  0  0  0
  160.6650  206.4020  146.5270 C   0  0  0  0  0  3  0  0  0  0  0  0
  161.1660  204.5720  148.0550 C   0  0  0  0  0  0  0  0  0  0  0  0
  161.6330  203.8200  146.9660 C   0  0  0  0  0  3  0  0  0  0  0  0
  161.6090  204.3460  145.6710 C   0  0  0  0  0  3  0  0  0  0  0  0
  160.6900  205.8740  147.8200 C   0  0  0  0  0  3  0  0  0  0  0  0
  161.1110  206.2040  144.0750 C   0  0  0  0  0  2  0  0  0  0  0  0
  161.6230  205.2700  143.1750 O   0  0  0  0  0  1  0  0  0  0  0  0
  162.0200  208.3450  151.7410 C   0  0  0  0  0  2  0  0  0  0  0  0
  160.8070  209.2320  152.0250 C   0  0  0  0  0  2  0  0  0  0  0  0
  160.3540  209.7390  154.3220 O   0  0  0  0  0  1  0  0  0  0  0  0
  161.0170  210.2040  153.1850 C   0  0  0  0  0  0  0  0  0  0  0  0
  162.3810  210.3370  153.4590 O   0  0  0  0  0  1  0  0  0  0  0  0
  159.7500  212.1750  153.9010 N   0  0  0  0  0  1  0  0  0  0  0  0
  160.4450  211.5560  152.7840 C   0  0  0  0  0  2  0  0  0  0  0  0
  2  6  1  0  0  0  0
  3  7  2  0  0  0  0
  3  2  1  0  0  0  0
  4 13  1  6  0  0  0
  4  5  1  0  0  0  0
  4  7  1  0  0  0  0
  5  8  2  0  0  0  0
  6 10  2  0  0  0  0
  7  9  1  0  0  0  0
  8  1  1  0  0  0  0
  9  1  2  0  0  0  0
  9 10  1  0  0  0  0
 11 15  2  0  0  0  0
 11 12  1  0  0  0  0
 12 16  2  0  0  0  0
 14 13  2  0  0  0  0
 15 14  1  0  0  0  0
 16 13  1  0  0  0  0
 17 11  1  0  0  0  0
 18 17  1  0  0  0  0
 19  2  1  0  0  0  0
 19 20  1  0  0  0  0
 20 22  1  0  0  0  0
 22 23  1  0  0  0  0
 22 21  1  0  0  0  0
 25 22  1  0  0  0  0
 25 24  1  0  0  0  0
M  END
>  <MODEL>
8

>  <REMARK>
 VINA RESULT:      -7.8      3.000      3.654
  Name = 
  6 active torsions:
  status: ('A' for Active; 'I' for Inactive)
    1  A    between atoms: N_3  and  C_4
    2  A    between atoms: C_4  and  C_22
    3  A    between atoms: C_6  and  C_12
    4  A    between atoms: C_6  and  C_22
    5  A    between atoms: C_7  and  C_14
    6  A    between atoms: C_8  and  C_13
                            x       y       z     vdW  Elec       q    Type
                         _______ _______ _______ _____ _____    ______ ____

>  <TORSDO>
F 6

$$$$
=
 OpenBabel11072415243D

 25 27  0  0  1  0  0  0  0  0999 V2000
  161.0910  205.6870  153.8510 C   0  0  0  0  0  3  0  0  0  0  0  0
  160.9120  204.4910  149.8650 N   0  0  0  0  0  0  0  0  0  0  0  0
  161.0750  205.8790  150.1810 C   0  0  0  0  0  3  0  0  0  0  0  0
  161.4140  207.7070  151.8130 C   0  0  1  0  0  3  0  0  0  0  0  0
  161.2170  208.0190  153.1050 C   0  0  0  0  0  3  0  0  0  0  0  0
  160.8190  203.5160  150.9140 C   0  0  0  0  0  3  0  0  0  0  0  0
  161.3460  206.2690  151.4310 C   0  0  0  0  0  0  0  0  0  0  0  0
  160.9600  206.9860  154.1300 C   0  0  0  0  0  3  0  0  0  0  0  0
  161.5940  205.2320  152.5110 C   0  0  0  0  0  0  0  0  0  0  0  0
  161.0930  203.8550  152.1740 C   0  0  0  0  0  3  0  0  0  0  0  0
  162.0970  210.8510  148.9540 C   0  0  0  0  0  0  0  0  0  0  0  0
  162.0380  209.5200  148.5320 C   0  0  0  0  0  3  0  0  0  0  0  0
  161.6610  208.7970  150.8270 C   0  0  0  0  0  0  0  0  0  0  0  0
  161.7040  210.1400  151.2340 C   0  0  0  0  0  3  0  0  0  0  0  0
  161.9210  211.1610  150.3050 C   0  0  0  0  0  3  0  0  0  0  0  0
  161.8220  208.5000  149.4620 C   0  0  0  0  0  3  0  0  0  0  0  0
  162.3040  211.9390  147.9600 C   0  0  0  0  0  2  0  0  0  0  0  0
  163.5290  212.5640  148.1940 O   0  0  0  0  0  1  0  0  0  0  0  0
  160.6990  204.0940  148.4820 C   0  0  0  0  0  2  0  0  0  0  0  0
  161.6260  202.9450  148.0820 C   0  0  0  0  0  2  0  0  0  0  0  0
  161.6740  200.5580  148.2740 O   0  0  0  0  0  1  0  0  0  0  0  0
  160.8960  201.6280  147.8270 C   0  0  0  0  0  0  0  0  0  0  0  0
  159.6670  201.6240  148.4930 O   0  0  0  0  0  1  0  0  0  0  0  0
  161.1480  202.6670  145.6230 N   0  0  0  0  0  1  0  0  0  0  0  0
  160.6630  201.4930  146.3300 C   0  0  0  0  0  2  0  0  0  0  0  0
  1  8  1  0  0  0  0
  2  3  1  0  0  0  0
  2  6  1  0  0  0  0
  3  7  2  0  0  0  0
  4 13  1  6  0  0  0
  4  5  1  0  0  0  0
  5  8  2  0  0  0  0
  6 10  2  0  0  0  0
  7  4  1  0  0  0  0
  7  9  1  0  0  0  0
  9  1  2  0  0  0  0
 10  9  1  0  0  0  0
 11 15  1  0  0  0  0
 12 11  2  0  0  0  0
 12 16  1  0  0  0  0
 13 14  1  0  0  0  0
 15 14  2  0  0  0  0
 16 13  2  0  0  0  0
 17 18  1  0  0  0  0
 17 11  1  0  0  0  0
 19  2  1  0  0  0  0
 20 19  1  0  0  0  0
 22 20  1  0  0  0  0
 22 21  1  0  0  0  0
 22 23  1  0  0  0  0
 24 25  1  0  0  0  0
 25 22  1  0  0  0  0
M  END
>  <MODEL>
9

>  <REMARK>
 VINA RESULT:      -7.6      3.036      6.821
  Name = 
  6 active torsions:
  status: ('A' for Active; 'I' for Inactive)
    1  A    between atoms: N_3  and  C_4
    2  A    between atoms: C_4  and  C_22
    3  A    between atoms: C_6  and  C_12
    4  A    between atoms: C_6  and  C_22
    5  A    between atoms: C_7  and  C_14
    6  A    between atoms: C_8  and  C_13
                            x       y       z     vdW  Elec       q    Type
                         _______ _______ _______ _____ _____    ______ ____

>  <TORSDO>
F 6

$$$$
