=
 OpenBabel11072413093D

 35 38  0  0  1  0  0  0  0  0999 V2000
  160.3750  211.8280  154.0270 N   0  0  0  0  0  0  0  0  0  0  0  0
  161.0630  210.7640  154.2780 C   0  0  0  0  0  3  0  0  0  0  0  0
  159.4030  211.9020  152.9640 C   0  0  1  0  0  3  0  0  0  0  0  0
  158.4160  212.8460  153.3040 O   0  0  0  0  0  0  0  0  0  0  0  0
  159.3950  213.2590  152.3830 C   0  0  2  0  0  3  0  0  0  0  0  0
  158.8190  213.2060  150.9840 C   0  0  0  0  0  2  0  0  0  0  0  0
  159.6830  214.0160  150.0360 C   0  0  0  0  0  2  0  0  0  0  0  0
  159.8000  213.3290  148.7590 N   0  0  0  0  0  2  0  0  0  0  0  0
  161.9770  212.6890  147.7880 C   0  0  0  0  0  0  0  0  0  0  0  0
  160.0350  212.4010  146.1140 C   0  0  0  0  0  1  0  0  0  0  0  0
  161.0100  213.8250  148.1100 C   0  0  1  0  0  3  0  0  0  0  0  0
  163.3270  213.0410  147.8580 O   0  0  0  0  0  1  0  0  0  0  0  0
  161.6300  211.4210  148.2700 O   0  0  0  0  0  1  0  0  0  0  0  0
  161.1440  213.2910  146.6730 C   0  0  1  0  0  0  0  0  0  0  0  0
  161.8850  214.2180  145.7160 C   0  0  0  0  0  2  0  0  0  0  0  0
  163.4870  213.0440  144.3960 O   0  0  0  0  0  1  0  0  0  0  0  0
  161.4060  213.2680  143.4540 O   0  0  0  0  0  0  0  0  0  0  0  0
  162.3120  213.4860  144.4870 C   0  0  0  0  0  0  0  0  0  0  0  0
  160.9130  209.4930  153.5000 C   0  0  0  0  0  2  0  0  0  0  0  0
  161.8210  209.4990  152.3680 N   0  0  0  0  0  2  0  0  0  0  0  0
  161.2400  208.6270  151.3600 C   0  0  0  0  0  2  0  0  0  0  0  0
  161.8520  206.0490  152.0390 S   0  0  0  0  0  0  0  0  0  0  0  0
  162.0570  207.1420  149.6210 N   0  0  0  0  0  2  0  0  0  0  0  0
  162.2170  207.5200  151.0150 C   0  0  1  0  0  3  0  0  0  0  0  0
  161.5610  205.8250  149.4340 C   0  0  0  0  0  0  0  0  0  0  0  0
  161.3670  205.1560  150.5680 C   0  0  0  0  0  0  0  0  0  0  0  0
  161.8290  203.9680  145.3430 C   0  0  0  0  0  3  0  0  0  0  0  0
  161.2820  203.3010  146.5610 C   0  0  0  0  0  2  0  0  0  0  0  0
  161.4930  205.2050  144.9840 C   0  0  0  0  0  3  0  0  0  0  0  0
  160.6310  206.1080  145.7700 C   0  0  0  0  0  3  0  0  0  0  0  0
  161.2950  205.3060  148.0700 C   0  0  0  0  0  0  0  0  0  0  0  0
  161.6340  204.0340  147.8130 C   0  0  0  0  0  3  0  0  0  0  0  0
  160.5440  206.1460  147.1050 C   0  0  0  0  0  3  0  0  0  0  0  0
  160.7000  203.8240  150.6790 C   0  0  0  0  0  2  0  0  0  0  0  0
  161.1830  203.1490  151.8050 O   0  0  0  0  0  1  0  0  0  0  0  0
  1  2  2  0  0  0  0
  3  4  1  0  0  0  0
  3  1  1  1  0  0  0
  5  6  1  6  0  0  0
  5  3  1  0  0  0  0
  5  4  1  0  0  0  0
  7  6  1  0  0  0  0
  8  7  1  0  0  0  0
  9 12  1  0  0  0  0
  9 11  1  0  0  0  0
  9 13  1  0  0  0  0
 11  8  1  1  0  0  0
 14 10  1  6  0  0  0
 14  9  1  0  0  0  0
 14 11  1  0  0  0  0
 15 14  1  0  0  0  0
 16 18  1  0  0  0  0
 17 18  2  0  0  0  0
 18 15  1  0  0  0  0
 19  2  1  0  0  0  0
 20 19  1  0  0  0  0
 21 20  1  0  0  0  0
 23 24  1  0  0  0  0
 24 21  1  1  0  0  0
 24 22  1  0  0  0  0
 25 23  1  0  0  0  0
 25 26  2  0  0  0  0
 26 34  1  0  0  0  0
 26 22  1  0  0  0  0
 27 28  1  0  0  0  0
 28 32  1  0  0  0  0
 29 27  2  0  0  0  0
 29 30  1  0  0  0  0
 30 33  2  0  0  0  0
 31 25  1  0  0  0  0
 32 31  2  0  0  0  0
 33 31  1  0  0  0  0
 34 35  1  0  0  0  0
M  END
>  <MODEL>
1

>  <REMARK>
 VINA RESULT:      -7.2      0.000      0.000
  Name = 
  13 active torsions:
  status: ('A' for Active; 'I' for Inactive)
    1  A    between atoms: N_1  and  C_17
    2  A    between atoms: C_2  and  C_30
    3  A    between atoms: C_9  and  N_25
    4  A    between atoms: C_10  and  C_24
    5  A    between atoms: C_10  and  N_32
    6  A    between atoms: C_12  and  C_18
    7  A    between atoms: C_12  and  N_25
    8  A    between atoms: C_13  and  C_33
    9  A    between atoms: C_18  and  C_21
   10  A    between atoms: C_23  and  C_26
   11  A    between atoms: C_23  and  C_27
   12  A    between atoms: C_29  and  C_31
   13  A    between atoms: N_32  and  C_33
                            x       y       z     vdW  Elec       q    Type
                         _______ _______ _______ _____ _____    ______ ____

>  <TORSDO>
F 13

$$$$
=
 OpenBabel11072413093D

 35 38  0  0  1  0  0  0  0  0999 V2000
  161.2790  206.9800  154.5320 N   0  0  0  0  0  0  0  0  0  0  0  0
  161.5320  207.3060  153.3080 C   0  0  0  0  0  3  0  0  0  0  0  0
  160.2570  207.6220  155.3210 C   0  0  1  0  0  3  0  0  0  0  0  0
  160.1310  206.9510  156.5510 O   0  0  0  0  0  0  0  0  0  0  0  0
  160.8450  208.1620  156.5630 C   0  0  2  0  0  3  0  0  0  0  0  0
  159.9560  209.2610  157.1060 C   0  0  0  0  0  2  0  0  0  0  0  0
  160.7390  210.5560  157.2160 C   0  0  0  0  0  2  0  0  0  0  0  0
  159.9170  211.6730  156.7770 N   0  0  0  0  0  2  0  0  0  0  0  0
  157.6100  211.6950  155.8990 C   0  0  0  0  0  0  0  0  0  0  0  0
  158.9730  213.7440  155.1230 C   0  0  0  0  0  1  0  0  0  0  0  0
  159.0350  211.1760  155.7250 C   0  0  1  0  0  3  0  0  0  0  0  0
  156.6160  210.8090  155.4750 O   0  0  0  0  0  1  0  0  0  0  0  0
  157.3510  212.4220  157.0670 O   0  0  0  0  0  1  0  0  0  0  0  0
  158.5030  212.3180  154.8420 C   0  0  1  0  0  0  0  0  0  0  0  0
  158.2020  211.9210  153.4010 C   0  0  0  0  0  2  0  0  0  0  0  0
  160.4440  211.8540  152.5910 O   0  0  0  0  0  1  0  0  0  0  0  0
  159.0430  213.3080  151.4990 O   0  0  0  0  0  0  0  0  0  0  0  0
  159.2960  212.3610  152.4860 C   0  0  0  0  0  0  0  0  0  0  0  0
  160.7800  208.3770  152.5770 C   0  0  0  0  0  2  0  0  0  0  0  0
  161.4790  208.7200  151.3530 N   0  0  0  0  0  2  0  0  0  0  0  0
  161.9100  207.4680  150.7520 C   0  0  0  0  0  2  0  0  0  0  0  0
  162.0080  207.4540  148.0190 S   0  0  0  0  0  0  0  0  0  0  0  0
  160.6680  205.7520  149.5650 N   0  0  0  0  0  2  0  0  0  0  0  0
  161.0460  207.1540  149.5460 C   0  0  1  0  0  3  0  0  0  0  0  0
  161.2250  204.9900  148.5040 C   0  0  0  0  0  0  0  0  0  0  0  0
  161.9640  205.7040  147.6580 C   0  0  0  0  0  0  0  0  0  0  0  0
  161.3660  200.5070  148.8740 C   0  0  0  0  0  3  0  0  0  0  0  0
  160.4730  201.4120  149.6570 C   0  0  0  0  0  2  0  0  0  0  0  0
  161.5210  200.6080  147.5560 C   0  0  0  0  0  3  0  0  0  0  0  0
  160.9240  201.6620  146.7140 C   0  0  0  0  0  3  0  0  0  0  0  0
  160.9750  203.5310  148.4110 C   0  0  0  0  0  0  0  0  0  0  0  0
  160.8900  202.8420  149.5570 C   0  0  0  0  0  3  0  0  0  0  0  0
  160.6850  202.9250  147.0880 C   0  0  0  0  0  3  0  0  0  0  0  0
  162.8000  205.1390  146.5560 C   0  0  0  0  0  2  0  0  0  0  0  0
  162.2420  205.4820  145.3200 O   0  0  0  0  0  1  0  0  0  0  0  0
  2  1  2  0  0  0  0
  3  1  1  6  0  0  0
  3  4  1  0  0  0  0
  3  5  1  0  0  0  0
  4  5  1  0  0  0  0
  5  6  1  1  0  0  0
  6  7  1  0  0  0  0
  8  7  1  0  0  0  0
  9 13  1  0  0  0  0
 11  9  1  0  0  0  0
 11  8  1  1  0  0  0
 12  9  1  0  0  0  0
 14 10  1  1  0  0  0
 14 11  1  0  0  0  0
 14  9  1  0  0  0  0
 15 14  1  0  0  0  0
 17 18  2  0  0  0  0
 18 16  1  0  0  0  0
 18 15  1  0  0  0  0
 19  2  1  0  0  0  0
 20 19  1  0  0  0  0
 21 20  1  0  0  0  0
 22 24  1  0  0  0  0
 24 23  1  0  0  0  0
 24 21  1  1  0  0  0
 25 23  1  0  0  0  0
 26 22  1  0  0  0  0
 26 25  2  0  0  0  0
 27 28  1  0  0  0  0
 29 27  2  0  0  0  0
 30 33  2  0  0  0  0
 30 29  1  0  0  0  0
 31 25  1  0  0  0  0
 31 32  2  0  0  0  0
 32 28  1  0  0  0  0
 33 31  1  0  0  0  0
 34 26  1  0  0  0  0
 35 34  1  0  0  0  0
M  END
>  <MODEL>
2

>  <REMARK>
 VINA RESULT:      -7.0      4.092      6.281
  Name = 
  13 active torsions:
  status: ('A' for Active; 'I' for Inactive)
    1  A    between atoms: N_1  and  C_17
    2  A    between atoms: C_2  and  C_30
    3  A    between atoms: C_9  and  N_25
    4  A    between atoms: C_10  and  C_24
    5  A    between atoms: C_10  and  N_32
    6  A    between atoms: C_12  and  C_18
    7  A    between atoms: C_12  and  N_25
    8  A    between atoms: C_13  and  C_33
    9  A    between atoms: C_18  and  C_21
   10  A    between atoms: C_23  and  C_26
   11  A    between atoms: C_23  and  C_27
   12  A    between atoms: C_29  and  C_31
   13  A    between atoms: N_32  and  C_33
                            x       y       z     vdW  Elec       q    Type
                         _______ _______ _______ _____ _____    ______ ____

>  <TORSDO>
F 13

$$$$
=
 OpenBabel11072413093D

 35 38  0  0  1  0  0  0  0  0999 V2000
  160.3530  213.2020  149.0280 N   0  0  0  0  0  0  0  0  0  0  0  0
  161.2400  212.6170  148.2940 C   0  0  0  0  0  3  0  0  0  0  0  0
  160.2530  212.9980  150.4520 C   0  0  1  0  0  3  0  0  0  0  0  0
  159.8740  214.2060  151.0680 O   0  0  0  0  0  0  0  0  0  0  0  0
  158.8660  213.2410  150.8980 C   0  0  2  0  0  3  0  0  0  0  0  0
  158.6280  212.5310  152.2140 C   0  0  0  0  0  2  0  0  0  0  0  0
  159.0090  213.4380  153.3690 C   0  0  0  0  0  2  0  0  0  0  0  0
  159.1330  212.6610  154.5920 N   0  0  0  0  0  2  0  0  0  0  0  0
  161.0250  211.3750  155.5190 C   0  0  0  0  0  0  0  0  0  0  0  0
  158.7420  210.4530  156.2930 C   0  0  0  0  0  1  0  0  0  0  0  0
  160.0920  211.5910  154.3310 C   0  0  1  0  0  3  0  0  0  0  0  0
  162.3160  210.9690  155.1740 O   0  0  0  0  0  1  0  0  0  0  0  0
  160.9120  212.2890  156.5740 O   0  0  0  0  0  1  0  0  0  0  0  0
  159.8870  210.3990  155.2830 C   0  0  1  0  0  0  0  0  0  0  0  0
  160.2830  209.0460  154.7030 C   0  0  0  0  0  2  0  0  0  0  0  0
  159.5470  207.1790  155.9910 O   0  0  0  0  0  0  0  0  0  0  0  0
  161.6180  208.0030  156.5410 O   0  0  0  0  0  1  0  0  0  0  0  0
  160.4510  208.0290  155.7830 C   0  0  0  0  0  0  0  0  0  0  0  0
  162.2640  211.6740  148.8490 C   0  0  0  0  0  2  0  0  0  0  0  0
  161.8380  210.3030  148.6340 N   0  0  0  0  0  2  0  0  0  0  0  0
  161.8000  209.6680  149.9410 C   0  0  0  0  0  2  0  0  0  0  0  0
  162.0040  207.2670  151.2360 S   0  0  0  0  0  0  0  0  0  0  0  0
  162.3760  207.7020  148.6370 N   0  0  0  0  0  2  0  0  0  0  0  0
  162.5940  208.3760  149.9060 C   0  0  1  0  0  3  0  0  0  0  0  0
  161.6810  206.4690  148.7510 C   0  0  0  0  0  0  0  0  0  0  0  0
  161.3860  206.1300  150.0040 C   0  0  0  0  0  0  0  0  0  0  0  0
  161.7370  203.9250  145.0390 C   0  0  0  0  0  3  0  0  0  0  0  0
  161.4060  203.4430  146.4120 C   0  0  0  0  0  2  0  0  0  0  0  0
  161.2180  205.0340  144.5180 C   0  0  0  0  0  3  0  0  0  0  0  0
  160.3410  205.9760  145.2400 C   0  0  0  0  0  3  0  0  0  0  0  0
  161.3370  205.6830  147.5410 C   0  0  0  0  0  0  0  0  0  0  0  0
  161.7980  204.4260  147.4660 C   0  0  0  0  0  3  0  0  0  0  0  0
  160.3910  206.2510  146.5480 C   0  0  0  0  0  3  0  0  0  0  0  0
  160.5200  204.9810  150.4030 C   0  0  0  0  0  2  0  0  0  0  0  0
  160.8380  204.5840  151.7060 O   0  0  0  0  0  1  0  0  0  0  0  0
  2 19  1  0  0  0  0
  2  1  2  0  0  0  0
  3  1  1  6  0  0  0
  3  5  1  0  0  0  0
  3  4  1  0  0  0  0
  5  4  1  0  0  0  0
  5  6  1  1  0  0  0
  6  7  1  0  0  0  0
  7  8  1  0  0  0  0
  9 13  1  0  0  0  0
 11  8  1  1  0  0  0
 11 14  1  0  0  0  0
 11  9  1  0  0  0  0
 12  9  1  0  0  0  0
 14  9  1  0  0  0  0
 14 10  1  1  0  0  0
 15 14  1  0  0  0  0
 15 18  1  0  0  0  0
 18 16  2  0  0  0  0
 18 17  1  0  0  0  0
 20 19  1  0  0  0  0
 20 21  1  0  0  0  0
 23 25  1  0  0  0  0
 23 24  1  0  0  0  0
 24 21  1  6  0  0  0
 24 22  1  0  0  0  0
 25 26  2  0  0  0  0
 26 34  1  0  0  0  0
 26 22  1  0  0  0  0
 27 28  1  0  0  0  0
 28 32  1  0  0  0  0
 29 27  2  0  0  0  0
 29 30  1  0  0  0  0
 30 33  2  0  0  0  0
 31 25  1  0  0  0  0
 32 31  2  0  0  0  0
 33 31  1  0  0  0  0
 34 35  1  0  0  0  0
M  END
>  <MODEL>
3

>  <REMARK>
 VINA RESULT:      -6.8      2.675      6.042
  Name = 
  13 active torsions:
  status: ('A' for Active; 'I' for Inactive)
    1  A    between atoms: N_1  and  C_17
    2  A    between atoms: C_2  and  C_30
    3  A    between atoms: C_9  and  N_25
    4  A    between atoms: C_10  and  C_24
    5  A    between atoms: C_10  and  N_32
    6  A    between atoms: C_12  and  C_18
    7  A    between atoms: C_12  and  N_25
    8  A    between atoms: C_13  and  C_33
    9  A    between atoms: C_18  and  C_21
   10  A    between atoms: C_23  and  C_26
   11  A    between atoms: C_23  and  C_27
   12  A    between atoms: C_29  and  C_31
   13  A    between atoms: N_32  and  C_33
                            x       y       z     vdW  Elec       q    Type
                         _______ _______ _______ _____ _____    ______ ____

>  <TORSDO>
F 13

$$$$
=
 OpenBabel11072413093D

 35 38  0  0  1  0  0  0  0  0999 V2000
  161.6220  213.3650  148.9240 N   0  0  0  0  0  0  0  0  0  0  0  0
  160.7330  214.2910  149.0700 C   0  0  0  0  0  3  0  0  0  0  0  0
  161.2870  211.9970  148.6180 C   0  0  1  0  0  3  0  0  0  0  0  0
  162.3130  211.4320  147.8380 O   0  0  0  0  0  0  0  0  0  0  0  0
  162.2970  211.0900  149.2010 C   0  0  2  0  0  3  0  0  0  0  0  0
  161.7010  209.7070  149.3620 C   0  0  0  0  0  2  0  0  0  0  0  0
  162.5660  208.6830  148.6520 C   0  0  0  0  0  2  0  0  0  0  0  0
  161.7580  207.9010  147.7300 N   0  0  0  0  0  2  0  0  0  0  0  0
  161.0910  205.6050  148.3400 C   0  0  0  0  0  0  0  0  0  0  0  0
  160.3950  206.2200  145.9330 C   0  0  0  0  0  1  0  0  0  0  0  0
  162.2050  206.5150  147.8300 C   0  0  1  0  0  3  0  0  0  0  0  0
  161.5310  204.5320  149.1190 O   0  0  0  0  0  1  0  0  0  0  0  0
  159.9090  206.2360  148.7460 O   0  0  0  0  0  1  0  0  0  0  0  0
  161.4350  205.5980  146.8630 C   0  0  1  0  0  0  0  0  0  0  0  0
  162.2230  204.3890  146.3700 C   0  0  0  0  0  2  0  0  0  0  0  0
  160.7430  203.2720  144.8710 O   0  0  0  0  0  0  0  0  0  0  0  0
  161.1000  202.2140  146.8770 O   0  0  0  0  0  1  0  0  0  0  0  0
  161.3070  203.2710  145.9960 C   0  0  0  0  0  0  0  0  0  0  0  0
  159.2630  214.0410  148.9240 C   0  0  0  0  0  2  0  0  0  0  0  0
  158.5710  214.4530  150.1310 N   0  0  0  0  0  2  0  0  0  0  0  0
  158.3660  213.2530  150.9260 C   0  0  0  0  0  2  0  0  0  0  0  0
  158.1300  213.3930  153.6470 S   0  0  0  0  0  0  0  0  0  0  0  0
  160.0240  212.1120  152.2850 N   0  0  0  0  0  2  0  0  0  0  0  0
  159.2180  213.3170  152.1790 C   0  0  1  0  0  3  0  0  0  0  0  0
  159.6820  211.2850  153.3880 C   0  0  0  0  0  0  0  0  0  0  0  0
  158.7100  211.7790  154.1510 C   0  0  0  0  0  0  0  0  0  0  0  0
  160.8630  206.9490  153.6140 C   0  0  0  0  0  3  0  0  0  0  0  0
  161.2960  207.9080  152.5560 C   0  0  0  0  0  2  0  0  0  0  0  0
  160.9030  207.2390  154.9120 C   0  0  0  0  0  3  0  0  0  0  0  0
  161.2770  208.5510  155.4730 C   0  0  0  0  0  3  0  0  0  0  0  0
  160.3790  209.9940  153.6070 C   0  0  0  0  0  0  0  0  0  0  0  0
  160.4820  209.1600  152.5620 C   0  0  0  0  0  3  0  0  0  0  0  0
  161.0530  209.7410  154.9040 C   0  0  0  0  0  3  0  0  0  0  0  0
  158.0390  211.0510  155.2700 C   0  0  0  0  0  2  0  0  0  0  0  0
  158.1790  211.7800  156.4550 O   0  0  0  0  0  1  0  0  0  0  0  0
  1  2  2  0  0  0  0
  3  1  1  1  0  0  0
  3  5  1  0  0  0  0
  4  3  1  0  0  0  0
  4  5  1  0  0  0  0
  5  6  1  6  0  0  0
  7  6  1  0  0  0  0
  8  7  1  0  0  0  0
  9 13  1  0  0  0  0
  9 12  1  0  0  0  0
 11  8  1  6  0  0  0
 11  9  1  0  0  0  0
 14 10  1  6  0  0  0
 14 11  1  0  0  0  0
 14  9  1  0  0  0  0
 15 14  1  0  0  0  0
 16 18  2  0  0  0  0
 18 15  1  0  0  0  0
 18 17  1  0  0  0  0
 19  2  1  0  0  0  0
 19 20  1  0  0  0  0
 20 21  1  0  0  0  0
 22 26  1  0  0  0  0
 23 25  1  0  0  0  0
 24 21  1  6  0  0  0
 24 23  1  0  0  0  0
 24 22  1  0  0  0  0
 25 31  1  0  0  0  0
 25 26  2  0  0  0  0
 26 34  1  0  0  0  0
 27 29  2  0  0  0  0
 28 32  1  0  0  0  0
 28 27  1  0  0  0  0
 29 30  1  0  0  0  0
 31 33  1  0  0  0  0
 32 31  2  0  0  0  0
 33 30  2  0  0  0  0
 34 35  1  0  0  0  0
M  END
>  <MODEL>
4

>  <REMARK>
 VINA RESULT:      -6.7      2.736      7.730
  Name = 
  13 active torsions:
  status: ('A' for Active; 'I' for Inactive)
    1  A    between atoms: N_1  and  C_17
    2  A    between atoms: C_2  and  C_30
    3  A    between atoms: C_9  and  N_25
    4  A    between atoms: C_10  and  C_24
    5  A    between atoms: C_10  and  N_32
    6  A    between atoms: C_12  and  C_18
    7  A    between atoms: C_12  and  N_25
    8  A    between atoms: C_13  and  C_33
    9  A    between atoms: C_18  and  C_21
   10  A    between atoms: C_23  and  C_26
   11  A    between atoms: C_23  and  C_27
   12  A    between atoms: C_29  and  C_31
   13  A    between atoms: N_32  and  C_33
                            x       y       z     vdW  Elec       q    Type
                         _______ _______ _______ _____ _____    ______ ____

>  <TORSDO>
F 13

$$$$
=
 OpenBabel11072413093D

 35 38  0  0  1  0  0  0  0  0999 V2000
  160.9810  207.3050  154.9570 N   0  0  0  0  0  0  0  0  0  0  0  0
  160.8800  206.7010  153.8200 C   0  0  0  0  0  3  0  0  0  0  0  0
  161.3200  208.7010  155.0770 C   0  0  1  0  0  3  0  0  0  0  0  0
  160.2120  209.4820  154.6990 O   0  0  0  0  0  0  0  0  0  0  0  0
  160.4470  209.3460  156.0780 C   0  0  2  0  0  3  0  0  0  0  0  0
  161.1150  210.6020  156.5970 C   0  0  0  0  0  2  0  0  0  0  0  0
  160.4540  211.8280  155.9940 C   0  0  0  0  0  2  0  0  0  0  0  0
  159.0260  211.8080  156.2670 N   0  0  0  0  0  2  0  0  0  0  0  0
  157.6740  212.9090  154.5190 C   0  0  0  0  0  0  0  0  0  0  0  0
  156.2140  211.8470  156.3620 C   0  0  0  0  0  1  0  0  0  0  0  0
  158.4790  213.0810  155.8050 C   0  0  1  0  0  3  0  0  0  0  0  0
  157.7290  214.0030  153.6520 O   0  0  0  0  0  1  0  0  0  0  0  0
  157.7010  211.6380  153.9330 O   0  0  0  0  0  1  0  0  0  0  0  0
  156.9400  213.0830  155.8350 C   0  0  1  0  0  0  0  0  0  0  0  0
  156.3100  214.4520  156.0690 C   0  0  0  0  0  2  0  0  0  0  0  0
  154.4090  214.4530  154.6290 O   0  0  0  0  0  0  0  0  0  0  0  0
  153.9480  214.3090  156.8730 O   0  0  0  0  0  1  0  0  0  0  0  0
  154.8400  214.4150  155.8110 C   0  0  0  0  0  0  0  0  0  0  0  0
  161.0940  207.3920  152.5070 C   0  0  0  0  0  2  0  0  0  0  0  0
  162.1620  206.7390  151.7750 N   0  0  0  0  0  2  0  0  0  0  0  0
  162.4310  207.5600  150.6060 C   0  0  0  0  0  2  0  0  0  0  0  0
  162.1910  207.4770  147.8820 S   0  0  0  0  0  0  0  0  0  0  0  0
  160.9810  205.8740  149.6290 N   0  0  0  0  0  2  0  0  0  0  0  0
  161.4130  207.2570  149.5230 C   0  0  1  0  0  3  0  0  0  0  0  0
  161.3700  205.0630  148.5300 C   0  0  0  0  0  0  0  0  0  0  0  0
  162.0280  205.7230  147.5800 C   0  0  0  0  0  0  0  0  0  0  0  0
  161.2430  200.6130  149.1910 C   0  0  0  0  0  3  0  0  0  0  0  0
  160.3460  201.6110  149.8470 C   0  0  0  0  0  2  0  0  0  0  0  0
  161.4950  200.6190  147.8840 C   0  0  0  0  0  3  0  0  0  0  0  0
  161.0170  201.6420  146.9350 C   0  0  0  0  0  3  0  0  0  0  0  0
  161.0490  203.6150  148.5110 C   0  0  0  0  0  0  0  0  0  0  0  0
  160.8460  203.0080  149.6890 C   0  0  0  0  0  3  0  0  0  0  0  0
  160.8200  202.9370  147.2100 C   0  0  0  0  0  3  0  0  0  0  0  0
  162.6980  205.0940  146.4010 C   0  0  0  0  0  2  0  0  0  0  0  0
  162.3070  205.7550  145.2320 O   0  0  0  0  0  1  0  0  0  0  0  0
  2  1  2  0  0  0  0
  3  1  1  1  0  0  0
  3  5  1  0  0  0  0
  4  3  1  0  0  0  0
  4  5  1  0  0  0  0
  5  6  1  6  0  0  0
  7  8  1  0  0  0  0
  7  6  1  0  0  0  0
  9 11  1  0  0  0  0
  9 14  1  0  0  0  0
 11 14  1  0  0  0  0
 11  8  1  1  0  0  0
 12  9  1  0  0  0  0
 13  9  1  0  0  0  0
 14 15  1  0  0  0  0
 14 10  1  1  0  0  0
 16 18  2  0  0  0  0
 18 15  1  0  0  0  0
 18 17  1  0  0  0  0
 19  2  1  0  0  0  0
 20 19  1  0  0  0  0
 21 20  1  0  0  0  0
 22 24  1  0  0  0  0
 24 23  1  0  0  0  0
 24 21  1  1  0  0  0
 25 23  1  0  0  0  0
 26 22  1  0  0  0  0
 26 25  2  0  0  0  0
 27 28  1  0  0  0  0
 29 27  2  0  0  0  0
 30 33  2  0  0  0  0
 30 29  1  0  0  0  0
 31 25  1  0  0  0  0
 31 32  2  0  0  0  0
 32 28  1  0  0  0  0
 33 31  1  0  0  0  0
 34 26  1  0  0  0  0
 35 34  1  0  0  0  0
M  END
>  <MODEL>
5

>  <REMARK>
 VINA RESULT:      -6.7      4.609      6.969
  Name = 
  13 active torsions:
  status: ('A' for Active; 'I' for Inactive)
    1  A    between atoms: N_1  and  C_17
    2  A    between atoms: C_2  and  C_30
    3  A    between atoms: C_9  and  N_25
    4  A    between atoms: C_10  and  C_24
    5  A    between atoms: C_10  and  N_32
    6  A    between atoms: C_12  and  C_18
    7  A    between atoms: C_12  and  N_25
    8  A    between atoms: C_13  and  C_33
    9  A    between atoms: C_18  and  C_21
   10  A    between atoms: C_23  and  C_26
   11  A    between atoms: C_23  and  C_27
   12  A    between atoms: C_29  and  C_31
   13  A    between atoms: N_32  and  C_33
                            x       y       z     vdW  Elec       q    Type
                         _______ _______ _______ _____ _____    ______ ____

>  <TORSDO>
F 13

$$$$
=
 OpenBabel11072413093D

 35 38  0  0  1  0  0  0  0  0999 V2000
  161.1180  213.9070  148.0540 N   0  0  0  0  0  0  0  0  0  0  0  0
  160.0400  214.4530  148.5090 C   0  0  0  0  0  3  0  0  0  0  0  0
  161.2560  212.4840  147.8590 C   0  0  1  0  0  3  0  0  0  0  0  0
  162.5580  212.2020  147.4060 O   0  0  0  0  0  0  0  0  0  0  0  0
  162.2940  211.9520  148.7640 C   0  0  2  0  0  3  0  0  0  0  0  0
  162.0760  210.4670  148.9640 C   0  0  0  0  0  2  0  0  0  0  0  0
  161.8680  210.1670  150.4370 C   0  0  0  0  0  2  0  0  0  0  0  0
  162.3570  208.8320  150.7460 N   0  0  0  0  0  2  0  0  0  0  0  0
  161.5900  206.9480  149.3490 C   0  0  0  0  0  0  0  0  0  0  0  0
  163.0820  206.1720  151.3050 C   0  0  0  0  0  1  0  0  0  0  0  0
  161.2610  207.9000  150.4950 C   0  0  1  0  0  3  0  0  0  0  0  0
  160.4860  206.5600  148.5840 O   0  0  0  0  0  1  0  0  0  0  0  0
  162.7810  207.1950  148.6560 O   0  0  0  0  0  1  0  0  0  0  0  0
  161.6750  206.4450  150.7780 C   0  0  1  0  0  0  0  0  0  0  0  0
  160.5380  205.5370  151.2310 C   0  0  0  0  0  2  0  0  0  0  0  0
  161.2310  203.6710  149.9180 O   0  0  0  0  0  0  0  0  0  0  0  0
  160.8970  203.2390  152.1480 O   0  0  0  0  0  1  0  0  0  0  0  0
  160.8990  204.0990  151.0540 C   0  0  0  0  0  0  0  0  0  0  0  0
  158.8160  213.6670  148.8700 C   0  0  0  0  0  2  0  0  0  0  0  0
  158.2910  214.1300  150.1400 N   0  0  0  0  0  2  0  0  0  0  0  0
  158.2700  212.9790  151.0290 C   0  0  0  0  0  2  0  0  0  0  0  0
  157.5880  213.3370  153.6530 S   0  0  0  0  0  0  0  0  0  0  0  0
  159.8890  212.3680  152.7320 N   0  0  0  0  0  2  0  0  0  0  0  0
  158.8860  213.3520  152.3630 C   0  0  1  0  0  3  0  0  0  0  0  0
  159.5520  211.6020  153.8790 C   0  0  0  0  0  0  0  0  0  0  0  0
  158.3930  211.9470  154.4360 C   0  0  0  0  0  0  0  0  0  0  0  0
  161.3130  207.8120  155.5480 C   0  0  0  0  0  3  0  0  0  0  0  0
  161.1630  208.1290  154.0970 C   0  0  0  0  0  2  0  0  0  0  0  0
  161.8160  208.6750  156.4280 C   0  0  0  0  0  3  0  0  0  0  0  0
  162.1940  210.0680  156.1230 C   0  0  0  0  0  3  0  0  0  0  0  0
  160.4490  210.5210  154.3550 C   0  0  0  0  0  0  0  0  0  0  0  0
  160.2520  209.2890  153.8650 C   0  0  0  0  0  3  0  0  0  0  0  0
  161.6040  210.8630  155.2230 C   0  0  0  0  0  3  0  0  0  0  0  0
  157.7150  211.2070  155.5420 C   0  0  0  0  0  2  0  0  0  0  0  0
  156.3580  211.0540  155.2420 O   0  0  0  0  0  1  0  0  0  0  0  0
  1  2  2  0  0  0  0
  2 19  1  0  0  0  0
  3  1  1  1  0  0  0
  3  5  1  0  0  0  0
  4  3  1  0  0  0  0
  4  5  1  0  0  0  0
  5  6  1  6  0  0  0
  6  7  1  0  0  0  0
  7  8  1  0  0  0  0
  9 11  1  0  0  0  0
  9 14  1  0  0  0  0
 11  8  1  1  0  0  0
 11 14  1  0  0  0  0
 12  9  1  0  0  0  0
 13  9  1  0  0  0  0
 14 15  1  0  0  0  0
 14 10  1  1  0  0  0
 16 18  2  0  0  0  0
 18 15  1  0  0  0  0
 18 17  1  0  0  0  0
 19 20  1  0  0  0  0
 20 21  1  0  0  0  0
 22 26  1  0  0  0  0
 23 25  1  0  0  0  0
 24 21  1  6  0  0  0
 24 23  1  0  0  0  0
 24 22  1  0  0  0  0
 25 31  1  0  0  0  0
 25 26  2  0  0  0  0
 26 34  1  0  0  0  0
 27 29  2  0  0  0  0
 28 27  1  0  0  0  0
 30 29  1  0  0  0  0
 31 33  1  0  0  0  0
 32 28  1  0  0  0  0
 32 31  2  0  0  0  0
 33 30  2  0  0  0  0
 35 34  1  0  0  0  0
M  END
>  <MODEL>
6

>  <REMARK>
 VINA RESULT:      -6.6      2.803      8.224
  Name = 
  13 active torsions:
  status: ('A' for Active; 'I' for Inactive)
    1  A    between atoms: N_1  and  C_17
    2  A    between atoms: C_2  and  C_30
    3  A    between atoms: C_9  and  N_25
    4  A    between atoms: C_10  and  C_24
    5  A    between atoms: C_10  and  N_32
    6  A    between atoms: C_12  and  C_18
    7  A    between atoms: C_12  and  N_25
    8  A    between atoms: C_13  and  C_33
    9  A    between atoms: C_18  and  C_21
   10  A    between atoms: C_23  and  C_26
   11  A    between atoms: C_23  and  C_27
   12  A    between atoms: C_29  and  C_31
   13  A    between atoms: N_32  and  C_33
                            x       y       z     vdW  Elec       q    Type
                         _______ _______ _______ _____ _____    ______ ____

>  <TORSDO>
F 13

$$$$
=
 OpenBabel11072413093D

 35 38  0  0  1  0  0  0  0  0999 V2000
  160.7910  204.1920  152.3800 N   0  0  0  0  0  0  0  0  0  0  0  0
  161.0310  205.3660  152.8610 C   0  0  0  0  0  3  0  0  0  0  0  0
  161.6100  203.5760  151.3650 C   0  0  1  0  0  3  0  0  0  0  0  0
  161.5420  202.1770  151.5010 O   0  0  0  0  0  0  0  0  0  0  0  0
  160.7710  202.7500  150.4740 C   0  0  2  0  0  3  0  0  0  0  0  0
  161.4790  202.5560  149.1500 C   0  0  0  0  0  2  0  0  0  0  0  0
  160.4620  202.3730  148.0400 C   0  0  0  0  0  2  0  0  0  0  0  0
  160.7300  203.3100  146.9600 N   0  0  0  0  0  2  0  0  0  0  0  0
  162.6650  204.5980  146.1300 C   0  0  0  0  0  0  0  0  0  0  0  0
  160.4980  205.9990  146.1660 C   0  0  0  0  0  1  0  0  0  0  0  0
  161.8950  204.0990  147.3500 C   0  0  1  0  0  3  0  0  0  0  0  0
  164.0450  204.7000  146.3190 O   0  0  0  0  0  1  0  0  0  0  0  0
  162.2320  204.1260  144.8850 O   0  0  0  0  0  1  0  0  0  0  0  0
  161.7710  205.5620  146.8880 C   0  0  1  0  0  0  0  0  0  0  0  0
  162.4880  206.5720  147.7770 C   0  0  0  0  0  2  0  0  0  0  0  0
  161.5790  208.5360  148.7780 O   0  0  0  0  0  0  0  0  0  0  0  0
  160.5390  206.5680  149.3420 O   0  0  0  0  0  1  0  0  0  0  0  0
  161.5210  207.2840  148.6640 C   0  0  0  0  0  0  0  0  0  0  0  0
  162.1940  206.2050  152.4250 C   0  0  0  0  0  2  0  0  0  0  0  0
  161.7840  207.5910  152.3080 N   0  0  0  0  0  2  0  0  0  0  0  0
  160.8380  207.8400  153.3830 C   0  0  0  0  0  2  0  0  0  0  0  0
  161.5840  210.4370  152.9580 S   0  0  0  0  0  0  0  0  0  0  0  0
  160.1540  209.5140  155.0040 N   0  0  0  0  0  2  0  0  0  0  0  0
  161.2450  209.0870  154.1450 C   0  0  1  0  0  3  0  0  0  0  0  0
  159.5820  210.7600  154.6330 C   0  0  0  0  0  0  0  0  0  0  0  0
  160.1720  211.3340  153.5870 C   0  0  0  0  0  0  0  0  0  0  0  0
  155.7230  212.7110  155.8820 C   0  0  0  0  0  3  0  0  0  0  0  0
  155.9430  211.2410  155.7410 C   0  0  0  0  0  2  0  0  0  0  0  0
  156.5730  213.5100  156.5230 C   0  0  0  0  0  3  0  0  0  0  0  0
  157.8690  213.0860  157.0870 C   0  0  0  0  0  3  0  0  0  0  0  0
  158.4250  211.3110  155.3800 C   0  0  0  0  0  0  0  0  0  0  0  0
  157.1990  210.9260  154.9980 C   0  0  0  0  0  3  0  0  0  0  0  0
  158.6660  212.1310  156.5930 C   0  0  0  0  0  3  0  0  0  0  0  0
  159.6780  212.5550  152.8830 C   0  0  0  0  0  2  0  0  0  0  0  0
  158.6460  212.2050  152.0050 O   0  0  0  0  0  1  0  0  0  0  0  0
  1  2  2  0  0  0  0
  3  4  1  0  0  0  0
  3  1  1  1  0  0  0
  5  6  1  6  0  0  0
  5  3  1  0  0  0  0
  5  4  1  0  0  0  0
  7  6  1  0  0  0  0
  8  7  1  0  0  0  0
  9 12  1  0  0  0  0
  9 14  1  0  0  0  0
  9 11  1  0  0  0  0
 11  8  1  6  0  0  0
 13  9  1  0  0  0  0
 14 10  1  6  0  0  0
 14 11  1  0  0  0  0
 14 15  1  0  0  0  0
 15 18  1  0  0  0  0
 18 16  2  0  0  0  0
 18 17  1  0  0  0  0
 19  2  1  0  0  0  0
 20 19  1  0  0  0  0
 20 21  1  0  0  0  0
 22 26  1  0  0  0  0
 22 24  1  0  0  0  0
 24 21  1  6  0  0  0
 24 23  1  0  0  0  0
 25 23  1  0  0  0  0
 25 31  1  0  0  0  0
 26 25  2  0  0  0  0
 27 29  2  0  0  0  0
 28 27  1  0  0  0  0
 29 30  1  0  0  0  0
 31 33  1  0  0  0  0
 32 31  2  0  0  0  0
 32 28  1  0  0  0  0
 33 30  2  0  0  0  0
 34 26  1  0  0  0  0
 35 34  1  0  0  0  0
M  END
>  <MODEL>
7

>  <REMARK>
 VINA RESULT:      -6.6      3.802      9.185
  Name = 
  13 active torsions:
  status: ('A' for Active; 'I' for Inactive)
    1  A    between atoms: N_1  and  C_17
    2  A    between atoms: C_2  and  C_30
    3  A    between atoms: C_9  and  N_25
    4  A    between atoms: C_10  and  C_24
    5  A    between atoms: C_10  and  N_32
    6  A    between atoms: C_12  and  C_18
    7  A    between atoms: C_12  and  N_25
    8  A    between atoms: C_13  and  C_33
    9  A    between atoms: C_18  and  C_21
   10  A    between atoms: C_23  and  C_26
   11  A    between atoms: C_23  and  C_27
   12  A    between atoms: C_29  and  C_31
   13  A    between atoms: N_32  and  C_33
                            x       y       z     vdW  Elec       q    Type
                         _______ _______ _______ _____ _____    ______ ____

>  <TORSDO>
F 13

$$$$
=
 OpenBabel11072413093D

 35 38  0  0  1  0  0  0  0  0999 V2000
  161.1490  204.3900  152.7860 N   0  0  0  0  0  0  0  0  0  0  0  0
  161.2470  205.4990  153.4400 C   0  0  0  0  0  3  0  0  0  0  0  0
  160.7030  204.3240  151.4160 C   0  0  1  0  0  3  0  0  0  0  0  0
  161.8170  204.4160  150.5610 O   0  0  0  0  0  0  0  0  0  0  0  0
  161.2770  203.1330  150.7580 C   0  0  2  0  0  3  0  0  0  0  0  0
  160.4290  202.7600  149.5610 C   0  0  0  0  0  2  0  0  0  0  0  0
  161.2910  202.6910  148.3140 C   0  0  0  0  0  2  0  0  0  0  0  0
  160.8300  203.6630  147.3360 N   0  0  0  0  0  2  0  0  0  0  0  0
  161.5810  205.6010  146.0040 C   0  0  0  0  0  0  0  0  0  0  0  0
  160.2170  206.3070  148.0770 C   0  0  0  0  0  1  0  0  0  0  0  0
  161.9400  204.5770  147.0770 C   0  0  1  0  0  3  0  0  0  0  0  0
  162.6550  206.0010  145.2040 O   0  0  0  0  0  1  0  0  0  0  0  0
  160.3480  205.4260  145.3640 O   0  0  0  0  0  1  0  0  0  0  0  0
  161.5860  206.0250  147.4600 C   0  0  1  0  0  0  0  0  0  0  0  0
  162.7720  206.8750  147.9010 C   0  0  0  0  0  2  0  0  0  0  0  0
  161.8110  208.9550  148.5590 O   0  0  0  0  0  0  0  0  0  0  0  0
  162.5520  207.6230  150.2760 O   0  0  0  0  0  1  0  0  0  0  0  0
  162.3590  207.8820  148.9220 C   0  0  0  0  0  0  0  0  0  0  0  0
  160.9190  206.8330  152.8410 C   0  0  0  0  0  2  0  0  0  0  0  0
  160.7500  207.8170  153.8930 N   0  0  0  0  0  2  0  0  0  0  0  0
  160.5490  207.0780  155.1290 C   0  0  0  0  0  2  0  0  0  0  0  0
  161.5070  208.6130  157.1800 S   0  0  0  0  0  0  0  0  0  0  0  0
  159.4300  209.1780  155.6150 N   0  0  0  0  0  2  0  0  0  0  0  0
  160.0700  208.0200  156.2160 C   0  0  1  0  0  3  0  0  0  0  0  0
  160.1300  210.3960  155.8230 C   0  0  0  0  0  0  0  0  0  0  0  0
  161.2280  210.2670  156.5640 C   0  0  0  0  0  0  0  0  0  0  0  0
  157.6510  213.8860  154.4350 C   0  0  0  0  0  3  0  0  0  0  0  0
  158.5200  213.8720  155.6480 C   0  0  0  0  0  2  0  0  0  0  0  0
  158.0590  213.4400  153.2480 C   0  0  0  0  0  3  0  0  0  0  0  0
  159.3600  212.7940  152.9910 C   0  0  0  0  0  3  0  0  0  0  0  0
  159.6340  211.6620  155.2300 C   0  0  0  0  0  0  0  0  0  0  0  0
  158.9410  212.4900  156.0250 C   0  0  0  0  0  3  0  0  0  0  0  0
  160.0410  212.0300  153.8510 C   0  0  0  0  0  3  0  0  0  0  0  0
  162.2390  211.3410  156.7990 C   0  0  0  0  0  2  0  0  0  0  0  0
  163.5220  210.7840  156.8130 O   0  0  0  0  0  1  0  0  0  0  0  0
  1  2  2  0  0  0  0
  3  1  1  1  0  0  0
  4  5  1  0  0  0  0
  4  3  1  0  0  0  0
  5  6  1  6  0  0  0
  5  3  1  0  0  0  0
  7  6  1  0  0  0  0
  8  7  1  0  0  0  0
  9 11  1  0  0  0  0
  9 14  1  0  0  0  0
 11  8  1  1  0  0  0
 11 14  1  0  0  0  0
 12  9  1  0  0  0  0
 13  9  1  0  0  0  0
 14 15  1  0  0  0  0
 14 10  1  1  0  0  0
 15 18  1  0  0  0  0
 16 18  2  0  0  0  0
 18 17  1  0  0  0  0
 19  2  1  0  0  0  0
 19 20  1  0  0  0  0
 20 21  1  0  0  0  0
 23 25  1  0  0  0  0
 23 24  1  0  0  0  0
 24 21  1  6  0  0  0
 24 22  1  0  0  0  0
 25 26  2  0  0  0  0
 26 34  1  0  0  0  0
 26 22  1  0  0  0  0
 27 28  1  0  0  0  0
 28 32  1  0  0  0  0
 29 27  2  0  0  0  0
 30 29  1  0  0  0  0
 30 33  2  0  0  0  0
 31 25  1  0  0  0  0
 31 32  2  0  0  0  0
 33 31  1  0  0  0  0
 34 35  1  0  0  0  0
M  END
>  <MODEL>
8

>  <REMARK>
 VINA RESULT:      -6.5      3.986      8.747
  Name = 
  13 active torsions:
  status: ('A' for Active; 'I' for Inactive)
    1  A    between atoms: N_1  and  C_17
    2  A    between atoms: C_2  and  C_30
    3  A    between atoms: C_9  and  N_25
    4  A    between atoms: C_10  and  C_24
    5  A    between atoms: C_10  and  N_32
    6  A    between atoms: C_12  and  C_18
    7  A    between atoms: C_12  and  N_25
    8  A    between atoms: C_13  and  C_33
    9  A    between atoms: C_18  and  C_21
   10  A    between atoms: C_23  and  C_26
   11  A    between atoms: C_23  and  C_27
   12  A    between atoms: C_29  and  C_31
   13  A    between atoms: N_32  and  C_33
                            x       y       z     vdW  Elec       q    Type
                         _______ _______ _______ _____ _____    ______ ____

>  <TORSDO>
F 13

$$$$
=
 OpenBabel11072413093D

 35 38  0  0  1  0  0  0  0  0999 V2000
  160.3720  213.2200  148.4910 N   0  0  0  0  0  0  0  0  0  0  0  0
  161.2180  212.3350  148.0820 C   0  0  0  0  0  3  0  0  0  0  0  0
  160.3180  213.6840  149.8550 C   0  0  1  0  0  3  0  0  0  0  0  0
  159.1530  214.4520  150.0380 O   0  0  0  0  0  0  0  0  0  0  0  0
  159.1230  213.1340  150.5260 C   0  0  2  0  0  3  0  0  0  0  0  0
  159.3320  213.1520  152.0260 C   0  0  0  0  0  2  0  0  0  0  0  0
  159.9980  211.8640  152.4720 C   0  0  0  0  0  2  0  0  0  0  0  0
  159.2660  211.2860  153.5880 N   0  0  0  0  0  2  0  0  0  0  0  0
  158.8110  211.7470  155.9700 C   0  0  0  0  0  0  0  0  0  0  0  0
  159.7310  209.3660  155.5910 C   0  0  0  0  0  1  0  0  0  0  0  0
  159.7940  211.8860  154.8100 C   0  0  1  0  0  3  0  0  0  0  0  0
  158.8380  212.8060  156.8800 O   0  0  0  0  0  1  0  0  0  0  0  0
  157.5540  211.2130  155.6600 O   0  0  0  0  0  1  0  0  0  0  0  0
  160.0200  210.8320  155.9080 C   0  0  1  0  0  0  0  0  0  0  0  0
  161.1490  211.1580  156.8800 C   0  0  0  0  0  2  0  0  0  0  0  0
  162.5130  209.2330  157.2280 O   0  0  0  0  0  1  0  0  0  0  0  0
  163.2740  210.7100  155.6430 O   0  0  0  0  0  0  0  0  0  0  0  0
  162.3500  210.3150  156.6060 C   0  0  0  0  0  0  0  0  0  0  0  0
  162.2400  211.7060  148.9810 C   0  0  0  0  0  2  0  0  0  0  0  0
  162.3580  210.2920  148.6790 N   0  0  0  0  0  2  0  0  0  0  0  0
  161.9850  209.5740  149.8870 C   0  0  0  0  0  2  0  0  0  0  0  0
  161.9100  207.1780  151.2030 S   0  0  0  0  0  0  0  0  0  0  0  0
  162.4970  207.5560  148.6350 N   0  0  0  0  0  2  0  0  0  0  0  0
  162.6760  208.2240  149.9130 C   0  0  1  0  0  3  0  0  0  0  0  0
  161.7020  206.3820  148.7050 C   0  0  0  0  0  0  0  0  0  0  0  0
  161.2930  206.0790  149.9350 C   0  0  0  0  0  0  0  0  0  0  0  0
  161.8430  203.9540  144.9190 C   0  0  0  0  0  3  0  0  0  0  0  0
  161.5620  203.4140  146.2810 C   0  0  0  0  0  2  0  0  0  0  0  0
  161.2540  205.0460  144.4390 C   0  0  0  0  0  3  0  0  0  0  0  0
  160.3360  205.9150  145.2000 C   0  0  0  0  0  3  0  0  0  0  0  0
  161.3840  205.6130  147.4770 C   0  0  0  0  0  0  0  0  0  0  0  0
  161.9130  204.3870  147.3580 C   0  0  0  0  0  3  0  0  0  0  0  0
  160.3920  206.1540  146.5150 C   0  0  0  0  0  3  0  0  0  0  0  0
  160.3140  205.0040  150.2770 C   0  0  0  0  0  2  0  0  0  0  0  0
  161.0010  203.8250  150.5830 O   0  0  0  0  0  1  0  0  0  0  0  0
  2  1  2  0  0  0  0
  2 19  1  0  0  0  0
  3  1  1  6  0  0  0
  3  4  1  0  0  0  0
  3  5  1  0  0  0  0
  4  5  1  0  0  0  0
  5  6  1  1  0  0  0
  6  7  1  0  0  0  0
  7  8  1  0  0  0  0
  9 12  1  0  0  0  0
 11  8  1  6  0  0  0
 11 14  1  0  0  0  0
 11  9  1  0  0  0  0
 13  9  1  0  0  0  0
 14 10  1  6  0  0  0
 14  9  1  0  0  0  0
 14 15  1  0  0  0  0
 17 18  2  0  0  0  0
 18 15  1  0  0  0  0
 18 16  1  0  0  0  0
 20 19  1  0  0  0  0
 20 21  1  0  0  0  0
 23 25  1  0  0  0  0
 23 24  1  0  0  0  0
 24 21  1  6  0  0  0
 24 22  1  0  0  0  0
 25 26  2  0  0  0  0
 26 34  1  0  0  0  0
 26 22  1  0  0  0  0
 27 28  1  0  0  0  0
 28 32  1  0  0  0  0
 29 27  2  0  0  0  0
 29 30  1  0  0  0  0
 30 33  2  0  0  0  0
 31 25  1  0  0  0  0
 32 31  2  0  0  0  0
 33 31  1  0  0  0  0
 34 35  1  0  0  0  0
M  END
>  <MODEL>
9

>  <REMARK>
 VINA RESULT:      -6.2      2.567      6.154
  Name = 
  13 active torsions:
  status: ('A' for Active; 'I' for Inactive)
    1  A    between atoms: N_1  and  C_17
    2  A    between atoms: C_2  and  C_30
    3  A    between atoms: C_9  and  N_25
    4  A    between atoms: C_10  and  C_24
    5  A    between atoms: C_10  and  N_32
    6  A    between atoms: C_12  and  C_18
    7  A    between atoms: C_12  and  N_25
    8  A    between atoms: C_13  and  C_33
    9  A    between atoms: C_18  and  C_21
   10  A    between atoms: C_23  and  C_26
   11  A    between atoms: C_23  and  C_27
   12  A    between atoms: C_29  and  C_31
   13  A    between atoms: N_32  and  C_33
                            x       y       z     vdW  Elec       q    Type
                         _______ _______ _______ _____ _____    ______ ____

>  <TORSDO>
F 13

$$$$
