=
 OpenBabel11072414443D

 45 48  0  0  1  0  0  0  0  0999 V2000
  159.6470  209.8060  152.9500 N   0  0  0  0  0  0  0  0  0  0  0  0
  160.8100  211.1220  154.6870 C   0  0  0  0  0  2  0  0  0  0  0  0
  160.7230  208.6710  151.2020 N   0  0  0  0  0  2  0  0  0  0  0  0
  159.5060  210.4520  154.2590 C   0  0  1  0  0  3  0  0  0  0  0  0
  161.9520  210.1200  154.5760 C   0  0  1  0  0  3  0  0  0  0  0  0
  160.7640  209.3570  152.4580 C   0  0  0  0  0  0  0  0  0  0  0  0
  162.9020  210.6190  152.3320 C   0  0  0  0  0  1  0  0  0  0  0  0
  161.7450  209.0450  155.4420 O   0  0  0  0  0  1  0  0  0  0  0  0
  162.0930  209.6170  153.1390 C   0  0  1  0  0  3  0  0  0  0  0  0
  158.8610  212.8840  154.4190 C   0  0  1  0  0  3  0  0  0  0  0  0
  157.3410  212.3620  156.2260 N   0  0  0  0  0  2  0  0  0  0  0  0
  158.2050  213.3270  155.6670 C   0  0  0  0  0  0  0  0  0  0  0  0
  158.3460  211.4500  154.2420 C   0  0  2  0  0  3  0  0  0  0  0  0
  155.9840  210.9010  154.8470 C   0  0  0  0  0  1  0  0  0  0  0  0
  158.3970  214.4510  156.2020 O   0  0  0  0  0  0  0  0  0  0  0  0
  157.3700  211.1700  155.4000 C   0  0  2  0  0  3  0  0  0  0  0  0
  158.4000  213.7270  153.2400 C   0  0  0  0  0  2  0  0  0  0  0  0
  159.6370  213.9090  150.2010 N   0  0  0  0  0  0  0  0  0  0  0  0
  157.9260  214.1540  148.5550 C   0  0  0  0  0  2  0  0  0  0  0  0
  159.4470  214.3880  147.5700 S   0  0  0  0  0  0  0  0  0  0  0  0
  159.7720  212.9880  151.3140 C   0  0  0  0  0  2  0  0  0  0  0  0
  158.2900  214.3860  150.0190 C   0  0  1  0  0  3  0  0  0  0  0  0
  157.4330  213.5390  150.9390 C   0  0  0  0  0  2  0  0  0  0  0  0
  161.5600  212.7090  148.7810 S   0  0  0  0  0  0  0  0  0  0  0  0
  158.3950  212.9160  151.9520 C   0  0  2  0  0  3  0  0  0  0  0  0
  160.3680  213.8120  148.9830 C   0  0  0  0  0  0  0  0  0  0  0  0
  161.8780  207.9980  150.6130 C   0  0  1  0  0  3  0  0  0  0  0  0
  162.9860  206.0870  151.5430 O   0  0  0  0  0  0  0  0  0  0  0  0
  161.9400  206.5540  151.0120 C   0  0  0  0  0  0  0  0  0  0  0  0
  160.8070  205.7550  150.8480 O   0  0  0  0  0  0  0  0  0  0  0  0
  160.8680  204.4980  150.1910 C   0  0  0  0  0  2  0  0  0  0  0  0
  160.6570  203.7140  152.5500 O   0  0  0  0  0  1  0  0  0  0  0  0
  160.7910  202.2050  150.8260 O   0  0  0  0  0  0  0  0  0  0  0  0
  160.7540  203.4080  151.1970 C   0  0  0  0  0  0  0  0  0  0  0  0
  161.8810  208.1580  149.0940 C   0  0  0  0  0  2  0  0  0  0  0  0
  162.6030  207.0070  148.3910 C   0  0  0  0  0  2  0  0  0  0  0  0
  160.5150  206.3530  147.4010 O   0  0  0  0  0  1  0  0  0  0  0  0
  161.8690  206.5530  147.1300 C   0  0  2  0  0  3  0  0  0  0  0  0
  162.4700  205.2810  146.5470 C   0  0  0  0  0  2  0  0  0  0  0  0
  161.6520  204.1330  146.8980 N   0  0  0  0  0  2  0  0  0  0  0  0
  161.2500  203.5130  145.6470 C   0  0  0  0  0  2  0  0  0  0  0  0
  160.9950  202.0270  145.8610 C   0  0  2  0  0  3  0  0  0  0  0  0
  159.9520  201.5870  145.0400 O   0  0  0  0  0  1  0  0  0  0  0  0
  161.4210  200.5000  147.8290 C   0  0  0  0  0  1  0  0  0  0  0  0
  160.6830  201.7310  147.3260 C   0  0  0  0  0  2  0  0  0  0  0  0
  1  4  1  0  0  0  0
  3  6  1  0  0  0  0
  4  2  1  6  0  0  0
  5  2  1  0  0  0  0
  5  8  1  1  0  0  0
  6  1  2  0  0  0  0
  6  9  1  0  0  0  0
  9  7  1  6  0  0  0
  9  5  1  0  0  0  0
 10 17  1  6  0  0  0
 10 12  1  0  0  0  0
 12 15  2  0  0  0  0
 12 11  1  0  0  0  0
 13  4  1  1  0  0  0
 13 10  1  0  0  0  0
 13 16  1  0  0  0  0
 16 14  1  6  0  0  0
 16 11  1  0  0  0  0
 18 21  1  0  0  0  0
 20 19  1  0  0  0  0
 20 26  1  0  0  0  0
 21 25  1  0  0  0  0
 22 19  1  6  0  0  0
 22 18  1  0  0  0  0
 22 23  1  0  0  0  0
 23 25  1  0  0  0  0
 24 26  2  0  0  0  0
 25 17  1  1  0  0  0
 26 18  1  0  0  0  0
 27 35  1  6  0  0  0
 27 29  1  0  0  0  0
 27  3  1  0  0  0  0
 29 28  2  0  0  0  0
 30 29  1  0  0  0  0
 31 30  1  0  0  0  0
 31 34  1  0  0  0  0
 33 34  2  0  0  0  0
 34 32  1  0  0  0  0
 36 35  1  0  0  0  0
 38 37  1  1  0  0  0
 38 36  1  0  0  0  0
 39 40  1  0  0  0  0
 39 38  1  0  0  0  0
 41 42  1  0  0  0  0
 41 40  1  0  0  0  0
 42 43  1  6  0  0  0
 42 45  1  0  0  0  0
 45 44  1  0  0  0  0
M  END
>  <MODEL>
1

>  <REMARK>
 VINA RESULT:      -6.4      0.000      0.000
  Name = 
  16 active torsions:
  status: ('A' for Active; 'I' for Inactive)
    1  A    between atoms: C_1  and  C_9
    2  A    between atoms: C_2  and  C_19
    3  A    between atoms: C_2  and  C_38
    4  A    between atoms: C_6  and  C_28
    5  A    between atoms: C_6  and  N_41
    6  A    between atoms: C_9  and  C_32
    7  A    between atoms: N_12  and  C_43
    8  A    between atoms: C_14  and  C_37
    9  A    between atoms: C_15  and  C_28
   10  A    between atoms: C_15  and  C_35
   11  A    between atoms: O_17  and  C_39
   12  A    between atoms: O_17  and  C_40
   13  A    between atoms: C_34  and  C_40
   14  A    between atoms: C_35  and  C_43
   15  A    between atoms: C_38  and  N_41
   16  A    between atoms: C_39  and  C_43
                            x       y       z     vdW  Elec       q    Type
                         _______ _______ _______ _____ _____    ______ ____

>  <TORSDO>
F 16

$$$$
=
 OpenBabel11072414443D

 45 48  0  0  1  0  0  0  0  0999 V2000
  160.8110  208.2060  152.5310 N   0  0  0  0  0  0  0  0  0  0  0  0
  161.2650  206.1670  153.8500 C   0  0  0  0  0  2  0  0  0  0  0  0
  161.7350  208.6560  150.4220 N   0  0  0  0  0  2  0  0  0  0  0  0
  160.3720  207.3950  153.6710 C   0  0  1  0  0  3  0  0  0  0  0  0
  161.3730  205.4240  152.5250 C   0  0  1  0  0  3  0  0  0  0  0  0
  161.4520  207.7510  151.4950 C   0  0  0  0  0  0  0  0  0  0  0  0
  163.4840  206.3210  151.5640 C   0  0  0  0  0  1  0  0  0  0  0  0
  160.1190  204.9590  152.1220 O   0  0  0  0  0  1  0  0  0  0  0  0
  161.9700  206.3270  151.4440 C   0  0  1  0  0  3  0  0  0  0  0  0
  161.0050  209.5970  154.7220 C   0  0  1  0  0  3  0  0  0  0  0  0
  162.1530  208.4210  156.4960 N   0  0  0  0  0  2  0  0  0  0  0  0
  162.1130  209.5840  155.6990 C   0  0  0  0  0  0  0  0  0  0  0  0
  160.3250  208.2400  154.9450 C   0  0  2  0  0  3  0  0  0  0  0  0
  160.1350  207.3190  157.2610 C   0  0  0  0  0  1  0  0  0  0  0  0
  162.9600  210.5100  155.8150 O   0  0  0  0  0  0  0  0  0  0  0  0
  161.0760  207.5380  156.0920 C   0  0  2  0  0  3  0  0  0  0  0  0
  160.0160  210.7070  155.0450 C   0  0  0  0  0  2  0  0  0  0  0  0
  158.3030  212.8830  153.2760 N   0  0  0  0  0  0  0  0  0  0  0  0
  156.0270  213.0140  153.9840 C   0  0  0  0  0  2  0  0  0  0  0  0
  156.1410  214.3910  152.7880 S   0  0  0  0  0  0  0  0  0  0  0  0
  159.1480  211.7430  152.9690 C   0  0  0  0  0  2  0  0  0  0  0  0
  157.4500  212.6660  154.4160 C   0  0  1  0  0  3  0  0  0  0  0  0
  157.5790  211.1920  154.7440 C   0  0  0  0  0  2  0  0  0  0  0  0
  158.0950  213.6080  150.7090 S   0  0  0  0  0  0  0  0  0  0  0  0
  158.8610  210.7200  154.0550 C   0  0  2  0  0  3  0  0  0  0  0  0
  157.7280  213.7440  152.2990 C   0  0  0  0  0  0  0  0  0  0  0  0
  162.3180  208.2400  149.1500 C   0  0  1  0  0  3  0  0  0  0  0  0
  160.3030  206.9790  148.8460 O   0  0  0  0  0  0  0  0  0  0  0  0
  161.4960  207.1770  148.4850 C   0  0  0  0  0  0  0  0  0  0  0  0
  162.0470  206.4580  147.4230 O   0  0  0  0  0  0  0  0  0  0  0  0
  161.2340  205.8270  146.4460 C   0  0  0  0  0  2  0  0  0  0  0  0
  161.3910  203.6510  145.2360 O   0  0  0  0  0  0  0  0  0  0  0  0
  161.8770  203.7790  147.4740 O   0  0  0  0  0  1  0  0  0  0  0  0
  161.5350  204.3700  146.4170 C   0  0  0  0  0  0  0  0  0  0  0  0
  162.5260  209.4420  148.2310 C   0  0  0  0  0  2  0  0  0  0  0  0
  161.8960  210.7170  148.7940 C   0  0  0  0  0  2  0  0  0  0  0  0
  163.5340  212.2710  147.9720 O   0  0  0  0  0  1  0  0  0  0  0  0
  162.1810  211.9350  147.9150 C   0  0  2  0  0  3  0  0  0  0  0  0
  161.3360  213.1380  148.3140 C   0  0  0  0  0  2  0  0  0  0  0  0
  160.7410  213.7430  147.1350 N   0  0  0  0  0  2  0  0  0  0  0  0
  161.8350  214.3010  146.3590 C   0  0  0  0  0  2  0  0  0  0  0  0
  161.5820  214.0890  144.8730 C   0  0  2  0  0  3  0  0  0  0  0  0
  160.2760  213.6380  144.6590 O   0  0  0  0  0  1  0  0  0  0  0  0
  162.2370  212.7180  142.8530 C   0  0  0  0  0  1  0  0  0  0  0  0
  162.5900  213.1080  144.2810 C   0  0  0  0  0  2  0  0  0  0  0  0
  1  4  1  0  0  0  0
  3  6  1  0  0  0  0
  4  2  1  1  0  0  0
  5  8  1  6  0  0  0
  5  2  1  0  0  0  0
  6  1  2  0  0  0  0
  9  6  1  0  0  0  0
  9  7  1  1  0  0  0
  9  5  1  0  0  0  0
 10 13  1  0  0  0  0
 10 17  1  1  0  0  0
 10 12  1  0  0  0  0
 12 15  2  0  0  0  0
 12 11  1  0  0  0  0
 13  4  1  6  0  0  0
 13 16  1  0  0  0  0
 16 11  1  0  0  0  0
 16 14  1  1  0  0  0
 18 22  1  0  0  0  0
 20 19  1  0  0  0  0
 21 18  1  0  0  0  0
 21 25  1  0  0  0  0
 22 19  1  6  0  0  0
 22 23  1  0  0  0  0
 24 26  2  0  0  0  0
 25 23  1  0  0  0  0
 25 17  1  1  0  0  0
 26 20  1  0  0  0  0
 26 18  1  0  0  0  0
 27 35  1  6  0  0  0
 27  3  1  0  0  0  0
 29 28  2  0  0  0  0
 29 27  1  0  0  0  0
 30 29  1  0  0  0  0
 31 30  1  0  0  0  0
 32 34  2  0  0  0  0
 34 31  1  0  0  0  0
 34 33  1  0  0  0  0
 35 36  1  0  0  0  0
 38 37  1  1  0  0  0
 38 39  1  0  0  0  0
 38 36  1  0  0  0  0
 40 39  1  0  0  0  0
 41 40  1  0  0  0  0
 42 43  1  1  0  0  0
 42 41  1  0  0  0  0
 44 45  1  0  0  0  0
 45 42  1  0  0  0  0
M  END
>  <MODEL>
2

>  <REMARK>
 VINA RESULT:      -5.3      3.051      6.056
  Name = 
  16 active torsions:
  status: ('A' for Active; 'I' for Inactive)
    1  A    between atoms: C_1  and  C_9
    2  A    between atoms: C_2  and  C_19
    3  A    between atoms: C_2  and  C_38
    4  A    between atoms: C_6  and  C_28
    5  A    between atoms: C_6  and  N_41
    6  A    between atoms: C_9  and  C_32
    7  A    between atoms: N_12  and  C_43
    8  A    between atoms: C_14  and  C_37
    9  A    between atoms: C_15  and  C_28
   10  A    between atoms: C_15  and  C_35
   11  A    between atoms: O_17  and  C_39
   12  A    between atoms: O_17  and  C_40
   13  A    between atoms: C_34  and  C_40
   14  A    between atoms: C_35  and  C_43
   15  A    between atoms: C_38  and  N_41
   16  A    between atoms: C_39  and  C_43
                            x       y       z     vdW  Elec       q    Type
                         _______ _______ _______ _____ _____    ______ ____

>  <TORSDO>
F 16

$$$$
=
 OpenBabel11072414443D

 45 48  0  0  1  0  0  0  0  0999 V2000
  160.5600  207.6220  152.3440 N   0  0  0  0  0  0  0  0  0  0  0  0
  161.5860  206.1380  154.0310 C   0  0  0  0  0  2  0  0  0  0  0  0
  161.1800  207.6880  150.0820 N   0  0  0  0  0  2  0  0  0  0  0  0
  160.4180  207.0630  153.6910 C   0  0  1  0  0  3  0  0  0  0  0  0
  161.7600  205.1140  152.9170 C   0  0  1  0  0  3  0  0  0  0  0  0
  161.2050  207.0560  151.3660 C   0  0  0  0  0  0  0  0  0  0  0  0
  163.5160  206.1480  151.4920 C   0  0  0  0  0  1  0  0  0  0  0  0
  160.6230  204.3100  152.8110 O   0  0  0  0  0  1  0  0  0  0  0  0
  162.0380  205.8080  151.5830 C   0  0  1  0  0  3  0  0  0  0  0  0
  160.9420  209.4700  154.2250 C   0  0  1  0  0  3  0  0  0  0  0  0
  161.9990  208.7840  156.2890 N   0  0  0  0  0  2  0  0  0  0  0  0
  161.9870  209.7250  155.2380 C   0  0  0  0  0  0  0  0  0  0  0  0
  160.2750  208.1820  154.7250 C   0  0  2  0  0  3  0  0  0  0  0  0
  159.9580  207.8250  157.1780 C   0  0  0  0  0  1  0  0  0  0  0  0
  162.8060  210.6800  155.1780 O   0  0  0  0  0  0  0  0  0  0  0  0
  160.9660  207.7950  156.0460 C   0  0  2  0  0  3  0  0  0  0  0  0
  159.9130  210.5910  154.2210 C   0  0  0  0  0  2  0  0  0  0  0  0
  157.5330  212.2680  155.7450 N   0  0  0  0  0  0  0  0  0  0  0  0
  158.3690  214.2340  156.8100 C   0  0  0  0  0  2  0  0  0  0  0  0
  156.5620  214.4280  157.0020 S   0  0  0  0  0  0  0  0  0  0  0  0
  158.0000  210.8940  155.7650 C   0  0  0  0  0  2  0  0  0  0  0  0
  158.6030  213.2300  155.6840 C   0  0  1  0  0  3  0  0  0  0  0  0
  159.8740  212.4370  155.9110 C   0  0  0  0  0  2  0  0  0  0  0  0
  155.3970  211.7210  157.2610 S   0  0  0  0  0  0  0  0  0  0  0  0
  159.5110  210.9760  155.6370 C   0  0  2  0  0  3  0  0  0  0  0  0
  156.3920  212.7400  156.4540 C   0  0  0  0  0  0  0  0  0  0  0  0
  161.7410  207.0860  148.8760 C   0  0  1  0  0  3  0  0  0  0  0  0
  159.8760  206.6320  147.4400 O   0  0  0  0  0  0  0  0  0  0  0  0
  160.7620  206.1660  148.2100 C   0  0  0  0  0  0  0  0  0  0  0  0
  160.8860  204.7890  148.4010 O   0  0  0  0  0  0  0  0  0  0  0  0
  162.0050  204.0640  147.9140 C   0  0  0  0  0  2  0  0  0  0  0  0
  161.0580  203.6920  145.6370 O   0  0  0  0  0  0  0  0  0  0  0  0
  163.0840  204.7350  145.9020 O   0  0  0  0  0  1  0  0  0  0  0  0
  162.0770  204.2000  146.4350 C   0  0  0  0  0  0  0  0  0  0  0  0
  162.2390  208.1630  147.9150 C   0  0  0  0  0  2  0  0  0  0  0  0
  161.5870  209.5220  148.1780 C   0  0  0  0  0  2  0  0  0  0  0  0
  162.1800  210.5200  150.2810 O   0  0  0  0  0  1  0  0  0  0  0  0
  162.5210  210.4710  148.9290 C   0  0  2  0  0  3  0  0  0  0  0  0
  162.5000  211.8750  148.3420 C   0  0  0  0  0  2  0  0  0  0  0  0
  161.3600  212.0300  147.4550 N   0  0  0  0  0  2  0  0  0  0  0  0
  161.6630  213.1530  146.5830 C   0  0  0  0  0  2  0  0  0  0  0  0
  160.4500  213.4900  145.7270 C   0  0  2  0  0  3  0  0  0  0  0  0
  159.4390  214.0530  146.5110 O   0  0  0  0  0  1  0  0  0  0  0  0
  159.6700  212.5270  143.5240 C   0  0  0  0  0  1  0  0  0  0  0  0
  159.9350  212.2520  144.9970 C   0  0  0  0  0  2  0  0  0  0  0  0
  1  4  1  0  0  0  0
  3  6  1  0  0  0  0
  4  2  1  1  0  0  0
  5  8  1  6  0  0  0
  5  2  1  0  0  0  0
  6  9  1  0  0  0  0
  6  1  2  0  0  0  0
  9  7  1  1  0  0  0
  9  5  1  0  0  0  0
 10 17  1  1  0  0  0
 10 13  1  0  0  0  0
 10 12  1  0  0  0  0
 12 11  1  0  0  0  0
 13  4  1  6  0  0  0
 13 16  1  0  0  0  0
 15 12  2  0  0  0  0
 16 11  1  0  0  0  0
 16 14  1  1  0  0  0
 18 21  1  0  0  0  0
 18 26  1  0  0  0  0
 19 20  1  0  0  0  0
 22 18  1  0  0  0  0
 22 23  1  1  0  0  0
 22 19  1  0  0  0  0
 25 17  1  6  0  0  0
 25 21  1  0  0  0  0
 25 23  1  0  0  0  0
 26 20  1  0  0  0  0
 26 24  2  0  0  0  0
 27 35  1  6  0  0  0
 27  3  1  0  0  0  0
 28 29  2  0  0  0  0
 29 30  1  0  0  0  0
 29 27  1  0  0  0  0
 31 30  1  0  0  0  0
 32 34  2  0  0  0  0
 33 34  1  0  0  0  0
 34 31  1  0  0  0  0
 35 36  1  0  0  0  0
 36 38  1  0  0  0  0
 38 37  1  1  0  0  0
 39 38  1  0  0  0  0
 40 39  1  0  0  0  0
 41 40  1  0  0  0  0
 42 43  1  1  0  0  0
 42 41  1  0  0  0  0
 44 45  1  0  0  0  0
 45 42  1  0  0  0  0
M  END
>  <MODEL>
3

>  <REMARK>
 VINA RESULT:      -4.8      3.398      6.393
  Name = 
  16 active torsions:
  status: ('A' for Active; 'I' for Inactive)
    1  A    between atoms: C_1  and  C_9
    2  A    between atoms: C_2  and  C_19
    3  A    between atoms: C_2  and  C_38
    4  A    between atoms: C_6  and  C_28
    5  A    between atoms: C_6  and  N_41
    6  A    between atoms: C_9  and  C_32
    7  A    between atoms: N_12  and  C_43
    8  A    between atoms: C_14  and  C_37
    9  A    between atoms: C_15  and  C_28
   10  A    between atoms: C_15  and  C_35
   11  A    between atoms: O_17  and  C_39
   12  A    between atoms: O_17  and  C_40
   13  A    between atoms: C_34  and  C_40
   14  A    between atoms: C_35  and  C_43
   15  A    between atoms: C_38  and  N_41
   16  A    between atoms: C_39  and  C_43
                            x       y       z     vdW  Elec       q    Type
                         _______ _______ _______ _____ _____    ______ ____

>  <TORSDO>
F 16

$$$$
=
 OpenBabel11072414443D

 45 48  0  0  1  0  0  0  0  0999 V2000
  159.7340  209.7420  154.0800 N   0  0  0  0  0  0  0  0  0  0  0  0
  160.8170  211.6310  155.2460 C   0  0  0  0  0  2  0  0  0  0  0  0
  160.8240  208.3090  152.5770 N   0  0  0  0  0  2  0  0  0  0  0  0
  159.6030  210.7060  155.1760 C   0  0  1  0  0  3  0  0  0  0  0  0
  162.0890  210.7930  155.2640 C   0  0  1  0  0  3  0  0  0  0  0  0
  160.8620  209.3190  153.5900 C   0  0  0  0  0  0  0  0  0  0  0  0
  162.7560  210.7570  152.8690 C   0  0  0  0  0  1  0  0  0  0  0  0
  162.1260  209.9880  156.4040 O   0  0  0  0  0  1  0  0  0  0  0  0
  162.1860  209.9280  154.0070 C   0  0  1  0  0  3  0  0  0  0  0  0
  158.5350  212.9810  155.3720 C   0  0  1  0  0  3  0  0  0  0  0  0
  156.8870  212.0780  156.8930 N   0  0  0  0  0  2  0  0  0  0  0  0
  157.6430  213.2110  156.5270 C   0  0  0  0  0  0  0  0  0  0  0  0
  158.3040  211.5020  155.0380 C   0  0  2  0  0  3  0  0  0  0  0  0
  156.0090  210.5330  155.2450 C   0  0  0  0  0  1  0  0  0  0  0  0
  157.5630  214.3050  157.1460 O   0  0  0  0  0  0  0  0  0  0  0  0
  157.2360  210.9770  156.0170 C   0  0  2  0  0  3  0  0  0  0  0  0
  158.1070  213.8310  154.1840 C   0  0  0  0  0  2  0  0  0  0  0  0
  157.2360  214.0730  151.0240 N   0  0  0  0  0  0  0  0  0  0  0  0
  154.8660  214.0230  150.7460 C   0  0  0  0  0  2  0  0  0  0  0  0
  155.4450  214.4290  149.0610 S   0  0  0  0  0  0  0  0  0  0  0  0
  158.1310  213.2200  151.7840 C   0  0  0  0  0  2  0  0  0  0  0  0
  156.0010  214.3550  151.7110 C   0  0  1  0  0  3  0  0  0  0  0  0
  155.9870  213.4310  152.9130 C   0  0  0  0  0  2  0  0  0  0  0  0
  158.0590  213.0980  148.6730 S   0  0  0  0  0  0  0  0  0  0  0  0
  157.4360  212.9820  153.1140 C   0  0  2  0  0  3  0  0  0  0  0  0
  157.0950  214.0340  149.6090 C   0  0  0  0  0  0  0  0  0  0  0  0
  162.0170  207.6500  152.0500 C   0  0  1  0  0  3  0  0  0  0  0  0
  162.9570  205.4580  152.2810 O   0  0  0  0  0  0  0  0  0  0  0  0
  161.9140  206.1580  152.1480 C   0  0  0  0  0  0  0  0  0  0  0  0
  160.6520  205.5630  152.1550 O   0  0  0  0  0  0  0  0  0  0  0  0
  160.2080  204.7380  151.0890 C   0  0  0  0  0  2  0  0  0  0  0  0
  161.2410  202.6940  150.1010 O   0  0  0  0  0  0  0  0  0  0  0  0
  160.8790  202.8420  152.3620 O   0  0  0  0  0  1  0  0  0  0  0  0
  160.8070  203.3840  151.2270 C   0  0  0  0  0  0  0  0  0  0  0  0
  162.2940  208.0980  150.6160 C   0  0  0  0  0  2  0  0  0  0  0  0
  162.4610  206.9150  149.6610 C   0  0  0  0  0  2  0  0  0  0  0  0
  161.5570  208.5720  148.1760 O   0  0  0  0  0  1  0  0  0  0  0  0
  162.0270  207.2600  148.2370 C   0  0  2  0  0  3  0  0  0  0  0  0
  160.9590  206.3060  147.7190 C   0  0  0  0  0  2  0  0  0  0  0  0
  160.5980  206.6520  146.3550 N   0  0  0  0  0  2  0  0  0  0  0  0
  160.9250  205.4970  145.5350 C   0  0  0  0  0  2  0  0  0  0  0  0
  161.8640  204.5690  146.2940 C   0  0  2  0  0  3  0  0  0  0  0  0
  163.0550  204.3900  145.5830 O   0  0  0  0  0  1  0  0  0  0  0  0
  160.7420  202.5390  145.2880 C   0  0  0  0  0  1  0  0  0  0  0  0
  161.1980  203.2240  146.5690 C   0  0  0  0  0  2  0  0  0  0  0  0
  1  4  1  0  0  0  0
  2  5  1  0  0  0  0
  3  6  1  0  0  0  0
  4  2  1  6  0  0  0
  5  8  1  1  0  0  0
  6  9  1  0  0  0  0
  6  1  2  0  0  0  0
  9  7  1  6  0  0  0
  9  5  1  0  0  0  0
 10 17  1  6  0  0  0
 10 12  1  0  0  0  0
 12 11  1  0  0  0  0
 12 15  2  0  0  0  0
 13  4  1  1  0  0  0
 13 10  1  0  0  0  0
 13 16  1  0  0  0  0
 16 14  1  6  0  0  0
 16 11  1  0  0  0  0
 18 22  1  0  0  0  0
 18 21  1  0  0  0  0
 20 26  1  0  0  0  0
 20 19  1  0  0  0  0
 21 25  1  0  0  0  0
 22 19  1  6  0  0  0
 22 23  1  0  0  0  0
 23 25  1  0  0  0  0
 24 26  2  0  0  0  0
 25 17  1  1  0  0  0
 26 18  1  0  0  0  0
 27 35  1  6  0  0  0
 27 29  1  0  0  0  0
 27  3  1  0  0  0  0
 29 30  1  0  0  0  0
 29 28  2  0  0  0  0
 31 34  1  0  0  0  0
 31 30  1  0  0  0  0
 32 34  2  0  0  0  0
 34 33  1  0  0  0  0
 36 35  1  0  0  0  0
 38 37  1  1  0  0  0
 38 36  1  0  0  0  0
 39 38  1  0  0  0  0
 40 39  1  0  0  0  0
 41 42  1  0  0  0  0
 41 40  1  0  0  0  0
 42 43  1  6  0  0  0
 42 45  1  0  0  0  0
 44 45  1  0  0  0  0
M  END
>  <MODEL>
4

>  <REMARK>
 VINA RESULT:      -4.3      1.606      2.027
  Name = 
  16 active torsions:
  status: ('A' for Active; 'I' for Inactive)
    1  A    between atoms: C_1  and  C_9
    2  A    between atoms: C_2  and  C_19
    3  A    between atoms: C_2  and  C_38
    4  A    between atoms: C_6  and  C_28
    5  A    between atoms: C_6  and  N_41
    6  A    between atoms: C_9  and  C_32
    7  A    between atoms: N_12  and  C_43
    8  A    between atoms: C_14  and  C_37
    9  A    between atoms: C_15  and  C_28
   10  A    between atoms: C_15  and  C_35
   11  A    between atoms: O_17  and  C_39
   12  A    between atoms: O_17  and  C_40
   13  A    between atoms: C_34  and  C_40
   14  A    between atoms: C_35  and  C_43
   15  A    between atoms: C_38  and  N_41
   16  A    between atoms: C_39  and  C_43
                            x       y       z     vdW  Elec       q    Type
                         _______ _______ _______ _____ _____    ______ ____

>  <TORSDO>
F 16

$$$$
=
 OpenBabel11072414443D

 45 48  0  0  1  0  0  0  0  0999 V2000
  160.4190  208.1090  152.6490 N   0  0  0  0  0  0  0  0  0  0  0  0
  161.6520  206.9560  154.4520 C   0  0  0  0  0  2  0  0  0  0  0  0
  160.6300  207.6100  150.3670 N   0  0  0  0  0  2  0  0  0  0  0  0
  160.4900  207.8820  154.0960 C   0  0  1  0  0  3  0  0  0  0  0  0
  161.5750  205.6970  153.5980 C   0  0  1  0  0  3  0  0  0  0  0  0
  160.8520  207.2830  151.7430 C   0  0  0  0  0  0  0  0  0  0  0  0
  163.1000  206.2230  151.7060 C   0  0  0  0  0  1  0  0  0  0  0  0
  160.3990  204.9950  153.8700 O   0  0  0  0  0  1  0  0  0  0  0  0
  161.6460  206.0450  152.1110 C   0  0  1  0  0  3  0  0  0  0  0  0
  161.6040  210.1420  154.1670 C   0  0  1  0  0  3  0  0  0  0  0  0
  162.3120  209.7230  156.4410 N   0  0  0  0  0  2  0  0  0  0  0  0
  162.6150  210.3630  155.2210 C   0  0  0  0  0  0  0  0  0  0  0  0
  160.5880  209.2130  154.8430 C   0  0  2  0  0  3  0  0  0  0  0  0
  160.0390  209.5340  157.2610 C   0  0  0  0  0  1  0  0  0  0  0  0
  163.6620  211.0460  155.0590 O   0  0  0  0  0  0  0  0  0  0  0  0
  161.0690  208.9900  156.2900 C   0  0  2  0  0  3  0  0  0  0  0  0
  160.9140  211.4480  153.8010 C   0  0  0  0  0  2  0  0  0  0  0  0
  158.4180  213.1680  152.5300 N   0  0  0  0  0  0  0  0  0  0  0  0
  156.4470  212.9980  153.8660 C   0  0  0  0  0  2  0  0  0  0  0  0
  155.9760  214.2690  152.6400 S   0  0  0  0  0  0  0  0  0  0  0  0
  159.3290  212.1540  152.0320 C   0  0  0  0  0  2  0  0  0  0  0  0
  157.9720  212.9180  153.8770 C   0  0  1  0  0  3  0  0  0  0  0  0
  158.4450  211.5160  154.2060 C   0  0  0  0  0  2  0  0  0  0  0  0
  157.3720  213.6280  150.1120 S   0  0  0  0  0  0  0  0  0  0  0  0
  159.5430  211.1950  153.1910 C   0  0  2  0  0  3  0  0  0  0  0  0
  157.4490  213.8400  151.7330 C   0  0  0  0  0  0  0  0  0  0  0  0
  160.9380  206.7040  149.2630 C   0  0  1  0  0  3  0  0  0  0  0  0
  162.7430  208.2070  148.7870 O   0  0  0  0  0  0  0  0  0  0  0  0
  162.0260  207.2480  148.3870 C   0  0  0  0  0  0  0  0  0  0  0  0
  162.2740  206.6390  147.1560 O   0  0  0  0  0  0  0  0  0  0  0  0
  161.2340  206.3860  146.2240 C   0  0  0  0  0  2  0  0  0  0  0  0
  162.6360  204.3700  145.7870 O   0  0  0  0  0  1  0  0  0  0  0  0
  160.9330  204.9380  144.3590 O   0  0  0  0  0  0  0  0  0  0  0  0
  161.5760  205.1870  145.4120 C   0  0  0  0  0  0  0  0  0  0  0  0
  161.2860  205.3120  149.7870 C   0  0  0  0  0  2  0  0  0  0  0  0
  160.8600  204.2060  148.8200 C   0  0  0  0  0  2  0  0  0  0  0  0
  160.4470  203.1380  150.9320 O   0  0  0  0  0  1  0  0  0  0  0  0
  160.4480  202.9290  149.5520 C   0  0  2  0  0  3  0  0  0  0  0  0
  161.3560  201.7560  149.2100 C   0  0  0  0  0  2  0  0  0  0  0  0
  161.4460  201.5970  147.7680 N   0  0  0  0  0  2  0  0  0  0  0  0
  161.4890  200.1670  147.5110 C   0  0  0  0  0  2  0  0  0  0  0  0
  160.8350  199.8590  146.1720 C   0  0  2  0  0  3  0  0  0  0  0  0
  161.4860  198.7930  145.5420 O   0  0  0  0  0  1  0  0  0  0  0  0
  159.4220  201.4830  144.8460 C   0  0  0  0  0  1  0  0  0  0  0  0
  160.8300  201.0900  145.2690 C   0  0  0  0  0  2  0  0  0  0  0  0
  1  4  1  0  0  0  0
  3  6  1  0  0  0  0
  4  2  1  6  0  0  0
  5  8  1  6  0  0  0
  5  2  1  0  0  0  0
  6  9  1  0  0  0  0
  6  1  2  0  0  0  0
  9  7  1  1  0  0  0
  9  5  1  0  0  0  0
 10 17  1  1  0  0  0
 10 13  1  0  0  0  0
 10 12  1  0  0  0  0
 12 11  1  0  0  0  0
 13  4  1  6  0  0  0
 13 16  1  0  0  0  0
 15 12  2  0  0  0  0
 16 11  1  0  0  0  0
 16 14  1  1  0  0  0
 18 22  1  0  0  0  0
 20 19  1  0  0  0  0
 21 18  1  0  0  0  0
 21 25  1  0  0  0  0
 22 19  1  6  0  0  0
 22 23  1  0  0  0  0
 24 26  2  0  0  0  0
 25 17  1  1  0  0  0
 25 23  1  0  0  0  0
 26 18  1  0  0  0  0
 26 20  1  0  0  0  0
 27 35  1  1  0  0  0
 27  3  1  0  0  0  0
 29 28  2  0  0  0  0
 29 27  1  0  0  0  0
 30 29  1  0  0  0  0
 31 30  1  0  0  0  0
 33 34  2  0  0  0  0
 34 32  1  0  0  0  0
 34 31  1  0  0  0  0
 36 38  1  0  0  0  0
 36 35  1  0  0  0  0
 38 37  1  1  0  0  0
 39 38  1  0  0  0  0
 40 39  1  0  0  0  0
 41 40  1  0  0  0  0
 42 43  1  6  0  0  0
 42 41  1  0  0  0  0
 44 45  1  0  0  0  0
 45 42  1  0  0  0  0
M  END
>  <MODEL>
5

>  <REMARK>
 VINA RESULT:      -4.1      2.273      4.171
  Name = 
  16 active torsions:
  status: ('A' for Active; 'I' for Inactive)
    1  A    between atoms: C_1  and  C_9
    2  A    between atoms: C_2  and  C_19
    3  A    between atoms: C_2  and  C_38
    4  A    between atoms: C_6  and  C_28
    5  A    between atoms: C_6  and  N_41
    6  A    between atoms: C_9  and  C_32
    7  A    between atoms: N_12  and  C_43
    8  A    between atoms: C_14  and  C_37
    9  A    between atoms: C_15  and  C_28
   10  A    between atoms: C_15  and  C_35
   11  A    between atoms: O_17  and  C_39
   12  A    between atoms: O_17  and  C_40
   13  A    between atoms: C_34  and  C_40
   14  A    between atoms: C_35  and  C_43
   15  A    between atoms: C_38  and  N_41
   16  A    between atoms: C_39  and  C_43
                            x       y       z     vdW  Elec       q    Type
                         _______ _______ _______ _____ _____    ______ ____

>  <TORSDO>
F 16

$$$$
