=
 OpenBabel11072410213D

 33 37  0  0  1  0  0  0  0  0999 V2000
  160.6540  207.3990  155.4020 C   0  0  0  0  0  0  0  0  0  0  0  0
  160.8830  206.4090  154.5040 N   0  0  0  0  0  0  0  0  0  0  0  0
  161.3060  205.5920  152.2970 N   0  0  0  0  0  1  0  0  0  0  0  0
  160.7670  209.0170  153.6810 C   0  0  0  0  0  0  0  0  0  0  0  0
  160.4730  207.0850  156.7770 N   0  0  0  0  0  1  0  0  0  0  0  0
  160.6000  208.6890  154.9890 N   0  0  0  0  0  0  0  0  0  0  0  0
  161.0150  208.0150  152.7300 C   0  0  0  0  0  0  0  0  0  0  0  0
  161.0640  206.6770  153.1860 C   0  0  0  0  0  0  0  0  0  0  0  0
  159.3770  212.5640  153.8850 C   0  0  1  0  0  3  0  0  0  0  0  0
  160.6040  211.5320  154.7260 S   0  0  0  0  0  0  0  0  0  0  0  0
  160.7210  210.4530  153.2650 C   0  0  2  0  0  3  0  0  0  0  0  0
  159.3230  212.1190  152.4390 C   0  0  0  0  0  2  0  0  0  0  0  0
  159.5860  210.6920  152.3860 N   0  0  0  0  0  2  0  0  0  0  0  0
  158.0410  212.4100  154.5370 C   0  0  0  0  0  0  0  0  0  0  0  0
  157.7030  211.3460  155.7870 S   0  0  0  0  0  0  0  0  0  0  0  0
  156.0880  211.8280  155.8480 C   0  0  0  0  0  3  0  0  0  0  0  0
  155.8640  212.7820  154.9130 N   0  0  0  0  0  0  0  0  0  0  0  0
  156.9350  213.1040  154.1890 N   0  0  0  0  0  0  0  0  0  0  0  0
  161.2000  208.4010  151.3920 O   0  0  0  0  0  0  0  0  0  0  0  0
  162.3470  208.1140  150.6050 C   0  0  0  0  0  2  0  0  0  0  0  0
  163.0210  206.6500  148.5870 C   0  0  0  0  0  2  0  0  0  0  0  0
  161.9410  207.3210  149.4120 C   0  0  0  0  0  0  0  0  0  0  0  0
  163.3840  205.1610  146.7310 F   0  0  0  0  0  0  0  0  0  0  0  0
  162.4580  205.9980  147.3270 C   0  0  1  0  0  3  0  0  0  0  0  0
  160.6320  207.0600  149.2280 C   0  0  0  0  0  3  0  0  0  0  0  0
  160.1430  206.2120  148.0810 C   0  0  0  0  0  2  0  0  0  0  0  0
  161.2060  205.3100  147.6530 N   0  0  0  0  0  0  0  0  0  0  0  0
  160.8900  202.1380  149.6520 C   0  0  0  0  0  3  0  0  0  0  0  0
  161.0720  201.5770  147.3060 C   0  0  0  0  0  3  0  0  0  0  0  0
  160.9840  203.4960  149.3320 C   0  0  0  0  0  3  0  0  0  0  0  0
  161.1650  202.9350  146.9880 C   0  0  0  0  0  3  0  0  0  0  0  0
  160.9360  201.1790  148.6380 C   0  0  0  0  0  3  0  0  0  0  0  0
  161.1250  203.9110  147.9980 C   0  0  0  0  0  0  0  0  0  0  0  0
  1  5  1  0  0  0  0
  2  1  2  0  0  0  0
  3  8  1  0  0  0  0
  4  6  2  0  0  0  0
  6  1  1  0  0  0  0
  7  8  2  0  0  0  0
  7  4  1  0  0  0  0
  8  2  1  0  0  0  0
  9 14  1  1  0  0  0
  9 10  1  0  0  0  0
 11  4  1  1  0  0  0
 11 10  1  0  0  0  0
 12  9  1  0  0  0  0
 13 12  1  0  0  0  0
 13 11  1  0  0  0  0
 14 15  1  0  0  0  0
 15 16  1  0  0  0  0
 17 16  2  0  0  0  0
 18 14  2  0  0  0  0
 18 17  1  0  0  0  0
 19  7  1  0  0  0  0
 20 19  1  0  0  0  0
 21 22  1  0  0  0  0
 22 20  1  0  0  0  0
 24 23  1  1  0  0  0
 24 27  1  0  0  0  0
 24 21  1  0  0  0  0
 25 22  2  0  0  0  0
 26 25  1  0  0  0  0
 27 33  1  0  0  0  0
 27 26  1  0  0  0  0
 29 32  1  0  0  0  0
 30 28  1  0  0  0  0
 31 29  2  0  0  0  0
 31 33  1  0  0  0  0
 32 28  2  0  0  0  0
 33 30  2  0  0  0  0
M  END
>  <MODEL>
1

>  <REMARK>
 VINA RESULT:      -8.5      0.000      0.000
  Name = 
  6 active torsions:
  status: ('A' for Active; 'I' for Inactive)
    1  A    between atoms: C_2  and  C_8
    2  A    between atoms: C_4  and  C_29
    3  A    between atoms: O_16  and  C_29
    4  A    between atoms: O_16  and  C_30
    5  A    between atoms: C_18  and  C_24
    6  A    between atoms: N_23  and  C_32
                            x       y       z     vdW  Elec       q    Type
                         _______ _______ _______ _____ _____    ______ ____

>  <TORSDO>
F 6

$$$$
=
 OpenBabel11072410213D

 33 37  0  0  1  0  0  0  0  0999 V2000
  161.1450  205.8030  150.8520 C   0  0  0  0  0  0  0  0  0  0  0  0
  161.1020  207.0120  151.4670 N   0  0  0  0  0  0  0  0  0  0  0  0
  161.2500  209.3990  151.4850 N   0  0  0  0  0  1  0  0  0  0  0  0
  161.6350  206.8470  148.7870 C   0  0  0  0  0  0  0  0  0  0  0  0
  160.9120  204.6170  151.6000 N   0  0  0  0  0  1  0  0  0  0  0  0
  161.4060  205.7280  149.5240 N   0  0  0  0  0  0  0  0  0  0  0  0
  161.5880  208.1120  149.3940 C   0  0  0  0  0  0  0  0  0  0  0  0
  161.3140  208.1640  150.7810 C   0  0  0  0  0  0  0  0  0  0  0  0
  161.3900  205.0460  145.4320 C   0  0  1  0  0  3  0  0  0  0  0  0
  160.4020  206.1740  146.4480 S   0  0  0  0  0  0  0  0  0  0  0  0
  161.9010  206.7260  147.3200 C   0  0  2  0  0  3  0  0  0  0  0  0
  162.8480  205.3570  145.6960 C   0  0  0  0  0  2  0  0  0  0  0  0
  162.9850  205.7870  147.0760 N   0  0  0  0  0  2  0  0  0  0  0  0
  161.0770  203.6280  145.7860 C   0  0  0  0  0  0  0  0  0  0  0  0
  161.3650  202.9300  147.2820 S   0  0  0  0  0  0  0  0  0  0  0  0
  160.7590  201.4400  146.7740 C   0  0  0  0  0  3  0  0  0  0  0  0
  160.3600  201.5280  145.4840 N   0  0  0  0  0  0  0  0  0  0  0  0
  160.5350  202.7300  144.9350 N   0  0  0  0  0  0  0  0  0  0  0  0
  161.8110  209.2430  148.5900 O   0  0  0  0  0  0  0  0  0  0  0  0
  162.3920  210.4620  149.0300 C   0  0  0  0  0  2  0  0  0  0  0  0
  162.9230  212.5370  147.5870 C   0  0  0  0  0  2  0  0  0  0  0  0
  161.9060  211.5770  148.1700 C   0  0  0  0  0  0  0  0  0  0  0  0
  163.1740  214.4090  146.0940 F   0  0  0  0  0  0  0  0  0  0  0  0
  162.2600  213.6990  146.8510 C   0  0  1  0  0  3  0  0  0  0  0  0
  160.6170  211.5730  147.7780 C   0  0  0  0  0  3  0  0  0  0  0  0
  160.0610  212.6300  146.8580 C   0  0  0  0  0  2  0  0  0  0  0  0
  161.1400  213.1930  146.0530 N   0  0  0  0  0  0  0  0  0  0  0  0
  162.5360  212.6440  142.6020 C   0  0  0  0  0  3  0  0  0  0  0  0
  160.2490  211.8580  142.6630 C   0  0  0  0  0  3  0  0  0  0  0  0
  162.4400  213.0210  143.9450 C   0  0  0  0  0  3  0  0  0  0  0  0
  160.1540  212.2350  144.0060 C   0  0  0  0  0  3  0  0  0  0  0  0
  161.4400  212.0640  141.9610 C   0  0  0  0  0  3  0  0  0  0  0  0
  161.2480  212.8230  144.6620 C   0  0  0  0  0  0  0  0  0  0  0  0
  1  2  2  0  0  0  0
  1  5  1  0  0  0  0
  4  7  1  0  0  0  0
  4  6  2  0  0  0  0
  6  1  1  0  0  0  0
  7  8  2  0  0  0  0
  8  2  1  0  0  0  0
  8  3  1  0  0  0  0
  9 12  1  0  0  0  0
  9 14  1  1  0  0  0
  9 10  1  0  0  0  0
 10 11  1  0  0  0  0
 11  4  1  1  0  0  0
 12 13  1  0  0  0  0
 13 11  1  0  0  0  0
 14 15  1  0  0  0  0
 16 15  1  0  0  0  0
 17 16  2  0  0  0  0
 18 17  1  0  0  0  0
 18 14  2  0  0  0  0
 19 20  1  0  0  0  0
 19  7  1  0  0  0  0
 21 22  1  0  0  0  0
 22 20  1  0  0  0  0
 24 23  1  6  0  0  0
 24 21  1  0  0  0  0
 25 22  2  0  0  0  0
 26 25  1  0  0  0  0
 27 24  1  0  0  0  0
 27 26  1  0  0  0  0
 28 30  1  0  0  0  0
 29 31  2  0  0  0  0
 30 33  2  0  0  0  0
 31 33  1  0  0  0  0
 32 28  2  0  0  0  0
 32 29  1  0  0  0  0
 33 27  1  0  0  0  0
M  END
>  <MODEL>
2

>  <REMARK>
 VINA RESULT:      -7.1      5.377      9.047
  Name = 
  6 active torsions:
  status: ('A' for Active; 'I' for Inactive)
    1  A    between atoms: C_2  and  C_8
    2  A    between atoms: C_4  and  C_29
    3  A    between atoms: O_16  and  C_29
    4  A    between atoms: O_16  and  C_30
    5  A    between atoms: C_18  and  C_24
    6  A    between atoms: N_23  and  C_32
                            x       y       z     vdW  Elec       q    Type
                         _______ _______ _______ _____ _____    ______ ____

>  <TORSDO>
F 6

$$$$
=
 OpenBabel11072410213D

 33 37  0  0  1  0  0  0  0  0999 V2000
  160.2990  207.6520  155.8930 C   0  0  0  0  0  0  0  0  0  0  0  0
  160.8590  206.6770  155.1340 N   0  0  0  0  0  0  0  0  0  0  0  0
  161.8700  205.8550  153.1280 N   0  0  0  0  0  1  0  0  0  0  0  0
  160.5590  209.2050  154.1290 C   0  0  0  0  0  0  0  0  0  0  0  0
  159.8660  207.3620  157.2160 N   0  0  0  0  0  1  0  0  0  0  0  0
  160.1560  208.9030  155.3910 N   0  0  0  0  0  0  0  0  0  0  0  0
  161.1500  208.2190  153.3230 C   0  0  0  0  0  0  0  0  0  0  0  0
  161.2870  206.9220  153.8690 C   0  0  0  0  0  0  0  0  0  0  0  0
  159.0810  212.7200  154.2570 C   0  0  1  0  0  3  0  0  0  0  0  0
  160.4500  211.7910  154.9920 S   0  0  0  0  0  0  0  0  0  0  0  0
  160.4030  210.6010  153.6150 C   0  0  2  0  0  3  0  0  0  0  0  0
  158.8430  212.1580  152.8710 C   0  0  0  0  0  2  0  0  0  0  0  0
  159.1490  210.7390  152.8900 N   0  0  0  0  0  2  0  0  0  0  0  0
  157.8550  212.5850  155.1010 C   0  0  0  0  0  0  0  0  0  0  0  0
  156.3910  213.3380  154.7880 S   0  0  0  0  0  0  0  0  0  0  0  0
  155.6780  212.6660  156.1610 C   0  0  0  0  0  3  0  0  0  0  0  0
  156.5820  211.8920  156.8090 N   0  0  0  0  0  0  0  0  0  0  0  0
  157.7810  211.8460  156.2300 N   0  0  0  0  0  0  0  0  0  0  0  0
  161.5700  208.5810  152.0320 O   0  0  0  0  0  0  0  0  0  0  0  0
  160.8310  208.3670  150.8370 C   0  0  0  0  0  2  0  0  0  0  0  0
  160.5470  205.9080  150.1030 C   0  0  0  0  0  2  0  0  0  0  0  0
  161.3750  207.1770  150.1270 C   0  0  0  0  0  0  0  0  0  0  0  0
  160.4560  203.6820  149.1920 F   0  0  0  0  0  0  0  0  0  0  0  0
  161.2990  204.7440  149.4630 C   0  0  1  0  0  3  0  0  0  0  0  0
  162.4770  207.3290  149.3670 C   0  0  0  0  0  3  0  0  0  0  0  0
  163.0550  206.1900  148.5670 C   0  0  0  0  0  2  0  0  0  0  0  0
  162.0070  205.2190  148.2710 N   0  0  0  0  0  0  0  0  0  0  0  0
  160.3230  206.1900  145.0490 C   0  0  0  0  0  3  0  0  0  0  0  0
  161.0750  203.8970  144.8860 C   0  0  0  0  0  3  0  0  0  0  0  0
  160.8310  206.2620  146.3500 C   0  0  0  0  0  3  0  0  0  0  0  0
  161.5830  203.9710  146.1870 C   0  0  0  0  0  3  0  0  0  0  0  0
  160.4450  205.0060  144.3180 C   0  0  0  0  0  3  0  0  0  0  0  0
  161.4640  205.1530  146.9350 C   0  0  0  0  0  0  0  0  0  0  0  0
  1  5  1  0  0  0  0
  2  1  2  0  0  0  0
  3  8  1  0  0  0  0
  4  6  2  0  0  0  0
  6  1  1  0  0  0  0
  7  8  2  0  0  0  0
  7  4  1  0  0  0  0
  8  2  1  0  0  0  0
  9 10  1  0  0  0  0
  9 14  1  1  0  0  0
 11  4  1  1  0  0  0
 11 10  1  0  0  0  0
 12 13  1  0  0  0  0
 12  9  1  0  0  0  0
 13 11  1  0  0  0  0
 14 18  2  0  0  0  0
 15 14  1  0  0  0  0
 15 16  1  0  0  0  0
 16 17  2  0  0  0  0
 18 17  1  0  0  0  0
 19  7  1  0  0  0  0
 20 19  1  0  0  0  0
 21 22  1  0  0  0  0
 22 20  1  0  0  0  0
 24 23  1  6  0  0  0
 24 21  1  0  0  0  0
 25 22  2  0  0  0  0
 26 25  1  0  0  0  0
 27 26  1  0  0  0  0
 27 24  1  0  0  0  0
 28 30  1  0  0  0  0
 29 31  2  0  0  0  0
 30 33  2  0  0  0  0
 31 33  1  0  0  0  0
 32 29  1  0  0  0  0
 32 28  2  0  0  0  0
 33 27  1  0  0  0  0
M  END
>  <MODEL>
3

>  <REMARK>
 VINA RESULT:      -6.8      1.624      2.332
  Name = 
  6 active torsions:
  status: ('A' for Active; 'I' for Inactive)
    1  A    between atoms: C_2  and  C_8
    2  A    between atoms: C_4  and  C_29
    3  A    between atoms: O_16  and  C_29
    4  A    between atoms: O_16  and  C_30
    5  A    between atoms: C_18  and  C_24
    6  A    between atoms: N_23  and  C_32
                            x       y       z     vdW  Elec       q    Type
                         _______ _______ _______ _____ _____    ______ ____

>  <TORSDO>
F 6

$$$$
=
 OpenBabel11072410213D

 33 37  0  0  1  0  0  0  0  0999 V2000
  161.3840  204.3560  152.1290 C   0  0  0  0  0  0  0  0  0  0  0  0
  161.2060  204.9070  153.3550 N   0  0  0  0  0  0  0  0  0  0  0  0
  160.8330  206.7560  154.8250 N   0  0  0  0  0  1  0  0  0  0  0  0
  161.2050  206.4880  151.1200 C   0  0  0  0  0  0  0  0  0  0  0  0
  161.5720  202.9520  152.0010 N   0  0  0  0  0  1  0  0  0  0  0  0
  161.3800  205.1430  151.0250 N   0  0  0  0  0  0  0  0  0  0  0  0
  161.0090  207.0860  152.3750 C   0  0  0  0  0  0  0  0  0  0  0  0
  161.0190  206.2430  153.5110 C   0  0  0  0  0  0  0  0  0  0  0  0
  161.2870  206.9330  147.3320 C   0  0  1  0  0  3  0  0  0  0  0  0
  160.0800  206.5840  148.6360 S   0  0  0  0  0  0  0  0  0  0  0  0
  161.1870  207.3220  149.8780 C   0  0  2  0  0  3  0  0  0  0  0  0
  162.3660  207.8080  147.9330 C   0  0  0  0  0  2  0  0  0  0  0  0
  162.5290  207.4450  149.3290 N   0  0  0  0  0  2  0  0  0  0  0  0
  161.8670  205.6580  146.8130 C   0  0  0  0  0  0  0  0  0  0  0  0
  161.5820  204.1410  147.4670 S   0  0  0  0  0  0  0  0  0  0  0  0
  162.5780  203.3920  146.3300 C   0  0  0  0  0  3  0  0  0  0  0  0
  163.0930  204.3250  145.4940 N   0  0  0  0  0  0  0  0  0  0  0  0
  162.7060  205.5720  145.7570 N   0  0  0  0  0  0  0  0  0  0  0  0
  160.8130  208.4760  152.4240 O   0  0  0  0  0  0  0  0  0  0  0  0
  161.8010  209.4330  152.7780 C   0  0  0  0  0  2  0  0  0  0  0  0
  160.1770  211.4360  152.6510 C   0  0  0  0  0  2  0  0  0  0  0  0
  161.1480  210.5910  153.4500 C   0  0  0  0  0  0  0  0  0  0  0  0
  158.6220  213.2670  152.8210 F   0  0  0  0  0  0  0  0  0  0  0  0
  159.7030  212.6590  153.4340 C   0  0  1  0  0  3  0  0  0  0  0  0
  161.2830  210.7210  154.7840 C   0  0  0  0  0  3  0  0  0  0  0  0
  160.6040  211.8270  155.5490 C   0  0  0  0  0  2  0  0  0  0  0  0
  159.4210  212.2710  154.8180 N   0  0  0  0  0  0  0  0  0  0  0  0
  156.0060  210.7030  155.0000 C   0  0  0  0  0  3  0  0  0  0  0  0
  156.4200  211.9320  157.0420 C   0  0  0  0  0  3  0  0  0  0  0  0
  157.2640  211.0800  154.5210 C   0  0  0  0  0  3  0  0  0  0  0  0
  157.6780  212.3080  156.5620 C   0  0  0  0  0  3  0  0  0  0  0  0
  155.5840  211.1300  156.2610 C   0  0  0  0  0  3  0  0  0  0  0  0
  158.1140  211.8880  155.2940 C   0  0  0  0  0  0  0  0  0  0  0  0
  1  2  2  0  0  0  0
  2  8  1  0  0  0  0
  4  7  1  0  0  0  0
  5  1  1  0  0  0  0
  6  4  2  0  0  0  0
  6  1  1  0  0  0  0
  7 19  1  0  0  0  0
  7  8  2  0  0  0  0
  8  3  1  0  0  0  0
  9 14  1  1  0  0  0
  9 12  1  0  0  0  0
  9 10  1  0  0  0  0
 10 11  1  0  0  0  0
 11  4  1  1  0  0  0
 12 13  1  0  0  0  0
 13 11  1  0  0  0  0
 14 15  1  0  0  0  0
 16 15  1  0  0  0  0
 17 18  1  0  0  0  0
 17 16  2  0  0  0  0
 18 14  2  0  0  0  0
 19 20  1  0  0  0  0
 20 22  1  0  0  0  0
 21 24  1  0  0  0  0
 21 22  1  0  0  0  0
 22 25  2  0  0  0  0
 24 23  1  6  0  0  0
 24 27  1  0  0  0  0
 25 26  1  0  0  0  0
 27 33  1  0  0  0  0
 27 26  1  0  0  0  0
 28 32  1  0  0  0  0
 30 28  2  0  0  0  0
 30 33  1  0  0  0  0
 31 29  1  0  0  0  0
 32 29  2  0  0  0  0
 33 31  2  0  0  0  0
M  END
>  <MODEL>
4

>  <REMARK>
 VINA RESULT:      -6.8      3.402      8.999
  Name = 
  6 active torsions:
  status: ('A' for Active; 'I' for Inactive)
    1  A    between atoms: C_2  and  C_8
    2  A    between atoms: C_4  and  C_29
    3  A    between atoms: O_16  and  C_29
    4  A    between atoms: O_16  and  C_30
    5  A    between atoms: C_18  and  C_24
    6  A    between atoms: N_23  and  C_32
                            x       y       z     vdW  Elec       q    Type
                         _______ _______ _______ _____ _____    ______ ____

>  <TORSDO>
F 6

$$$$
=
 OpenBabel11072410213D

 33 37  0  0  1  0  0  0  0  0999 V2000
  159.5040  211.5070  152.8600 C   0  0  0  0  0  0  0  0  0  0  0  0
  159.8590  210.2500  153.2250 N   0  0  0  0  0  0  0  0  0  0  0  0
  161.0970  208.2220  152.9520 N   0  0  0  0  0  1  0  0  0  0  0  0
  160.9630  211.4020  151.0010 C   0  0  0  0  0  0  0  0  0  0  0  0
  158.5550  212.2310  153.6330 N   0  0  0  0  0  1  0  0  0  0  0  0
  160.0560  212.0730  151.7590 N   0  0  0  0  0  0  0  0  0  0  0  0
  161.3570  210.1030  151.3590 C   0  0  0  0  0  0  0  0  0  0  0  0
  160.7650  209.5340  152.5110 C   0  0  0  0  0  0  0  0  0  0  0  0
  160.7300  213.2940  147.6960 C   0  0  1  0  0  3  0  0  0  0  0  0
  160.7290  213.6490  149.4720 S   0  0  0  0  0  0  0  0  0  0  0  0
  161.5650  212.0670  149.8040 C   0  0  2  0  0  3  0  0  0  0  0  0
  161.5920  212.0680  147.4790 C   0  0  0  0  0  2  0  0  0  0  0  0
  161.4640  211.2030  148.6380 N   0  0  0  0  0  2  0  0  0  0  0  0
  159.3350  213.0520  147.2180 C   0  0  0  0  0  0  0  0  0  0  0  0
  158.9240  212.5900  145.6610 S   0  0  0  0  0  0  0  0  0  0  0  0
  157.2780  212.5770  146.0300 C   0  0  0  0  0  3  0  0  0  0  0  0
  157.1010  212.9250  147.3260 N   0  0  0  0  0  0  0  0  0  0  0  0
  158.2300  213.1890  147.9830 N   0  0  0  0  0  0  0  0  0  0  0  0
  162.3110  209.4540  150.5580 O   0  0  0  0  0  0  0  0  0  0  0  0
  162.6910  208.0900  150.6740 C   0  0  0  0  0  2  0  0  0  0  0  0
  163.0320  206.6550  148.5550 C   0  0  0  0  0  2  0  0  0  0  0  0
  162.0980  207.3170  149.5480 C   0  0  0  0  0  0  0  0  0  0  0  0
  163.0920  205.1930  146.6430 F   0  0  0  0  0  0  0  0  0  0  0  0
  162.2750  206.0230  147.3890 C   0  0  1  0  0  3  0  0  0  0  0  0
  160.7750  207.0630  149.5670 C   0  0  0  0  0  3  0  0  0  0  0  0
  160.1070  206.2350  148.4990 C   0  0  0  0  0  2  0  0  0  0  0  0
  161.0850  205.3360  147.8970 N   0  0  0  0  0  0  0  0  0  0  0  0
  161.1760  201.5870  147.5800 C   0  0  0  0  0  3  0  0  0  0  0  0
  160.8700  202.1750  149.9060 C   0  0  0  0  0  3  0  0  0  0  0  0
  161.1960  202.9440  147.2420 C   0  0  0  0  0  3  0  0  0  0  0  0
  160.8900  203.5310  149.5670 C   0  0  0  0  0  3  0  0  0  0  0  0
  161.0120  201.2040  148.9130 C   0  0  0  0  0  3  0  0  0  0  0  0
  161.0510  203.9320  148.2300 C   0  0  0  0  0  0  0  0  0  0  0  0
  1  2  2  0  0  0  0
  1  5  1  0  0  0  0
  4  7  1  0  0  0  0
  4  6  2  0  0  0  0
  6  1  1  0  0  0  0
  7  8  2  0  0  0  0
  8  3  1  0  0  0  0
  8  2  1  0  0  0  0
  9 14  1  1  0  0  0
  9 10  1  0  0  0  0
 10 11  1  0  0  0  0
 11  4  1  1  0  0  0
 12  9  1  0  0  0  0
 12 13  1  0  0  0  0
 13 11  1  0  0  0  0
 14 18  2  0  0  0  0
 15 16  1  0  0  0  0
 15 14  1  0  0  0  0
 16 17  2  0  0  0  0
 17 18  1  0  0  0  0
 19 20  1  0  0  0  0
 19  7  1  0  0  0  0
 21 22  1  0  0  0  0
 22 25  2  0  0  0  0
 22 20  1  0  0  0  0
 24 23  1  1  0  0  0
 24 27  1  0  0  0  0
 24 21  1  0  0  0  0
 26 25  1  0  0  0  0
 27 33  1  0  0  0  0
 27 26  1  0  0  0  0
 28 32  1  0  0  0  0
 30 28  2  0  0  0  0
 30 33  1  0  0  0  0
 31 29  1  0  0  0  0
 32 29  2  0  0  0  0
 33 31  2  0  0  0  0
M  END
>  <MODEL>
5

>  <REMARK>
 VINA RESULT:      -6.7      3.326      4.478
  Name = 
  6 active torsions:
  status: ('A' for Active; 'I' for Inactive)
    1  A    between atoms: C_2  and  C_8
    2  A    between atoms: C_4  and  C_29
    3  A    between atoms: O_16  and  C_29
    4  A    between atoms: O_16  and  C_30
    5  A    between atoms: C_18  and  C_24
    6  A    between atoms: N_23  and  C_32
                            x       y       z     vdW  Elec       q    Type
                         _______ _______ _______ _____ _____    ______ ____

>  <TORSDO>
F 6

$$$$
=
 OpenBabel11072410213D

 33 37  0  0  1  0  0  0  0  0999 V2000
  161.3450  205.7040  151.3030 C   0  0  0  0  0  0  0  0  0  0  0  0
  161.1690  206.8950  151.9270 N   0  0  0  0  0  0  0  0  0  0  0  0
  161.0380  209.2830  151.9610 N   0  0  0  0  0  1  0  0  0  0  0  0
  161.6860  206.8100  149.2410 C   0  0  0  0  0  0  0  0  0  0  0  0
  161.2610  204.4930  152.0450 N   0  0  0  0  0  1  0  0  0  0  0  0
  161.5980  205.6670  149.9720 N   0  0  0  0  0  0  0  0  0  0  0  0
  161.4990  208.0570  149.8570 C   0  0  0  0  0  0  0  0  0  0  0  0
  161.2380  208.0680  151.2470 C   0  0  0  0  0  0  0  0  0  0  0  0
  161.4580  205.0860  145.8440 C   0  0  1  0  0  3  0  0  0  0  0  0
  160.4550  206.1710  146.8910 S   0  0  0  0  0  0  0  0  0  0  0  0
  161.9470  206.7290  147.7700 C   0  0  2  0  0  3  0  0  0  0  0  0
  162.9120  205.4170  146.1090 C   0  0  0  0  0  2  0  0  0  0  0  0
  163.0480  205.8170  147.4980 N   0  0  0  0  0  2  0  0  0  0  0  0
  161.1740  203.6550  146.1640 C   0  0  0  0  0  0  0  0  0  0  0  0
  161.2460  202.9850  147.6990 S   0  0  0  0  0  0  0  0  0  0  0  0
  160.8210  201.4580  147.1230 C   0  0  0  0  0  3  0  0  0  0  0  0
  160.6400  201.5130  145.7820 N   0  0  0  0  0  0  0  0  0  0  0  0
  160.8350  202.7190  145.2510 N   0  0  0  0  0  0  0  0  0  0  0  0
  161.5790  209.2100  149.0590 O   0  0  0  0  0  0  0  0  0  0  0  0
  162.6240  210.1720  149.1060 C   0  0  0  0  0  2  0  0  0  0  0  0
  162.3090  212.2140  147.5580 C   0  0  0  0  0  2  0  0  0  0  0  0
  162.0540  211.5300  148.8860 C   0  0  0  0  0  0  0  0  0  0  0  0
  161.7650  214.1670  146.2590 F   0  0  0  0  0  0  0  0  0  0  0  0
  161.7820  213.6470  147.5410 C   0  0  1  0  0  3  0  0  0  0  0  0
  161.1710  212.0110  149.7830 C   0  0  0  0  0  3  0  0  0  0  0  0
  160.5020  213.3490  149.6020 C   0  0  0  0  0  2  0  0  0  0  0  0
  160.4660  213.6890  148.1830 N   0  0  0  0  0  0  0  0  0  0  0  0
  156.9240  214.3060  147.0760 C   0  0  0  0  0  3  0  0  0  0  0  0
  157.8930  212.5760  145.6910 C   0  0  0  0  0  3  0  0  0  0  0  0
  158.1220  214.4040  147.7890 C   0  0  0  0  0  3  0  0  0  0  0  0
  159.0910  212.6750  146.4050 C   0  0  0  0  0  3  0  0  0  0  0  0
  156.8100  213.3910  146.0270 C   0  0  0  0  0  3  0  0  0  0  0  0
  159.2190  213.5880  147.4650 C   0  0  0  0  0  0  0  0  0  0  0  0
  1  2  2  0  0  0  0
  1  5  1  0  0  0  0
  4  7  1  0  0  0  0
  4  6  2  0  0  0  0
  6  1  1  0  0  0  0
  7  8  2  0  0  0  0
  8  2  1  0  0  0  0
  8  3  1  0  0  0  0
  9 12  1  0  0  0  0
  9 14  1  1  0  0  0
  9 10  1  0  0  0  0
 10 11  1  0  0  0  0
 11  4  1  1  0  0  0
 12 13  1  0  0  0  0
 13 11  1  0  0  0  0
 14 15  1  0  0  0  0
 16 15  1  0  0  0  0
 17 16  2  0  0  0  0
 18 17  1  0  0  0  0
 18 14  2  0  0  0  0
 19 20  1  0  0  0  0
 19  7  1  0  0  0  0
 21 22  1  0  0  0  0
 22 20  1  0  0  0  0
 22 25  2  0  0  0  0
 24 23  1  6  0  0  0
 24 21  1  0  0  0  0
 24 27  1  0  0  0  0
 26 25  1  0  0  0  0
 27 26  1  0  0  0  0
 28 30  1  0  0  0  0
 29 32  1  0  0  0  0
 29 31  2  0  0  0  0
 31 33  1  0  0  0  0
 32 28  2  0  0  0  0
 33 30  2  0  0  0  0
 33 27  1  0  0  0  0
M  END
>  <MODEL>
6

>  <REMARK>
 VINA RESULT:      -6.6      4.681      8.995
  Name = 
  6 active torsions:
  status: ('A' for Active; 'I' for Inactive)
    1  A    between atoms: C_2  and  C_8
    2  A    between atoms: C_4  and  C_29
    3  A    between atoms: O_16  and  C_29
    4  A    between atoms: O_16  and  C_30
    5  A    between atoms: C_18  and  C_24
    6  A    between atoms: N_23  and  C_32
                            x       y       z     vdW  Elec       q    Type
                         _______ _______ _______ _____ _____    ______ ____

>  <TORSDO>
F 6

$$$$
=
 OpenBabel11072410213D

 33 37  0  0  1  0  0  0  0  0999 V2000
  161.1260  206.2300  153.8580 C   0  0  0  0  0  0  0  0  0  0  0  0
  161.1900  205.3610  152.8190 N   0  0  0  0  0  0  0  0  0  0  0  0
  161.2230  204.8260  150.4880 N   0  0  0  0  0  1  0  0  0  0  0  0
  160.9570  208.0480  152.3550 C   0  0  0  0  0  0  0  0  0  0  0  0
  161.1800  205.7460  155.1940 N   0  0  0  0  0  1  0  0  0  0  0  0
  161.0130  207.5600  153.6230 N   0  0  0  0  0  0  0  0  0  0  0  0
  161.0300  207.1740  151.2600 C   0  0  0  0  0  0  0  0  0  0  0  0
  161.1460  205.7910  151.5320 C   0  0  0  0  0  0  0  0  0  0  0  0
  160.7160  211.6530  153.5810 C   0  0  1  0  0  3  0  0  0  0  0  0
  161.9910  210.4130  153.2420 S   0  0  0  0  0  0  0  0  0  0  0  0
  160.8520  209.5240  152.1340 C   0  0  2  0  0  3  0  0  0  0  0  0
  159.5720  211.4040  152.6220 C   0  0  0  0  0  2  0  0  0  0  0  0
  159.4890  209.9770  152.3650 N   0  0  0  0  0  2  0  0  0  0  0  0
  160.2530  211.5410  154.9980 C   0  0  0  0  0  0  0  0  0  0  0  0
  158.6760  211.7800  155.5110 S   0  0  0  0  0  0  0  0  0  0  0  0
  159.0850  211.4820  157.1200 C   0  0  0  0  0  3  0  0  0  0  0  0
  160.4090  211.2130  157.2080 N   0  0  0  0  0  0  0  0  0  0  0  0
  161.0560  211.2460  156.0440 N   0  0  0  0  0  0  0  0  0  0  0  0
  160.9880  207.7240  149.9680 O   0  0  0  0  0  0  0  0  0  0  0  0
  162.1050  207.8860  149.1060 C   0  0  0  0  0  2  0  0  0  0  0  0
  163.1180  206.2800  147.3550 C   0  0  0  0  0  2  0  0  0  0  0  0
  161.9210  207.0370  147.8960 C   0  0  0  0  0  0  0  0  0  0  0  0
  163.7920  204.6710  145.6970 F   0  0  0  0  0  0  0  0  0  0  0  0
  162.8020  205.5740  146.0390 C   0  0  1  0  0  3  0  0  0  0  0  0
  160.6700  206.8130  147.4510 C   0  0  0  0  0  3  0  0  0  0  0  0
  160.3930  205.9160  146.2720 C   0  0  0  0  0  2  0  0  0  0  0  0
  161.4780  204.9520  146.1260 N   0  0  0  0  0  0  0  0  0  0  0  0
  161.1500  201.8470  148.2240 C   0  0  0  0  0  3  0  0  0  0  0  0
  160.6680  201.2950  145.9190 C   0  0  0  0  0  3  0  0  0  0  0  0
  161.3800  203.1760  147.8560 C   0  0  0  0  0  3  0  0  0  0  0  0
  160.8980  202.6250  145.5530 C   0  0  0  0  0  3  0  0  0  0  0  0
  160.7950  200.9060  147.2550 C   0  0  0  0  0  3  0  0  0  0  0  0
  161.2600  203.5800  146.5170 C   0  0  0  0  0  0  0  0  0  0  0  0
  1  5  1  0  0  0  0
  2  1  2  0  0  0  0
  3  8  1  0  0  0  0
  4  6  2  0  0  0  0
  6  1  1  0  0  0  0
  7  8  2  0  0  0  0
  7  4  1  0  0  0  0
  8  2  1  0  0  0  0
  9 14  1  1  0  0  0
 10  9  1  0  0  0  0
 11  4  1  1  0  0  0
 11 13  1  0  0  0  0
 11 10  1  0  0  0  0
 12  9  1  0  0  0  0
 13 12  1  0  0  0  0
 14 15  1  0  0  0  0
 14 18  2  0  0  0  0
 15 16  1  0  0  0  0
 16 17  2  0  0  0  0
 18 17  1  0  0  0  0
 19  7  1  0  0  0  0
 20 19  1  0  0  0  0
 21 22  1  0  0  0  0
 22 20  1  0  0  0  0
 24 23  1  1  0  0  0
 24 27  1  0  0  0  0
 24 21  1  0  0  0  0
 25 22  2  0  0  0  0
 26 25  1  0  0  0  0
 27 26  1  0  0  0  0
 27 33  1  0  0  0  0
 29 32  1  0  0  0  0
 30 28  1  0  0  0  0
 31 29  2  0  0  0  0
 31 33  1  0  0  0  0
 32 28  2  0  0  0  0
 33 30  2  0  0  0  0
M  END
>  <MODEL>
7

>  <REMARK>
 VINA RESULT:      -6.5      1.859      2.099
  Name = 
  6 active torsions:
  status: ('A' for Active; 'I' for Inactive)
    1  A    between atoms: C_2  and  C_8
    2  A    between atoms: C_4  and  C_29
    3  A    between atoms: O_16  and  C_29
    4  A    between atoms: O_16  and  C_30
    5  A    between atoms: C_18  and  C_24
    6  A    between atoms: N_23  and  C_32
                            x       y       z     vdW  Elec       q    Type
                         _______ _______ _______ _____ _____    ______ ____

>  <TORSDO>
F 6

$$$$
=
 OpenBabel11072410213D

 33 37  0  0  1  0  0  0  0  0999 V2000
  160.2790  212.5820  150.9910 C   0  0  0  0  0  0  0  0  0  0  0  0
  160.8190  212.2640  149.7880 N   0  0  0  0  0  0  0  0  0  0  0  0
  162.1530  210.9000  148.3460 N   0  0  0  0  0  1  0  0  0  0  0  0
  161.3410  210.7180  151.9850 C   0  0  0  0  0  0  0  0  0  0  0  0
  159.4370  213.7220  151.1130 N   0  0  0  0  0  1  0  0  0  0  0  0
  160.5390  211.8110  152.0750 N   0  0  0  0  0  0  0  0  0  0  0  0
  161.9080  210.3590  150.7520 C   0  0  0  0  0  0  0  0  0  0  0  0
  161.6220  211.1800  149.6360 C   0  0  0  0  0  0  0  0  0  0  0  0
  160.4210  209.4070  155.4480 C   0  0  1  0  0  3  0  0  0  0  0  0
  160.0600  209.0390  153.7120 S   0  0  0  0  0  0  0  0  0  0  0  0
  161.5900  209.8810  153.1990 C   0  0  2  0  0  3  0  0  0  0  0  0
  161.8290  209.9600  155.5120 C   0  0  0  0  0  2  0  0  0  0  0  0
  162.0880  210.7030  154.2910 N   0  0  0  0  0  2  0  0  0  0  0  0
  159.4370  210.3980  155.9790 C   0  0  0  0  0  0  0  0  0  0  0  0
  159.7260  211.4390  157.2610 S   0  0  0  0  0  0  0  0  0  0  0  0
  158.1790  212.1030  157.1530 C   0  0  0  0  0  3  0  0  0  0  0  0
  157.4980  211.5070  156.1460 N   0  0  0  0  0  0  0  0  0  0  0  0
  158.1860  210.5670  155.4990 N   0  0  0  0  0  0  0  0  0  0  0  0
  162.7150  209.2110  150.7020 O   0  0  0  0  0  0  0  0  0  0  0  0
  162.2830  207.8880  150.9870 C   0  0  0  0  0  2  0  0  0  0  0  0
  162.9460  206.6940  148.7960 C   0  0  0  0  0  2  0  0  0  0  0  0
  161.8690  207.2220  149.7210 C   0  0  0  0  0  0  0  0  0  0  0  0
  163.3050  205.4430  146.7700 F   0  0  0  0  0  0  0  0  0  0  0  0
  162.3680  206.1680  147.4840 C   0  0  1  0  0  3  0  0  0  0  0  0
  160.5650  206.9320  149.5430 C   0  0  0  0  0  3  0  0  0  0  0  0
  160.0710  206.2040  148.3200 C   0  0  0  0  0  2  0  0  0  0  0  0
  161.1530  205.3990  147.7610 N   0  0  0  0  0  0  0  0  0  0  0  0
  160.9860  202.0090  149.3840 C   0  0  0  0  0  3  0  0  0  0  0  0
  161.1720  201.7280  146.9890 C   0  0  0  0  0  3  0  0  0  0  0  0
  161.0200  203.3970  149.2220 C   0  0  0  0  0  3  0  0  0  0  0  0
  161.2060  203.1170  146.8290 C   0  0  0  0  0  3  0  0  0  0  0  0
  161.0630  201.1750  148.2670 C   0  0  0  0  0  3  0  0  0  0  0  0
  161.1330  203.9680  147.9440 C   0  0  0  0  0  0  0  0  0  0  0  0
  1  5  1  0  0  0  0
  1  6  1  0  0  0  0
  2  1  2  0  0  0  0
  3  8  1  0  0  0  0
  4  6  2  0  0  0  0
  7  4  1  0  0  0  0
  8  2  1  0  0  0  0
  8  7  2  0  0  0  0
  9 12  1  0  0  0  0
  9 14  1  6  0  0  0
 10  9  1  0  0  0  0
 11  4  1  6  0  0  0
 11 10  1  0  0  0  0
 11 13  1  0  0  0  0
 13 12  1  0  0  0  0
 14 15  1  0  0  0  0
 16 15  1  0  0  0  0
 17 16  2  0  0  0  0
 18 14  2  0  0  0  0
 18 17  1  0  0  0  0
 19  7  1  0  0  0  0
 19 20  1  0  0  0  0
 21 22  1  0  0  0  0
 22 20  1  0  0  0  0
 24 23  1  1  0  0  0
 24 27  1  0  0  0  0
 24 21  1  0  0  0  0
 25 22  2  0  0  0  0
 26 25  1  0  0  0  0
 27 33  1  0  0  0  0
 27 26  1  0  0  0  0
 29 32  1  0  0  0  0
 30 28  1  0  0  0  0
 31 29  2  0  0  0  0
 31 33  1  0  0  0  0
 32 28  2  0  0  0  0
 33 30  2  0  0  0  0
M  END
>  <MODEL>
8

>  <REMARK>
 VINA RESULT:      -6.3      2.083      3.418
  Name = 
  6 active torsions:
  status: ('A' for Active; 'I' for Inactive)
    1  A    between atoms: C_2  and  C_8
    2  A    between atoms: C_4  and  C_29
    3  A    between atoms: O_16  and  C_29
    4  A    between atoms: O_16  and  C_30
    5  A    between atoms: C_18  and  C_24
    6  A    between atoms: N_23  and  C_32
                            x       y       z     vdW  Elec       q    Type
                         _______ _______ _______ _____ _____    ______ ____

>  <TORSDO>
F 6

$$$$
=
 OpenBabel11072410213D

 33 37  0  0  1  0  0  0  0  0999 V2000
  161.3560  210.1300  152.6500 C   0  0  0  0  0  0  0  0  0  0  0  0
  161.2890  208.7880  152.4670 N   0  0  0  0  0  0  0  0  0  0  0  0
  161.3520  206.8170  151.1130 N   0  0  0  0  0  1  0  0  0  0  0  0
  161.7060  210.4510  150.3330 C   0  0  0  0  0  0  0  0  0  0  0  0
  161.2110  210.6770  153.9540 N   0  0  0  0  0  1  0  0  0  0  0  0
  161.5660  210.9480  151.5900 N   0  0  0  0  0  0  0  0  0  0  0  0
  161.6500  209.0650  150.1130 C   0  0  0  0  0  0  0  0  0  0  0  0
  161.4280  208.2330  151.2350 C   0  0  0  0  0  0  0  0  0  0  0  0
  160.6910  213.2710  147.9730 C   0  0  1  0  0  3  0  0  0  0  0  0
  161.4160  213.0680  149.6190 S   0  0  0  0  0  0  0  0  0  0  0  0
  161.9560  211.3840  149.1910 C   0  0  2  0  0  3  0  0  0  0  0  0
  161.1290  212.0890  147.1340 C   0  0  0  0  0  2  0  0  0  0  0  0
  161.2520  210.9300  148.0010 N   0  0  0  0  0  2  0  0  0  0  0  0
  159.2010  213.3290  148.0700 C   0  0  0  0  0  0  0  0  0  0  0  0
  158.3480  213.7300  149.4560 S   0  0  0  0  0  0  0  0  0  0  0  0
  156.8640  213.5310  148.6790 C   0  0  0  0  0  3  0  0  0  0  0  0
  157.0720  213.1640  147.3920 N   0  0  0  0  0  0  0  0  0  0  0  0
  158.3560  213.0500  147.0540 N   0  0  0  0  0  0  0  0  0  0  0  0
  161.8190  208.5940  148.8010 O   0  0  0  0  0  0  0  0  0  0  0  0
  162.8620  207.7340  148.3640 C   0  0  0  0  0  2  0  0  0  0  0  0
  163.2710  205.8140  146.6870 C   0  0  0  0  0  2  0  0  0  0  0  0
  162.3070  206.7310  147.4140 C   0  0  0  0  0  0  0  0  0  0  0  0
  163.3830  203.9280  145.1950 F   0  0  0  0  0  0  0  0  0  0  0  0
  162.5630  204.9440  145.6510 C   0  0  1  0  0  3  0  0  0  0  0  0
  160.9740  206.5370  147.3870 C   0  0  0  0  0  3  0  0  0  0  0  0
  160.3380  205.4980  146.5000 C   0  0  0  0  0  2  0  0  0  0  0  0
  161.3060  204.4440  146.2120 N   0  0  0  0  0  0  0  0  0  0  0  0
  161.0670  201.8170  148.8950 C   0  0  0  0  0  3  0  0  0  0  0  0
  160.8290  200.7600  146.7330 C   0  0  0  0  0  3  0  0  0  0  0  0
  161.2140  203.0580  148.2700 C   0  0  0  0  0  3  0  0  0  0  0  0
  160.9750  202.0020  146.1080 C   0  0  0  0  0  3  0  0  0  0  0  0
  160.8760  200.6670  148.1250 C   0  0  0  0  0  3  0  0  0  0  0  0
  161.1720  203.1660  146.8700 C   0  0  0  0  0  0  0  0  0  0  0  0
  1  5  1  0  0  0  0
  2  1  2  0  0  0  0
  3  8  1  0  0  0  0
  4  6  2  0  0  0  0
  6  1  1  0  0  0  0
  7  4  1  0  0  0  0
  7  8  2  0  0  0  0
  8  2  1  0  0  0  0
  9 14  1  1  0  0  0
  9 10  1  0  0  0  0
 11 10  1  0  0  0  0
 11  4  1  1  0  0  0
 12  9  1  0  0  0  0
 12 13  1  0  0  0  0
 13 11  1  0  0  0  0
 14 15  1  0  0  0  0
 16 15  1  0  0  0  0
 17 16  2  0  0  0  0
 18 17  1  0  0  0  0
 18 14  2  0  0  0  0
 19  7  1  0  0  0  0
 20 19  1  0  0  0  0
 21 22  1  0  0  0  0
 22 20  1  0  0  0  0
 24 23  1  1  0  0  0
 24 27  1  0  0  0  0
 24 21  1  0  0  0  0
 25 22  2  0  0  0  0
 26 25  1  0  0  0  0
 27 26  1  0  0  0  0
 27 33  1  0  0  0  0
 29 32  1  0  0  0  0
 30 28  1  0  0  0  0
 31 29  2  0  0  0  0
 31 33  1  0  0  0  0
 32 28  2  0  0  0  0
 33 30  2  0  0  0  0
M  END
>  <MODEL>
9

>  <REMARK>
 VINA RESULT:      -6.0      3.151      4.035
  Name = 
  6 active torsions:
  status: ('A' for Active; 'I' for Inactive)
    1  A    between atoms: C_2  and  C_8
    2  A    between atoms: C_4  and  C_29
    3  A    between atoms: O_16  and  C_29
    4  A    between atoms: O_16  and  C_30
    5  A    between atoms: C_18  and  C_24
    6  A    between atoms: N_23  and  C_32
                            x       y       z     vdW  Elec       q    Type
                         _______ _______ _______ _____ _____    ______ ____

>  <TORSDO>
F 6

$$$$
