=
 OpenBabel11072411583D

 60 63  0  0  1  0  0  0  0  0999 V2000
  161.3010  205.2550  145.0310 C   0  0  2  0  0  3  0  0  0  0  0  0
  160.3890  206.7920  146.7770 C   0  0  0  0  0  2  0  0  0  0  0  0
  160.3250  206.3930  145.3130 C   0  0  0  0  0  2  0  0  0  0  0  0
  162.7820  206.1070  146.9010 C   0  0  0  0  0  2  0  0  0  0  0  0
  162.7270  205.6580  145.4410 C   0  0  1  0  0  3  0  0  0  0  0  0
  161.7970  207.2420  147.1560 C   0  0  2  0  0  3  0  0  0  0  0  0
  163.5950  204.5980  145.2650 F   0  0  0  0  0  0  0  0  0  0  0  0
  161.2620  204.9440  143.5440 C   0  0  0  0  0  2  0  0  0  0  0  0
  161.5230  206.1540  142.7720 N   0  0  0  0  0  2  0  0  0  0  0  0
  161.8240  205.7590  141.4030 C   0  0  0  0  0  2  0  0  0  0  0  0
  162.5610  206.8710  140.6710 C   0  0  0  0  0  2  0  0  0  0  0  0
  162.0630  207.0010  139.2360 C   0  0  0  0  0  2  0  0  0  0  0  0
  161.1110  208.1650  139.1090 C   0  0  0  0  0  2  0  0  0  0  0  0
  161.8830  209.4650  139.0510 C   0  0  0  0  0  2  0  0  0  0  0  0
  161.3030  210.4800  140.0220 C   0  0  0  0  0  2  0  0  0  0  0  0
  161.2520  211.8590  139.3800 C   0  0  0  0  0  2  0  0  0  0  0  0
  160.8150  212.9010  140.3500 C   0  0  0  0  0  2  0  0  0  0  0  0
  159.6820  212.7710  141.0460 C   0  0  0  0  0  2  0  0  0  0  0  0
  158.6380  213.0030  141.9140 O   0  0  0  0  0  0  0  0  0  0  0  0
  158.6920  214.0410  142.8830 C   0  0  0  0  0  2  0  0  0  0  0  0
  158.4730  212.6140  144.7770 O   0  0  0  0  0  0  0  0  0  0  0  0
  160.3640  214.0030  144.7860 N   0  0  0  0  0  2  0  0  0  0  0  0
  159.1550  213.4960  144.1930 C   0  0  0  0  0  0  0  0  0  0  0  0
  162.6660  213.9600  147.7940 C   0  0  1  0  0  3  0  0  0  0  0  0
  159.3730  213.8460  149.3740 O   0  0  0  0  0  0  0  0  0  0  0  0
  160.2360  213.8260  148.5050 C   0  0  0  0  0  0  0  0  0  0  0  0
  159.8270  213.4180  147.1070 C   0  0  0  0  0  2  0  0  0  0  0  0
  160.9280  213.5110  146.0390 C   0  0  2  0  0  3  0  0  0  0  0  0
  162.1340  214.3620  146.4300 C   0  0  0  0  0  2  0  0  0  0  0  0
  161.6300  214.2590  148.8720 C   0  0  0  0  0  2  0  0  0  0  0  0
  163.0280  212.6080  147.8160 O   0  0  0  0  0  1  0  0  0  0  0  0
  161.7970  207.5920  148.5750 N   0  0  0  0  0  2  0  0  0  0  0  0
  162.0910  209.0240  148.7380 C   0  0  0  0  0  2  0  0  0  0  0  0
  161.8580  209.4600  150.1150 N   0  0  0  0  0  2  0  0  0  0  0  0
  161.4190  208.3510  150.8520 N   0  0  0  0  0  2  0  0  0  0  0  0
  162.0730  208.4050  152.1500 C   0  0  1  0  0  3  0  0  0  0  0  0
  160.8740  210.0270  155.3940 C   0  0  0  0  0  3  0  0  0  0  0  0
  159.5830  210.9180  153.5480 C   0  0  0  0  0  3  0  0  0  0  0  0
  161.2870  209.2350  153.1380 C   0  0  0  0  0  0  0  0  0  0  0  0
  161.5880  209.2170  154.5050 C   0  0  0  0  0  3  0  0  0  0  0  0
  159.8600  210.8730  154.9240 C   0  0  0  0  0  0  0  0  0  0  0  0
  160.2900  210.0960  152.6640 C   0  0  0  0  0  3  0  0  0  0  0  0
  158.1630  211.2480  156.5960 O   0  0  0  0  0  1  0  0  0  0  0  0
  159.1640  211.7430  155.8290 N   0  0  0  0  0  0  0  0  0  0  0  0
  159.7510  212.9540  156.2000 N   0  0  0  0  0  1  0  0  0  0  0  0
  162.2270  207.0480  152.6530 N   0  0  0  0  0  2  0  0  0  0  0  0
  160.4430  205.8150  153.7610 C   0  0  0  0  0  1  0  0  0  0  0  0
  160.9850  206.3140  152.4380 C   0  0  2  0  0  3  0  0  0  0  0  0
  160.9250  203.0090  149.2020 C   0  0  0  0  0  0  0  0  0  0  0  0
  161.2120  203.8290  152.3130 C   0  0  0  0  0  2  0  0  0  0  0  0
  160.1120  201.0660  150.5420 C   0  0  0  0  0  1  0  0  0  0  0  0
  162.0070  201.5850  152.4100 F   0  0  0  0  0  0  0  0  0  0  0  0
  161.8150  202.6540  151.5450 C   0  0  1  0  0  3  0  0  0  0  0  0
  161.2180  205.1250  151.5030 C   0  0  1  0  0  3  0  0  0  0  0  0
  160.1410  205.0670  150.4110 C   0  0  0  0  0  2  0  0  0  0  0  0
  160.5870  204.3040  149.1950 C   0  0  0  0  0  3  0  0  0  0  0  0
  160.9380  202.2560  150.4330 N   0  0  0  0  0  0  0  0  0  0  0  0
  161.1050  200.9870  147.7740 O   0  0  0  0  0  1  0  0  0  0  0  0
  161.8260  203.0140  147.0150 O   0  0  0  0  0  0  0  0  0  0  0  0
  161.2690  202.3540  147.9310 C   0  0  0  0  0  0  0  0  0  0  0  0
  1  8  1  6  0  0  0
  1  3  1  0  0  0  0
  1  5  1  0  0  0  0
  2  6  1  0  0  0  0
  3  2  1  0  0  0  0
  4  6  1  0  0  0  0
  5  7  1  1  0  0  0
  5  4  1  0  0  0  0
  6 32  1  1  0  0  0
  9  8  1  0  0  0  0
 10  9  1  0  0  0  0
 11 10  1  0  0  0  0
 12 11  1  0  0  0  0
 13 12  1  0  0  0  0
 14 13  1  0  0  0  0
 14 15  1  0  0  0  0
 16 15  1  0  0  0  0
 16 17  1  0  0  0  0
 17 18  1  0  0  0  0
 18 19  1  0  0  0  0
 19 20  1  0  0  0  0
 20 23  1  0  0  0  0
 23 21  2  0  0  0  0
 23 22  1  0  0  0  0
 24 31  1  6  0  0  0
 24 30  1  0  0  0  0
 26 30  1  0  0  0  0
 26 25  2  0  0  0  0
 27 26  1  0  0  0  0
 28 22  1  6  0  0  0
 28 29  1  0  0  0  0
 28 27  1  0  0  0  0
 29 24  1  0  0  0  0
 32 33  1  0  0  0  0
 33 34  1  0  0  0  0
 34 35  1  0  0  0  0
 36 35  1  6  0  0  0
 36 46  1  0  0  0  0
 36 39  1  0  0  0  0
 38 41  2  0  0  0  0
 39 40  1  0  0  0  0
 40 37  2  0  0  0  0
 41 37  1  0  0  0  0
 41 44  1  0  0  0  0
 42 39  2  0  0  0  0
 42 38  1  0  0  0  0
 44 45  1  0  0  0  0
 44 43  1  0  0  0  0
 48 46  1  0  0  0  0
 48 47  1  1  0  0  0
 49 57  1  0  0  0  0
 53 50  1  0  0  0  0
 53 52  1  1  0  0  0
 54 50  1  0  0  0  0
 54 48  1  1  0  0  0
 55 54  1  0  0  0  0
 56 49  2  0  0  0  0
 56 55  1  0  0  0  0
 57 51  1  0  0  0  0
 57 53  1  0  0  0  0
 58 60  1  0  0  0  0
 59 60  2  0  0  0  0
 60 49  1  0  0  0  0
M  END
>  <MODEL>
1

>  <REMARK>
 VINA RESULT:      -5.3      0.000      0.000
  Name = 
  25 active torsions:
  status: ('A' for Active; 'I' for Inactive)
    1  A    between atoms: N_3  and  C_22
    2  A    between atoms: N_3  and  C_53
    3  A    between atoms: C_6  and  C_40
    4  A    between atoms: C_7  and  C_25
    5  A    between atoms: C_7  and  C_46
    6  A    between atoms: C_8  and  C_25
    7  A    between atoms: C_11  and  N_48
    8  A    between atoms: C_11  and  N_56
    9  A    between atoms: C_12  and  C_53
   10  A    between atoms: N_13  and  C_55
   11  A    between atoms: N_14  and  C_42
   12  A    between atoms: C_17  and  C_37
   13  A    between atoms: C_18  and  C_39
   14  A    between atoms: C_18  and  N_43
   15  A    between atoms: C_18  and  N_47
   16  A    between atoms: C_22  and  C_52
   17  A    between atoms: C_23  and  C_44
   18  A    between atoms: C_23  and  C_46
   19  A    between atoms: O_24  and  C_30
   20  A    between atoms: O_24  and  C_37
   21  A    between atoms: C_35  and  N_56
   22  A    between atoms: C_36  and  C_45
   23  A    between atoms: N_43  and  C_45
   24  A    between atoms: C_44  and  C_52
   25  A    between atoms: N_47  and  N_48
                            x       y       z     vdW  Elec       q    Type
                         _______ _______ _______ _____ _____    ______ ____

>  <TORSDO>
F 25

$$$$
=
 OpenBabel11072411583D

 60 63  0  0  1  0  0  0  0  0999 V2000
  161.7560  203.2760  150.7090 C   0  0  2  0  0  3  0  0  0  0  0  0
  161.4960  205.3640  152.0570 C   0  0  0  0  0  2  0  0  0  0  0  0
  161.3350  203.8530  152.0560 C   0  0  0  0  0  2  0  0  0  0  0  0
  161.0740  205.4500  149.6030 C   0  0  0  0  0  2  0  0  0  0  0  0
  160.9520  203.9270  149.5710 C   0  0  1  0  0  3  0  0  0  0  0  0
  160.6490  206.0000  150.9590 C   0  0  2  0  0  3  0  0  0  0  0  0
  161.3920  203.4660  148.3460 F   0  0  0  0  0  0  0  0  0  0  0  0
  161.5030  201.7780  150.7250 C   0  0  0  0  0  2  0  0  0  0  0  0
  160.6970  201.3930  149.5710 N   0  0  0  0  0  2  0  0  0  0  0  0
  161.5890  200.8350  148.5640 C   0  0  0  0  0  2  0  0  0  0  0  0
  160.7980  200.1090  147.4860 C   0  0  0  0  0  2  0  0  0  0  0  0
  160.9620  200.7960  146.1360 C   0  0  0  0  0  2  0  0  0  0  0  0
  161.0980  202.2890  146.3130 C   0  0  0  0  0  2  0  0  0  0  0  0
  161.5990  202.9210  145.0340 C   0  0  0  0  0  2  0  0  0  0  0  0
  161.5890  204.4370  145.1430 C   0  0  0  0  0  2  0  0  0  0  0  0
  160.8070  205.0460  143.9860 C   0  0  0  0  0  2  0  0  0  0  0  0
  161.6130  206.0610  143.2520 C   0  0  0  0  0  2  0  0  0  0  0  0
  161.4970  206.2170  141.9310 C   0  0  0  0  0  2  0  0  0  0  0  0
  161.6650  206.6690  140.6410 O   0  0  0  0  0  0  0  0  0  0  0  0
  162.7420  207.5240  140.2860 C   0  0  0  0  0  2  0  0  0  0  0  0
  162.9960  209.8800  140.0430 O   0  0  0  0  0  0  0  0  0  0  0  0
  160.8550  209.0510  139.5580 N   0  0  0  0  0  2  0  0  0  0  0  0
  162.2280  208.8860  139.9530 C   0  0  0  0  0  0  0  0  0  0  0  0
  160.1890  212.0570  137.3520 C   0  0  1  0  0  3  0  0  0  0  0  0
  156.8070  210.8200  137.9670 O   0  0  0  0  0  0  0  0  0  0  0  0
  158.0210  210.9450  138.0540 C   0  0  0  0  0  0  0  0  0  0  0  0
  158.7320  210.2180  139.1740 C   0  0  0  0  0  2  0  0  0  0  0  0
  160.2650  210.3280  139.1710 C   0  0  2  0  0  3  0  0  0  0  0  0
  160.8740  210.7970  137.8510 C   0  0  0  0  0  2  0  0  0  0  0  0
  158.7320  211.7650  137.0110 C   0  0  0  0  0  2  0  0  0  0  0  0
  160.2800  213.0880  138.2960 O   0  0  0  0  0  1  0  0  0  0  0  0
  160.8630  207.4450  150.9990 N   0  0  0  0  0  2  0  0  0  0  0  0
  161.7360  207.8540  149.8880 C   0  0  0  0  0  2  0  0  0  0  0  0
  161.1030  208.8880  149.0690 N   0  0  0  0  0  2  0  0  0  0  0  0
  162.1050  209.7590  148.6200 N   0  0  0  0  0  2  0  0  0  0  0  0
  161.8100  211.0770  149.1580 C   0  0  1  0  0  3  0  0  0  0  0  0
  160.2530  211.6210  152.6040 C   0  0  0  0  0  3  0  0  0  0  0  0
  162.1350  210.1130  152.8240 C   0  0  0  0  0  3  0  0  0  0  0  0
  161.5610  211.0300  150.6480 C   0  0  0  0  0  0  0  0  0  0  0  0
  160.4880  211.7160  151.2280 C   0  0  0  0  0  3  0  0  0  0  0  0
  161.0820  210.8300  153.4110 C   0  0  0  0  0  0  0  0  0  0  0  0
  162.3760  210.2210  151.4500 C   0  0  0  0  0  3  0  0  0  0  0  0
  160.8230  211.7870  155.6100 O   0  0  0  0  0  1  0  0  0  0  0  0
  160.8070  210.6910  154.8140 N   0  0  0  0  0  0  0  0  0  0  0  0
  160.1610  209.5420  155.2740 N   0  0  0  0  0  1  0  0  0  0  0  0
  162.9300  211.9610  148.8700 N   0  0  0  0  0  2  0  0  0  0  0  0
  161.4630  213.8860  149.1420 C   0  0  0  0  0  1  0  0  0  0  0  0
  162.4320  213.1700  148.2240 C   0  0  2  0  0  3  0  0  0  0  0  0
  160.8220  212.7970  143.9030 C   0  0  0  0  0  0  0  0  0  0  0  0
  160.2210  213.0260  147.0690 C   0  0  0  0  0  2  0  0  0  0  0  0
  158.6000  213.9110  144.1420 C   0  0  0  0  0  1  0  0  0  0  0  0
  158.0710  212.3510  146.2960 F   0  0  0  0  0  0  0  0  0  0  0  0
  159.4180  212.3460  145.9610 C   0  0  1  0  0  3  0  0  0  0  0  0
  161.7280  212.8250  146.9100 C   0  0  1  0  0  3  0  0  0  0  0  0
  162.2560  213.6970  145.7610 C   0  0  0  0  0  2  0  0  0  0  0  0
  162.0290  213.0760  144.4110 C   0  0  0  0  0  3  0  0  0  0  0  0
  159.6250  213.0300  144.6750 N   0  0  0  0  0  0  0  0  0  0  0  0
  159.5200  212.2700  141.8570 O   0  0  0  0  0  0  0  0  0  0  0  0
  161.7200  211.6870  142.0170 O   0  0  0  0  0  1  0  0  0  0  0  0
  160.7280  212.2630  142.5370 C   0  0  0  0  0  0  0  0  0  0  0  0
  1  8  1  1  0  0  0
  1  3  1  0  0  0  0
  3  2  1  0  0  0  0
  4  6  1  0  0  0  0
  5  7  1  6  0  0  0
  5  4  1  0  0  0  0
  5  1  1  0  0  0  0
  6 32  1  6  0  0  0
  6  2  1  0  0  0  0
  9  8  1  0  0  0  0
 10  9  1  0  0  0  0
 11 10  1  0  0  0  0
 12 13  1  0  0  0  0
 12 11  1  0  0  0  0
 14 15  1  0  0  0  0
 14 13  1  0  0  0  0
 16 15  1  0  0  0  0
 17 16  1  0  0  0  0
 18 17  1  0  0  0  0
 19 18  1  0  0  0  0
 20 19  1  0  0  0  0
 22 23  1  0  0  0  0
 23 21  2  0  0  0  0
 23 20  1  0  0  0  0
 24 29  1  0  0  0  0
 24 31  1  1  0  0  0
 25 26  2  0  0  0  0
 26 27  1  0  0  0  0
 28 27  1  0  0  0  0
 28 22  1  6  0  0  0
 29 28  1  0  0  0  0
 30 24  1  0  0  0  0
 30 26  1  0  0  0  0
 33 32  1  0  0  0  0
 34 33  1  0  0  0  0
 35 34  1  0  0  0  0
 36 35  1  1  0  0  0
 36 39  1  0  0  0  0
 37 41  1  0  0  0  0
 38 41  2  0  0  0  0
 39 40  1  0  0  0  0
 39 42  2  0  0  0  0
 40 37  2  0  0  0  0
 41 44  1  0  0  0  0
 42 38  1  0  0  0  0
 44 45  1  0  0  0  0
 44 43  1  0  0  0  0
 46 36  1  0  0  0  0
 48 46  1  0  0  0  0
 48 47  1  1  0  0  0
 49 56  2  0  0  0  0
 49 57  1  0  0  0  0
 51 57  1  0  0  0  0
 53 52  1  1  0  0  0
 53 50  1  0  0  0  0
 54 50  1  0  0  0  0
 54 48  1  1  0  0  0
 55 54  1  0  0  0  0
 56 55  1  0  0  0  0
 57 53  1  0  0  0  0
 58 60  2  0  0  0  0
 59 60  1  0  0  0  0
 60 49  1  0  0  0  0
M  END
>  <MODEL>
2

>  <REMARK>
 VINA RESULT:      -3.3      2.650      8.150
  Name = 
  25 active torsions:
  status: ('A' for Active; 'I' for Inactive)
    1  A    between atoms: N_3  and  C_22
    2  A    between atoms: N_3  and  C_53
    3  A    between atoms: C_6  and  C_40
    4  A    between atoms: C_7  and  C_25
    5  A    between atoms: C_7  and  C_46
    6  A    between atoms: C_8  and  C_25
    7  A    between atoms: C_11  and  N_48
    8  A    between atoms: C_11  and  N_56
    9  A    between atoms: C_12  and  C_53
   10  A    between atoms: N_13  and  C_55
   11  A    between atoms: N_14  and  C_42
   12  A    between atoms: C_17  and  C_37
   13  A    between atoms: C_18  and  C_39
   14  A    between atoms: C_18  and  N_43
   15  A    between atoms: C_18  and  N_47
   16  A    between atoms: C_22  and  C_52
   17  A    between atoms: C_23  and  C_44
   18  A    between atoms: C_23  and  C_46
   19  A    between atoms: O_24  and  C_30
   20  A    between atoms: O_24  and  C_37
   21  A    between atoms: C_35  and  N_56
   22  A    between atoms: C_36  and  C_45
   23  A    between atoms: N_43  and  C_45
   24  A    between atoms: C_44  and  C_52
   25  A    between atoms: N_47  and  N_48
                            x       y       z     vdW  Elec       q    Type
                         _______ _______ _______ _____ _____    ______ ____

>  <TORSDO>
F 25

$$$$
