=
 OpenBabel11072414343D

 36 39  0  0  1  0  0  0  0  0999 V2000
  161.3100  207.0960  153.4620 C   0  0  1  0  0  3  0  0  0  0  0  0
  161.7810  208.9910  151.2570 C   0  0  1  0  0  0  0  0  0  0  0  0
  161.0190  208.5530  153.6150 C   0  0  1  0  0  0  0  0  0  0  0  0
  161.6150  209.7980  150.1370 F   0  0  0  0  0  0  0  0  0  0  0  0
  160.7450  209.3510  152.3330 C   0  0  1  0  0  3  0  0  0  0  0  0
  161.5810  207.5140  150.8580 C   0  0  1  0  0  3  0  0  0  0  0  0
  160.0350  207.5750  153.8360 O   0  0  0  0  0  0  0  0  0  0  0  0
  161.2300  206.5560  152.0240 C   0  0  1  0  0  3  0  0  0  0  0  0
  161.1310  208.3770  156.0120 O   0  0  0  0  0  0  0  0  0  0  0  0
  160.2700  209.4690  155.8240 C   0  0  0  0  0  2  0  0  0  0  0  0
  161.4290  209.2290  154.9300 C   0  0  2  0  0  3  0  0  0  0  0  0
  163.3810  210.4240  151.7470 F   0  0  0  0  0  0  0  0  0  0  0  0
  163.0910  209.1310  151.7550 O   0  0  0  0  0  0  0  0  0  0  0  0
  160.5520  211.1500  152.5990 S   0  0  0  0  0  0  0  0  0  0  0  0
  158.7530  211.0030  152.7870 C   0  0  0  0  0  2  0  0  0  0  0  0
  158.3520  211.6690  153.9430 O   0  0  0  0  0  1  0  0  0  0  0  0
  161.9400  205.2080  151.8880 C   0  0  0  0  0  2  0  0  0  0  0  0
  160.4140  203.6090  149.7020 C   0  0  0  0  0  2  0  0  0  0  0  0
  161.8050  202.7030  152.0210 C   0  0  0  0  0  3  0  0  0  0  0  0
  160.8830  202.1510  149.7550 C   0  0  2  0  0  3  0  0  0  0  0  0
  159.8940  204.0330  151.0730 C   0  0  0  0  0  2  0  0  0  0  0  0
  161.7760  201.8980  150.9490 C   0  0  0  0  0  3  0  0  0  0  0  0
  161.0260  203.9970  152.1000 C   0  0  2  0  0  3  0  0  0  0  0  0
  161.1750  200.3290  148.0280 C   0  0  0  0  0  1  0  0  0  0  0  0
  161.5780  201.7380  148.4490 C   0  0  1  0  0  3  0  0  0  0  0  0
  162.4430  203.4920  147.0500 O   0  0  0  0  0  1  0  0  0  0  0  0
  160.8900  202.0760  146.1570 O   0  0  0  0  0  1  0  0  0  0  0  0
  161.3020  202.7340  147.3180 C   0  0  0  0  0  3  0  0  0  0  0  0
  160.5600  207.3610  149.7280 C   0  0  0  0  0  2  0  0  0  0  0  0
  161.2320  207.2680  148.3590 C   0  0  1  0  0  3  0  0  0  0  0  0
  162.6220  207.2190  148.4990 O   0  0  0  0  0  1  0  0  0  0  0  0
  160.7470  206.1280  147.5760 N   0  0  0  0  0  2  0  0  0  0  0  0
  160.3940  206.5500  146.2260 C   0  0  0  0  0  2  0  0  0  0  0  0
  161.2020  205.7870  145.2400 C   0  0  0  0  0  0  0  0  0  0  0  0
  162.5820  205.9390  145.2070 O   0  0  0  0  0  1  0  0  0  0  0  0
  160.6420  204.9720  144.4600 O   0  0  0  0  0  0  0  0  0  0  0  0
  1  3  1  0  0  0  0
  1  7  1  1  0  0  0
  2  4  1  6  0  0  0
  2 13  1  0  0  0  0
  2  5  1  0  0  0  0
  3  7  1  1  0  0  0
  3 11  1  0  0  0  0
  5 14  1  1  0  0  0
  5  3  1  0  0  0  0
  6 29  1  6  0  0  0
  6  2  1  0  0  0  0
  6  8  1  0  0  0  0
  8 17  1  1  0  0  0
  8  1  1  0  0  0  0
 10  9  1  0  0  0  0
 11 10  1  1  0  0  0
 11  9  1  0  0  0  0
 12 13  1  0  0  0  0
 14 15  1  0  0  0  0
 15 16  1  0  0  0  0
 18 20  1  0  0  0  0
 18 21  1  0  0  0  0
 19 23  1  0  0  0  0
 20 25  1  6  0  0  0
 20 22  1  0  0  0  0
 21 23  1  0  0  0  0
 22 19  2  0  0  0  0
 23 17  1  6  0  0  0
 25 24  1  6  0  0  0
 26 28  1  0  0  0  0
 27 28  1  0  0  0  0
 28 25  1  0  0  0  0
 30 31  1  1  0  0  0
 30 29  1  0  0  0  0
 32 30  1  0  0  0  0
 33 32  1  0  0  0  0
 34 33  1  0  0  0  0
 35 34  1  0  0  0  0
 36 34  2  0  0  0  0
M  END
>  <MODEL>
1

>  <REMARK>
 VINA RESULT:      -6.1      0.000      0.000
  Name = 
  13 active torsions:
  status: ('A' for Active; 'I' for Inactive)
    1  A    between atoms: S_1  and  C_25
    2  A    between atoms: S_1  and  C_26
    3  A    between atoms: C_3  and  N_20
    4  A    between atoms: C_3  and  C_24
    5  A    between atoms: C_8  and  C_22
    6  A    between atoms: C_11  and  C_16
    7  A    between atoms: C_11  and  C_34
    8  A    between atoms: C_12  and  N_20
    9  A    between atoms: C_12  and  C_35
   10  A    between atoms: C_14  and  O_36
   11  A    between atoms: C_17  and  C_27
   12  A    between atoms: C_22  and  C_33
   13  A    between atoms: C_30  and  C_35
                            x       y       z     vdW  Elec       q    Type
                         _______ _______ _______ _____ _____    ______ ____

>  <TORSDO>
F 13

$$$$
=
 OpenBabel11072414343D

 36 39  0  0  1  0  0  0  0  0999 V2000
  160.9430  207.2220  154.2120 C   0  0  1  0  0  3  0  0  0  0  0  0
  161.8800  209.6860  152.8990 C   0  0  1  0  0  0  0  0  0  0  0  0
  160.5970  208.5700  154.7540 C   0  0  1  0  0  0  0  0  0  0  0  0
  161.9660  210.8140  152.0900 F   0  0  0  0  0  0  0  0  0  0  0  0
  160.6150  209.7470  153.7680 C   0  0  1  0  0  3  0  0  0  0  0  0
  161.8070  208.4260  152.0130 C   0  0  1  0  0  3  0  0  0  0  0  0
  159.6070  207.6310  154.4200 O   0  0  0  0  0  0  0  0  0  0  0  0
  161.2120  207.1700  152.6980 C   0  0  1  0  0  3  0  0  0  0  0  0
  161.8570  209.4660  156.5970 O   0  0  0  0  0  0  0  0  0  0  0  0
  161.8500  208.0900  156.8710 C   0  0  0  0  0  2  0  0  0  0  0  0
  160.6750  208.7710  156.2720 C   0  0  2  0  0  3  0  0  0  0  0  0
  163.3000  210.7990  154.1650 F   0  0  0  0  0  0  0  0  0  0  0  0
  163.0350  209.5860  153.6990 O   0  0  0  0  0  0  0  0  0  0  0  0
  160.3320  211.3770  154.5460 S   0  0  0  0  0  0  0  0  0  0  0  0
  158.6850  211.5290  153.7990 C   0  0  0  0  0  2  0  0  0  0  0  0
  158.7470  211.1540  152.4590 O   0  0  0  0  0  1  0  0  0  0  0  0
  161.9580  205.8950  152.3020 C   0  0  0  0  0  2  0  0  0  0  0  0
  160.5300  205.0490  149.6740 C   0  0  0  0  0  2  0  0  0  0  0  0
  161.8470  203.4720  151.6510 C   0  0  0  0  0  3  0  0  0  0  0  0
  161.0130  203.6450  149.2920 C   0  0  2  0  0  3  0  0  0  0  0  0
  159.9560  205.0300  151.0880 C   0  0  0  0  0  2  0  0  0  0  0  0
  161.8660  203.0360  150.3830 C   0  0  0  0  0  3  0  0  0  0  0  0
  161.0520  204.6780  152.0960 C   0  0  2  0  0  3  0  0  0  0  0  0
  161.1910  202.6140  146.9920 C   0  0  0  0  0  1  0  0  0  0  0  0
  161.7600  203.6550  147.9500 C   0  0  1  0  0  3  0  0  0  0  0  0
  162.9850  205.3210  146.7230 O   0  0  0  0  0  1  0  0  0  0  0  0
  160.7430  205.1360  146.3340 O   0  0  0  0  0  1  0  0  0  0  0  0
  161.7460  205.0430  147.3010 C   0  0  0  0  0  3  0  0  0  0  0  0
  161.0810  208.6970  150.6930 C   0  0  0  0  0  2  0  0  0  0  0  0
  162.0560  209.0100  149.5580 C   0  0  1  0  0  3  0  0  0  0  0  0
  162.4040  207.8400  148.8760 O   0  0  0  0  0  1  0  0  0  0  0  0
  161.5300  210.0170  148.6330 N   0  0  0  0  0  2  0  0  0  0  0  0
  162.2590  211.2720  148.7780 C   0  0  0  0  0  2  0  0  0  0  0  0
  161.3940  212.4000  148.3420 C   0  0  0  0  0  0  0  0  0  0  0  0
  160.8180  213.2380  149.2870 O   0  0  0  0  0  1  0  0  0  0  0  0
  161.2150  212.6190  147.1150 O   0  0  0  0  0  0  0  0  0  0  0  0
  1  7  1  6  0  0  0
  1  3  1  0  0  0  0
  2  4  1  6  0  0  0
  2 13  1  0  0  0  0
  2  5  1  0  0  0  0
  3  7  1  6  0  0  0
  3 11  1  0  0  0  0
  5 14  1  1  0  0  0
  5  3  1  0  0  0  0
  6 29  1  6  0  0  0
  6  8  1  0  0  0  0
  6  2  1  0  0  0  0
  8 17  1  1  0  0  0
  8  1  1  0  0  0  0
  9 10  1  0  0  0  0
 11  9  1  0  0  0  0
 11 10  1  1  0  0  0
 13 12  1  0  0  0  0
 15 14  1  0  0  0  0
 16 15  1  0  0  0  0
 18 21  1  0  0  0  0
 19 23  1  0  0  0  0
 20 25  1  6  0  0  0
 20 18  1  0  0  0  0
 20 22  1  0  0  0  0
 21 23  1  0  0  0  0
 22 19  2  0  0  0  0
 23 17  1  6  0  0  0
 25 24  1  6  0  0  0
 26 28  1  0  0  0  0
 27 28  1  0  0  0  0
 28 25  1  0  0  0  0
 30 31  1  6  0  0  0
 30 29  1  0  0  0  0
 32 33  1  0  0  0  0
 32 30  1  0  0  0  0
 34 33  1  0  0  0  0
 34 35  1  0  0  0  0
 36 34  2  0  0  0  0
M  END
>  <MODEL>
2

>  <REMARK>
 VINA RESULT:      -5.3      2.173      3.038
  Name = 
  13 active torsions:
  status: ('A' for Active; 'I' for Inactive)
    1  A    between atoms: S_1  and  C_25
    2  A    between atoms: S_1  and  C_26
    3  A    between atoms: C_3  and  N_20
    4  A    between atoms: C_3  and  C_24
    5  A    between atoms: C_8  and  C_22
    6  A    between atoms: C_11  and  C_16
    7  A    between atoms: C_11  and  C_34
    8  A    between atoms: C_12  and  N_20
    9  A    between atoms: C_12  and  C_35
   10  A    between atoms: C_14  and  O_36
   11  A    between atoms: C_17  and  C_27
   12  A    between atoms: C_22  and  C_33
   13  A    between atoms: C_30  and  C_35
                            x       y       z     vdW  Elec       q    Type
                         _______ _______ _______ _____ _____    ______ ____

>  <TORSDO>
F 13

$$$$
=
 OpenBabel11072414343D

 36 39  0  0  1  0  0  0  0  0999 V2000
  160.7310  204.8070  151.2300 C   0  0  1  0  0  3  0  0  0  0  0  0
  160.9510  206.3850  148.7530 C   0  0  1  0  0  0  0  0  0  0  0  0
  161.0670  204.1620  149.9260 C   0  0  1  0  0  0  0  0  0  0  0  0
  161.4440  207.1450  147.6970 F   0  0  0  0  0  0  0  0  0  0  0  0
  161.7050  205.0510  148.8480 C   0  0  1  0  0  3  0  0  0  0  0  0
  161.1490  207.1560  150.0740 C   0  0  1  0  0  3  0  0  0  0  0  0
  161.8990  204.0350  151.0500 O   0  0  0  0  0  0  0  0  0  0  0  0
  161.1340  206.2870  151.3560 C   0  0  1  0  0  3  0  0  0  0  0  0
  160.7560  201.8570  150.5430 O   0  0  0  0  0  0  0  0  0  0  0  0
  161.3650  201.7580  149.2820 C   0  0  0  0  0  2  0  0  0  0  0  0
  160.3860  202.8290  149.5910 C   0  0  2  0  0  3  0  0  0  0  0  0
  159.3080  206.3000  147.2870 F   0  0  0  0  0  0  0  0  0  0  0  0
  159.5700  206.1710  148.5800 O   0  0  0  0  0  0  0  0  0  0  0  0
  161.9410  204.2190  147.2370 S   0  0  0  0  0  0  0  0  0  0  0  0
  162.7380  205.6810  146.5160 C   0  0  0  0  0  2  0  0  0  0  0  0
  162.5450  205.6810  145.1360 O   0  0  0  0  0  1  0  0  0  0  0  0
  160.3960  206.9750  152.5050 C   0  0  0  0  0  2  0  0  0  0  0  0
  160.6950  209.6840  154.0000 C   0  0  0  0  0  2  0  0  0  0  0  0
  160.5110  207.0260  155.0130 C   0  0  0  0  0  3  0  0  0  0  0  0
  160.2660  209.4820  155.4570 C   0  0  2  0  0  3  0  0  0  0  0  0
  161.8010  208.6940  153.6460 C   0  0  0  0  0  2  0  0  0  0  0  0
  160.0210  208.0210  155.7660 C   0  0  0  0  0  3  0  0  0  0  0  0
  161.2720  207.2610  153.7280 C   0  0  2  0  0  3  0  0  0  0  0  0
  159.2130  211.0480  157.1380 C   0  0  0  0  0  1  0  0  0  0  0  0
  159.0350  210.3320  155.8030 C   0  0  1  0  0  3  0  0  0  0  0  0
  157.3460  211.3250  154.4080 O   0  0  0  0  0  1  0  0  0  0  0  0
  159.1010  212.6320  155.0590 O   0  0  0  0  0  1  0  0  0  0  0  0
  158.7120  211.3410  154.6950 C   0  0  0  0  0  3  0  0  0  0  0  0
  162.4090  208.0250  150.0450 C   0  0  0  0  0  2  0  0  0  0  0  0
  162.0750  209.5170  150.0410 C   0  0  1  0  0  3  0  0  0  0  0  0
  162.8170  210.1860  151.0180 O   0  0  0  0  0  1  0  0  0  0  0  0
  162.2720  210.1290  148.7250 N   0  0  0  0  0  2  0  0  0  0  0  0
  162.2790  211.5840  148.8350 C   0  0  0  0  0  2  0  0  0  0  0  0
  161.7230  212.1770  147.5910 C   0  0  0  0  0  0  0  0  0  0  0  0
  162.5170  212.9960  146.7990 O   0  0  0  0  0  0  0  0  0  0  0  0
  160.5470  211.9070  147.2340 O   0  0  0  0  0  1  0  0  0  0  0  0
  1  7  1  1  0  0  0
  1  8  1  0  0  0  0
  2  4  1  6  0  0  0
  2  5  1  0  0  0  0
  2  6  1  0  0  0  0
  3  7  1  1  0  0  0
  3  1  1  0  0  0  0
  5 14  1  6  0  0  0
  5  3  1  0  0  0  0
  6 29  1  6  0  0  0
  6  8  1  0  0  0  0
  8 17  1  1  0  0  0
 10  9  1  0  0  0  0
 11 10  1  6  0  0  0
 11  3  1  0  0  0  0
 11  9  1  0  0  0  0
 12 13  1  0  0  0  0
 13  2  1  0  0  0  0
 15 14  1  0  0  0  0
 16 15  1  0  0  0  0
 18 20  1  0  0  0  0
 19 22  2  0  0  0  0
 20 22  1  0  0  0  0
 20 25  1  6  0  0  0
 21 23  1  0  0  0  0
 21 18  1  0  0  0  0
 23 17  1  6  0  0  0
 23 19  1  0  0  0  0
 25 24  1  1  0  0  0
 26 28  1  0  0  0  0
 28 27  1  0  0  0  0
 28 25  1  0  0  0  0
 30 29  1  0  0  0  0
 30 31  1  1  0  0  0
 32 33  1  0  0  0  0
 32 30  1  0  0  0  0
 34 33  1  0  0  0  0
 35 34  2  0  0  0  0
 36 34  1  0  0  0  0
M  END
>  <MODEL>
3

>  <REMARK>
 VINA RESULT:      -5.2      3.008      7.606
  Name = 
  13 active torsions:
  status: ('A' for Active; 'I' for Inactive)
    1  A    between atoms: S_1  and  C_25
    2  A    between atoms: S_1  and  C_26
    3  A    between atoms: C_3  and  N_20
    4  A    between atoms: C_3  and  C_24
    5  A    between atoms: C_8  and  C_22
    6  A    between atoms: C_11  and  C_16
    7  A    between atoms: C_11  and  C_34
    8  A    between atoms: C_12  and  N_20
    9  A    between atoms: C_12  and  C_35
   10  A    between atoms: C_14  and  O_36
   11  A    between atoms: C_17  and  C_27
   12  A    between atoms: C_22  and  C_33
   13  A    between atoms: C_30  and  C_35
                            x       y       z     vdW  Elec       q    Type
                         _______ _______ _______ _____ _____    ______ ____

>  <TORSDO>
F 13

$$$$
=
 OpenBabel11072414343D

 36 39  0  0  1  0  0  0  0  0999 V2000
  159.4910  212.2970  152.1820 C   0  0  1  0  0  3  0  0  0  0  0  0
  158.4560  211.5300  154.8310 C   0  0  1  0  0  0  0  0  0  0  0  0
  158.8440  213.2970  153.0820 C   0  0  1  0  0  0  0  0  0  0  0  0
  158.3400  211.2810  156.1940 F   0  0  0  0  0  0  0  0  0  0  0  0
  158.8510  212.9940  154.5870 C   0  0  1  0  0  3  0  0  0  0  0  0
  159.5510  210.6210  154.2360 C   0  0  1  0  0  3  0  0  0  0  0  0
  160.1450  213.4820  152.5860 O   0  0  0  0  0  0  0  0  0  0  0  0
  160.1530  211.1030  152.8930 C   0  0  1  0  0  3  0  0  0  0  0  0
  156.5470  213.8250  152.5970 O   0  0  0  0  0  0  0  0  0  0  0  0
  157.1120  213.7110  151.3180 C   0  0  0  0  0  2  0  0  0  0  0  0
  157.8670  214.2980  152.4520 C   0  0  2  0  0  3  0  0  0  0  0  0
  156.3220  211.0700  155.1290 F   0  0  0  0  0  0  0  0  0  0  0  0
  157.2420  211.2230  154.1870 O   0  0  0  0  0  0  0  0  0  0  0  0
  157.9050  214.1910  155.5950 S   0  0  0  0  0  0  0  0  0  0  0  0
  159.2760  214.4010  156.7650 C   0  0  0  0  0  2  0  0  0  0  0  0
  160.3590  213.6270  156.3540 O   0  0  0  0  0  1  0  0  0  0  0  0
  160.4040  209.9420  151.9290 C   0  0  0  0  0  2  0  0  0  0  0  0
  161.9540  207.5480  150.6930 C   0  0  0  0  0  2  0  0  0  0  0  0
  161.6270  210.2200  149.7530 C   0  0  0  0  0  3  0  0  0  0  0  0
  162.1810  207.8360  149.2050 C   0  0  2  0  0  3  0  0  0  0  0  0
  162.5250  208.6880  151.5320 C   0  0  0  0  0  2  0  0  0  0  0  0
  161.7660  209.2450  148.8430 C   0  0  0  0  0  3  0  0  0  0  0  0
  161.7700  209.9860  151.2400 C   0  0  2  0  0  3  0  0  0  0  0  0
  162.1440  206.6780  146.9600 C   0  0  0  0  0  1  0  0  0  0  0  0
  161.4650  206.8050  148.3190 C   0  0  1  0  0  3  0  0  0  0  0  0
  160.1300  205.2860  149.6190 O   0  0  0  0  0  1  0  0  0  0  0  0
  161.5700  204.4020  148.0830 O   0  0  0  0  0  1  0  0  0  0  0  0
  161.3720  205.4360  149.0010 C   0  0  0  0  0  3  0  0  0  0  0  0
  160.6700  210.3410  155.2420 C   0  0  0  0  0  2  0  0  0  0  0  0
  160.6710  208.8850  155.7060 C   0  0  1  0  0  3  0  0  0  0  0  0
  159.3630  208.4360  155.9080 O   0  0  0  0  0  1  0  0  0  0  0  0
  161.3880  208.0050  154.7800 N   0  0  0  0  0  2  0  0  0  0  0  0
  160.5460  206.8790  154.3910 C   0  0  0  0  0  2  0  0  0  0  0  0
  161.3540  205.8980  153.6220 C   0  0  0  0  0  0  0  0  0  0  0  0
  162.7240  206.0780  153.4920 O   0  0  0  0  0  1  0  0  0  0  0  0
  160.8040  204.8820  153.1210 O   0  0  0  0  0  0  0  0  0  0  0  0
  1  7  1  1  0  0  0
  1  8  1  0  0  0  0
  1  3  1  0  0  0  0
  2  4  1  1  0  0  0
  3  7  1  1  0  0  0
  3  5  1  0  0  0  0
  5  2  1  0  0  0  0
  5 14  1  1  0  0  0
  6  2  1  0  0  0  0
  6 29  1  1  0  0  0
  8 17  1  6  0  0  0
  8  6  1  0  0  0  0
 10  9  1  0  0  0  0
 11 10  1  6  0  0  0
 11  9  1  0  0  0  0
 11  3  1  0  0  0  0
 13  2  1  0  0  0  0
 13 12  1  0  0  0  0
 14 15  1  0  0  0  0
 16 15  1  0  0  0  0
 18 21  1  0  0  0  0
 19 23  1  0  0  0  0
 20 25  1  6  0  0  0
 20 18  1  0  0  0  0
 22 20  1  0  0  0  0
 22 19  2  0  0  0  0
 23 21  1  0  0  0  0
 23 17  1  1  0  0  0
 25 24  1  6  0  0  0
 25 28  1  0  0  0  0
 27 28  1  0  0  0  0
 28 26  1  0  0  0  0
 29 30  1  0  0  0  0
 30 31  1  6  0  0  0
 32 30  1  0  0  0  0
 33 32  1  0  0  0  0
 34 33  1  0  0  0  0
 35 34  1  0  0  0  0
 36 34  2  0  0  0  0
M  END
>  <MODEL>
4

>  <REMARK>
 VINA RESULT:      -4.5      3.278      6.325
  Name = 
  13 active torsions:
  status: ('A' for Active; 'I' for Inactive)
    1  A    between atoms: S_1  and  C_25
    2  A    between atoms: S_1  and  C_26
    3  A    between atoms: C_3  and  N_20
    4  A    between atoms: C_3  and  C_24
    5  A    between atoms: C_8  and  C_22
    6  A    between atoms: C_11  and  C_16
    7  A    between atoms: C_11  and  C_34
    8  A    between atoms: C_12  and  N_20
    9  A    between atoms: C_12  and  C_35
   10  A    between atoms: C_14  and  O_36
   11  A    between atoms: C_17  and  C_27
   12  A    between atoms: C_22  and  C_33
   13  A    between atoms: C_30  and  C_35
                            x       y       z     vdW  Elec       q    Type
                         _______ _______ _______ _____ _____    ______ ____

>  <TORSDO>
F 13

$$$$
=
 OpenBabel11072414343D

 36 39  0  0  1  0  0  0  0  0999 V2000
  158.5230  212.9060  154.0750 C   0  0  1  0  0  3  0  0  0  0  0  0
  159.8190  210.3310  154.6800 C   0  0  1  0  0  0  0  0  0  0  0  0
  159.0480  212.6030  155.4400 C   0  0  1  0  0  0  0  0  0  0  0  0
  160.7620  209.3260  154.8660 F   0  0  0  0  0  0  0  0  0  0  0  0
  160.1640  211.5530  155.5450 C   0  0  1  0  0  3  0  0  0  0  0  0
  159.8150  210.7620  153.2000 C   0  0  1  0  0  3  0  0  0  0  0  0
  159.4680  213.7330  154.7200 O   0  0  0  0  0  0  0  0  0  0  0  0
  159.2230  212.1660  152.9210 C   0  0  1  0  0  3  0  0  0  0  0  0
  157.6170  211.8530  157.2230 O   0  0  0  0  0  0  0  0  0  0  0  0
  156.7570  212.6510  156.4540 C   0  0  0  0  0  2  0  0  0  0  0  0
  158.1850  213.0050  156.6420 C   0  0  2  0  0  3  0  0  0  0  0  0
  158.6750  208.9560  155.9680 F   0  0  0  0  0  0  0  0  0  0  0  0
  158.5350  209.8410  154.9920 O   0  0  0  0  0  0  0  0  0  0  0  0
  160.6360  211.1340  157.2610 S   0  0  0  0  0  0  0  0  0  0  0  0
  162.3690  211.5910  156.9730 C   0  0  0  0  0  2  0  0  0  0  0  0
  162.9280  210.7220  156.0390 O   0  0  0  0  0  1  0  0  0  0  0  0
  158.3810  212.1890  151.6450 C   0  0  0  0  0  2  0  0  0  0  0  0
  160.3980  213.4860  149.6670 C   0  0  0  0  0  2  0  0  0  0  0  0
  157.5470  213.4940  149.6680 C   0  0  0  0  0  3  0  0  0  0  0  0
  159.6640  213.7850  148.3550 C   0  0  2  0  0  3  0  0  0  0  0  0
  159.6750  214.1610  150.8280 C   0  0  0  0  0  2  0  0  0  0  0  0
  158.1760  213.5440  148.4850 C   0  0  0  0  0  3  0  0  0  0  0  0
  158.2730  213.5690  150.9920 C   0  0  2  0  0  3  0  0  0  0  0  0
  159.3110  212.9750  145.9870 C   0  0  0  0  0  1  0  0  0  0  0  0
  160.2520  212.9790  147.1870 C   0  0  1  0  0  3  0  0  0  0  0  0
  162.6360  212.7620  147.4170 O   0  0  0  0  0  1  0  0  0  0  0  0
  161.8110  213.4290  145.3950 O   0  0  0  0  0  1  0  0  0  0  0  0
  161.6360  213.4960  146.7790 C   0  0  0  0  0  3  0  0  0  0  0  0
  161.2040  210.6440  152.5670 C   0  0  0  0  0  2  0  0  0  0  0  0
  161.2340  209.6060  151.4450 C   0  0  1  0  0  3  0  0  0  0  0  0
  162.4810  209.6070  150.8120 O   0  0  0  0  0  1  0  0  0  0  0  0
  160.8910  208.2630  151.9170 N   0  0  0  0  0  2  0  0  0  0  0  0
  161.9330  207.3110  151.5500 C   0  0  0  0  0  2  0  0  0  0  0  0
  161.7730  206.0690  152.3500 C   0  0  0  0  0  0  0  0  0  0  0  0
  161.7930  206.1290  153.7370 O   0  0  0  0  0  1  0  0  0  0  0  0
  161.5820  204.9670  151.7720 O   0  0  0  0  0  0  0  0  0  0  0  0
  1  7  1  6  0  0  0
  1  3  1  0  0  0  0
  2  4  1  1  0  0  0
  2 13  1  0  0  0  0
  2  5  1  0  0  0  0
  3  7  1  1  0  0  0
  3  5  1  0  0  0  0
  3 11  1  0  0  0  0
  5 14  1  1  0  0  0
  6 29  1  1  0  0  0
  6  2  1  0  0  0  0
  8 17  1  6  0  0  0
  8  6  1  0  0  0  0
  8  1  1  0  0  0  0
 10  9  1  0  0  0  0
 11 10  1  6  0  0  0
 11  9  1  0  0  0  0
 13 12  1  0  0  0  0
 15 14  1  0  0  0  0
 16 15  1  0  0  0  0
 18 21  1  0  0  0  0
 19 23  1  0  0  0  0
 20 25  1  6  0  0  0
 20 22  1  0  0  0  0
 20 18  1  0  0  0  0
 21 23  1  0  0  0  0
 22 19  2  0  0  0  0
 23 17  1  6  0  0  0
 25 24  1  6  0  0  0
 27 28  1  0  0  0  0
 28 25  1  0  0  0  0
 28 26  1  0  0  0  0
 30 31  1  1  0  0  0
 30 32  1  0  0  0  0
 30 29  1  0  0  0  0
 33 32  1  0  0  0  0
 33 34  1  0  0  0  0
 34 35  1  0  0  0  0
 36 34  2  0  0  0  0
M  END
>  <MODEL>
5

>  <REMARK>
 VINA RESULT:      -4.5      4.072      7.728
  Name = 
  13 active torsions:
  status: ('A' for Active; 'I' for Inactive)
    1  A    between atoms: S_1  and  C_25
    2  A    between atoms: S_1  and  C_26
    3  A    between atoms: C_3  and  N_20
    4  A    between atoms: C_3  and  C_24
    5  A    between atoms: C_8  and  C_22
    6  A    between atoms: C_11  and  C_16
    7  A    between atoms: C_11  and  C_34
    8  A    between atoms: C_12  and  N_20
    9  A    between atoms: C_12  and  C_35
   10  A    between atoms: C_14  and  O_36
   11  A    between atoms: C_17  and  C_27
   12  A    between atoms: C_22  and  C_33
   13  A    between atoms: C_30  and  C_35
                            x       y       z     vdW  Elec       q    Type
                         _______ _______ _______ _____ _____    ______ ____

>  <TORSDO>
F 13

$$$$
=
 OpenBabel11072414343D

 36 39  0  0  1  0  0  0  0  0999 V2000
  159.4040  211.9080  154.6940 C   0  0  1  0  0  3  0  0  0  0  0  0
  160.6130  209.2230  154.6890 C   0  0  1  0  0  0  0  0  0  0  0  0
  160.0530  211.3470  155.9160 C   0  0  1  0  0  0  0  0  0  0  0  0
  161.5140  208.1680  154.5880 F   0  0  0  0  0  0  0  0  0  0  0  0
  161.1140  210.2570  155.7080 C   0  0  1  0  0  3  0  0  0  0  0  0
  160.4760  209.9120  153.3170 C   0  0  1  0  0  3  0  0  0  0  0  0
  160.4560  212.5730  155.3610 O   0  0  0  0  0  0  0  0  0  0  0  0
  159.9360  211.3630  153.3570 C   0  0  1  0  0  3  0  0  0  0  0  0
  158.0570  210.9880  157.2110 O   0  0  0  0  0  0  0  0  0  0  0  0
  158.1230  212.3870  157.1300 C   0  0  0  0  0  2  0  0  0  0  0  0
  159.3450  211.5570  157.2610 C   0  0  2  0  0  3  0  0  0  0  0  0
  159.5310  207.5670  155.6630 F   0  0  0  0  0  0  0  0  0  0  0  0
  159.3450  208.7300  155.0550 O   0  0  0  0  0  0  0  0  0  0  0  0
  161.7420  209.5210  157.2600 S   0  0  0  0  0  0  0  0  0  0  0  0
  163.4000  210.2150  157.0040 C   0  0  0  0  0  2  0  0  0  0  0  0
  163.3900  211.0320  155.8760 O   0  0  0  0  0  1  0  0  0  0  0  0
  158.9660  211.6440  152.2080 C   0  0  0  0  0  2  0  0  0  0  0  0
  160.1930  213.6260  150.1520 C   0  0  0  0  0  2  0  0  0  0  0  0
  157.4990  213.3090  151.0310 C   0  0  0  0  0  3  0  0  0  0  0  0
  159.0630  214.1660  149.2680 C   0  0  2  0  0  3  0  0  0  0  0  0
  159.8720  213.8940  151.6200 C   0  0  0  0  0  2  0  0  0  0  0  0
  157.7050  213.7320  149.7760 C   0  0  0  0  0  3  0  0  0  0  0  0
  158.6160  213.1240  152.0330 C   0  0  2  0  0  3  0  0  0  0  0  0
  160.1830  212.5530  147.6770 C   0  0  0  0  0  1  0  0  0  0  0  0
  159.2570  213.7590  147.8000 C   0  0  1  0  0  3  0  0  0  0  0  0
  158.0380  213.6810  145.7290 O   0  0  0  0  0  1  0  0  0  0  0  0
  157.4840  212.1770  147.3550 O   0  0  0  0  0  1  0  0  0  0  0  0
  157.9200  213.4810  147.1040 C   0  0  0  0  0  3  0  0  0  0  0  0
  161.7820  209.8600  152.5190 C   0  0  0  0  0  2  0  0  0  0  0  0
  161.5290  209.7710  151.0140 C   0  0  1  0  0  3  0  0  0  0  0  0
  162.3710  210.6460  150.3240 O   0  0  0  0  0  1  0  0  0  0  0  0
  161.6680  208.4040  150.5060 N   0  0  0  0  0  2  0  0  0  0  0  0
  162.0180  208.4190  149.0900 C   0  0  0  0  0  2  0  0  0  0  0  0
  161.4750  207.2030  148.4320 C   0  0  0  0  0  0  0  0  0  0  0  0
  162.1420  206.6410  147.3520 O   0  0  0  0  0  0  0  0  0  0  0  0
  160.4300  206.6580  148.8760 O   0  0  0  0  0  1  0  0  0  0  0  0
  1  7  1  6  0  0  0
  1  3  1  0  0  0  0
  2  4  1  6  0  0  0
  2 13  1  0  0  0  0
  2  5  1  0  0  0  0
  3  7  1  1  0  0  0
  3 11  1  0  0  0  0
  5  3  1  0  0  0  0
  5 14  1  1  0  0  0
  6 29  1  1  0  0  0
  6  8  1  0  0  0  0
  6  2  1  0  0  0  0
  8 17  1  6  0  0  0
  8  1  1  0  0  0  0
  9 11  1  0  0  0  0
 10  9  1  0  0  0  0
 11 10  1  6  0  0  0
 13 12  1  0  0  0  0
 15 14  1  0  0  0  0
 16 15  1  0  0  0  0
 18 21  1  0  0  0  0
 19 23  1  0  0  0  0
 20 25  1  6  0  0  0
 20 22  1  0  0  0  0
 20 18  1  0  0  0  0
 21 23  1  0  0  0  0
 22 19  2  0  0  0  0
 23 17  1  6  0  0  0
 25 24  1  1  0  0  0
 26 28  1  0  0  0  0
 28 27  1  0  0  0  0
 28 25  1  0  0  0  0
 30 31  1  6  0  0  0
 30 29  1  0  0  0  0
 32 30  1  0  0  0  0
 33 32  1  0  0  0  0
 34 36  1  0  0  0  0
 34 33  1  0  0  0  0
 35 34  2  0  0  0  0
M  END
>  <MODEL>
6

>  <REMARK>
 VINA RESULT:      -4.2      3.684      7.303
  Name = 
  13 active torsions:
  status: ('A' for Active; 'I' for Inactive)
    1  A    between atoms: S_1  and  C_25
    2  A    between atoms: S_1  and  C_26
    3  A    between atoms: C_3  and  N_20
    4  A    between atoms: C_3  and  C_24
    5  A    between atoms: C_8  and  C_22
    6  A    between atoms: C_11  and  C_16
    7  A    between atoms: C_11  and  C_34
    8  A    between atoms: C_12  and  N_20
    9  A    between atoms: C_12  and  C_35
   10  A    between atoms: C_14  and  O_36
   11  A    between atoms: C_17  and  C_27
   12  A    between atoms: C_22  and  C_33
   13  A    between atoms: C_30  and  C_35
                            x       y       z     vdW  Elec       q    Type
                         _______ _______ _______ _____ _____    ______ ____

>  <TORSDO>
F 13

$$$$
=
 OpenBabel11072414343D

 36 39  0  0  1  0  0  0  0  0999 V2000
  161.3360  209.8750  152.9830 C   0  0  1  0  0  3  0  0  0  0  0  0
  160.4770  207.7480  154.8310 C   0  0  1  0  0  0  0  0  0  0  0  0
  161.3500  210.0790  154.4620 C   0  0  1  0  0  0  0  0  0  0  0  0
  160.4670  206.6580  155.6940 F   0  0  0  0  0  0  0  0  0  0  0  0
  161.4460  208.8250  155.3420 C   0  0  1  0  0  3  0  0  0  0  0  0
  160.9430  207.2910  153.4340 C   0  0  1  0  0  3  0  0  0  0  0  0
  162.5040  210.2510  153.6800 O   0  0  0  0  0  0  0  0  0  0  0  0
  161.4890  208.4160  152.5180 C   0  0  1  0  0  3  0  0  0  0  0  0
  159.6030  211.2390  155.6420 O   0  0  0  0  0  0  0  0  0  0  0  0
  159.5660  211.8380  154.3740 C   0  0  0  0  0  2  0  0  0  0  0  0
  160.8450  211.4230  155.0020 C   0  0  2  0  0  3  0  0  0  0  0  0
  158.4910  207.8880  155.7760 F   0  0  0  0  0  0  0  0  0  0  0  0
  159.1720  208.2660  154.7040 O   0  0  0  0  0  0  0  0  0  0  0  0
  161.3020  209.1570  157.1340 S   0  0  0  0  0  0  0  0  0  0  0  0
  163.0480  209.6350  157.2610 C   0  0  0  0  0  2  0  0  0  0  0  0
  163.1500  211.0240  157.2560 O   0  0  0  0  0  1  0  0  0  0  0  0
  161.0430  208.2370  151.0660 C   0  0  0  0  0  2  0  0  0  0  0  0
  162.3150  206.0920  149.2110 C   0  0  0  0  0  2  0  0  0  0  0  0
  161.5940  208.7990  148.6810 C   0  0  0  0  0  3  0  0  0  0  0  0
  162.1020  206.5240  147.7560 C   0  0  2  0  0  3  0  0  0  0  0  0
  163.0350  207.1980  149.9770 C   0  0  0  0  0  2  0  0  0  0  0  0
  161.5270  207.9200  147.6700 C   0  0  0  0  0  3  0  0  0  0  0  0
  162.1590  208.4510  150.0390 C   0  0  2  0  0  3  0  0  0  0  0  0
  160.1260  206.2260  146.2090 C   0  0  0  0  0  1  0  0  0  0  0  0
  161.2250  205.5190  146.9950 C   0  0  1  0  0  3  0  0  0  0  0  0
  161.5110  204.6200  144.7830 O   0  0  0  0  0  1  0  0  0  0  0  0
  163.3850  205.0540  146.0130 O   0  0  0  0  0  1  0  0  0  0  0  0
  162.0560  204.6260  146.0670 C   0  0  0  0  0  3  0  0  0  0  0  0
  161.9540  206.1450  153.5150 C   0  0  0  0  0  2  0  0  0  0  0  0
  161.8440  205.1990  152.3200 C   0  0  1  0  0  3  0  0  0  0  0  0
  162.9560  204.3540  152.2610 O   0  0  0  0  0  1  0  0  0  0  0  0
  160.6010  204.4240  152.3350 N   0  0  0  0  0  2  0  0  0  0  0  0
  160.8890  202.9960  152.2690 C   0  0  0  0  0  2  0  0  0  0  0  0
  160.7810  202.5330  150.8610 C   0  0  0  0  0  0  0  0  0  0  0  0
  160.9630  201.1900  150.5560 O   0  0  0  0  0  1  0  0  0  0  0  0
  160.4870  203.3500  149.9490 O   0  0  0  0  0  0  0  0  0  0  0  0
  1  7  1  6  0  0  0
  1  3  1  0  0  0  0
  2  5  1  0  0  0  0
  2  4  1  1  0  0  0
  3  7  1  1  0  0  0
  3 11  1  0  0  0  0
  3  5  1  0  0  0  0
  5 14  1  1  0  0  0
  6 29  1  1  0  0  0
  6  2  1  0  0  0  0
  8 17  1  6  0  0  0
  8  1  1  0  0  0  0
  8  6  1  0  0  0  0
 10  9  1  0  0  0  0
 11 10  1  6  0  0  0
 11  9  1  0  0  0  0
 13  2  1  0  0  0  0
 13 12  1  0  0  0  0
 14 15  1  0  0  0  0
 16 15  1  0  0  0  0
 18 21  1  0  0  0  0
 19 23  1  0  0  0  0
 20 25  1  1  0  0  0
 20 18  1  0  0  0  0
 21 23  1  0  0  0  0
 22 20  1  0  0  0  0
 22 19  2  0  0  0  0
 23 17  1  1  0  0  0
 25 24  1  6  0  0  0
 26 28  1  0  0  0  0
 27 28  1  0  0  0  0
 28 25  1  0  0  0  0
 30 31  1  1  0  0  0
 30 32  1  0  0  0  0
 30 29  1  0  0  0  0
 33 32  1  0  0  0  0
 34 33  1  0  0  0  0
 35 34  1  0  0  0  0
 36 34  2  0  0  0  0
M  END
>  <MODEL>
7

>  <REMARK>
 VINA RESULT:      -4.2      2.697      4.813
  Name = 
  13 active torsions:
  status: ('A' for Active; 'I' for Inactive)
    1  A    between atoms: S_1  and  C_25
    2  A    between atoms: S_1  and  C_26
    3  A    between atoms: C_3  and  N_20
    4  A    between atoms: C_3  and  C_24
    5  A    between atoms: C_8  and  C_22
    6  A    between atoms: C_11  and  C_16
    7  A    between atoms: C_11  and  C_34
    8  A    between atoms: C_12  and  N_20
    9  A    between atoms: C_12  and  C_35
   10  A    between atoms: C_14  and  O_36
   11  A    between atoms: C_17  and  C_27
   12  A    between atoms: C_22  and  C_33
   13  A    between atoms: C_30  and  C_35
                            x       y       z     vdW  Elec       q    Type
                         _______ _______ _______ _____ _____    ______ ____

>  <TORSDO>
F 13

$$$$
=
 OpenBabel11072414343D

 36 39  0  0  1  0  0  0  0  0999 V2000
  161.4250  208.4070  152.8280 C   0  0  1  0  0  3  0  0  0  0  0  0
  162.1170  206.2800  150.9110 C   0  0  1  0  0  0  0  0  0  0  0  0
  161.5810  208.6950  151.3710 C   0  0  1  0  0  0  0  0  0  0  0  0
  162.0400  205.2530  149.9760 F   0  0  0  0  0  0  0  0  0  0  0  0
  161.3760  207.5240  150.3990 C   0  0  1  0  0  3  0  0  0  0  0  0
  161.4580  205.8240  152.2280 C   0  0  1  0  0  3  0  0  0  0  0  0
  160.3980  209.0040  152.0630 O   0  0  0  0  0  0  0  0  0  0  0  0
  161.0080  206.9660  153.1730 C   0  0  1  0  0  3  0  0  0  0  0  0
  161.5490  211.0990  151.2820 O   0  0  0  0  0  0  0  0  0  0  0  0
  161.6170  210.7440  149.9270 C   0  0  0  0  0  2  0  0  0  0  0  0
  162.3330  209.9710  150.9710 C   0  0  2  0  0  3  0  0  0  0  0  0
  163.8820  205.7210  152.1060 F   0  0  0  0  0  0  0  0  0  0  0  0
  163.4680  206.5760  151.1820 O   0  0  0  0  0  0  0  0  0  0  0  0
  161.7360  207.9310  148.6530 S   0  0  0  0  0  0  0  0  0  0  0  0
  160.7230  206.5530  148.0460 C   0  0  0  0  0  2  0  0  0  0  0  0
  160.6870  206.5820  146.6530 O   0  0  0  0  0  1  0  0  0  0  0  0
  161.2830  206.6370  154.6400 C   0  0  0  0  0  2  0  0  0  0  0  0
  161.2830  208.3480  157.2350 C   0  0  0  0  0  2  0  0  0  0  0  0
  159.3390  208.1390  155.1610 C   0  0  0  0  0  3  0  0  0  0  0  0
  160.2630  209.4800  157.0670 C   0  0  2  0  0  3  0  0  0  0  0  0
  160.6000  207.0020  157.0140 C   0  0  0  0  0  2  0  0  0  0  0  0
  159.4490  209.3100  155.8040 C   0  0  0  0  0  3  0  0  0  0  0  0
  160.0970  206.8970  155.5730 C   0  0  2  0  0  3  0  0  0  0  0  0
  161.8050  211.0820  155.8670 C   0  0  0  0  0  1  0  0  0  0  0  0
  160.9430  210.8570  157.1040 C   0  0  1  0  0  3  0  0  0  0  0  0
  160.4980  213.2120  156.9040 O   0  0  0  0  0  1  0  0  0  0  0  0
  158.7890  211.7580  156.4780 O   0  0  0  0  0  1  0  0  0  0  0  0
  159.9230  211.9910  157.2590 C   0  0  0  0  0  3  0  0  0  0  0  0
  160.2950  204.8590  151.9810 C   0  0  0  0  0  2  0  0  0  0  0  0
  160.7780  203.5030  151.4670 C   0  0  1  0  0  3  0  0  0  0  0  0
  160.5140  202.5020  152.4070 O   0  0  0  0  0  1  0  0  0  0  0  0
  160.1980  203.1610  150.1660 N   0  0  0  0  0  2  0  0  0  0  0  0
  160.8510  201.9810  149.6100 C   0  0  0  0  0  2  0  0  0  0  0  0
  161.1360  202.2050  148.1690 C   0  0  0  0  0  0  0  0  0  0  0  0
  160.8580  201.2080  147.2440 O   0  0  0  0  0  0  0  0  0  0  0  0
  161.5930  203.3120  147.7810 O   0  0  0  0  0  1  0  0  0  0  0  0
  1  7  1  6  0  0  0
  1  8  1  0  0  0  0
  2  4  1  6  0  0  0
  2 13  1  0  0  0  0
  2  6  1  0  0  0  0
  3  7  1  6  0  0  0
  3  1  1  0  0  0  0
  5 14  1  6  0  0  0
  5  2  1  0  0  0  0
  5  3  1  0  0  0  0
  6 29  1  6  0  0  0
  6  8  1  0  0  0  0
  8 17  1  1  0  0  0
 10  9  1  0  0  0  0
 11 10  1  6  0  0  0
 11  9  1  0  0  0  0
 11  3  1  0  0  0  0
 13 12  1  0  0  0  0
 15 14  1  0  0  0  0
 16 15  1  0  0  0  0
 19 23  1  0  0  0  0
 19 22  2  0  0  0  0
 20 25  1  6  0  0  0
 20 18  1  0  0  0  0
 21 18  1  0  0  0  0
 22 20  1  0  0  0  0
 23 17  1  6  0  0  0
 23 21  1  0  0  0  0
 25 24  1  6  0  0  0
 25 28  1  0  0  0  0
 26 28  1  0  0  0  0
 27 28  1  0  0  0  0
 30 29  1  0  0  0  0
 30 31  1  1  0  0  0
 32 30  1  0  0  0  0
 33 32  1  0  0  0  0
 34 33  1  0  0  0  0
 35 34  2  0  0  0  0
 36 34  1  0  0  0  0
M  END
>  <MODEL>
8

>  <REMARK>
 VINA RESULT:      -4.2      2.473      7.138
  Name = 
  13 active torsions:
  status: ('A' for Active; 'I' for Inactive)
    1  A    between atoms: S_1  and  C_25
    2  A    between atoms: S_1  and  C_26
    3  A    between atoms: C_3  and  N_20
    4  A    between atoms: C_3  and  C_24
    5  A    between atoms: C_8  and  C_22
    6  A    between atoms: C_11  and  C_16
    7  A    between atoms: C_11  and  C_34
    8  A    between atoms: C_12  and  N_20
    9  A    between atoms: C_12  and  C_35
   10  A    between atoms: C_14  and  O_36
   11  A    between atoms: C_17  and  C_27
   12  A    between atoms: C_22  and  C_33
   13  A    between atoms: C_30  and  C_35
                            x       y       z     vdW  Elec       q    Type
                         _______ _______ _______ _____ _____    ______ ____

>  <TORSDO>
F 13

$$$$
=
 OpenBabel11072414343D

 36 39  0  0  1  0  0  0  0  0999 V2000
  159.3860  211.7900  152.4570 C   0  0  1  0  0  3  0  0  0  0  0  0
  159.4760  211.6700  155.3980 C   0  0  1  0  0  0  0  0  0  0  0  0
  159.0570  212.9830  153.2930 C   0  0  1  0  0  0  0  0  0  0  0  0
  159.8970  211.7410  156.7220 F   0  0  0  0  0  0  0  0  0  0  0  0
  159.6490  213.0310  154.7090 C   0  0  1  0  0  3  0  0  0  0  0  0
  160.3270  210.6270  154.6460 C   0  0  1  0  0  3  0  0  0  0  0  0
  160.0600  213.0230  152.3120 O   0  0  0  0  0  0  0  0  0  0  0  0
  160.3470  210.7770  153.1040 C   0  0  1  0  0  3  0  0  0  0  0  0
  156.6630  213.0980  153.0800 O   0  0  0  0  0  0  0  0  0  0  0  0
  157.0960  213.2320  151.7520 C   0  0  0  0  0  2  0  0  0  0  0  0
  157.8490  213.8330  152.8800 C   0  0  2  0  0  3  0  0  0  0  0  0
  158.1260  209.9280  155.4640 F   0  0  0  0  0  0  0  0  0  0  0  0
  158.1320  211.2490  155.3500 O   0  0  0  0  0  0  0  0  0  0  0  0
  159.0700  214.4460  155.7130 S   0  0  0  0  0  0  0  0  0  0  0  0
  157.6620  213.5030  156.3630 C   0  0  0  0  0  2  0  0  0  0  0  0
  156.4910  214.2380  156.1850 O   0  0  0  0  0  1  0  0  0  0  0  0
  160.2960  209.4220  152.3970 C   0  0  0  0  0  2  0  0  0  0  0  0
  161.1540  206.4730  151.9190 C   0  0  0  0  0  2  0  0  0  0  0  0
  161.6800  208.8210  150.3890 C   0  0  0  0  0  3  0  0  0  0  0  0
  161.5480  206.3170  150.4450 C   0  0  2  0  0  3  0  0  0  0  0  0
  161.9800  207.5860  152.5580 C   0  0  0  0  0  2  0  0  0  0  0  0
  161.5850  207.6530  149.7370 C   0  0  0  0  0  3  0  0  0  0  0  0
  161.6560  208.9280  151.8970 C   0  0  2  0  0  3  0  0  0  0  0  0
  161.0830  205.0890  148.2860 C   0  0  0  0  0  1  0  0  0  0  0  0
  160.6190  205.3340  149.7180 C   0  0  1  0  0  3  0  0  0  0  0  0
  160.2530  202.9610  149.5800 O   0  0  0  0  0  1  0  0  0  0  0  0
  161.6450  203.7370  151.2150 O   0  0  0  0  0  1  0  0  0  0  0  0
  160.4930  204.0060  150.4730 C   0  0  0  0  0  3  0  0  0  0  0  0
  161.7580  210.5610  155.1850 C   0  0  0  0  0  2  0  0  0  0  0  0
  161.9230  209.4660  156.2380 C   0  0  1  0  0  3  0  0  0  0  0  0
  162.8090  209.8790  157.2380 O   0  0  0  0  0  1  0  0  0  0  0  0
  160.6420  209.0510  156.8160 N   0  0  0  0  0  2  0  0  0  0  0  0
  160.6440  207.6160  157.0810 C   0  0  0  0  0  2  0  0  0  0  0  0
  160.1370  206.8910  155.8870 C   0  0  0  0  0  0  0  0  0  0  0  0
  158.7930  206.9690  155.5470 O   0  0  0  0  0  1  0  0  0  0  0  0
  160.9310  206.2370  155.1620 O   0  0  0  0  0  0  0  0  0  0  0  0
  1  7  1  6  0  0  0
  1  8  1  0  0  0  0
  1  3  1  0  0  0  0
  2  4  1  1  0  0  0
  3  7  1  6  0  0  0
  3  5  1  0  0  0  0
  5  2  1  0  0  0  0
  5 14  1  1  0  0  0
  6 29  1  1  0  0  0
  6  2  1  0  0  0  0
  8 17  1  6  0  0  0
  8  6  1  0  0  0  0
 10  9  1  0  0  0  0
 11 10  1  6  0  0  0
 11  9  1  0  0  0  0
 11  3  1  0  0  0  0
 13  2  1  0  0  0  0
 13 12  1  0  0  0  0
 14 15  1  0  0  0  0
 16 15  1  0  0  0  0
 18 21  1  0  0  0  0
 19 23  1  0  0  0  0
 20 25  1  6  0  0  0
 20 18  1  0  0  0  0
 22 19  2  0  0  0  0
 22 20  1  0  0  0  0
 23 17  1  1  0  0  0
 23 21  1  0  0  0  0
 25 24  1  6  0  0  0
 25 28  1  0  0  0  0
 26 28  1  0  0  0  0
 28 27  1  0  0  0  0
 29 30  1  0  0  0  0
 30 32  1  0  0  0  0
 30 31  1  1  0  0  0
 32 33  1  0  0  0  0
 34 33  1  0  0  0  0
 35 34  1  0  0  0  0
 36 34  2  0  0  0  0
M  END
>  <MODEL>
9

>  <REMARK>
 VINA RESULT:      -4.0      3.468      6.500
  Name = 
  13 active torsions:
  status: ('A' for Active; 'I' for Inactive)
    1  A    between atoms: S_1  and  C_25
    2  A    between atoms: S_1  and  C_26
    3  A    between atoms: C_3  and  N_20
    4  A    between atoms: C_3  and  C_24
    5  A    between atoms: C_8  and  C_22
    6  A    between atoms: C_11  and  C_16
    7  A    between atoms: C_11  and  C_34
    8  A    between atoms: C_12  and  N_20
    9  A    between atoms: C_12  and  C_35
   10  A    between atoms: C_14  and  O_36
   11  A    between atoms: C_17  and  C_27
   12  A    between atoms: C_22  and  C_33
   13  A    between atoms: C_30  and  C_35
                            x       y       z     vdW  Elec       q    Type
                         _______ _______ _______ _____ _____    ______ ____

>  <TORSDO>
F 13

$$$$
