=
 OpenBabel11072411113D

 30 33  0  0  1  0  0  0  0  0999 V2000
  162.0340  203.8330  151.1230 C   0  0  0  0  0  3  0  0  0  0  0  0
  162.5950  204.7760  151.8300 C   0  0  0  0  0  0  0  0  0  0  0  0
  160.8190  206.3060  149.0680 C   0  0  0  0  0  2  0  0  0  0  0  0
  160.2170  207.9750  153.0490 C   0  0  2  0  0  3  0  0  0  0  0  0
  162.0020  209.0820  150.8690 C   0  0  0  0  0  2  0  0  0  0  0  0
  160.7710  204.1530  150.4480 C   0  0  0  0  0  0  0  0  0  0  0  0
  163.1570  205.7780  152.4480 C   0  0  0  0  0  3  0  0  0  0  0  0
  160.4540  207.2670  151.7030 C   0  0  0  0  0  2  0  0  0  0  0  0
  160.9620  209.3100  153.1650 C   0  0  0  0  0  2  0  0  0  0  0  0
  161.8470  207.5670  151.1020 C   0  0  1  0  0  0  0  0  0  0  0  0
  161.1430  209.9560  151.7980 C   0  0  1  0  0  3  0  0  0  0  0  0
  162.0780  206.8810  149.7370 C   0  0  0  0  0  2  0  0  0  0  0  0
  161.7260  211.2120  151.9410 O   0  0  0  0  0  1  0  0  0  0  0  0
  162.8940  207.1310  152.0390 N   0  0  0  0  0  2  0  0  0  0  0  0
  160.7540  204.7660  149.0650 C   0  0  2  0  0  3  0  0  0  0  0  0
  159.7030  204.1570  151.1220 O   0  0  0  0  0  0  0  0  0  0  0  0
  161.0960  207.9800  155.0950 C   0  0  0  0  0  1  0  0  0  0  0  0
  160.5560  207.1350  154.1190 O   0  0  0  0  0  0  0  0  0  0  0  0
  161.6600  204.0980  148.0100 C   0  0  2  0  0  3  0  0  0  0  0  0
  161.6050  204.8470  146.7040 C   0  0  0  0  0  0  0  0  0  0  0  0
  160.3000  205.9610  145.0370 N   0  0  0  0  0  0  0  0  0  0  0  0
  162.7180  204.9160  145.8570 C   0  0  0  0  0  3  0  0  0  0  0  0
  161.3720  206.0240  144.1970 C   0  0  0  0  0  3  0  0  0  0  0  0
  160.3840  205.3650  146.2530 C   0  0  0  0  0  3  0  0  0  0  0  0
  162.6020  205.5040  144.5980 C   0  0  0  0  0  3  0  0  0  0  0  0
  161.2960  202.6590  147.7910 C   0  0  0  0  0  0  0  0  0  0  0  0
  160.9740  200.1900  147.9120 N   0  0  0  0  0  0  0  0  0  0  0  0
  161.3970  201.4410  148.9210 S   0  0  0  0  0  0  0  0  0  0  0  0
  160.9640  202.1160  146.5990 N   0  0  0  0  0  0  0  0  0  0  0  0
  160.7790  200.7640  146.6880 C   0  0  0  0  0  3  0  0  0  0  0  0
  1  2  2  0  0  0  0
  2  7  2  0  0  0  0
  3 12  1  0  0  0  0
  4  9  1  0  0  0  0
  4 18  1  1  0  0  0
  5 10  1  0  0  0  0
  5 11  1  0  0  0  0
  6 16  2  0  0  0  0
  6  1  1  0  0  0  0
  8  4  1  0  0  0  0
 10 12  1  6  0  0  0
 10  8  1  0  0  0  0
 10 14  1  0  0  0  0
 11 13  1  1  0  0  0
 11  9  1  0  0  0  0
 14  7  1  0  0  0  0
 15 19  1  6  0  0  0
 15  3  1  0  0  0  0
 15  6  1  0  0  0  0
 18 17  1  0  0  0  0
 19 20  1  6  0  0  0
 21 24  2  0  0  0  0
 22 20  2  0  0  0  0
 23 25  2  0  0  0  0
 23 21  1  0  0  0  0
 24 20  1  0  0  0  0
 25 22  1  0  0  0  0
 26 19  1  0  0  0  0
 26 28  1  0  0  0  0
 27 28  1  0  0  0  0
 29 30  1  0  0  0  0
 29 26  2  0  0  0  0
 30 27  2  0  0  0  0
M  END
>  <MODEL>
1

>  <REMARK>
 VINA RESULT:      -4.4      0.000      0.000
  Name = 
  4 active torsions:
  status: ('A' for Active; 'I' for Inactive)
    1  A    between atoms: C_2  and  C_11
    2  A    between atoms: C_5  and  C_11
    3  A    between atoms: C_9  and  O_28
    4  A    between atoms: C_11  and  C_29
                            x       y       z     vdW  Elec       q    Type
                         _______ _______ _______ _____ _____    ______ ____

>  <TORSDO>
F 4

$$$$
=
 OpenBabel11072411113D

 30 33  0  0  1  0  0  0  0  0999 V2000
  161.8120  207.9250  155.3220 C   0  0  0  0  0  3  0  0  0  0  0  0
  161.9330  209.1980  155.5870 C   0  0  0  0  0  0  0  0  0  0  0  0
  160.0000  208.8330  152.5450 C   0  0  0  0  0  2  0  0  0  0  0  0
  158.4740  211.5230  155.6150 C   0  0  2  0  0  3  0  0  0  0  0  0
  159.9500  212.3040  153.0900 C   0  0  0  0  0  2  0  0  0  0  0  0
  160.5870  207.4900  154.6410 C   0  0  0  0  0  0  0  0  0  0  0  0
  162.0440  210.4880  155.7470 C   0  0  0  0  0  3  0  0  0  0  0  0
  159.0720  210.5030  154.6300 C   0  0  0  0  0  2  0  0  0  0  0  0
  158.6840  212.9780  155.1760 C   0  0  0  0  0  2  0  0  0  0  0  0
  160.3190  211.0410  153.8900 C   0  0  1  0  0  0  0  0  0  0  0  0
  158.7540  213.0860  153.6590 C   0  0  1  0  0  3  0  0  0  0  0  0
  160.9060  210.0290  152.8790 C   0  0  0  0  0  2  0  0  0  0  0  0
  158.8380  214.4230  153.2830 O   0  0  0  0  0  1  0  0  0  0  0  0
  161.3590  211.3960  154.8680 N   0  0  0  0  0  2  0  0  0  0  0  0
  160.4840  207.4920  153.1320 C   0  0  2  0  0  3  0  0  0  0  0  0
  159.5280  207.3580  155.3160 O   0  0  0  0  0  0  0  0  0  0  0  0
  159.5730  212.5470  157.2590 C   0  0  0  0  0  1  0  0  0  0  0  0
  158.9860  211.3270  156.9050 O   0  0  0  0  0  0  0  0  0  0  0  0
  161.6640  206.8570  152.3670 C   0  0  2  0  0  3  0  0  0  0  0  0
  161.7740  207.4330  150.9790 C   0  0  0  0  0  0  0  0  0  0  0  0
  162.3630  209.2710  149.5650 N   0  0  0  0  0  0  0  0  0  0  0  0
  161.1910  206.7930  149.8770 C   0  0  0  0  0  3  0  0  0  0  0  0
  161.7890  208.6650  148.4870 C   0  0  0  0  0  3  0  0  0  0  0  0
  162.3420  208.7010  150.7970 C   0  0  0  0  0  3  0  0  0  0  0  0
  161.1960  207.4110  148.6270 C   0  0  0  0  0  3  0  0  0  0  0  0
  161.5440  205.3630  152.2930 C   0  0  0  0  0  0  0  0  0  0  0  0
  161.5210  202.9580  151.6380 N   0  0  0  0  0  0  0  0  0  0  0  0
  162.1780  204.3880  151.1030 S   0  0  0  0  0  0  0  0  0  0  0  0
  160.7810  204.6060  153.1120 N   0  0  0  0  0  0  0  0  0  0  0  0
  160.7910  203.2890  152.7440 C   0  0  0  0  0  3  0  0  0  0  0  0
  1  2  2  0  0  0  0
  2  7  2  0  0  0  0
  3 12  1  0  0  0  0
  3 15  1  0  0  0  0
  4 18  1  1  0  0  0
  5 11  1  0  0  0  0
  5 10  1  0  0  0  0
  6 16  2  0  0  0  0
  6  1  1  0  0  0  0
  8  4  1  0  0  0  0
  9  4  1  0  0  0  0
 10 12  1  6  0  0  0
 10  8  1  0  0  0  0
 10 14  1  0  0  0  0
 11 13  1  1  0  0  0
 11  9  1  0  0  0  0
 14  7  1  0  0  0  0
 15 19  1  6  0  0  0
 15  6  1  0  0  0  0
 18 17  1  0  0  0  0
 19 20  1  6  0  0  0
 21 24  2  0  0  0  0
 22 20  2  0  0  0  0
 23 25  2  0  0  0  0
 23 21  1  0  0  0  0
 24 20  1  0  0  0  0
 25 22  1  0  0  0  0
 26 19  1  0  0  0  0
 26 29  2  0  0  0  0
 27 30  2  0  0  0  0
 28 27  1  0  0  0  0
 28 26  1  0  0  0  0
 30 29  1  0  0  0  0
M  END
>  <MODEL>
2

>  <REMARK>
 VINA RESULT:      -3.8      3.375      5.172
  Name = 
  4 active torsions:
  status: ('A' for Active; 'I' for Inactive)
    1  A    between atoms: C_2  and  C_11
    2  A    between atoms: C_5  and  C_11
    3  A    between atoms: C_9  and  O_28
    4  A    between atoms: C_11  and  C_29
                            x       y       z     vdW  Elec       q    Type
                         _______ _______ _______ _____ _____    ______ ____

>  <TORSDO>
F 4

$$$$
=
 OpenBabel11072411113D

 30 33  0  0  1  0  0  0  0  0999 V2000
  162.4640  206.8990  147.0760 C   0  0  0  0  0  3  0  0  0  0  0  0
  162.9260  205.7830  146.5800 C   0  0  0  0  0  0  0  0  0  0  0  0
  160.8150  204.9970  149.4170 C   0  0  0  0  0  2  0  0  0  0  0  0
  160.2000  202.7450  145.7370 C   0  0  2  0  0  3  0  0  0  0  0  0
  161.7000  201.8220  148.1990 C   0  0  0  0  0  2  0  0  0  0  0  0
  161.1360  206.8630  147.6980 C   0  0  0  0  0  0  0  0  0  0  0  0
  163.3780  204.6260  146.1820 C   0  0  0  0  0  3  0  0  0  0  0  0
  160.4610  203.6430  146.9600 C   0  0  0  0  0  2  0  0  0  0  0  0
  160.7600  201.3270  145.9010 C   0  0  0  0  0  2  0  0  0  0  0  0
  161.7660  203.2790  147.7050 C   0  0  1  0  0  0  0  0  0  0  0  0
  160.7790  200.9130  147.3670 C   0  0  1  0  0  3  0  0  0  0  0  0
  162.0170  204.1600  148.9500 C   0  0  0  0  0  2  0  0  0  0  0  0
  161.1910  199.5890  147.4790 O   0  0  0  0  0  1  0  0  0  0  0  0
  162.9110  203.4090  146.7900 N   0  0  0  0  0  2  0  0  0  0  0  0
  160.9620  206.5090  149.1580 C   0  0  2  0  0  3  0  0  0  0  0  0
  160.1140  206.8760  146.9560 O   0  0  0  0  0  0  0  0  0  0  0  0
  160.1640  204.6240  144.5420 C   0  0  0  0  0  1  0  0  0  0  0  0
  160.7070  203.3350  144.5710 O   0  0  0  0  0  0  0  0  0  0  0  0
  161.8950  207.2330  150.1520 C   0  0  2  0  0  3  0  0  0  0  0  0
  161.4340  207.0200  151.5710 C   0  0  0  0  0  0  0  0  0  0  0  0
  160.4030  207.9000  153.5430 N   0  0  0  0  0  0  0  0  0  0  0  0
  161.8060  205.8780  152.2920 C   0  0  0  0  0  3  0  0  0  0  0  0
  160.7690  206.7990  154.2610 C   0  0  0  0  0  3  0  0  0  0  0  0
  160.7430  208.0410  152.2360 C   0  0  0  0  0  3  0  0  0  0  0  0
  161.4750  205.7680  153.6430 C   0  0  0  0  0  3  0  0  0  0  0  0
  161.9920  208.7010  149.8600 C   0  0  0  0  0  0  0  0  0  0  0  0
  162.0620  211.1930  149.9310 N   0  0  0  0  0  0  0  0  0  0  0  0
  162.1780  209.9130  150.9860 S   0  0  0  0  0  0  0  0  0  0  0  0
  161.8040  209.2640  148.6460 N   0  0  0  0  0  0  0  0  0  0  0  0
  161.8580  210.6300  148.7040 C   0  0  0  0  0  3  0  0  0  0  0  0
  1  6  1  0  0  0  0
  2  1  2  0  0  0  0
  4 18  1  6  0  0  0
  4  9  1  0  0  0  0
  4  8  1  0  0  0  0
  6 15  1  0  0  0  0
  7  2  2  0  0  0  0
  7 14  1  0  0  0  0
  9 11  1  0  0  0  0
 10  8  1  6  0  0  0
 10  5  1  0  0  0  0
 10 12  1  0  0  0  0
 11 13  1  6  0  0  0
 11  5  1  0  0  0  0
 12  3  1  0  0  0  0
 14 10  1  0  0  0  0
 15  3  1  0  0  0  0
 15 19  1  1  0  0  0
 16  6  2  0  0  0  0
 17 18  1  0  0  0  0
 19 26  1  6  0  0  0
 19 20  1  0  0  0  0
 20 24  2  0  0  0  0
 20 22  1  0  0  0  0
 21 23  2  0  0  0  0
 22 25  2  0  0  0  0
 24 21  1  0  0  0  0
 25 23  1  0  0  0  0
 26 28  1  0  0  0  0
 27 28  1  0  0  0  0
 29 30  1  0  0  0  0
 29 26  2  0  0  0  0
 30 27  2  0  0  0  0
M  END
>  <MODEL>
3

>  <REMARK>
 VINA RESULT:      -3.5      3.084      7.728
  Name = 
  4 active torsions:
  status: ('A' for Active; 'I' for Inactive)
    1  A    between atoms: C_2  and  C_11
    2  A    between atoms: C_5  and  C_11
    3  A    between atoms: C_9  and  O_28
    4  A    between atoms: C_11  and  C_29
                            x       y       z     vdW  Elec       q    Type
                         _______ _______ _______ _____ _____    ______ ____

>  <TORSDO>
F 4

$$$$
=
 OpenBabel11072411113D

 30 33  0  0  1  0  0  0  0  0999 V2000
  161.0240  207.0040  151.0700 C   0  0  0  0  0  3  0  0  0  0  0  0
  160.4090  206.1630  150.2830 C   0  0  0  0  0  0  0  0  0  0  0  0
  162.1740  208.5780  148.2390 C   0  0  0  0  0  2  0  0  0  0  0  0
  162.6240  204.3580  147.2480 C   0  0  2  0  0  3  0  0  0  0  0  0
  160.8370  206.3670  145.8570 C   0  0  0  0  0  2  0  0  0  0  0  0
  162.2850  207.5810  150.5910 C   0  0  0  0  0  0  0  0  0  0  0  0
  159.7920  205.4010  149.4230 C   0  0  0  0  0  3  0  0  0  0  0  0
  162.4440  205.8090  147.7260 C   0  0  0  0  0  2  0  0  0  0  0  0
  161.8200  204.0370  145.9820 C   0  0  0  0  0  2  0  0  0  0  0  0
  161.0520  206.3880  147.3820 C   0  0  1  0  0  0  0  0  0  0  0  0
  161.6390  205.2800  145.1210 C   0  0  1  0  0  3  0  0  0  0  0  0
  160.8780  207.8560  147.8350 C   0  0  0  0  0  2  0  0  0  0  0  0
  161.0010  204.9430  143.9310 O   0  0  0  0  0  1  0  0  0  0  0  0
  160.0060  205.5670  148.0110 N   0  0  0  0  0  2  0  0  0  0  0  0
  162.3040  208.8390  149.7520 C   0  0  2  0  0  3  0  0  0  0  0  0
  163.3380  206.8870  150.6600 O   0  0  0  0  0  0  0  0  0  0  0  0
  161.3850  202.5620  147.6980 C   0  0  0  0  0  1  0  0  0  0  0  0
  162.2980  203.4550  148.2700 O   0  0  0  0  0  0  0  0  0  0  0  0
  161.4480  210.0160  150.2660 C   0  0  2  0  0  3  0  0  0  0  0  0
  161.8420  211.3010  149.5860 C   0  0  0  0  0  0  0  0  0  0  0  0
  161.3200  213.5710  149.0370 N   0  0  0  0  0  0  0  0  0  0  0  0
  162.9290  211.3540  148.7040 C   0  0  0  0  0  3  0  0  0  0  0  0
  162.3680  213.6330  148.1660 C   0  0  0  0  0  3  0  0  0  0  0  0
  161.0280  212.4340  149.7180 C   0  0  0  0  0  3  0  0  0  0  0  0
  163.1930  212.5220  147.9890 C   0  0  0  0  0  3  0  0  0  0  0  0
  161.5490  210.1730  151.7550 C   0  0  0  0  0  0  0  0  0  0  0  0
  161.1940  210.6440  154.1770 N   0  0  0  0  0  0  0  0  0  0  0  0
  160.2860  210.4770  152.7950 S   0  0  0  0  0  0  0  0  0  0  0  0
  162.7050  210.2270  152.4520 N   0  0  0  0  0  0  0  0  0  0  0  0
  162.4890  210.4730  153.7800 C   0  0  0  0  0  3  0  0  0  0  0  0
  2  1  2  0  0  0  0
  3 15  1  0  0  0  0
  4  8  1  0  0  0  0
  4 18  1  1  0  0  0
  6 16  2  0  0  0  0
  6  1  1  0  0  0  0
  7  2  2  0  0  0  0
  9  4  1  0  0  0  0
 10  5  1  6  0  0  0
 10  8  1  0  0  0  0
 10 12  1  0  0  0  0
 10 14  1  0  0  0  0
 11 13  1  6  0  0  0
 11  5  1  0  0  0  0
 11  9  1  0  0  0  0
 12  3  1  0  0  0  0
 14  7  1  0  0  0  0
 15 19  1  1  0  0  0
 15  6  1  0  0  0  0
 17 18  1  0  0  0  0
 19 20  1  6  0  0  0
 19 26  1  0  0  0  0
 20 24  1  0  0  0  0
 21 24  2  0  0  0  0
 22 20  2  0  0  0  0
 23 21  1  0  0  0  0
 25 23  2  0  0  0  0
 25 22  1  0  0  0  0
 26 29  2  0  0  0  0
 26 28  1  0  0  0  0
 28 27  1  0  0  0  0
 29 30  1  0  0  0  0
 30 27  2  0  0  0  0
M  END
>  <MODEL>
4

>  <REMARK>
 VINA RESULT:      -3.5      3.595      7.367
  Name = 
  4 active torsions:
  status: ('A' for Active; 'I' for Inactive)
    1  A    between atoms: C_2  and  C_11
    2  A    between atoms: C_5  and  C_11
    3  A    between atoms: C_9  and  O_28
    4  A    between atoms: C_11  and  C_29
                            x       y       z     vdW  Elec       q    Type
                         _______ _______ _______ _____ _____    ______ ____

>  <TORSDO>
F 4

$$$$
=
 OpenBabel11072411113D

 30 33  0  0  1  0  0  0  0  0999 V2000
  161.1820  205.3380  152.2410 C   0  0  0  0  0  3  0  0  0  0  0  0
  160.6470  204.7300  151.2180 C   0  0  0  0  0  0  0  0  0  0  0  0
  161.5270  208.1000  150.2250 C   0  0  0  0  0  2  0  0  0  0  0  0
  162.7040  204.8310  147.5940 C   0  0  2  0  0  3  0  0  0  0  0  0
  160.3420  206.6900  147.2330 C   0  0  0  0  0  2  0  0  0  0  0  0
  162.2050  206.3540  151.9660 C   0  0  0  0  0  0  0  0  0  0  0  0
  160.0820  204.2180  150.1590 C   0  0  0  0  0  3  0  0  0  0  0  0
  162.2960  205.8970  148.6250 C   0  0  0  0  0  2  0  0  0  0  0  0
  161.8030  204.8190  146.3530 C   0  0  0  0  0  2  0  0  0  0  0  0
  160.7770  206.1880  148.6220 C   0  0  1  0  0  0  0  0  0  0  0  0
  161.2340  206.2040  146.0770 C   0  0  1  0  0  3  0  0  0  0  0  0
  160.3680  207.2800  149.6370 C   0  0  0  0  0  2  0  0  0  0  0  0
  160.5080  206.1900  144.8900 O   0  0  0  0  0  1  0  0  0  0  0  0
  160.0370  204.9530  148.9250 N   0  0  0  0  0  2  0  0  0  0  0  0
  161.8290  207.7950  151.7050 C   0  0  2  0  0  3  0  0  0  0  0  0
  163.3790  205.9780  151.6900 O   0  0  0  0  0  0  0  0  0  0  0  0
  161.8580  202.7780  147.4230 C   0  0  0  0  0  1  0  0  0  0  0  0
  162.7370  203.5580  148.1820 O   0  0  0  0  0  0  0  0  0  0  0  0
  160.8320  208.4310  152.6970 C   0  0  2  0  0  3  0  0  0  0  0  0
  160.4600  209.8250  152.2620 C   0  0  0  0  0  0  0  0  0  0  0  0
  161.0620  211.8480  151.1350 N   0  0  0  0  0  0  0  0  0  0  0  0
  159.3160  210.4610  152.7600 C   0  0  0  0  0  3  0  0  0  0  0  0
  159.9590  212.4840  151.6230 C   0  0  0  0  0  3  0  0  0  0  0  0
  161.3410  210.5590  151.4580 C   0  0  0  0  0  3  0  0  0  0  0  0
  159.0650  211.7960  152.4430 C   0  0  0  0  0  3  0  0  0  0  0  0
  161.3750  208.4590  154.0950 C   0  0  0  0  0  0  0  0  0  0  0  0
  161.9140  208.0780  156.4990 N   0  0  0  0  0  0  0  0  0  0  0  0
  161.1750  207.2740  155.2460 S   0  0  0  0  0  0  0  0  0  0  0  0
  161.9900  209.5180  154.6670 N   0  0  0  0  0  0  0  0  0  0  0  0
  162.2890  209.2850  155.9810 C   0  0  0  0  0  3  0  0  0  0  0  0
  2  1  2  0  0  0  0
  3 15  1  0  0  0  0
  4 18  1  1  0  0  0
  4  8  1  0  0  0  0
  6  1  1  0  0  0  0
  7  2  2  0  0  0  0
  9  4  1  0  0  0  0
 10  5  1  6  0  0  0
 10  8  1  0  0  0  0
 10 14  1  0  0  0  0
 10 12  1  0  0  0  0
 11 13  1  6  0  0  0
 11  9  1  0  0  0  0
 11  5  1  0  0  0  0
 12  3  1  0  0  0  0
 14  7  1  0  0  0  0
 15  6  1  0  0  0  0
 15 19  1  1  0  0  0
 16  6  2  0  0  0  0
 17 18  1  0  0  0  0
 19 20  1  6  0  0  0
 19 26  1  0  0  0  0
 20 22  1  0  0  0  0
 21 24  1  0  0  0  0
 21 23  2  0  0  0  0
 23 25  1  0  0  0  0
 24 20  2  0  0  0  0
 25 22  2  0  0  0  0
 26 29  2  0  0  0  0
 26 28  1  0  0  0  0
 28 27  1  0  0  0  0
 29 30  1  0  0  0  0
 30 27  2  0  0  0  0
M  END
>  <MODEL>
5

>  <REMARK>
 VINA RESULT:      -3.0      3.010      7.340
  Name = 
  4 active torsions:
  status: ('A' for Active; 'I' for Inactive)
    1  A    between atoms: C_2  and  C_11
    2  A    between atoms: C_5  and  C_11
    3  A    between atoms: C_9  and  O_28
    4  A    between atoms: C_11  and  C_29
                            x       y       z     vdW  Elec       q    Type
                         _______ _______ _______ _____ _____    ______ ____

>  <TORSDO>
F 4

$$$$
=
 OpenBabel11072411113D

 30 33  0  0  1  0  0  0  0  0999 V2000
  161.2550  211.4510  151.8900 C   0  0  0  0  0  3  0  0  0  0  0  0
  160.5120  211.3460  152.9580 C   0  0  0  0  0  0  0  0  0  0  0  0
  161.7190  208.0500  152.0630 C   0  0  0  0  0  2  0  0  0  0  0  0
  162.0760  209.2850  156.2270 C   0  0  2  0  0  3  0  0  0  0  0  0
  159.9700  207.4550  155.0520 C   0  0  0  0  0  2  0  0  0  0  0  0
  162.3650  210.5040  151.7420 C   0  0  0  0  0  0  0  0  0  0  0  0
  159.7480  211.1400  153.9960 C   0  0  0  0  0  3  0  0  0  0  0  0
  161.9580  208.9800  154.7230 C   0  0  0  0  0  2  0  0  0  0  0  0
  161.0280  208.5510  157.0730 C   0  0  0  0  0  2  0  0  0  0  0  0
  160.5070  208.6760  154.2820 C   0  0  1  0  0  0  0  0  0  0  0  0
  160.6280  207.2330  156.4240 C   0  0  1  0  0  3  0  0  0  0  0  0
  160.3900  208.3400  152.7780 C   0  0  0  0  0  2  0  0  0  0  0  0
  159.7590  206.5380  157.2610 O   0  0  0  0  0  1  0  0  0  0  0  0
  159.6470  209.8310  154.5820 N   0  0  0  0  0  2  0  0  0  0  0  0
  162.1640  209.1560  151.0860 C   0  0  2  0  0  3  0  0  0  0  0  0
  163.4290  210.7040  152.3920 O   0  0  0  0  0  0  0  0  0  0  0  0
  163.3350  211.0870  156.5820 C   0  0  0  0  0  1  0  0  0  0  0  0
  162.0060  210.6660  156.4600 O   0  0  0  0  0  0  0  0  0  0  0  0
  161.4030  209.1570  149.7430 C   0  0  2  0  0  3  0  0  0  0  0  0
  161.5530  207.8320  149.0420 C   0  0  0  0  0  0  0  0  0  0  0  0
  162.3980  206.5820  147.1850 N   0  0  0  0  0  0  0  0  0  0  0  0
  160.8180  206.7090  149.4440 C   0  0  0  0  0  3  0  0  0  0  0  0
  161.6790  205.4850  147.5570 C   0  0  0  0  0  3  0  0  0  0  0  0
  162.3290  207.7470  147.8790 C   0  0  0  0  0  3  0  0  0  0  0  0
  160.8780  205.5320  148.6980 C   0  0  0  0  0  3  0  0  0  0  0  0
  161.8590  210.2670  148.8430 C   0  0  0  0  0  0  0  0  0  0  0  0
  163.0810  212.0960  147.6700 N   0  0  0  0  0  0  0  0  0  0  0  0
  163.4150  210.8420  148.7080 S   0  0  0  0  0  0  0  0  0  0  0  0
  161.0420  211.0560  148.1110 N   0  0  0  0  0  0  0  0  0  0  0  0
  161.7320  212.0450  147.4650 C   0  0  0  0  0  3  0  0  0  0  0  0
  1  2  2  0  0  0  0
  2  7  2  0  0  0  0
  3 12  1  0  0  0  0
  4 18  1  6  0  0  0
  4  9  1  0  0  0  0
  5 11  1  0  0  0  0
  6  1  1  0  0  0  0
  6 16  2  0  0  0  0
  7 14  1  0  0  0  0
  8  4  1  0  0  0  0
 10 12  1  6  0  0  0
 10 14  1  0  0  0  0
 10  8  1  0  0  0  0
 10  5  1  0  0  0  0
 11  9  1  0  0  0  0
 11 13  1  1  0  0  0
 15 19  1  6  0  0  0
 15  6  1  0  0  0  0
 15  3  1  0  0  0  0
 18 17  1  0  0  0  0
 19 26  1  6  0  0  0
 20 22  1  0  0  0  0
 20 19  1  0  0  0  0
 21 23  2  0  0  0  0
 21 24  1  0  0  0  0
 23 25  1  0  0  0  0
 24 20  2  0  0  0  0
 25 22  2  0  0  0  0
 27 28  1  0  0  0  0
 28 26  1  0  0  0  0
 29 26  2  0  0  0  0
 30 27  2  0  0  0  0
 30 29  1  0  0  0  0
M  END
>  <MODEL>
6

>  <REMARK>
 VINA RESULT:      -2.5      3.458      6.213
  Name = 
  4 active torsions:
  status: ('A' for Active; 'I' for Inactive)
    1  A    between atoms: C_2  and  C_11
    2  A    between atoms: C_5  and  C_11
    3  A    between atoms: C_9  and  O_28
    4  A    between atoms: C_11  and  C_29
                            x       y       z     vdW  Elec       q    Type
                         _______ _______ _______ _____ _____    ______ ____

>  <TORSDO>
F 4

$$$$
=
 OpenBabel11072411113D

 30 33  0  0  1  0  0  0  0  0999 V2000
  161.4130  208.2550  150.0100 C   0  0  0  0  0  3  0  0  0  0  0  0
  160.8050  208.8860  150.9770 C   0  0  0  0  0  0  0  0  0  0  0  0
  161.4570  205.4880  152.0480 C   0  0  0  0  0  2  0  0  0  0  0  0
  162.4980  208.7180  154.7820 C   0  0  2  0  0  3  0  0  0  0  0  0
  160.0430  206.9520  154.9130 C   0  0  0  0  0  2  0  0  0  0  0  0
  162.3650  207.2020  150.3820 C   0  0  0  0  0  0  0  0  0  0  0  0
  160.1600  209.4220  151.9760 C   0  0  0  0  0  3  0  0  0  0  0  0
  162.1510  207.6650  153.7160 C   0  0  0  0  0  2  0  0  0  0  0  0
  161.4820  208.7690  155.9300 C   0  0  0  0  0  2  0  0  0  0  0  0
  160.6290  207.4320  153.5720 C   0  0  1  0  0  0  0  0  0  0  0  0
  160.8370  207.4070  156.1490 C   0  0  1  0  0  3  0  0  0  0  0  0
  160.2780  206.3530  152.5220 C   0  0  0  0  0  2  0  0  0  0  0  0
  160.0010  207.4520  157.2610 O   0  0  0  0  0  1  0  0  0  0  0  0
  159.9690  208.6930  153.2000 N   0  0  0  0  0  2  0  0  0  0  0  0
  161.9110  205.7760  150.6040 C   0  0  2  0  0  3  0  0  0  0  0  0
  163.5200  207.5340  150.7690 O   0  0  0  0  0  0  0  0  0  0  0  0
  161.9400  210.8580  155.0460 C   0  0  0  0  0  1  0  0  0  0  0  0
  162.6360  209.9870  154.2010 O   0  0  0  0  0  0  0  0  0  0  0  0
  160.9910  205.1760  149.5210 C   0  0  2  0  0  3  0  0  0  0  0  0
  160.8940  203.6800  149.6700 C   0  0  0  0  0  0  0  0  0  0  0  0
  160.9500  201.7560  151.0910 N   0  0  0  0  0  0  0  0  0  0  0  0
  160.9000  202.8350  148.5520 C   0  0  0  0  0  3  0  0  0  0  0  0
  160.9690  200.9220  150.0120 C   0  0  0  0  0  3  0  0  0  0  0  0
  160.9430  203.1050  150.9470 C   0  0  0  0  0  3  0  0  0  0  0  0
  160.9400  201.4520  148.7220 C   0  0  0  0  0  3  0  0  0  0  0  0
  161.4550  205.5230  148.1370 C   0  0  0  0  0  0  0  0  0  0  0  0
  161.6730  206.1550  145.7350 N   0  0  0  0  0  0  0  0  0  0  0  0
  160.5350  206.2300  146.9440 S   0  0  0  0  0  0  0  0  0  0  0  0
  162.6540  205.1840  147.6140 N   0  0  0  0  0  0  0  0  0  0  0  0
  162.7590  205.5500  146.3000 C   0  0  0  0  0  3  0  0  0  0  0  0
  1  6  1  0  0  0  0
  1  2  2  0  0  0  0
  2  7  2  0  0  0  0
  3 12  1  0  0  0  0
  4 18  1  6  0  0  0
  4  9  1  0  0  0  0
  5 11  1  0  0  0  0
  6 15  1  0  0  0  0
  6 16  2  0  0  0  0
  7 14  1  0  0  0  0
  8  4  1  0  0  0  0
  9 11  1  0  0  0  0
 10 12  1  6  0  0  0
 10  8  1  0  0  0  0
 10  5  1  0  0  0  0
 11 13  1  1  0  0  0
 14 10  1  0  0  0  0
 15 19  1  6  0  0  0
 15  3  1  0  0  0  0
 18 17  1  0  0  0  0
 19 26  1  6  0  0  0
 19 20  1  0  0  0  0
 20 24  1  0  0  0  0
 22 25  1  0  0  0  0
 22 20  2  0  0  0  0
 23 21  1  0  0  0  0
 24 21  2  0  0  0  0
 25 23  2  0  0  0  0
 27 30  2  0  0  0  0
 27 28  1  0  0  0  0
 28 26  1  0  0  0  0
 29 26  2  0  0  0  0
 30 29  1  0  0  0  0
M  END
>  <MODEL>
7

>  <REMARK>
 VINA RESULT:      -2.1      2.280      4.525
  Name = 
  4 active torsions:
  status: ('A' for Active; 'I' for Inactive)
    1  A    between atoms: C_2  and  C_11
    2  A    between atoms: C_5  and  C_11
    3  A    between atoms: C_9  and  O_28
    4  A    between atoms: C_11  and  C_29
                            x       y       z     vdW  Elec       q    Type
                         _______ _______ _______ _____ _____    ______ ____

>  <TORSDO>
F 4

$$$$
=
 OpenBabel11072411113D

 30 33  0  0  1  0  0  0  0  0999 V2000
  162.3290  210.3170  151.5590 C   0  0  0  0  0  3  0  0  0  0  0  0
  162.8970  209.2720  151.0210 C   0  0  0  0  0  0  0  0  0  0  0  0
  160.0810  208.1570  153.0060 C   0  0  0  0  0  2  0  0  0  0  0  0
  160.4730  206.5760  148.9640 C   0  0  2  0  0  3  0  0  0  0  0  0
  161.2300  205.1780  151.5400 C   0  0  0  0  0  2  0  0  0  0  0  0
  160.8810  210.2570  151.7860 C   0  0  0  0  0  0  0  0  0  0  0  0
  163.4280  208.1710  150.5640 C   0  0  0  0  0  3  0  0  0  0  0  0
  160.3990  207.2450  150.3480 C   0  0  0  0  0  2  0  0  0  0  0  0
  160.9510  205.1200  149.0250 C   0  0  0  0  0  2  0  0  0  0  0  0
  161.4450  206.6900  151.3420 C   0  0  1  0  0  0  0  0  0  0  0  0
  160.5630  204.4720  150.3470 C   0  0  1  0  0  3  0  0  0  0  0  0
  161.3550  207.3390  152.7420 C   0  0  0  0  0  2  0  0  0  0  0  0
  160.9130  203.1260  150.3350 O   0  0  0  0  0  1  0  0  0  0  0  0
  162.7980  206.9010  150.8040 N   0  0  0  0  0  2  0  0  0  0  0  0
  160.3090  209.6800  153.0620 C   0  0  2  0  0  3  0  0  0  0  0  0
  160.1020  210.4500  150.8110 O   0  0  0  0  0  0  0  0  0  0  0  0
  161.9480  206.3700  147.3090 C   0  0  0  0  0  1  0  0  0  0  0  0
  161.2870  207.3180  148.0970 O   0  0  0  0  0  0  0  0  0  0  0  0
  160.9420  210.1760  154.3790 C   0  0  2  0  0  3  0  0  0  0  0  0
  160.8510  209.1180  155.4480 C   0  0  0  0  0  0  0  0  0  0  0  0
  161.9550  207.7290  157.0540 N   0  0  0  0  0  0  0  0  0  0  0  0
  159.6700  208.3940  155.6570 C   0  0  0  0  0  3  0  0  0  0  0  0
  160.8150  207.0080  157.2580 C   0  0  0  0  0  3  0  0  0  0  0  0
  162.0020  208.7440  156.1540 C   0  0  0  0  0  3  0  0  0  0  0  0
  159.6510  207.3340  156.5620 C   0  0  0  0  0  3  0  0  0  0  0  0
  160.3060  211.4470  154.8610 C   0  0  0  0  0  0  0  0  0  0  0  0
  159.4280  213.3790  156.1700 N   0  0  0  0  0  0  0  0  0  0  0  0
  160.5270  212.1460  156.3560 S   0  0  0  0  0  0  0  0  0  0  0  0
  159.3520  212.1360  154.1990 N   0  0  0  0  0  0  0  0  0  0  0  0
  158.8920  213.1990  154.9270 C   0  0  0  0  0  3  0  0  0  0  0  0
  1  6  1  0  0  0  0
  2  1  2  0  0  0  0
  3 15  1  0  0  0  0
  4 18  1  6  0  0  0
  4  9  1  0  0  0  0
  4  8  1  0  0  0  0
  6 15  1  0  0  0  0
  7 14  1  0  0  0  0
  7  2  2  0  0  0  0
  9 11  1  0  0  0  0
 10  8  1  6  0  0  0
 10  5  1  0  0  0  0
 10 12  1  0  0  0  0
 11 13  1  6  0  0  0
 11  5  1  0  0  0  0
 12  3  1  0  0  0  0
 14 10  1  0  0  0  0
 15 19  1  1  0  0  0
 16  6  2  0  0  0  0
 17 18  1  0  0  0  0
 19 26  1  1  0  0  0
 19 20  1  0  0  0  0
 20 22  2  0  0  0  0
 20 24  1  0  0  0  0
 21 23  1  0  0  0  0
 22 25  1  0  0  0  0
 24 21  2  0  0  0  0
 25 23  2  0  0  0  0
 26 28  1  0  0  0  0
 27 28  1  0  0  0  0
 29 26  2  0  0  0  0
 29 30  1  0  0  0  0
 30 27  2  0  0  0  0
M  END
>  <MODEL>
8

>  <REMARK>
 VINA RESULT:      -1.5      3.774      8.770
  Name = 
  4 active torsions:
  status: ('A' for Active; 'I' for Inactive)
    1  A    between atoms: C_2  and  C_11
    2  A    between atoms: C_5  and  C_11
    3  A    between atoms: C_9  and  O_28
    4  A    between atoms: C_11  and  C_29
                            x       y       z     vdW  Elec       q    Type
                         _______ _______ _______ _____ _____    ______ ____

>  <TORSDO>
F 4

$$$$
