=
 OpenBabel11072414013D

 29 33  0  0  1  0  0  0  0  0999 V2000
  160.8070  206.9530  150.4040 N   0  0  0  0  0  2  0  0  0  0  0  0
  162.4530  209.1060  148.9540 C   0  0  0  0  0  2  0  0  0  0  0  0
  161.5750  209.6820  150.0570 C   0  0  0  0  0  2  0  0  0  0  0  0
  161.8280  207.8490  148.3600 C   0  0  0  0  0  2  0  0  0  0  0  0
  161.4590  207.6020  151.5390 C   0  0  2  0  0  0  0  0  0  0  0  0
  161.8100  206.7100  149.3710 C   0  0  2  0  0  3  0  0  0  0  0  0
  160.6080  208.7070  152.1190 C   0  0  0  0  0  2  0  0  0  0  0  0
  161.9090  209.0550  151.4080 C   0  0  2  0  0  3  0  0  0  0  0  0
  161.1020  202.9690  147.3860 C   0  0  0  0  0  3  0  0  0  0  0  0
  161.7600  203.9780  145.1980 C   0  0  0  0  0  1  0  0  0  0  0  0
  161.5620  205.4000  148.6970 C   0  0  0  0  0  0  0  0  0  0  0  0
  161.7690  205.2950  147.3190 C   0  0  0  0  0  3  0  0  0  0  0  0
  160.8990  203.0640  148.7680 C   0  0  0  0  0  0  0  0  0  0  0  0
  161.5400  204.0820  146.6640 C   0  0  0  0  0  0  0  0  0  0  0  0
  161.1200  204.2830  149.4210 C   0  0  0  0  0  3  0  0  0  0  0  0
  160.4070  201.8830  149.5350 C   0  0  0  0  0  0  0  0  0  0  0  0
  161.3550  200.9720  149.9250 O   0  0  0  0  0  0  0  0  0  0  0  0
  159.1500  201.3320  149.2880 O   0  0  0  0  0  1  0  0  0  0  0  0
  160.8110  201.7970  150.8430 O   0  0  0  0  0  0  0  0  0  0  0  0
  162.1830  206.5510  152.8420 S   0  0  0  0  0  0  0  0  0  0  0  0
  160.6980  206.5810  153.8880 C   0  0  0  0  0  2  0  0  0  0  0  0
  161.0330  207.1400  155.2590 C   0  0  0  0  0  2  0  0  0  0  0  0
  159.9140  208.0420  155.7600 C   0  0  0  0  0  2  0  0  0  0  0  0
  160.4590  209.3380  156.3440 C   0  0  1  0  0  3  0  0  0  0  0  0
  161.8340  209.6390  155.7680 C   0  0  1  0  0  3  0  0  0  0  0  0
  161.2640  210.8240  155.0120 C   0  0  0  0  0  2  0  0  0  0  0  0
  159.8890  210.5180  155.5780 C   0  0  0  0  0  2  0  0  0  0  0  0
  162.7940  210.0800  156.8350 C   0  0  0  0  0  3  0  0  0  0  0  0
  163.6030  210.9750  156.6390 O   0  0  0  0  0  0  0  0  0  0  0  0
  1  5  1  0  0  0  0
  2  3  1  0  0  0  0
  4  2  1  0  0  0  0
  4  6  1  0  0  0  0
  5  7  1  0  0  0  0
  5 20  1  1  0  0  0
  6 11  1  6  0  0  0
  6  1  1  0  0  0  0
  8  3  1  6  0  0  0
  8  5  1  0  0  0  0
  8  7  1  0  0  0  0
  9 13  1  0  0  0  0
 10 14  1  0  0  0  0
 11 15  1  0  0  0  0
 12 11  2  0  0  0  0
 13 15  2  0  0  0  0
 13 16  1  0  0  0  0
 14 12  1  0  0  0  0
 14  9  2  0  0  0  0
 16 17  1  0  0  0  0
 16 19  1  0  0  0  0
 17 19  1  0  0  0  0
 18 16  1  0  0  0  0
 20 21  1  0  0  0  0
 21 22  1  0  0  0  0
 22 23  1  0  0  0  0
 24 23  1  6  0  0  0
 25 24  1  0  0  0  0
 25 28  1  1  0  0  0
 26 27  1  0  0  0  0
 26 25  1  0  0  0  0
 27 24  1  0  0  0  0
 29 28  2  0  0  0  0
M  END
>  <MODEL>
1

>  <REMARK>
 VINA RESULT:      -7.7      0.000      0.000
  Name = 
  8 active torsions:
  status: ('A' for Active; 'I' for Inactive)
    1  A    between atoms: C_5  and  C_15
    2  A    between atoms: C_5  and  C_20
    3  A    between atoms: C_7  and  C_13
    4  A    between atoms: C_8  and  C_21
    5  A    between atoms: S_9  and  C_11
    6  A    between atoms: S_9  and  C_15
    7  A    between atoms: C_12  and  C_20
    8  A    between atoms: C_16  and  C_17
                            x       y       z     vdW  Elec       q    Type
                         _______ _______ _______ _____ _____    ______ ____

>  <TORSDO>
F 8

$$$$
=
 OpenBabel11072414013D

 29 33  0  0  1  0  0  0  0  0999 V2000
  160.7900  206.7300  150.5320 N   0  0  0  0  0  2  0  0  0  0  0  0
  162.4790  208.6440  148.8220 C   0  0  0  0  0  2  0  0  0  0  0  0
  161.6550  209.3710  149.8760 C   0  0  0  0  0  2  0  0  0  0  0  0
  161.7900  207.3590  148.3810 C   0  0  0  0  0  2  0  0  0  0  0  0
  161.4970  207.4690  151.5760 C   0  0  2  0  0  0  0  0  0  0  0  0
  161.7550  206.3360  149.5100 C   0  0  2  0  0  3  0  0  0  0  0  0
  160.7060  208.6640  152.0520 C   0  0  0  0  0  2  0  0  0  0  0  0
  162.0000  208.8790  151.2790 C   0  0  2  0  0  3  0  0  0  0  0  0
  160.8430  202.3990  148.0580 C   0  0  0  0  0  3  0  0  0  0  0  0
  160.5540  201.5760  150.3990 C   0  0  0  0  0  1  0  0  0  0  0  0
  161.4370  204.9730  148.9870 C   0  0  0  0  0  0  0  0  0  0  0  0
  161.1510  203.9470  149.8930 C   0  0  0  0  0  3  0  0  0  0  0  0
  161.1210  203.4220  147.1440 C   0  0  0  0  0  0  0  0  0  0  0  0
  160.8550  202.6620  149.4300 C   0  0  0  0  0  0  0  0  0  0  0  0
  161.4280  204.7070  147.6100 C   0  0  0  0  0  3  0  0  0  0  0  0
  161.1340  203.1350  145.6800 C   0  0  0  0  0  0  0  0  0  0  0  0
  160.8790  204.1970  144.8490 O   0  0  0  0  0  0  0  0  0  0  0  0
  160.7150  201.9030  145.1810 O   0  0  0  0  0  1  0  0  0  0  0  0
  162.1390  203.7240  144.9540 O   0  0  0  0  0  0  0  0  0  0  0  0
  162.2140  206.5340  152.9680 S   0  0  0  0  0  0  0  0  0  0  0  0
  160.7230  206.6480  153.9980 C   0  0  0  0  0  2  0  0  0  0  0  0
  161.0440  207.3350  155.3130 C   0  0  0  0  0  2  0  0  0  0  0  0
  159.8440  208.1260  155.8140 C   0  0  0  0  0  2  0  0  0  0  0  0
  160.2500  209.5100  156.3010 C   0  0  1  0  0  3  0  0  0  0  0  0
  161.3870  210.0560  155.4500 C   0  0  1  0  0  3  0  0  0  0  0  0
  160.4550  211.1010  154.8670 C   0  0  0  0  0  2  0  0  0  0  0  0
  159.3170  210.5500  155.7080 C   0  0  0  0  0  2  0  0  0  0  0  0
  162.4560  210.6860  156.2960 C   0  0  0  0  0  3  0  0  0  0  0  0
  163.5900  210.8550  155.8740 O   0  0  0  0  0  0  0  0  0  0  0  0
  1  5  1  0  0  0  0
  2  3  1  0  0  0  0
  4  2  1  0  0  0  0
  4  6  1  0  0  0  0
  5  7  1  0  0  0  0
  5 20  1  1  0  0  0
  6 11  1  6  0  0  0
  6  1  1  0  0  0  0
  8  3  1  6  0  0  0
  8  5  1  0  0  0  0
  8  7  1  0  0  0  0
  9 14  1  0  0  0  0
 11 12  1  0  0  0  0
 13 15  1  0  0  0  0
 13  9  2  0  0  0  0
 14 12  2  0  0  0  0
 14 10  1  0  0  0  0
 15 11  2  0  0  0  0
 16 13  1  0  0  0  0
 17 19  1  0  0  0  0
 17 16  1  0  0  0  0
 18 16  1  0  0  0  0
 19 16  1  0  0  0  0
 20 21  1  0  0  0  0
 21 22  1  0  0  0  0
 22 23  1  0  0  0  0
 24 23  1  6  0  0  0
 25 28  1  1  0  0  0
 25 24  1  0  0  0  0
 26 25  1  0  0  0  0
 26 27  1  0  0  0  0
 27 24  1  0  0  0  0
 29 28  2  0  0  0  0
M  END
>  <MODEL>
2

>  <REMARK>
 VINA RESULT:      -7.6      1.786      2.477
  Name = 
  8 active torsions:
  status: ('A' for Active; 'I' for Inactive)
    1  A    between atoms: C_5  and  C_15
    2  A    between atoms: C_5  and  C_20
    3  A    between atoms: C_7  and  C_13
    4  A    between atoms: C_8  and  C_21
    5  A    between atoms: S_9  and  C_11
    6  A    between atoms: S_9  and  C_15
    7  A    between atoms: C_12  and  C_20
    8  A    between atoms: C_16  and  C_17
                            x       y       z     vdW  Elec       q    Type
                         _______ _______ _______ _____ _____    ______ ____

>  <TORSDO>
F 8

$$$$
=
 OpenBabel11072414013D

 29 33  0  0  1  0  0  0  0  0999 V2000
  160.5930  206.7080  150.2230 N   0  0  0  0  0  2  0  0  0  0  0  0
  161.4300  203.8980  151.1440 C   0  0  0  0  0  2  0  0  0  0  0  0
  160.8370  203.9040  149.7410 C   0  0  0  0  0  2  0  0  0  0  0  0
  160.8430  205.0220  151.9890 C   0  0  0  0  0  2  0  0  0  0  0  0
  161.4480  206.3040  149.1090 C   0  0  2  0  0  0  0  0  0  0  0  0
  161.2790  206.3870  151.4720 C   0  0  2  0  0  3  0  0  0  0  0  0
  160.6540  205.6560  147.9990 C   0  0  0  0  0  2  0  0  0  0  0  0
  161.6320  204.8180  148.8120 C   0  0  2  0  0  3  0  0  0  0  0  0
  160.5720  209.4790  154.3670 C   0  0  0  0  0  3  0  0  0  0  0  0
  160.2800  211.1570  152.5390 C   0  0  0  0  0  1  0  0  0  0  0  0
  161.0330  207.4500  152.4930 C   0  0  0  0  0  0  0  0  0  0  0  0
  160.7780  208.7560  152.0650 C   0  0  0  0  0  3  0  0  0  0  0  0
  160.8190  208.1720  154.8020 C   0  0  0  0  0  0  0  0  0  0  0  0
  160.5480  209.7700  153.0000 C   0  0  0  0  0  0  0  0  0  0  0  0
  161.0600  207.1600  153.8640 C   0  0  0  0  0  3  0  0  0  0  0  0
  160.8710  207.8660  156.2610 C   0  0  0  0  0  0  0  0  0  0  0  0
  162.0710  208.0890  156.8880 O   0  0  0  0  0  0  0  0  0  0  0  0
  160.1220  206.8260  156.8100 O   0  0  0  0  0  1  0  0  0  0  0  0
  161.0440  208.9370  157.1010 O   0  0  0  0  0  0  0  0  0  0  0  0
  162.6580  207.5060  148.4620 S   0  0  0  0  0  0  0  0  0  0  0  0
  161.6250  208.9550  148.8230 C   0  0  0  0  0  2  0  0  0  0  0  0
  162.3640  210.2300  148.4630 C   0  0  0  0  0  2  0  0  0  0  0  0
  161.9310  211.3770  149.3640 C   0  0  0  0  0  2  0  0  0  0  0  0
  161.7470  212.6680  148.5770 C   0  0  1  0  0  3  0  0  0  0  0  0
  160.8590  212.4250  147.3660 C   0  0  1  0  0  3  0  0  0  0  0  0
  159.7610  213.2600  147.9960 C   0  0  0  0  0  2  0  0  0  0  0  0
  160.6420  213.4950  149.2100 C   0  0  0  0  0  2  0  0  0  0  0  0
  161.4120  213.0860  146.1360 C   0  0  0  0  0  3  0  0  0  0  0  0
  162.6150  213.1940  145.9520 O   0  0  0  0  0  0  0  0  0  0  0  0
  1  6  1  0  0  0  0
  2  4  1  0  0  0  0
  3  2  1  0  0  0  0
  5 20  1  6  0  0  0
  5  1  1  0  0  0  0
  6  4  1  0  0  0  0
  6 11  1  1  0  0  0
  7  5  1  0  0  0  0
  8  7  1  6  0  0  0
  8  5  1  0  0  0  0
  8  3  1  0  0  0  0
  9 13  1  0  0  0  0
 10 14  1  0  0  0  0
 11 15  1  0  0  0  0
 12 11  2  0  0  0  0
 12 14  1  0  0  0  0
 13 16  1  0  0  0  0
 14  9  2  0  0  0  0
 15 13  2  0  0  0  0
 16 18  1  0  0  0  0
 16 17  1  0  0  0  0
 16 19  1  0  0  0  0
 17 19  1  0  0  0  0
 20 21  1  0  0  0  0
 22 21  1  0  0  0  0
 22 23  1  0  0  0  0
 24 27  1  0  0  0  0
 24 23  1  1  0  0  0
 25 28  1  6  0  0  0
 25 26  1  0  0  0  0
 25 24  1  0  0  0  0
 26 27  1  0  0  0  0
 29 28  2  0  0  0  0
M  END
>  <MODEL>
3

>  <REMARK>
 VINA RESULT:      -7.5      3.351      7.429
  Name = 
  8 active torsions:
  status: ('A' for Active; 'I' for Inactive)
    1  A    between atoms: C_5  and  C_15
    2  A    between atoms: C_5  and  C_20
    3  A    between atoms: C_7  and  C_13
    4  A    between atoms: C_8  and  C_21
    5  A    between atoms: S_9  and  C_11
    6  A    between atoms: S_9  and  C_15
    7  A    between atoms: C_12  and  C_20
    8  A    between atoms: C_16  and  C_17
                            x       y       z     vdW  Elec       q    Type
                         _______ _______ _______ _____ _____    ______ ____

>  <TORSDO>
F 8

$$$$
=
 OpenBabel11072414013D

 29 33  0  0  1  0  0  0  0  0999 V2000
  160.6390  208.2960  152.9030 N   0  0  0  0  0  2  0  0  0  0  0  0
  161.8920  210.3420  154.8220 C   0  0  0  0  0  2  0  0  0  0  0  0
  160.8060  209.5040  155.4850 C   0  0  0  0  0  2  0  0  0  0  0  0
  161.6240  210.5020  153.3310 C   0  0  0  0  0  2  0  0  0  0  0  0
  161.0170  207.4250  154.0130 C   0  0  2  0  0  0  0  0  0  0  0  0
  161.7650  209.1740  152.5990 C   0  0  2  0  0  3  0  0  0  0  0  0
  159.8890  207.2540  155.0030 C   0  0  0  0  0  2  0  0  0  0  0  0
  161.1410  208.0170  155.4150 C   0  0  2  0  0  3  0  0  0  0  0  0
  162.1100  209.7290  148.3540 C   0  0  0  0  0  3  0  0  0  0  0  0
  162.2950  207.2600  148.0230 C   0  0  0  0  0  1  0  0  0  0  0  0
  161.8810  209.3850  151.1240 C   0  0  0  0  0  0  0  0  0  0  0  0
  162.0250  208.2740  150.2880 C   0  0  0  0  0  3  0  0  0  0  0  0
  161.9590  210.8460  149.1850 C   0  0  0  0  0  0  0  0  0  0  0  0
  162.1390  208.4450  148.9050 C   0  0  0  0  0  0  0  0  0  0  0  0
  161.8540  210.6730  150.5710 C   0  0  0  0  0  3  0  0  0  0  0  0
  161.9530  212.2180  148.6000 C   0  0  0  0  0  0  0  0  0  0  0  0
  160.7620  212.6510  148.0760 O   0  0  0  0  0  0  0  0  0  0  0  0
  163.0810  212.7390  147.9680 O   0  0  0  0  0  1  0  0  0  0  0  0
  161.1910  213.1540  149.2520 O   0  0  0  0  0  0  0  0  0  0  0  0
  161.8300  205.8370  153.6340 S   0  0  0  0  0  0  0  0  0  0  0  0
  160.8240  205.5120  152.1570 C   0  0  0  0  0  2  0  0  0  0  0  0
  161.6200  204.7080  151.1460 C   0  0  0  0  0  2  0  0  0  0  0  0
  161.0280  203.3150  150.9800 C   0  0  0  0  0  2  0  0  0  0  0  0
  160.4400  203.1180  149.5900 C   0  0  1  0  0  3  0  0  0  0  0  0
  161.5520  202.9300  148.5690 C   0  0  1  0  0  3  0  0  0  0  0  0
  161.1440  201.4810  148.3830 C   0  0  0  0  0  2  0  0  0  0  0  0
  160.0400  201.6650  149.4090 C   0  0  0  0  0  2  0  0  0  0  0  0
  161.3010  203.7340  147.3250 C   0  0  0  0  0  3  0  0  0  0  0  0
  162.2110  204.0620  146.5790 O   0  0  0  0  0  0  0  0  0  0  0  0
  1  5  1  0  0  0  0
  2  3  1  0  0  0  0
  4  2  1  0  0  0  0
  5 20  1  6  0  0  0
  5  7  1  0  0  0  0
  5  8  1  0  0  0  0
  6 11  1  6  0  0  0
  6  1  1  0  0  0  0
  6  4  1  0  0  0  0
  8  7  1  1  0  0  0
  8  3  1  0  0  0  0
  9 14  2  0  0  0  0
  9 13  1  0  0  0  0
 10 14  1  0  0  0  0
 12 11  2  0  0  0  0
 13 15  2  0  0  0  0
 14 12  1  0  0  0  0
 15 11  1  0  0  0  0
 16 13  1  0  0  0  0
 16 19  1  0  0  0  0
 17 16  1  0  0  0  0
 17 19  1  0  0  0  0
 18 16  1  0  0  0  0
 21 20  1  0  0  0  0
 22 21  1  0  0  0  0
 23 22  1  0  0  0  0
 24 23  1  1  0  0  0
 25 28  1  6  0  0  0
 25 24  1  0  0  0  0
 26 25  1  0  0  0  0
 26 27  1  0  0  0  0
 27 24  1  0  0  0  0
 29 28  2  0  0  0  0
M  END
>  <MODEL>
4

>  <REMARK>
 VINA RESULT:      -7.4      3.212      7.679
  Name = 
  8 active torsions:
  status: ('A' for Active; 'I' for Inactive)
    1  A    between atoms: C_5  and  C_15
    2  A    between atoms: C_5  and  C_20
    3  A    between atoms: C_7  and  C_13
    4  A    between atoms: C_8  and  C_21
    5  A    between atoms: S_9  and  C_11
    6  A    between atoms: S_9  and  C_15
    7  A    between atoms: C_12  and  C_20
    8  A    between atoms: C_16  and  C_17
                            x       y       z     vdW  Elec       q    Type
                         _______ _______ _______ _____ _____    ______ ____

>  <TORSDO>
F 8

$$$$
=
 OpenBabel11072414013D

 29 33  0  0  1  0  0  0  0  0999 V2000
  161.9930  205.1150  150.4670 N   0  0  0  0  0  2  0  0  0  0  0  0
  160.2720  203.4620  152.4030 C   0  0  0  0  0  2  0  0  0  0  0  0
  161.2570  204.3720  153.1240 C   0  0  0  0  0  2  0  0  0  0  0  0
  160.8140  203.0410  151.0420 C   0  0  0  0  0  2  0  0  0  0  0  0
  161.4600  206.1730  151.3220 C   0  0  2  0  0  0  0  0  0  0  0  0
  160.8960  204.2280  150.0890 C   0  0  2  0  0  3  0  0  0  0  0  0
  162.3830  206.4810  152.4760 C   0  0  0  0  0  2  0  0  0  0  0  0
  161.0310  205.8340  152.7470 C   0  0  2  0  0  3  0  0  0  0  0  0
  161.3570  202.8610  146.0450 C   0  0  0  0  0  3  0  0  0  0  0  0
  161.2060  200.4860  146.8050 C   0  0  0  0  0  1  0  0  0  0  0  0
  161.0550  203.7700  148.6760 C   0  0  0  0  0  0  0  0  0  0  0  0
  161.0540  202.3990  148.4030 C   0  0  0  0  0  3  0  0  0  0  0  0
  161.3510  204.2350  146.3110 C   0  0  0  0  0  0  0  0  0  0  0  0
  161.2050  201.9440  147.0890 C   0  0  0  0  0  0  0  0  0  0  0  0
  161.2100  204.6880  147.6280 C   0  0  0  0  0  3  0  0  0  0  0  0
  161.5400  205.2120  145.2000 C   0  0  0  0  0  0  0  0  0  0  0  0
  160.8090  204.9870  144.0600 O   0  0  0  0  0  0  0  0  0  0  0  0
  162.7710  205.8290  144.9790 O   0  0  0  0  0  1  0  0  0  0  0  0
  160.4560  205.9930  144.8870 O   0  0  0  0  0  0  0  0  0  0  0  0
  160.8320  207.6930  150.5330 S   0  0  0  0  0  0  0  0  0  0  0  0
  162.3310  208.6600  150.8770 C   0  0  0  0  0  2  0  0  0  0  0  0
  161.9820  209.9040  151.6720 C   0  0  0  0  0  2  0  0  0  0  0  0
  160.6660  209.7200  152.4120 C   0  0  0  0  0  2  0  0  0  0  0  0
  160.6650  210.4560  153.7450 C   0  0  1  0  0  3  0  0  0  0  0  0
  160.0850  209.5690  154.8360 C   0  0  1  0  0  3  0  0  0  0  0  0
  161.4520  209.4630  155.4850 C   0  0  0  0  0  2  0  0  0  0  0  0
  162.0340  210.3390  154.3900 C   0  0  0  0  0  2  0  0  0  0  0  0
  159.1230  210.3250  155.7080 C   0  0  0  0  0  3  0  0  0  0  0  0
  158.1210  210.8540  155.2490 O   0  0  0  0  0  0  0  0  0  0  0  0
  1  5  1  0  0  0  0
  2  3  1  0  0  0  0
  4  2  1  0  0  0  0
  5 20  1  6  0  0  0
  5  7  1  0  0  0  0
  5  8  1  0  0  0  0
  6 11  1  6  0  0  0
  6  1  1  0  0  0  0
  6  4  1  0  0  0  0
  8  7  1  1  0  0  0
  8  3  1  0  0  0  0
  9 13  2  0  0  0  0
  9 14  1  0  0  0  0
 10 14  1  0  0  0  0
 12 11  1  0  0  0  0
 13 15  1  0  0  0  0
 14 12  2  0  0  0  0
 15 11  2  0  0  0  0
 16 13  1  0  0  0  0
 17 19  1  0  0  0  0
 17 16  1  0  0  0  0
 18 16  1  0  0  0  0
 19 16  1  0  0  0  0
 20 21  1  0  0  0  0
 21 22  1  0  0  0  0
 22 23  1  0  0  0  0
 24 23  1  6  0  0  0
 24 27  1  0  0  0  0
 24 25  1  0  0  0  0
 25 26  1  0  0  0  0
 25 28  1  1  0  0  0
 27 26  1  0  0  0  0
 29 28  2  0  0  0  0
M  END
>  <MODEL>
5

>  <REMARK>
 VINA RESULT:      -7.2      2.876      4.208
  Name = 
  8 active torsions:
  status: ('A' for Active; 'I' for Inactive)
    1  A    between atoms: C_5  and  C_15
    2  A    between atoms: C_5  and  C_20
    3  A    between atoms: C_7  and  C_13
    4  A    between atoms: C_8  and  C_21
    5  A    between atoms: S_9  and  C_11
    6  A    between atoms: S_9  and  C_15
    7  A    between atoms: C_12  and  C_20
    8  A    between atoms: C_16  and  C_17
                            x       y       z     vdW  Elec       q    Type
                         _______ _______ _______ _____ _____    ______ ____

>  <TORSDO>
F 8

$$$$
=
 OpenBabel11072414013D

 29 33  0  0  1  0  0  0  0  0999 V2000
  162.0850  205.1980  150.2660 N   0  0  0  0  0  2  0  0  0  0  0  0
  160.2460  203.4410  151.9910 C   0  0  0  0  0  2  0  0  0  0  0  0
  161.2250  204.2600  152.8220 C   0  0  0  0  0  2  0  0  0  0  0  0
  160.8310  203.1190  150.6210 C   0  0  0  0  0  2  0  0  0  0  0  0
  161.5450  206.1970  151.1860 C   0  0  2  0  0  0  0  0  0  0  0  0
  160.9820  204.3770  149.7750 C   0  0  2  0  0  3  0  0  0  0  0  0
  162.4290  206.3830  152.3970 C   0  0  0  0  0  2  0  0  0  0  0  0
  161.0510  205.7540  152.5610 C   0  0  2  0  0  3  0  0  0  0  0  0
  161.5810  203.4400  145.6280 C   0  0  0  0  0  3  0  0  0  0  0  0
  162.5680  205.7000  145.2350 C   0  0  0  0  0  1  0  0  0  0  0  0
  161.1850  204.0330  148.3360 C   0  0  0  0  0  0  0  0  0  0  0  0
  161.7610  204.9820  147.4860 C   0  0  0  0  0  3  0  0  0  0  0  0
  161.0110  202.4820  146.4750 C   0  0  0  0  0  0  0  0  0  0  0  0
  161.9580  204.6870  146.1340 C   0  0  0  0  0  0  0  0  0  0  0  0
  160.8040  202.7830  147.8270 C   0  0  0  0  0  3  0  0  0  0  0  0
  160.5840  201.1610  145.9300 C   0  0  0  0  0  0  0  0  0  0  0  0
  159.2510  201.0250  145.6360 O   0  0  0  0  0  0  0  0  0  0  0  0
  161.2060  199.9780  146.3280 O   0  0  0  0  0  1  0  0  0  0  0  0
  160.1420  201.1530  144.6310 O   0  0  0  0  0  0  0  0  0  0  0  0
  160.9870  207.7950  150.5040 S   0  0  0  0  0  0  0  0  0  0  0  0
  162.3350  208.7490  151.2610 C   0  0  0  0  0  2  0  0  0  0  0  0
  161.7750  209.9280  152.0340 C   0  0  0  0  0  2  0  0  0  0  0  0
  160.4330  209.5740  152.6580 C   0  0  0  0  0  2  0  0  0  0  0  0
  160.4610  209.7290  154.1720 C   0  0  1  0  0  3  0  0  0  0  0  0
  161.5220  210.7400  154.5790 C   0  0  1  0  0  3  0  0  0  0  0  0
  160.4390  211.7070  155.0190 C   0  0  0  0  0  2  0  0  0  0  0  0
  159.3790  210.7020  154.6030 C   0  0  0  0  0  2  0  0  0  0  0  0
  162.3290  210.2530  155.7480 C   0  0  0  0  0  3  0  0  0  0  0  0
  163.4380  210.7040  155.9940 O   0  0  0  0  0  0  0  0  0  0  0  0
  1  5  1  0  0  0  0
  2  3  1  0  0  0  0
  4  2  1  0  0  0  0
  5 20  1  6  0  0  0
  5  7  1  0  0  0  0
  5  8  1  0  0  0  0
  6 11  1  6  0  0  0
  6  1  1  0  0  0  0
  6  4  1  0  0  0  0
  8  7  1  1  0  0  0
  8  3  1  0  0  0  0
  9 14  2  0  0  0  0
  9 13  1  0  0  0  0
 10 14  1  0  0  0  0
 12 11  2  0  0  0  0
 13 15  2  0  0  0  0
 14 12  1  0  0  0  0
 15 11  1  0  0  0  0
 16 18  1  0  0  0  0
 16 13  1  0  0  0  0
 17 16  1  0  0  0  0
 19 17  1  0  0  0  0
 19 16  1  0  0  0  0
 20 21  1  0  0  0  0
 21 22  1  0  0  0  0
 22 23  1  0  0  0  0
 24 23  1  6  0  0  0
 24 25  1  0  0  0  0
 24 27  1  0  0  0  0
 25 26  1  0  0  0  0
 25 28  1  1  0  0  0
 27 26  1  0  0  0  0
 28 29  2  0  0  0  0
M  END
>  <MODEL>
6

>  <REMARK>
 VINA RESULT:      -7.2      2.047      3.343
  Name = 
  8 active torsions:
  status: ('A' for Active; 'I' for Inactive)
    1  A    between atoms: C_5  and  C_15
    2  A    between atoms: C_5  and  C_20
    3  A    between atoms: C_7  and  C_13
    4  A    between atoms: C_8  and  C_21
    5  A    between atoms: S_9  and  C_11
    6  A    between atoms: S_9  and  C_15
    7  A    between atoms: C_12  and  C_20
    8  A    between atoms: C_16  and  C_17
                            x       y       z     vdW  Elec       q    Type
                         _______ _______ _______ _____ _____    ______ ____

>  <TORSDO>
F 8

$$$$
=
 OpenBabel11072414013D

 29 33  0  0  1  0  0  0  0  0999 V2000
  160.5160  207.5370  151.3810 N   0  0  0  0  0  2  0  0  0  0  0  0
  162.4360  209.6990  150.3420 C   0  0  0  0  0  2  0  0  0  0  0  0
  161.4040  210.2500  151.3160 C   0  0  0  0  0  2  0  0  0  0  0  0
  161.8850  208.4970  149.5850 C   0  0  0  0  0  2  0  0  0  0  0  0
  160.9880  208.1040  152.6420 C   0  0  2  0  0  0  0  0  0  0  0  0
  161.6690  207.3090  150.5150 C   0  0  2  0  0  3  0  0  0  0  0  0
  160.0830  209.2080  153.1350 C   0  0  0  0  0  2  0  0  0  0  0  0
  161.4930  209.5450  152.6670 C   0  0  2  0  0  3  0  0  0  0  0  0
  161.1820  203.6460  148.3280 C   0  0  0  0  0  3  0  0  0  0  0  0
  160.8270  202.3930  150.4600 C   0  0  0  0  0  1  0  0  0  0  0  0
  161.5000  206.0440  149.7380 C   0  0  0  0  0  0  0  0  0  0  0  0
  161.2490  204.8540  150.4260 C   0  0  0  0  0  3  0  0  0  0  0  0
  161.4250  204.8360  147.6320 C   0  0  0  0  0  0  0  0  0  0  0  0
  161.0910  203.6560  149.7230 C   0  0  0  0  0  0  0  0  0  0  0  0
  161.5940  206.0330  148.3390 C   0  0  0  0  0  3  0  0  0  0  0  0
  161.5490  204.8210  146.1460 C   0  0  0  0  0  0  0  0  0  0  0  0
  162.7460  204.3840  145.6390 O   0  0  0  0  0  0  0  0  0  0  0  0
  160.9060  205.7750  145.3570 O   0  0  0  0  0  1  0  0  0  0  0  0
  161.6600  203.5870  145.5570 O   0  0  0  0  0  0  0  0  0  0  0  0
  161.4580  206.9640  153.9860 S   0  0  0  0  0  0  0  0  0  0  0  0
  160.0810  207.4470  155.0680 C   0  0  0  0  0  2  0  0  0  0  0  0
  160.4580  207.2380  156.5230 C   0  0  0  0  0  2  0  0  0  0  0  0
  160.5130  208.5680  157.2610 C   0  0  0  0  0  2  0  0  0  0  0  0
  160.4170  209.7460  156.3010 C   0  0  1  0  0  3  0  0  0  0  0  0
  159.5840  210.8600  156.9150 C   0  0  1  0  0  3  0  0  0  0  0  0
  160.8230  211.7260  157.0380 C   0  0  0  0  0  2  0  0  0  0  0  0
  161.6580  210.6110  156.4350 C   0  0  0  0  0  2  0  0  0  0  0  0
  158.6120  211.4320  155.9240 C   0  0  0  0  0  3  0  0  0  0  0  0
  157.7540  210.7420  155.3940 O   0  0  0  0  0  0  0  0  0  0  0  0
  1  5  1  0  0  0  0
  2  3  1  0  0  0  0
  4  2  1  0  0  0  0
  4  6  1  0  0  0  0
  5  8  1  0  0  0  0
  5  7  1  0  0  0  0
  5 20  1  1  0  0  0
  6 11  1  6  0  0  0
  6  1  1  0  0  0  0
  8  3  1  6  0  0  0
  8  7  1  0  0  0  0
  9 14  1  0  0  0  0
 11 12  1  0  0  0  0
 13  9  2  0  0  0  0
 13 15  1  0  0  0  0
 14 12  2  0  0  0  0
 14 10  1  0  0  0  0
 15 11  2  0  0  0  0
 16 13  1  0  0  0  0
 17 16  1  0  0  0  0
 18 16  1  0  0  0  0
 19 17  1  0  0  0  0
 19 16  1  0  0  0  0
 20 21  1  0  0  0  0
 21 22  1  0  0  0  0
 22 23  1  0  0  0  0
 24 27  1  0  0  0  0
 24 25  1  0  0  0  0
 24 23  1  1  0  0  0
 25 28  1  6  0  0  0
 25 26  1  0  0  0  0
 27 26  1  0  0  0  0
 29 28  2  0  0  0  0
M  END
>  <MODEL>
7

>  <REMARK>
 VINA RESULT:      -7.1      2.380      3.125
  Name = 
  8 active torsions:
  status: ('A' for Active; 'I' for Inactive)
    1  A    between atoms: C_5  and  C_15
    2  A    between atoms: C_5  and  C_20
    3  A    between atoms: C_7  and  C_13
    4  A    between atoms: C_8  and  C_21
    5  A    between atoms: S_9  and  C_11
    6  A    between atoms: S_9  and  C_15
    7  A    between atoms: C_12  and  C_20
    8  A    between atoms: C_16  and  C_17
                            x       y       z     vdW  Elec       q    Type
                         _______ _______ _______ _____ _____    ______ ____

>  <TORSDO>
F 8

$$$$
=
 OpenBabel11072414013D

 29 33  0  0  1  0  0  0  0  0999 V2000
  160.4930  207.7360  151.7030 N   0  0  0  0  0  2  0  0  0  0  0  0
  161.5610  205.6450  153.6850 C   0  0  0  0  0  2  0  0  0  0  0  0
  160.9600  205.0160  152.4350 C   0  0  0  0  0  2  0  0  0  0  0  0
  160.8910  206.9760  154.0020 C   0  0  0  0  0  2  0  0  0  0  0  0
  161.3700  206.9610  150.8280 C   0  0  2  0  0  0  0  0  0  0  0  0
  161.2110  208.0220  152.9420 C   0  0  2  0  0  3  0  0  0  0  0  0
  160.6240  205.8510  150.1270 C   0  0  0  0  0  2  0  0  0  0  0  0
  161.6720  205.5060  151.1770 C   0  0  2  0  0  3  0  0  0  0  0  0
  160.2870  211.9550  154.3970 C   0  0  0  0  0  3  0  0  0  0  0  0
  161.0970  211.3280  156.6750 C   0  0  0  0  0  1  0  0  0  0  0  0
  160.8860  209.3960  153.4310 C   0  0  0  0  0  0  0  0  0  0  0  0
  161.1330  209.7170  154.7690 C   0  0  0  0  0  3  0  0  0  0  0  0
  160.0440  211.6430  153.0540 C   0  0  0  0  0  0  0  0  0  0  0  0
  160.8350  210.9940  155.2520 C   0  0  0  0  0  0  0  0  0  0  0  0
  160.3340  210.3600  152.5740 C   0  0  0  0  0  3  0  0  0  0  0  0
  159.4350  212.6600  152.1490 C   0  0  0  0  0  0  0  0  0  0  0  0
  158.0650  212.6790  152.0870 O   0  0  0  0  0  0  0  0  0  0  0  0
  160.0680  213.0480  150.9680 O   0  0  0  0  0  1  0  0  0  0  0  0
  158.7130  213.6570  152.7530 O   0  0  0  0  0  0  0  0  0  0  0  0
  162.4740  207.8600  149.6880 S   0  0  0  0  0  0  0  0  0  0  0  0
  161.4810  207.4930  148.2120 C   0  0  0  0  0  2  0  0  0  0  0  0
  162.2560  206.5910  147.2690 C   0  0  0  0  0  2  0  0  0  0  0  0
  161.3360  205.5590  146.6330 C   0  0  0  0  0  2  0  0  0  0  0  0
  161.8910  204.1480  146.7780 C   0  0  1  0  0  3  0  0  0  0  0  0
  160.7660  203.1680  147.0750 C   0  0  1  0  0  3  0  0  0  0  0  0
  160.9440  202.5400  145.7060 C   0  0  0  0  0  2  0  0  0  0  0  0
  162.0600  203.5260  145.4040 C   0  0  0  0  0  2  0  0  0  0  0  0
  161.1440  202.2100  148.1690 C   0  0  0  0  0  3  0  0  0  0  0  0
  160.8780  202.4370  149.3400 O   0  0  0  0  0  0  0  0  0  0  0  0
  1  6  1  0  0  0  0
  2  4  1  0  0  0  0
  3  2  1  0  0  0  0
  5 20  1  6  0  0  0
  5  8  1  0  0  0  0
  5  1  1  0  0  0  0
  6 11  1  1  0  0  0
  6  4  1  0  0  0  0
  7  5  1  0  0  0  0
  8  7  1  6  0  0  0
  8  3  1  0  0  0  0
  9 14  1  0  0  0  0
 11 12  1  0  0  0  0
 12 14  2  0  0  0  0
 13  9  2  0  0  0  0
 14 10  1  0  0  0  0
 15 13  1  0  0  0  0
 15 11  2  0  0  0  0
 16 19  1  0  0  0  0
 16 13  1  0  0  0  0
 17 16  1  0  0  0  0
 17 19  1  0  0  0  0
 18 16  1  0  0  0  0
 21 20  1  0  0  0  0
 22 21  1  0  0  0  0
 23 22  1  0  0  0  0
 24 23  1  6  0  0  0
 24 25  1  0  0  0  0
 25 28  1  1  0  0  0
 26 25  1  0  0  0  0
 27 26  1  0  0  0  0
 27 24  1  0  0  0  0
 28 29  2  0  0  0  0
M  END
>  <MODEL>
8

>  <REMARK>
 VINA RESULT:      -7.1      2.778      9.147
  Name = 
  8 active torsions:
  status: ('A' for Active; 'I' for Inactive)
    1  A    between atoms: C_5  and  C_15
    2  A    between atoms: C_5  and  C_20
    3  A    between atoms: C_7  and  C_13
    4  A    between atoms: C_8  and  C_21
    5  A    between atoms: S_9  and  C_11
    6  A    between atoms: S_9  and  C_15
    7  A    between atoms: C_12  and  C_20
    8  A    between atoms: C_16  and  C_17
                            x       y       z     vdW  Elec       q    Type
                         _______ _______ _______ _____ _____    ______ ____

>  <TORSDO>
F 8

$$$$
=
 OpenBabel11072414013D

 29 33  0  0  1  0  0  0  0  0999 V2000
  161.9390  208.2280  152.6540 N   0  0  0  0  0  2  0  0  0  0  0  0
  160.3270  207.5470  155.1790 C   0  0  0  0  0  2  0  0  0  0  0  0
  161.3150  208.6840  155.4020 C   0  0  0  0  0  2  0  0  0  0  0  0
  160.8310  206.5900  154.1060 C   0  0  0  0  0  2  0  0  0  0  0  0
  161.4110  209.5460  152.9980 C   0  0  2  0  0  0  0  0  0  0  0  0
  160.8520  207.2570  152.7360 C   0  0  2  0  0  3  0  0  0  0  0  0
  162.3660  210.3240  153.8720 C   0  0  0  0  0  2  0  0  0  0  0  0
  161.0410  209.8440  154.4490 C   0  0  2  0  0  3  0  0  0  0  0  0
  161.2060  204.2990  149.6440 C   0  0  0  0  0  3  0  0  0  0  0  0
  161.2060  202.4780  151.3530 C   0  0  0  0  0  1  0  0  0  0  0  0
  160.9720  206.2420  151.6470 C   0  0  0  0  0  0  0  0  0  0  0  0
  161.0280  204.8860  151.9860 C   0  0  0  0  0  3  0  0  0  0  0  0
  161.1430  205.6540  149.2970 C   0  0  0  0  0  0  0  0  0  0  0  0
  161.1450  203.9160  150.9870 C   0  0  0  0  0  0  0  0  0  0  0  0
  161.0370  206.6250  150.3000 C   0  0  0  0  0  3  0  0  0  0  0  0
  161.2350  206.0640  147.8660 C   0  0  0  0  0  0  0  0  0  0  0  0
  162.4140  206.6460  147.4730 O   0  0  0  0  0  0  0  0  0  0  0  0
  160.1140  206.5130  147.1690 O   0  0  0  0  0  1  0  0  0  0  0  0
  162.1400  205.3810  147.0940 O   0  0  0  0  0  0  0  0  0  0  0  0
  160.7200  210.5810  151.6640 S   0  0  0  0  0  0  0  0  0  0  0  0
  162.0150  210.1500  150.4660 C   0  0  0  0  0  2  0  0  0  0  0  0
  161.9560  211.0830  149.2710 C   0  0  0  0  0  2  0  0  0  0  0  0
  161.1860  212.3500  149.6140 C   0  0  0  0  0  2  0  0  0  0  0  0
  161.0990  213.2930  148.4210 C   0  0  1  0  0  3  0  0  0  0  0  0
  161.4090  212.5440  147.1340 C   0  0  1  0  0  3  0  0  0  0  0  0
  159.9640  212.6900  146.6960 C   0  0  0  0  0  2  0  0  0  0  0  0
  159.6510  213.4280  147.9850 C   0  0  0  0  0  2  0  0  0  0  0  0
  162.3310  213.3300  146.2470 C   0  0  0  0  0  3  0  0  0  0  0  0
  162.2400  213.2880  145.0290 O   0  0  0  0  0  0  0  0  0  0  0  0
  1  6  1  0  0  0  0
  1  5  1  0  0  0  0
  2  3  1  0  0  0  0
  4  2  1  0  0  0  0
  5 20  1  6  0  0  0
  5  7  1  0  0  0  0
  5  8  1  0  0  0  0
  6 11  1  6  0  0  0
  6  4  1  0  0  0  0
  8  7  1  1  0  0  0
  8  3  1  0  0  0  0
  9 14  1  0  0  0  0
 11 12  1  0  0  0  0
 13  9  2  0  0  0  0
 13 15  1  0  0  0  0
 14 10  1  0  0  0  0
 14 12  2  0  0  0  0
 15 11  2  0  0  0  0
 16 13  1  0  0  0  0
 17 16  1  0  0  0  0
 18 16  1  0  0  0  0
 19 17  1  0  0  0  0
 19 16  1  0  0  0  0
 21 20  1  0  0  0  0
 22 23  1  0  0  0  0
 22 21  1  0  0  0  0
 24 23  1  1  0  0  0
 25 28  1  6  0  0  0
 25 24  1  0  0  0  0
 26 25  1  0  0  0  0
 26 27  1  0  0  0  0
 27 24  1  0  0  0  0
 29 28  2  0  0  0  0
M  END
>  <MODEL>
9

>  <REMARK>
 VINA RESULT:      -7.1      3.758      6.196
  Name = 
  8 active torsions:
  status: ('A' for Active; 'I' for Inactive)
    1  A    between atoms: C_5  and  C_15
    2  A    between atoms: C_5  and  C_20
    3  A    between atoms: C_7  and  C_13
    4  A    between atoms: C_8  and  C_21
    5  A    between atoms: S_9  and  C_11
    6  A    between atoms: S_9  and  C_15
    7  A    between atoms: C_12  and  C_20
    8  A    between atoms: C_16  and  C_17
                            x       y       z     vdW  Elec       q    Type
                         _______ _______ _______ _____ _____    ______ ____

>  <TORSDO>
F 8

$$$$
