=
 OpenBabel11072411043D

 30 35  0  0  1  0  0  0  0  0999 V2000
  161.3760  211.0930  154.2870 O   0  0  0  0  0  0  0  0  0  0  0  0
  160.6890  209.8490  152.4680 O   0  0  0  0  0  0  0  0  0  0  0  0
  161.0450  205.3050  152.8120 C   0  0  0  0  0  2  0  0  0  0  0  0
  162.4310  208.5230  148.3260 C   0  0  0  0  0  2  0  0  0  0  0  0
  161.1220  206.8240  152.9360 C   0  0  2  0  0  3  0  0  0  0  0  0
  161.7100  210.7460  149.3390 C   0  0  0  0  0  0  0  0  0  0  0  0
  160.1660  212.6500  155.4830 O   0  0  0  0  0  0  0  0  0  0  0  0
  162.2550  207.2870  152.2740 O   0  0  0  0  0  0  0  0  0  0  0  0
  161.4220  204.5170  149.0590 C   0  0  0  0  0  2  0  0  0  0  0  0
  161.6380  203.2520  151.5080 C   0  0  0  0  0  2  0  0  0  0  0  0
  162.3670  209.4900  149.4080 N   0  0  0  0  0  0  0  0  0  0  0  0
  161.3090  205.4960  150.2420 C   0  0  2  0  0  3  0  0  0  0  0  0
  161.6020  207.3070  148.7150 C   0  0  0  0  0  2  0  0  0  0  0  0
  162.0780  206.7410  149.9860 N   0  0  1  0  0  0  0  0  0  0  0  0
  160.4150  202.8290  150.6990 C   0  0  2  0  0  3  0  0  0  0  0  0
  161.7610  204.7790  151.5550 C   0  0  1  0  0  3  0  0  0  0  0  0
  161.5840  210.1420  151.4860 N   0  0  0  0  0  0  0  0  0  0  0  0
  160.2820  201.4540  150.7300 F   0  0  0  0  0  0  0  0  0  0  0  0
  161.7650  207.7240  151.0450 C   0  0  2  0  0  3  0  0  0  0  0  0
  160.8030  208.7210  154.5550 C   0  0  0  0  0  0  0  0  0  0  0  0
  161.1770  207.2720  154.3900 C   0  0  0  0  0  2  0  0  0  0  0  0
  159.9080  209.0210  155.4520 N   0  0  0  0  0  0  0  0  0  0  0  0
  161.4970  211.4630  148.1270 N   0  0  0  0  0  1  0  0  0  0  0  0
  162.3760  209.1070  150.8100 C   0  0  1  0  0  3  0  0  0  0  0  0
  160.5020  203.3060  149.2440 C   0  0  0  0  0  2  0  0  0  0  0  0
  161.4110  209.8030  153.6680 C   0  0  2  0  0  3  0  0  0  0  0  0
  159.5420  210.3730  155.7380 C   0  0  0  0  0  0  0  0  0  0  0  0
  158.5770  210.6220  156.5080 O   0  0  0  0  0  0  0  0  0  0  0  0
  160.3510  211.4460  155.1640 C   0  0  0  0  0  0  0  0  0  0  0  0
  161.2600  211.1340  150.5150 C   0  0  0  0  0  3  0  0  0  0  0  0
  1 29  1  0  0  0  0
  4 13  1  0  0  0  0
  4 11  1  0  0  0  0
  5  3  1  1  0  0  0
  5 21  1  0  0  0  0
  6 11  1  0  0  0  0
  6 30  2  0  0  0  0
  8  5  1  0  0  0  0
  9 25  1  0  0  0  0
 12  9  1  6  0  0  0
 12 16  1  0  0  0  0
 14 13  1  6  0  0  0
 14 12  1  0  0  0  0
 14 19  1  0  0  0  0
 15 18  1  6  0  0  0
 15 10  1  0  0  0  0
 16 10  1  6  0  0  0
 16  3  1  0  0  0  0
 17  2  1  0  0  0  0
 19  8  1  1  0  0  0
 20 22  2  0  0  0  0
 21 20  1  0  0  0  0
 22 27  1  0  0  0  0
 23  6  1  0  0  0  0
 24 11  1  6  0  0  0
 24 19  1  0  0  0  0
 24 17  1  0  0  0  0
 25 15  1  0  0  0  0
 26  2  1  6  0  0  0
 26  1  1  0  0  0  0
 26 20  1  0  0  0  0
 27 28  2  0  0  0  0
 29  7  2  0  0  0  0
 29 27  1  0  0  0  0
 30 17  1  0  0  0  0
M  END
>  <MODEL>
1

>  <REMARK>
 VINA RESULT:      -9.6      0.000      0.000
  Name = 
  0 active torsions:
  status: ('A' for Active; 'I' for Inactive)
                            x       y       z     vdW  Elec       q    Type
                         _______ _______ _______ _____ _____    ______ ____

>  <TORSDO>
F 0

$$$$
=
 OpenBabel11072411043D

 30 35  0  0  1  0  0  0  0  0999 V2000
  162.0430  204.8960  151.9550 O   0  0  0  0  0  0  0  0  0  0  0  0
  160.8350  206.8630  151.9290 O   0  0  0  0  0  0  0  0  0  0  0  0
  161.7610  209.8190  148.5680 C   0  0  0  0  0  2  0  0  0  0  0  0
  160.9590  211.0290  154.0720 C   0  0  0  0  0  2  0  0  0  0  0  0
  161.7240  208.7080  149.6130 C   0  0  2  0  0  3  0  0  0  0  0  0
  160.4630  208.6430  154.8160 C   0  0  0  0  0  0  0  0  0  0  0  0
  161.2390  202.7350  151.9440 O   0  0  0  0  0  0  0  0  0  0  0  0
  162.4570  209.0960  150.7290 O   0  0  0  0  0  0  0  0  0  0  0  0
  160.7300  213.0480  150.4010 C   0  0  0  0  0  2  0  0  0  0  0  0
  162.0080  212.2620  148.0790 C   0  0  0  0  0  2  0  0  0  0  0  0
  161.2200  209.6000  154.0920 N   0  0  0  0  0  0  0  0  0  0  0  0
  160.9850  211.5300  150.3520 C   0  0  2  0  0  3  0  0  0  0  0  0
  160.4750  211.4120  152.6810 C   0  0  0  0  0  2  0  0  0  0  0  0
  161.4620  211.0210  151.6630 N   0  0  1  0  0  0  0  0  0  0  0  0
  160.6180  212.8480  147.8510 C   0  0  2  0  0  3  0  0  0  0  0  0
  161.9830  211.2080  149.1920 C   0  0  1  0  0  3  0  0  0  0  0  0
  161.2430  207.5400  153.0370 N   0  0  0  0  0  0  0  0  0  0  0  0
  160.6500  213.7400  146.7970 F   0  0  0  0  0  0  0  0  0  0  0  0
  161.4860  209.5440  151.6240 C   0  0  2  0  0  3  0  0  0  0  0  0
  161.8660  206.2130  149.8900 C   0  0  0  0  0  0  0  0  0  0  0  0
  162.2930  207.4030  149.0730 C   0  0  0  0  0  2  0  0  0  0  0  0
  161.3630  205.1890  149.2610 N   0  0  0  0  0  0  0  0  0  0  0  0
  159.7240  208.9460  155.9940 N   0  0  0  0  0  1  0  0  0  0  0  0
  161.8130  208.8900  152.9690 C   0  0  1  0  0  3  0  0  0  0  0  0
  160.0840  213.5490  149.1060 C   0  0  0  0  0  2  0  0  0  0  0  0
  161.9670  206.2190  151.4130 C   0  0  2  0  0  3  0  0  0  0  0  0
  161.0000  203.9840  149.9380 C   0  0  0  0  0  0  0  0  0  0  0  0
  160.3900  203.0690  149.3250 O   0  0  0  0  0  0  0  0  0  0  0  0
  161.4080  203.8220  151.3320 C   0  0  0  0  0  0  0  0  0  0  0  0
  160.4680  207.4620  154.2310 C   0  0  0  0  0  3  0  0  0  0  0  0
  2 17  1  0  0  0  0
  3 16  1  0  0  0  0
  4 11  1  0  0  0  0
  5  3  1  6  0  0  0
  5  8  1  0  0  0  0
  6 23  1  0  0  0  0
 11  6  1  0  0  0  0
 12  9  1  1  0  0  0
 12 14  1  0  0  0  0
 13  4  1  0  0  0  0
 14 13  1  1  0  0  0
 15 18  1  6  0  0  0
 15 10  1  0  0  0  0
 15 25  1  0  0  0  0
 16 10  1  6  0  0  0
 16 12  1  0  0  0  0
 17 30  1  0  0  0  0
 19  8  1  6  0  0  0
 19 14  1  0  0  0  0
 19 24  1  0  0  0  0
 21  5  1  0  0  0  0
 21 20  1  0  0  0  0
 22 20  2  0  0  0  0
 22 27  1  0  0  0  0
 24 17  1  6  0  0  0
 24 11  1  0  0  0  0
 25  9  1  0  0  0  0
 26 20  1  6  0  0  0
 26  2  1  0  0  0  0
 26  1  1  0  0  0  0
 27 29  1  0  0  0  0
 28 27  2  0  0  0  0
 29  7  2  0  0  0  0
 29  1  1  0  0  0  0
 30  6  2  0  0  0  0
M  END
>  <MODEL>
2

>  <REMARK>
 VINA RESULT:      -8.0      3.310      7.129
  Name = 
  0 active torsions:
  status: ('A' for Active; 'I' for Inactive)
                            x       y       z     vdW  Elec       q    Type
                         _______ _______ _______ _____ _____    ______ ____

>  <TORSDO>
F 0

$$$$
=
 OpenBabel11072411043D

 30 35  0  0  1  0  0  0  0  0999 V2000
  162.0460  203.8070  147.0680 O   0  0  0  0  0  0  0  0  0  0  0  0
  160.8740  204.8220  148.7780 O   0  0  0  0  0  0  0  0  0  0  0  0
  161.6180  209.2840  149.4370 C   0  0  0  0  0  2  0  0  0  0  0  0
  161.2170  205.2490  153.4320 C   0  0  0  0  0  2  0  0  0  0  0  0
  161.6340  207.8060  149.0570 C   0  0  2  0  0  3  0  0  0  0  0  0
  160.7320  203.3210  151.8390 C   0  0  0  0  0  0  0  0  0  0  0  0
  161.2060  202.6210  145.2780 O   0  0  0  0  0  0  0  0  0  0  0  0
  162.4480  207.1080  149.9420 O   0  0  0  0  0  0  0  0  0  0  0  0
  160.7720  209.4140  153.1940 C   0  0  0  0  0  2  0  0  0  0  0  0
  161.8740  211.0150  151.2270 C   0  0  0  0  0  2  0  0  0  0  0  0
  161.4550  204.4810  152.2220 N   0  0  0  0  0  0  0  0  0  0  0  0
  160.9970  208.6560  151.8730 C   0  0  2  0  0  3  0  0  0  0  0  0
  160.6460  206.6040  153.0400 C   0  0  0  0  0  2  0  0  0  0  0  0
  161.5540  207.3020  152.1160 N   0  0  1  0  0  0  0  0  0  0  0  0
  160.4820  211.4530  151.6720 C   0  0  2  0  0  3  0  0  0  0  0  0
  161.9060  209.5110  150.9310 C   0  0  1  0  0  3  0  0  0  0  0  0
  161.3690  204.2690  149.9190 N   0  0  0  0  0  0  0  0  0  0  0  0
  160.4560  212.8210  151.8630 F   0  0  0  0  0  0  0  0  0  0  0  0
  161.5490  206.5450  150.8460 C   0  0  2  0  0  3  0  0  0  0  0  0
  161.7500  206.2450  147.0900 C   0  0  0  0  0  0  0  0  0  0  0  0
  162.1410  207.5910  147.6380 C   0  0  0  0  0  2  0  0  0  0  0  0
  161.1880  206.2030  145.9160 N   0  0  0  0  0  0  0  0  0  0  0  0
  160.0810  202.4530  152.7610 N   0  0  0  0  0  1  0  0  0  0  0  0
  161.9560  205.0770  150.9940 C   0  0  1  0  0  3  0  0  0  0  0  0
  160.0470  210.7430  152.9610 C   0  0  0  0  0  2  0  0  0  0  0  0
  161.9570  204.9680  147.9010 C   0  0  2  0  0  3  0  0  0  0  0  0
  160.8510  204.9700  145.2770 C   0  0  0  0  0  0  0  0  0  0  0  0
  160.1850  204.9670  144.2090 O   0  0  0  0  0  0  0  0  0  0  0  0
  161.3510  203.7270  145.8620 C   0  0  0  0  0  0  0  0  0  0  0  0
  160.6760  203.1830  150.5290 C   0  0  0  0  0  3  0  0  0  0  0  0
  2 17  1  0  0  0  0
  5 21  1  6  0  0  0
  5  3  1  0  0  0  0
  5  8  1  0  0  0  0
  6 11  1  0  0  0  0
  6 23  1  0  0  0  0
  7 29  2  0  0  0  0
 10 15  1  0  0  0  0
 11  4  1  0  0  0  0
 12 14  1  0  0  0  0
 12  9  1  1  0  0  0
 13  4  1  0  0  0  0
 14 13  1  1  0  0  0
 15 18  1  1  0  0  0
 15 25  1  0  0  0  0
 16  3  1  6  0  0  0
 16 10  1  0  0  0  0
 16 12  1  0  0  0  0
 17 30  1  0  0  0  0
 19  8  1  6  0  0  0
 19 24  1  0  0  0  0
 19 14  1  0  0  0  0
 20 21  1  0  0  0  0
 20 26  1  0  0  0  0
 22 20  2  0  0  0  0
 24 17  1  6  0  0  0
 24 11  1  0  0  0  0
 25  9  1  0  0  0  0
 26  1  1  6  0  0  0
 26  2  1  0  0  0  0
 27 29  1  0  0  0  0
 27 22  1  0  0  0  0
 28 27  2  0  0  0  0
 29  1  1  0  0  0  0
 30  6  2  0  0  0  0
M  END
>  <MODEL>
3

>  <REMARK>
 VINA RESULT:      -7.7      3.918      8.032
  Name = 
  0 active torsions:
  status: ('A' for Active; 'I' for Inactive)
                            x       y       z     vdW  Elec       q    Type
                         _______ _______ _______ _____ _____    ______ ____

>  <TORSDO>
F 0

$$$$
