=
 OpenBabel11072413313D

 36 40  0  0  1  0  0  0  0  0999 V2000
  162.3420  208.4440  150.7150 N   0  0  0  0  0  2  0  0  0  0  0  0
  162.2000  209.7150  151.2900 N   0  0  0  0  0  2  0  0  0  0  0  0
  161.1860  207.6680  151.1350 C   0  0  2  0  0  3  0  0  0  0  0  0
  160.8410  208.0670  152.8660 S   0  0  0  0  0  0  0  0  0  0  0  0
  161.9270  209.5080  152.7010 C   0  0  2  0  0  3  0  0  0  0  0  0
  161.6730  204.4320  149.2450 C   0  0  2  0  0  3  0  0  0  0  0  0
  161.5700  204.6570  147.7790 C   0  0  0  0  0  0  0  0  0  0  0  0
  161.2180  205.3680  145.1080 C   0  0  0  0  0  0  0  0  0  0  0  0
  161.4750  206.2450  151.0040 N   0  0  1  0  0  0  0  0  0  0  0  0
  160.4550  206.6010  148.6360 C   0  0  0  0  0  2  0  0  0  0  0  0
  160.9150  203.3120  149.5970 O   0  0  0  0  0  1  0  0  0  0  0  0
  160.9040  205.8320  147.4490 C   0  0  0  0  0  0  0  0  0  0  0  0
  161.8930  204.1810  145.4390 C   0  0  0  0  0  3  0  0  0  0  0  0
  160.7200  206.2040  146.1170 C   0  0  0  0  0  3  0  0  0  0  0  0
  160.2460  205.6020  150.8640 O   0  0  0  0  0  0  0  0  0  0  0  0
  161.0470  205.7170  143.7760 O   0  0  0  0  0  1  0  0  0  0  0  0
  161.0030  205.7050  149.7450 C   0  0  1  0  0  0  0  0  0  0  0  0
  162.0740  203.8190  146.7820 C   0  0  0  0  0  3  0  0  0  0  0  0
  161.2530  210.7420  153.2750 C   0  0  0  0  0  2  0  0  0  0  0  0
  160.1160  211.1220  152.4460 N   0  0  0  0  0  0  0  0  0  0  0  0
  158.9150  211.2760  153.2800 C   0  0  0  0  0  2  0  0  0  0  0  0
  159.1470  212.0580  154.5780 C   0  0  0  0  0  2  0  0  0  0  0  0
  158.8460  209.9390  155.6390 O   0  0  0  0  0  1  0  0  0  0  0  0
  158.5990  211.3050  155.7780 C   0  0  0  0  0  2  0  0  0  0  0  0
  160.4330  212.3780  151.7810 C   0  0  0  0  0  2  0  0  0  0  0  0
  159.1860  212.9330  151.1230 C   0  0  0  0  0  2  0  0  0  0  0  0
  159.5810  213.8770  150.0090 C   0  0  0  0  0  2  0  0  0  0  0  0
  159.0420  213.3490  148.6860 C   0  0  0  0  0  2  0  0  0  0  0  0
  159.6810  212.1780  146.7320 O   0  0  0  0  0  1  0  0  0  0  0  0
  162.6660  213.8240  146.5360 N   0  0  0  0  0  0  0  0  0  0  0  0
  160.1360  213.1430  147.6370 C   0  0  1  0  0  0  0  0  0  0  0  0
  160.3580  214.4500  146.8600 C   0  0  0  0  0  2  0  0  0  0  0  0
  161.6370  211.2760  148.1480 O   0  0  0  0  0  1  0  0  0  0  0  0
  161.4400  212.6460  148.3310 C   0  0  1  0  0  3  0  0  0  0  0  0
  162.7070  213.4180  147.9270 C   0  0  0  0  0  2  0  0  0  0  0  0
  161.5980  214.3250  146.0220 C   0  0  0  0  0  3  0  0  0  0  0  0
  1  2  1  0  0  0  0
  2  5  1  0  0  0  0
  3  1  1  1  0  0  0
  3  4  1  0  0  0  0
  5  4  1  0  0  0  0
  5 19  1  6  0  0  0
  6 11  1  6  0  0  0
  6 17  1  0  0  0  0
  7  6  1  0  0  0  0
  8 13  2  0  0  0  0
  8 14  1  0  0  0  0
  9 15  1  1  0  0  0
  9  3  1  0  0  0  0
 12  7  1  0  0  0  0
 12 10  1  0  0  0  0
 13 18  1  0  0  0  0
 14 12  2  0  0  0  0
 16  8  1  0  0  0  0
 17 10  1  6  0  0  0
 17 15  1  0  0  0  0
 17  9  1  0  0  0  0
 18  7  2  0  0  0  0
 20 19  1  0  0  0  0
 20 21  1  0  0  0  0
 21 22  1  0  0  0  0
 22 24  1  0  0  0  0
 23 24  1  0  0  0  0
 25 20  1  0  0  0  0
 26 25  1  0  0  0  0
 27 26  1  0  0  0  0
 28 27  1  0  0  0  0
 30 35  1  0  0  0  0
 31 29  1  6  0  0  0
 31 34  1  0  0  0  0
 31 28  1  0  0  0  0
 32 31  1  0  0  0  0
 34 33  1  6  0  0  0
 35 34  1  0  0  0  0
 36 30  2  0  0  0  0
 36 32  1  0  0  0  0
M  END
>  <MODEL>
1

>  <REMARK>
 VINA RESULT:      -7.1      0.000      0.000
  Name = 
  11 active torsions:
  status: ('A' for Active; 'I' for Inactive)
    1  A    between atoms: C_3  and  C_17
    2  A    between atoms: C_3  and  C_19
    3  A    between atoms: C_4  and  C_5
    4  A    between atoms: C_4  and  N_23
    5  A    between atoms: C_5  and  C_31
    6  A    between atoms: N_9  and  C_12
    7  A    between atoms: C_15  and  C_19
    8  A    between atoms: C_15  and  C_20
    9  A    between atoms: C_20  and  N_23
   10  A    between atoms: N_23  and  C_28
   11  A    between atoms: C_25  and  C_28
                            x       y       z     vdW  Elec       q    Type
                         _______ _______ _______ _____ _____    ______ ____

>  <TORSDO>
F 11

$$$$
=
 OpenBabel11072413313D

 36 40  0  0  1  0  0  0  0  0999 V2000
  160.5650  205.9190  149.6350 N   0  0  0  0  0  2  0  0  0  0  0  0
  160.8130  206.3010  150.9620 N   0  0  0  0  0  2  0  0  0  0  0  0
  161.5970  206.5470  148.8250 C   0  0  2  0  0  3  0  0  0  0  0  0
  161.8720  208.2180  149.4620 S   0  0  0  0  0  0  0  0  0  0  0  0
  160.9690  207.7450  150.9590 C   0  0  2  0  0  3  0  0  0  0  0  0
  160.6200  205.1100  145.4690 C   0  0  2  0  0  3  0  0  0  0  0  0
  160.6080  203.6230  145.5150 C   0  0  0  0  0  0  0  0  0  0  0  0
  160.7800  200.8660  145.8780 C   0  0  0  0  0  0  0  0  0  0  0  0
  161.1570  206.6130  147.4350 N   0  0  1  0  0  0  0  0  0  0  0  0
  161.9850  204.1460  147.4100 C   0  0  0  0  0  2  0  0  0  0  0  0
  161.2920  205.5330  144.3200 O   0  0  0  0  0  1  0  0  0  0  0  0
  161.3540  203.1010  146.5650 C   0  0  0  0  0  0  0  0  0  0  0  0
  160.0250  201.3930  144.8170 C   0  0  0  0  0  3  0  0  0  0  0  0
  161.4500  201.7230  146.7630 C   0  0  0  0  0  3  0  0  0  0  0  0
  162.2990  206.4540  146.6510 O   0  0  0  0  0  0  0  0  0  0  0  0
  160.8620  199.4920  146.0540 O   0  0  0  0  0  1  0  0  0  0  0  0
  161.4550  205.3960  146.7090 C   0  0  1  0  0  0  0  0  0  0  0  0
  159.9340  202.7790  144.6300 C   0  0  0  0  0  3  0  0  0  0  0  0
  161.7390  208.1750  152.1950 C   0  0  0  0  0  2  0  0  0  0  0  0
  160.8210  208.3930  153.3070 N   0  0  0  0  0  0  0  0  0  0  0  0
  161.1750  207.5140  154.4300 C   0  0  0  0  0  2  0  0  0  0  0  0
  161.4640  208.2550  155.7410 C   0  0  0  0  0  2  0  0  0  0  0  0
  159.4310  207.1250  156.2840 O   0  0  0  0  0  1  0  0  0  0  0  0
  160.5000  207.8310  156.8360 C   0  0  0  0  0  2  0  0  0  0  0  0
  160.9110  209.7900  153.7090 C   0  0  0  0  0  2  0  0  0  0  0  0
  160.6560  210.6800  152.5110 C   0  0  0  0  0  2  0  0  0  0  0  0
  160.1500  212.0260  152.9810 C   0  0  0  0  0  2  0  0  0  0  0  0
  158.6300  212.0520  152.8880 C   0  0  0  0  0  2  0  0  0  0  0  0
  158.8500  213.2450  154.9190 O   0  0  0  0  0  1  0  0  0  0  0  0
  155.7060  212.3920  155.9400 N   0  0  0  0  0  0  0  0  0  0  0  0
  157.9580  212.4370  154.2070 C   0  0  1  0  0  0  0  0  0  0  0  0
  156.6960  213.2660  153.9200 C   0  0  0  0  0  2  0  0  0  0  0  0
  158.5470  210.9570  156.0690 O   0  0  0  0  0  1  0  0  0  0  0  0
  157.6380  211.1500  155.0260 C   0  0  1  0  0  3  0  0  0  0  0  0
  156.2000  211.0820  155.5650 C   0  0  0  0  0  2  0  0  0  0  0  0
  155.9030  213.4170  155.1860 C   0  0  0  0  0  3  0  0  0  0  0  0
  1  2  1  0  0  0  0
  3  4  1  1  0  0  0
  3  1  1  0  0  0  0
  4  5  1  0  0  0  0
  5  2  1  0  0  0  0
  5 19  1  1  0  0  0
  6 11  1  6  0  0  0
  6  7  1  0  0  0  0
  6 17  1  0  0  0  0
  7 12  1  0  0  0  0
  8 16  1  0  0  0  0
  8 14  1  0  0  0  0
  9 15  1  6  0  0  0
  9  3  1  0  0  0  0
 12 14  2  0  0  0  0
 12 10  1  0  0  0  0
 13  8  2  0  0  0  0
 15 17  1  0  0  0  0
 17 10  1  1  0  0  0
 17  9  1  0  0  0  0
 18 13  1  0  0  0  0
 18  7  2  0  0  0  0
 19 20  1  0  0  0  0
 20 25  1  0  0  0  0
 20 21  1  0  0  0  0
 21 22  1  0  0  0  0
 22 24  1  0  0  0  0
 23 24  1  0  0  0  0
 26 27  1  0  0  0  0
 26 25  1  0  0  0  0
 28 27  1  0  0  0  0
 28 31  1  0  0  0  0
 31 29  1  1  0  0  0
 31 34  1  0  0  0  0
 32 31  1  0  0  0  0
 32 36  1  0  0  0  0
 34 35  1  0  0  0  0
 34 33  1  1  0  0  0
 35 30  1  0  0  0  0
 36 30  2  0  0  0  0
M  END
>  <MODEL>
2

>  <REMARK>
 VINA RESULT:      -6.5      3.511      5.508
  Name = 
  11 active torsions:
  status: ('A' for Active; 'I' for Inactive)
    1  A    between atoms: C_3  and  C_17
    2  A    between atoms: C_3  and  C_19
    3  A    between atoms: C_4  and  C_5
    4  A    between atoms: C_4  and  N_23
    5  A    between atoms: C_5  and  C_31
    6  A    between atoms: N_9  and  C_12
    7  A    between atoms: C_15  and  C_19
    8  A    between atoms: C_15  and  C_20
    9  A    between atoms: C_20  and  N_23
   10  A    between atoms: N_23  and  C_28
   11  A    between atoms: C_25  and  C_28
                            x       y       z     vdW  Elec       q    Type
                         _______ _______ _______ _____ _____    ______ ____

>  <TORSDO>
F 11

$$$$
=
 OpenBabel11072413313D

 36 40  0  0  1  0  0  0  0  0999 V2000
  160.2460  207.8920  155.6970 N   0  0  0  0  0  2  0  0  0  0  0  0
  160.3820  206.9950  154.6280 N   0  0  0  0  0  2  0  0  0  0  0  0
  159.9270  209.1850  155.1130 C   0  0  2  0  0  3  0  0  0  0  0  0
  160.9260  209.3890  153.6190 S   0  0  0  0  0  0  0  0  0  0  0  0
  161.2860  207.6150  153.6740 C   0  0  2  0  0  3  0  0  0  0  0  0
  159.3350  212.4500  156.9220 C   0  0  2  0  0  3  0  0  0  0  0  0
  158.0310  213.0450  156.5240 C   0  0  0  0  0  0  0  0  0  0  0  0
  155.6030  213.9570  155.5060 C   0  0  0  0  0  0  0  0  0  0  0  0
  160.2400  210.2450  156.0660 N   0  0  1  0  0  0  0  0  0  0  0  0
  158.4420  211.5400  154.7010 C   0  0  0  0  0  2  0  0  0  0  0  0
  160.3220  213.4390  156.8940 O   0  0  0  0  0  1  0  0  0  0  0  0
  157.5500  212.5540  155.3160 C   0  0  0  0  0  0  0  0  0  0  0  0
  156.0870  214.4530  156.7280 C   0  0  0  0  0  3  0  0  0  0  0  0
  156.3350  212.9980  154.7910 C   0  0  0  0  0  3  0  0  0  0  0  0
  160.7970  211.2890  155.3290 O   0  0  0  0  0  0  0  0  0  0  0  0
  154.3930  214.4150  155.0040 O   0  0  0  0  0  1  0  0  0  0  0  0
  159.5300  211.4730  155.7710 C   0  0  1  0  0  0  0  0  0  0  0  0
  157.3080  213.9970  157.2450 C   0  0  0  0  0  3  0  0  0  0  0  0
  161.0810  206.9950  152.3030 C   0  0  0  0  0  2  0  0  0  0  0  0
  162.3510  206.4970  151.7850 N   0  0  0  0  0  0  0  0  0  0  0  0
  162.1920  205.1140  151.3130 C   0  0  0  0  0  2  0  0  0  0  0  0
  161.1800  204.2870  152.1160 C   0  0  0  0  0  2  0  0  0  0  0  0
  160.4290  202.6700  150.5260 O   0  0  0  0  0  1  0  0  0  0  0  0
  161.1940  202.8310  151.6810 C   0  0  0  0  0  2  0  0  0  0  0  0
  162.7690  207.3600  150.6890 C   0  0  0  0  0  2  0  0  0  0  0  0
  161.5650  208.0960  150.1370 C   0  0  0  0  0  2  0  0  0  0  0  0
  161.6400  208.1220  148.6260 C   0  0  0  0  0  2  0  0  0  0  0  0
  162.3220  206.8520  148.1340 C   0  0  0  0  0  2  0  0  0  0  0  0
  160.1520  205.9380  147.8990 O   0  0  0  0  0  1  0  0  0  0  0  0
  160.9470  204.4150  144.9480 N   0  0  0  0  0  0  0  0  0  0  0  0
  161.4050  205.9770  147.2780 C   0  0  1  0  0  0  0  0  0  0  0  0
  161.2260  206.6180  145.8930 C   0  0  0  0  0  2  0  0  0  0  0  0
  161.3190  203.6420  148.0170 O   0  0  0  0  0  1  0  0  0  0  0  0
  161.9950  204.5370  147.1840 C   0  0  1  0  0  3  0  0  0  0  0  0
  162.0670  203.9730  145.7550 C   0  0  0  0  0  2  0  0  0  0  0  0
  160.5510  205.6390  144.9770 C   0  0  0  0  0  3  0  0  0  0  0  0
  2  1  1  0  0  0  0
  3  4  1  6  0  0  0
  3  1  1  0  0  0  0
  3  9  1  0  0  0  0
  4  5  1  0  0  0  0
  5 19  1  6  0  0  0
  5  2  1  0  0  0  0
  6 11  1  6  0  0  0
  7  6  1  0  0  0  0
  7 18  1  0  0  0  0
  8 13  1  0  0  0  0
  9 15  1  6  0  0  0
 10 12  1  0  0  0  0
 12  7  2  0  0  0  0
 13 18  2  0  0  0  0
 14 12  1  0  0  0  0
 14  8  2  0  0  0  0
 15 17  1  0  0  0  0
 16  8  1  0  0  0  0
 17 10  1  6  0  0  0
 17  9  1  0  0  0  0
 17  6  1  0  0  0  0
 20 19  1  0  0  0  0
 21 20  1  0  0  0  0
 21 22  1  0  0  0  0
 23 24  1  0  0  0  0
 24 22  1  0  0  0  0
 25 20  1  0  0  0  0
 26 25  1  0  0  0  0
 27 26  1  0  0  0  0
 28 27  1  0  0  0  0
 30 36  2  0  0  0  0
 30 35  1  0  0  0  0
 31 29  1  1  0  0  0
 31 28  1  0  0  0  0
 32 31  1  0  0  0  0
 34 31  1  0  0  0  0
 34 33  1  1  0  0  0
 35 34  1  0  0  0  0
 36 32  1  0  0  0  0
M  END
>  <MODEL>
3

>  <REMARK>
 VINA RESULT:      -6.4      3.771      9.160
  Name = 
  11 active torsions:
  status: ('A' for Active; 'I' for Inactive)
    1  A    between atoms: C_3  and  C_17
    2  A    between atoms: C_3  and  C_19
    3  A    between atoms: C_4  and  C_5
    4  A    between atoms: C_4  and  N_23
    5  A    between atoms: C_5  and  C_31
    6  A    between atoms: N_9  and  C_12
    7  A    between atoms: C_15  and  C_19
    8  A    between atoms: C_15  and  C_20
    9  A    between atoms: C_20  and  N_23
   10  A    between atoms: N_23  and  C_28
   11  A    between atoms: C_25  and  C_28
                            x       y       z     vdW  Elec       q    Type
                         _______ _______ _______ _____ _____    ______ ____

>  <TORSDO>
F 11

$$$$
=
 OpenBabel11072413313D

 36 40  0  0  1  0  0  0  0  0999 V2000
  160.3520  207.0190  155.2490 N   0  0  0  0  0  2  0  0  0  0  0  0
  160.7510  206.2460  154.1480 N   0  0  0  0  0  2  0  0  0  0  0  0
  160.3370  208.4010  154.8000 C   0  0  2  0  0  3  0  0  0  0  0  0
  161.7730  208.6610  153.7300 S   0  0  0  0  0  0  0  0  0  0  0  0
  161.9570  206.8620  153.6210 C   0  0  2  0  0  3  0  0  0  0  0  0
  159.3340  211.3820  156.8950 C   0  0  2  0  0  3  0  0  0  0  0  0
  158.1700  212.0840  156.2910 C   0  0  0  0  0  0  0  0  0  0  0  0
  156.0700  213.2400  154.8710 C   0  0  0  0  0  0  0  0  0  0  0  0
  160.4110  209.2930  155.9520 N   0  0  1  0  0  0  0  0  0  0  0  0
  159.0090  210.8520  154.4110 C   0  0  0  0  0  2  0  0  0  0  0  0
  160.3020  212.3210  157.2600 O   0  0  0  0  0  1  0  0  0  0  0  0
  157.9980  211.8000  154.9410 C   0  0  0  0  0  0  0  0  0  0  0  0
  156.2420  213.5270  156.2350 C   0  0  0  0  0  3  0  0  0  0  0  0
  156.9510  212.3680  154.2140 C   0  0  0  0  0  3  0  0  0  0  0  0
  161.1370  210.4110  155.5430 O   0  0  0  0  0  0  0  0  0  0  0  0
  155.0220  213.8180  154.1690 O   0  0  0  0  0  1  0  0  0  0  0  0
  159.8010  210.5800  155.6890 C   0  0  1  0  0  0  0  0  0  0  0  0
  157.2960  212.9480  156.9550 C   0  0  0  0  0  3  0  0  0  0  0  0
  162.1520  206.4400  152.1750 C   0  0  0  0  0  2  0  0  0  0  0  0
  160.8650  206.3800  151.4930 N   0  0  0  0  0  0  0  0  0  0  0  0
  160.9030  207.2000  150.2750 C   0  0  0  0  0  2  0  0  0  0  0  0
  161.9040  208.3610  150.3290 C   0  0  0  0  0  2  0  0  0  0  0  0
  162.1080  210.4100  149.1170 O   0  0  0  0  0  1  0  0  0  0  0  0
  162.0490  209.0240  148.9700 C   0  0  0  0  0  2  0  0  0  0  0  0
  160.5880  204.9900  151.1590 C   0  0  0  0  0  2  0  0  0  0  0  0
  161.5640  204.5200  150.1000 C   0  0  0  0  0  2  0  0  0  0  0  0
  160.8000  204.0700  148.8740 C   0  0  0  0  0  2  0  0  0  0  0  0
  161.7740  203.4780  147.8630 C   0  0  0  0  0  2  0  0  0  0  0  0
  163.3180  204.4260  146.3420 O   0  0  0  0  0  1  0  0  0  0  0  0
  160.8430  205.8860  144.4990 N   0  0  0  0  0  0  0  0  0  0  0  0
  161.9500  204.3550  146.6220 C   0  0  1  0  0  0  0  0  0  0  0  0
  161.2560  203.6940  145.4210 C   0  0  0  0  0  2  0  0  0  0  0  0
  162.4150  206.7030  147.1460 O   0  0  0  0  0  1  0  0  0  0  0  0
  161.3920  205.7820  146.9070 C   0  0  1  0  0  3  0  0  0  0  0  0
  160.4440  206.3220  145.8230 C   0  0  0  0  0  2  0  0  0  0  0  0
  161.2020  204.6690  144.2800 C   0  0  0  0  0  3  0  0  0  0  0  0
  2  1  1  0  0  0  0
  3  4  1  6  0  0  0
  3  1  1  0  0  0  0
  3  9  1  0  0  0  0
  5 19  1  6  0  0  0
  5  4  1  0  0  0  0
  5  2  1  0  0  0  0
  6 11  1  6  0  0  0
  7  6  1  0  0  0  0
  7 18  1  0  0  0  0
  8 13  1  0  0  0  0
  9 15  1  6  0  0  0
 10 12  1  0  0  0  0
 12  7  2  0  0  0  0
 13 18  2  0  0  0  0
 14  8  2  0  0  0  0
 14 12  1  0  0  0  0
 15 17  1  0  0  0  0
 16  8  1  0  0  0  0
 17 10  1  6  0  0  0
 17  9  1  0  0  0  0
 17  6  1  0  0  0  0
 20 19  1  0  0  0  0
 21 22  1  0  0  0  0
 21 20  1  0  0  0  0
 24 23  1  0  0  0  0
 24 22  1  0  0  0  0
 25 20  1  0  0  0  0
 26 25  1  0  0  0  0
 27 26  1  0  0  0  0
 28 27  1  0  0  0  0
 30 35  1  0  0  0  0
 31 29  1  6  0  0  0
 31 34  1  0  0  0  0
 31 28  1  0  0  0  0
 32 31  1  0  0  0  0
 34 33  1  6  0  0  0
 35 34  1  0  0  0  0
 36 30  2  0  0  0  0
 36 32  1  0  0  0  0
M  END
>  <MODEL>
4

>  <REMARK>
 VINA RESULT:      -6.2      3.423      8.907
  Name = 
  11 active torsions:
  status: ('A' for Active; 'I' for Inactive)
    1  A    between atoms: C_3  and  C_17
    2  A    between atoms: C_3  and  C_19
    3  A    between atoms: C_4  and  C_5
    4  A    between atoms: C_4  and  N_23
    5  A    between atoms: C_5  and  C_31
    6  A    between atoms: N_9  and  C_12
    7  A    between atoms: C_15  and  C_19
    8  A    between atoms: C_15  and  C_20
    9  A    between atoms: C_20  and  N_23
   10  A    between atoms: N_23  and  C_28
   11  A    between atoms: C_25  and  C_28
                            x       y       z     vdW  Elec       q    Type
                         _______ _______ _______ _____ _____    ______ ____

>  <TORSDO>
F 11

$$$$
=
 OpenBabel11072413313D

 36 40  0  0  1  0  0  0  0  0999 V2000
  160.4420  206.5840  149.4350 N   0  0  0  0  0  2  0  0  0  0  0  0
  160.8330  207.0910  150.6830 N   0  0  0  0  0  2  0  0  0  0  0  0
  161.5770  206.7610  148.5420 C   0  0  2  0  0  3  0  0  0  0  0  0
  162.3250  208.3700  148.8970 S   0  0  0  0  0  0  0  0  0  0  0  0
  161.3810  208.4150  150.4430 C   0  0  2  0  0  3  0  0  0  0  0  0
  160.6010  205.0740  145.3050 C   0  0  2  0  0  3  0  0  0  0  0  0
  160.6240  203.5940  145.4530 C   0  0  0  0  0  0  0  0  0  0  0  0
  160.8640  200.8730  146.0020 C   0  0  0  0  0  0  0  0  0  0  0  0
  161.1230  206.7210  147.1570 N   0  0  1  0  0  0  0  0  0  0  0  0
  162.0060  204.2770  147.2910 C   0  0  0  0  0  2  0  0  0  0  0  0
  161.2530  205.4320  144.1220 O   0  0  0  0  0  1  0  0  0  0  0  0
  161.3920  203.1620  146.5280 C   0  0  0  0  0  0  0  0  0  0  0  0
  160.0860  201.3080  144.9160 C   0  0  0  0  0  3  0  0  0  0  0  0
  161.5220  201.8040  146.8200 C   0  0  0  0  0  3  0  0  0  0  0  0
  162.2600  206.5340  146.3720 O   0  0  0  0  0  0  0  0  0  0  0  0
  160.9790  199.5170  146.2720 O   0  0  0  0  0  1  0  0  0  0  0  0
  161.4420  205.4640  146.5120 C   0  0  1  0  0  0  0  0  0  0  0  0
  159.9620  202.6760  144.6350 C   0  0  0  0  0  3  0  0  0  0  0  0
  162.2840  208.8080  151.5990 C   0  0  0  0  0  2  0  0  0  0  0  0
  161.6750  209.8900  152.3640 N   0  0  0  0  0  0  0  0  0  0  0  0
  161.0620  210.8660  151.4520 C   0  0  0  0  0  2  0  0  0  0  0  0
  160.0800  211.8290  152.1310 C   0  0  0  0  0  2  0  0  0  0  0  0
  158.3650  213.1460  151.1140 O   0  0  0  0  0  1  0  0  0  0  0  0
  159.7480  213.0020  151.2240 C   0  0  0  0  0  2  0  0  0  0  0  0
  160.6660  209.3170  153.2440 C   0  0  0  0  0  2  0  0  0  0  0  0
  161.1980  209.2720  154.6620 C   0  0  0  0  0  2  0  0  0  0  0  0
  160.7120  210.4870  155.4210 C   0  0  0  0  0  2  0  0  0  0  0  0
  159.2660  210.2700  155.8450 C   0  0  0  0  0  2  0  0  0  0  0  0
  158.0330  211.7720  157.1950 O   0  0  0  0  0  1  0  0  0  0  0  0
  157.4150  213.8660  154.5700 N   0  0  0  0  0  0  0  0  0  0  0  0
  158.4530  211.5660  155.8770 C   0  0  1  0  0  0  0  0  0  0  0  0
  159.3510  212.7480  155.4790 C   0  0  0  0  0  2  0  0  0  0  0  0
  156.0390  211.2080  155.6610 O   0  0  0  0  0  1  0  0  0  0  0  0
  157.2150  211.4300  154.9400 C   0  0  1  0  0  3  0  0  0  0  0  0
  157.0210  212.6070  153.9700 C   0  0  0  0  0  2  0  0  0  0  0  0
  158.5000  213.9650  155.2560 C   0  0  0  0  0  3  0  0  0  0  0  0
  1  2  1  0  0  0  0
  3  4  1  1  0  0  0
  3  1  1  0  0  0  0
  4  5  1  0  0  0  0
  5  2  1  0  0  0  0
  5 19  1  1  0  0  0
  6 11  1  6  0  0  0
  6  7  1  0  0  0  0
  6 17  1  0  0  0  0
  7 12  1  0  0  0  0
  8 16  1  0  0  0  0
  8 14  1  0  0  0  0
  9 15  1  6  0  0  0
  9  3  1  0  0  0  0
 12 14  2  0  0  0  0
 12 10  1  0  0  0  0
 13  8  2  0  0  0  0
 15 17  1  0  0  0  0
 17  9  1  0  0  0  0
 17 10  1  1  0  0  0
 18 13  1  0  0  0  0
 18  7  2  0  0  0  0
 19 20  1  0  0  0  0
 20 25  1  0  0  0  0
 21 22  1  0  0  0  0
 21 20  1  0  0  0  0
 23 24  1  0  0  0  0
 24 22  1  0  0  0  0
 25 26  1  0  0  0  0
 26 27  1  0  0  0  0
 27 28  1  0  0  0  0
 28 31  1  0  0  0  0
 30 36  2  0  0  0  0
 31 29  1  1  0  0  0
 32 31  1  0  0  0  0
 34 33  1  1  0  0  0
 34 31  1  0  0  0  0
 35 30  1  0  0  0  0
 35 34  1  0  0  0  0
 36 32  1  0  0  0  0
M  END
>  <MODEL>
5

>  <REMARK>
 VINA RESULT:      -6.1      2.937      5.736
  Name = 
  11 active torsions:
  status: ('A' for Active; 'I' for Inactive)
    1  A    between atoms: C_3  and  C_17
    2  A    between atoms: C_3  and  C_19
    3  A    between atoms: C_4  and  C_5
    4  A    between atoms: C_4  and  N_23
    5  A    between atoms: C_5  and  C_31
    6  A    between atoms: N_9  and  C_12
    7  A    between atoms: C_15  and  C_19
    8  A    between atoms: C_15  and  C_20
    9  A    between atoms: C_20  and  N_23
   10  A    between atoms: N_23  and  C_28
   11  A    between atoms: C_25  and  C_28
                            x       y       z     vdW  Elec       q    Type
                         _______ _______ _______ _____ _____    ______ ____

>  <TORSDO>
F 11

$$$$
=
 OpenBabel11072413313D

 36 40  0  0  1  0  0  0  0  0999 V2000
  160.3860  206.3590  149.1740 N   0  0  0  0  0  2  0  0  0  0  0  0
  160.8130  206.9160  150.3890 N   0  0  0  0  0  2  0  0  0  0  0  0
  161.5260  206.4080  148.2730 C   0  0  2  0  0  3  0  0  0  0  0  0
  162.3770  207.9840  148.5280 S   0  0  0  0  0  0  0  0  0  0  0  0
  161.4440  208.1850  150.0670 C   0  0  2  0  0  3  0  0  0  0  0  0
  160.5460  204.5910  145.1080 C   0  0  2  0  0  3  0  0  0  0  0  0
  160.5800  203.1190  145.3130 C   0  0  0  0  0  0  0  0  0  0  0  0
  160.8400  200.4220  145.9650 C   0  0  0  0  0  0  0  0  0  0  0  0
  161.0660  206.3120  146.8920 N   0  0  1  0  0  0  0  0  0  0  0  0
  161.9660  203.8810  147.1160 C   0  0  0  0  0  2  0  0  0  0  0  0
  161.1900  204.9070  143.9080 O   0  0  0  0  0  1  0  0  0  0  0  0
  161.3550  202.7340  146.4000 C   0  0  0  0  0  0  0  0  0  0  0  0
  160.0540  200.8100  144.8670 C   0  0  0  0  0  3  0  0  0  0  0  0
  161.4960  201.3880  146.7430 C   0  0  0  0  0  3  0  0  0  0  0  0
  162.2000  206.1020  146.1090 O   0  0  0  0  0  0  0  0  0  0  0  0
  160.9650  199.0780  146.2860 O   0  0  0  0  0  1  0  0  0  0  0  0
  161.3900  205.0330  146.2950 C   0  0  1  0  0  0  0  0  0  0  0  0
  159.9190  202.1660  144.5340 C   0  0  0  0  0  3  0  0  0  0  0  0
  162.3740  208.5900  151.1970 C   0  0  0  0  0  2  0  0  0  0  0  0
  162.3960  210.0420  151.3310 N   0  0  0  0  0  0  0  0  0  0  0  0
  161.5330  210.6540  150.3100 C   0  0  0  0  0  2  0  0  0  0  0  0
  162.2350  211.7040  149.4410 C   0  0  0  0  0  2  0  0  0  0  0  0
  162.2130  212.7590  147.2980 O   0  0  0  0  0  1  0  0  0  0  0  0
  161.7140  211.6710  148.0140 C   0  0  0  0  0  2  0  0  0  0  0  0
  161.9240  210.3870  152.6650 C   0  0  0  0  0  2  0  0  0  0  0  0
  160.4530  210.7440  152.6050 C   0  0  0  0  0  2  0  0  0  0  0  0
  160.0910  211.5940  153.8030 C   0  0  0  0  0  2  0  0  0  0  0  0
  159.1140  210.8290  154.6850 C   0  0  0  0  0  2  0  0  0  0  0  0
  158.9250  210.6130  157.0340 O   0  0  0  0  0  1  0  0  0  0  0  0
  161.8330  208.8380  157.2590 N   0  0  0  0  0  0  0  0  0  0  0  0
  159.7610  210.2870  155.9610 C   0  0  1  0  0  0  0  0  0  0  0  0
  159.8520  208.7550  155.8820 C   0  0  0  0  0  2  0  0  0  0  0  0
  161.1310  211.9430  157.1370 O   0  0  0  0  0  1  0  0  0  0  0  0
  161.1590  210.9460  156.1590 C   0  0  1  0  0  3  0  0  0  0  0  0
  162.2940  209.9520  156.4550 C   0  0  0  0  0  2  0  0  0  0  0  0
  160.7160  208.2510  157.0020 C   0  0  0  0  0  3  0  0  0  0  0  0
  1  2  1  0  0  0  0
  3  4  1  6  0  0  0
  3  1  1  0  0  0  0
  4  5  1  0  0  0  0
  5  2  1  0  0  0  0
  5 19  1  1  0  0  0
  6 11  1  6  0  0  0
  6  7  1  0  0  0  0
  6 17  1  0  0  0  0
  7 12  1  0  0  0  0
  8 16  1  0  0  0  0
  8 14  1  0  0  0  0
  9 15  1  6  0  0  0
  9  3  1  0  0  0  0
 12 14  2  0  0  0  0
 12 10  1  0  0  0  0
 13  8  2  0  0  0  0
 15 17  1  0  0  0  0
 17  9  1  0  0  0  0
 17 10  1  1  0  0  0
 18 13  1  0  0  0  0
 18  7  2  0  0  0  0
 19 20  1  0  0  0  0
 20 25  1  0  0  0  0
 21 20  1  0  0  0  0
 22 21  1  0  0  0  0
 23 24  1  0  0  0  0
 24 22  1  0  0  0  0
 26 25  1  0  0  0  0
 26 27  1  0  0  0  0
 27 28  1  0  0  0  0
 28 31  1  0  0  0  0
 31 34  1  0  0  0  0
 31 29  1  1  0  0  0
 32 31  1  0  0  0  0
 32 36  1  0  0  0  0
 34 35  1  0  0  0  0
 34 33  1  1  0  0  0
 35 30  1  0  0  0  0
 36 30  2  0  0  0  0
M  END
>  <MODEL>
6

>  <REMARK>
 VINA RESULT:      -6.1      2.610      6.385
  Name = 
  11 active torsions:
  status: ('A' for Active; 'I' for Inactive)
    1  A    between atoms: C_3  and  C_17
    2  A    between atoms: C_3  and  C_19
    3  A    between atoms: C_4  and  C_5
    4  A    between atoms: C_4  and  N_23
    5  A    between atoms: C_5  and  C_31
    6  A    between atoms: N_9  and  C_12
    7  A    between atoms: C_15  and  C_19
    8  A    between atoms: C_15  and  C_20
    9  A    between atoms: C_20  and  N_23
   10  A    between atoms: N_23  and  C_28
   11  A    between atoms: C_25  and  C_28
                            x       y       z     vdW  Elec       q    Type
                         _______ _______ _______ _____ _____    ______ ____

>  <TORSDO>
F 11

$$$$
=
 OpenBabel11072413313D

 36 40  0  0  1  0  0  0  0  0999 V2000
  162.5640  208.5880  149.1280 N   0  0  0  0  0  2  0  0  0  0  0  0
  162.3460  209.6880  148.2850 N   0  0  0  0  0  2  0  0  0  0  0  0
  161.5820  208.6830  150.1950 C   0  0  2  0  0  3  0  0  0  0  0  0
  161.4300  210.4240  150.6660 S   0  0  0  0  0  0  0  0  0  0  0  0
  162.2970  210.8630  149.1370 C   0  0  2  0  0  3  0  0  0  0  0  0
  162.0570  205.5140  152.1980 C   0  0  2  0  0  3  0  0  0  0  0  0
  161.5900  204.3290  151.4300 C   0  0  0  0  0  0  0  0  0  0  0  0
  160.5380  202.3290  149.8000 C   0  0  0  0  0  0  0  0  0  0  0  0
  162.0240  207.8980  151.3420 N   0  0  1  0  0  0  0  0  0  0  0  0
  160.4470  206.1100  150.2980 C   0  0  0  0  0  2  0  0  0  0  0  0
  161.5610  205.4460  153.5020 O   0  0  0  0  0  1  0  0  0  0  0  0
  160.7120  204.6530  150.4020 C   0  0  0  0  0  0  0  0  0  0  0  0
  161.4260  202.0000  150.8370 C   0  0  0  0  0  3  0  0  0  0  0  0
  160.1760  203.6650  149.5750 C   0  0  0  0  0  3  0  0  0  0  0  0
  160.8960  207.6750  152.1300 O   0  0  0  0  0  0  0  0  0  0  0  0
  160.0180  201.3290  148.9910 O   0  0  0  0  0  1  0  0  0  0  0  0
  161.3530  206.6160  151.4190 C   0  0  1  0  0  0  0  0  0  0  0  0
  161.9590  203.0030  151.6600 C   0  0  0  0  0  3  0  0  0  0  0  0
  161.5610  211.9800  148.4180 C   0  0  0  0  0  2  0  0  0  0  0  0
  162.3170  213.2240  148.5200 N   0  0  0  0  0  0  0  0  0  0  0  0
  162.9430  213.5370  147.2280 C   0  0  0  0  0  2  0  0  0  0  0  0
  161.9900  213.4530  146.0290 C   0  0  0  0  0  2  0  0  0  0  0  0
  162.0930  212.6010  143.8000 O   0  0  0  0  0  1  0  0  0  0  0  0
  162.7580  213.4130  144.7190 C   0  0  0  0  0  2  0  0  0  0  0  0
  161.4000  214.2870  148.9080 C   0  0  0  0  0  2  0  0  0  0  0  0
  160.0560  213.6900  149.2720 C   0  0  0  0  0  2  0  0  0  0  0  0
  159.7660  213.9540  150.7330 C   0  0  0  0  0  2  0  0  0  0  0  0
  158.5000  213.2120  151.1370 C   0  0  0  0  0  2  0  0  0  0  0  0
  158.9470  214.4010  153.1330 O   0  0  0  0  0  1  0  0  0  0  0  0
  156.6930  212.5580  154.9170 N   0  0  0  0  0  0  0  0  0  0  0  0
  158.1780  213.3480  152.6260 C   0  0  1  0  0  0  0  0  0  0  0  0
  156.6970  213.7190  152.8020 C   0  0  0  0  0  2  0  0  0  0  0  0
  159.7360  212.1350  154.0750 O   0  0  0  0  0  1  0  0  0  0  0  0
  158.5400  212.0240  153.3630 C   0  0  1  0  0  3  0  0  0  0  0  0
  157.4310  211.4840  154.2820 C   0  0  0  0  0  2  0  0  0  0  0  0
  156.3220  213.5950  154.2500 C   0  0  0  0  0  3  0  0  0  0  0  0
  2  1  1  0  0  0  0
  2  5  1  0  0  0  0
  3  1  1  6  0  0  0
  3  4  1  0  0  0  0
  3  9  1  0  0  0  0
  5 19  1  6  0  0  0
  5  4  1  0  0  0  0
  6 11  1  1  0  0  0
  7 18  1  0  0  0  0
  7  6  1  0  0  0  0
  8 13  1  0  0  0  0
  9 17  1  0  0  0  0
  9 15  1  1  0  0  0
 10 12  1  0  0  0  0
 12  7  2  0  0  0  0
 13 18  2  0  0  0  0
 14  8  2  0  0  0  0
 14 12  1  0  0  0  0
 16  8  1  0  0  0  0
 17 10  1  6  0  0  0
 17 15  1  0  0  0  0
 17  6  1  0  0  0  0
 19 20  1  0  0  0  0
 20 25  1  0  0  0  0
 21 20  1  0  0  0  0
 22 21  1  0  0  0  0
 23 24  1  0  0  0  0
 24 22  1  0  0  0  0
 25 26  1  0  0  0  0
 26 27  1  0  0  0  0
 27 28  1  0  0  0  0
 28 31  1  0  0  0  0
 31 32  1  0  0  0  0
 31 29  1  1  0  0  0
 31 34  1  0  0  0  0
 32 36  1  0  0  0  0
 34 33  1  1  0  0  0
 34 35  1  0  0  0  0
 35 30  1  0  0  0  0
 36 30  2  0  0  0  0
M  END
>  <MODEL>
7

>  <REMARK>
 VINA RESULT:      -6.1      2.756      5.908
  Name = 
  11 active torsions:
  status: ('A' for Active; 'I' for Inactive)
    1  A    between atoms: C_3  and  C_17
    2  A    between atoms: C_3  and  C_19
    3  A    between atoms: C_4  and  C_5
    4  A    between atoms: C_4  and  N_23
    5  A    between atoms: C_5  and  C_31
    6  A    between atoms: N_9  and  C_12
    7  A    between atoms: C_15  and  C_19
    8  A    between atoms: C_15  and  C_20
    9  A    between atoms: C_20  and  N_23
   10  A    between atoms: N_23  and  C_28
   11  A    between atoms: C_25  and  C_28
                            x       y       z     vdW  Elec       q    Type
                         _______ _______ _______ _____ _____    ______ ____

>  <TORSDO>
F 11

$$$$
=
 OpenBabel11072413313D

 36 40  0  0  1  0  0  0  0  0999 V2000
  161.6340  209.7120  148.6420 N   0  0  0  0  0  2  0  0  0  0  0  0
  161.5930  210.3430  149.8940 N   0  0  0  0  0  2  0  0  0  0  0  0
  161.4700  208.2890  148.8910 C   0  0  2  0  0  3  0  0  0  0  0  0
  162.4140  207.8640  150.3750 S   0  0  0  0  0  0  0  0  0  0  0  0
  162.5270  209.6330  150.7510 C   0  0  2  0  0  3  0  0  0  0  0  0
  162.1070  205.1570  146.8740 C   0  0  2  0  0  3  0  0  0  0  0  0
  161.4800  203.9750  147.5230 C   0  0  0  0  0  0  0  0  0  0  0  0
  160.3000  201.9450  149.0230 C   0  0  0  0  0  0  0  0  0  0  0  0
  161.9720  207.5300  147.7510 N   0  0  1  0  0  0  0  0  0  0  0  0
  161.5990  205.5170  149.3570 C   0  0  0  0  0  2  0  0  0  0  0  0
  163.4140  204.8400  146.4940 O   0  0  0  0  0  1  0  0  0  0  0  0
  161.2100  204.1690  148.8720 C   0  0  0  0  0  0  0  0  0  0  0  0
  160.5710  201.7480  147.6590 C   0  0  0  0  0  3  0  0  0  0  0  0
  160.6180  203.1640  149.6390 C   0  0  0  0  0  3  0  0  0  0  0  0
  163.1760  206.9560  148.1560 O   0  0  0  0  0  0  0  0  0  0  0  0
  159.7110  200.9310  149.7650 O   0  0  0  0  0  1  0  0  0  0  0  0
  162.1150  206.1200  148.0530 C   0  0  1  0  0  0  0  0  0  0  0  0
  161.1640  202.7660  146.8990 C   0  0  0  0  0  3  0  0  0  0  0  0
  162.1720  209.8840  152.2060 C   0  0  0  0  0  2  0  0  0  0  0  0
  161.0350  209.0560  152.5940 N   0  0  0  0  0  0  0  0  0  0  0  0
  161.3610  208.2930  153.8070 C   0  0  0  0  0  2  0  0  0  0  0  0
  160.8350  206.8520  153.8030 C   0  0  0  0  0  2  0  0  0  0  0  0
  161.2040  204.7430  152.7450 O   0  0  0  0  0  1  0  0  0  0  0  0
  161.8450  205.9020  153.1810 C   0  0  0  0  0  2  0  0  0  0  0  0
  159.8950  209.9290  152.8360 C   0  0  0  0  0  2  0  0  0  0  0  0
  160.3360  211.1220  153.6600 C   0  0  0  0  0  2  0  0  0  0  0  0
  159.5710  212.3500  153.2170 C   0  0  0  0  0  2  0  0  0  0  0  0
  158.0770  212.0910  153.3600 C   0  0  0  0  0  2  0  0  0  0  0  0
  158.4240  213.5600  155.1820 O   0  0  0  0  0  1  0  0  0  0  0  0
  155.3810  212.8300  156.5480 N   0  0  0  0  0  0  0  0  0  0  0  0
  157.4970  212.6520  154.6600 C   0  0  1  0  0  0  0  0  0  0  0  0
  156.2020  213.4210  154.3570 C   0  0  0  0  0  2  0  0  0  0  0  0
  158.2520  211.4540  156.6590 O   0  0  0  0  0  1  0  0  0  0  0  0
  157.2640  211.4900  155.6720 C   0  0  1  0  0  3  0  0  0  0  0  0
  155.8710  211.4850  156.3230 C   0  0  0  0  0  2  0  0  0  0  0  0
  155.5010  213.7400  155.6460 C   0  0  0  0  0  3  0  0  0  0  0  0
  1  2  1  0  0  0  0
  2  5  1  0  0  0  0
  3  1  1  6  0  0  0
  3  4  1  0  0  0  0
  4  5  1  0  0  0  0
  5 19  1  1  0  0  0
  6 11  1  1  0  0  0
  6  7  1  0  0  0  0
  6 17  1  0  0  0  0
  7 12  1  0  0  0  0
  8 14  1  0  0  0  0
  8 16  1  0  0  0  0
  9 17  1  0  0  0  0
  9 15  1  1  0  0  0
  9  3  1  0  0  0  0
 12 10  1  0  0  0  0
 12 14  2  0  0  0  0
 13  8  2  0  0  0  0
 17 15  1  0  0  0  0
 17 10  1  1  0  0  0
 18  7  2  0  0  0  0
 18 13  1  0  0  0  0
 19 20  1  0  0  0  0
 20 25  1  0  0  0  0
 20 21  1  0  0  0  0
 22 21  1  0  0  0  0
 23 24  1  0  0  0  0
 24 22  1  0  0  0  0
 25 26  1  0  0  0  0
 27 28  1  0  0  0  0
 27 26  1  0  0  0  0
 28 31  1  0  0  0  0
 31 29  1  1  0  0  0
 31 34  1  0  0  0  0
 32 31  1  0  0  0  0
 32 36  1  0  0  0  0
 34 35  1  0  0  0  0
 34 33  1  1  0  0  0
 35 30  1  0  0  0  0
 36 30  2  0  0  0  0
M  END
>  <MODEL>
8

>  <REMARK>
 VINA RESULT:      -6.0      3.216      5.735
  Name = 
  11 active torsions:
  status: ('A' for Active; 'I' for Inactive)
    1  A    between atoms: C_3  and  C_17
    2  A    between atoms: C_3  and  C_19
    3  A    between atoms: C_4  and  C_5
    4  A    between atoms: C_4  and  N_23
    5  A    between atoms: C_5  and  C_31
    6  A    between atoms: N_9  and  C_12
    7  A    between atoms: C_15  and  C_19
    8  A    between atoms: C_15  and  C_20
    9  A    between atoms: C_20  and  N_23
   10  A    between atoms: N_23  and  C_28
   11  A    between atoms: C_25  and  C_28
                            x       y       z     vdW  Elec       q    Type
                         _______ _______ _______ _____ _____    ______ ____

>  <TORSDO>
F 11

$$$$
=
 OpenBabel11072413313D

 36 40  0  0  1  0  0  0  0  0999 V2000
  160.5220  205.7800  149.3110 N   0  0  0  0  0  2  0  0  0  0  0  0
  160.7650  206.2680  150.6040 N   0  0  0  0  0  2  0  0  0  0  0  0
  161.5510  206.3470  148.4550 C   0  0  2  0  0  3  0  0  0  0  0  0
  161.8160  208.0650  148.9560 S   0  0  0  0  0  0  0  0  0  0  0  0
  160.9130  207.7080  150.4860 C   0  0  2  0  0  3  0  0  0  0  0  0
  160.6110  204.6420  145.2150 C   0  0  2  0  0  3  0  0  0  0  0  0
  160.6310  203.1630  145.3730 C   0  0  0  0  0  0  0  0  0  0  0  0
  160.8600  200.4450  145.9410 C   0  0  0  0  0  0  0  0  0  0  0  0
  161.1130  206.2990  147.0640 N   0  0  1  0  0  0  0  0  0  0  0  0
  161.9920  203.8550  147.2230 C   0  0  0  0  0  2  0  0  0  0  0  0
  161.2770  204.9920  144.0380 O   0  0  0  0  0  1  0  0  0  0  0  0
  161.3850  202.7370  146.4590 C   0  0  0  0  0  0  0  0  0  0  0  0
  160.0970  200.8740  144.8430 C   0  0  0  0  0  3  0  0  0  0  0  0
  161.5110  201.3800  146.7600 C   0  0  0  0  0  3  0  0  0  0  0  0
  162.2590  206.1060  146.2940 O   0  0  0  0  0  0  0  0  0  0  0  0
  160.9710  199.0900  146.2200 O   0  0  0  0  0  1  0  0  0  0  0  0
  161.4380  205.0380  146.4310 C   0  0  1  0  0  0  0  0  0  0  0  0
  159.9770  202.2410  144.5530 C   0  0  0  0  0  3  0  0  0  0  0  0
  161.6800  208.2400  151.6840 C   0  0  0  0  0  2  0  0  0  0  0  0
  160.7560  208.8280  152.6470 N   0  0  0  0  0  0  0  0  0  0  0  0
  161.2510  208.6120  154.0140 C   0  0  0  0  0  2  0  0  0  0  0  0
  160.9470  207.2200  154.5810 C   0  0  0  0  0  2  0  0  0  0  0  0
  159.8840  208.6480  156.1750 O   0  0  0  0  0  1  0  0  0  0  0  0
  160.0720  207.3120  155.8200 C   0  0  0  0  0  2  0  0  0  0  0  0
  160.6490  210.2540  152.3680 C   0  0  0  0  0  2  0  0  0  0  0  0
  161.7730  210.6740  151.4430 C   0  0  0  0  0  2  0  0  0  0  0  0
  161.2740  211.7440  150.4970 C   0  0  0  0  0  2  0  0  0  0  0  0
  161.9980  211.6150  149.1640 C   0  0  0  0  0  2  0  0  0  0  0  0
  161.5660  213.9300  148.9320 O   0  0  0  0  0  1  0  0  0  0  0  0
  161.2100  213.6810  145.5460 N   0  0  0  0  0  0  0  0  0  0  0  0
  161.6630  212.7470  148.1910 C   0  0  1  0  0  0  0  0  0  0  0  0
  162.8100  212.9160  147.1820 C   0  0  0  0  0  2  0  0  0  0  0  0
  159.2630  213.2090  148.0230 O   0  0  0  0  0  1  0  0  0  0  0  0
  160.3050  212.4480  147.4880 C   0  0  1  0  0  3  0  0  0  0  0  0
  160.3350  212.6020  145.9580 C   0  0  0  0  0  2  0  0  0  0  0  0
  162.3700  213.8370  146.0810 C   0  0  0  0  0  3  0  0  0  0  0  0
  1  2  1  0  0  0  0
  3  4  1  1  0  0  0
  3  1  1  0  0  0  0
  4  5  1  0  0  0  0
  5  2  1  0  0  0  0
  5 19  1  1  0  0  0
  6 11  1  6  0  0  0
  6  7  1  0  0  0  0
  6 17  1  0  0  0  0
  7 12  1  0  0  0  0
  8 16  1  0  0  0  0
  8 14  1  0  0  0  0
  9 15  1  6  0  0  0
  9  3  1  0  0  0  0
 12 14  2  0  0  0  0
 12 10  1  0  0  0  0
 13  8  2  0  0  0  0
 15 17  1  0  0  0  0
 17  9  1  0  0  0  0
 17 10  1  1  0  0  0
 18 13  1  0  0  0  0
 18  7  2  0  0  0  0
 19 20  1  0  0  0  0
 20 21  1  0  0  0  0
 21 22  1  0  0  0  0
 22 24  1  0  0  0  0
 24 23  1  0  0  0  0
 25 20  1  0  0  0  0
 26 25  1  0  0  0  0
 27 26  1  0  0  0  0
 28 27  1  0  0  0  0
 30 35  1  0  0  0  0
 30 36  2  0  0  0  0
 31 29  1  1  0  0  0
 31 28  1  0  0  0  0
 32 31  1  0  0  0  0
 34 33  1  1  0  0  0
 34 31  1  0  0  0  0
 35 34  1  0  0  0  0
 36 32  1  0  0  0  0
M  END
>  <MODEL>
9

>  <REMARK>
 VINA RESULT:      -6.0      2.320      3.661
  Name = 
  11 active torsions:
  status: ('A' for Active; 'I' for Inactive)
    1  A    between atoms: C_3  and  C_17
    2  A    between atoms: C_3  and  C_19
    3  A    between atoms: C_4  and  C_5
    4  A    between atoms: C_4  and  N_23
    5  A    between atoms: C_5  and  C_31
    6  A    between atoms: N_9  and  C_12
    7  A    between atoms: C_15  and  C_19
    8  A    between atoms: C_15  and  C_20
    9  A    between atoms: C_20  and  N_23
   10  A    between atoms: N_23  and  C_28
   11  A    between atoms: C_25  and  C_28
                            x       y       z     vdW  Elec       q    Type
                         _______ _______ _______ _____ _____    ______ ____

>  <TORSDO>
F 11

$$$$
