=
 OpenBabel11072410433D

 50 56  0  0  1  0  0  0  0  0999 V2000
  161.2850  208.7030  152.7900 C   0  0  0  0  0  0  0  0  0  0  0  0
  161.0840  210.0310  152.8020 C   0  0  0  0  0  3  0  0  0  0  0  0
  160.6860  212.8540  149.9800 C   0  0  1  0  0  3  0  0  0  0  0  0
  159.8840  212.3170  151.5240 S   0  0  0  0  0  0  0  0  0  0  0  0
  161.8430  211.8920  149.6320 C   0  0  1  0  0  3  0  0  0  0  0  0
  161.0080  210.9310  151.6390 C   0  0  0  0  0  0  0  0  0  0  0  0
  161.9320  210.8680  150.7010 C   0  0  0  0  0  3  0  0  0  0  0  0
  161.4250  212.2530  147.1850 C   0  0  0  0  0  2  0  0  0  0  0  0
  159.6360  212.9690  148.8720 C   0  0  0  0  0  2  0  0  0  0  0  0
  160.2990  213.2470  147.5220 C   0  0  2  0  0  3  0  0  0  0  0  0
  161.6670  211.2080  148.2750 C   0  0  0  0  0  2  0  0  0  0  0  0
  159.2410  213.2350  146.4320 C   0  0  0  0  0  2  0  0  0  0  0  0
  159.8510  213.4990  145.0660 C   0  0  0  0  0  2  0  0  0  0  0  0
  159.8030  212.2980  144.2470 N   0  0  0  0  0  2  0  0  0  0  0  0
  160.6680  212.5080  143.0980 C   0  0  0  0  0  2  0  0  0  0  0  0
  160.3700  211.4820  142.0120 C   0  0  2  0  0  3  0  0  0  0  0  0
  161.5040  211.3690  141.0090 C   0  0  1  0  0  0  0  0  0  0  0  0
  160.2750  212.1640  140.6480 C   0  0  0  0  0  2  0  0  0  0  0  0
  162.6300  212.1760  141.1920 O   0  0  0  0  0  1  0  0  0  0  0  0
  161.6600  210.0680  140.2300 C   0  0  0  0  0  2  0  0  0  0  0  0
  160.7130  209.9660  139.0310 C   0  0  1  0  0  3  0  0  0  0  0  0
  161.3970  210.4040  137.7460 C   0  0  0  0  0  1  0  0  0  0  0  0
  161.3410  207.8450  138.9290 C   0  0  0  0  0  1  0  0  0  0  0  0
  160.2140  208.6660  138.8980 O   0  0  0  0  0  0  0  0  0  0  0  0
  160.2750  206.7220  154.0990 C   0  0  0  0  0  2  0  0  0  0  0  0
  161.1680  207.9570  154.0940 C   0  0  0  0  0  0  0  0  0  0  0  0
  161.7810  206.5680  154.0180 C   0  0  0  0  0  2  0  0  0  0  0  0
  161.5680  210.4710  155.2550 S   0  0  0  0  0  0  0  0  0  0  0  0
  160.3480  208.6560  156.4050 C   0  0  0  0  0  2  0  0  0  0  0  0
  160.1960  210.1640  156.4080 C   0  0  2  0  0  3  0  0  0  0  0  0
  161.5110  208.6530  155.4270 C   0  0  1  0  0  3  0  0  0  0  0  0
  158.1640  211.5810  156.6100 C   0  0  0  0  0  1  0  0  0  0  0  0
  158.8740  210.5440  155.7620 C   0  0  0  0  0  2  0  0  0  0  0  0
  162.8210  207.8480  151.1900 O   0  0  0  0  0  0  0  0  0  0  0  0
  161.6220  207.9460  151.5650 C   0  0  0  0  0  0  0  0  0  0  0  0
  160.5280  207.3110  150.7610 C   0  0  0  0  0  2  0  0  0  0  0  0
  161.3650  207.7390  148.4450 C   0  0  0  0  0  3  0  0  0  0  0  0
  161.0230  206.8170  149.4390 C   0  0  0  0  0  0  0  0  0  0  0  0
  161.8830  205.9280  146.9180 C   0  0  0  0  0  0  0  0  0  0  0  0
  161.5360  205.0020  147.9150 C   0  0  0  0  0  3  0  0  0  0  0  0
  161.7960  207.2950  147.1920 C   0  0  0  0  0  3  0  0  0  0  0  0
  161.1040  205.4400  149.1790 C   0  0  0  0  0  0  0  0  0  0  0  0
  162.3140  205.5160  145.6530 O   0  0  0  0  0  0  0  0  0  0  0  0
  161.4480  204.8880  144.7170 C   0  0  0  0  0  1  0  0  0  0  0  0
  160.7480  204.5320  150.1800 O   0  0  0  0  0  0  0  0  0  0  0  0
  160.3130  202.2100  150.1870 C   0  0  1  0  0  3  0  0  0  0  0  0
  160.8000  202.6070  151.4440 O   0  0  0  0  0  0  0  0  0  0  0  0
  161.3510  203.2540  150.3210 C   0  0  2  0  0  3  0  0  0  0  0  0
  161.4040  200.7690  148.6850 O   0  0  0  0  0  0  0  0  0  0  0  0
  160.9450  200.9170  149.8050 C   0  0  0  0  0  3  0  0  0  0  0  0
  1  2  2  0  0  0  0
  1 26  1  0  0  0  0
  3  9  1  6  0  0  0
  3  4  1  0  0  0  0
  4  6  1  0  0  0  0
  5 11  1  6  0  0  0
  5  3  1  0  0  0  0
  5  7  1  0  0  0  0
  6  2  1  0  0  0  0
  7  6  2  0  0  0  0
  8 10  1  0  0  0  0
  8 11  1  0  0  0  0
 10 12  1  6  0  0  0
 10  9  1  0  0  0  0
 13 12  1  0  0  0  0
 14 13  1  0  0  0  0
 15 14  1  0  0  0  0
 16 15  1  1  0  0  0
 17 19  1  1  0  0  0
 17 16  1  0  0  0  0
 18 17  1  0  0  0  0
 18 16  1  0  0  0  0
 20 17  1  0  0  0  0
 21 22  1  6  0  0  0
 21 20  1  0  0  0  0
 24 23  1  0  0  0  0
 24 21  1  0  0  0  0
 26 25  1  0  0  0  0
 27 26  1  0  0  0  0
 27 25  1  0  0  0  0
 28 31  1  0  0  0  0
 28 30  1  0  0  0  0
 29 30  1  0  0  0  0
 30 33  1  6  0  0  0
 31 26  1  6  0  0  0
 31 29  1  0  0  0  0
 33 32  1  0  0  0  0
 34 35  2  0  0  0  0
 35  1  1  0  0  0  0
 36 35  1  0  0  0  0
 37 38  1  0  0  0  0
 38 36  1  0  0  0  0
 39 41  1  0  0  0  0
 39 40  2  0  0  0  0
 40 42  1  0  0  0  0
 41 37  2  0  0  0  0
 42 38  2  0  0  0  0
 42 45  1  0  0  0  0
 43 39  1  0  0  0  0
 44 43  1  0  0  0  0
 46 50  1  6  0  0  0
 46 48  1  0  0  0  0
 46 47  1  0  0  0  0
 48 45  1  1  0  0  0
 48 47  1  0  0  0  0
 49 50  2  0  0  0  0
M  END
>  <MODEL>
1

>  <REMARK>
 VINA RESULT:      -6.5      0.000      0.000
  Name = 
  19 active torsions:
  status: ('A' for Active; 'I' for Inactive)
    1  A    between atoms: C_1  and  C_22
    2  A    between atoms: C_1  and  C_30
    3  A    between atoms: C_5  and  C_9
    4  A    between atoms: C_9  and  N_20
    5  A    between atoms: O_12  and  C_35
    6  A    between atoms: O_12  and  C_45
    7  A    between atoms: C_14  and  C_48
    8  A    between atoms: C_15  and  C_40
    9  A    between atoms: C_16  and  C_31
   10  A    between atoms: C_17  and  C_31
   11  A    between atoms: C_17  and  O_46
   12  A    between atoms: C_18  and  C_29
   13  A    between atoms: C_18  and  C_36
   14  A    between atoms: N_20  and  C_29
   15  A    between atoms: C_21  and  C_49
   16  A    between atoms: C_22  and  C_39
   17  A    between atoms: C_26  and  C_43
   18  A    between atoms: C_30  and  C_48
   19  A    between atoms: C_34  and  O_38
                            x       y       z     vdW  Elec       q    Type
                         _______ _______ _______ _____ _____    ______ ____

>  <TORSDO>
F 19

$$$$
=
 OpenBabel11072410433D

 50 56  0  0  1  0  0  0  0  0999 V2000
  161.2910  208.4410  152.8420 C   0  0  0  0  0  0  0  0  0  0  0  0
  161.0780  209.7670  152.8780 C   0  0  0  0  0  3  0  0  0  0  0  0
  160.8280  212.6740  150.1250 C   0  0  1  0  0  3  0  0  0  0  0  0
  160.0300  212.1690  151.6820 S   0  0  0  0  0  0  0  0  0  0  0  0
  161.8940  211.6310  149.7240 C   0  0  1  0  0  3  0  0  0  0  0  0
  161.0420  210.6950  151.7360 C   0  0  0  0  0  0  0  0  0  0  0  0
  161.9320  210.5800  150.7690 C   0  0  0  0  0  3  0  0  0  0  0  0
  161.4370  212.0770  147.2980 C   0  0  0  0  0  2  0  0  0  0  0  0
  159.7600  212.8970  149.0520 C   0  0  0  0  0  2  0  0  0  0  0  0
  160.4050  213.1510  147.6890 C   0  0  2  0  0  3  0  0  0  0  0  0
  161.6260  210.9930  148.3590 C   0  0  0  0  0  2  0  0  0  0  0  0
  159.3190  213.2460  146.6310 C   0  0  0  0  0  2  0  0  0  0  0  0
  159.5480  214.4310  145.7070 C   0  0  0  0  0  2  0  0  0  0  0  0
  159.5160  214.0060  144.3170 N   0  0  0  0  0  2  0  0  0  0  0  0
  160.8240  213.4640  143.9880 C   0  0  0  0  0  2  0  0  0  0  0  0
  161.0790  213.5630  142.4890 C   0  0  2  0  0  3  0  0  0  0  0  0
  160.7990  212.2520  141.7770 C   0  0  1  0  0  0  0  0  0  0  0  0
  162.2250  212.6370  142.0840 C   0  0  0  0  0  2  0  0  0  0  0  0
  160.3620  211.1660  142.5400 O   0  0  0  0  0  1  0  0  0  0  0  0
  160.4460  212.2890  140.2940 C   0  0  0  0  0  2  0  0  0  0  0  0
  159.9360  210.9480  139.7610 C   0  0  1  0  0  3  0  0  0  0  0  0
  158.8510  211.1460  138.7140 C   0  0  0  0  0  1  0  0  0  0  0  0
  161.5220  210.9720  138.2150 C   0  0  0  0  0  1  0  0  0  0  0  0
  160.9850  210.1870  139.2370 O   0  0  0  0  0  0  0  0  0  0  0  0
  160.1900  206.4610  154.0760 C   0  0  0  0  0  2  0  0  0  0  0  0
  161.1270  207.6620  154.1210 C   0  0  0  0  0  0  0  0  0  0  0  0
  161.6910  206.2540  154.0110 C   0  0  0  0  0  2  0  0  0  0  0  0
  161.6940  210.1140  155.3430 S   0  0  0  0  0  0  0  0  0  0  0  0
  160.2790  208.3930  156.4110 C   0  0  0  0  0  2  0  0  0  0  0  0
  160.2560  209.9070  156.4370 C   0  0  2  0  0  3  0  0  0  0  0  0
  161.4760  208.3050  155.4780 C   0  0  1  0  0  3  0  0  0  0  0  0
  158.4150  211.5750  156.5240 C   0  0  0  0  0  1  0  0  0  0  0  0
  158.9980  210.4100  155.7490 C   0  0  0  0  0  2  0  0  0  0  0  0
  162.9000  207.5320  151.3460 O   0  0  0  0  0  0  0  0  0  0  0  0
  161.6820  207.7180  151.6120 C   0  0  0  0  0  0  0  0  0  0  0  0
  160.6240  207.2210  150.6740 C   0  0  0  0  0  2  0  0  0  0  0  0
  160.7650  204.8780  151.5330 C   0  0  0  0  0  3  0  0  0  0  0  0
  160.7330  205.7490  150.4390 C   0  0  0  0  0  0  0  0  0  0  0  0
  161.0130  202.9830  150.0410 C   0  0  0  0  0  0  0  0  0  0  0  0
  160.9850  203.8570  148.9420 C   0  0  0  0  0  3  0  0  0  0  0  0
  160.9020  203.5020  151.3340 C   0  0  0  0  0  3  0  0  0  0  0  0
  160.8450  205.2430  149.1350 C   0  0  0  0  0  0  0  0  0  0  0  0
  161.1530  201.6010  149.8750 O   0  0  0  0  0  0  0  0  0  0  0  0
  161.1930  200.9850  148.5950 C   0  0  0  0  0  1  0  0  0  0  0  0
  160.8220  206.1280  148.0530 O   0  0  0  0  0  0  0  0  0  0  0  0
  161.6790  205.8830  145.8650 C   0  0  1  0  0  3  0  0  0  0  0  0
  160.6440  206.8320  145.8670 O   0  0  0  0  0  0  0  0  0  0  0  0
  160.4910  205.7310  146.7300 C   0  0  2  0  0  3  0  0  0  0  0  0
  161.4970  205.5140  143.5520 O   0  0  0  0  0  0  0  0  0  0  0  0
  161.5430  205.0150  144.6640 C   0  0  0  0  0  3  0  0  0  0  0  0
  1  2  2  0  0  0  0
  1 26  1  0  0  0  0
  3  9  1  6  0  0  0
  3  4  1  0  0  0  0
  4  6  1  0  0  0  0
  5 11  1  6  0  0  0
  5  3  1  0  0  0  0
  5  7  1  0  0  0  0
  6  2  1  0  0  0  0
  7  6  2  0  0  0  0
  8 10  1  0  0  0  0
  8 11  1  0  0  0  0
 10 12  1  6  0  0  0
 10  9  1  0  0  0  0
 13 12  1  0  0  0  0
 14 13  1  0  0  0  0
 15 14  1  0  0  0  0
 16 15  1  1  0  0  0
 17 18  1  0  0  0  0
 17 16  1  0  0  0  0
 17 19  1  1  0  0  0
 18 16  1  0  0  0  0
 20 17  1  0  0  0  0
 21 22  1  6  0  0  0
 21 20  1  0  0  0  0
 23 24  1  0  0  0  0
 24 21  1  0  0  0  0
 25 26  1  0  0  0  0
 27 25  1  0  0  0  0
 27 26  1  0  0  0  0
 28 31  1  0  0  0  0
 28 30  1  0  0  0  0
 29 30  1  0  0  0  0
 30 33  1  6  0  0  0
 31 26  1  6  0  0  0
 31 29  1  0  0  0  0
 33 32  1  0  0  0  0
 34 35  2  0  0  0  0
 35  1  1  0  0  0  0
 36 35  1  0  0  0  0
 38 36  1  0  0  0  0
 38 37  2  0  0  0  0
 39 41  2  0  0  0  0
 40 42  2  0  0  0  0
 40 39  1  0  0  0  0
 41 37  1  0  0  0  0
 42 38  1  0  0  0  0
 43 39  1  0  0  0  0
 44 43  1  0  0  0  0
 45 42  1  0  0  0  0
 46 50  1  6  0  0  0
 46 47  1  0  0  0  0
 46 48  1  0  0  0  0
 47 48  1  0  0  0  0
 48 45  1  1  0  0  0
 49 50  2  0  0  0  0
M  END
>  <MODEL>
2

>  <REMARK>
 VINA RESULT:      -6.4      1.214      2.830
  Name = 
  19 active torsions:
  status: ('A' for Active; 'I' for Inactive)
    1  A    between atoms: C_1  and  C_22
    2  A    between atoms: C_1  and  C_30
    3  A    between atoms: C_5  and  C_9
    4  A    between atoms: C_9  and  N_20
    5  A    between atoms: O_12  and  C_35
    6  A    between atoms: O_12  and  C_45
    7  A    between atoms: C_14  and  C_48
    8  A    between atoms: C_15  and  C_40
    9  A    between atoms: C_16  and  C_31
   10  A    between atoms: C_17  and  C_31
   11  A    between atoms: C_17  and  O_46
   12  A    between atoms: C_18  and  C_29
   13  A    between atoms: C_18  and  C_36
   14  A    between atoms: N_20  and  C_29
   15  A    between atoms: C_21  and  C_49
   16  A    between atoms: C_22  and  C_39
   17  A    between atoms: C_26  and  C_43
   18  A    between atoms: C_30  and  C_48
   19  A    between atoms: C_34  and  O_38
                            x       y       z     vdW  Elec       q    Type
                         _______ _______ _______ _____ _____    ______ ____

>  <TORSDO>
F 19

$$$$
=
 OpenBabel11072410433D

 50 56  0  0  1  0  0  0  0  0999 V2000
  161.2410  205.3110  152.1850 C   0  0  0  0  0  0  0  0  0  0  0  0
  160.9350  205.4000  153.4900 C   0  0  0  0  0  3  0  0  0  0  0  0
  160.4670  208.4210  156.0880 C   0  0  1  0  0  3  0  0  0  0  0  0
  159.6710  206.8470  155.6370 S   0  0  0  0  0  0  0  0  0  0  0  0
  161.6580  208.6920  155.1430 C   0  0  1  0  0  3  0  0  0  0  0  0
  160.8380  206.6250  154.3010 C   0  0  0  0  0  0  0  0  0  0  0  0
  161.7720  207.5520  154.2020 C   0  0  0  0  0  3  0  0  0  0  0  0
  161.2480  211.1610  155.3130 C   0  0  0  0  0  2  0  0  0  0  0  0
  159.4220  209.5400  156.0880 C   0  0  0  0  0  2  0  0  0  0  0  0
  160.0870  210.9020  156.2910 C   0  0  2  0  0  3  0  0  0  0  0  0
  161.5160  209.9970  154.3580 C   0  0  0  0  0  2  0  0  0  0  0  0
  159.0390  211.9950  156.1640 C   0  0  0  0  0  2  0  0  0  0  0  0
  157.8950  211.5630  155.2620 C   0  0  0  0  0  2  0  0  0  0  0  0
  157.5420  212.6310  154.3410 N   0  0  0  0  0  2  0  0  0  0  0  0
  158.7200  213.4600  154.1510 C   0  0  0  0  0  2  0  0  0  0  0  0
  158.4970  214.4510  153.0140 C   0  0  2  0  0  3  0  0  0  0  0  0
  158.4140  213.7600  151.6650 C   0  0  1  0  0  0  0  0  0  0  0  0
  159.6940  214.4500  152.0660 C   0  0  0  0  0  2  0  0  0  0  0  0
  158.5440  212.3690  151.6260 O   0  0  0  0  0  1  0  0  0  0  0  0
  157.6570  214.4520  150.5380 C   0  0  0  0  0  2  0  0  0  0  0  0
  156.2840  213.8320  150.2630 C   0  0  1  0  0  3  0  0  0  0  0  0
  155.2140  214.4390  151.1570 C   0  0  0  0  0  1  0  0  0  0  0  0
  156.9650  213.3590  148.2100 C   0  0  0  0  0  1  0  0  0  0  0  0
  155.9320  213.9740  148.9170 O   0  0  0  0  0  0  0  0  0  0  0  0
  162.2510  202.9710  151.7890 C   0  0  0  0  0  2  0  0  0  0  0  0
  161.1260  203.9630  151.5210 C   0  0  0  0  0  0  0  0  0  0  0  0
  160.9340  202.8420  152.5300 C   0  0  0  0  0  2  0  0  0  0  0  0
  161.1790  203.7560  148.7320 S   0  0  0  0  0  0  0  0  0  0  0  0
  159.7170  202.3470  150.1410 C   0  0  0  0  0  2  0  0  0  0  0  0
  160.4430  202.0950  148.8350 C   0  0  2  0  0  3  0  0  0  0  0  0
  160.2210  203.7740  150.2870 C   0  0  1  0  0  3  0  0  0  0  0  0
  161.6660  200.1880  147.8120 C   0  0  0  0  0  1  0  0  0  0  0  0
  161.5300  201.0540  149.0490 C   0  0  0  0  0  2  0  0  0  0  0  0
  162.9150  206.6410  151.1450 O   0  0  0  0  0  0  0  0  0  0  0  0
  161.6880  206.4670  151.3780 C   0  0  0  0  0  0  0  0  0  0  0  0
  160.6780  207.4410  150.8530 C   0  0  0  0  0  2  0  0  0  0  0  0
  161.6130  209.7590  150.8270 C   0  0  0  0  0  3  0  0  0  0  0  0
  161.3240  208.5800  150.1320 C   0  0  0  0  0  0  0  0  0  0  0  0
  162.4690  210.7690  148.7950 C   0  0  0  0  0  0  0  0  0  0  0  0
  162.1760  209.5870  148.0960 C   0  0  0  0  0  3  0  0  0  0  0  0
  162.1850  210.8470  150.1610 C   0  0  0  0  0  3  0  0  0  0  0  0
  161.6020  208.4880  148.7590 C   0  0  0  0  0  0  0  0  0  0  0  0
  163.0370  211.8760  148.1570 O   0  0  0  0  0  0  0  0  0  0  0  0
  162.2640  212.8220  147.4330 C   0  0  0  0  0  1  0  0  0  0  0  0
  161.2980  207.3060  148.0770 O   0  0  0  0  0  0  0  0  0  0  0  0
  161.2040  205.7330  146.3170 C   0  0  1  0  0  3  0  0  0  0  0  0
  162.5350  206.1290  146.5310 O   0  0  0  0  0  0  0  0  0  0  0  0
  161.5490  207.1210  146.6910 C   0  0  2  0  0  3  0  0  0  0  0  0
  160.5510  204.6140  144.3570 O   0  0  0  0  0  0  0  0  0  0  0  0
  160.9480  205.6550  144.8530 C   0  0  0  0  0  3  0  0  0  0  0  0
  1  2  2  0  0  0  0
  2  6  1  0  0  0  0
  3  9  1  6  0  0  0
  4  3  1  0  0  0  0
  5  7  1  6  0  0  0
  5  3  1  0  0  0  0
  6  4  1  0  0  0  0
  7  6  2  0  0  0  0
  8 10  1  0  0  0  0
  9 10  1  0  0  0  0
 10 12  1  6  0  0  0
 11  5  1  0  0  0  0
 11  8  1  0  0  0  0
 13 12  1  0  0  0  0
 14 13  1  0  0  0  0
 15 14  1  0  0  0  0
 16 15  1  1  0  0  0
 17 19  1  6  0  0  0
 17 18  1  0  0  0  0
 17 16  1  0  0  0  0
 18 16  1  0  0  0  0
 20 17  1  0  0  0  0
 21 20  1  0  0  0  0
 21 22  1  1  0  0  0
 23 24  1  0  0  0  0
 24 21  1  0  0  0  0
 25 27  1  0  0  0  0
 26 25  1  0  0  0  0
 26  1  1  0  0  0  0
 26 27  1  0  0  0  0
 28 30  1  0  0  0  0
 28 31  1  0  0  0  0
 30 33  1  1  0  0  0
 30 29  1  0  0  0  0
 31 29  1  1  0  0  0
 31 26  1  0  0  0  0
 32 33  1  0  0  0  0
 34 35  2  0  0  0  0
 35  1  1  0  0  0  0
 36 35  1  0  0  0  0
 38 37  2  0  0  0  0
 38 36  1  0  0  0  0
 39 41  2  0  0  0  0
 40 42  2  0  0  0  0
 40 39  1  0  0  0  0
 41 37  1  0  0  0  0
 42 38  1  0  0  0  0
 43 39  1  0  0  0  0
 44 43  1  0  0  0  0
 45 42  1  0  0  0  0
 46 50  1  6  0  0  0
 46 47  1  0  0  0  0
 46 48  1  0  0  0  0
 47 48  1  0  0  0  0
 48 45  1  1  0  0  0
 49 50  2  0  0  0  0
M  END
>  <MODEL>
3

>  <REMARK>
 VINA RESULT:      -6.3      3.913      8.289
  Name = 
  19 active torsions:
  status: ('A' for Active; 'I' for Inactive)
    1  A    between atoms: C_1  and  C_22
    2  A    between atoms: C_1  and  C_30
    3  A    between atoms: C_5  and  C_9
    4  A    between atoms: C_9  and  N_20
    5  A    between atoms: O_12  and  C_35
    6  A    between atoms: O_12  and  C_45
    7  A    between atoms: C_14  and  C_48
    8  A    between atoms: C_15  and  C_40
    9  A    between atoms: C_16  and  C_31
   10  A    between atoms: C_17  and  C_31
   11  A    between atoms: C_17  and  O_46
   12  A    between atoms: C_18  and  C_29
   13  A    between atoms: C_18  and  C_36
   14  A    between atoms: N_20  and  C_29
   15  A    between atoms: C_21  and  C_49
   16  A    between atoms: C_22  and  C_39
   17  A    between atoms: C_26  and  C_43
   18  A    between atoms: C_30  and  C_48
   19  A    between atoms: C_34  and  O_38
                            x       y       z     vdW  Elec       q    Type
                         _______ _______ _______ _____ _____    ______ ____

>  <TORSDO>
F 19

$$$$
=
 OpenBabel11072410433D

 50 56  0  0  1  0  0  0  0  0999 V2000
  161.1470  209.3480  153.2120 C   0  0  0  0  0  0  0  0  0  0  0  0
  161.0860  210.6240  152.7970 C   0  0  0  0  0  3  0  0  0  0  0  0
  161.5210  211.4670  148.8990 C   0  0  1  0  0  3  0  0  0  0  0  0
  162.2780  210.4200  150.1830 S   0  0  0  0  0  0  0  0  0  0  0  0
  160.4010  212.3280  149.5230 C   0  0  1  0  0  3  0  0  0  0  0  0
  161.1840  211.1170  151.4130 C   0  0  0  0  0  0  0  0  0  0  0  0
  160.2960  211.9820  150.9610 C   0  0  0  0  0  3  0  0  0  0  0  0
  160.9020  214.1770  147.9040 C   0  0  0  0  0  2  0  0  0  0  0  0
  162.6090  212.2920  148.2070 C   0  0  0  0  0  2  0  0  0  0  0  0
  161.9900  213.3090  147.2470 C   0  0  2  0  0  3  0  0  0  0  0  0
  160.6440  213.8310  149.3700 C   0  0  0  0  0  2  0  0  0  0  0  0
  163.0880  214.1880  146.6710 C   0  0  0  0  0  2  0  0  0  0  0  0
  162.8690  214.4490  145.1910 C   0  0  0  0  0  2  0  0  0  0  0  0
  162.5800  213.2070  144.4920 N   0  0  0  0  0  2  0  0  0  0  0  0
  161.7000  213.5170  143.3790 C   0  0  0  0  0  2  0  0  0  0  0  0
  161.0600  212.2460  142.8350 C   0  0  2  0  0  3  0  0  0  0  0  0
  161.0100  212.2370  141.3180 C   0  0  1  0  0  0  0  0  0  0  0  0
  159.7640  212.5770  142.0970 C   0  0  0  0  0  2  0  0  0  0  0  0
  161.5320  213.3380  140.6340 O   0  0  0  0  0  1  0  0  0  0  0  0
  160.9520  210.8940  140.5990 C   0  0  0  0  0  2  0  0  0  0  0  0
  161.0910  211.0160  139.0800 C   0  0  1  0  0  3  0  0  0  0  0  0
  162.5420  210.8770  138.6440 C   0  0  0  0  0  1  0  0  0  0  0  0
  160.6770  208.8430  138.9730 C   0  0  0  0  0  1  0  0  0  0  0  0
  160.2950  210.0690  138.4280 O   0  0  0  0  0  0  0  0  0  0  0  0
  161.6850  207.9550  155.3160 C   0  0  0  0  0  2  0  0  0  0  0  0
  160.8630  209.0600  154.6640 C   0  0  0  0  0  0  0  0  0  0  0  0
  162.0420  209.4090  155.5590 C   0  0  0  0  0  2  0  0  0  0  0  0
  159.7630  210.2680  156.9350 S   0  0  0  0  0  0  0  0  0  0  0  0
  158.9420  210.7360  154.6520 C   0  0  0  0  0  2  0  0  0  0  0  0
  159.0590  211.5870  155.9000 C   0  0  2  0  0  3  0  0  0  0  0  0
  159.5260  209.4910  155.2990 C   0  0  1  0  0  3  0  0  0  0  0  0
  159.6920  213.9300  156.4390 C   0  0  0  0  0  1  0  0  0  0  0  0
  160.0890  212.6820  155.6750 C   0  0  0  0  0  2  0  0  0  0  0  0
  162.6770  207.8180  152.2270 O   0  0  0  0  0  0  0  0  0  0  0  0
  161.4860  208.2210  152.3160 C   0  0  0  0  0  0  0  0  0  0  0  0
  160.4090  207.5720  151.5000 C   0  0  0  0  0  2  0  0  0  0  0  0
  160.6940  205.2570  152.4000 C   0  0  0  0  0  3  0  0  0  0  0  0
  160.6680  206.1140  151.2950 C   0  0  0  0  0  0  0  0  0  0  0  0
  161.2250  203.3820  150.9570 C   0  0  0  0  0  0  0  0  0  0  0  0
  161.2020  204.2430  149.8470 C   0  0  0  0  0  3  0  0  0  0  0  0
  160.9690  203.8970  152.2300 C   0  0  0  0  0  3  0  0  0  0  0  0
  160.9250  205.6110  150.0100 C   0  0  0  0  0  0  0  0  0  0  0  0
  161.5010  202.0180  150.8210 O   0  0  0  0  0  0  0  0  0  0  0  0
  160.6020  201.1150  150.1920 C   0  0  0  0  0  1  0  0  0  0  0  0
  160.9040  206.4820  148.9170 O   0  0  0  0  0  0  0  0  0  0  0  0
  162.1330  206.3480  146.9030 C   0  0  1  0  0  3  0  0  0  0  0  0
  160.9930  207.1480  146.7130 O   0  0  0  0  0  0  0  0  0  0  0  0
  160.8500  206.0390  147.5680 C   0  0  2  0  0  3  0  0  0  0  0  0
  161.5020  205.4950  144.8070 O   0  0  0  0  0  0  0  0  0  0  0  0
  162.3120  205.4650  145.7190 C   0  0  0  0  0  3  0  0  0  0  0  0
  1 26  1  0  0  0  0
  2  1  2  0  0  0  0
  3  9  1  1  0  0  0
  3  5  1  0  0  0  0
  3  4  1  0  0  0  0
  4  6  1  0  0  0  0
  5 11  1  1  0  0  0
  5  7  1  0  0  0  0
  6  2  1  0  0  0  0
  7  6  2  0  0  0  0
  8 11  1  0  0  0  0
 10 12  1  1  0  0  0
 10  8  1  0  0  0  0
 10  9  1  0  0  0  0
 13 12  1  0  0  0  0
 14 13  1  0  0  0  0
 15 14  1  0  0  0  0
 16 15  1  6  0  0  0
 17 19  1  6  0  0  0
 17 18  1  0  0  0  0
 17 16  1  0  0  0  0
 18 16  1  0  0  0  0
 20 17  1  0  0  0  0
 21 22  1  1  0  0  0
 21 20  1  0  0  0  0
 24 23  1  0  0  0  0
 24 21  1  0  0  0  0
 25 27  1  0  0  0  0
 26 31  1  0  0  0  0
 26 25  1  0  0  0  0
 26 27  1  0  0  0  0
 29 30  1  0  0  0  0
 30 33  1  6  0  0  0
 30 28  1  0  0  0  0
 31 29  1  6  0  0  0
 31 28  1  0  0  0  0
 33 32  1  0  0  0  0
 34 35  2  0  0  0  0
 35  1  1  0  0  0  0
 36 35  1  0  0  0  0
 38 36  1  0  0  0  0
 38 37  2  0  0  0  0
 39 41  2  0  0  0  0
 40 42  2  0  0  0  0
 40 39  1  0  0  0  0
 41 37  1  0  0  0  0
 42 38  1  0  0  0  0
 43 39  1  0  0  0  0
 44 43  1  0  0  0  0
 45 42  1  0  0  0  0
 46 50  1  6  0  0  0
 46 48  1  0  0  0  0
 47 46  1  0  0  0  0
 47 48  1  0  0  0  0
 48 45  1  1  0  0  0
 49 50  2  0  0  0  0
M  END
>  <MODEL>
4

>  <REMARK>
 VINA RESULT:      -5.5      1.563      3.187
  Name = 
  19 active torsions:
  status: ('A' for Active; 'I' for Inactive)
    1  A    between atoms: C_1  and  C_22
    2  A    between atoms: C_1  and  C_30
    3  A    between atoms: C_5  and  C_9
    4  A    between atoms: C_9  and  N_20
    5  A    between atoms: O_12  and  C_35
    6  A    between atoms: O_12  and  C_45
    7  A    between atoms: C_14  and  C_48
    8  A    between atoms: C_15  and  C_40
    9  A    between atoms: C_16  and  C_31
   10  A    between atoms: C_17  and  C_31
   11  A    between atoms: C_17  and  O_46
   12  A    between atoms: C_18  and  C_29
   13  A    between atoms: C_18  and  C_36
   14  A    between atoms: N_20  and  C_29
   15  A    between atoms: C_21  and  C_49
   16  A    between atoms: C_22  and  C_39
   17  A    between atoms: C_26  and  C_43
   18  A    between atoms: C_30  and  C_48
   19  A    between atoms: C_34  and  O_38
                            x       y       z     vdW  Elec       q    Type
                         _______ _______ _______ _____ _____    ______ ____

>  <TORSDO>
F 19

$$$$
=
 OpenBabel11072410433D

 50 56  0  0  1  0  0  0  0  0999 V2000
  161.1360  210.8770  152.2130 C   0  0  0  0  0  0  0  0  0  0  0  0
  160.9460  212.0120  151.5200 C   0  0  0  0  0  3  0  0  0  0  0  0
  161.5760  212.0500  147.5580 C   0  0  1  0  0  3  0  0  0  0  0  0
  162.3660  211.4380  149.0800 S   0  0  0  0  0  0  0  0  0  0  0  0
  160.2970  212.8370  147.9160 C   0  0  1  0  0  3  0  0  0  0  0  0
  161.0860  212.2030  150.0670 C   0  0  0  0  0  0  0  0  0  0  0  0
  160.1240  212.7980  149.3880 C   0  0  0  0  0  3  0  0  0  0  0  0
  160.6590  214.3470  145.9460 C   0  0  0  0  0  2  0  0  0  0  0  0
  162.5880  212.8670  146.7500 C   0  0  0  0  0  2  0  0  0  0  0  0
  161.9110  213.5410  145.5560 C   0  0  2  0  0  3  0  0  0  0  0  0
  160.3340  214.2910  147.4390 C   0  0  0  0  0  2  0  0  0  0  0  0
  162.9160  214.4360  144.8510 C   0  0  0  0  0  2  0  0  0  0  0  0
  162.9910  214.1220  143.3660 C   0  0  0  0  0  2  0  0  0  0  0  0
  162.0840  213.0360  143.0300 N   0  0  0  0  0  2  0  0  0  0  0  0
  162.1970  212.7880  141.6030 C   0  0  0  0  0  2  0  0  0  0  0  0
  160.9180  212.1560  141.0680 C   0  0  2  0  0  3  0  0  0  0  0  0
  161.2010  211.1030  140.0130 C   0  0  1  0  0  0  0  0  0  0  0  0
  160.7470  212.4760  139.5850 C   0  0  0  0  0  2  0  0  0  0  0  0
  162.5320  210.8480  139.6730 O   0  0  0  0  0  1  0  0  0  0  0  0
  160.1690  210.0040  139.7860 C   0  0  0  0  0  2  0  0  0  0  0  0
  159.5030  210.0750  138.4090 C   0  0  1  0  0  3  0  0  0  0  0  0
  160.3460  209.3820  137.3500 C   0  0  0  0  0  1  0  0  0  0  0  0
  157.3780  210.5920  138.7620 C   0  0  0  0  0  1  0  0  0  0  0  0
  158.2190  209.5230  138.4460 O   0  0  0  0  0  0  0  0  0  0  0  0
  159.4640  211.5360  154.0640 C   0  0  0  0  0  2  0  0  0  0  0  0
  160.7810  210.8730  153.6770 C   0  0  0  0  0  0  0  0  0  0  0  0
  159.5530  210.0250  153.9680 C   0  0  0  0  0  2  0  0  0  0  0  0
  161.4190  211.4290  156.3440 S   0  0  0  0  0  0  0  0  0  0  0  0
  161.9090  209.2490  155.2870 C   0  0  0  0  0  2  0  0  0  0  0  0
  161.5210  209.6470  156.6970 C   0  0  2  0  0  3  0  0  0  0  0  0
  161.8740  210.6690  154.7460 C   0  0  1  0  0  3  0  0  0  0  0  0
  159.9060  207.8110  156.2550 C   0  0  0  0  0  1  0  0  0  0  0  0
  160.1410  209.0980  157.0200 C   0  0  0  0  0  2  0  0  0  0  0  0
  162.8990  209.3510  151.7470 O   0  0  0  0  0  0  0  0  0  0  0  0
  161.6800  209.6410  151.6090 C   0  0  0  0  0  0  0  0  0  0  0  0
  160.7790  208.7440  150.8160 C   0  0  0  0  0  2  0  0  0  0  0  0
  160.9100  206.9790  152.5800 C   0  0  0  0  0  3  0  0  0  0  0  0
  160.9200  207.3120  151.2220 C   0  0  0  0  0  0  0  0  0  0  0  0
  161.2580  204.6430  152.0280 C   0  0  0  0  0  0  0  0  0  0  0  0
  161.2710  204.9780  150.6640 C   0  0  0  0  0  3  0  0  0  0  0  0
  161.0760  205.6490  152.9800 C   0  0  0  0  0  3  0  0  0  0  0  0
  161.1040  206.3120  150.2550 C   0  0  0  0  0  0  0  0  0  0  0  0
  161.4250  203.3230  152.4600 O   0  0  0  0  0  0  0  0  0  0  0  0
  161.6060  202.2400  151.5590 C   0  0  0  0  0  1  0  0  0  0  0  0
  161.1210  206.6640  148.9020 O   0  0  0  0  0  0  0  0  0  0  0  0
  161.9410  205.5910  146.9630 C   0  0  1  0  0  3  0  0  0  0  0  0
  160.8680  206.4320  146.6240 O   0  0  0  0  0  0  0  0  0  0  0  0
  160.7780  205.7620  147.8590 C   0  0  2  0  0  3  0  0  0  0  0  0
  162.4060  204.1630  145.1560 O   0  0  0  0  0  0  0  0  0  0  0  0
  161.8140  204.3120  146.2120 C   0  0  0  0  0  3  0  0  0  0  0  0
  1 26  1  0  0  0  0
  2  1  2  0  0  0  0
  3  9  1  1  0  0  0
  3  5  1  0  0  0  0
  3  4  1  0  0  0  0
  4  6  1  0  0  0  0
  5 11  1  1  0  0  0
  5  7  1  0  0  0  0
  6  2  1  0  0  0  0
  7  6  2  0  0  0  0
  8 11  1  0  0  0  0
 10 12  1  1  0  0  0
 10  8  1  0  0  0  0
 10  9  1  0  0  0  0
 13 12  1  0  0  0  0
 14 13  1  0  0  0  0
 15 14  1  0  0  0  0
 16 15  1  6  0  0  0
 17 19  1  6  0  0  0
 17 16  1  0  0  0  0
 18 17  1  0  0  0  0
 18 16  1  0  0  0  0
 20 17  1  0  0  0  0
 21 22  1  6  0  0  0
 21 24  1  0  0  0  0
 21 20  1  0  0  0  0
 24 23  1  0  0  0  0
 26 27  1  0  0  0  0
 26 25  1  0  0  0  0
 27 25  1  0  0  0  0
 28 30  1  0  0  0  0
 29 30  1  0  0  0  0
 30 33  1  6  0  0  0
 31 26  1  6  0  0  0
 31 29  1  0  0  0  0
 31 28  1  0  0  0  0
 32 33  1  0  0  0  0
 35 34  2  0  0  0  0
 35  1  1  0  0  0  0
 36 38  1  0  0  0  0
 36 35  1  0  0  0  0
 37 41  1  0  0  0  0
 38 37  2  0  0  0  0
 39 43  1  0  0  0  0
 39 41  2  0  0  0  0
 40 39  1  0  0  0  0
 42 40  2  0  0  0  0
 42 38  1  0  0  0  0
 44 43  1  0  0  0  0
 45 42  1  0  0  0  0
 46 50  1  6  0  0  0
 46 48  1  0  0  0  0
 47 46  1  0  0  0  0
 47 48  1  0  0  0  0
 48 45  1  1  0  0  0
 49 50  2  0  0  0  0
M  END
>  <MODEL>
5

>  <REMARK>
 VINA RESULT:      -5.3      1.725      3.463
  Name = 
  19 active torsions:
  status: ('A' for Active; 'I' for Inactive)
    1  A    between atoms: C_1  and  C_22
    2  A    between atoms: C_1  and  C_30
    3  A    between atoms: C_5  and  C_9
    4  A    between atoms: C_9  and  N_20
    5  A    between atoms: O_12  and  C_35
    6  A    between atoms: O_12  and  C_45
    7  A    between atoms: C_14  and  C_48
    8  A    between atoms: C_15  and  C_40
    9  A    between atoms: C_16  and  C_31
   10  A    between atoms: C_17  and  C_31
   11  A    between atoms: C_17  and  O_46
   12  A    between atoms: C_18  and  C_29
   13  A    between atoms: C_18  and  C_36
   14  A    between atoms: N_20  and  C_29
   15  A    between atoms: C_21  and  C_49
   16  A    between atoms: C_22  and  C_39
   17  A    between atoms: C_26  and  C_43
   18  A    between atoms: C_30  and  C_48
   19  A    between atoms: C_34  and  O_38
                            x       y       z     vdW  Elec       q    Type
                         _______ _______ _______ _____ _____    ______ ____

>  <TORSDO>
F 19

$$$$
=
 OpenBabel11072410433D

 50 56  0  0  1  0  0  0  0  0999 V2000
  160.1050  210.2170  155.0190 C   0  0  0  0  0  0  0  0  0  0  0  0
  160.0510  208.8910  155.2300 C   0  0  0  0  0  3  0  0  0  0  0  0
  161.9060  206.3570  152.7350 C   0  0  1  0  0  3  0  0  0  0  0  0
  161.5540  208.1360  152.8920 S   0  0  0  0  0  0  0  0  0  0  0  0
  161.2410  205.5900  153.8990 C   0  0  1  0  0  3  0  0  0  0  0  0
  160.5940  207.8280  154.3680 C   0  0  0  0  0  0  0  0  0  0  0  0
  160.5640  206.5740  154.7770 C   0  0  0  0  0  3  0  0  0  0  0  0
  160.8840  203.6060  152.4060 C   0  0  0  0  0  2  0  0  0  0  0  0
  161.4660  205.8680  151.3530 C   0  0  0  0  0  2  0  0  0  0  0  0
  161.5850  204.3460  151.2520 C   0  0  2  0  0  3  0  0  0  0  0  0
  160.2340  204.5390  153.4280 C   0  0  0  0  0  2  0  0  0  0  0  0
  161.0270  203.8880  149.9160 C   0  0  0  0  0  2  0  0  0  0  0  0
  161.1850  202.3870  149.7350 C   0  0  0  0  0  2  0  0  0  0  0  0
  159.8840  201.7470  149.6300 N   0  0  0  0  0  2  0  0  0  0  0  0
  159.6790  201.3830  148.2380 C   0  0  0  0  0  2  0  0  0  0  0  0
  160.9100  201.7330  147.4100 C   0  0  2  0  0  3  0  0  0  0  0  0
  160.5730  201.9220  145.9420 C   0  0  1  0  0  0  0  0  0  0  0  0
  161.2000  200.6280  146.3960 C   0  0  0  0  0  2  0  0  0  0  0  0
  159.2430  201.7630  145.5430 O   0  0  0  0  0  1  0  0  0  0  0  0
  161.4870  202.7960  145.0910 C   0  0  0  0  0  2  0  0  0  0  0  0
  161.6560  204.2130  145.6460 C   0  0  1  0  0  3  0  0  0  0  0  0
  163.1000  204.4870  146.0350 C   0  0  0  0  0  1  0  0  0  0  0  0
  160.0050  205.6350  145.2470 C   0  0  0  0  0  1  0  0  0  0  0  0
  161.2110  205.1670  144.7250 O   0  0  0  0  0  0  0  0  0  0  0  0
  160.6110  211.4420  157.2320 C   0  0  0  0  0  2  0  0  0  0  0  0
  159.6220  211.1300  156.1160 C   0  0  0  0  0  0  0  0  0  0  0  0
  160.3680  212.4550  156.1300 C   0  0  0  0  0  2  0  0  0  0  0  0
  157.6980  213.0740  156.7050 S   0  0  0  0  0  0  0  0  0  0  0  0
  157.2970  211.2590  155.0780 C   0  0  0  0  0  2  0  0  0  0  0  0
  156.8340  212.7000  155.1490 C   0  0  2  0  0  3  0  0  0  0  0  0
  158.1120  211.3290  156.3590 C   0  0  1  0  0  3  0  0  0  0  0  0
  156.3580  214.0220  153.0990 C   0  0  0  0  0  1  0  0  0  0  0  0
  157.4500  213.4890  154.0060 C   0  0  0  0  0  2  0  0  0  0  0  0
  161.6830  211.4760  153.7630 O   0  0  0  0  0  0  0  0  0  0  0  0
  160.6090  210.8160  153.7640 C   0  0  0  0  0  0  0  0  0  0  0  0
  159.8270  210.6500  152.4960 C   0  0  0  0  0  2  0  0  0  0  0  0
  159.5540  212.8630  151.3670 C   0  0  0  0  0  3  0  0  0  0  0  0
  160.2330  211.6440  151.4560 C   0  0  0  0  0  0  0  0  0  0  0  0
  160.9170  213.5050  149.4680 C   0  0  0  0  0  0  0  0  0  0  0  0
  161.5980  212.2800  149.5540 C   0  0  0  0  0  3  0  0  0  0  0  0
  159.8970  213.7900  150.3790 C   0  0  0  0  0  3  0  0  0  0  0  0
  161.2590  211.3440  150.5470 C   0  0  0  0  0  0  0  0  0  0  0  0
  161.2340  214.4520  148.4880 O   0  0  0  0  0  0  0  0  0  0  0  0
  161.3470  214.1190  147.1110 C   0  0  0  0  0  1  0  0  0  0  0  0
  161.9220  210.1160  150.6430 O   0  0  0  0  0  0  0  0  0  0  0  0
  162.5950  208.7980  148.8010 C   0  0  1  0  0  3  0  0  0  0  0  0
  161.3510  209.3930  148.5310 O   0  0  0  0  0  0  0  0  0  0  0  0
  161.5780  208.9830  149.8590 C   0  0  2  0  0  3  0  0  0  0  0  0
  162.2160  207.1340  147.1860 O   0  0  0  0  0  0  0  0  0  0  0  0
  162.5740  207.3880  148.3240 C   0  0  0  0  0  3  0  0  0  0  0  0
  1  2  2  0  0  0  0
  1 26  1  0  0  0  0
  3  9  1  6  0  0  0
  3  4  1  0  0  0  0
  3  5  1  0  0  0  0
  4  6  1  0  0  0  0
  5 11  1  6  0  0  0
  5  7  1  0  0  0  0
  6  7  2  0  0  0  0
  6  2  1  0  0  0  0
  8 11  1  0  0  0  0
 10 12  1  6  0  0  0
 10  9  1  0  0  0  0
 10  8  1  0  0  0  0
 13 12  1  0  0  0  0
 14 13  1  0  0  0  0
 15 14  1  0  0  0  0
 16 15  1  1  0  0  0
 17 19  1  6  0  0  0
 17 18  1  0  0  0  0
 17 16  1  0  0  0  0
 18 16  1  0  0  0  0
 20 21  1  0  0  0  0
 20 17  1  0  0  0  0
 21 22  1  6  0  0  0
 24 23  1  0  0  0  0
 24 21  1  0  0  0  0
 26 27  1  0  0  0  0
 26 31  1  0  0  0  0
 26 25  1  0  0  0  0
 27 25  1  0  0  0  0
 29 30  1  0  0  0  0
 30 33  1  6  0  0  0
 30 28  1  0  0  0  0
 31 29  1  6  0  0  0
 31 28  1  0  0  0  0
 32 33  1  0  0  0  0
 34 35  2  0  0  0  0
 35  1  1  0  0  0  0
 36 35  1  0  0  0  0
 37 38  1  0  0  0  0
 38 36  1  0  0  0  0
 39 40  2  0  0  0  0
 39 41  1  0  0  0  0
 40 42  1  0  0  0  0
 41 37  2  0  0  0  0
 42 45  1  0  0  0  0
 42 38  2  0  0  0  0
 43 39  1  0  0  0  0
 44 43  1  0  0  0  0
 46 50  1  6  0  0  0
 46 48  1  0  0  0  0
 47 46  1  0  0  0  0
 47 48  1  0  0  0  0
 48 45  1  1  0  0  0
 49 50  2  0  0  0  0
M  END
>  <MODEL>
6

>  <REMARK>
 VINA RESULT:      -4.7      4.028      7.681
  Name = 
  19 active torsions:
  status: ('A' for Active; 'I' for Inactive)
    1  A    between atoms: C_1  and  C_22
    2  A    between atoms: C_1  and  C_30
    3  A    between atoms: C_5  and  C_9
    4  A    between atoms: C_9  and  N_20
    5  A    between atoms: O_12  and  C_35
    6  A    between atoms: O_12  and  C_45
    7  A    between atoms: C_14  and  C_48
    8  A    between atoms: C_15  and  C_40
    9  A    between atoms: C_16  and  C_31
   10  A    between atoms: C_17  and  C_31
   11  A    between atoms: C_17  and  O_46
   12  A    between atoms: C_18  and  C_29
   13  A    between atoms: C_18  and  C_36
   14  A    between atoms: N_20  and  C_29
   15  A    between atoms: C_21  and  C_49
   16  A    between atoms: C_22  and  C_39
   17  A    between atoms: C_26  and  C_43
   18  A    between atoms: C_30  and  C_48
   19  A    between atoms: C_34  and  O_38
                            x       y       z     vdW  Elec       q    Type
                         _______ _______ _______ _____ _____    ______ ____

>  <TORSDO>
F 19

$$$$
=
 OpenBabel11072410433D

 50 56  0  0  1  0  0  0  0  0999 V2000
  161.2240  212.6110  148.8940 C   0  0  0  0  0  0  0  0  0  0  0  0
  161.8500  211.4810  148.5230 C   0  0  0  0  0  3  0  0  0  0  0  0
  162.6660  207.9910  150.3250 C   0  0  1  0  0  3  0  0  0  0  0  0
  162.6840  208.7270  148.6600 S   0  0  0  0  0  0  0  0  0  0  0  0
  162.1230  209.0180  151.3420 C   0  0  1  0  0  3  0  0  0  0  0  0
  162.0040  210.2470  149.3110 C   0  0  0  0  0  0  0  0  0  0  0  0
  161.8290  210.2780  150.6180 C   0  0  0  0  0  3  0  0  0  0  0  0
  161.1130  207.1630  152.6960 C   0  0  0  0  0  2  0  0  0  0  0  0
  161.8730  206.6830  150.2970 C   0  0  0  0  0  2  0  0  0  0  0  0
  161.6890  206.1290  151.7110 C   0  0  2  0  0  3  0  0  0  0  0  0
  160.8660  208.5350  152.0690 C   0  0  0  0  0  2  0  0  0  0  0  0
  160.7970  204.9000  151.6560 C   0  0  0  0  0  2  0  0  0  0  0  0
  161.0230  204.1090  150.3790 C   0  0  0  0  0  2  0  0  0  0  0  0
  160.0810  203.0040  150.2920 N   0  0  0  0  0  2  0  0  0  0  0  0
  160.8470  201.7770  150.1600 C   0  0  0  0  0  2  0  0  0  0  0  0
  161.6610  201.7940  148.8720 C   0  0  2  0  0  3  0  0  0  0  0  0
  160.7770  201.7330  147.6390 C   0  0  1  0  0  0  0  0  0  0  0  0
  161.4770  200.4820  148.1100 C   0  0  0  0  0  2  0  0  0  0  0  0
  159.3930  201.6740  147.8200 O   0  0  0  0  0  1  0  0  0  0  0  0
  161.3160  202.2960  146.3280 C   0  0  0  0  0  2  0  0  0  0  0  0
  160.9250  203.7570  146.0920 C   0  0  1  0  0  3  0  0  0  0  0  0
  161.9020  204.7070  146.7660 C   0  0  0  0  0  1  0  0  0  0  0  0
  160.4590  205.3770  144.6560 C   0  0  0  0  0  1  0  0  0  0  0  0
  160.8380  204.0360  144.7250 O   0  0  0  0  0  0  0  0  0  0  0  0
  162.3250  214.3280  147.3150 C   0  0  0  0  0  2  0  0  0  0  0  0
  161.0520  213.6960  147.8640 C   0  0  0  0  0  0  0  0  0  0  0  0
  161.5850  213.2840  146.5010 C   0  0  0  0  0  2  0  0  0  0  0  0
  159.0810  214.4530  146.0270 S   0  0  0  0  0  0  0  0  0  0  0  0
  158.5410  213.6660  148.3070 C   0  0  0  0  0  2  0  0  0  0  0  0
  157.8350  213.5260  146.9730 C   0  0  2  0  0  3  0  0  0  0  0  0
  159.7130  214.4520  147.7410 C   0  0  1  0  0  3  0  0  0  0  0  0
  156.4200  211.6220  146.2310 C   0  0  0  0  0  1  0  0  0  0  0  0
  157.8340  212.0670  146.5480 C   0  0  0  0  0  2  0  0  0  0  0  0
  160.9600  213.9140  150.8650 O   0  0  0  0  0  0  0  0  0  0  0  0
  160.7060  212.8360  150.2610 C   0  0  0  0  0  0  0  0  0  0  0  0
  159.8930  211.7720  150.9320 C   0  0  0  0  0  2  0  0  0  0  0  0
  157.9390  213.2680  151.3730 C   0  0  0  0  0  3  0  0  0  0  0  0
  158.8750  212.3510  151.8620 C   0  0  0  0  0  0  0  0  0  0  0  0
  156.9960  213.5160  153.5930 C   0  0  0  0  0  0  0  0  0  0  0  0
  157.9370  212.5980  154.0850 C   0  0  0  0  0  3  0  0  0  0  0  0
  157.0030  213.8460  152.2350 C   0  0  0  0  0  3  0  0  0  0  0  0
  158.8810  212.0120  153.2240 C   0  0  0  0  0  0  0  0  0  0  0  0
  156.0490  214.1150  154.4300 O   0  0  0  0  0  0  0  0  0  0  0  0
  155.5320  213.4690  155.5850 C   0  0  0  0  0  1  0  0  0  0  0  0
  159.8290  211.1010  153.6980 O   0  0  0  0  0  0  0  0  0  0  0  0
  161.6560  210.3300  154.9840 C   0  0  1  0  0  3  0  0  0  0  0  0
  160.4510  210.0340  155.6440 O   0  0  0  0  0  0  0  0  0  0  0  0
  160.5020  211.2530  154.9400 C   0  0  2  0  0  3  0  0  0  0  0  0
  163.2450  210.0170  156.6860 O   0  0  0  0  0  0  0  0  0  0  0  0
  162.6500  210.8150  155.9800 C   0  0  0  0  0  3  0  0  0  0  0  0
  1 35  1  0  0  0  0
  2  1  2  0  0  0  0
  2  6  1  0  0  0  0
  3  9  1  6  0  0  0
  3  5  1  0  0  0  0
  4  6  1  0  0  0  0
  4  3  1  0  0  0  0
  5  7  1  6  0  0  0
  5 11  1  0  0  0  0
  6  7  2  0  0  0  0
  9 10  1  0  0  0  0
 10 12  1  6  0  0  0
 10  8  1  0  0  0  0
 11  8  1  0  0  0  0
 13 12  1  0  0  0  0
 14 13  1  0  0  0  0
 15 14  1  0  0  0  0
 16 15  1  1  0  0  0
 17 19  1  1  0  0  0
 17 18  1  0  0  0  0
 17 16  1  0  0  0  0
 18 16  1  0  0  0  0
 20 17  1  0  0  0  0
 21 20  1  0  0  0  0
 21 22  1  6  0  0  0
 23 24  1  0  0  0  0
 24 21  1  0  0  0  0
 25 26  1  0  0  0  0
 26  1  1  0  0  0  0
 27 25  1  0  0  0  0
 27 26  1  0  0  0  0
 28 30  1  0  0  0  0
 28 31  1  0  0  0  0
 30 33  1  6  0  0  0
 30 29  1  0  0  0  0
 31 26  1  6  0  0  0
 31 29  1  0  0  0  0
 32 33  1  0  0  0  0
 35 34  2  0  0  0  0
 35 36  1  0  0  0  0
 36 38  1  0  0  0  0
 37 38  2  0  0  0  0
 37 41  1  0  0  0  0
 38 42  1  0  0  0  0
 39 40  1  0  0  0  0
 39 43  1  0  0  0  0
 41 39  2  0  0  0  0
 42 45  1  0  0  0  0
 42 40  2  0  0  0  0
 43 44  1  0  0  0  0
 46 47  1  0  0  0  0
 46 50  1  1  0  0  0
 48 45  1  6  0  0  0
 48 46  1  0  0  0  0
 48 47  1  0  0  0  0
 50 49  2  0  0  0  0
M  END
>  <MODEL>
7

>  <REMARK>
 VINA RESULT:      -4.5      4.006      9.305
  Name = 
  19 active torsions:
  status: ('A' for Active; 'I' for Inactive)
    1  A    between atoms: C_1  and  C_22
    2  A    between atoms: C_1  and  C_30
    3  A    between atoms: C_5  and  C_9
    4  A    between atoms: C_9  and  N_20
    5  A    between atoms: O_12  and  C_35
    6  A    between atoms: O_12  and  C_45
    7  A    between atoms: C_14  and  C_48
    8  A    between atoms: C_15  and  C_40
    9  A    between atoms: C_16  and  C_31
   10  A    between atoms: C_17  and  C_31
   11  A    between atoms: C_17  and  O_46
   12  A    between atoms: C_18  and  C_29
   13  A    between atoms: C_18  and  C_36
   14  A    between atoms: N_20  and  C_29
   15  A    between atoms: C_21  and  C_49
   16  A    between atoms: C_22  and  C_39
   17  A    between atoms: C_26  and  C_43
   18  A    between atoms: C_30  and  C_48
   19  A    between atoms: C_34  and  O_38
                            x       y       z     vdW  Elec       q    Type
                         _______ _______ _______ _____ _____    ______ ____

>  <TORSDO>
F 19

$$$$
=
 OpenBabel11072410433D

 50 56  0  0  1  0  0  0  0  0999 V2000
  161.8750  207.5750  148.1430 C   0  0  0  0  0  0  0  0  0  0  0  0
  161.6240  208.7720  147.5870 C   0  0  0  0  0  3  0  0  0  0  0  0
  161.7300  212.1350  149.7730 C   0  0  1  0  0  3  0  0  0  0  0  0
  162.0370  210.3500  149.9610 S   0  0  0  0  0  0  0  0  0  0  0  0
  161.2280  212.4280  148.3420 C   0  0  1  0  0  3  0  0  0  0  0  0
  161.5110  210.0690  148.2760 C   0  0  0  0  0  0  0  0  0  0  0  0
  161.1980  211.1510  147.5900 C   0  0  0  0  0  3  0  0  0  0  0  0
  159.8210  214.3150  149.2090 C   0  0  0  0  0  2  0  0  0  0  0  0
  160.7670  212.6060  150.8650 C   0  0  0  0  0  2  0  0  0  0  0  0
  160.3500  214.0590  150.6310 C   0  0  2  0  0  3  0  0  0  0  0  0
  159.8410  213.0760  148.3140 C   0  0  0  0  0  2  0  0  0  0  0  0
  159.3050  214.4520  151.6620 C   0  0  0  0  0  2  0  0  0  0  0  0
  158.0380  213.6280  151.5070 C   0  0  0  0  0  2  0  0  0  0  0  0
  156.8630  214.4530  151.7380 N   0  0  0  0  0  2  0  0  0  0  0  0
  156.0510  213.7970  152.7490 C   0  0  0  0  0  2  0  0  0  0  0  0
  156.5820  214.1080  154.1430 C   0  0  2  0  0  3  0  0  0  0  0  0
  156.2830  212.9920  155.1280 C   0  0  1  0  0  0  0  0  0  0  0  0
  155.4270  214.2340  155.1350 C   0  0  0  0  0  2  0  0  0  0  0  0
  155.5940  211.8680  154.6640 O   0  0  0  0  0  1  0  0  0  0  0  0
  157.1790  212.8420  156.3520 C   0  0  0  0  0  2  0  0  0  0  0  0
  158.3750  211.9150  156.1160 C   0  0  1  0  0  3  0  0  0  0  0  0
  157.9220  210.5040  155.7780 C   0  0  0  0  0  1  0  0  0  0  0  0
  160.5010  212.1930  155.5630 C   0  0  0  0  0  1  0  0  0  0  0  0
  159.2020  212.4160  155.1060 O   0  0  0  0  0  0  0  0  0  0  0  0
  163.3180  205.5300  147.5190 C   0  0  0  0  0  2  0  0  0  0  0  0
  162.1040  206.4020  147.2250 C   0  0  0  0  0  0  0  0  0  0  0  0
  161.9360  205.0720  147.9410 C   0  0  0  0  0  2  0  0  0  0  0  0
  162.4430  205.3690  144.6470 S   0  0  0  0  0  0  0  0  0  0  0  0
  160.2360  205.4830  145.7520 C   0  0  0  0  0  2  0  0  0  0  0  0
  160.8520  204.4980  144.7800 C   0  0  2  0  0  3  0  0  0  0  0  0
  161.4670  206.3720  145.8200 C   0  0  1  0  0  3  0  0  0  0  0  0
  160.0850  202.1360  144.8920 C   0  0  0  0  0  1  0  0  0  0  0  0
  161.0460  203.1570  145.4690 C   0  0  0  0  0  2  0  0  0  0  0  0
  163.0200  207.4850  150.2240 O   0  0  0  0  0  0  0  0  0  0  0  0
  161.9300  207.3570  149.6040 C   0  0  0  0  0  0  0  0  0  0  0  0
  160.6870  206.9660  150.3440 C   0  0  0  0  0  2  0  0  0  0  0  0
  160.4670  208.2740  152.4620 C   0  0  0  0  0  3  0  0  0  0  0  0
  160.8550  207.0920  151.8240 C   0  0  0  0  0  0  0  0  0  0  0  0
  161.2260  207.3950  154.5910 C   0  0  0  0  0  0  0  0  0  0  0  0
  161.6190  206.2090  153.9500 C   0  0  0  0  0  3  0  0  0  0  0  0
  160.6490  208.4230  153.8400 C   0  0  0  0  0  3  0  0  0  0  0  0
  161.4370  206.0520  152.5650 C   0  0  0  0  0  0  0  0  0  0  0  0
  161.3990  207.5760  155.9670 O   0  0  0  0  0  0  0  0  0  0  0  0
  161.9200  208.7760  156.5210 C   0  0  0  0  0  1  0  0  0  0  0  0
  161.8290  204.8800  151.9100 O   0  0  0  0  0  0  0  0  0  0  0  0
  161.2100  203.1010  150.4840 C   0  0  1  0  0  3  0  0  0  0  0  0
  160.0940  203.9160  150.7400 O   0  0  0  0  0  0  0  0  0  0  0  0
  160.9980  203.7330  151.8030 C   0  0  2  0  0  3  0  0  0  0  0  0
  159.8780  201.2790  149.8330 O   0  0  0  0  0  0  0  0  0  0  0  0
  160.7920  201.6740  150.5360 C   0  0  0  0  0  3  0  0  0  0  0  0
  1 35  1  0  0  0  0
  2  1  2  0  0  0  0
  2  6  1  0  0  0  0
  3  4  1  0  0  0  0
  3  9  1  1  0  0  0
  5  7  1  6  0  0  0
  5  3  1  0  0  0  0
  6  4  1  0  0  0  0
  7  6  2  0  0  0  0
  8 10  1  0  0  0  0
 10  9  1  0  0  0  0
 10 12  1  1  0  0  0
 11  5  1  0  0  0  0
 11  8  1  0  0  0  0
 13 12  1  0  0  0  0
 13 14  1  0  0  0  0
 14 15  1  0  0  0  0
 16 15  1  6  0  0  0
 16 17  1  0  0  0  0
 16 18  1  0  0  0  0
 17 19  1  6  0  0  0
 17 18  1  0  0  0  0
 17 20  1  0  0  0  0
 21 22  1  6  0  0  0
 21 20  1  0  0  0  0
 24 23  1  0  0  0  0
 24 21  1  0  0  0  0
 25 27  1  0  0  0  0
 26 25  1  0  0  0  0
 26 27  1  0  0  0  0
 26  1  1  0  0  0  0
 28 30  1  0  0  0  0
 28 31  1  0  0  0  0
 30 33  1  1  0  0  0
 30 29  1  0  0  0  0
 31 29  1  1  0  0  0
 31 26  1  0  0  0  0
 32 33  1  0  0  0  0
 35 34  2  0  0  0  0
 35 36  1  0  0  0  0
 36 38  1  0  0  0  0
 37 41  1  0  0  0  0
 38 37  2  0  0  0  0
 38 42  1  0  0  0  0
 39 43  1  0  0  0  0
 40 39  1  0  0  0  0
 41 39  2  0  0  0  0
 42 40  2  0  0  0  0
 43 44  1  0  0  0  0
 45 42  1  0  0  0  0
 46 50  1  1  0  0  0
 46 47  1  0  0  0  0
 46 48  1  0  0  0  0
 47 48  1  0  0  0  0
 48 45  1  6  0  0  0
 49 50  2  0  0  0  0
M  END
>  <MODEL>
8

>  <REMARK>
 VINA RESULT:      -4.3      4.036      9.258
  Name = 
  19 active torsions:
  status: ('A' for Active; 'I' for Inactive)
    1  A    between atoms: C_1  and  C_22
    2  A    between atoms: C_1  and  C_30
    3  A    between atoms: C_5  and  C_9
    4  A    between atoms: C_9  and  N_20
    5  A    between atoms: O_12  and  C_35
    6  A    between atoms: O_12  and  C_45
    7  A    between atoms: C_14  and  C_48
    8  A    between atoms: C_15  and  C_40
    9  A    between atoms: C_16  and  C_31
   10  A    between atoms: C_17  and  C_31
   11  A    between atoms: C_17  and  O_46
   12  A    between atoms: C_18  and  C_29
   13  A    between atoms: C_18  and  C_36
   14  A    between atoms: N_20  and  C_29
   15  A    between atoms: C_21  and  C_49
   16  A    between atoms: C_22  and  C_39
   17  A    between atoms: C_26  and  C_43
   18  A    between atoms: C_30  and  C_48
   19  A    between atoms: C_34  and  O_38
                            x       y       z     vdW  Elec       q    Type
                         _______ _______ _______ _____ _____    ______ ____

>  <TORSDO>
F 19

$$$$
=
 OpenBabel11072410433D

 50 56  0  0  1  0  0  0  0  0999 V2000
  161.2130  209.2230  152.2620 C   0  0  0  0  0  0  0  0  0  0  0  0
  161.0310  207.9670  151.8210 C   0  0  0  0  0  3  0  0  0  0  0  0
  162.1280  206.9940  148.0870 C   0  0  1  0  0  3  0  0  0  0  0  0
  161.6900  208.4680  149.0620 S   0  0  0  0  0  0  0  0  0  0  0  0
  161.9820  205.7290  148.9610 C   0  0  1  0  0  3  0  0  0  0  0  0
  161.3350  207.4390  150.4810 C   0  0  0  0  0  0  0  0  0  0  0  0
  161.5650  206.1500  150.3200 C   0  0  0  0  0  3  0  0  0  0  0  0
  161.3120  204.3970  146.9450 C   0  0  0  0  0  2  0  0  0  0  0  0
  161.2810  206.9550  146.8120 C   0  0  0  0  0  2  0  0  0  0  0  0
  161.4970  205.6420  146.0580 C   0  0  2  0  0  3  0  0  0  0  0  0
  160.9740  204.7250  148.3990 C   0  0  0  0  0  2  0  0  0  0  0  0
  160.5540  205.5860  144.8680 C   0  0  0  0  0  2  0  0  0  0  0  0
  161.2980  205.2470  143.5880 C   0  0  0  0  0  2  0  0  0  0  0  0
  161.8390  206.4520  142.9790 N   0  0  0  0  0  2  0  0  0  0  0  0
  161.9610  206.2130  141.5510 C   0  0  0  0  0  2  0  0  0  0  0  0
  161.5400  207.4490  140.7660 C   0  0  2  0  0  3  0  0  0  0  0  0
  161.7840  207.2880  139.2770 C   0  0  1  0  0  0  0  0  0  0  0  0
  162.7540  208.0960  140.1030 C   0  0  0  0  0  2  0  0  0  0  0  0
  162.3370  206.0870  138.8240 O   0  0  0  0  0  1  0  0  0  0  0  0
  160.9470  208.1160  138.3080 C   0  0  0  0  0  2  0  0  0  0  0  0
  161.3000  209.6050  138.3240 C   0  0  1  0  0  3  0  0  0  0  0  0
  162.0950  209.9990  137.0890 C   0  0  0  0  0  1  0  0  0  0  0  0
  160.5760  211.6920  138.1670 C   0  0  0  0  0  1  0  0  0  0  0  0
  160.1480  210.3900  138.4320 O   0  0  0  0  0  0  0  0  0  0  0  0
  160.0420  208.5510  154.4600 C   0  0  0  0  0  2  0  0  0  0  0  0
  160.9780  209.5020  153.7240 C   0  0  0  0  0  0  0  0  0  0  0  0
  161.5440  208.4070  154.6150 C   0  0  0  0  0  2  0  0  0  0  0  0
  159.8270  212.0240  154.0970 S   0  0  0  0  0  0  0  0  0  0  0  0
  161.2100  210.9260  155.8260 C   0  0  0  0  0  2  0  0  0  0  0  0
  160.0090  211.8480  155.8980 C   0  0  2  0  0  3  0  0  0  0  0  0
  161.2540  210.9030  154.3060 C   0  0  1  0  0  3  0  0  0  0  0  0
  157.9120  212.0500  157.2180 C   0  0  0  0  0  1  0  0  0  0  0  0
  158.8210  211.0930  156.4720 C   0  0  0  0  0  2  0  0  0  0  0  0
  162.8390  210.4870  151.0740 O   0  0  0  0  0  0  0  0  0  0  0  0
  161.6250  210.3370  151.3810 C   0  0  0  0  0  0  0  0  0  0  0  0
  160.5960  211.2980  150.8680 C   0  0  0  0  0  2  0  0  0  0  0  0
  161.9910  211.5380  148.8080 C   0  0  0  0  0  3  0  0  0  0  0  0
  161.1160  212.1180  149.7320 C   0  0  0  0  0  0  0  0  0  0  0  0
  162.1730  213.6480  147.6270 C   0  0  0  0  0  0  0  0  0  0  0  0
  161.2970  214.2320  148.5560 C   0  0  0  0  0  3  0  0  0  0  0  0
  162.5140  212.2990  147.7600 C   0  0  0  0  0  3  0  0  0  0  0  0
  160.7660  213.4720  149.6130 C   0  0  0  0  0  0  0  0  0  0  0  0
  162.7170  214.3840  146.5690 O   0  0  0  0  0  0  0  0  0  0  0  0
  162.1830  214.3410  145.2530 C   0  0  0  0  0  1  0  0  0  0  0  0
  159.8980  214.0400  150.5500 O   0  0  0  0  0  0  0  0  0  0  0  0
  157.6230  213.5830  150.9950 C   0  0  1  0  0  3  0  0  0  0  0  0
  157.8970  213.3540  149.6360 O   0  0  0  0  0  0  0  0  0  0  0  0
  158.5680  214.4330  150.2420 C   0  0  2  0  0  3  0  0  0  0  0  0
  155.8110  214.4460  152.2170 O   0  0  0  0  0  0  0  0  0  0  0  0
  156.3110  214.2740  151.1180 C   0  0  0  0  0  3  0  0  0  0  0  0
  1 26  1  0  0  0  0
  2  1  2  0  0  0  0
  3  9  1  6  0  0  0
  3  5  1  0  0  0  0
  3  4  1  0  0  0  0
  4  6  1  0  0  0  0
  5 11  1  6  0  0  0
  5  7  1  0  0  0  0
  6  2  1  0  0  0  0
  7  6  2  0  0  0  0
  8 11  1  0  0  0  0
 10 12  1  6  0  0  0
 10  9  1  0  0  0  0
 10  8  1  0  0  0  0
 13 12  1  0  0  0  0
 14 13  1  0  0  0  0
 15 14  1  0  0  0  0
 16 15  1  1  0  0  0
 17 19  1  6  0  0  0
 17 18  1  0  0  0  0
 17 16  1  0  0  0  0
 18 16  1  0  0  0  0
 20 21  1  0  0  0  0
 20 17  1  0  0  0  0
 21 22  1  6  0  0  0
 21 24  1  0  0  0  0
 23 24  1  0  0  0  0
 25 27  1  0  0  0  0
 26 25  1  0  0  0  0
 26 27  1  0  0  0  0
 28 31  1  0  0  0  0
 28 30  1  0  0  0  0
 29 30  1  0  0  0  0
 30 33  1  6  0  0  0
 31 26  1  6  0  0  0
 31 29  1  0  0  0  0
 33 32  1  0  0  0  0
 34 35  2  0  0  0  0
 35  1  1  0  0  0  0
 36 35  1  0  0  0  0
 37 38  1  0  0  0  0
 38 36  1  0  0  0  0
 39 41  1  0  0  0  0
 39 40  2  0  0  0  0
 40 42  1  0  0  0  0
 41 37  2  0  0  0  0
 42 38  2  0  0  0  0
 42 45  1  0  0  0  0
 43 39  1  0  0  0  0
 44 43  1  0  0  0  0
 46 50  1  6  0  0  0
 47 48  1  0  0  0  0
 47 46  1  0  0  0  0
 48 45  1  1  0  0  0
 48 46  1  0  0  0  0
 50 49  2  0  0  0  0
M  END
>  <MODEL>
9

>  <REMARK>
 VINA RESULT:      -4.3      3.059      6.540
  Name = 
  19 active torsions:
  status: ('A' for Active; 'I' for Inactive)
    1  A    between atoms: C_1  and  C_22
    2  A    between atoms: C_1  and  C_30
    3  A    between atoms: C_5  and  C_9
    4  A    between atoms: C_9  and  N_20
    5  A    between atoms: O_12  and  C_35
    6  A    between atoms: O_12  and  C_45
    7  A    between atoms: C_14  and  C_48
    8  A    between atoms: C_15  and  C_40
    9  A    between atoms: C_16  and  C_31
   10  A    between atoms: C_17  and  C_31
   11  A    between atoms: C_17  and  O_46
   12  A    between atoms: C_18  and  C_29
   13  A    between atoms: C_18  and  C_36
   14  A    between atoms: N_20  and  C_29
   15  A    between atoms: C_21  and  C_49
   16  A    between atoms: C_22  and  C_39
   17  A    between atoms: C_26  and  C_43
   18  A    between atoms: C_30  and  C_48
   19  A    between atoms: C_34  and  O_38
                            x       y       z     vdW  Elec       q    Type
                         _______ _______ _______ _____ _____    ______ ____

>  <TORSDO>
F 19

$$$$
