=
 OpenBabel11072414423D

 60 65  0  0  1  0  0  0  0  0999 V2000
  164.0870  210.3020  153.7860 O   0  0  0  0  0  1  0  0  0  0  0  0
  158.2970  209.3730  157.2610 F   0  0  0  0  0  0  0  0  0  0  0  0
  161.8600  210.2700  154.6420 C   0  0  1  0  0  3  0  0  0  0  0  0
  161.9190  207.6350  148.0380 N   0  0  0  0  0  2  0  0  0  0  0  0
  161.0440  211.6890  146.9670 C   0  0  1  0  0  3  0  0  0  0  0  0
  161.3950  207.8580  146.6980 C   0  0  0  0  0  2  0  0  0  0  0  0
  161.3640  211.7580  151.6590 C   0  0  2  0  0  3  0  0  0  0  0  0
  161.7730  208.7370  154.4840 C   0  0  2  0  0  3  0  0  0  0  0  0
  157.6660  212.1140  154.7980 C   0  0  1  0  0  3  0  0  0  0  0  0
  159.8640  210.7800  156.1700 C   0  0  0  0  0  2  0  0  0  0  0  0
  160.3440  212.2810  152.6720 C   0  0  0  0  0  2  0  0  0  0  0  0
  162.8450  210.9240  153.6500 C   0  0  0  0  0  0  0  0  0  0  0  0
  160.6860  209.1980  146.6250 C   0  0  0  0  0  2  0  0  0  0  0  0
  160.2630  211.6670  148.2790 C   0  0  1  0  0  3  0  0  0  0  0  0
  157.3920  211.1380  155.9450 C   0  0  1  0  0  3  0  0  0  0  0  0
  160.6910  211.2150  150.5610 O   0  0  0  0  0  0  0  0  0  0  0  0
  158.1910  211.4220  153.5390 C   0  0  1  0  0  3  0  0  0  0  0  0
  160.8520  208.2600  153.3620 C   0  0  0  0  0  2  0  0  0  0  0  0
  162.3800  210.7360  152.1990 C   0  0  0  0  0  2  0  0  0  0  0  0
  161.2350  211.8390  149.4360 C   0  0  2  0  0  3  0  0  0  0  0  0
  163.0030  212.2810  153.9460 O   0  0  0  0  0  1  0  0  0  0  0  0
  159.8830  206.9640  148.9390 O   0  0  0  0  0  0  0  0  0  0  0  0
  158.5070  210.1050  156.1090 C   0  0  2  0  0  3  0  0  0  0  0  0
  161.7020  210.3280  146.7260 C   0  0  0  0  0  2  0  0  0  0  0  0
  156.4960  212.8160  154.4960 O   0  0  0  0  0  1  0  0  0  0  0  0
  160.5180  211.0120  154.8000 C   0  0  2  0  0  3  0  0  0  0  0  0
  160.3590  213.0010  148.9950 C   0  0  0  0  0  2  0  0  0  0  0  0
  161.2120  206.8410  152.9510 C   0  0  0  0  0  2  0  0  0  0  0  0
  162.9790  206.3050  150.4760 C   0  0  0  0  0  1  0  0  0  0  0  0
  161.1050  207.2230  149.1320 C   0  0  0  0  0  0  0  0  0  0  0  0
  159.7050  211.1750  153.4890 C   0  0  2  0  0  3  0  0  0  0  0  0
  157.4830  210.2550  153.2450 O   0  0  0  0  0  1  0  0  0  0  0  0
  161.7060  207.1410  150.5100 C   0  0  1  0  0  3  0  0  0  0  0  0
  157.2170  211.8590  157.1310 O   0  0  0  0  0  1  0  0  0  0  0  0
  160.7310  206.5670  151.5380 C   0  0  0  0  0  2  0  0  0  0  0  0
  160.1500  212.1430  145.7910 C   0  0  2  0  0  3  0  0  0  0  0  0
  160.3940  211.3830  144.5050 C   0  0  0  0  0  2  0  0  0  0  0  0
  160.2980  213.5980  145.3780 C   0  0  2  0  0  0  0  0  0  0  0  0
  159.8470  213.5940  143.9290 C   0  0  0  0  0  2  0  0  0  0  0  0
  160.0690  212.2530  143.3780 N   0  0  0  0  0  0  0  0  0  0  0  0
  161.3770  211.0740  141.8290 O   0  0  0  0  0  1  0  0  0  0  0  0
  161.2370  212.2960  142.4950 C   0  0  0  0  0  3  0  0  0  0  0  0
  161.0970  213.3140  141.5460 O   0  0  0  0  0  1  0  0  0  0  0  0
  161.7690  214.0570  145.4510 C   0  0  0  0  0  2  0  0  0  0  0  0
  162.5680  213.4790  146.5750 C   0  0  0  0  0  0  0  0  0  0  0  0
  163.2140  212.2570  146.4440 O   0  0  0  0  0  0  0  0  0  0  0  0
  162.7190  214.1430  147.6310 O   0  0  0  0  0  1  0  0  0  0  0  0
  159.4860  214.4530  146.1910 O   0  0  0  0  0  0  0  0  0  0  0  0
  158.4620  214.0530  147.0650 C   0  0  0  0  0  0  0  0  0  0  0  0
  157.3800  213.9860  149.2290 C   0  0  0  0  0  3  0  0  0  0  0  0
  156.3850  213.2210  148.7060 N   0  0  0  0  0  0  0  0  0  0  0  0
  156.3870  212.8590  147.3980 C   0  0  0  0  0  3  0  0  0  0  0  0
  158.4390  214.4150  148.4200 C   0  0  0  0  0  3  0  0  0  0  0  0
  157.4250  213.2680  146.5560 C   0  0  0  0  0  3  0  0  0  0  0  0
  162.1040  208.4290  156.8140 O   0  0  0  0  0  0  0  0  0  0  0  0
  161.5800  208.0090  155.7940 C   0  0  0  0  0  0  0  0  0  0  0  0
  161.1700  205.8020  154.7340 C   0  0  0  0  0  1  0  0  0  0  0  0
  160.7740  206.7420  155.8610 C   0  0  2  0  0  3  0  0  0  0  0  0
  158.5080  205.8610  156.3760 C   0  0  0  0  0  1  0  0  0  0  0  0
  159.2880  207.0370  155.8350 C   0  0  0  0  0  2  0  0  0  0  0  0
  3 12  1  6  0  0  0
  3 26  1  0  0  0  0
  4 30  1  0  0  0  0
  5 24  1  6  0  0  0
  5 14  1  0  0  0  0
  6  4  1  0  0  0  0
  7 19  1  1  0  0  0
  7 11  1  0  0  0  0
  8  3  1  0  0  0  0
  8 56  1  1  0  0  0
  9 25  1  6  0  0  0
  9 15  1  0  0  0  0
 12  1  1  0  0  0  0
 12 21  1  0  0  0  0
 13  6  1  0  0  0  0
 13 24  1  0  0  0  0
 14 27  1  6  0  0  0
 14 20  1  0  0  0  0
 15 23  1  0  0  0  0
 15 34  1  1  0  0  0
 16  7  1  0  0  0  0
 17 32  1  1  0  0  0
 17  9  1  0  0  0  0
 18  8  1  0  0  0  0
 19 12  1  0  0  0  0
 20 27  1  1  0  0  0
 20 16  1  0  0  0  0
 22 30  2  0  0  0  0
 23 10  1  0  0  0  0
 23  2  1  1  0  0  0
 26 10  1  1  0  0  0
 28 18  1  0  0  0  0
 30 33  1  0  0  0  0
 31 11  1  1  0  0  0
 31 17  1  0  0  0  0
 31 26  1  0  0  0  0
 33 29  1  6  0  0  0
 33 35  1  0  0  0  0
 35 28  1  0  0  0  0
 36 37  1  6  0  0  0
 36  5  1  0  0  0  0
 38 44  1  1  0  0  0
 38 36  1  0  0  0  0
 38 48  1  0  0  0  0
 39 38  1  0  0  0  0
 40 39  1  0  0  0  0
 40 37  1  0  0  0  0
 41 42  1  0  0  0  0
 42 40  1  0  0  0  0
 43 42  1  0  0  0  0
 44 45  1  0  0  0  0
 45 47  1  0  0  0  0
 46 45  2  0  0  0  0
 48 49  1  0  0  0  0
 49 53  1  0  0  0  0
 51 50  1  0  0  0  0
 52 51  2  0  0  0  0
 53 50  2  0  0  0  0
 54 49  2  0  0  0  0
 54 52  1  0  0  0  0
 56 58  1  0  0  0  0
 56 55  2  0  0  0  0
 58 57  1  6  0  0  0
 60 58  1  0  0  0  0
 60 59  1  0  0  0  0
M  END
>  <MODEL>
1

>  <REMARK>
 VINA RESULT:      19.1      0.000      0.000
  Name = 
  9 active torsions:
  status: ('A' for Active; 'I' for Inactive)
    1  A    between atoms: C_1  and  C_7
    2  A    between atoms: C_10  and  C_35
    3  A    between atoms: C_11  and  C_33
    4  A    between atoms: C_11  and  O_46
    5  A    between atoms: C_16  and  C_33
    6  A    between atoms: C_28  and  O_46
    7  A    between atoms: C_34  and  C_52
    8  A    between atoms: C_35  and  C_52
    9  A    between atoms: C_47  and  N_56
                            x       y       z     vdW  Elec       q    Type
                         _______ _______ _______ _____ _____    ______ ____

>  <TORSDO>
F 9

$$$$
=
 OpenBabel11072414423D

 60 65  0  0  1  0  0  0  0  0999 V2000
  164.1100  209.7320  153.8060 O   0  0  0  0  0  1  0  0  0  0  0  0
  158.3460  212.9320  155.5410 F   0  0  0  0  0  0  0  0  0  0  0  0
  161.9640  210.7690  153.9310 C   0  0  1  0  0  3  0  0  0  0  0  0
  161.2230  203.9660  151.9990 N   0  0  0  0  0  2  0  0  0  0  0  0
  161.3660  205.6110  148.0460 C   0  0  1  0  0  3  0  0  0  0  0  0
  160.7430  203.1160  150.9190 C   0  0  0  0  0  2  0  0  0  0  0  0
  161.7930  209.3380  150.8850 C   0  0  2  0  0  3  0  0  0  0  0  0
  161.4940  209.7680  155.0080 C   0  0  2  0  0  3  0  0  0  0  0  0
  158.3680  212.6650  151.8130 C   0  0  1  0  0  3  0  0  0  0  0  0
  160.1920  212.6170  154.0850 C   0  0  0  0  0  2  0  0  0  0  0  0
  160.9580  210.6190  150.9010 C   0  0  0  0  0  2  0  0  0  0  0  0
  163.0600  210.1930  153.0100 C   0  0  0  0  0  0  0  0  0  0  0  0
  160.3900  203.9530  149.7040 C   0  0  0  0  0  2  0  0  0  0  0  0
  160.6330  206.7750  148.7100 C   0  0  1  0  0  3  0  0  0  0  0  0
  157.8840  213.0590  153.2090 C   0  0  1  0  0  3  0  0  0  0  0  0
  160.9830  208.2610  150.5170 O   0  0  0  0  0  0  0  0  0  0  0  0
  158.6780  211.1720  151.6870 C   0  0  1  0  0  3  0  0  0  0  0  0
  160.4590  208.7510  154.5290 C   0  0  0  0  0  2  0  0  0  0  0  0
  162.5320  209.0060  152.1930 C   0  0  0  0  0  2  0  0  0  0  0  0
  161.6410  207.6340  149.4560 C   0  0  2  0  0  3  0  0  0  0  0  0
  163.5590  211.1900  152.1660 O   0  0  0  0  0  1  0  0  0  0  0  0
  159.1030  204.6360  152.6820 O   0  0  0  0  0  0  0  0  0  0  0  0
  158.7080  212.4030  154.3180 C   0  0  2  0  0  3  0  0  0  0  0  0
  161.6580  204.5200  149.0790 C   0  0  0  0  0  2  0  0  0  0  0  0
  157.4050  213.0270  150.8670 O   0  0  0  0  0  1  0  0  0  0  0  0
  160.8540  211.5500  153.2010 C   0  0  2  0  0  3  0  0  0  0  0  0
  161.0740  208.1040  148.1250 C   0  0  0  0  0  2  0  0  0  0  0  0
  160.4440  207.5400  155.4470 C   0  0  0  0  0  2  0  0  0  0  0  0
  161.9680  204.9600  154.6990 C   0  0  0  0  0  1  0  0  0  0  0  0
  160.3550  204.7350  152.8260 C   0  0  0  0  0  0  0  0  0  0  0  0
  160.0800  210.7350  152.1310 C   0  0  2  0  0  3  0  0  0  0  0  0
  157.6940  210.3790  152.2820 O   0  0  0  0  0  1  0  0  0  0  0  0
  160.9450  205.6860  153.8340 C   0  0  1  0  0  3  0  0  0  0  0  0
  157.9200  214.4510  153.3340 O   0  0  0  0  0  1  0  0  0  0  0  0
  159.8800  206.3350  154.7170 C   0  0  0  0  0  2  0  0  0  0  0  0
  160.5900  205.0870  146.8180 C   0  0  2  0  0  3  0  0  0  0  0  0
  159.9240  203.7450  147.0390 C   0  0  0  0  0  2  0  0  0  0  0  0
  161.4170  204.8720  145.5620 C   0  0  2  0  0  0  0  0  0  0  0  0
  160.6200  203.8330  144.7950 C   0  0  0  0  0  2  0  0  0  0  0  0
  159.8310  203.0530  145.7560 N   0  0  0  0  0  0  0  0  0  0  0  0
  160.4370  201.0520  144.6930 O   0  0  0  0  0  1  0  0  0  0  0  0
  160.4540  201.7360  145.9130 C   0  0  0  0  0  3  0  0  0  0  0  0
  161.7800  201.8670  146.3380 O   0  0  0  0  0  1  0  0  0  0  0  0
  162.8100  204.2990  145.8960 C   0  0  0  0  0  2  0  0  0  0  0  0
  163.7340  205.2330  146.6090 C   0  0  0  0  0  0  0  0  0  0  0  0
  164.9470  204.7910  147.1240 O   0  0  0  0  0  1  0  0  0  0  0  0
  163.4460  206.4530  146.6810 O   0  0  0  0  0  0  0  0  0  0  0  0
  161.5630  206.0900  144.8220 O   0  0  0  0  0  0  0  0  0  0  0  0
  161.8690  206.2080  143.4560 C   0  0  0  0  0  0  0  0  0  0  0  0
  163.2500  206.9580  141.6160 C   0  0  0  0  0  3  0  0  0  0  0  0
  162.3940  206.3730  140.7370 N   0  0  0  0  0  0  0  0  0  0  0  0
  161.2890  205.7090  141.1630 C   0  0  0  0  0  3  0  0  0  0  0  0
  163.0050  206.8890  142.9930 C   0  0  0  0  0  3  0  0  0  0  0  0
  161.0090  205.6160  142.5290 C   0  0  0  0  0  3  0  0  0  0  0  0
  159.9860  210.5560  156.6630 O   0  0  0  0  0  0  0  0  0  0  0  0
  161.1520  210.4230  156.3260 C   0  0  0  0  0  0  0  0  0  0  0  0
  162.2000  212.4730  157.2540 C   0  0  0  0  0  1  0  0  0  0  0  0
  162.2330  210.9540  157.2270 C   0  0  2  0  0  3  0  0  0  0  0  0
  164.3610  211.5180  156.0750 C   0  0  0  0  0  1  0  0  0  0  0  0
  163.5950  210.4410  156.8070 C   0  0  0  0  0  2  0  0  0  0  0  0
  3 12  1  6  0  0  0
  3  8  1  0  0  0  0
  4 30  1  0  0  0  0
  5 14  1  0  0  0  0
  5 24  1  1  0  0  0
  6  4  1  0  0  0  0
  7 11  1  1  0  0  0
  7 19  1  0  0  0  0
  8 56  1  1  0  0  0
  9 25  1  6  0  0  0
  9 15  1  0  0  0  0
 10 23  1  0  0  0  0
 12  1  1  0  0  0  0
 13  6  1  0  0  0  0
 14 27  1  6  0  0  0
 14 20  1  0  0  0  0
 15 34  1  6  0  0  0
 15 23  1  0  0  0  0
 16  7  1  0  0  0  0
 17  9  1  0  0  0  0
 17 31  1  0  0  0  0
 17 32  1  1  0  0  0
 18  8  1  0  0  0  0
 18 28  1  0  0  0  0
 19 12  1  0  0  0  0
 20 27  1  6  0  0  0
 20 16  1  0  0  0  0
 21 12  1  0  0  0  0
 22 30  2  0  0  0  0
 23  2  1  1  0  0  0
 24 13  1  0  0  0  0
 26  3  1  0  0  0  0
 26 10  1  1  0  0  0
 30 33  1  0  0  0  0
 31 11  1  6  0  0  0
 31 26  1  0  0  0  0
 33 29  1  1  0  0  0
 33 35  1  0  0  0  0
 35 28  1  0  0  0  0
 36 37  1  1  0  0  0
 36  5  1  0  0  0  0
 38 44  1  1  0  0  0
 38 36  1  0  0  0  0
 39 38  1  0  0  0  0
 39 40  1  0  0  0  0
 40 42  1  0  0  0  0
 40 37  1  0  0  0  0
 41 42  1  0  0  0  0
 42 43  1  0  0  0  0
 44 45  1  0  0  0  0
 45 47  2  0  0  0  0
 45 46  1  0  0  0  0
 48 38  1  0  0  0  0
 49 48  1  0  0  0  0
 50 53  2  0  0  0  0
 51 52  2  0  0  0  0
 51 50  1  0  0  0  0
 52 54  1  0  0  0  0
 53 49  1  0  0  0  0
 54 49  2  0  0  0  0
 56 55  2  0  0  0  0
 56 58  1  0  0  0  0
 58 57  1  6  0  0  0
 59 60  1  0  0  0  0
 60 58  1  0  0  0  0
M  END
>  <MODEL>
2

>  <REMARK>
 VINA RESULT:      20.5      3.851      6.427
  Name = 
  9 active torsions:
  status: ('A' for Active; 'I' for Inactive)
    1  A    between atoms: C_1  and  C_7
    2  A    between atoms: C_10  and  C_35
    3  A    between atoms: C_11  and  C_33
    4  A    between atoms: C_11  and  O_46
    5  A    between atoms: C_16  and  C_33
    6  A    between atoms: C_28  and  O_46
    7  A    between atoms: C_34  and  C_52
    8  A    between atoms: C_35  and  C_52
    9  A    between atoms: C_47  and  N_56
                            x       y       z     vdW  Elec       q    Type
                         _______ _______ _______ _____ _____    ______ ____

>  <TORSDO>
F 9

$$$$
=
 OpenBabel11072414423D

 60 65  0  0  1  0  0  0  0  0999 V2000
  163.5360  210.6890  154.7250 O   0  0  0  0  0  1  0  0  0  0  0  0
  157.2460  213.3030  154.4570 F   0  0  0  0  0  0  0  0  0  0  0  0
  161.3410  211.4310  154.1560 C   0  0  1  0  0  3  0  0  0  0  0  0
  161.7550  204.3740  153.3850 N   0  0  0  0  0  2  0  0  0  0  0  0
  162.7350  205.3920  149.3410 C   0  0  1  0  0  3  0  0  0  0  0  0
  161.6450  203.3100  152.3970 C   0  0  0  0  0  2  0  0  0  0  0  0
  162.0790  209.5360  151.4690 C   0  0  2  0  0  3  0  0  0  0  0  0
  160.7100  210.5530  155.2590 C   0  0  2  0  0  3  0  0  0  0  0  0
  158.2330  212.4690  150.9500 C   0  0  1  0  0  3  0  0  0  0  0  0
  159.4210  213.0210  153.5520 C   0  0  0  0  0  2  0  0  0  0  0  0
  161.1500  210.6790  151.0540 C   0  0  0  0  0  2  0  0  0  0  0  0
  162.6830  210.8740  153.6360 C   0  0  0  0  0  0  0  0  0  0  0  0
  161.5330  203.8930  151.0010 C   0  0  0  0  0  2  0  0  0  0  0  0
  161.7520  206.5340  149.5910 C   0  0  1  0  0  3  0  0  0  0  0  0
  157.3770  213.0040  152.0990 C   0  0  1  0  0  3  0  0  0  0  0  0
  161.4930  208.3150  151.1270 O   0  0  0  0  0  0  0  0  0  0  0  0
  158.7030  211.0310  151.1750 C   0  0  1  0  0  3  0  0  0  0  0  0
  159.9310  209.3440  154.7470 C   0  0  0  0  0  2  0  0  0  0  0  0
  162.4920  209.5140  152.9500 C   0  0  0  0  0  2  0  0  0  0  0  0
  162.4530  207.6280  150.3800 C   0  0  2  0  0  3  0  0  0  0  0  0
  163.2820  211.7870  152.7630 O   0  0  0  0  0  1  0  0  0  0  0  0
  159.4780  204.8460  153.4220 O   0  0  0  0  0  0  0  0  0  0  0  0
  157.9530  212.6460  153.4700 C   0  0  2  0  0  3  0  0  0  0  0  0
  162.8580  204.5240  150.5940 C   0  0  0  0  0  2  0  0  0  0  0  0
  157.5100  212.5460  149.7570 O   0  0  0  0  0  1  0  0  0  0  0  0
  160.3820  211.9300  153.0570 C   0  0  2  0  0  3  0  0  0  0  0  0
  162.1990  207.8040  148.8910 C   0  0  0  0  0  2  0  0  0  0  0  0
  159.7980  208.2980  155.8420 C   0  0  0  0  0  2  0  0  0  0  0  0
  161.6980  205.8660  155.9550 C   0  0  0  0  0  1  0  0  0  0  0  0
  160.6380  205.1360  153.8320 C   0  0  0  0  0  0  0  0  0  0  0  0
  159.9830  210.8630  152.0050 C   0  0  2  0  0  3  0  0  0  0  0  0
  157.6800  210.2130  151.6600 O   0  0  0  0  0  1  0  0  0  0  0  0
  160.8630  206.3030  154.7580 C   0  0  1  0  0  3  0  0  0  0  0  0
  157.2490  214.3910  151.9710 O   0  0  0  0  0  1  0  0  0  0  0  0
  159.5530  206.9290  155.2350 C   0  0  0  0  0  2  0  0  0  0  0  0
  162.3460  204.5840  148.0830 C   0  0  2  0  0  3  0  0  0  0  0  0
  163.1490  204.9420  146.8500 C   0  0  0  0  0  2  0  0  0  0  0  0
  160.9050  204.7340  147.6250 C   0  0  2  0  0  0  0  0  0  0  0  0
  160.9740  204.3970  146.1470 C   0  0  0  0  0  2  0  0  0  0  0  0
  162.3300  204.6880  145.6690 N   0  0  0  0  0  0  0  0  0  0  0  0
  163.5950  206.3220  144.5600 O   0  0  0  0  0  1  0  0  0  0  0  0
  162.2930  205.9200  144.8770 C   0  0  0  0  0  3  0  0  0  0  0  0
  161.5820  205.7190  143.6890 O   0  0  0  0  0  1  0  0  0  0  0  0
  160.4090  206.1860  147.7930 C   0  0  0  0  0  2  0  0  0  0  0  0
  160.0270  206.8840  146.5280 C   0  0  0  0  0  0  0  0  0  0  0  0
  159.0450  206.3690  145.6910 O   0  0  0  0  0  0  0  0  0  0  0  0
  160.5480  207.9930  146.2520 O   0  0  0  0  0  1  0  0  0  0  0  0
  160.0380  203.8450  148.3390 O   0  0  0  0  0  0  0  0  0  0  0  0
  160.3030  202.5060  148.6720 C   0  0  0  0  0  0  0  0  0  0  0  0
  161.3470  200.3570  148.2880 C   0  0  0  0  0  3  0  0  0  0  0  0
  160.7740  199.8780  149.4240 N   0  0  0  0  0  0  0  0  0  0  0  0
  159.9780  200.6600  150.1980 C   0  0  0  0  0  3  0  0  0  0  0  0
  161.1220  201.6800  147.8880 C   0  0  0  0  0  3  0  0  0  0  0  0
  159.7300  201.9860  149.8340 C   0  0  0  0  0  3  0  0  0  0  0  0
  160.5970  212.1530  157.0080 O   0  0  0  0  0  0  0  0  0  0  0  0
  159.9870  211.3510  156.3190 C   0  0  0  0  0  0  0  0  0  0  0  0
  157.8710  210.4480  155.3870 C   0  0  0  0  0  1  0  0  0  0  0  0
  158.5190  211.1480  156.5700 C   0  0  2  0  0  3  0  0  0  0  0  0
  156.3840  212.2230  157.2490 C   0  0  0  0  0  1  0  0  0  0  0  0
  157.8290  212.4610  156.8780 C   0  0  0  0  0  2  0  0  0  0  0  0
  3 12  1  6  0  0  0
  3  8  1  0  0  0  0
  4 30  1  0  0  0  0
  5 14  1  0  0  0  0
  5 24  1  1  0  0  0
  6  4  1  0  0  0  0
  7 11  1  1  0  0  0
  7 19  1  0  0  0  0
  8 56  1  6  0  0  0
  9 25  1  6  0  0  0
  9 17  1  0  0  0  0
  9 15  1  0  0  0  0
 12  1  1  0  0  0  0
 13  6  1  0  0  0  0
 14 27  1  6  0  0  0
 14 20  1  0  0  0  0
 15 34  1  6  0  0  0
 15 23  1  0  0  0  0
 16  7  1  0  0  0  0
 17 32  1  1  0  0  0
 17 31  1  0  0  0  0
 18  8  1  0  0  0  0
 18 28  1  0  0  0  0
 19 12  1  0  0  0  0
 20 27  1  6  0  0  0
 20 16  1  0  0  0  0
 21 12  1  0  0  0  0
 22 30  2  0  0  0  0
 23 10  1  0  0  0  0
 23  2  1  1  0  0  0
 24 13  1  0  0  0  0
 26 10  1  1  0  0  0
 26  3  1  0  0  0  0
 30 33  1  0  0  0  0
 31 11  1  6  0  0  0
 31 26  1  0  0  0  0
 33 35  1  0  0  0  0
 33 29  1  1  0  0  0
 35 28  1  0  0  0  0
 36 37  1  6  0  0  0
 36  5  1  0  0  0  0
 38 44  1  1  0  0  0
 38 36  1  0  0  0  0
 38 48  1  0  0  0  0
 39 38  1  0  0  0  0
 40 39  1  0  0  0  0
 40 37  1  0  0  0  0
 41 42  1  0  0  0  0
 42 40  1  0  0  0  0
 43 42  1  0  0  0  0
 45 44  1  0  0  0  0
 46 45  2  0  0  0  0
 47 45  1  0  0  0  0
 48 49  1  0  0  0  0
 49 54  1  0  0  0  0
 50 51  2  0  0  0  0
 51 52  1  0  0  0  0
 53 50  1  0  0  0  0
 53 49  2  0  0  0  0
 54 52  2  0  0  0  0
 56 58  1  0  0  0  0
 56 55  2  0  0  0  0
 58 57  1  6  0  0  0
 58 60  1  0  0  0  0
 60 59  1  0  0  0  0
M  END
>  <MODEL>
3

>  <REMARK>
 VINA RESULT:      20.7      3.813      6.674
  Name = 
  9 active torsions:
  status: ('A' for Active; 'I' for Inactive)
    1  A    between atoms: C_1  and  C_7
    2  A    between atoms: C_10  and  C_35
    3  A    between atoms: C_11  and  C_33
    4  A    between atoms: C_11  and  O_46
    5  A    between atoms: C_16  and  C_33
    6  A    between atoms: C_28  and  O_46
    7  A    between atoms: C_34  and  C_52
    8  A    between atoms: C_35  and  C_52
    9  A    between atoms: C_47  and  N_56
                            x       y       z     vdW  Elec       q    Type
                         _______ _______ _______ _____ _____    ______ ____

>  <TORSDO>
F 9

$$$$
=
 OpenBabel11072414423D

 60 65  0  0  1  0  0  0  0  0999 V2000
  164.0340  210.2750  153.7210 O   0  0  0  0  0  1  0  0  0  0  0  0
  158.2100  213.6340  154.8450 F   0  0  0  0  0  0  0  0  0  0  0  0
  161.8480  211.2310  153.6840 C   0  0  1  0  0  3  0  0  0  0  0  0
  161.3550  204.1370  153.7800 N   0  0  0  0  0  2  0  0  0  0  0  0
  161.2190  204.6050  149.5240 C   0  0  1  0  0  3  0  0  0  0  0  0
  160.8660  203.0010  153.0130 C   0  0  0  0  0  2  0  0  0  0  0  0
  161.5980  208.9940  151.1760 C   0  0  2  0  0  3  0  0  0  0  0  0
  161.4820  210.5580  155.0240 C   0  0  2  0  0  3  0  0  0  0  0  0
  158.0600  212.3270  151.3460 C   0  0  1  0  0  3  0  0  0  0  0  0
  159.9940  212.9840  153.4240 C   0  0  0  0  0  2  0  0  0  0  0  0
  160.7010  210.1980  150.8840 C   0  0  0  0  0  2  0  0  0  0  0  0
  162.9240  210.4560  152.8940 C   0  0  0  0  0  0  0  0  0  0  0  0
  160.4110  203.4490  151.6360 C   0  0  0  0  0  2  0  0  0  0  0  0
  160.4620  205.8830  149.8800 C   0  0  1  0  0  3  0  0  0  0  0  0
  157.6260  213.0820  152.6050 C   0  0  1  0  0  3  0  0  0  0  0  0
  160.8260  207.8290  151.1750 O   0  0  0  0  0  0  0  0  0  0  0  0
  158.4370  210.8710  151.6240 C   0  0  1  0  0  3  0  0  0  0  0  0
  160.4780  209.4130  154.9130 C   0  0  0  0  0  2  0  0  0  0  0  0
  162.4170  209.0690  152.4760 C   0  0  0  0  0  2  0  0  0  0  0  0
  161.4610  206.9520  150.2920 C   0  0  2  0  0  3  0  0  0  0  0  0
  163.3290  211.1910  151.7760 O   0  0  0  0  0  1  0  0  0  0  0  0
  159.2410  204.8990  154.3780 O   0  0  0  0  0  0  0  0  0  0  0  0
  158.5370  212.7940  153.7990 C   0  0  2  0  0  3  0  0  0  0  0  0
  161.6160  203.8600  150.8000 C   0  0  0  0  0  2  0  0  0  0  0  0
  157.0340  212.3740  150.3990 O   0  0  0  0  0  1  0  0  0  0  0  0
  160.6640  211.7350  152.8340 C   0  0  2  0  0  3  0  0  0  0  0  0
  160.8060  207.0070  148.9210 C   0  0  0  0  0  2  0  0  0  0  0  0
  160.5690  208.5100  156.1330 C   0  0  0  0  0  2  0  0  0  0  0  0
  162.1830  205.8780  156.0430 C   0  0  0  0  0  1  0  0  0  0  0  0
  160.4920  205.0780  154.4110 C   0  0  0  0  0  0  0  0  0  0  0  0
  159.8810  210.6260  152.0850 C   0  0  2  0  0  3  0  0  0  0  0  0
  157.5260  210.2450  152.4760 O   0  0  0  0  0  1  0  0  0  0  0  0
  161.0830  206.2940  155.0750 C   0  0  1  0  0  3  0  0  0  0  0  0
  157.5980  214.4530  152.3320 O   0  0  0  0  0  1  0  0  0  0  0  0
  160.0310  207.1290  155.8050 C   0  0  0  0  0  2  0  0  0  0  0  0
  160.4100  203.7300  148.5420 C   0  0  2  0  0  3  0  0  0  0  0  0
  160.3000  202.2780  148.9590 C   0  0  0  0  0  2  0  0  0  0  0  0
  160.9590  203.6530  147.1270 C   0  0  2  0  0  0  0  0  0  0  0  0
  160.4060  202.3360  146.6120 C   0  0  0  0  0  2  0  0  0  0  0  0
  160.1610  201.4560  147.7610 N   0  0  0  0  0  0  0  0  0  0  0  0
  162.3440  200.8850  147.1190 O   0  0  0  0  0  1  0  0  0  0  0  0
  161.2070  200.4310  147.7980 C   0  0  0  0  0  3  0  0  0  0  0  0
  161.5590  200.1370  149.1190 O   0  0  0  0  0  1  0  0  0  0  0  0
  162.5000  203.5930  147.1230 C   0  0  0  0  0  2  0  0  0  0  0  0
  163.1940  204.9090  146.9740 C   0  0  0  0  0  0  0  0  0  0  0  0
  162.8710  205.9880  147.7860 O   0  0  0  0  0  1  0  0  0  0  0  0
  164.1360  205.0210  146.1500 O   0  0  0  0  0  0  0  0  0  0  0  0
  160.5180  204.7640  146.3380 O   0  0  0  0  0  0  0  0  0  0  0  0
  161.0200  205.1530  145.0850 C   0  0  0  0  0  0  0  0  0  0  0  0
  161.1660  204.9810  142.6760 C   0  0  0  0  0  3  0  0  0  0  0  0
  162.0600  206.0050  142.6590 N   0  0  0  0  0  0  0  0  0  0  0  0
  162.4520  206.6190  143.8040 C   0  0  0  0  0  3  0  0  0  0  0  0
  160.6290  204.5330  143.8890 C   0  0  0  0  0  3  0  0  0  0  0  0
  161.9390  206.2030  145.0360 C   0  0  0  0  0  3  0  0  0  0  0  0
  162.0560  211.9160  156.8850 O   0  0  0  0  0  0  0  0  0  0  0  0
  161.1740  211.5460  156.1260 C   0  0  0  0  0  0  0  0  0  0  0  0
  159.8090  213.4880  156.8510 C   0  0  0  0  0  1  0  0  0  0  0  0
  159.7770  212.0600  156.3320 C   0  0  2  0  0  3  0  0  0  0  0  0
  158.5120  209.9290  156.5180 C   0  0  0  0  0  1  0  0  0  0  0  0
  158.9920  211.1550  157.2600 C   0  0  0  0  0  2  0  0  0  0  0  0
  3 12  1  6  0  0  0
  3  8  1  0  0  0  0
  4 30  1  0  0  0  0
  5 14  1  0  0  0  0
  5 24  1  1  0  0  0
  6  4  1  0  0  0  0
  7 11  1  1  0  0  0
  7 19  1  0  0  0  0
  8 56  1  1  0  0  0
  9 25  1  6  0  0  0
  9 17  1  0  0  0  0
  9 15  1  0  0  0  0
 10 23  1  0  0  0  0
 12  1  1  0  0  0  0
 13  6  1  0  0  0  0
 14 27  1  6  0  0  0
 14 20  1  0  0  0  0
 15 34  1  6  0  0  0
 15 23  1  0  0  0  0
 16  7  1  0  0  0  0
 17 31  1  0  0  0  0
 17 32  1  1  0  0  0
 18  8  1  0  0  0  0
 18 28  1  0  0  0  0
 19 12  1  0  0  0  0
 20 27  1  6  0  0  0
 20 16  1  0  0  0  0
 21 12  1  0  0  0  0
 22 30  2  0  0  0  0
 23  2  1  1  0  0  0
 24 13  1  0  0  0  0
 26 10  1  1  0  0  0
 26  3  1  0  0  0  0
 30 33  1  0  0  0  0
 31 11  1  6  0  0  0
 31 26  1  0  0  0  0
 33 35  1  0  0  0  0
 33 29  1  1  0  0  0
 35 28  1  0  0  0  0
 36 37  1  1  0  0  0
 36  5  1  0  0  0  0
 38 44  1  1  0  0  0
 38 36  1  0  0  0  0
 39 38  1  0  0  0  0
 39 40  1  0  0  0  0
 40 42  1  0  0  0  0
 40 37  1  0  0  0  0
 41 42  1  0  0  0  0
 42 43  1  0  0  0  0
 45 44  1  0  0  0  0
 45 46  1  0  0  0  0
 47 45  2  0  0  0  0
 48 38  1  0  0  0  0
 49 48  1  0  0  0  0
 50 53  1  0  0  0  0
 51 50  2  0  0  0  0
 51 52  1  0  0  0  0
 52 54  2  0  0  0  0
 53 49  2  0  0  0  0
 54 49  1  0  0  0  0
 56 58  1  0  0  0  0
 56 55  2  0  0  0  0
 58 57  1  1  0  0  0
 58 60  1  0  0  0  0
 59 60  1  0  0  0  0
M  END
>  <MODEL>
4

>  <REMARK>
 VINA RESULT:      21.2      4.072      7.070
  Name = 
  9 active torsions:
  status: ('A' for Active; 'I' for Inactive)
    1  A    between atoms: C_1  and  C_7
    2  A    between atoms: C_10  and  C_35
    3  A    between atoms: C_11  and  C_33
    4  A    between atoms: C_11  and  O_46
    5  A    between atoms: C_16  and  C_33
    6  A    between atoms: C_28  and  O_46
    7  A    between atoms: C_34  and  C_52
    8  A    between atoms: C_35  and  C_52
    9  A    between atoms: C_47  and  N_56
                            x       y       z     vdW  Elec       q    Type
                         _______ _______ _______ _____ _____    ______ ____

>  <TORSDO>
F 9

$$$$
