=
 OpenBabel11072411183D

 28 30  0  0  1  0  0  0  0  0999 V2000
  161.2130  209.8320  151.7180 C   0  0  0  0  0  3  0  0  0  0  0  0
  161.4970  209.2340  150.4910 C   0  0  0  0  0  3  0  0  0  0  0  0
  161.5560  207.7140  152.8390 C   0  0  0  0  0  0  0  0  0  0  0  0
  161.8180  207.8750  150.4130 C   0  0  0  0  0  0  0  0  0  0  0  0
  161.8740  207.1020  151.6040 C   0  0  0  0  0  0  0  0  0  0  0  0
  161.2390  209.0730  152.8850 C   0  0  0  0  0  3  0  0  0  0  0  0
  160.8100  206.9800  148.3030 C   0  0  0  0  0  1  0  0  0  0  0  0
  162.9080  208.2340  148.2510 N   0  0  0  0  0  1  0  0  0  0  0  0
  162.0890  207.3270  149.0400 C   0  0  1  0  0  3  0  0  0  0  0  0
  162.2460  205.6410  151.5780 C   0  0  0  0  0  2  0  0  0  0  0  0
  161.0110  204.0050  148.8010 C   0  0  0  0  0  2  0  0  0  0  0  0
  160.6830  202.5280  152.0930 O   0  0  0  0  0  0  0  0  0  0  0  0
  161.0680  201.2910  150.0100 C   0  0  0  0  0  2  0  0  0  0  0  0
  161.4120  203.7080  150.2370 C   0  0  2  0  0  3  0  0  0  0  0  0
  161.1660  201.5100  148.5080 C   0  0  0  0  0  0  0  0  0  0  0  0
  160.7060  203.8930  152.4640 C   0  0  0  0  0  2  0  0  0  0  0  0
  160.5810  202.5590  150.7010 C   0  0  2  0  0  3  0  0  0  0  0  0
  161.2110  202.7530  147.9700 C   0  0  0  0  0  3  0  0  0  0  0  0
  161.0560  204.7460  151.2470 C   0  0  1  0  0  3  0  0  0  0  0  0
  160.8630  200.5740  146.2400 C   0  0  0  0  0  1  0  0  0  0  0  0
  161.4090  200.3240  147.6330 C   0  0  0  0  0  2  0  0  0  0  0  0
  161.5480  206.9450  154.1200 C   0  0  0  0  0  2  0  0  0  0  0  0
  160.2570  206.9270  154.6540 O   0  0  0  0  0  0  0  0  0  0  0  0
  162.0000  208.0420  156.4820 O   0  0  0  0  0  0  0  0  0  0  0  0
  160.3730  207.7290  156.1430 P   0  0  2  0  0  0  0  0  0  0  0  0
  159.8110  206.8400  157.2300 O   0  0  0  0  0  1  0  0  0  0  0  0
  159.5250  209.1990  156.1060 O   0  0  0  0  0  0  0  0  0  0  0  0
  160.4720  210.1880  156.3800 C   0  0  0  0  0  1  0  0  0  0  0  0
  1  6  1  0  0  0  0
  2  1  2  0  0  0  0
  3  6  2  0  0  0  0
  3 22  1  0  0  0  0
  4  2  1  0  0  0  0
  4  5  2  0  0  0  0
  5  3  1  0  0  0  0
  8  9  1  0  0  0  0
  9  7  1  6  0  0  0
  9  4  1  0  0  0  0
 10  5  1  0  0  0  0
 12 16  1  0  0  0  0
 14 11  1  6  0  0  0
 14 17  1  0  0  0  0
 14 19  1  0  0  0  0
 15 13  1  0  0  0  0
 17 13  1  6  0  0  0
 17 12  1  0  0  0  0
 18 15  2  0  0  0  0
 18 11  1  0  0  0  0
 19 10  1  1  0  0  0
 19 16  1  0  0  0  0
 20 21  1  0  0  0  0
 21 15  1  0  0  0  0
 22 23  1  0  0  0  0
 23 25  1  0  0  0  0
 25 24  2  1  0  0  0
 25 26  1  0  0  0  0
 27 25  1  0  0  0  0
 27 28  1  0  0  0  0
M  END
>  <MODEL>
1

>  <REMARK>
 VINA RESULT:      -8.0      0.000      0.000
  Name = 
  8 active torsions:
  status: ('A' for Active; 'I' for Inactive)
    1  A    between atoms: O_3  and  C_17
    2  A    between atoms: O_3  and  P_19
    3  A    between atoms: C_7  and  C_17
    4  A    between atoms: C_13  and  C_14
    5  A    between atoms: C_15  and  C_27
    6  A    between atoms: C_16  and  C_21
    7  A    between atoms: C_16  and  C_25
    8  A    between atoms: P_19  and  O_26
                            x       y       z     vdW  Elec       q    Type
                         _______ _______ _______ _____ _____    ______ ____

>  <TORSDO>
F 8

$$$$
=
 OpenBabel11072411183D

 28 30  0  0  1  0  0  0  0  0999 V2000
  160.0350  211.1400  153.9630 C   0  0  0  0  0  3  0  0  0  0  0  0
  160.1910  210.0280  154.7900 C   0  0  0  0  0  3  0  0  0  0  0  0
  161.2040  209.9890  152.1820 C   0  0  0  0  0  0  0  0  0  0  0  0
  160.8480  208.8810  154.3320 C   0  0  0  0  0  0  0  0  0  0  0  0
  161.3430  208.8450  153.0010 C   0  0  0  0  0  0  0  0  0  0  0  0
  160.5430  211.1200  152.6670 C   0  0  0  0  0  3  0  0  0  0  0  0
  161.7350  208.1560  156.5580 C   0  0  0  0  0  1  0  0  0  0  0  0
  159.6810  207.1850  155.6560 N   0  0  0  0  0  1  0  0  0  0  0  0
  160.9770  207.7470  155.3100 C   0  0  1  0  0  3  0  0  0  0  0  0
  162.0310  207.6220  152.4490 C   0  0  0  0  0  2  0  0  0  0  0  0
  160.6150  206.8790  149.3900 C   0  0  0  0  0  2  0  0  0  0  0  0
  161.4060  204.2310  151.7340 O   0  0  0  0  0  0  0  0  0  0  0  0
  161.5840  204.0710  149.2920 C   0  0  0  0  0  2  0  0  0  0  0  0
  161.3920  206.1950  150.5030 C   0  0  2  0  0  3  0  0  0  0  0  0
  161.2820  204.8680  148.0320 C   0  0  0  0  0  0  0  0  0  0  0  0
  161.1900  205.2840  152.6540 C   0  0  0  0  0  2  0  0  0  0  0  0
  160.9840  204.7600  150.5120 C   0  0  2  0  0  3  0  0  0  0  0  0
  160.9090  206.1700  148.0830 C   0  0  0  0  0  3  0  0  0  0  0  0
  161.0420  206.6010  151.8950 C   0  0  1  0  0  3  0  0  0  0  0  0
  162.9230  204.7510  146.1850 C   0  0  0  0  0  1  0  0  0  0  0  0
  161.5910  204.2460  146.7100 C   0  0  0  0  0  2  0  0  0  0  0  0
  161.7470  210.0330  150.7910 C   0  0  0  0  0  2  0  0  0  0  0  0
  161.6120  211.3220  150.2690 O   0  0  0  0  0  0  0  0  0  0  0  0
  160.7110  211.6780  147.6840 O   0  0  0  0  0  0  0  0  0  0  0  0
  162.0260  211.1920  148.6300 P   0  0  2  0  0  0  0  0  0  0  0  0
  162.3470  209.7490  148.3130 O   0  0  0  0  0  1  0  0  0  0  0  0
  163.3620  212.1730  148.2630 O   0  0  0  0  0  0  0  0  0  0  0  0
  162.8290  213.3800  147.8070 C   0  0  0  0  0  1  0  0  0  0  0  0
  1  2  1  0  0  0  0
  3  6  1  0  0  0  0
  3  5  2  0  0  0  0
  4  2  2  0  0  0  0
  4  9  1  0  0  0  0
  5  4  1  0  0  0  0
  6  1  2  0  0  0  0
  9  8  1  0  0  0  0
  9  7  1  1  0  0  0
 10  5  1  0  0  0  0
 12 16  1  0  0  0  0
 14 11  1  6  0  0  0
 14 17  1  0  0  0  0
 14 19  1  0  0  0  0
 15 18  2  0  0  0  0
 15 13  1  0  0  0  0
 17 13  1  6  0  0  0
 17 12  1  0  0  0  0
 18 11  1  0  0  0  0
 19 10  1  1  0  0  0
 19 16  1  0  0  0  0
 20 21  1  0  0  0  0
 21 15  1  0  0  0  0
 22  3  1  0  0  0  0
 23 22  1  0  0  0  0
 25 24  2  6  0  0  0
 25 23  1  0  0  0  0
 26 25  1  0  0  0  0
 27 25  1  0  0  0  0
 28 27  1  0  0  0  0
M  END
>  <MODEL>
2

>  <REMARK>
 VINA RESULT:      -7.8      4.044      5.467
  Name = 
  8 active torsions:
  status: ('A' for Active; 'I' for Inactive)
    1  A    between atoms: O_3  and  C_17
    2  A    between atoms: O_3  and  P_19
    3  A    between atoms: C_7  and  C_17
    4  A    between atoms: C_13  and  C_14
    5  A    between atoms: C_15  and  C_27
    6  A    between atoms: C_16  and  C_21
    7  A    between atoms: C_16  and  C_25
    8  A    between atoms: P_19  and  O_26
                            x       y       z     vdW  Elec       q    Type
                         _______ _______ _______ _____ _____    ______ ____

>  <TORSDO>
F 8

$$$$
=
 OpenBabel11072411183D

 28 30  0  0  1  0  0  0  0  0999 V2000
  162.2960  209.9170  152.3720 C   0  0  0  0  0  3  0  0  0  0  0  0
  161.9150  208.6280  152.7420 C   0  0  0  0  0  3  0  0  0  0  0  0
  161.7360  209.4280  150.0670 C   0  0  0  0  0  0  0  0  0  0  0  0
  161.4370  207.7210  151.7910 C   0  0  0  0  0  0  0  0  0  0  0  0
  161.3200  208.1280  150.4340 C   0  0  0  0  0  0  0  0  0  0  0  0
  162.2100  210.3120  151.0400 C   0  0  0  0  0  3  0  0  0  0  0  0
  162.2160  205.3690  152.1530 C   0  0  0  0  0  1  0  0  0  0  0  0
  160.5930  206.3940  153.6670 N   0  0  0  0  0  1  0  0  0  0  0  0
  161.0700  206.3530  152.2940 C   0  0  1  0  0  3  0  0  0  0  0  0
  160.7810  207.1990  149.3770 C   0  0  0  0  0  2  0  0  0  0  0  0
  161.3150  203.7910  149.2320 C   0  0  0  0  0  2  0  0  0  0  0  0
  162.3880  205.9310  146.5120 O   0  0  0  0  0  0  0  0  0  0  0  0
  161.5140  203.6520  146.2700 C   0  0  0  0  0  2  0  0  0  0  0  0
  161.2580  204.9950  148.3050 C   0  0  2  0  0  3  0  0  0  0  0  0
  161.0690  202.4630  147.1080 C   0  0  0  0  0  0  0  0  0  0  0  0
  162.4680  206.8650  147.5720 C   0  0  0  0  0  2  0  0  0  0  0  0
  162.1620  204.7120  147.1530 C   0  0  2  0  0  3  0  0  0  0  0  0
  160.9130  202.5560  148.4520 C   0  0  0  0  0  3  0  0  0  0  0  0
  161.8510  206.2590  148.8310 C   0  0  1  0  0  3  0  0  0  0  0  0
  160.0420  201.5750  145.0420 C   0  0  0  0  0  1  0  0  0  0  0  0
  160.6160  201.2280  146.4020 C   0  0  0  0  0  2  0  0  0  0  0  0
  161.6870  209.9000  148.6510 C   0  0  0  0  0  2  0  0  0  0  0  0
  162.5920  210.9480  148.4680 O   0  0  0  0  0  0  0  0  0  0  0  0
  160.9610  213.0260  149.2700 O   0  0  0  0  0  1  0  0  0  0  0  0
  161.6620  212.2620  147.9340 P   0  0  2  0  0  0  0  0  0  0  0  0
  160.5610  211.7550  147.0300 O   0  0  0  0  0  0  0  0  0  0  0  0
  162.6220  213.3840  147.0980 O   0  0  0  0  0  0  0  0  0  0  0  0
  162.2700  213.2550  145.7530 C   0  0  0  0  0  1  0  0  0  0  0  0
  1  2  1  0  0  0  0
  3  5  2  0  0  0  0
  3  6  1  0  0  0  0
  4  9  1  0  0  0  0
  4  2  2  0  0  0  0
  5  4  1  0  0  0  0
  6  1  2  0  0  0  0
  9  7  1  1  0  0  0
  9  8  1  0  0  0  0
 10  5  1  0  0  0  0
 12 17  1  0  0  0  0
 12 16  1  0  0  0  0
 13 15  1  0  0  0  0
 14 19  1  0  0  0  0
 14 11  1  1  0  0  0
 15 18  2  0  0  0  0
 16 19  1  0  0  0  0
 17 13  1  6  0  0  0
 17 14  1  0  0  0  0
 18 11  1  0  0  0  0
 19 10  1  6  0  0  0
 20 21  1  0  0  0  0
 21 15  1  0  0  0  0
 22  3  1  0  0  0  0
 23 22  1  0  0  0  0
 25 26  2  6  0  0  0
 25 23  1  0  0  0  0
 25 24  1  0  0  0  0
 27 25  1  0  0  0  0
 28 27  1  0  0  0  0
M  END
>  <MODEL>
3

>  <REMARK>
 VINA RESULT:      -7.5      4.443      5.611
  Name = 
  8 active torsions:
  status: ('A' for Active; 'I' for Inactive)
    1  A    between atoms: O_3  and  C_17
    2  A    between atoms: O_3  and  P_19
    3  A    between atoms: C_7  and  C_17
    4  A    between atoms: C_13  and  C_14
    5  A    between atoms: C_15  and  C_27
    6  A    between atoms: C_16  and  C_21
    7  A    between atoms: C_16  and  C_25
    8  A    between atoms: P_19  and  O_26
                            x       y       z     vdW  Elec       q    Type
                         _______ _______ _______ _____ _____    ______ ____

>  <TORSDO>
F 8

$$$$
=
 OpenBabel11072411183D

 28 30  0  0  1  0  0  0  0  0999 V2000
  161.5870  210.6690  149.3050 C   0  0  0  0  0  3  0  0  0  0  0  0
  161.6010  210.5530  150.6940 C   0  0  0  0  0  3  0  0  0  0  0  0
  162.2570  208.3510  149.0970 C   0  0  0  0  0  0  0  0  0  0  0  0
  161.9350  209.3420  151.3090 C   0  0  0  0  0  0  0  0  0  0  0  0
  162.2460  208.2130  150.5050 C   0  0  0  0  0  0  0  0  0  0  0  0
  161.9180  209.5730  148.5120 C   0  0  0  0  0  3  0  0  0  0  0  0
  162.6090  210.5620  153.3900 C   0  0  0  0  0  1  0  0  0  0  0  0
  160.5940  209.1790  153.3500 N   0  0  0  0  0  1  0  0  0  0  0  0
  161.9360  209.3310  152.8120 C   0  0  1  0  0  3  0  0  0  0  0  0
  162.5820  206.8780  151.1170 C   0  0  0  0  0  2  0  0  0  0  0  0
  160.7410  204.4950  149.4280 C   0  0  0  0  0  2  0  0  0  0  0  0
  161.1500  204.2860  153.0230 O   0  0  0  0  0  0  0  0  0  0  0  0
  161.0460  202.3750  151.4880 C   0  0  0  0  0  2  0  0  0  0  0  0
  161.4530  204.6800  150.7600 C   0  0  2  0  0  3  0  0  0  0  0  0
  160.8060  202.0500  150.0210 C   0  0  0  0  0  0  0  0  0  0  0  0
  161.2660  205.6870  152.8680 C   0  0  0  0  0  2  0  0  0  0  0  0
  160.7380  203.8420  151.7640 C   0  0  2  0  0  3  0  0  0  0  0  0
  160.7390  203.0210  149.0770 C   0  0  0  0  0  3  0  0  0  0  0  0
  161.3410  206.0320  151.3820 C   0  0  1  0  0  3  0  0  0  0  0  0
  161.2870  200.5030  148.1540 C   0  0  0  0  0  1  0  0  0  0  0  0
  160.8360  200.6190  149.5980 C   0  0  0  0  0  2  0  0  0  0  0  0
  162.6230  207.2170  148.1970 C   0  0  0  0  0  2  0  0  0  0  0  0
  161.6290  207.0360  147.2320 O   0  0  0  0  0  0  0  0  0  0  0  0
  163.3410  204.8700  147.1580 O   0  0  0  0  0  1  0  0  0  0  0  0
  162.1230  205.6930  146.3210 P   0  0  2  0  0  0  0  0  0  0  0  0
  162.6770  206.1690  144.9970 O   0  0  0  0  0  0  0  0  0  0  0  0
  160.8240  204.6330  146.0540 O   0  0  0  0  0  0  0  0  0  0  0  0
  161.3900  203.4670  145.5340 C   0  0  0  0  0  1  0  0  0  0  0  0
  1  2  1  0  0  0  0
  2  4  2  0  0  0  0
  3  5  2  0  0  0  0
  4  9  1  0  0  0  0
  5 10  1  0  0  0  0
  5  4  1  0  0  0  0
  6  3  1  0  0  0  0
  6  1  2  0  0  0  0
  9  8  1  0  0  0  0
  9  7  1  1  0  0  0
 14 11  1  6  0  0  0
 14 19  1  0  0  0  0
 14 17  1  0  0  0  0
 15 13  1  0  0  0  0
 16 12  1  0  0  0  0
 17 13  1  6  0  0  0
 17 12  1  0  0  0  0
 18 11  1  0  0  0  0
 18 15  2  0  0  0  0
 19 10  1  1  0  0  0
 19 16  1  0  0  0  0
 20 21  1  0  0  0  0
 21 15  1  0  0  0  0
 22  3  1  0  0  0  0
 23 22  1  0  0  0  0
 25 26  2  6  0  0  0
 25 24  1  0  0  0  0
 25 23  1  0  0  0  0
 27 25  1  0  0  0  0
 28 27  1  0  0  0  0
M  END
>  <MODEL>
4

>  <REMARK>
 VINA RESULT:      -7.3      3.606      5.715
  Name = 
  8 active torsions:
  status: ('A' for Active; 'I' for Inactive)
    1  A    between atoms: O_3  and  C_17
    2  A    between atoms: O_3  and  P_19
    3  A    between atoms: C_7  and  C_17
    4  A    between atoms: C_13  and  C_14
    5  A    between atoms: C_15  and  C_27
    6  A    between atoms: C_16  and  C_21
    7  A    between atoms: C_16  and  C_25
    8  A    between atoms: P_19  and  O_26
                            x       y       z     vdW  Elec       q    Type
                         _______ _______ _______ _____ _____    ______ ____

>  <TORSDO>
F 8

$$$$
=
 OpenBabel11072411183D

 28 30  0  0  1  0  0  0  0  0999 V2000
  162.4740  205.2800  146.7630 C   0  0  0  0  0  3  0  0  0  0  0  0
  161.8960  204.2300  147.4760 C   0  0  0  0  0  3  0  0  0  0  0  0
  161.6860  206.8520  148.4280 C   0  0  0  0  0  0  0  0  0  0  0  0
  161.2110  204.4660  148.6720 C   0  0  0  0  0  0  0  0  0  0  0  0
  161.1210  205.7920  149.1750 C   0  0  0  0  0  0  0  0  0  0  0  0
  162.3650  206.5850  147.2370 C   0  0  0  0  0  3  0  0  0  0  0  0
  160.4550  202.0950  148.3990 C   0  0  0  0  0  1  0  0  0  0  0  0
  161.3740  202.8750  150.5250 N   0  0  0  0  0  1  0  0  0  0  0  0
  160.6120  203.2660  149.3500 C   0  0  1  0  0  3  0  0  0  0  0  0
  160.4210  206.0960  150.4740 C   0  0  0  0  0  2  0  0  0  0  0  0
  161.2710  208.7720  152.4820 C   0  0  0  0  0  2  0  0  0  0  0  0
  161.3220  205.3990  153.8060 O   0  0  0  0  0  0  0  0  0  0  0  0
  160.6740  207.4090  155.0550 C   0  0  0  0  0  2  0  0  0  0  0  0
  160.8310  207.3220  152.6100 C   0  0  2  0  0  3  0  0  0  0  0  0
  160.6090  208.9210  154.9060 C   0  0  0  0  0  0  0  0  0  0  0  0
  161.5810  205.1070  152.4460 C   0  0  0  0  0  2  0  0  0  0  0  0
  161.4150  206.7910  153.8750 C   0  0  2  0  0  3  0  0  0  0  0  0
  160.8130  209.5300  153.7120 C   0  0  0  0  0  3  0  0  0  0  0  0
  161.4010  206.3720  151.6100 C   0  0  1  0  0  3  0  0  0  0  0  0
  159.0580  210.7120  155.6150 C   0  0  0  0  0  1  0  0  0  0  0  0
  160.1220  209.7280  156.0650 C   0  0  0  0  0  2  0  0  0  0  0  0
  161.5820  208.2730  148.8760 C   0  0  0  0  0  2  0  0  0  0  0  0
  162.5760  209.0390  148.2610 O   0  0  0  0  0  0  0  0  0  0  0  0
  163.5130  211.6360  148.2220 O   0  0  0  0  0  0  0  0  0  0  0  0
  162.2030  210.6500  148.6350 P   0  0  2  0  0  0  0  0  0  0  0  0
  161.9540  210.7690  150.1220 O   0  0  0  0  0  1  0  0  0  0  0  0
  160.8310  211.1680  147.7790 O   0  0  0  0  0  0  0  0  0  0  0  0
  161.0370  212.5240  147.5210 C   0  0  0  0  0  1  0  0  0  0  0  0
  1  6  2  0  0  0  0
  1  2  1  0  0  0  0
  2  4  2  0  0  0  0
  3 22  1  0  0  0  0
  3  5  2  0  0  0  0
  4  5  1  0  0  0  0
  4  9  1  0  0  0  0
  5 10  1  0  0  0  0
  6  3  1  0  0  0  0
  9  7  1  6  0  0  0
  9  8  1  0  0  0  0
 11 18  1  0  0  0  0
 12 17  1  0  0  0  0
 14 11  1  6  0  0  0
 14 17  1  0  0  0  0
 15 13  1  0  0  0  0
 15 21  1  0  0  0  0
 16 12  1  0  0  0  0
 17 13  1  1  0  0  0
 18 15  2  0  0  0  0
 19 10  1  6  0  0  0
 19 16  1  0  0  0  0
 19 14  1  0  0  0  0
 20 21  1  0  0  0  0
 23 25  1  0  0  0  0
 23 22  1  0  0  0  0
 25 24  2  6  0  0  0
 25 26  1  0  0  0  0
 27 25  1  0  0  0  0
 28 27  1  0  0  0  0
M  END
>  <MODEL>
5

>  <REMARK>
 VINA RESULT:      -7.1      3.751      7.079
  Name = 
  8 active torsions:
  status: ('A' for Active; 'I' for Inactive)
    1  A    between atoms: O_3  and  C_17
    2  A    between atoms: O_3  and  P_19
    3  A    between atoms: C_7  and  C_17
    4  A    between atoms: C_13  and  C_14
    5  A    between atoms: C_15  and  C_27
    6  A    between atoms: C_16  and  C_21
    7  A    between atoms: C_16  and  C_25
    8  A    between atoms: P_19  and  O_26
                            x       y       z     vdW  Elec       q    Type
                         _______ _______ _______ _____ _____    ______ ____

>  <TORSDO>
F 8

$$$$
=
 OpenBabel11072411183D

 28 30  0  0  1  0  0  0  0  0999 V2000
  161.3170  207.5380  154.8950 C   0  0  0  0  0  3  0  0  0  0  0  0
  161.3470  206.3160  154.2240 C   0  0  0  0  0  3  0  0  0  0  0  0
  160.8350  208.6770  152.8130 C   0  0  0  0  0  0  0  0  0  0  0  0
  161.1190  206.2490  152.8460 C   0  0  0  0  0  0  0  0  0  0  0  0
  160.8340  207.4410  152.1270 C   0  0  0  0  0  0  0  0  0  0  0  0
  161.0660  208.7130  154.1900 C   0  0  0  0  0  3  0  0  0  0  0  0
  162.6240  204.4270  152.0180 C   0  0  0  0  0  1  0  0  0  0  0  0
  160.4410  203.9010  152.9840 N   0  0  0  0  0  1  0  0  0  0  0  0
  161.1920  204.8840  152.2200 C   0  0  1  0  0  3  0  0  0  0  0  0
  160.5510  207.4180  150.6460 C   0  0  0  0  0  2  0  0  0  0  0  0
  161.5360  204.5430  149.0090 C   0  0  0  0  0  2  0  0  0  0  0  0
  162.4100  207.7990  147.6810 O   0  0  0  0  0  0  0  0  0  0  0  0
  161.8550  205.8180  146.3440 C   0  0  0  0  0  2  0  0  0  0  0  0
  161.3520  206.0270  148.7340 C   0  0  2  0  0  3  0  0  0  0  0  0
  161.5430  204.3380  146.5010 C   0  0  0  0  0  0  0  0  0  0  0  0
  162.3280  208.1350  149.0520 C   0  0  0  0  0  2  0  0  0  0  0  0
  162.3250  206.4050  147.6700 C   0  0  2  0  0  3  0  0  0  0  0  0
  161.3290  203.7790  147.7170 C   0  0  0  0  0  3  0  0  0  0  0  0
  161.7540  206.9540  149.8320 C   0  0  1  0  0  3  0  0  0  0  0  0
  160.7960  202.1440  145.6380 C   0  0  0  0  0  1  0  0  0  0  0  0
  161.2820  203.5340  145.2700 C   0  0  0  0  0  2  0  0  0  0  0  0
  160.5920  209.9710  152.1060 C   0  0  0  0  0  2  0  0  0  0  0  0
  160.9790  211.0370  152.9210 O   0  0  0  0  0  0  0  0  0  0  0  0
  159.4670  212.8390  154.3670 O   0  0  0  0  0  1  0  0  0  0  0  0
  159.7040  212.1530  152.8400 P   0  0  2  0  0  0  0  0  0  0  0  0
  158.4400  211.4330  152.4270 O   0  0  0  0  0  0  0  0  0  0  0  0
  160.0520  213.3880  151.7290 O   0  0  0  0  0  0  0  0  0  0  0  0
  159.0380  213.3310  150.7710 C   0  0  0  0  0  1  0  0  0  0  0  0
  2  1  1  0  0  0  0
  3  6  1  0  0  0  0
  4  2  2  0  0  0  0
  5  3  2  0  0  0  0
  5  4  1  0  0  0  0
  6  1  2  0  0  0  0
  9  7  1  1  0  0  0
  9  4  1  0  0  0  0
  9  8  1  0  0  0  0
 10  5  1  0  0  0  0
 12 16  1  0  0  0  0
 13 15  1  0  0  0  0
 14 11  1  1  0  0  0
 14 19  1  0  0  0  0
 15 18  2  0  0  0  0
 16 19  1  0  0  0  0
 17 13  1  6  0  0  0
 17 12  1  0  0  0  0
 17 14  1  0  0  0  0
 18 11  1  0  0  0  0
 19 10  1  6  0  0  0
 21 20  1  0  0  0  0
 21 15  1  0  0  0  0
 22  3  1  0  0  0  0
 22 23  1  0  0  0  0
 25 26  2  6  0  0  0
 25 23  1  0  0  0  0
 25 24  1  0  0  0  0
 27 25  1  0  0  0  0
 28 27  1  0  0  0  0
M  END
>  <MODEL>
6

>  <REMARK>
 VINA RESULT:      -6.5      3.200      4.487
  Name = 
  8 active torsions:
  status: ('A' for Active; 'I' for Inactive)
    1  A    between atoms: O_3  and  C_17
    2  A    between atoms: O_3  and  P_19
    3  A    between atoms: C_7  and  C_17
    4  A    between atoms: C_13  and  C_14
    5  A    between atoms: C_15  and  C_27
    6  A    between atoms: C_16  and  C_21
    7  A    between atoms: C_16  and  C_25
    8  A    between atoms: P_19  and  O_26
                            x       y       z     vdW  Elec       q    Type
                         _______ _______ _______ _____ _____    ______ ____

>  <TORSDO>
F 8

$$$$
=
 OpenBabel11072411183D

 28 30  0  0  1  0  0  0  0  0999 V2000
  162.4430  206.2160  146.8390 C   0  0  0  0  0  3  0  0  0  0  0  0
  162.3140  207.4570  147.4630 C   0  0  0  0  0  3  0  0  0  0  0  0
  161.2830  205.1600  148.6830 C   0  0  0  0  0  0  0  0  0  0  0  0
  161.6680  207.5740  148.6970 C   0  0  0  0  0  0  0  0  0  0  0  0
  161.1200  206.4160  149.3120 C   0  0  0  0  0  0  0  0  0  0  0  0
  161.9330  205.0740  147.4500 C   0  0  0  0  0  3  0  0  0  0  0  0
  162.6690  209.1760  150.3410 C   0  0  0  0  0  1  0  0  0  0  0  0
  161.6650  209.9840  148.2640 N   0  0  0  0  0  1  0  0  0  0  0  0
  161.6000  208.9540  149.2890 C   0  0  1  0  0  3  0  0  0  0  0  0
  160.3870  206.4940  150.6260 C   0  0  0  0  0  2  0  0  0  0  0  0
  161.1740  208.8450  153.0290 C   0  0  0  0  0  2  0  0  0  0  0  0
  161.2120  205.3140  153.8400 O   0  0  0  0  0  0  0  0  0  0  0  0
  160.5230  207.1150  155.3560 C   0  0  0  0  0  2  0  0  0  0  0  0
  160.7390  207.3910  152.9300 C   0  0  2  0  0  3  0  0  0  0  0  0
  160.4520  208.6320  155.4310 C   0  0  0  0  0  0  0  0  0  0  0  0
  161.5050  205.2270  152.4590 C   0  0  0  0  0  2  0  0  0  0  0  0
  161.2950  206.6800  154.1160 C   0  0  2  0  0  3  0  0  0  0  0  0
  160.6820  209.4120  154.3460 C   0  0  0  0  0  3  0  0  0  0  0  0
  161.3380  206.6010  151.8150 C   0  0  1  0  0  3  0  0  0  0  0  0
  159.5120  210.6920  156.4260 C   0  0  0  0  0  1  0  0  0  0  0  0
  159.9320  209.2570  156.6840 C   0  0  0  0  0  2  0  0  0  0  0  0
  160.7750  203.8990  149.3010 C   0  0  0  0  0  2  0  0  0  0  0  0
  160.7890  202.8690  148.3570 O   0  0  0  0  0  0  0  0  0  0  0  0
  159.0150  201.0240  149.3950 O   0  0  0  0  0  0  0  0  0  0  0  0
  160.6500  201.4340  149.2520 P   0  0  2  0  0  0  0  0  0  0  0  0
  161.2200  201.6550  150.6340 O   0  0  0  0  0  1  0  0  0  0  0  0
  161.4730  200.1620  148.4860 O   0  0  0  0  0  0  0  0  0  0  0  0
  161.2990  200.3700  147.1170 C   0  0  0  0  0  1  0  0  0  0  0  0
  1  6  2  0  0  0  0
  1  2  1  0  0  0  0
  2  4  2  0  0  0  0
  3 22  1  0  0  0  0
  3  5  2  0  0  0  0
  4  9  1  0  0  0  0
  4  5  1  0  0  0  0
  5 10  1  0  0  0  0
  6  3  1  0  0  0  0
  8  9  1  0  0  0  0
  9  7  1  1  0  0  0
 11 18  1  0  0  0  0
 12 17  1  0  0  0  0
 13 15  1  0  0  0  0
 14 11  1  6  0  0  0
 14 17  1  0  0  0  0
 15 21  1  0  0  0  0
 16 12  1  0  0  0  0
 17 13  1  1  0  0  0
 18 15  2  0  0  0  0
 19 10  1  6  0  0  0
 19 16  1  0  0  0  0
 19 14  1  0  0  0  0
 20 21  1  0  0  0  0
 23 25  1  0  0  0  0
 23 22  1  0  0  0  0
 25 24  2  1  0  0  0
 25 26  1  0  0  0  0
 27 25  1  0  0  0  0
 28 27  1  0  0  0  0
M  END
>  <MODEL>
7

>  <REMARK>
 VINA RESULT:      -6.3      2.608      7.483
  Name = 
  8 active torsions:
  status: ('A' for Active; 'I' for Inactive)
    1  A    between atoms: O_3  and  C_17
    2  A    between atoms: O_3  and  P_19
    3  A    between atoms: C_7  and  C_17
    4  A    between atoms: C_13  and  C_14
    5  A    between atoms: C_15  and  C_27
    6  A    between atoms: C_16  and  C_21
    7  A    between atoms: C_16  and  C_25
    8  A    between atoms: P_19  and  O_26
                            x       y       z     vdW  Elec       q    Type
                         _______ _______ _______ _____ _____    ______ ____

>  <TORSDO>
F 8

$$$$
=
 OpenBabel11072411183D

 28 30  0  0  1  0  0  0  0  0999 V2000
  160.4620  201.9230  148.4870 C   0  0  0  0  0  3  0  0  0  0  0  0
  160.4910  202.4310  149.7860 C   0  0  0  0  0  3  0  0  0  0  0  0
  161.6780  203.8610  147.6950 C   0  0  0  0  0  0  0  0  0  0  0  0
  161.1130  203.6520  150.0640 C   0  0  0  0  0  0  0  0  0  0  0  0
  161.7390  204.3720  149.0120 C   0  0  0  0  0  0  0  0  0  0  0  0
  161.0500  202.6380  147.4470 C   0  0  0  0  0  3  0  0  0  0  0  0
  160.2940  203.1590  152.3780 C   0  0  0  0  0  1  0  0  0  0  0  0
  162.4050  204.3390  152.0260 N   0  0  0  0  0  1  0  0  0  0  0  0
  161.0710  204.1150  151.4940 C   0  0  1  0  0  3  0  0  0  0  0  0
  162.4500  205.6780  149.2650 C   0  0  0  0  0  2  0  0  0  0  0  0
  160.8310  207.3410  151.8200 C   0  0  0  0  0  2  0  0  0  0  0  0
  161.9720  209.1460  148.8930 O   0  0  0  0  0  0  0  0  0  0  0  0
  161.9560  210.0180  151.1860 C   0  0  0  0  0  2  0  0  0  0  0  0
  161.7380  207.6380  150.6360 C   0  0  2  0  0  3  0  0  0  0  0  0
  161.5030  209.6420  152.5880 C   0  0  0  0  0  0  0  0  0  0  0  0
  161.7710  207.8760  148.3040 C   0  0  0  0  0  2  0  0  0  0  0  0
  161.4190  209.0180  150.1680 C   0  0  2  0  0  3  0  0  0  0  0  0
  161.0570  208.3960  152.8840 C   0  0  0  0  0  3  0  0  0  0  0  0
  161.4810  206.8490  149.3970 C   0  0  1  0  0  3  0  0  0  0  0  0
  161.4470  209.9740  155.0380 C   0  0  0  0  0  1  0  0  0  0  0  0
  161.7370  210.6170  153.6950 C   0  0  0  0  0  2  0  0  0  0  0  0
  162.2720  204.5940  146.5370 C   0  0  0  0  0  2  0  0  0  0  0  0
  161.9690  203.9280  145.3470 O   0  0  0  0  0  0  0  0  0  0  0  0
  161.5240  205.5530  143.1590 O   0  0  0  0  0  0  0  0  0  0  0  0
  160.8290  204.9060  144.5590 P   0  0  2  0  0  0  0  0  0  0  0  0
  160.4320  206.0410  145.4760 O   0  0  0  0  0  1  0  0  0  0  0  0
  159.4560  204.0070  144.1270 O   0  0  0  0  0  0  0  0  0  0  0  0
  159.7280  202.6930  144.5130 C   0  0  0  0  0  1  0  0  0  0  0  0
  1  2  1  0  0  0  0
  2  4  2  0  0  0  0
  3  5  2  0  0  0  0
  4  9  1  0  0  0  0
  5 10  1  0  0  0  0
  5  4  1  0  0  0  0
  6  3  1  0  0  0  0
  6  1  2  0  0  0  0
  9  8  1  0  0  0  0
  9  7  1  1  0  0  0
 11 18  1  0  0  0  0
 12 17  1  0  0  0  0
 13 15  1  0  0  0  0
 14 11  1  1  0  0  0
 15 18  2  0  0  0  0
 15 21  1  0  0  0  0
 16 12  1  0  0  0  0
 16 19  1  0  0  0  0
 17 14  1  0  0  0  0
 17 13  1  1  0  0  0
 19 10  1  6  0  0  0
 19 14  1  0  0  0  0
 21 20  1  0  0  0  0
 22  3  1  0  0  0  0
 23 22  1  0  0  0  0
 25 24  2  6  0  0  0
 25 23  1  0  0  0  0
 25 26  1  0  0  0  0
 27 28  1  0  0  0  0
 27 25  1  0  0  0  0
M  END
>  <MODEL>
8

>  <REMARK>
 VINA RESULT:      -6.3      4.267      8.554
  Name = 
  8 active torsions:
  status: ('A' for Active; 'I' for Inactive)
    1  A    between atoms: O_3  and  C_17
    2  A    between atoms: O_3  and  P_19
    3  A    between atoms: C_7  and  C_17
    4  A    between atoms: C_13  and  C_14
    5  A    between atoms: C_15  and  C_27
    6  A    between atoms: C_16  and  C_21
    7  A    between atoms: C_16  and  C_25
    8  A    between atoms: P_19  and  O_26
                            x       y       z     vdW  Elec       q    Type
                         _______ _______ _______ _____ _____    ______ ____

>  <TORSDO>
F 8

$$$$
=
 OpenBabel11072411183D

 28 30  0  0  1  0  0  0  0  0999 V2000
  161.2050  205.7230  153.5500 C   0  0  0  0  0  3  0  0  0  0  0  0
  160.9610  206.4080  154.7400 C   0  0  0  0  0  3  0  0  0  0  0  0
  161.4380  207.8290  152.3780 C   0  0  0  0  0  0  0  0  0  0  0  0
  160.9540  207.8060  154.7740 C   0  0  0  0  0  0  0  0  0  0  0  0
  161.2200  208.5350  153.5840 C   0  0  0  0  0  0  0  0  0  0  0  0
  161.4380  206.4330  152.3750 C   0  0  0  0  0  3  0  0  0  0  0  0
  160.1830  207.4300  157.1270 C   0  0  0  0  0  1  0  0  0  0  0  0
  161.8090  209.1800  156.6110 N   0  0  0  0  0  1  0  0  0  0  0  0
  160.6630  208.4420  156.1050 C   0  0  1  0  0  3  0  0  0  0  0  0
  161.2550  210.0420  153.5750 C   0  0  0  0  0  2  0  0  0  0  0  0
  158.2800  210.7450  155.1790 C   0  0  0  0  0  2  0  0  0  0  0  0
  159.5190  212.9360  152.5710 O   0  0  0  0  0  0  0  0  0  0  0  0
  158.3050  213.6550  154.5780 C   0  0  0  0  0  2  0  0  0  0  0  0
  159.3350  211.4440  154.3350 C   0  0  2  0  0  3  0  0  0  0  0  0
  157.5810  213.0850  155.7880 C   0  0  0  0  0  0  0  0  0  0  0  0
  160.1050  211.7230  152.1390 C   0  0  0  0  0  2  0  0  0  0  0  0
  158.6530  212.5440  153.5950 C   0  0  2  0  0  3  0  0  0  0  0  0
  157.6340  211.7650  156.0940 C   0  0  0  0  0  3  0  0  0  0  0  0
  159.9060  210.6510  153.2070 C   0  0  1  0  0  3  0  0  0  0  0  0
  155.6330  213.4960  157.2540 C   0  0  0  0  0  1  0  0  0  0  0  0
  156.9600  214.0360  156.7570 C   0  0  0  0  0  2  0  0  0  0  0  0
  161.6720  208.5370  151.0830 C   0  0  0  0  0  2  0  0  0  0  0  0
  162.6060  207.8320  150.3200 O   0  0  0  0  0  0  0  0  0  0  0  0
  163.0270  206.9580  147.7340 O   0  0  0  0  0  0  0  0  0  0  0  0
  161.9200  207.7020  148.7740 P   0  0  2  0  0  0  0  0  0  0  0  0
  161.6140  209.0870  148.2500 O   0  0  0  0  0  1  0  0  0  0  0  0
  160.4980  206.7770  148.8180 O   0  0  0  0  0  0  0  0  0  0  0  0
  160.8540  205.5150  148.3390 C   0  0  0  0  0  1  0  0  0  0  0  0
  1  2  1  0  0  0  0
  2  4  2  0  0  0  0
  3  5  2  0  0  0  0
  4  9  1  0  0  0  0
  5  4  1  0  0  0  0
  6  3  1  0  0  0  0
  6  1  2  0  0  0  0
  9  8  1  0  0  0  0
  9  7  1  1  0  0  0
 10  5  1  0  0  0  0
 11 18  1  0  0  0  0
 12 17  1  0  0  0  0
 13 15  1  0  0  0  0
 14 11  1  6  0  0  0
 15 18  2  0  0  0  0
 15 21  1  0  0  0  0
 16 12  1  0  0  0  0
 16 19  1  0  0  0  0
 17 14  1  0  0  0  0
 17 13  1  1  0  0  0
 19 10  1  1  0  0  0
 19 14  1  0  0  0  0
 21 20  1  0  0  0  0
 22  3  1  0  0  0  0
 23 22  1  0  0  0  0
 25 24  2  6  0  0  0
 25 27  1  0  0  0  0
 25 23  1  0  0  0  0
 26 25  1  0  0  0  0
 28 27  1  0  0  0  0
M  END
>  <MODEL>
9

>  <REMARK>
 VINA RESULT:      -6.3      4.110      9.185
  Name = 
  8 active torsions:
  status: ('A' for Active; 'I' for Inactive)
    1  A    between atoms: O_3  and  C_17
    2  A    between atoms: O_3  and  P_19
    3  A    between atoms: C_7  and  C_17
    4  A    between atoms: C_13  and  C_14
    5  A    between atoms: C_15  and  C_27
    6  A    between atoms: C_16  and  C_21
    7  A    between atoms: C_16  and  C_25
    8  A    between atoms: P_19  and  O_26
                            x       y       z     vdW  Elec       q    Type
                         _______ _______ _______ _____ _____    ______ ____

>  <TORSDO>
F 8

$$$$
