=
 OpenBabel11072414163D

 34 38  0  0  1  0  0  0  0  0999 V2000
  161.3250  205.3410  153.5290 O   0  0  0  0  0  0  0  0  0  0  0  0
  161.2150  205.0900  152.3000 C   0  0  0  0  0  0  0  0  0  0  0  0
  160.8000  203.1400  148.1160 C   0  0  2  0  0  3  0  0  0  0  0  0
  161.0180  203.9070  150.4070 C   0  0  0  0  0  0  0  0  0  0  0  0
  161.2300  203.7650  151.7980 N   0  0  0  0  0  2  0  0  0  0  0  0
  161.0600  206.1470  151.2560 C   0  0  2  0  0  3  0  0  0  0  0  0
  161.9940  204.4010  147.5410 S   0  0  0  0  0  0  0  0  0  0  0  0
  160.6360  206.7510  147.9420 C   0  0  0  0  0  1  0  0  0  0  0  0
  161.4920  205.7510  148.6920 C   0  0  1  0  0  3  0  0  0  0  0  0
  161.0140  202.8790  149.5710 C   0  0  0  0  0  3  0  0  0  0  0  0
  160.7620  205.3180  149.9820 C   0  0  1  0  0  3  0  0  0  0  0  0
  161.6230  199.5750  147.2940 N   0  0  0  0  0  0  0  0  0  0  0  0
  161.1740  199.4300  145.9420 C   0  0  0  0  0  0  0  0  0  0  0  0
  160.5500  200.5820  145.2070 C   0  0  0  0  0  2  0  0  0  0  0  0
  161.5080  200.6950  147.9400 C   0  0  0  0  0  3  0  0  0  0  0  0
  160.4640  201.8250  146.0490 C   0  0  0  0  0  3  0  0  0  0  0  0
  160.9070  201.8820  147.3120 C   0  0  0  0  0  0  0  0  0  0  0  0
  161.3040  198.3220  145.3600 O   0  0  0  0  0  0  0  0  0  0  0  0
  162.3560  206.9580  151.1850 C   0  0  0  0  0  2  0  0  0  0  0  0
  162.0740  208.4500  151.2340 C   0  0  0  0  0  2  0  0  0  0  0  0
  160.8110  208.7250  152.0320 C   0  0  0  0  0  2  0  0  0  0  0  0
  161.1100  208.7900  153.5300 C   0  0  0  0  0  2  0  0  0  0  0  0
  161.8520  210.7980  154.9270 C   0  0  0  0  0  1  0  0  0  0  0  0
  160.2940  213.7240  156.5790 O   0  0  0  0  0  0  0  0  0  0  0  0
  158.4790  210.6700  155.6320 C   0  0  1  0  0  3  0  0  0  0  0  0
  160.6740  210.0750  154.2720 C   0  0  1  0  0  0  0  0  0  0  0  0
  159.8280  208.7290  156.1910 C   0  0  0  0  0  2  0  0  0  0  0  0
  160.1070  210.9990  153.1780 C   0  0  0  0  0  2  0  0  0  0  0  0
  159.6640  212.8770  155.8950 C   0  0  0  0  0  0  0  0  0  0  0  0
  159.6320  213.0010  154.5000 O   0  0  0  0  0  0  0  0  0  0  0  0
  157.9220  211.2670  154.3460 C   0  0  0  0  0  2  0  0  0  0  0  0
  159.6280  209.7350  155.3360 C   0  0  0  0  0  0  0  0  0  0  0  0
  159.0550  212.0090  153.6440 C   0  0  2  0  0  3  0  0  0  0  0  0
  158.9040  211.7840  156.5940 C   0  0  0  0  0  2  0  0  0  0  0  0
  2  1  2  0  0  0  0
  3 17  1  6  0  0  0
  3 10  1  0  0  0  0
  4  5  1  0  0  0  0
  5  2  1  0  0  0  0
  6 19  1  6  0  0  0
  6  2  1  0  0  0  0
  7  3  1  0  0  0  0
  7  9  1  0  0  0  0
  9  8  1  6  0  0  0
  9 11  1  0  0  0  0
 10  4  2  0  0  0  0
 11  4  1  1  0  0  0
 11  6  1  0  0  0  0
 12 15  2  0  0  0  0
 13 12  1  0  0  0  0
 14 13  1  0  0  0  0
 14 16  1  0  0  0  0
 16 17  2  0  0  0  0
 17 15  1  0  0  0  0
 18 13  2  0  0  0  0
 19 20  1  0  0  0  0
 20 21  1  0  0  0  0
 21 22  1  0  0  0  0
 22 26  1  0  0  0  0
 25 31  1  6  0  0  0
 25 34  1  0  0  0  0
 26 23  1  1  0  0  0
 26 32  1  0  0  0  0
 28 26  1  0  0  0  0
 29 24  2  0  0  0  0
 29 34  1  0  0  0  0
 30 29  1  0  0  0  0
 32 25  1  0  0  0  0
 32 27  2  0  0  0  0
 33 28  1  1  0  0  0
 33 31  1  0  0  0  0
 33 30  1  0  0  0  0
M  END
>  <MODEL>
1

>  <REMARK>
 VINA RESULT:      -9.3      0.000      0.000
  Name = 
  6 active torsions:
  status: ('A' for Active; 'I' for Inactive)
    1  A    between atoms: C_5  and  C_24
    2  A    between atoms: C_5  and  C_31
    3  A    between atoms: C_7  and  C_10
    4  A    between atoms: C_10  and  C_31
    5  A    between atoms: C_11  and  C_29
    6  A    between atoms: C_16  and  C_24
                            x       y       z     vdW  Elec       q    Type
                         _______ _______ _______ _____ _____    ______ ____

>  <TORSDO>
F 6

$$$$
=
 OpenBabel11072414163D

 34 38  0  0  1  0  0  0  0  0999 V2000
  162.0670  210.7080  149.9490 O   0  0  0  0  0  0  0  0  0  0  0  0
  161.9850  209.4520  149.9720 C   0  0  0  0  0  0  0  0  0  0  0  0
  161.6840  204.9350  148.9810 C   0  0  2  0  0  3  0  0  0  0  0  0
  161.8410  207.3430  149.2290 C   0  0  0  0  0  0  0  0  0  0  0  0
  161.8250  208.6870  148.7900 N   0  0  0  0  0  2  0  0  0  0  0  0
  162.0460  208.6470  151.2290 C   0  0  2  0  0  3  0  0  0  0  0  0
  160.4910  204.8320  150.3630 S   0  0  0  0  0  0  0  0  0  0  0  0
  162.0200  205.5130  152.5360 C   0  0  0  0  0  1  0  0  0  0  0  0
  161.2270  206.1550  151.4160 C   0  0  1  0  0  3  0  0  0  0  0  0
  161.6670  206.3150  148.4110 C   0  0  0  0  0  3  0  0  0  0  0  0
  162.1110  207.1950  150.6940 C   0  0  1  0  0  3  0  0  0  0  0  0
  160.6680  201.6440  147.4970 N   0  0  0  0  0  0  0  0  0  0  0  0
  160.7880  201.8600  146.0860 C   0  0  0  0  0  0  0  0  0  0  0  0
  161.2450  203.1840  145.5430 C   0  0  0  0  0  2  0  0  0  0  0  0
  160.9410  202.5730  148.3600 C   0  0  0  0  0  3  0  0  0  0  0  0
  161.5290  204.1860  146.6290 C   0  0  0  0  0  3  0  0  0  0  0  0
  161.3920  203.9060  147.9320 C   0  0  0  0  0  0  0  0  0  0  0  0
  160.5080  200.9280  145.2880 O   0  0  0  0  0  0  0  0  0  0  0  0
  160.8000  208.9500  152.0650 C   0  0  0  0  0  2  0  0  0  0  0  0
  161.1630  209.2150  153.5160 C   0  0  0  0  0  2  0  0  0  0  0  0
  161.5970  210.6590  153.6990 C   0  0  0  0  0  2  0  0  0  0  0  0
  161.4400  211.1000  155.1550 C   0  0  0  0  0  2  0  0  0  0  0  0
  160.3410  212.9040  156.5950 C   0  0  0  0  0  1  0  0  0  0  0  0
  156.9540  214.2990  157.1410 O   0  0  0  0  0  0  0  0  0  0  0  0
  157.6210  210.9910  155.6800 C   0  0  1  0  0  3  0  0  0  0  0  0
  160.1290  211.8320  155.5240 C   0  0  1  0  0  0  0  0  0  0  0  0
  159.4000  209.9070  156.9290 C   0  0  0  0  0  2  0  0  0  0  0  0
  159.6870  212.5430  154.2310 C   0  0  0  0  0  2  0  0  0  0  0  0
  157.2230  213.3990  156.3050 C   0  0  0  0  0  0  0  0  0  0  0  0
  157.7250  213.7540  155.0460 O   0  0  0  0  0  0  0  0  0  0  0  0
  157.4400  211.4660  154.2450 C   0  0  0  0  0  2  0  0  0  0  0  0
  159.0860  210.8240  156.0100 C   0  0  0  0  0  0  0  0  0  0  0  0
  158.1830  212.7890  154.0920 C   0  0  2  0  0  3  0  0  0  0  0  0
  156.9420  211.9630  156.6510 C   0  0  0  0  0  2  0  0  0  0  0  0
  1  2  2  0  0  0  0
  2  6  1  0  0  0  0
  3 17  1  6  0  0  0
  3  7  1  0  0  0  0
  5  4  1  0  0  0  0
  5  2  1  0  0  0  0
  6 19  1  1  0  0  0
  7  9  1  0  0  0  0
  9  8  1  1  0  0  0
 10  3  1  0  0  0  0
 10  4  2  0  0  0  0
 11  4  1  6  0  0  0
 11  6  1  0  0  0  0
 11  9  1  0  0  0  0
 12 15  2  0  0  0  0
 13 12  1  0  0  0  0
 14 13  1  0  0  0  0
 14 16  1  0  0  0  0
 16 17  2  0  0  0  0
 17 15  1  0  0  0  0
 18 13  2  0  0  0  0
 19 20  1  0  0  0  0
 20 21  1  0  0  0  0
 21 22  1  0  0  0  0
 22 26  1  0  0  0  0
 25 31  1  6  0  0  0
 25 32  1  0  0  0  0
 25 34  1  0  0  0  0
 26 32  1  0  0  0  0
 26 23  1  1  0  0  0
 28 26  1  0  0  0  0
 29 34  1  0  0  0  0
 29 24  2  0  0  0  0
 30 29  1  0  0  0  0
 32 27  2  0  0  0  0
 33 28  1  1  0  0  0
 33 31  1  0  0  0  0
 33 30  1  0  0  0  0
M  END
>  <MODEL>
2

>  <REMARK>
 VINA RESULT:      -8.8      2.038      3.025
  Name = 
  6 active torsions:
  status: ('A' for Active; 'I' for Inactive)
    1  A    between atoms: C_5  and  C_24
    2  A    between atoms: C_5  and  C_31
    3  A    between atoms: C_7  and  C_10
    4  A    between atoms: C_10  and  C_31
    5  A    between atoms: C_11  and  C_29
    6  A    between atoms: C_16  and  C_24
                            x       y       z     vdW  Elec       q    Type
                         _______ _______ _______ _____ _____    ______ ____

>  <TORSDO>
F 6

$$$$
=
 OpenBabel11072414163D

 34 38  0  0  1  0  0  0  0  0999 V2000
  162.0400  210.7050  150.1420 O   0  0  0  0  0  0  0  0  0  0  0  0
  161.9600  209.4480  150.1570 C   0  0  0  0  0  0  0  0  0  0  0  0
  161.6770  204.9360  149.1380 C   0  0  2  0  0  3  0  0  0  0  0  0
  161.8280  207.3430  149.4020 C   0  0  0  0  0  0  0  0  0  0  0  0
  161.8160  208.6890  148.9700 N   0  0  0  0  0  2  0  0  0  0  0  0
  162.0040  208.6360  151.4110 C   0  0  2  0  0  3  0  0  0  0  0  0
  160.4660  204.8240  150.5040 S   0  0  0  0  0  0  0  0  0  0  0  0
  161.9650  205.4960  152.7010 C   0  0  0  0  0  1  0  0  0  0  0  0
  161.1870  206.1420  151.5730 C   0  0  1  0  0  3  0  0  0  0  0  0
  161.6670  206.3190  148.5760 C   0  0  0  0  0  3  0  0  0  0  0  0
  162.0780  207.1880  150.8690 C   0  0  1  0  0  3  0  0  0  0  0  0
  160.6730  201.6560  147.6220 N   0  0  0  0  0  0  0  0  0  0  0  0
  160.8220  201.8770  146.2150 C   0  0  0  0  0  0  0  0  0  0  0  0
  161.2990  203.2000  145.6860 C   0  0  0  0  0  2  0  0  0  0  0  0
  160.9340  202.5810  148.4940 C   0  0  0  0  0  3  0  0  0  0  0  0
  161.5660  204.1960  146.7810 C   0  0  0  0  0  3  0  0  0  0  0  0
  161.4010  203.9130  148.0800 C   0  0  0  0  0  0  0  0  0  0  0  0
  160.5540  200.9490  145.4080 O   0  0  0  0  0  0  0  0  0  0  0  0
  160.7470  208.9340  152.2320 C   0  0  0  0  0  2  0  0  0  0  0  0
  161.1030  209.3890  153.6370 C   0  0  0  0  0  2  0  0  0  0  0  0
  161.0340  210.9020  153.7380 C   0  0  0  0  0  2  0  0  0  0  0  0
  160.2950  211.3360  155.0040 C   0  0  0  0  0  2  0  0  0  0  0  0
  158.6590  212.4610  153.3930 C   0  0  0  0  0  1  0  0  0  0  0  0
  155.2230  213.8380  153.4820 O   0  0  0  0  0  0  0  0  0  0  0  0
  157.3280  213.3280  156.4530 C   0  0  1  0  0  3  0  0  0  0  0  0
  158.8870  211.9470  154.8150 C   0  0  1  0  0  0  0  0  0  0  0  0
  159.5970  214.0430  155.9610 C   0  0  0  0  0  2  0  0  0  0  0  0
  157.9080  210.7820  155.0540 C   0  0  0  0  0  2  0  0  0  0  0  0
  155.7900  213.2850  154.4590 C   0  0  0  0  0  0  0  0  0  0  0  0
  155.7830  211.8870  154.5610 O   0  0  0  0  0  0  0  0  0  0  0  0
  156.6670  212.0100  156.8320 C   0  0  0  0  0  2  0  0  0  0  0  0
  158.6740  213.0880  155.8110 C   0  0  0  0  0  0  0  0  0  0  0  0
  156.5190  211.1780  155.5630 C   0  0  2  0  0  3  0  0  0  0  0  0
  156.4100  214.1380  155.5310 C   0  0  0  0  0  2  0  0  0  0  0  0
  1  2  2  0  0  0  0
  2  6  1  0  0  0  0
  3 17  1  6  0  0  0
  3  7  1  0  0  0  0
  5  4  1  0  0  0  0
  5  2  1  0  0  0  0
  6 19  1  1  0  0  0
  7  9  1  0  0  0  0
  9  8  1  1  0  0  0
 10  3  1  0  0  0  0
 10  4  2  0  0  0  0
 11  4  1  6  0  0  0
 11  6  1  0  0  0  0
 11  9  1  0  0  0  0
 12 15  2  0  0  0  0
 13 12  1  0  0  0  0
 14 13  1  0  0  0  0
 14 16  1  0  0  0  0
 16 17  2  0  0  0  0
 17 15  1  0  0  0  0
 18 13  2  0  0  0  0
 19 20  1  0  0  0  0
 20 21  1  0  0  0  0
 21 22  1  0  0  0  0
 24 29  2  0  0  0  0
 25 34  1  6  0  0  0
 25 31  1  0  0  0  0
 26 23  1  6  0  0  0
 26 22  1  0  0  0  0
 26 28  1  0  0  0  0
 26 32  1  0  0  0  0
 29 30  1  0  0  0  0
 29 34  1  0  0  0  0
 30 33  1  0  0  0  0
 32 27  2  0  0  0  0
 32 25  1  0  0  0  0
 33 28  1  6  0  0  0
 33 31  1  0  0  0  0
M  END
>  <MODEL>
3

>  <REMARK>
 VINA RESULT:      -8.7      2.316      3.616
  Name = 
  6 active torsions:
  status: ('A' for Active; 'I' for Inactive)
    1  A    between atoms: C_5  and  C_24
    2  A    between atoms: C_5  and  C_31
    3  A    between atoms: C_7  and  C_10
    4  A    between atoms: C_10  and  C_31
    5  A    between atoms: C_11  and  C_29
    6  A    between atoms: C_16  and  C_24
                            x       y       z     vdW  Elec       q    Type
                         _______ _______ _______ _____ _____    ______ ____

>  <TORSDO>
F 6

$$$$
=
 OpenBabel11072414163D

 34 38  0  0  1  0  0  0  0  0999 V2000
  161.5920  205.9530  153.1320 O   0  0  0  0  0  0  0  0  0  0  0  0
  161.4180  205.6090  151.9330 C   0  0  0  0  0  0  0  0  0  0  0  0
  160.8180  203.3440  147.9340 C   0  0  2  0  0  3  0  0  0  0  0  0
  161.1460  204.2840  150.1470 C   0  0  0  0  0  0  0  0  0  0  0  0
  161.4400  204.2510  151.5300 N   0  0  0  0  0  2  0  0  0  0  0  0
  161.1760  206.5820  150.8250 C   0  0  2  0  0  3  0  0  0  0  0  0
  161.9430  204.5850  147.1990 S   0  0  0  0  0  0  0  0  0  0  0  0
  160.5460  206.9270  147.5070 C   0  0  0  0  0  1  0  0  0  0  0  0
  161.4710  206.0050  148.2760 C   0  0  1  0  0  3  0  0  0  0  0  0
  161.1220  203.1970  149.3890 C   0  0  0  0  0  3  0  0  0  0  0  0
  160.8280  205.6540  149.6360 C   0  0  1  0  0  3  0  0  0  0  0  0
  161.5980  199.7210  147.3660 N   0  0  0  0  0  0  0  0  0  0  0  0
  161.1550  199.4880  146.0240 C   0  0  0  0  0  0  0  0  0  0  0  0
  160.5520  200.5950  145.2060 C   0  0  0  0  0  2  0  0  0  0  0  0
  161.4940  200.8830  147.9320 C   0  0  0  0  0  3  0  0  0  0  0  0
  160.4770  201.8940  145.9610 C   0  0  0  0  0  3  0  0  0  0  0  0
  160.9130  202.0320  147.2200 C   0  0  0  0  0  0  0  0  0  0  0  0
  161.2740  198.3410  145.5190 O   0  0  0  0  0  0  0  0  0  0  0  0
  162.4430  207.4150  150.6190 C   0  0  0  0  0  2  0  0  0  0  0  0
  162.1540  208.9000  150.7630 C   0  0  0  0  0  2  0  0  0  0  0  0
  162.1190  209.2930  152.2290 C   0  0  0  0  0  2  0  0  0  0  0  0
  161.5880  210.7160  152.4040 C   0  0  0  0  0  2  0  0  0  0  0  0
  159.2210  209.9220  152.9510 C   0  0  0  0  0  1  0  0  0  0  0  0
  156.5210  210.7690  155.3400 O   0  0  0  0  0  0  0  0  0  0  0  0
  159.2680  213.0380  154.4280 C   0  0  1  0  0  3  0  0  0  0  0  0
  160.3480  210.8910  153.3100 C   0  0  1  0  0  0  0  0  0  0  0  0
  159.6480  212.9140  152.0320 C   0  0  0  0  0  2  0  0  0  0  0  0
  160.8330  210.5400  154.7290 C   0  0  0  0  0  2  0  0  0  0  0  0
  157.6490  211.3260  155.3190 C   0  0  0  0  0  0  0  0  0  0  0  0
  158.7320  210.7160  155.9670 O   0  0  0  0  0  0  0  0  0  0  0  0
  160.0880  212.7230  155.6720 C   0  0  0  0  0  2  0  0  0  0  0  0
  159.8330  212.3300  153.2190 C   0  0  0  0  0  0  0  0  0  0  0  0
  160.0720  211.2120  155.8750 C   0  0  2  0  0  3  0  0  0  0  0  0
  157.7980  212.6650  154.6520 C   0  0  0  0  0  2  0  0  0  0  0  0
  2  1  2  0  0  0  0
  3 17  1  6  0  0  0
  3 10  1  0  0  0  0
  4  5  1  0  0  0  0
  5  2  1  0  0  0  0
  6 19  1  6  0  0  0
  6  2  1  0  0  0  0
  7  3  1  0  0  0  0
  7  9  1  0  0  0  0
  9  8  1  6  0  0  0
  9 11  1  0  0  0  0
 10  4  2  0  0  0  0
 11  4  1  1  0  0  0
 11  6  1  0  0  0  0
 12 15  2  0  0  0  0
 13 12  1  0  0  0  0
 14 16  1  0  0  0  0
 14 13  1  0  0  0  0
 16 17  2  0  0  0  0
 17 15  1  0  0  0  0
 18 13  2  0  0  0  0
 19 20  1  0  0  0  0
 20 21  1  0  0  0  0
 21 22  1  0  0  0  0
 22 26  1  0  0  0  0
 25 34  1  1  0  0  0
 25 31  1  0  0  0  0
 26 23  1  6  0  0  0
 26 28  1  0  0  0  0
 27 32  2  0  0  0  0
 29 24  2  0  0  0  0
 29 30  1  0  0  0  0
 31 33  1  0  0  0  0
 32 26  1  0  0  0  0
 32 25  1  0  0  0  0
 33 28  1  6  0  0  0
 33 30  1  0  0  0  0
 34 29  1  0  0  0  0
M  END
>  <MODEL>
4

>  <REMARK>
 VINA RESULT:      -7.7      1.173      2.045
  Name = 
  6 active torsions:
  status: ('A' for Active; 'I' for Inactive)
    1  A    between atoms: C_5  and  C_24
    2  A    between atoms: C_5  and  C_31
    3  A    between atoms: C_7  and  C_10
    4  A    between atoms: C_10  and  C_31
    5  A    between atoms: C_11  and  C_29
    6  A    between atoms: C_16  and  C_24
                            x       y       z     vdW  Elec       q    Type
                         _______ _______ _______ _____ _____    ______ ____

>  <TORSDO>
F 6

$$$$
=
 OpenBabel11072414163D

 34 38  0  0  1  0  0  0  0  0999 V2000
  161.4120  205.9460  153.4070 O   0  0  0  0  0  0  0  0  0  0  0  0
  161.3000  205.6290  152.1940 C   0  0  0  0  0  0  0  0  0  0  0  0
  160.8700  203.4580  148.1220 C   0  0  2  0  0  3  0  0  0  0  0  0
  161.0940  204.3460  150.3680 C   0  0  0  0  0  0  0  0  0  0  0  0
  161.3060  204.2790  151.7650 N   0  0  0  0  0  2  0  0  0  0  0  0
  161.1520  206.6290  151.0930 C   0  0  2  0  0  3  0  0  0  0  0  0
  162.0730  204.6780  147.4790 S   0  0  0  0  0  0  0  0  0  0  0  0
  160.7310  207.0550  147.7510 C   0  0  0  0  0  1  0  0  0  0  0  0
  161.5800  206.0910  148.5550 C   0  0  1  0  0  3  0  0  0  0  0  0
  161.0830  203.2750  149.5890 C   0  0  0  0  0  3  0  0  0  0  0  0
  160.8480  205.7350  149.8670 C   0  0  1  0  0  3  0  0  0  0  0  0
  161.5780  199.8240  147.5260 N   0  0  0  0  0  0  0  0  0  0  0  0
  161.2070  199.6290  146.1570 C   0  0  0  0  0  0  0  0  0  0  0  0
  160.6840  200.7680  145.3280 C   0  0  0  0  0  2  0  0  0  0  0  0
  161.4750  200.9790  148.1090 C   0  0  0  0  0  3  0  0  0  0  0  0
  160.6030  202.0550  146.1030 C   0  0  0  0  0  3  0  0  0  0  0  0
  160.9690  202.1570  147.3870 C   0  0  0  0  0  0  0  0  0  0  0  0
  161.3220  198.4890  145.6370 O   0  0  0  0  0  0  0  0  0  0  0  0
  162.4530  207.4270  150.9790 C   0  0  0  0  0  2  0  0  0  0  0  0
  162.1780  208.8840  150.6480 C   0  0  0  0  0  2  0  0  0  0  0  0
  162.3520  209.7500  151.8830 C   0  0  0  0  0  2  0  0  0  0  0  0
  161.5660  209.1850  153.0670 C   0  0  0  0  0  2  0  0  0  0  0  0
  160.6190  211.5450  153.3370 C   0  0  0  0  0  1  0  0  0  0  0  0
  159.1390  213.6200  156.0240 O   0  0  0  0  0  0  0  0  0  0  0  0
  161.2530  210.6700  156.6120 C   0  0  1  0  0  3  0  0  0  0  0  0
  160.9150  210.2110  154.0240 C   0  0  1  0  0  0  0  0  0  0  0  0
  163.1260  210.7030  155.0650 C   0  0  0  0  0  2  0  0  0  0  0  0
  159.5680  209.5830  154.4310 C   0  0  0  0  0  2  0  0  0  0  0  0
  159.5010  212.4250  156.1700 C   0  0  0  0  0  0  0  0  0  0  0  0
  158.6360  211.3900  155.7890 O   0  0  0  0  0  0  0  0  0  0  0  0
  160.0750  209.7390  156.8650 C   0  0  0  0  0  2  0  0  0  0  0  0
  161.8250  210.4490  155.2310 C   0  0  0  0  0  0  0  0  0  0  0  0
  159.0230  210.0120  155.7960 C   0  0  2  0  0  3  0  0  0  0  0  0
  160.8290  212.1290  156.8100 C   0  0  0  0  0  2  0  0  0  0  0  0
  2  1  2  0  0  0  0
  3 17  1  6  0  0  0
  3 10  1  0  0  0  0
  4  5  1  0  0  0  0
  5  2  1  0  0  0  0
  6 19  1  6  0  0  0
  6  2  1  0  0  0  0
  7  3  1  0  0  0  0
  7  9  1  0  0  0  0
  9  8  1  6  0  0  0
  9 11  1  0  0  0  0
 10  4  2  0  0  0  0
 11  4  1  1  0  0  0
 11  6  1  0  0  0  0
 12 15  2  0  0  0  0
 13 12  1  0  0  0  0
 14 16  1  0  0  0  0
 14 13  1  0  0  0  0
 16 17  2  0  0  0  0
 17 15  1  0  0  0  0
 18 13  2  0  0  0  0
 20 19  1  0  0  0  0
 20 21  1  0  0  0  0
 21 22  1  0  0  0  0
 22 26  1  0  0  0  0
 24 29  2  0  0  0  0
 25 34  1  6  0  0  0
 25 31  1  0  0  0  0
 26 23  1  6  0  0  0
 26 28  1  0  0  0  0
 26 32  1  0  0  0  0
 27 32  2  0  0  0  0
 29 34  1  0  0  0  0
 30 33  1  0  0  0  0
 30 29  1  0  0  0  0
 32 25  1  0  0  0  0
 33 28  1  6  0  0  0
 33 31  1  0  0  0  0
M  END
>  <MODEL>
5

>  <REMARK>
 VINA RESULT:      -7.6      0.863      1.528
  Name = 
  6 active torsions:
  status: ('A' for Active; 'I' for Inactive)
    1  A    between atoms: C_5  and  C_24
    2  A    between atoms: C_5  and  C_31
    3  A    between atoms: C_7  and  C_10
    4  A    between atoms: C_10  and  C_31
    5  A    between atoms: C_11  and  C_29
    6  A    between atoms: C_16  and  C_24
                            x       y       z     vdW  Elec       q    Type
                         _______ _______ _______ _____ _____    ______ ____

>  <TORSDO>
F 6

$$$$
=
 OpenBabel11072414163D

 34 38  0  0  1  0  0  0  0  0999 V2000
  162.0460  209.5050  148.8230 O   0  0  0  0  0  0  0  0  0  0  0  0
  161.9540  208.2600  148.9940 C   0  0  0  0  0  0  0  0  0  0  0  0
  161.6170  203.6600  148.5460 C   0  0  2  0  0  3  0  0  0  0  0  0
  161.7940  206.0790  148.5070 C   0  0  0  0  0  0  0  0  0  0  0  0
  161.7890  207.3620  147.9120 N   0  0  0  0  0  2  0  0  0  0  0  0
  162.0060  207.6100  150.3390 C   0  0  2  0  0  3  0  0  0  0  0  0
  160.4210  203.7320  149.9280 S   0  0  0  0  0  0  0  0  0  0  0  0
  161.9540  204.6540  152.0080 C   0  0  0  0  0  1  0  0  0  0  0  0
  161.1670  205.1640  150.8180 C   0  0  1  0  0  3  0  0  0  0  0  0
  161.6120  204.9630  147.8160 C   0  0  0  0  0  3  0  0  0  0  0  0
  162.0600  206.1050  149.9790 C   0  0  1  0  0  3  0  0  0  0  0  0
  161.3860  200.1220  147.3240 N   0  0  0  0  0  0  0  0  0  0  0  0
  160.8050  200.2530  146.0220 C   0  0  0  0  0  0  0  0  0  0  0  0
  160.4540  201.6030  145.4640 C   0  0  0  0  0  2  0  0  0  0  0  0
  161.6280  201.1520  148.0760 C   0  0  0  0  0  3  0  0  0  0  0  0
  160.7730  202.7220  146.4190 C   0  0  0  0  0  3  0  0  0  0  0  0
  161.3170  202.5170  147.6260 C   0  0  0  0  0  0  0  0  0  0  0  0
  160.5860  199.2240  145.3320 O   0  0  0  0  0  0  0  0  0  0  0  0
  160.7620  208.0200  151.1300 C   0  0  0  0  0  2  0  0  0  0  0  0
  161.1170  208.3810  152.5620 C   0  0  0  0  0  2  0  0  0  0  0  0
  161.1580  209.8900  152.7340 C   0  0  0  0  0  2  0  0  0  0  0  0
  161.4030  210.2700  154.1950 C   0  0  0  0  0  2  0  0  0  0  0  0
  160.9470  212.0440  155.9790 C   0  0  0  0  0  1  0  0  0  0  0  0
  158.0580  213.9750  157.2590 O   0  0  0  0  0  0  0  0  0  0  0  0
  157.7770  210.8240  155.3850 C   0  0  1  0  0  3  0  0  0  0  0  0
  160.3500  211.1840  154.8640 C   0  0  1  0  0  0  0  0  0  0  0  0
  159.4610  209.2640  156.1810 C   0  0  0  0  0  2  0  0  0  0  0  0
  159.8720  212.1310  153.7470 C   0  0  0  0  0  2  0  0  0  0  0  0
  157.9980  213.1590  156.3040 C   0  0  0  0  0  0  0  0  0  0  0  0
  158.3600  213.5750  155.0160 O   0  0  0  0  0  0  0  0  0  0  0  0
  157.4790  211.5110  154.0580 C   0  0  0  0  0  2  0  0  0  0  0  0
  159.2070  210.3380  155.4280 C   0  0  0  0  0  0  0  0  0  0  0  0
  158.4500  212.6760  153.9050 C   0  0  2  0  0  3  0  0  0  0  0  0
  157.4780  211.7700  156.5520 C   0  0  0  0  0  2  0  0  0  0  0  0
  1  2  2  0  0  0  0
  2  6  1  0  0  0  0
  3 17  1  6  0  0  0
  3  7  1  0  0  0  0
  5  4  1  0  0  0  0
  5  2  1  0  0  0  0
  6 19  1  1  0  0  0
  7  9  1  0  0  0  0
  9  8  1  1  0  0  0
 10  4  2  0  0  0  0
 10  3  1  0  0  0  0
 11  4  1  6  0  0  0
 11  6  1  0  0  0  0
 11  9  1  0  0  0  0
 12 15  2  0  0  0  0
 13 12  1  0  0  0  0
 14 13  1  0  0  0  0
 14 16  1  0  0  0  0
 16 17  2  0  0  0  0
 17 15  1  0  0  0  0
 18 13  2  0  0  0  0
 19 20  1  0  0  0  0
 20 21  1  0  0  0  0
 21 22  1  0  0  0  0
 22 26  1  0  0  0  0
 25 31  1  6  0  0  0
 25 32  1  0  0  0  0
 25 34  1  0  0  0  0
 26 32  1  0  0  0  0
 26 23  1  1  0  0  0
 28 26  1  0  0  0  0
 29 34  1  0  0  0  0
 29 24  2  0  0  0  0
 30 29  1  0  0  0  0
 32 27  2  0  0  0  0
 33 28  1  1  0  0  0
 33 31  1  0  0  0  0
 33 30  1  0  0  0  0
M  END
>  <MODEL>
6

>  <REMARK>
 VINA RESULT:      -7.3      1.871      2.359
  Name = 
  6 active torsions:
  status: ('A' for Active; 'I' for Inactive)
    1  A    between atoms: C_5  and  C_24
    2  A    between atoms: C_5  and  C_31
    3  A    between atoms: C_7  and  C_10
    4  A    between atoms: C_10  and  C_31
    5  A    between atoms: C_11  and  C_29
    6  A    between atoms: C_16  and  C_24
                            x       y       z     vdW  Elec       q    Type
                         _______ _______ _______ _____ _____    ______ ____

>  <TORSDO>
F 6

$$$$
=
 OpenBabel11072414163D

 34 38  0  0  1  0  0  0  0  0999 V2000
  161.2080  204.9930  153.7920 O   0  0  0  0  0  0  0  0  0  0  0  0
  161.1250  206.2500  153.7890 C   0  0  0  0  0  0  0  0  0  0  0  0
  160.1380  210.7050  154.6020 C   0  0  2  0  0  3  0  0  0  0  0  0
  160.4840  208.3140  154.3820 C   0  0  0  0  0  0  0  0  0  0  0  0
  160.2290  206.9460  154.6370 N   0  0  0  0  0  0  0  0  0  0  0  0
  161.9490  207.1270  152.9030 C   0  0  2  0  0  3  0  0  0  0  0  0
  160.0940  210.9030  152.7840 S   0  0  0  0  0  0  0  0  0  0  0  0
  162.6740  210.3320  152.0480 C   0  0  0  0  0  1  0  0  0  0  0  0
  161.3670  209.6360  152.3720 C   0  0  1  0  0  3  0  0  0  0  0  0
  159.8010  209.2940  154.9560 C   0  0  0  0  0  2  0  0  0  0  0  0
  161.6190  208.5430  153.4340 C   0  0  1  0  0  3  0  0  0  0  0  0
  157.0770  211.9810  156.3520 N   0  0  0  0  0  0  0  0  0  0  0  0
  157.3730  213.3630  156.5830 C   0  0  0  0  0  0  0  0  0  0  0  0
  158.6760  213.9600  156.1300 C   0  0  0  0  0  2  0  0  0  0  0  0
  157.9130  211.1890  155.7550 C   0  0  0  0  0  3  0  0  0  0  0  0
  159.5680  212.9540  155.4550 C   0  0  0  0  0  3  0  0  0  0  0  0
  159.2180  211.6740  155.2780 C   0  0  0  0  0  0  0  0  0  0  0  0
  156.5310  214.0900  157.1700 O   0  0  0  0  0  0  0  0  0  0  0  0
  161.5270  206.8890  151.4510 C   0  0  0  0  0  2  0  0  0  0  0  0
  162.7240  206.9410  150.5160 C   0  0  0  0  0  2  0  0  0  0  0  0
  162.3300  207.5580  149.1850 C   0  0  0  0  0  2  0  0  0  0  0  0
  160.9500  207.0730  148.7410 C   0  0  0  0  0  2  0  0  0  0  0  0
  159.5320  206.0620  146.8700 C   0  0  0  0  0  1  0  0  0  0  0  0
  159.9430  203.6000  144.1340 O   0  0  0  0  0  0  0  0  0  0  0  0
  162.1060  203.7790  147.1020 C   0  0  1  0  0  3  0  0  0  0  0  0
  160.9070  206.1010  147.5390 C   0  0  1  0  0  0  0  0  0  0  0  0
  160.7340  204.1450  149.0730 C   0  0  0  0  0  2  0  0  0  0  0  0
  161.9080  206.6770  146.5190 C   0  0  0  0  0  2  0  0  0  0  0  0
  160.8630  203.9480  144.9180 C   0  0  0  0  0  0  0  0  0  0  0  0
  161.5820  205.1230  144.6600 O   0  0  0  0  0  0  0  0  0  0  0  0
  163.2060  204.5550  146.3900 C   0  0  0  0  0  2  0  0  0  0  0  0
  161.2950  204.6920  147.9910 C   0  0  0  0  0  0  0  0  0  0  0  0
  162.5470  205.6590  145.5710 C   0  0  2  0  0  3  0  0  0  0  0  0
  161.2140  203.0630  146.0820 C   0  0  0  0  0  2  0  0  0  0  0  0
  2  1  2  0  0  0  0
  2  5  1  0  0  0  0
  3 10  1  0  0  0  0
  3 17  1  1  0  0  0
  4  5  2  0  0  0  0
  4 10  1  0  0  0  0
  6 19  1  6  0  0  0
  6 11  1  0  0  0  0
  6  2  1  0  0  0  0
  7  3  1  0  0  0  0
  9  8  1  1  0  0  0
  9  7  1  0  0  0  0
  9 11  1  0  0  0  0
 11  4  1  6  0  0  0
 12 13  1  0  0  0  0
 13 18  2  0  0  0  0
 14 13  1  0  0  0  0
 15 12  2  0  0  0  0
 16 14  1  0  0  0  0
 17 16  2  0  0  0  0
 17 15  1  0  0  0  0
 20 19  1  0  0  0  0
 21 20  1  0  0  0  0
 22 21  1  0  0  0  0
 24 29  2  0  0  0  0
 25 34  1  6  0  0  0
 25 32  1  0  0  0  0
 26 23  1  6  0  0  0
 26 32  1  0  0  0  0
 26 22  1  0  0  0  0
 28 26  1  0  0  0  0
 29 34  1  0  0  0  0
 30 29  1  0  0  0  0
 30 33  1  0  0  0  0
 31 25  1  0  0  0  0
 32 27  2  0  0  0  0
 33 31  1  1  0  0  0
 33 28  1  0  0  0  0
M  END
>  <MODEL>
7

>  <REMARK>
 VINA RESULT:      -6.9      3.273     10.657
  Name = 
  6 active torsions:
  status: ('A' for Active; 'I' for Inactive)
    1  A    between atoms: C_5  and  C_24
    2  A    between atoms: C_5  and  C_31
    3  A    between atoms: C_7  and  C_10
    4  A    between atoms: C_10  and  C_31
    5  A    between atoms: C_11  and  C_29
    6  A    between atoms: C_16  and  C_24
                            x       y       z     vdW  Elec       q    Type
                         _______ _______ _______ _____ _____    ______ ____

>  <TORSDO>
F 6

$$$$
=
 OpenBabel11072414163D

 34 38  0  0  1  0  0  0  0  0999 V2000
  161.9110  207.8390  148.9250 O   0  0  0  0  0  0  0  0  0  0  0  0
  161.5880  208.0320  150.1260 C   0  0  0  0  0  0  0  0  0  0  0  0
  160.4110  209.7810  154.2540 C   0  0  2  0  0  3  0  0  0  0  0  0
  161.0360  209.1240  152.0040 C   0  0  0  0  0  0  0  0  0  0  0  0
  161.4720  209.3330  150.6750 N   0  0  0  0  0  0  0  0  0  0  0  0
  161.2980  206.9250  151.0870 C   0  0  2  0  0  3  0  0  0  0  0  0
  161.5360  208.5300  154.9720 S   0  0  0  0  0  0  0  0  0  0  0  0
  160.3470  206.1630  154.2560 C   0  0  0  0  0  1  0  0  0  0  0  0
  161.2810  207.2190  153.7010 C   0  0  1  0  0  3  0  0  0  0  0  0
  160.8560  210.1120  152.8670 C   0  0  0  0  0  2  0  0  0  0  0  0
  160.7620  207.6880  152.3240 C   0  0  1  0  0  3  0  0  0  0  0  0
  159.4510  213.2390  155.3400 N   0  0  0  0  0  0  0  0  0  0  0  0
  160.0890  213.3810  156.6140 C   0  0  0  0  0  0  0  0  0  0  0  0
  160.9190  212.2690  157.1900 C   0  0  0  0  0  2  0  0  0  0  0  0
  159.5540  212.1540  154.6360 C   0  0  0  0  0  3  0  0  0  0  0  0
  160.9660  211.0610  156.2950 C   0  0  0  0  0  3  0  0  0  0  0  0
  160.3380  211.0050  155.1130 C   0  0  0  0  0  0  0  0  0  0  0  0
  159.9570  214.4530  157.2600 O   0  0  0  0  0  0  0  0  0  0  0  0
  162.5910  206.1480  151.3430 C   0  0  0  0  0  2  0  0  0  0  0  0
  162.3040  204.6880  151.6500 C   0  0  0  0  0  2  0  0  0  0  0  0
  161.1380  204.1910  150.8130 C   0  0  0  0  0  2  0  0  0  0  0  0
  161.6310  203.4500  149.5700 C   0  0  0  0  0  2  0  0  0  0  0  0
  160.2100  205.0990  148.2290 C   0  0  0  0  0  1  0  0  0  0  0  0
  160.0860  206.4520  144.7840 O   0  0  0  0  0  0  0  0  0  0  0  0
  161.7570  203.3130  145.7180 C   0  0  1  0  0  3  0  0  0  0  0  0
  161.4080  204.1480  148.2080 C   0  0  1  0  0  0  0  0  0  0  0  0
  160.3540  202.0900  147.2780 C   0  0  0  0  0  2  0  0  0  0  0  0
  162.6740  204.9950  147.9780 C   0  0  0  0  0  2  0  0  0  0  0  0
  160.9560  205.6430  145.1970 C   0  0  0  0  0  0  0  0  0  0  0  0
  162.0710  206.1260  145.8950 O   0  0  0  0  0  0  0  0  0  0  0  0
  163.1450  203.9390  145.7710 C   0  0  0  0  0  2  0  0  0  0  0  0
  161.2100  203.1010  147.1100 C   0  0  0  0  0  0  0  0  0  0  0  0
  163.0330  205.2650  146.5140 C   0  0  2  0  0  3  0  0  0  0  0  0
  160.8150  204.1810  144.8770 C   0  0  0  0  0  2  0  0  0  0  0  0
  1  2  2  0  0  0  0
  2  5  1  0  0  0  0
  2  6  1  0  0  0  0
  3  7  1  0  0  0  0
  3 17  1  1  0  0  0
  4 10  1  0  0  0  0
  5  4  2  0  0  0  0
  6 19  1  1  0  0  0
  6 11  1  0  0  0  0
  9  8  1  1  0  0  0
  9  7  1  0  0  0  0
 10  3  1  0  0  0  0
 11  4  1  6  0  0  0
 11  9  1  0  0  0  0
 12 13  1  0  0  0  0
 13 14  1  0  0  0  0
 13 18  2  0  0  0  0
 15 17  1  0  0  0  0
 15 12  2  0  0  0  0
 16 14  1  0  0  0  0
 17 16  2  0  0  0  0
 19 20  1  0  0  0  0
 21 20  1  0  0  0  0
 22 21  1  0  0  0  0
 24 29  2  0  0  0  0
 25 34  1  6  0  0  0
 25 31  1  0  0  0  0
 25 32  1  0  0  0  0
 26 23  1  1  0  0  0
 26 22  1  0  0  0  0
 28 26  1  0  0  0  0
 29 30  1  0  0  0  0
 30 33  1  0  0  0  0
 32 27  2  0  0  0  0
 32 26  1  0  0  0  0
 33 31  1  6  0  0  0
 33 28  1  0  0  0  0
 34 29  1  0  0  0  0
M  END
>  <MODEL>
8

>  <REMARK>
 VINA RESULT:      -6.6      3.599     10.604
  Name = 
  6 active torsions:
  status: ('A' for Active; 'I' for Inactive)
    1  A    between atoms: C_5  and  C_24
    2  A    between atoms: C_5  and  C_31
    3  A    between atoms: C_7  and  C_10
    4  A    between atoms: C_10  and  C_31
    5  A    between atoms: C_11  and  C_29
    6  A    between atoms: C_16  and  C_24
                            x       y       z     vdW  Elec       q    Type
                         _______ _______ _______ _____ _____    ______ ____

>  <TORSDO>
F 6

$$$$
=
 OpenBabel11072414163D

 34 38  0  0  1  0  0  0  0  0999 V2000
  161.9100  209.3800  149.2270 O   0  0  0  0  0  0  0  0  0  0  0  0
  161.8380  208.1250  149.3060 C   0  0  0  0  0  0  0  0  0  0  0  0
  161.5530  203.5670  148.5170 C   0  0  2  0  0  3  0  0  0  0  0  0
  161.6970  205.9850  148.6590 C   0  0  0  0  0  0  0  0  0  0  0  0
  161.6630  207.3080  148.1620 N   0  0  0  0  0  2  0  0  0  0  0  0
  161.9270  207.3760  150.5960 C   0  0  2  0  0  3  0  0  0  0  0  0
  160.3860  203.5170  149.9240 S   0  0  0  0  0  0  0  0  0  0  0  0
  161.9480  204.3020  152.0380 C   0  0  0  0  0  1  0  0  0  0  0  0
  161.1310  204.8890  150.9050 C   0  0  1  0  0  3  0  0  0  0  0  0
  161.5160  204.9210  147.8890 C   0  0  0  0  0  3  0  0  0  0  0  0
  161.9930  205.9030  150.1230 C   0  0  1  0  0  3  0  0  0  0  0  0
  161.2390  200.1170  147.0800 N   0  0  0  0  0  0  0  0  0  0  0  0
  160.7210  200.3470  145.7650 C   0  0  0  0  0  0  0  0  0  0  0  0
  160.4480  201.7410  145.2740 C   0  0  0  0  0  2  0  0  0  0  0  0
  161.4880  201.0910  147.9010 C   0  0  0  0  0  3  0  0  0  0  0  0
  160.7680  202.7880  146.3060 C   0  0  0  0  0  3  0  0  0  0  0  0
  161.2500  202.4920  147.5200 C   0  0  0  0  0  0  0  0  0  0  0  0
  160.4930  199.3690  145.0060 O   0  0  0  0  0  0  0  0  0  0  0  0
  160.6940  207.7070  151.4400 C   0  0  0  0  0  2  0  0  0  0  0  0
  161.0710  208.5210  152.6660 C   0  0  0  0  0  2  0  0  0  0  0  0
  160.7810  209.9940  152.4350 C   0  0  0  0  0  2  0  0  0  0  0  0
  161.0610  210.8140  153.6940 C   0  0  0  0  0  2  0  0  0  0  0  0
  158.6540  210.3270  154.4040 C   0  0  0  0  0  1  0  0  0  0  0  0
  156.0060  211.9410  156.4290 O   0  0  0  0  0  0  0  0  0  0  0  0
  158.8720  213.7220  154.9670 C   0  0  1  0  0  3  0  0  0  0  0  0
  159.8320  211.2970  154.4990 C   0  0  1  0  0  0  0  0  0  0  0  0
  159.2440  212.9230  152.7040 C   0  0  0  0  0  2  0  0  0  0  0  0
  160.2990  211.3260  155.9670 C   0  0  0  0  0  2  0  0  0  0  0  0
  157.1630  212.4100  156.2720 C   0  0  0  0  0  0  0  0  0  0  0  0
  158.2110  211.9470  157.0780 O   0  0  0  0  0  0  0  0  0  0  0  0
  159.6750  213.7200  156.2620 C   0  0  0  0  0  2  0  0  0  0  0  0
  159.3970  212.6800  154.0080 C   0  0  0  0  0  0  0  0  0  0  0  0
  159.5760  212.3270  156.8720 C   0  0  2  0  0  3  0  0  0  0  0  0
  157.3840  213.5040  155.2640 C   0  0  0  0  0  2  0  0  0  0  0  0
  1  2  2  0  0  0  0
  2  6  1  0  0  0  0
  3 17  1  6  0  0  0
  3  7  1  0  0  0  0
  5  4  1  0  0  0  0
  5  2  1  0  0  0  0
  6 19  1  1  0  0  0
  7  9  1  0  0  0  0
  9  8  1  1  0  0  0
 10  3  1  0  0  0  0
 10  4  2  0  0  0  0
 11  4  1  6  0  0  0
 11  6  1  0  0  0  0
 11  9  1  0  0  0  0
 12 15  2  0  0  0  0
 13 12  1  0  0  0  0
 14 13  1  0  0  0  0
 14 16  1  0  0  0  0
 16 17  2  0  0  0  0
 17 15  1  0  0  0  0
 18 13  2  0  0  0  0
 19 20  1  0  0  0  0
 21 20  1  0  0  0  0
 21 22  1  0  0  0  0
 22 26  1  0  0  0  0
 25 34  1  1  0  0  0
 25 31  1  0  0  0  0
 26 23  1  6  0  0  0
 26 28  1  0  0  0  0
 27 32  2  0  0  0  0
 29 24  2  0  0  0  0
 29 30  1  0  0  0  0
 31 33  1  0  0  0  0
 32 26  1  0  0  0  0
 32 25  1  0  0  0  0
 33 28  1  6  0  0  0
 33 30  1  0  0  0  0
 34 29  1  0  0  0  0
M  END
>  <MODEL>
9

>  <REMARK>
 VINA RESULT:      -6.5      2.019      2.963
  Name = 
  6 active torsions:
  status: ('A' for Active; 'I' for Inactive)
    1  A    between atoms: C_5  and  C_24
    2  A    between atoms: C_5  and  C_31
    3  A    between atoms: C_7  and  C_10
    4  A    between atoms: C_10  and  C_31
    5  A    between atoms: C_11  and  C_29
    6  A    between atoms: C_16  and  C_24
                            x       y       z     vdW  Elec       q    Type
                         _______ _______ _______ _____ _____    ______ ____

>  <TORSDO>
F 6

$$$$
