=
 OpenBabel11072412123D

 31 32  0  0  1  0  0  0  0  0999 V2000
  160.5840  207.1710  154.4470 C   0  0  0  0  0  3  0  0  0  0  0  0
  161.4040  207.7610  156.6520 C   0  0  0  0  0  3  0  0  0  0  0  0
  160.2480  207.2070  155.8950 C   0  0  0  0  0  2  0  0  0  0  0  0
  160.7820  209.6540  154.2780 C   0  0  0  0  0  0  0  0  0  0  0  0
  160.8360  208.2660  153.7150 C   0  0  0  0  0  0  0  0  0  0  0  0
  161.8300  209.0100  156.4750 C   0  0  0  0  0  3  0  0  0  0  0  0
  161.2570  209.9770  155.5140 C   0  0  0  0  0  0  0  0  0  0  0  0
  161.2480  211.6370  156.1080 Cl  0  0  0  0  0  0  0  0  0  0  0  0
  158.8380  212.1330  152.2860 C   0  0  0  0  0  0  0  0  0  0  0  0
  157.6610  212.9370  151.8480 C   0  0  0  0  0  1  0  0  0  0  0  0
  160.9160  211.2440  152.4220 N   0  0  0  0  0  0  0  0  0  0  0  0
  158.8140  211.1710  153.4200 C   0  0  0  0  0  2  0  0  0  0  0  0
  160.0520  212.1430  151.7450 C   0  0  0  0  0  0  0  0  0  0  0  0
  160.2340  210.7030  153.3800 C   0  0  0  0  0  0  0  0  0  0  0  0
  160.3810  214.3340  150.6450 O   0  0  0  0  0  1  0  0  0  0  0  0
  160.5020  212.9510  150.5980 C   0  0  0  0  0  0  0  0  0  0  0  0
  160.9970  212.4100  149.5740 O   0  0  0  0  0  0  0  0  0  0  0  0
  160.9660  207.0130  151.6010 C   0  0  0  0  0  0  0  0  0  0  0  0
  161.1630  208.1150  152.2800 C   0  0  0  0  0  3  0  0  0  0  0  0
  160.7700  205.9170  150.9220 C   0  0  0  0  0  3  0  0  0  0  0  0
  161.6120  205.5920  149.7300 C   0  0  2  0  0  3  0  0  0  0  0  0
  160.4680  206.9590  148.1200 O   0  0  0  0  0  0  0  0  0  0  0  0
  162.7130  207.3550  148.3490 O   0  0  0  0  0  1  0  0  0  0  0  0
  161.5540  206.6720  148.6920 C   0  0  0  0  0  0  0  0  0  0  0  0
  161.2260  204.2700  149.1500 C   0  0  0  0  0  0  0  0  0  0  0  0
  160.6160  203.4360  149.8710 O   0  0  0  0  0  0  0  0  0  0  0  0
  161.5570  203.9500  147.7940 N   0  0  0  0  0  2  0  0  0  0  0  0
  161.2560  202.6570  147.1950 C   0  0  0  0  0  2  0  0  0  0  0  0
  161.2650  202.7550  145.6780 C   0  0  2  0  0  3  0  0  0  0  0  0
  161.2280  204.2090  145.2470 C   0  0  0  0  0  1  0  0  0  0  0  0
  160.1490  202.0960  145.1650 O   0  0  0  0  0  1  0  0  0  0  0  0
  1  3  1  0  0  0  0
  3  2  1  0  0  0  0
  4  7  2  0  0  0  0
  5  4  1  0  0  0  0
  5  1  2  0  0  0  0
  6  2  2  0  0  0  0
  7  8  1  0  0  0  0
  7  6  1  0  0  0  0
  9 12  1  0  0  0  0
 10  9  1  0  0  0  0
 11 14  2  0  0  0  0
 13  9  2  0  0  0  0
 13 11  1  0  0  0  0
 14 12  1  0  0  0  0
 14  4  1  0  0  0  0
 16 15  1  0  0  0  0
 16 13  1  0  0  0  0
 17 16  2  0  0  0  0
 18 19  2  0  0  0  0
 19  5  1  0  0  0  0
 20 18  2  0  0  0  0
 21 20  1  1  0  0  0
 22 24  2  0  0  0  0
 23 24  1  0  0  0  0
 24 21  1  0  0  0  0
 25 21  1  0  0  0  0
 25 26  2  0  0  0  0
 27 25  1  0  0  0  0
 28 27  1  0  0  0  0
 29 30  1  1  0  0  0
 29 28  1  0  0  0  0
 31 29  1  0  0  0  0
M  END
>  <MODEL>
1

>  <REMARK>
 VINA RESULT:      -7.3      0.000      0.000
  Name = 
  8 active torsions:
  status: ('A' for Active; 'I' for Inactive)
    1  A    between atoms: C_1  and  C_12
    2  A    between atoms: C_8  and  C_16
    3  A    between atoms: C_8  and  C_28
    4  A    between atoms: C_8  and  C_30
    5  A    between atoms: C_10  and  C_29
    6  A    between atoms: C_11  and  C_26
    7  A    between atoms: C_12  and  N_24
    8  A    between atoms: C_25  and  C_27
                            x       y       z     vdW  Elec       q    Type
                         _______ _______ _______ _____ _____    ______ ____

>  <TORSDO>
F 8

$$$$
=
 OpenBabel11072412123D

 31 32  0  0  1  0  0  0  0  0999 V2000
  160.6360  207.1900  154.1430 C   0  0  0  0  0  3  0  0  0  0  0  0
  161.4350  207.7080  156.3740 C   0  0  0  0  0  3  0  0  0  0  0  0
  160.2910  207.1680  155.5900 C   0  0  0  0  0  2  0  0  0  0  0  0
  160.8060  209.6790  154.0670 C   0  0  0  0  0  0  0  0  0  0  0  0
  160.8800  208.3140  153.4540 C   0  0  0  0  0  0  0  0  0  0  0  0
  161.8470  208.9680  156.2460 C   0  0  0  0  0  3  0  0  0  0  0  0
  161.2690  209.9630  155.3170 C   0  0  0  0  0  0  0  0  0  0  0  0
  161.2370  211.6000  155.9710 Cl  0  0  0  0  0  0  0  0  0  0  0  0
  158.8490  212.2290  152.1780 C   0  0  0  0  0  0  0  0  0  0  0  0
  157.6750  213.0620  151.7910 C   0  0  0  0  0  1  0  0  0  0  0  0
  160.9130  211.3000  152.2360 N   0  0  0  0  0  0  0  0  0  0  0  0
  158.8420  211.2480  153.2960 C   0  0  0  0  0  2  0  0  0  0  0  0
  160.0460  212.2270  151.6010 C   0  0  0  0  0  0  0  0  0  0  0  0
  160.2510  210.7540  153.2050 C   0  0  0  0  0  0  0  0  0  0  0  0
  161.2120  212.4610  149.4320 O   0  0  0  0  0  0  0  0  0  0  0  0
  160.4770  213.0460  150.4540 C   0  0  0  0  0  0  0  0  0  0  0  0
  160.1900  214.2700  150.3850 O   0  0  0  0  0  1  0  0  0  0  0  0
  161.0370  207.1420  151.2960 C   0  0  0  0  0  0  0  0  0  0  0  0
  161.2170  208.2200  152.0170 C   0  0  0  0  0  3  0  0  0  0  0  0
  160.8570  206.0680  150.5760 C   0  0  0  0  0  3  0  0  0  0  0  0
  161.7110  205.7980  149.3780 C   0  0  2  0  0  3  0  0  0  0  0  0
  160.6290  207.1020  147.6770 O   0  0  0  0  0  0  0  0  0  0  0  0
  162.7520  207.7560  148.2360 O   0  0  0  0  0  1  0  0  0  0  0  0
  161.6550  206.9190  148.3850 C   0  0  0  0  0  0  0  0  0  0  0  0
  161.3360  204.4990  148.7420 C   0  0  0  0  0  0  0  0  0  0  0  0
  161.7560  204.2370  147.5830 O   0  0  0  0  0  0  0  0  0  0  0  0
  160.4990  203.5670  149.4370 N   0  0  0  0  0  2  0  0  0  0  0  0
  160.0570  202.3120  148.8430 C   0  0  0  0  0  2  0  0  0  0  0  0
  160.7360  201.1320  149.5200 C   0  0  2  0  0  3  0  0  0  0  0  0
  161.4140  201.5820  150.8010 C   0  0  0  0  0  1  0  0  0  0  0  0
  161.6900  200.5930  148.6590 O   0  0  0  0  0  1  0  0  0  0  0  0
  1  3  1  0  0  0  0
  3  2  1  0  0  0  0
  4  7  2  0  0  0  0
  5  4  1  0  0  0  0
  5  1  2  0  0  0  0
  6  2  2  0  0  0  0
  7  8  1  0  0  0  0
  7  6  1  0  0  0  0
  9 12  1  0  0  0  0
 10  9  1  0  0  0  0
 11 14  2  0  0  0  0
 13  9  2  0  0  0  0
 13 11  1  0  0  0  0
 14 12  1  0  0  0  0
 14  4  1  0  0  0  0
 15 16  2  0  0  0  0
 16 13  1  0  0  0  0
 17 16  1  0  0  0  0
 18 19  2  0  0  0  0
 19  5  1  0  0  0  0
 20 18  2  0  0  0  0
 21 20  1  1  0  0  0
 22 24  2  0  0  0  0
 23 24  1  0  0  0  0
 24 21  1  0  0  0  0
 25 21  1  0  0  0  0
 25 27  1  0  0  0  0
 26 25  2  0  0  0  0
 28 27  1  0  0  0  0
 28 29  1  0  0  0  0
 29 30  1  1  0  0  0
 31 29  1  0  0  0  0
M  END
>  <MODEL>
2

>  <REMARK>
 VINA RESULT:      -6.9      1.327      1.798
  Name = 
  8 active torsions:
  status: ('A' for Active; 'I' for Inactive)
    1  A    between atoms: C_1  and  C_12
    2  A    between atoms: C_8  and  C_16
    3  A    between atoms: C_8  and  C_28
    4  A    between atoms: C_8  and  C_30
    5  A    between atoms: C_10  and  C_29
    6  A    between atoms: C_11  and  C_26
    7  A    between atoms: C_12  and  N_24
    8  A    between atoms: C_25  and  C_27
                            x       y       z     vdW  Elec       q    Type
                         _______ _______ _______ _____ _____    ______ ____

>  <TORSDO>
F 8

$$$$
=
 OpenBabel11072412123D

 31 32  0  0  1  0  0  0  0  0999 V2000
  160.6060  207.2920  154.0730 C   0  0  0  0  0  3  0  0  0  0  0  0
  161.4320  207.7110  156.3150 C   0  0  0  0  0  3  0  0  0  0  0  0
  160.2890  207.1820  155.5220 C   0  0  0  0  0  2  0  0  0  0  0  0
  160.7060  209.7860  154.1310 C   0  0  0  0  0  0  0  0  0  0  0  0
  160.8060  208.4590  153.4420 C   0  0  0  0  0  0  0  0  0  0  0  0
  161.8070  208.9870  156.2490 C   0  0  0  0  0  3  0  0  0  0  0  0
  161.1850  210.0140  155.3870 C   0  0  0  0  0  0  0  0  0  0  0  0
  161.1190  211.6120  156.1300 Cl  0  0  0  0  0  0  0  0  0  0  0  0
  159.7700  212.5710  151.8370 C   0  0  0  0  0  0  0  0  0  0  0  0
  159.8990  213.5330  150.7050 C   0  0  0  0  0  1  0  0  0  0  0  0
  158.9940  211.4710  153.6580 N   0  0  0  0  0  0  0  0  0  0  0  0
  160.7690  211.5170  152.1520 C   0  0  0  0  0  3  0  0  0  0  0  0
  158.7760  212.5120  152.7180 C   0  0  1  0  0  3  0  0  0  0  0  0
  160.1060  210.8900  153.3380 C   0  0  0  0  0  0  0  0  0  0  0  0
  156.8440  213.5910  151.6150 O   0  0  0  0  0  0  0  0  0  0  0  0
  157.5850  213.3780  152.7690 C   0  0  0  0  0  0  0  0  0  0  0  0
  157.2270  213.9300  153.8430 O   0  0  0  0  0  1  0  0  0  0  0  0
  161.0500  207.3860  151.2420 C   0  0  0  0  0  0  0  0  0  0  0  0
  161.1190  208.4530  151.9970 C   0  0  0  0  0  3  0  0  0  0  0  0
  160.9810  206.3230  150.4880 C   0  0  0  0  0  3  0  0  0  0  0  0
  161.8330  206.1950  149.2650 C   0  0  2  0  0  3  0  0  0  0  0  0
  160.7550  207.2820  147.4160 O   0  0  0  0  0  0  0  0  0  0  0  0
  162.4300  208.4690  148.4310 O   0  0  0  0  0  1  0  0  0  0  0  0
  161.6320  207.3400  148.3180 C   0  0  0  0  0  0  0  0  0  0  0  0
  161.5910  204.8870  148.5840 C   0  0  0  0  0  0  0  0  0  0  0  0
  162.0930  204.6820  147.4470 O   0  0  0  0  0  0  0  0  0  0  0  0
  160.7860  203.8820  149.2120 N   0  0  0  0  0  2  0  0  0  0  0  0
  160.4710  202.6130  148.5710 C   0  0  0  0  0  2  0  0  0  0  0  0
  160.5860  201.4680  149.5650 C   0  0  2  0  0  3  0  0  0  0  0  0
  161.0780  201.9850  150.9040 C   0  0  0  0  0  1  0  0  0  0  0  0
  161.4870  200.5220  149.0780 O   0  0  0  0  0  1  0  0  0  0  0  0
  1  3  1  0  0  0  0
  3  2  1  0  0  0  0
  4  7  2  0  0  0  0
  5  1  2  0  0  0  0
  5  4  1  0  0  0  0
  6  2  2  0  0  0  0
  7  8  1  0  0  0  0
  7  6  1  0  0  0  0
  9 12  2  0  0  0  0
  9 13  1  0  0  0  0
 10  9  1  0  0  0  0
 12 14  1  0  0  0  0
 13 16  1  1  0  0  0
 13 11  1  0  0  0  0
 14 11  2  0  0  0  0
 14  4  1  0  0  0  0
 15 16  2  0  0  0  0
 16 17  1  0  0  0  0
 18 19  2  0  0  0  0
 19  5  1  0  0  0  0
 20 18  2  0  0  0  0
 21 20  1  1  0  0  0
 22 24  2  0  0  0  0
 24 23  1  0  0  0  0
 24 21  1  0  0  0  0
 25 27  1  0  0  0  0
 25 21  1  0  0  0  0
 26 25  2  0  0  0  0
 28 27  1  0  0  0  0
 28 29  1  0  0  0  0
 29 30  1  1  0  0  0
 31 29  1  0  0  0  0
M  END
>  <MODEL>
3

>  <REMARK>
 VINA RESULT:      -6.8      1.788      2.395
  Name = 
  8 active torsions:
  status: ('A' for Active; 'I' for Inactive)
    1  A    between atoms: C_1  and  C_12
    2  A    between atoms: C_8  and  C_16
    3  A    between atoms: C_8  and  C_28
    4  A    between atoms: C_8  and  C_30
    5  A    between atoms: C_10  and  C_29
    6  A    between atoms: C_11  and  C_26
    7  A    between atoms: C_12  and  N_24
    8  A    between atoms: C_25  and  C_27
                            x       y       z     vdW  Elec       q    Type
                         _______ _______ _______ _____ _____    ______ ____

>  <TORSDO>
F 8

$$$$
=
 OpenBabel11072412123D

 31 32  0  0  1  0  0  0  0  0999 V2000
  160.4010  207.5310  155.0790 C   0  0  0  0  0  3  0  0  0  0  0  0
  161.6160  207.9090  157.1450 C   0  0  0  0  0  3  0  0  0  0  0  0
  160.3770  207.3340  156.5530 C   0  0  0  0  0  2  0  0  0  0  0  0
  160.3510  210.0210  155.2610 C   0  0  0  0  0  0  0  0  0  0  0  0
  160.4010  208.7360  154.4910 C   0  0  0  0  0  0  0  0  0  0  0  0
  161.8880  209.2110  157.0830 C   0  0  0  0  0  3  0  0  0  0  0  0
  161.0470  210.2270  156.4150 C   0  0  0  0  0  0  0  0  0  0  0  0
  161.0240  211.7800  157.2480 Cl  0  0  0  0  0  0  0  0  0  0  0  0
  158.8680  212.9330  153.4690 C   0  0  0  0  0  0  0  0  0  0  0  0
  158.7950  214.0840  152.5240 C   0  0  0  0  0  1  0  0  0  0  0  0
  158.3430  211.4060  155.0560 N   0  0  0  0  0  0  0  0  0  0  0  0
  160.0540  212.0490  153.6150 C   0  0  0  0  0  3  0  0  0  0  0  0
  157.9170  212.5340  154.3080 C   0  0  1  0  0  3  0  0  0  0  0  0
  159.5400  211.1120  154.6620 C   0  0  0  0  0  0  0  0  0  0  0  0
  155.7380  213.2630  153.3940 O   0  0  0  0  0  0  0  0  0  0  0  0
  156.5850  213.1370  154.4870 C   0  0  0  0  0  0  0  0  0  0  0  0
  156.1990  213.5400  155.6150 O   0  0  0  0  0  1  0  0  0  0  0  0
  161.0800  207.9760  152.2510 C   0  0  0  0  0  0  0  0  0  0  0  0
  160.4290  208.8180  153.0140 C   0  0  0  0  0  3  0  0  0  0  0  0
  161.7280  207.1380  151.4890 C   0  0  0  0  0  3  0  0  0  0  0  0
  162.2300  207.5560  150.1440 C   0  0  2  0  0  3  0  0  0  0  0  0
  162.5710  209.8220  150.8600 O   0  0  0  0  0  1  0  0  0  0  0  0
  161.6400  209.5630  148.7830 O   0  0  0  0  0  0  0  0  0  0  0  0
  162.1650  209.0420  149.9580 C   0  0  0  0  0  0  0  0  0  0  0  0
  161.4900  206.8470  149.0570 C   0  0  0  0  0  0  0  0  0  0  0  0
  160.2750  206.5600  149.2240 O   0  0  0  0  0  0  0  0  0  0  0  0
  162.1590  206.4850  147.8430 N   0  0  0  0  0  2  0  0  0  0  0  0
  161.5030  205.7430  146.7750 C   0  0  0  0  0  2  0  0  0  0  0  0
  161.9740  204.2980  146.7590 C   0  0  2  0  0  3  0  0  0  0  0  0
  161.4640  203.5940  145.5160 C   0  0  0  0  0  1  0  0  0  0  0  0
  161.4910  203.6420  147.8900 O   0  0  0  0  0  1  0  0  0  0  0  0
  1  3  1  0  0  0  0
  3  2  1  0  0  0  0
  4  7  2  0  0  0  0
  5  1  2  0  0  0  0
  5  4  1  0  0  0  0
  6  2  2  0  0  0  0
  7  6  1  0  0  0  0
  7  8  1  0  0  0  0
  9 12  2  0  0  0  0
  9 13  1  0  0  0  0
 10  9  1  0  0  0  0
 12 14  1  0  0  0  0
 13 16  1  1  0  0  0
 13 11  1  0  0  0  0
 14 11  2  0  0  0  0
 14  4  1  0  0  0  0
 15 16  2  0  0  0  0
 16 17  1  0  0  0  0
 18 19  2  0  0  0  0
 19  5  1  0  0  0  0
 20 18  2  0  0  0  0
 21 20  1  1  0  0  0
 23 24  2  0  0  0  0
 24 21  1  0  0  0  0
 24 22  1  0  0  0  0
 25 26  2  0  0  0  0
 25 21  1  0  0  0  0
 27 25  1  0  0  0  0
 28 27  1  0  0  0  0
 29 30  1  6  0  0  0
 29 28  1  0  0  0  0
 29 31  1  0  0  0  0
M  END
>  <MODEL>
4

>  <REMARK>
 VINA RESULT:      -6.4      2.297      2.875
  Name = 
  8 active torsions:
  status: ('A' for Active; 'I' for Inactive)
    1  A    between atoms: C_1  and  C_12
    2  A    between atoms: C_8  and  C_16
    3  A    between atoms: C_8  and  C_28
    4  A    between atoms: C_8  and  C_30
    5  A    between atoms: C_10  and  C_29
    6  A    between atoms: C_11  and  C_26
    7  A    between atoms: C_12  and  N_24
    8  A    between atoms: C_25  and  C_27
                            x       y       z     vdW  Elec       q    Type
                         _______ _______ _______ _____ _____    ______ ____

>  <TORSDO>
F 8

$$$$
=
 OpenBabel11072412123D

 31 32  0  0  1  0  0  0  0  0999 V2000
  162.2660  207.7270  150.8280 C   0  0  0  0  0  3  0  0  0  0  0  0
  161.2060  206.2290  152.4150 C   0  0  0  0  0  3  0  0  0  0  0  0
  162.5040  206.8080  151.9730 C   0  0  0  0  0  2  0  0  0  0  0  0
  161.4350  205.9010  149.3410 C   0  0  0  0  0  0  0  0  0  0  0  0
  161.7740  207.3280  149.6450 C   0  0  0  0  0  0  0  0  0  0  0  0
  160.4790  205.4410  151.6250 C   0  0  0  0  0  3  0  0  0  0  0  0
  160.8280  205.0710  150.2370 C   0  0  0  0  0  0  0  0  0  0  0  0
  160.3730  203.4210  149.8140 Cl  0  0  0  0  0  0  0  0  0  0  0  0
  162.8020  204.7090  146.0850 C   0  0  0  0  0  0  0  0  0  0  0  0
  163.8090  204.1930  145.1140 C   0  0  0  0  0  1  0  0  0  0  0  0
  160.8800  205.4880  146.9940 N   0  0  0  0  0  0  0  0  0  0  0  0
  163.0830  204.9540  147.5240 C   0  0  0  0  0  2  0  0  0  0  0  0
  161.5380  205.0260  145.8240 C   0  0  0  0  0  0  0  0  0  0  0  0
  161.7360  205.4350  147.9630 C   0  0  0  0  0  0  0  0  0  0  0  0
  161.2070  205.8090  143.5010 O   0  0  0  0  0  0  0  0  0  0  0  0
  160.8540  204.9360  144.5220 C   0  0  0  0  0  0  0  0  0  0  0  0
  159.9530  204.0810  144.3180 O   0  0  0  0  0  1  0  0  0  0  0  0
  161.9490  209.5790  148.6660 C   0  0  0  0  0  0  0  0  0  0  0  0
  161.5730  208.3280  148.5740 C   0  0  0  0  0  3  0  0  0  0  0  0
  162.3230  210.8260  148.7560 C   0  0  0  0  0  3  0  0  0  0  0  0
  161.6150  211.8960  147.9880 C   0  0  2  0  0  3  0  0  0  0  0  0
  163.4810  213.4060  148.0080 O   0  0  0  0  0  1  0  0  0  0  0  0
  162.4490  213.1240  145.9830 O   0  0  0  0  0  0  0  0  0  0  0  0
  162.5730  212.8470  147.3370 C   0  0  0  0  0  0  0  0  0  0  0  0
  160.6460  212.6240  148.8620 C   0  0  0  0  0  0  0  0  0  0  0  0
  159.7550  213.3390  148.3320 O   0  0  0  0  0  0  0  0  0  0  0  0
  160.7390  212.5210  150.2880 N   0  0  0  0  0  2  0  0  0  0  0  0
  159.8580  213.2530  151.1890 C   0  0  0  0  0  2  0  0  0  0  0  0
  159.7040  212.5110  152.5060 C   0  0  2  0  0  3  0  0  0  0  0  0
  160.2980  211.1190  152.3960 C   0  0  0  0  0  1  0  0  0  0  0  0
  158.3500  212.4080  152.8230 O   0  0  0  0  0  1  0  0  0  0  0  0
  1  3  1  0  0  0  0
  3  2  1  0  0  0  0
  4  5  1  0  0  0  0
  4  7  2  0  0  0  0
  5  1  2  0  0  0  0
  6  2  2  0  0  0  0
  7  6  1  0  0  0  0
  8  7  1  0  0  0  0
  9 12  1  0  0  0  0
 10  9  1  0  0  0  0
 11 14  2  0  0  0  0
 12 14  1  0  0  0  0
 13  9  2  0  0  0  0
 13 11  1  0  0  0  0
 14  4  1  0  0  0  0
 15 16  2  0  0  0  0
 16 13  1  0  0  0  0
 17 16  1  0  0  0  0
 18 20  2  0  0  0  0
 19 18  2  0  0  0  0
 19  5  1  0  0  0  0
 21 20  1  1  0  0  0
 21 25  1  0  0  0  0
 23 24  2  0  0  0  0
 24 21  1  0  0  0  0
 24 22  1  0  0  0  0
 25 27  1  0  0  0  0
 26 25  2  0  0  0  0
 27 28  1  0  0  0  0
 28 29  1  0  0  0  0
 29 30  1  6  0  0  0
 29 31  1  0  0  0  0
M  END
>  <MODEL>
5

>  <REMARK>
 VINA RESULT:      -6.4      3.299      8.492
  Name = 
  8 active torsions:
  status: ('A' for Active; 'I' for Inactive)
    1  A    between atoms: C_1  and  C_12
    2  A    between atoms: C_8  and  C_16
    3  A    between atoms: C_8  and  C_28
    4  A    between atoms: C_8  and  C_30
    5  A    between atoms: C_10  and  C_29
    6  A    between atoms: C_11  and  C_26
    7  A    between atoms: C_12  and  N_24
    8  A    between atoms: C_25  and  C_27
                            x       y       z     vdW  Elec       q    Type
                         _______ _______ _______ _____ _____    ______ ____

>  <TORSDO>
F 8

$$$$
=
 OpenBabel11072412123D

 31 32  0  0  1  0  0  0  0  0999 V2000
  161.9720  210.3930  149.9720 C   0  0  0  0  0  3  0  0  0  0  0  0
  160.9810  212.4930  149.2690 C   0  0  0  0  0  3  0  0  0  0  0  0
  162.2620  211.7910  149.5540 C   0  0  0  0  0  2  0  0  0  0  0  0
  160.7500  211.1040  152.0300 C   0  0  0  0  0  0  0  0  0  0  0  0
  161.2830  210.0760  151.0780 C   0  0  0  0  0  0  0  0  0  0  0  0
  160.0700  212.7120  150.2160 C   0  0  0  0  0  3  0  0  0  0  0  0
  160.1830  212.2760  151.6240 C   0  0  0  0  0  0  0  0  0  0  0  0
  159.4950  213.4220  152.7730 Cl  0  0  0  0  0  0  0  0  0  0  0  0
  160.2580  210.3450  155.6460 C   0  0  0  0  0  0  0  0  0  0  0  0
  159.5220  210.1110  156.9220 C   0  0  0  0  0  1  0  0  0  0  0  0
  161.9140  210.6080  154.1250 N   0  0  0  0  0  0  0  0  0  0  0  0
  159.5970  210.6270  154.3450 C   0  0  0  0  0  3  0  0  0  0  0  0
  161.5760  210.3440  155.4780 C   0  0  1  0  0  3  0  0  0  0  0  0
  160.8060  210.7520  153.4720 C   0  0  0  0  0  0  0  0  0  0  0  0
  163.4660  211.1380  156.8610 O   0  0  0  0  0  0  0  0  0  0  0  0
  162.6000  210.1100  156.5120 C   0  0  0  0  0  0  0  0  0  0  0  0
  162.7030  208.9950  157.0860 O   0  0  0  0  0  1  0  0  0  0  0  0
  161.3490  207.6660  150.5920 C   0  0  0  0  0  0  0  0  0  0  0  0
  161.0490  208.6520  151.3990 C   0  0  0  0  0  3  0  0  0  0  0  0
  161.6480  206.6810  149.7890 C   0  0  0  0  0  3  0  0  0  0  0  0
  160.8960  205.3900  149.8470 C   0  0  2  0  0  3  0  0  0  0  0  0
  162.3340  204.6920  151.6390 O   0  0  0  0  0  0  0  0  0  0  0  0
  160.2180  203.8130  151.6570 O   0  0  0  0  0  1  0  0  0  0  0  0
  161.1980  204.6210  151.0980 C   0  0  0  0  0  0  0  0  0  0  0  0
  161.1660  204.5640  148.6310 C   0  0  0  0  0  0  0  0  0  0  0  0
  160.9690  203.3200  148.6760 O   0  0  0  0  0  0  0  0  0  0  0  0
  161.6540  205.1770  147.4330 N   0  0  0  0  0  2  0  0  0  0  0  0
  161.9860  204.4140  146.2370 C   0  0  0  0  0  2  0  0  0  0  0  0
  161.2600  204.9750  145.0250 C   0  0  2  0  0  3  0  0  0  0  0  0
  160.4590  206.2020  145.4160 C   0  0  0  0  0  1  0  0  0  0  0  0
  160.3980  204.0060  144.5140 O   0  0  0  0  0  1  0  0  0  0  0  0
  1  5  2  0  0  0  0
  2  3  1  0  0  0  0
  2  6  2  0  0  0  0
  3  1  1  0  0  0  0
  4 14  1  0  0  0  0
  5 19  1  0  0  0  0
  5  4  1  0  0  0  0
  6  7  1  0  0  0  0
  7  4  2  0  0  0  0
  7  8  1  0  0  0  0
  9 10  1  0  0  0  0
 11 13  1  0  0  0  0
 12  9  2  0  0  0  0
 13  9  1  0  0  0  0
 13 16  1  1  0  0  0
 14 11  2  0  0  0  0
 14 12  1  0  0  0  0
 16 15  2  0  0  0  0
 16 17  1  0  0  0  0
 18 19  2  0  0  0  0
 20 18  2  0  0  0  0
 21 20  1  6  0  0  0
 21 24  1  0  0  0  0
 24 22  2  0  0  0  0
 24 23  1  0  0  0  0
 25 26  2  0  0  0  0
 25 21  1  0  0  0  0
 27 25  1  0  0  0  0
 28 27  1  0  0  0  0
 29 30  1  1  0  0  0
 29 28  1  0  0  0  0
 31 29  1  0  0  0  0
M  END
>  <MODEL>
6

>  <REMARK>
 VINA RESULT:      -6.4      2.810      4.517
  Name = 
  8 active torsions:
  status: ('A' for Active; 'I' for Inactive)
    1  A    between atoms: C_1  and  C_12
    2  A    between atoms: C_8  and  C_16
    3  A    between atoms: C_8  and  C_28
    4  A    between atoms: C_8  and  C_30
    5  A    between atoms: C_10  and  C_29
    6  A    between atoms: C_11  and  C_26
    7  A    between atoms: C_12  and  N_24
    8  A    between atoms: C_25  and  C_27
                            x       y       z     vdW  Elec       q    Type
                         _______ _______ _______ _____ _____    ______ ____

>  <TORSDO>
F 8

$$$$
=
 OpenBabel11072412123D

 31 32  0  0  1  0  0  0  0  0999 V2000
  161.1520  207.5230  148.6880 C   0  0  0  0  0  3  0  0  0  0  0  0
  161.2950  205.2390  149.4910 C   0  0  0  0  0  3  0  0  0  0  0  0
  160.4100  206.2430  148.8410 C   0  0  0  0  0  2  0  0  0  0  0  0
  161.3900  207.8550  151.1510 C   0  0  0  0  0  0  0  0  0  0  0  0
  161.6060  208.2480  149.7210 C   0  0  0  0  0  0  0  0  0  0  0  0
  161.7530  205.3990  150.7310 C   0  0  0  0  0  3  0  0  0  0  0  0
  161.4840  206.5690  151.5940 C   0  0  0  0  0  0  0  0  0  0  0  0
  161.3020  206.1580  153.2990 Cl  0  0  0  0  0  0  0  0  0  0  0  0
  161.1950  210.3700  153.8940 C   0  0  0  0  0  0  0  0  0  0  0  0
  161.5750  211.0780  155.1500 C   0  0  0  0  0  1  0  0  0  0  0  0
  160.1020  209.7500  152.0110 N   0  0  0  0  0  0  0  0  0  0  0  0
  161.9560  209.2300  153.3190 C   0  0  0  0  0  2  0  0  0  0  0  0
  160.1470  210.6330  153.1210 C   0  0  0  0  0  0  0  0  0  0  0  0
  161.1270  208.9650  152.1020 C   0  0  0  0  0  0  0  0  0  0  0  0
  159.4010  212.9840  152.9290 O   0  0  0  0  0  0  0  0  0  0  0  0
  159.1330  211.6820  153.3300 C   0  0  0  0  0  0  0  0  0  0  0  0
  158.0250  211.4190  153.8680 O   0  0  0  0  0  1  0  0  0  0  0  0
  161.8020  210.5460  148.8640 C   0  0  0  0  0  0  0  0  0  0  0  0
  162.3360  209.5060  149.4540 C   0  0  0  0  0  3  0  0  0  0  0  0
  161.2720  211.5840  148.2780 C   0  0  0  0  0  3  0  0  0  0  0  0
  162.1200  212.5450  147.5080 C   0  0  2  0  0  3  0  0  0  0  0  0
  163.4580  214.4170  148.1940 O   0  0  0  0  0  0  0  0  0  0  0  0
  161.3390  214.3360  149.0600 O   0  0  0  0  0  1  0  0  0  0  0  0
  162.3510  213.8190  148.2640 C   0  0  0  0  0  0  0  0  0  0  0  0
  161.5260  212.8200  146.1650 C   0  0  0  0  0  0  0  0  0  0  0  0
  160.3430  212.4570  145.9280 O   0  0  0  0  0  0  0  0  0  0  0  0
  162.2980  213.4760  145.1520 N   0  0  0  0  0  2  0  0  0  0  0  0
  161.7900  213.7180  143.8090 C   0  0  0  0  0  2  0  0  0  0  0  0
  162.1740  212.5780  142.8790 C   0  0  2  0  0  3  0  0  0  0  0  0
  162.7050  213.1280  141.5680 C   0  0  0  0  0  1  0  0  0  0  0  0
  161.0510  211.7910  142.6260 O   0  0  0  0  0  1  0  0  0  0  0  0
  1  3  1  0  0  0  0
  1  5  2  0  0  0  0
  2  6  2  0  0  0  0
  3  2  1  0  0  0  0
  4  7  2  0  0  0  0
  4 14  1  0  0  0  0
  5  4  1  0  0  0  0
  6  7  1  0  0  0  0
  7  8  1  0  0  0  0
  9 10  1  0  0  0  0
 11 14  2  0  0  0  0
 11 13  1  0  0  0  0
 12  9  1  0  0  0  0
 13 16  1  0  0  0  0
 13  9  2  0  0  0  0
 14 12  1  0  0  0  0
 15 16  2  0  0  0  0
 16 17  1  0  0  0  0
 18 19  2  0  0  0  0
 19  5  1  0  0  0  0
 20 18  2  0  0  0  0
 21 24  1  0  0  0  0
 21 20  1  1  0  0  0
 22 24  2  0  0  0  0
 24 23  1  0  0  0  0
 25 21  1  0  0  0  0
 26 25  2  0  0  0  0
 27 25  1  0  0  0  0
 28 27  1  0  0  0  0
 29 30  1  6  0  0  0
 29 28  1  0  0  0  0
 31 29  1  0  0  0  0
M  END
>  <MODEL>
7

>  <REMARK>
 VINA RESULT:      -6.2      3.988      6.727
  Name = 
  8 active torsions:
  status: ('A' for Active; 'I' for Inactive)
    1  A    between atoms: C_1  and  C_12
    2  A    between atoms: C_8  and  C_16
    3  A    between atoms: C_8  and  C_28
    4  A    between atoms: C_8  and  C_30
    5  A    between atoms: C_10  and  C_29
    6  A    between atoms: C_11  and  C_26
    7  A    between atoms: C_12  and  N_24
    8  A    between atoms: C_25  and  C_27
                            x       y       z     vdW  Elec       q    Type
                         _______ _______ _______ _____ _____    ______ ____

>  <TORSDO>
F 8

$$$$
=
 OpenBabel11072412123D

 31 32  0  0  1  0  0  0  0  0999 V2000
  161.0230  206.4880  145.9590 C   0  0  0  0  0  3  0  0  0  0  0  0
  160.9830  204.5110  144.5540 C   0  0  0  0  0  3  0  0  0  0  0  0
  160.1730  205.6450  145.0760 C   0  0  0  0  0  2  0  0  0  0  0  0
  161.3640  204.6610  147.6270 C   0  0  0  0  0  0  0  0  0  0  0  0
  161.5720  206.0500  147.1020 C   0  0  0  0  0  0  0  0  0  0  0  0
  161.4920  203.5780  145.3570 C   0  0  0  0  0  3  0  0  0  0  0  0
  161.3560  203.5550  146.8290 C   0  0  0  0  0  0  0  0  0  0  0  0
  161.1890  201.9310  147.4950 Cl  0  0  0  0  0  0  0  0  0  0  0  0
  160.8130  203.7420  151.1960 C   0  0  0  0  0  0  0  0  0  0  0  0
  160.4960  202.8760  152.3680 C   0  0  0  0  0  1  0  0  0  0  0  0
  161.3310  205.5340  149.9130 N   0  0  0  0  0  0  0  0  0  0  0  0
  160.8680  203.2560  149.7920 C   0  0  0  0  0  3  0  0  0  0  0  0
  161.0810  205.0430  151.2210 C   0  0  1  0  0  3  0  0  0  0  0  0
  161.2310  204.5320  149.1000 C   0  0  0  0  0  0  0  0  0  0  0  0
  160.7740  207.2530  152.2890 O   0  0  0  0  0  0  0  0  0  0  0  0
  161.1270  205.9150  152.4080 C   0  0  0  0  0  0  0  0  0  0  0  0
  161.4790  205.4680  153.5310 O   0  0  0  0  0  1  0  0  0  0  0  0
  161.9280  208.0080  148.5490 C   0  0  0  0  0  0  0  0  0  0  0  0
  162.4040  206.9730  147.9030 C   0  0  0  0  0  3  0  0  0  0  0  0
  161.4540  209.0390  149.1930 C   0  0  0  0  0  3  0  0  0  0  0  0
  162.3130  210.2330  149.4650 C   0  0  2  0  0  3  0  0  0  0  0  0
  161.2310  211.7070  151.0210 O   0  0  0  0  0  0  0  0  0  0  0  0
  162.8120  210.3060  151.9090 O   0  0  0  0  0  1  0  0  0  0  0  0
  162.0780  210.7930  150.8360 C   0  0  0  0  0  0  0  0  0  0  0  0
  162.1150  211.2790  148.4170 C   0  0  0  0  0  0  0  0  0  0  0  0
  163.0720  212.0430  148.1210 O   0  0  0  0  0  0  0  0  0  0  0  0
  160.8480  211.4200  147.7650 N   0  0  0  0  0  2  0  0  0  0  0  0
  160.5820  212.4570  146.7780 C   0  0  0  0  0  2  0  0  0  0  0  0
  159.3460  213.2560  147.1610 C   0  0  2  0  0  3  0  0  0  0  0  0
  159.4140  213.6560  148.6230 C   0  0  0  0  0  1  0  0  0  0  0  0
  158.2090  212.4780  146.9500 O   0  0  0  0  0  1  0  0  0  0  0  0
  1  5  2  0  0  0  0
  2  3  1  0  0  0  0
  2  6  2  0  0  0  0
  3  1  1  0  0  0  0
  4 14  1  0  0  0  0
  5  4  1  0  0  0  0
  5 19  1  0  0  0  0
  6  7  1  0  0  0  0
  7  8  1  0  0  0  0
  7  4  2  0  0  0  0
  9 13  1  0  0  0  0
  9 10  1  0  0  0  0
 11 13  1  0  0  0  0
 12  9  2  0  0  0  0
 13 16  1  6  0  0  0
 14 12  1  0  0  0  0
 14 11  2  0  0  0  0
 15 16  2  0  0  0  0
 16 17  1  0  0  0  0
 18 20  2  0  0  0  0
 19 18  2  0  0  0  0
 21 20  1  6  0  0  0
 21 24  1  0  0  0  0
 24 22  2  0  0  0  0
 24 23  1  0  0  0  0
 25 21  1  0  0  0  0
 26 25  2  0  0  0  0
 27 25  1  0  0  0  0
 28 29  1  0  0  0  0
 28 27  1  0  0  0  0
 29 30  1  1  0  0  0
 31 29  1  0  0  0  0
M  END
>  <MODEL>
8

>  <REMARK>
 VINA RESULT:      -6.0      4.157      8.528
  Name = 
  8 active torsions:
  status: ('A' for Active; 'I' for Inactive)
    1  A    between atoms: C_1  and  C_12
    2  A    between atoms: C_8  and  C_16
    3  A    between atoms: C_8  and  C_28
    4  A    between atoms: C_8  and  C_30
    5  A    between atoms: C_10  and  C_29
    6  A    between atoms: C_11  and  C_26
    7  A    between atoms: C_12  and  N_24
    8  A    between atoms: C_25  and  C_27
                            x       y       z     vdW  Elec       q    Type
                         _______ _______ _______ _____ _____    ______ ____

>  <TORSDO>
F 8

$$$$
=
 OpenBabel11072412123D

 31 32  0  0  1  0  0  0  0  0999 V2000
  160.8520  206.8260  152.8250 C   0  0  0  0  0  3  0  0  0  0  0  0
  161.1740  207.3380  155.1740 C   0  0  0  0  0  3  0  0  0  0  0  0
  160.1730  206.9540  154.1420 C   0  0  0  0  0  2  0  0  0  0  0  0
  161.4810  209.2410  152.7470 C   0  0  0  0  0  0  0  0  0  0  0  0
  161.4520  207.8470  152.1960 C   0  0  0  0  0  0  0  0  0  0  0  0
  161.8250  208.4990  155.1280 C   0  0  0  0  0  3  0  0  0  0  0  0
  161.6750  209.5180  154.0680 C   0  0  0  0  0  0  0  0  0  0  0  0
  161.7820  211.1740  154.6630 Cl  0  0  0  0  0  0  0  0  0  0  0  0
  160.6810  212.2080  150.6380 C   0  0  0  0  0  0  0  0  0  0  0  0
  160.0320  213.4920  150.2480 C   0  0  0  0  0  1  0  0  0  0  0  0
  161.9420  210.3270  150.6030 N   0  0  0  0  0  0  0  0  0  0  0  0
  160.4530  211.5200  151.9360 C   0  0  0  0  0  2  0  0  0  0  0  0
  161.5340  211.4960  149.9080 C   0  0  0  0  0  0  0  0  0  0  0  0
  161.3520  210.3390  151.7550 C   0  0  0  0  0  0  0  0  0  0  0  0
  163.3330  212.2590  148.3920 O   0  0  0  0  0  1  0  0  0  0  0  0
  162.0260  211.8180  148.5570 C   0  0  0  0  0  0  0  0  0  0  0  0
  161.2830  211.7000  147.5480 O   0  0  0  0  0  0  0  0  0  0  0  0
  161.4900  207.0790  149.8590 C   0  0  0  0  0  0  0  0  0  0  0  0
  162.1010  207.6080  150.8890 C   0  0  0  0  0  3  0  0  0  0  0  0
  160.8820  206.5540  148.8310 C   0  0  0  0  0  3  0  0  0  0  0  0
  161.6470  205.7960  147.7930 C   0  0  2  0  0  3  0  0  0  0  0  0
  160.0350  206.5700  146.1910 O   0  0  0  0  0  1  0  0  0  0  0  0
  162.0780  205.9740  145.3420 O   0  0  0  0  0  0  0  0  0  0  0  0
  161.2000  206.1410  146.4040 C   0  0  0  0  0  0  0  0  0  0  0  0
  161.5570  204.3250  148.0350 C   0  0  0  0  0  0  0  0  0  0  0  0
  162.1190  203.5330  147.2330 O   0  0  0  0  0  0  0  0  0  0  0  0
  160.8290  203.8190  149.1610 N   0  0  0  0  0  2  0  0  0  0  0  0
  160.6610  202.3950  149.4140 C   0  0  0  0  0  2  0  0  0  0  0  0
  160.8290  202.0910  150.8940 C   0  0  2  0  0  3  0  0  0  0  0  0
  160.7110  203.3660  151.7070 C   0  0  0  0  0  1  0  0  0  0  0  0
  162.0830  201.5220  151.1100 O   0  0  0  0  0  1  0  0  0  0  0  0
  1  3  1  0  0  0  0
  3  2  1  0  0  0  0
  4  7  2  0  0  0  0
  5  4  1  0  0  0  0
  5  1  2  0  0  0  0
  6  2  2  0  0  0  0
  7  8  1  0  0  0  0
  7  6  1  0  0  0  0
  9 12  1  0  0  0  0
 10  9  1  0  0  0  0
 11 14  2  0  0  0  0
 13 11  1  0  0  0  0
 13  9  2  0  0  0  0
 14 12  1  0  0  0  0
 14  4  1  0  0  0  0
 15 16  1  0  0  0  0
 16 13  1  0  0  0  0
 17 16  2  0  0  0  0
 18 19  2  0  0  0  0
 19  5  1  0  0  0  0
 20 18  2  0  0  0  0
 21 25  1  0  0  0  0
 21 20  1  1  0  0  0
 22 24  1  0  0  0  0
 23 24  2  0  0  0  0
 24 21  1  0  0  0  0
 25 27  1  0  0  0  0
 26 25  2  0  0  0  0
 27 28  1  0  0  0  0
 28 29  1  0  0  0  0
 29 31  1  0  0  0  0
 29 30  1  1  0  0  0
M  END
>  <MODEL>
9

>  <REMARK>
 VINA RESULT:      -5.8      1.991      2.846
  Name = 
  8 active torsions:
  status: ('A' for Active; 'I' for Inactive)
    1  A    between atoms: C_1  and  C_12
    2  A    between atoms: C_8  and  C_16
    3  A    between atoms: C_8  and  C_28
    4  A    between atoms: C_8  and  C_30
    5  A    between atoms: C_10  and  C_29
    6  A    between atoms: C_11  and  C_26
    7  A    between atoms: C_12  and  N_24
    8  A    between atoms: C_25  and  C_27
                            x       y       z     vdW  Elec       q    Type
                         _______ _______ _______ _____ _____    ______ ____

>  <TORSDO>
F 8

$$$$
