=
 OpenBabel11072411033D

 30 32  0  0  1  0  0  0  0  0999 V2000
  160.6190  203.1560  149.8800 C   0  0  0  0  0  0  0  0  0  0  0  0
  161.7210  205.1890  148.9480 C   0  0  2  0  0  3  0  0  0  0  0  0
  161.1600  203.4570  151.2200 C   0  0  0  0  0  0  0  0  0  0  0  0
  161.7900  208.0020  149.4940 C   0  0  0  0  0  0  0  0  0  0  0  0
  161.9190  207.0200  150.6150 C   0  0  0  0  0  0  0  0  0  0  0  0
  160.8520  203.9670  148.8460 C   0  0  0  0  0  3  0  0  0  0  0  0
  161.8170  205.6970  150.3690 C   0  0  0  0  0  0  0  0  0  0  0  0
  161.9930  204.6800  151.4660 C   0  0  0  0  0  2  0  0  0  0  0  0
  159.8320  202.0280  149.6910 O   0  0  0  0  0  1  0  0  0  0  0  0
  160.9410  202.6660  152.1740 O   0  0  0  0  0  0  0  0  0  0  0  0
  161.2410  206.1880  148.0510 O   0  0  0  0  0  0  0  0  0  0  0  0
  161.4320  207.5520  148.2860 C   0  0  0  0  0  3  0  0  0  0  0  0
  162.3380  209.9300  150.7970 O   0  0  0  0  0  0  0  0  0  0  0  0
  162.0140  209.4610  149.6730 C   0  0  0  0  0  0  0  0  0  0  0  0
  161.9070  210.4100  148.5190 C   0  0  0  0  0  2  0  0  0  0  0  0
  163.1170  212.4690  147.8720 C   0  0  0  0  0  1  0  0  0  0  0  0
  162.2690  211.8230  148.9460 C   0  0  1  0  0  3  0  0  0  0  0  0
  161.1090  212.5760  149.1330 O   0  0  0  0  0  1  0  0  0  0  0  0
  162.0630  207.5010  152.0300 C   0  0  0  0  0  2  0  0  0  0  0  0
  160.6970  207.6640  152.6650 C   0  0  0  0  0  2  0  0  0  0  0  0
  160.8460  207.7340  154.1710 C   0  0  0  0  0  2  0  0  0  0  0  0
  160.7910  210.1860  153.6550 N   0  0  0  0  0  0  0  0  0  0  0  0
  160.0930  212.2480  152.7880 N   0  0  0  0  0  1  0  0  0  0  0  0
  161.1110  209.1420  154.5930 C   0  0  0  0  0  0  0  0  0  0  0  0
  162.0130  208.3220  156.6270 O   0  0  0  0  0  1  0  0  0  0  0  0
  160.4430  211.4200  153.8910 C   0  0  0  0  0  0  0  0  0  0  0  0
  161.7230  209.3760  155.7660 C   0  0  0  0  0  0  0  0  0  0  0  0
  160.2430  211.9340  155.2180 N   0  0  0  0  0  0  0  0  0  0  0  0
  160.9600  211.6410  156.2580 C   0  0  0  0  0  3  0  0  0  0  0  0
  162.1440  210.7450  156.1710 C   0  0  0  0  0  2  0  0  0  0  0  0
  1  3  1  0  0  0  0
  2  6  1  1  0  0  0
  2  7  1  0  0  0  0
  3  8  1  0  0  0  0
  3 10  2  0  0  0  0
  4 14  1  0  0  0  0
  4  5  1  0  0  0  0
  5 19  1  0  0  0  0
  6  1  2  0  0  0  0
  7  5  2  0  0  0  0
  7  8  1  0  0  0  0
  9  1  1  0  0  0  0
 11 12  1  0  0  0  0
 11  2  1  0  0  0  0
 12  4  2  0  0  0  0
 14 13  2  0  0  0  0
 15 17  1  0  0  0  0
 15 14  1  0  0  0  0
 17 16  1  6  0  0  0
 17 18  1  0  0  0  0
 19 20  1  0  0  0  0
 20 21  1  0  0  0  0
 21 24  1  0  0  0  0
 22 26  2  0  0  0  0
 22 24  1  0  0  0  0
 23 26  1  0  0  0  0
 24 27  2  0  0  0  0
 26 28  1  0  0  0  0
 27 30  1  0  0  0  0
 27 25  1  0  0  0  0
 28 29  2  0  0  0  0
 30 29  1  0  0  0  0
M  END
>  <MODEL>
1

>  <REMARK>
 VINA RESULT:      -7.8      0.000      0.000
  Name = 
  7 active torsions:
  status: ('A' for Active; 'I' for Inactive)
    1  A    between atoms: C_5  and  C_10
    2  A    between atoms: C_6  and  C_26
    3  A    between atoms: C_10  and  C_20
    4  A    between atoms: C_12  and  C_22
    5  A    between atoms: C_14  and  C_20
    6  A    between atoms: C_21  and  C_22
    7  A    between atoms: C_21  and  C_26
                            x       y       z     vdW  Elec       q    Type
                         _______ _______ _______ _____ _____    ______ ____

>  <TORSDO>
F 7

$$$$
=
 OpenBabel11072411033D

 30 32  0  0  1  0  0  0  0  0999 V2000
  161.3290  204.1280  148.3290 C   0  0  0  0  0  0  0  0  0  0  0  0
  160.5120  205.8550  149.9300 C   0  0  2  0  0  3  0  0  0  0  0  0
  161.6430  205.1730  147.3360 C   0  0  0  0  0  0  0  0  0  0  0  0
  161.5000  208.2560  151.1450 C   0  0  0  0  0  0  0  0  0  0  0  0
  161.6910  208.0270  149.6790 C   0  0  0  0  0  0  0  0  0  0  0  0
  160.8380  204.4440  149.5290 C   0  0  0  0  0  3  0  0  0  0  0  0
  161.2880  206.8670  149.1180 C   0  0  0  0  0  0  0  0  0  0  0  0
  161.4190  206.6260  147.6380 C   0  0  0  0  0  2  0  0  0  0  0  0
  161.5700  202.7940  148.0270 O   0  0  0  0  0  1  0  0  0  0  0  0
  162.0870  204.8470  146.2040 O   0  0  0  0  0  0  0  0  0  0  0  0
  160.7260  206.0110  151.3320 O   0  0  0  0  0  0  0  0  0  0  0  0
  161.0620  207.2430  151.8990 C   0  0  0  0  0  3  0  0  0  0  0  0
  162.9960  209.9590  151.9060 O   0  0  0  0  0  0  0  0  0  0  0  0
  161.8070  209.5540  151.8030 C   0  0  0  0  0  0  0  0  0  0  0  0
  160.7140  210.4400  152.3180 C   0  0  0  0  0  2  0  0  0  0  0  0
  160.0480  211.9660  154.1480 C   0  0  0  0  0  1  0  0  0  0  0  0
  160.9730  210.8320  153.7630 C   0  0  1  0  0  3  0  0  0  0  0  0
  160.7400  209.7410  154.6010 O   0  0  0  0  0  1  0  0  0  0  0  0
  162.4170  209.0410  148.8430 C   0  0  0  0  0  2  0  0  0  0  0  0
  161.5030  210.2090  148.5330 C   0  0  0  0  0  2  0  0  0  0  0  0
  162.2500  211.5080  148.7590 C   0  0  0  0  0  2  0  0  0  0  0  0
  162.5290  212.7750  146.6140 N   0  0  0  0  0  0  0  0  0  0  0  0
  163.0730  213.2590  144.3870 N   0  0  0  0  0  1  0  0  0  0  0  0
  161.7590  212.5510  147.8100 C   0  0  0  0  0  0  0  0  0  0  0  0
  159.9970  213.0390  149.3190 O   0  0  0  0  0  1  0  0  0  0  0  0
  162.1270  213.1960  145.4480 C   0  0  0  0  0  0  0  0  0  0  0  0
  160.6960  213.3010  148.1450 C   0  0  0  0  0  0  0  0  0  0  0  0
  160.7450  213.4470  145.1430 N   0  0  0  0  0  0  0  0  0  0  0  0
  159.8780  213.9790  145.9480 C   0  0  0  0  0  3  0  0  0  0  0  0
  160.2520  214.4500  147.3090 C   0  0  0  0  0  2  0  0  0  0  0  0
  1  6  2  0  0  0  0
  2  6  1  6  0  0  0
  2 11  1  0  0  0  0
  3  8  1  0  0  0  0
  3  1  1  0  0  0  0
  4 14  1  0  0  0  0
  4 12  2  0  0  0  0
  5  4  1  0  0  0  0
  7  5  2  0  0  0  0
  7  2  1  0  0  0  0
  8  7  1  0  0  0  0
  9  1  1  0  0  0  0
 10  3  2  0  0  0  0
 11 12  1  0  0  0  0
 14 13  2  0  0  0  0
 14 15  1  0  0  0  0
 15 17  1  0  0  0  0
 17 16  1  1  0  0  0
 17 18  1  0  0  0  0
 19  5  1  0  0  0  0
 20 21  1  0  0  0  0
 20 19  1  0  0  0  0
 22 24  1  0  0  0  0
 23 26  1  0  0  0  0
 24 27  2  0  0  0  0
 24 21  1  0  0  0  0
 26 22  2  0  0  0  0
 27 25  1  0  0  0  0
 28 26  1  0  0  0  0
 28 29  2  0  0  0  0
 29 30  1  0  0  0  0
 30 27  1  0  0  0  0
M  END
>  <MODEL>
2

>  <REMARK>
 VINA RESULT:      -7.6      3.077      6.013
  Name = 
  7 active torsions:
  status: ('A' for Active; 'I' for Inactive)
    1  A    between atoms: C_5  and  C_10
    2  A    between atoms: C_6  and  C_26
    3  A    between atoms: C_10  and  C_20
    4  A    between atoms: C_12  and  C_22
    5  A    between atoms: C_14  and  C_20
    6  A    between atoms: C_21  and  C_22
    7  A    between atoms: C_21  and  C_26
                            x       y       z     vdW  Elec       q    Type
                         _______ _______ _______ _____ _____    ______ ____

>  <TORSDO>
F 7

$$$$
=
 OpenBabel11072411033D

 30 32  0  0  1  0  0  0  0  0999 V2000
  161.1450  207.9340  154.7620 C   0  0  0  0  0  0  0  0  0  0  0  0
  160.5860  209.4360  152.8520 C   0  0  2  0  0  3  0  0  0  0  0  0
  161.1960  206.7720  153.8540 C   0  0  0  0  0  0  0  0  0  0  0  0
  161.6790  210.1000  150.2870 C   0  0  0  0  0  0  0  0  0  0  0  0
  161.5780  208.6680  150.7080 C   0  0  0  0  0  0  0  0  0  0  0  0
  160.8950  209.1600  154.2970 C   0  0  0  0  0  3  0  0  0  0  0  0
  161.1280  208.3570  151.9420 C   0  0  0  0  0  0  0  0  0  0  0  0
  160.9660  206.9260  152.3790 C   0  0  0  0  0  2  0  0  0  0  0  0
  161.3860  207.7620  156.1190 O   0  0  0  0  0  1  0  0  0  0  0  0
  161.4160  205.6240  154.3200 O   0  0  0  0  0  0  0  0  0  0  0  0
  161.0740  210.7300  152.5020 O   0  0  0  0  0  0  0  0  0  0  0  0
  161.4560  211.0530  151.1980 C   0  0  0  0  0  3  0  0  0  0  0  0
  161.7340  209.7910  147.9160 O   0  0  0  0  0  0  0  0  0  0  0  0
  162.0480  210.5070  148.9040 C   0  0  0  0  0  0  0  0  0  0  0  0
  162.7600  211.7990  148.6400 C   0  0  0  0  0  2  0  0  0  0  0  0
  161.6780  214.0210  148.5280 C   0  0  0  0  0  1  0  0  0  0  0  0
  161.9050  212.7210  147.7870 C   0  0  1  0  0  3  0  0  0  0  0  0
  162.5510  212.9860  146.5790 O   0  0  0  0  0  1  0  0  0  0  0  0
  162.0660  207.5760  149.8010 C   0  0  0  0  0  2  0  0  0  0  0  0
  160.8880  206.8190  149.2200 C   0  0  0  0  0  2  0  0  0  0  0  0
  161.3670  205.9320  148.0890 C   0  0  0  0  0  2  0  0  0  0  0  0
  161.3350  204.2190  149.9180 N   0  0  0  0  0  0  0  0  0  0  0  0
  160.9020  203.1940  151.9800 N   0  0  0  0  0  1  0  0  0  0  0  0
  161.3140  204.4990  148.5060 C   0  0  0  0  0  0  0  0  0  0  0  0
  161.3370  203.8730  146.2190 O   0  0  0  0  0  1  0  0  0  0  0  0
  160.8200  203.2070  150.5600 C   0  0  0  0  0  0  0  0  0  0  0  0
  161.3520  203.5370  147.5690 C   0  0  0  0  0  0  0  0  0  0  0  0
  160.0380  202.1900  149.9140 N   0  0  0  0  0  0  0  0  0  0  0  0
  160.2700  201.6890  148.7400 C   0  0  0  0  0  3  0  0  0  0  0  0
  161.4500  202.0950  147.9290 C   0  0  0  0  0  2  0  0  0  0  0  0
  1  9  1  0  0  0  0
  2  6  1  1  0  0  0
  3 10  2  0  0  0  0
  3  1  1  0  0  0  0
  4  5  1  0  0  0  0
  4 12  2  0  0  0  0
  5  7  2  0  0  0  0
  6  1  2  0  0  0  0
  7  8  1  0  0  0  0
  7  2  1  0  0  0  0
  8  3  1  0  0  0  0
 11  2  1  0  0  0  0
 12 11  1  0  0  0  0
 13 14  2  0  0  0  0
 14  4  1  0  0  0  0
 15 14  1  0  0  0  0
 17 16  1  1  0  0  0
 17 15  1  0  0  0  0
 18 17  1  0  0  0  0
 19  5  1  0  0  0  0
 20 19  1  0  0  0  0
 21 24  1  0  0  0  0
 21 20  1  0  0  0  0
 22 26  2  0  0  0  0
 24 22  1  0  0  0  0
 25 27  1  0  0  0  0
 26 23  1  0  0  0  0
 27 30  1  0  0  0  0
 27 24  2  0  0  0  0
 28 26  1  0  0  0  0
 29 28  2  0  0  0  0
 30 29  1  0  0  0  0
M  END
>  <MODEL>
3

>  <REMARK>
 VINA RESULT:      -7.5      3.219      6.689
  Name = 
  7 active torsions:
  status: ('A' for Active; 'I' for Inactive)
    1  A    between atoms: C_5  and  C_10
    2  A    between atoms: C_6  and  C_26
    3  A    between atoms: C_10  and  C_20
    4  A    between atoms: C_12  and  C_22
    5  A    between atoms: C_14  and  C_20
    6  A    between atoms: C_21  and  C_22
    7  A    between atoms: C_21  and  C_26
                            x       y       z     vdW  Elec       q    Type
                         _______ _______ _______ _____ _____    ______ ____

>  <TORSDO>
F 7

$$$$
=
 OpenBabel11072411033D

 30 32  0  0  1  0  0  0  0  0999 V2000
  161.9200  209.7790  149.2200 C   0  0  0  0  0  0  0  0  0  0  0  0
  161.9900  209.9390  151.7070 C   0  0  2  0  0  3  0  0  0  0  0  0
  162.4160  208.3890  149.2790 C   0  0  0  0  0  0  0  0  0  0  0  0
  160.9450  208.4980  153.9540 C   0  0  0  0  0  0  0  0  0  0  0  0
  161.5750  207.7560  152.8190 C   0  0  0  0  0  0  0  0  0  0  0  0
  161.6960  210.4770  150.3350 C   0  0  0  0  0  3  0  0  0  0  0  0
  162.0050  208.4270  151.7290 C   0  0  0  0  0  0  0  0  0  0  0  0
  162.6900  207.7160  150.5920 C   0  0  0  0  0  2  0  0  0  0  0  0
  161.6530  210.3650  147.9900 O   0  0  0  0  0  1  0  0  0  0  0  0
  162.6360  207.7590  148.2120 O   0  0  0  0  0  0  0  0  0  0  0  0
  161.0560  210.4800  152.6390 O   0  0  0  0  0  0  0  0  0  0  0  0
  160.6890  209.8020  153.8040 C   0  0  0  0  0  3  0  0  0  0  0  0
  159.4070  207.3650  155.3920 O   0  0  0  0  0  0  0  0  0  0  0  0
  160.5630  207.8390  155.2320 C   0  0  0  0  0  0  0  0  0  0  0  0
  161.5510  207.6770  156.3470 C   0  0  0  0  0  2  0  0  0  0  0  0
  162.6340  209.8450  156.8420 C   0  0  0  0  0  1  0  0  0  0  0  0
  161.5370  208.8910  157.2610 C   0  0  1  0  0  3  0  0  0  0  0  0
  160.3040  209.5390  157.1730 O   0  0  0  0  0  1  0  0  0  0  0  0
  161.6450  206.2560  152.8400 C   0  0  0  0  0  2  0  0  0  0  0  0
  161.0360  205.6900  151.5720 C   0  0  0  0  0  2  0  0  0  0  0  0
  161.5360  204.2750  151.3610 C   0  0  0  0  0  2  0  0  0  0  0  0
  160.9430  204.7350  148.9700 N   0  0  0  0  0  0  0  0  0  0  0  0
  160.9550  205.7010  146.8350 N   0  0  0  0  0  1  0  0  0  0  0  0
  161.0910  203.7700  150.0290 C   0  0  0  0  0  0  0  0  0  0  0  0
  160.9100  201.5950  150.9560 O   0  0  0  0  0  1  0  0  0  0  0  0
  161.0700  204.5640  147.6830 C   0  0  0  0  0  0  0  0  0  0  0  0
  160.7510  202.4780  149.8920 C   0  0  0  0  0  0  0  0  0  0  0  0
  161.4760  203.3170  147.0980 N   0  0  0  0  0  0  0  0  0  0  0  0
  161.1150  202.1390  147.5030 C   0  0  0  0  0  3  0  0  0  0  0  0
  160.1620  201.9510  148.6300 C   0  0  0  0  0  2  0  0  0  0  0  0
  1  3  1  0  0  0  0
  1  6  2  0  0  0  0
  2  6  1  6  0  0  0
  2  7  1  0  0  0  0
  2 11  1  0  0  0  0
  3  8  1  0  0  0  0
  4 14  1  0  0  0  0
  5 19  1  0  0  0  0
  5  4  1  0  0  0  0
  7  5  2  0  0  0  0
  8  7  1  0  0  0  0
  9  1  1  0  0  0  0
 10  3  2  0  0  0  0
 11 12  1  0  0  0  0
 12  4  2  0  0  0  0
 14 13  2  0  0  0  0
 14 15  1  0  0  0  0
 15 17  1  0  0  0  0
 17 16  1  6  0  0  0
 18 17  1  0  0  0  0
 20 19  1  0  0  0  0
 21 20  1  0  0  0  0
 22 24  1  0  0  0  0
 23 26  1  0  0  0  0
 24 21  1  0  0  0  0
 26 22  2  0  0  0  0
 27 24  2  0  0  0  0
 27 25  1  0  0  0  0
 28 29  2  0  0  0  0
 28 26  1  0  0  0  0
 29 30  1  0  0  0  0
 30 27  1  0  0  0  0
M  END
>  <MODEL>
4

>  <REMARK>
 VINA RESULT:      -7.5      3.083      7.477
  Name = 
  7 active torsions:
  status: ('A' for Active; 'I' for Inactive)
    1  A    between atoms: C_5  and  C_10
    2  A    between atoms: C_6  and  C_26
    3  A    between atoms: C_10  and  C_20
    4  A    between atoms: C_12  and  C_22
    5  A    between atoms: C_14  and  C_20
    6  A    between atoms: C_21  and  C_22
    7  A    between atoms: C_21  and  C_26
                            x       y       z     vdW  Elec       q    Type
                         _______ _______ _______ _____ _____    ______ ____

>  <TORSDO>
F 7

$$$$
=
 OpenBabel11072411033D

 30 32  0  0  1  0  0  0  0  0999 V2000
  161.5800  204.4170  147.6860 C   0  0  0  0  0  0  0  0  0  0  0  0
  160.5280  204.6110  149.9380 C   0  0  2  0  0  3  0  0  0  0  0  0
  161.7590  205.8810  147.6250 C   0  0  0  0  0  0  0  0  0  0  0  0
  161.1780  205.7420  152.4910 C   0  0  0  0  0  0  0  0  0  0  0  0
  161.4080  206.5330  151.2430 C   0  0  0  0  0  0  0  0  0  0  0  0
  161.0440  203.8330  148.7600 C   0  0  0  0  0  3  0  0  0  0  0  0
  161.1680  205.9780  150.0360 C   0  0  0  0  0  0  0  0  0  0  0  0
  161.3410  206.7640  148.7640 C   0  0  0  0  0  2  0  0  0  0  0  0
  162.0000  203.6250  146.6250 O   0  0  0  0  0  1  0  0  0  0  0  0
  162.2510  206.4080  146.5930 O   0  0  0  0  0  0  0  0  0  0  0  0
  160.7100  203.8450  151.1280 O   0  0  0  0  0  0  0  0  0  0  0  0
  160.8740  204.4440  152.3790 C   0  0  0  0  0  3  0  0  0  0  0  0
  162.4370  206.5500  154.3560 O   0  0  0  0  0  0  0  0  0  0  0  0
  161.3030  206.3300  153.8510 C   0  0  0  0  0  0  0  0  0  0  0  0
  160.0930  206.7220  154.6420 C   0  0  0  0  0  2  0  0  0  0  0  0
  159.5240  208.6060  156.1420 C   0  0  0  0  0  1  0  0  0  0  0  0
  160.4910  207.4650  155.9060 C   0  0  1  0  0  3  0  0  0  0  0  0
  160.4570  206.5990  156.9990 O   0  0  0  0  0  1  0  0  0  0  0  0
  161.9980  207.9120  151.3190 C   0  0  0  0  0  2  0  0  0  0  0  0
  160.9060  208.9300  151.5820 C   0  0  0  0  0  2  0  0  0  0  0  0
  161.5250  210.3030  151.7440 C   0  0  0  0  0  2  0  0  0  0  0  0
  159.7090  212.0240  151.8880 N   0  0  0  0  0  0  0  0  0  0  0  0
  157.7690  213.2400  151.3850 N   0  0  0  0  0  1  0  0  0  0  0  0
  160.6380  211.1680  152.5780 C   0  0  0  0  0  0  0  0  0  0  0  0
  161.7260  210.3470  154.5180 O   0  0  0  0  0  1  0  0  0  0  0  0
  158.5490  212.4650  152.2890 C   0  0  0  0  0  0  0  0  0  0  0  0
  160.8050  211.1950  153.9100 C   0  0  0  0  0  0  0  0  0  0  0  0
  157.9550  212.0740  153.5370 N   0  0  0  0  0  0  0  0  0  0  0  0
  158.5900  211.8980  154.6540 C   0  0  0  0  0  3  0  0  0  0  0  0
  160.0520  212.1440  154.7760 C   0  0  0  0  0  2  0  0  0  0  0  0
  1  6  2  0  0  0  0
  2  6  1  6  0  0  0
  2  7  1  0  0  0  0
  2 11  1  0  0  0  0
  3  1  1  0  0  0  0
  3  8  1  0  0  0  0
  4 14  1  0  0  0  0
  5 19  1  0  0  0  0
  5  4  1  0  0  0  0
  7  5  2  0  0  0  0
  8  7  1  0  0  0  0
  9  1  1  0  0  0  0
 10  3  2  0  0  0  0
 11 12  1  0  0  0  0
 12  4  2  0  0  0  0
 14 13  2  0  0  0  0
 14 15  1  0  0  0  0
 15 17  1  0  0  0  0
 17 16  1  1  0  0  0
 17 18  1  0  0  0  0
 19 20  1  0  0  0  0
 20 21  1  0  0  0  0
 21 24  1  0  0  0  0
 22 26  2  0  0  0  0
 22 24  1  0  0  0  0
 23 26  1  0  0  0  0
 24 27  2  0  0  0  0
 26 28  1  0  0  0  0
 27 25  1  0  0  0  0
 27 30  1  0  0  0  0
 28 29  2  0  0  0  0
 29 30  1  0  0  0  0
M  END
>  <MODEL>
5

>  <REMARK>
 VINA RESULT:      -7.4      2.384      4.556
  Name = 
  7 active torsions:
  status: ('A' for Active; 'I' for Inactive)
    1  A    between atoms: C_5  and  C_10
    2  A    between atoms: C_6  and  C_26
    3  A    between atoms: C_10  and  C_20
    4  A    between atoms: C_12  and  C_22
    5  A    between atoms: C_14  and  C_20
    6  A    between atoms: C_21  and  C_22
    7  A    between atoms: C_21  and  C_26
                            x       y       z     vdW  Elec       q    Type
                         _______ _______ _______ _____ _____    ______ ____

>  <TORSDO>
F 7

$$$$
=
 OpenBabel11072411033D

 30 32  0  0  1  0  0  0  0  0999 V2000
  161.5950  204.0320  147.0880 C   0  0  0  0  0  0  0  0  0  0  0  0
  160.6270  204.3220  149.3680 C   0  0  2  0  0  3  0  0  0  0  0  0
  161.8080  205.4880  146.9750 C   0  0  0  0  0  0  0  0  0  0  0  0
  161.3930  205.5130  151.8600 C   0  0  0  0  0  0  0  0  0  0  0  0
  161.6000  206.2590  150.5810 C   0  0  0  0  0  0  0  0  0  0  0  0
  161.0820  203.4950  148.1980 C   0  0  0  0  0  3  0  0  0  0  0  0
  161.3040  205.6740  149.4010 C   0  0  0  0  0  0  0  0  0  0  0  0
  161.4510  206.4160  148.0990 C   0  0  0  0  0  2  0  0  0  0  0  0
  161.9580  203.1980  146.0390 O   0  0  0  0  0  1  0  0  0  0  0  0
  162.2760  205.9700  145.9110 O   0  0  0  0  0  0  0  0  0  0  0  0
  160.8320  203.5880  150.5740 O   0  0  0  0  0  0  0  0  0  0  0  0
  161.0530  204.2210  151.8000 C   0  0  0  0  0  3  0  0  0  0  0  0
  162.7240  206.2020  153.7230 O   0  0  0  0  0  0  0  0  0  0  0  0
  161.5810  206.1390  153.1960 C   0  0  0  0  0  0  0  0  0  0  0  0
  160.4300  206.7530  153.9340 C   0  0  0  0  0  2  0  0  0  0  0  0
  160.8290  208.9210  155.0570 C   0  0  0  0  0  1  0  0  0  0  0  0
  160.9040  207.4180  155.2160 C   0  0  1  0  0  3  0  0  0  0  0  0
  160.0940  207.0260  156.2820 O   0  0  0  0  0  1  0  0  0  0  0  0
  162.2260  207.6240  150.5930 C   0  0  0  0  0  2  0  0  0  0  0  0
  161.1660  208.6790  150.8380 C   0  0  0  0  0  2  0  0  0  0  0  0
  161.7780  209.8450  151.5870 C   0  0  0  0  0  2  0  0  0  0  0  0
  162.2750  211.4580  149.7340 N   0  0  0  0  0  0  0  0  0  0  0  0
  162.9050  212.2890  147.6360 N   0  0  0  0  0  1  0  0  0  0  0  0
  161.4710  211.1240  150.8810 C   0  0  0  0  0  0  0  0  0  0  0  0
  159.8020  211.5750  152.5040 O   0  0  0  0  0  1  0  0  0  0  0  0
  161.9550  212.1660  148.6870 C   0  0  0  0  0  0  0  0  0  0  0  0
  160.5430  211.9530  151.3880 C   0  0  0  0  0  0  0  0  0  0  0  0
  160.6350  212.6940  148.4760 N   0  0  0  0  0  0  0  0  0  0  0  0
  159.8610  213.1840  149.3940 C   0  0  0  0  0  3  0  0  0  0  0  0
  160.2980  213.3030  150.8120 C   0  0  0  0  0  2  0  0  0  0  0  0
  1  6  2  0  0  0  0
  2  6  1  6  0  0  0
  2  7  1  0  0  0  0
  2 11  1  0  0  0  0
  3  1  1  0  0  0  0
  3  8  1  0  0  0  0
  4 14  1  0  0  0  0
  5 19  1  0  0  0  0
  5  4  1  0  0  0  0
  7  5  2  0  0  0  0
  8  7  1  0  0  0  0
  9  1  1  0  0  0  0
 10  3  2  0  0  0  0
 11 12  1  0  0  0  0
 12  4  2  0  0  0  0
 14 13  2  0  0  0  0
 14 15  1  0  0  0  0
 15 17  1  0  0  0  0
 17 16  1  6  0  0  0
 17 18  1  0  0  0  0
 19 20  1  0  0  0  0
 20 21  1  0  0  0  0
 22 24  1  0  0  0  0
 23 26  1  0  0  0  0
 24 27  2  0  0  0  0
 24 21  1  0  0  0  0
 26 22  2  0  0  0  0
 27 25  1  0  0  0  0
 28 26  1  0  0  0  0
 28 29  2  0  0  0  0
 29 30  1  0  0  0  0
 30 27  1  0  0  0  0
M  END
>  <MODEL>
6

>  <REMARK>
 VINA RESULT:      -7.2      2.429      5.134
  Name = 
  7 active torsions:
  status: ('A' for Active; 'I' for Inactive)
    1  A    between atoms: C_5  and  C_10
    2  A    between atoms: C_6  and  C_26
    3  A    between atoms: C_10  and  C_20
    4  A    between atoms: C_12  and  C_22
    5  A    between atoms: C_14  and  C_20
    6  A    between atoms: C_21  and  C_22
    7  A    between atoms: C_21  and  C_26
                            x       y       z     vdW  Elec       q    Type
                         _______ _______ _______ _____ _____    ______ ____

>  <TORSDO>
F 7

$$$$
=
 OpenBabel11072411033D

 30 32  0  0  1  0  0  0  0  0999 V2000
  157.7650  213.6590  150.7360 C   0  0  0  0  0  0  0  0  0  0  0  0
  158.0780  213.2590  153.1770 C   0  0  2  0  0  3  0  0  0  0  0  0
  159.1930  213.3770  150.4900 C   0  0  0  0  0  0  0  0  0  0  0  0
  159.0910  211.1820  154.8720 C   0  0  0  0  0  0  0  0  0  0  0  0
  159.8560  211.5910  153.6540 C   0  0  0  0  0  0  0  0  0  0  0  0
  157.2490  213.5750  151.9640 C   0  0  0  0  0  3  0  0  0  0  0  0
  159.3470  212.5200  152.8170 C   0  0  0  0  0  0  0  0  0  0  0  0
  160.1140  212.9910  151.6100 C   0  0  0  0  0  2  0  0  0  0  0  0
  156.9340  213.9910  149.6740 O   0  0  0  0  0  1  0  0  0  0  0  0
  159.6590  213.4820  149.3260 O   0  0  0  0  0  0  0  0  0  0  0  0
  157.2850  212.5390  154.1190 O   0  0  0  0  0  0  0  0  0  0  0  0
  157.8460  211.6430  155.0320 C   0  0  0  0  0  3  0  0  0  0  0  0
  160.2270  210.7060  156.9220 O   0  0  0  0  0  0  0  0  0  0  0  0
  159.6460  210.2580  155.8970 C   0  0  0  0  0  0  0  0  0  0  0  0
  159.4920  208.7730  155.7690 C   0  0  0  0  0  2  0  0  0  0  0  0
  160.5320  207.0550  157.2130 C   0  0  0  0  0  1  0  0  0  0  0  0
  160.7900  208.0630  156.1140 C   0  0  1  0  0  3  0  0  0  0  0  0
  161.2860  207.4030  154.9900 O   0  0  0  0  0  1  0  0  0  0  0  0
  161.1440  210.9040  153.3020 C   0  0  0  0  0  2  0  0  0  0  0  0
  160.8730  209.7400  152.3680 C   0  0  0  0  0  2  0  0  0  0  0  0
  162.0260  209.5960  151.3950 C   0  0  0  0  0  2  0  0  0  0  0  0
  161.9110  207.0930  151.4470 N   0  0  0  0  0  0  0  0  0  0  0  0
  161.4170  204.9160  152.1610 N   0  0  0  0  0  1  0  0  0  0  0  0
  161.9160  208.3000  150.6620 C   0  0  0  0  0  0  0  0  0  0  0  0
  161.9420  209.4990  148.6170 O   0  0  0  0  0  1  0  0  0  0  0  0
  161.3520  205.9450  151.1810 C   0  0  0  0  0  0  0  0  0  0  0  0
  161.9300  208.2970  149.3190 C   0  0  0  0  0  0  0  0  0  0  0  0
  160.5400  205.7250  150.0160 N   0  0  0  0  0  0  0  0  0  0  0  0
  160.7680  206.2070  148.8330 C   0  0  0  0  0  3  0  0  0  0  0  0
  161.9710  207.0310  148.5370 C   0  0  0  0  0  2  0  0  0  0  0  0
  1  6  2  0  0  0  0
  2  6  1  6  0  0  0
  2 11  1  0  0  0  0
  3  1  1  0  0  0  0
  3  8  1  0  0  0  0
  4 12  2  0  0  0  0
  4 14  1  0  0  0  0
  5  4  1  0  0  0  0
  7  2  1  0  0  0  0
  7  5  2  0  0  0  0
  8  7  1  0  0  0  0
  9  1  1  0  0  0  0
 10  3  2  0  0  0  0
 11 12  1  0  0  0  0
 14 13  2  0  0  0  0
 15 14  1  0  0  0  0
 15 17  1  0  0  0  0
 17 16  1  1  0  0  0
 18 17  1  0  0  0  0
 19  5  1  0  0  0  0
 20 19  1  0  0  0  0
 21 20  1  0  0  0  0
 24 21  1  0  0  0  0
 24 22  1  0  0  0  0
 25 27  1  0  0  0  0
 26 22  2  0  0  0  0
 26 23  1  0  0  0  0
 27 24  2  0  0  0  0
 28 26  1  0  0  0  0
 29 28  2  0  0  0  0
 30 29  1  0  0  0  0
 30 27  1  0  0  0  0
M  END
>  <MODEL>
7

>  <REMARK>
 VINA RESULT:      -7.1      3.143      8.125
  Name = 
  7 active torsions:
  status: ('A' for Active; 'I' for Inactive)
    1  A    between atoms: C_5  and  C_10
    2  A    between atoms: C_6  and  C_26
    3  A    between atoms: C_10  and  C_20
    4  A    between atoms: C_12  and  C_22
    5  A    between atoms: C_14  and  C_20
    6  A    between atoms: C_21  and  C_22
    7  A    between atoms: C_21  and  C_26
                            x       y       z     vdW  Elec       q    Type
                         _______ _______ _______ _____ _____    ______ ____

>  <TORSDO>
F 7

$$$$
=
 OpenBabel11072411033D

 30 32  0  0  1  0  0  0  0  0999 V2000
  161.5810  204.4110  147.6550 C   0  0  0  0  0  0  0  0  0  0  0  0
  160.6010  204.4710  149.9460 C   0  0  2  0  0  3  0  0  0  0  0  0
  161.5790  205.8860  147.5970 C   0  0  0  0  0  0  0  0  0  0  0  0
  161.2060  205.6670  152.4800 C   0  0  0  0  0  0  0  0  0  0  0  0
  161.2910  206.4830  151.2300 C   0  0  0  0  0  0  0  0  0  0  0  0
  161.1610  203.7640  148.7440 C   0  0  0  0  0  3  0  0  0  0  0  0
  161.0740  205.9050  150.0290 C   0  0  0  0  0  0  0  0  0  0  0  0
  161.1010  206.7090  148.7570 C   0  0  0  0  0  2  0  0  0  0  0  0
  162.0530  203.6780  146.5730 O   0  0  0  0  0  1  0  0  0  0  0  0
  161.9630  206.4700  146.5510 O   0  0  0  0  0  0  0  0  0  0  0  0
  160.9200  203.7310  151.1230 O   0  0  0  0  0  0  0  0  0  0  0  0
  161.0570  204.3420  152.3710 C   0  0  0  0  0  3  0  0  0  0  0  0
  162.4340  206.5770  154.3190 O   0  0  0  0  0  0  0  0  0  0  0  0
  161.3120  206.2630  153.8390 C   0  0  0  0  0  0  0  0  0  0  0  0
  160.0910  206.5510  154.6570 C   0  0  0  0  0  2  0  0  0  0  0  0
  159.3270  208.3840  156.1330 C   0  0  0  0  0  1  0  0  0  0  0  0
  160.4410  207.3930  155.8720 C   0  0  1  0  0  3  0  0  0  0  0  0
  160.6000  206.5730  156.9900 O   0  0  0  0  0  1  0  0  0  0  0  0
  161.7130  207.9230  151.2930 C   0  0  0  0  0  2  0  0  0  0  0  0
  160.5850  208.7700  151.8480 C   0  0  0  0  0  2  0  0  0  0  0  0
  161.0880  210.1760  152.1010 C   0  0  0  0  0  2  0  0  0  0  0  0
  161.4390  210.3800  154.5740 N   0  0  0  0  0  0  0  0  0  0  0  0
  162.5140  210.6200  156.6430 N   0  0  0  0  0  1  0  0  0  0  0  0
  160.6090  210.6580  153.4310 C   0  0  0  0  0  0  0  0  0  0  0  0
  158.6400  211.4660  152.3860 O   0  0  0  0  0  1  0  0  0  0  0  0
  161.5570  211.0550  155.6840 C   0  0  0  0  0  0  0  0  0  0  0  0
  159.3980  211.2300  153.5300 C   0  0  0  0  0  0  0  0  0  0  0  0
  160.8820  212.3020  155.9140 N   0  0  0  0  0  0  0  0  0  0  0  0
  159.6740  212.5890  155.5380 C   0  0  0  0  0  3  0  0  0  0  0  0
  158.8080  211.5960  154.8460 C   0  0  0  0  0  2  0  0  0  0  0  0
  1  6  2  0  0  0  0
  2  6  1  6  0  0  0
  2  7  1  0  0  0  0
  2 11  1  0  0  0  0
  3  1  1  0  0  0  0
  3  8  1  0  0  0  0
  4 14  1  0  0  0  0
  5 19  1  0  0  0  0
  5  4  1  0  0  0  0
  7  5  2  0  0  0  0
  8  7  1  0  0  0  0
  9  1  1  0  0  0  0
 10  3  2  0  0  0  0
 11 12  1  0  0  0  0
 12  4  2  0  0  0  0
 14 13  2  0  0  0  0
 14 15  1  0  0  0  0
 15 17  1  0  0  0  0
 17 16  1  1  0  0  0
 17 18  1  0  0  0  0
 19 20  1  0  0  0  0
 20 21  1  0  0  0  0
 21 24  1  0  0  0  0
 22 26  2  0  0  0  0
 24 27  2  0  0  0  0
 24 22  1  0  0  0  0
 25 27  1  0  0  0  0
 26 28  1  0  0  0  0
 26 23  1  0  0  0  0
 27 30  1  0  0  0  0
 29 28  2  0  0  0  0
 30 29  1  0  0  0  0
M  END
>  <MODEL>
8

>  <REMARK>
 VINA RESULT:      -7.1      2.246      4.685
  Name = 
  7 active torsions:
  status: ('A' for Active; 'I' for Inactive)
    1  A    between atoms: C_5  and  C_10
    2  A    between atoms: C_6  and  C_26
    3  A    between atoms: C_10  and  C_20
    4  A    between atoms: C_12  and  C_22
    5  A    between atoms: C_14  and  C_20
    6  A    between atoms: C_21  and  C_22
    7  A    between atoms: C_21  and  C_26
                            x       y       z     vdW  Elec       q    Type
                         _______ _______ _______ _____ _____    ______ ____

>  <TORSDO>
F 7

$$$$
=
 OpenBabel11072411033D

 30 32  0  0  1  0  0  0  0  0999 V2000
  160.7330  203.6860  150.0730 C   0  0  0  0  0  0  0  0  0  0  0  0
  161.8920  205.6570  149.0800 C   0  0  2  0  0  3  0  0  0  0  0  0
  161.1530  204.0990  151.4260 C   0  0  0  0  0  0  0  0  0  0  0  0
  161.8860  208.5050  149.4050 C   0  0  0  0  0  0  0  0  0  0  0  0
  161.9270  207.6160  150.6080 C   0  0  0  0  0  0  0  0  0  0  0  0
  161.0470  204.4170  149.0010 C   0  0  0  0  0  3  0  0  0  0  0  0
  161.8600  206.2760  150.4600 C   0  0  0  0  0  0  0  0  0  0  0  0
  161.9500  205.3520  151.6450 C   0  0  0  0  0  2  0  0  0  0  0  0
  159.9760  202.5330  149.9070 O   0  0  0  0  0  1  0  0  0  0  0  0
  160.8600  203.3820  152.4180 O   0  0  0  0  0  0  0  0  0  0  0  0
  161.4820  206.5750  148.0690 O   0  0  0  0  0  0  0  0  0  0  0  0
  161.6390  207.9560  148.2110 C   0  0  0  0  0  3  0  0  0  0  0  0
  162.5540  210.5080  150.5270 O   0  0  0  0  0  0  0  0  0  0  0  0
  162.0790  209.9780  149.4870 C   0  0  0  0  0  0  0  0  0  0  0  0
  161.7600  210.8680  148.3250 C   0  0  0  0  0  2  0  0  0  0  0  0
  162.8760  213.0130  147.8050 C   0  0  0  0  0  1  0  0  0  0  0  0
  161.8800  212.3310  148.7170 C   0  0  1  0  0  3  0  0  0  0  0  0
  160.6390  212.9590  148.5960 O   0  0  0  0  0  1  0  0  0  0  0  0
  161.9430  208.2090  151.9870 C   0  0  0  0  0  2  0  0  0  0  0  0
  160.5260  208.3790  152.4960 C   0  0  0  0  0  2  0  0  0  0  0  0
  160.2450  209.8510  152.7210 C   0  0  0  0  0  2  0  0  0  0  0  0
  160.6080  209.0870  155.0800 N   0  0  0  0  0  0  0  0  0  0  0  0
  161.4070  207.8580  156.9080 N   0  0  0  0  0  1  0  0  0  0  0  0
  160.3750  210.1800  154.1720 C   0  0  0  0  0  0  0  0  0  0  0  0
  159.9440  212.4540  153.6560 O   0  0  0  0  0  1  0  0  0  0  0  0
  161.2330  209.0940  156.2250 C   0  0  0  0  0  0  0  0  0  0  0  0
  160.1720  211.4420  154.5840 C   0  0  0  0  0  0  0  0  0  0  0  0
  161.8890  210.2590  156.7500 N   0  0  0  0  0  0  0  0  0  0  0  0
  161.4510  211.4770  156.6630 C   0  0  0  0  0  3  0  0  0  0  0  0
  160.1440  211.8000  156.0290 C   0  0  0  0  0  2  0  0  0  0  0  0
  1  3  1  0  0  0  0
  2  6  1  1  0  0  0
  2  7  1  0  0  0  0
  3  8  1  0  0  0  0
  3 10  2  0  0  0  0
  4 14  1  0  0  0  0
  4  5  1  0  0  0  0
  5 19  1  0  0  0  0
  6  1  2  0  0  0  0
  7  5  2  0  0  0  0
  7  8  1  0  0  0  0
  9  1  1  0  0  0  0
 11 12  1  0  0  0  0
 11  2  1  0  0  0  0
 12  4  2  0  0  0  0
 14 13  2  0  0  0  0
 15 17  1  0  0  0  0
 15 14  1  0  0  0  0
 17 16  1  6  0  0  0
 18 17  1  0  0  0  0
 19 20  1  0  0  0  0
 20 21  1  0  0  0  0
 21 24  1  0  0  0  0
 22 26  2  0  0  0  0
 24 27  2  0  0  0  0
 24 22  1  0  0  0  0
 25 27  1  0  0  0  0
 26 28  1  0  0  0  0
 26 23  1  0  0  0  0
 27 30  1  0  0  0  0
 29 28  2  0  0  0  0
 30 29  1  0  0  0  0
M  END
>  <MODEL>
9

>  <REMARK>
 VINA RESULT:      -7.1      1.554      2.007
  Name = 
  7 active torsions:
  status: ('A' for Active; 'I' for Inactive)
    1  A    between atoms: C_5  and  C_10
    2  A    between atoms: C_6  and  C_26
    3  A    between atoms: C_10  and  C_20
    4  A    between atoms: C_12  and  C_22
    5  A    between atoms: C_14  and  C_20
    6  A    between atoms: C_21  and  C_22
    7  A    between atoms: C_21  and  C_26
                            x       y       z     vdW  Elec       q    Type
                         _______ _______ _______ _____ _____    ______ ____

>  <TORSDO>
F 7

$$$$
