=
 OpenBabel11072413573D

 29 32  0  0  1  0  0  0  0  0999 V2000
  161.9130  203.5760  145.6120 S   0  0  0  0  0  0  0  0  0  0  0  0
  160.9810  201.1940  146.1190 O   0  0  0  0  0  0  0  0  0  0  0  0
  162.4010  208.8480  149.1120 C   0  0  0  0  0  2  0  0  0  0  0  0
  161.2990  206.2470  149.0810 C   0  0  0  0  0  0  0  0  0  0  0  0
  160.4040  204.3130  150.3190 N   0  0  0  0  0  2  0  0  0  0  0  0
  162.4020  207.9950  147.9200 N   0  0  0  0  0  0  0  0  0  0  0  0
  160.7580  202.0190  151.1240 C   0  0  0  0  0  2  0  0  0  0  0  0
  160.8320  202.7880  147.7790 N   0  0  0  0  0  0  0  0  0  0  0  0
  161.1720  204.0990  147.9710 C   0  0  0  0  0  0  0  0  0  0  0  0
  160.1150  201.9370  148.7230 C   0  0  0  0  0  2  0  0  0  0  0  0
  161.9510  206.7730  147.9300 C   0  0  0  0  0  0  0  0  0  0  0  0
  160.9900  207.0620  150.1030 C   0  0  0  0  0  3  0  0  0  0  0  0
  161.0650  201.3940  149.7740 C   0  0  0  0  0  2  0  0  0  0  0  0
  161.7610  204.6870  146.8620 C   0  0  0  0  0  0  0  0  0  0  0  0
  162.1480  205.9850  146.8370 N   0  0  0  0  0  0  0  0  0  0  0  0
  161.1870  202.3650  146.5390 C   0  0  0  0  0  0  0  0  0  0  0  0
  161.1950  208.5450  149.9950 C   0  0  0  0  0  2  0  0  0  0  0  0
  160.9550  204.8770  149.1260 C   0  0  0  0  0  0  0  0  0  0  0  0
  161.2220  203.4700  151.1800 C   0  0  2  0  0  3  0  0  0  0  0  0
  161.2080  203.9970  152.6110 C   0  0  0  0  0  2  0  0  0  0  0  0
  161.8480  205.3730  152.7240 C   0  0  0  0  0  2  0  0  0  0  0  0
  161.2630  206.1030  153.9120 C   0  0  0  0  0  2  0  0  0  0  0  0
  160.8690  207.4860  153.5040 C   0  0  0  0  0  3  0  0  0  0  0  0
  160.8880  208.5250  154.3470 C   0  0  0  0  0  3  0  0  0  0  0  0
  161.3130  208.4200  155.7820 C   0  0  2  0  0  3  0  0  0  0  0  0
  160.1410  208.2520  156.6230 N   0  0  0  0  0  1  0  0  0  0  0  0
  161.8810  210.7280  155.6030 O   0  0  0  0  0  0  0  0  0  0  0  0
  162.9680  209.5780  157.2610 O   0  0  0  0  0  1  0  0  0  0  0  0
  162.0650  209.6380  156.2060 C   0  0  0  0  0  0  0  0  0  0  0  0
  1 16  1  0  0  0  0
  1 14  1  0  0  0  0
  2 16  2  0  0  0  0
  3 17  1  0  0  0  0
  4 18  1  0  0  0  0
  4 12  2  0  0  0  0
  5 19  1  0  0  0  0
  6 11  2  0  0  0  0
  6  3  1  0  0  0  0
  7 19  1  0  0  0  0
  8  9  1  0  0  0  0
  8 10  1  0  0  0  0
  9 18  2  0  0  0  0
 10 13  1  0  0  0  0
 11  4  1  0  0  0  0
 13  7  1  0  0  0  0
 14  9  1  0  0  0  0
 15 14  2  0  0  0  0
 15 11  1  0  0  0  0
 16  8  1  0  0  0  0
 17 12  1  0  0  0  0
 18  5  1  0  0  0  0
 19 20  1  1  0  0  0
 20 21  1  0  0  0  0
 21 22  1  0  0  0  0
 23 22  1  0  0  0  0
 23 24  2  0  0  0  0
 24 25  1  0  0  0  0
 25 29  1  0  0  0  0
 25 26  1  1  0  0  0
 27 29  2  0  0  0  0
 29 28  1  0  0  0  0
M  END
>  <MODEL>
1

>  <REMARK>
 VINA RESULT:      -8.3      0.000      0.000
  Name = 
  6 active torsions:
  status: ('A' for Active; 'I' for Inactive)
    1  A    between atoms: C_1  and  C_18
    2  A    between atoms: C_9  and  CA_14
    3  A    between atoms: C_13  and  C_18
    4  A    between atoms: C_13  and  C_24
    5  A    between atoms: CA_14  and  C_15
    6  A    between atoms: C_24  and  C_29
                            x       y       z     vdW  Elec       q    Type
                         _______ _______ _______ _____ _____    ______ ____

>  <TORSDO>
F 6

$$$$
=
 OpenBabel11072413573D

 29 32  0  0  1  0  0  0  0  0999 V2000
  161.2670  207.5330  154.9290 S   0  0  0  0  0  0  0  0  0  0  0  0
  161.1790  210.0990  154.4730 O   0  0  0  0  0  0  0  0  0  0  0  0
  161.2690  202.4730  151.0990 C   0  0  0  0  0  2  0  0  0  0  0  0
  160.9350  205.2770  151.1410 C   0  0  0  0  0  0  0  0  0  0  0  0
  160.9620  207.4300  149.9420 N   0  0  0  0  0  2  0  0  0  0  0  0
  161.1720  203.2460  152.3400 N   0  0  0  0  0  0  0  0  0  0  0  0
  162.1200  209.5540  149.5140 C   0  0  0  0  0  2  0  0  0  0  0  0
  161.0700  208.6760  152.6620 N   0  0  0  0  0  0  0  0  0  0  0  0
  161.0870  207.3300  152.4160 C   0  0  0  0  0  0  0  0  0  0  0  0
  160.8920  209.7300  151.6690 C   0  0  0  0  0  2  0  0  0  0  0  0
  161.0830  204.5460  152.3540 C   0  0  0  0  0  0  0  0  0  0  0  0
  160.7120  204.6230  149.9910 C   0  0  0  0  0  3  0  0  0  0  0  0
  162.2020  210.0160  150.9590 C   0  0  0  0  0  2  0  0  0  0  0  0
  161.1720  206.5580  153.5650 C   0  0  0  0  0  0  0  0  0  0  0  0
  161.1760  205.2040  153.5410 N   0  0  0  0  0  0  0  0  0  0  0  0
  161.1720  208.9350  153.9910 C   0  0  0  0  0  0  0  0  0  0  0  0
  160.4760  203.1410  149.9790 C   0  0  0  0  0  2  0  0  0  0  0  0
  160.9950  206.6890  151.1650 C   0  0  0  0  0  0  0  0  0  0  0  0
  162.1780  208.0340  149.4150 C   0  0  2  0  0  3  0  0  0  0  0  0
  162.4160  207.5850  147.9770 C   0  0  0  0  0  2  0  0  0  0  0  0
  162.0170  206.1340  147.7540 C   0  0  0  0  0  2  0  0  0  0  0  0
  161.4590  205.9750  146.3560 C   0  0  0  0  0  2  0  0  0  0  0  0
  162.3370  205.0570  145.5700 C   0  0  0  0  0  3  0  0  0  0  0  0
  162.0730  203.7530  145.4190 C   0  0  0  0  0  3  0  0  0  0  0  0
  160.8700  203.0780  146.0090 C   0  0  2  0  0  3  0  0  0  0  0  0
  161.2980  202.0940  146.9870 N   0  0  0  0  0  1  0  0  0  0  0  0
  159.3560  203.1060  144.1690 O   0  0  0  0  0  0  0  0  0  0  0  0
  160.0740  201.0270  144.8140 O   0  0  0  0  0  1  0  0  0  0  0  0
  160.0590  202.4110  144.9480 C   0  0  0  0  0  0  0  0  0  0  0  0
  3  6  1  0  0  0  0
  4 18  1  0  0  0  0
  4 11  1  0  0  0  0
  5 18  1  0  0  0  0
  6 11  2  0  0  0  0
  7 13  1  0  0  0  0
  8 16  1  0  0  0  0
  9  8  1  0  0  0  0
  9 14  1  0  0  0  0
 10  8  1  0  0  0  0
 11 15  1  0  0  0  0
 12  4  2  0  0  0  0
 13 10  1  0  0  0  0
 14  1  1  0  0  0  0
 15 14  2  0  0  0  0
 16  2  2  0  0  0  0
 16  1  1  0  0  0  0
 17 12  1  0  0  0  0
 17  3  1  0  0  0  0
 18  9  2  0  0  0  0
 19 20  1  6  0  0  0
 19  7  1  0  0  0  0
 19  5  1  0  0  0  0
 21 20  1  0  0  0  0
 22 21  1  0  0  0  0
 23 22  1  0  0  0  0
 24 23  2  0  0  0  0
 24 25  1  0  0  0  0
 25 26  1  1  0  0  0
 27 29  2  0  0  0  0
 28 29  1  0  0  0  0
 29 25  1  0  0  0  0
M  END
>  <MODEL>
2

>  <REMARK>
 VINA RESULT:      -8.3      2.611      8.521
  Name = 
  6 active torsions:
  status: ('A' for Active; 'I' for Inactive)
    1  A    between atoms: C_1  and  C_18
    2  A    between atoms: C_9  and  CA_14
    3  A    between atoms: C_13  and  C_18
    4  A    between atoms: C_13  and  C_24
    5  A    between atoms: CA_14  and  C_15
    6  A    between atoms: C_24  and  C_29
                            x       y       z     vdW  Elec       q    Type
                         _______ _______ _______ _____ _____    ______ ____

>  <TORSDO>
F 6

$$$$
=
 OpenBabel11072413573D

 29 32  0  0  1  0  0  0  0  0999 V2000
  161.1690  202.3030  150.3560 S   0  0  0  0  0  0  0  0  0  0  0  0
  160.9320  203.4080  152.7070 O   0  0  0  0  0  0  0  0  0  0  0  0
  161.4780  204.6890  144.4840 C   0  0  0  0  0  2  0  0  0  0  0  0
  160.9800  205.3720  147.1790 C   0  0  0  0  0  0  0  0  0  0  0  0
  160.8850  207.0890  148.9450 N   0  0  0  0  0  2  0  0  0  0  0  0
  161.3320  203.6900  145.5460 N   0  0  0  0  0  0  0  0  0  0  0  0
  161.9180  208.0670  150.9470 C   0  0  0  0  0  2  0  0  0  0  0  0
  160.9120  204.7860  150.8580 N   0  0  0  0  0  0  0  0  0  0  0  0
  161.0080  204.6750  149.4980 C   0  0  0  0  0  0  0  0  0  0  0  0
  160.6750  206.0170  151.6060 C   0  0  0  0  0  2  0  0  0  0  0  0
  161.1670  204.0130  146.7970 C   0  0  0  0  0  0  0  0  0  0  0  0
  160.7990  206.3100  146.2370 C   0  0  0  0  0  3  0  0  0  0  0  0
  161.9690  206.7930  151.7720 C   0  0  0  0  0  2  0  0  0  0  0  0
  161.1350  203.3660  149.0570 C   0  0  0  0  0  0  0  0  0  0  0  0
  161.2180  203.0380  147.7460 N   0  0  0  0  0  0  0  0  0  0  0  0
  160.9950  203.5710  151.4580 C   0  0  0  0  0  0  0  0  0  0  0  0
  160.6510  205.9340  144.7920 C   0  0  0  0  0  2  0  0  0  0  0  0
  160.9570  205.7160  148.5500 C   0  0  0  0  0  0  0  0  0  0  0  0
  162.0650  207.7700  149.4600 C   0  0  2  0  0  3  0  0  0  0  0  0
  162.3330  209.0440  148.6670 C   0  0  0  0  0  2  0  0  0  0  0  0
  162.0020  210.2980  149.4640 C   0  0  0  0  0  2  0  0  0  0  0  0
  162.3480  211.5210  148.6430 C   0  0  0  0  0  2  0  0  0  0  0  0
  161.3080  212.5730  148.8530 C   0  0  0  0  0  3  0  0  0  0  0  0
  160.5900  213.0950  147.8510 C   0  0  0  0  0  3  0  0  0  0  0  0
  160.7420  212.6770  146.4180 C   0  0  2  0  0  3  0  0  0  0  0  0
  161.4860  213.6930  145.6940 N   0  0  0  0  0  1  0  0  0  0  0  0
  158.3610  212.5780  146.4680 O   0  0  0  0  0  1  0  0  0  0  0  0
  159.3150  212.1830  144.4220 O   0  0  0  0  0  0  0  0  0  0  0  0
  159.4090  212.4780  145.7770 C   0  0  0  0  0  0  0  0  0  0  0  0
  1 16  1  0  0  0  0
  3 17  1  0  0  0  0
  3  6  1  0  0  0  0
  4 18  1  0  0  0  0
  5 19  1  0  0  0  0
  6 11  2  0  0  0  0
  7 13  1  0  0  0  0
  8 16  1  0  0  0  0
  8 10  1  0  0  0  0
  9  8  1  0  0  0  0
 10 13  1  0  0  0  0
 11  4  1  0  0  0  0
 11 15  1  0  0  0  0
 12  4  2  0  0  0  0
 14  9  1  0  0  0  0
 14  1  1  0  0  0  0
 15 14  2  0  0  0  0
 16  2  2  0  0  0  0
 17 12  1  0  0  0  0
 18  5  1  0  0  0  0
 18  9  2  0  0  0  0
 19 20  1  6  0  0  0
 19  7  1  0  0  0  0
 20 21  1  0  0  0  0
 22 23  1  0  0  0  0
 22 21  1  0  0  0  0
 24 23  2  0  0  0  0
 25 26  1  6  0  0  0
 25 24  1  0  0  0  0
 28 29  2  0  0  0  0
 29 25  1  0  0  0  0
 29 27  1  0  0  0  0
M  END
>  <MODEL>
3

>  <REMARK>
 VINA RESULT:      -8.2      4.088      6.702
  Name = 
  6 active torsions:
  status: ('A' for Active; 'I' for Inactive)
    1  A    between atoms: C_1  and  C_18
    2  A    between atoms: C_9  and  CA_14
    3  A    between atoms: C_13  and  C_18
    4  A    between atoms: C_13  and  C_24
    5  A    between atoms: CA_14  and  C_15
    6  A    between atoms: C_24  and  C_29
                            x       y       z     vdW  Elec       q    Type
                         _______ _______ _______ _____ _____    ______ ____

>  <TORSDO>
F 6

$$$$
=
 OpenBabel11072413573D

 29 32  0  0  1  0  0  0  0  0999 V2000
  161.5020  207.7160  147.6030 S   0  0  0  0  0  0  0  0  0  0  0  0
  162.1450  210.0780  148.5040 O   0  0  0  0  0  0  0  0  0  0  0  0
  160.5010  202.1400  150.4620 C   0  0  0  0  0  2  0  0  0  0  0  0
  161.4240  204.7730  150.9010 C   0  0  0  0  0  0  0  0  0  0  0  0
  161.8820  206.6220  152.4650 N   0  0  0  0  0  2  0  0  0  0  0  0
  160.7350  203.0950  149.3760 N   0  0  0  0  0  0  0  0  0  0  0  0
  161.2120  208.8200  153.3340 C   0  0  0  0  0  2  0  0  0  0  0  0
  161.9860  208.3500  150.0220 N   0  0  0  0  0  0  0  0  0  0  0  0
  161.6870  207.0150  150.0240 C   0  0  0  0  0  0  0  0  0  0  0  0
  162.4050  209.1400  151.1750 C   0  0  0  0  0  2  0  0  0  0  0  0
  161.0990  204.3270  149.5890 C   0  0  0  0  0  0  0  0  0  0  0  0
  161.5270  203.8830  151.9010 C   0  0  0  0  0  3  0  0  0  0  0  0
  161.2010  209.5510  152.0020 C   0  0  0  0  0  2  0  0  0  0  0  0
  161.4160  206.5060  148.7630 C   0  0  0  0  0  0  0  0  0  0  0  0
  161.1230  205.2010  148.5450 N   0  0  0  0  0  0  0  0  0  0  0  0
  161.9140  208.8680  148.7700 C   0  0  0  0  0  0  0  0  0  0  0  0
  161.4410  202.4090  151.6330 C   0  0  0  0  0  2  0  0  0  0  0  0
  161.6670  206.1460  151.1340 C   0  0  0  0  0  0  0  0  0  0  0  0
  160.8340  207.3540  153.1630 C   0  0  2  0  0  3  0  0  0  0  0  0
  160.5360  206.7020  154.5100 C   0  0  0  0  0  2  0  0  0  0  0  0
  160.9560  207.5800  155.6790 C   0  0  0  0  0  2  0  0  0  0  0  0
  159.7340  208.2440  156.2740 C   0  0  0  0  0  2  0  0  0  0  0  0
  160.1230  209.5540  156.8790 C   0  0  0  0  0  3  0  0  0  0  0  0
  159.6840  210.7290  156.4110 C   0  0  0  0  0  3  0  0  0  0  0  0
  158.7510  210.8590  155.2430 C   0  0  2  0  0  3  0  0  0  0  0  0
  159.2810  211.8350  154.3070 N   0  0  0  0  0  1  0  0  0  0  0  0
  156.3800  210.6280  155.3210 O   0  0  0  0  0  0  0  0  0  0  0  0
  157.2320  212.3890  156.5150 O   0  0  0  0  0  1  0  0  0  0  0  0
  157.3910  211.2800  155.6910 C   0  0  0  0  0  0  0  0  0  0  0  0
  1 14  1  0  0  0  0
  1 16  1  0  0  0  0
  2 16  2  0  0  0  0
  3 17  1  0  0  0  0
  4 18  1  0  0  0  0
  4 12  2  0  0  0  0
  5 19  1  0  0  0  0
  6 11  2  0  0  0  0
  6  3  1  0  0  0  0
  8  9  1  0  0  0  0
  8 10  1  0  0  0  0
  9 18  2  0  0  0  0
 10 13  1  0  0  0  0
 11  4  1  0  0  0  0
 13  7  1  0  0  0  0
 14  9  1  0  0  0  0
 15 14  2  0  0  0  0
 15 11  1  0  0  0  0
 16  8  1  0  0  0  0
 17 12  1  0  0  0  0
 18  5  1  0  0  0  0
 19  7  1  0  0  0  0
 19 20  1  1  0  0  0
 20 21  1  0  0  0  0
 21 22  1  0  0  0  0
 22 23  1  0  0  0  0
 24 23  2  0  0  0  0
 25 26  1  6  0  0  0
 25 29  1  0  0  0  0
 25 24  1  0  0  0  0
 27 29  2  0  0  0  0
 29 28  1  0  0  0  0
M  END
>  <MODEL>
4

>  <REMARK>
 VINA RESULT:      -8.0      2.948      5.193
  Name = 
  6 active torsions:
  status: ('A' for Active; 'I' for Inactive)
    1  A    between atoms: C_1  and  C_18
    2  A    between atoms: C_9  and  CA_14
    3  A    between atoms: C_13  and  C_18
    4  A    between atoms: C_13  and  C_24
    5  A    between atoms: CA_14  and  C_15
    6  A    between atoms: C_24  and  C_29
                            x       y       z     vdW  Elec       q    Type
                         _______ _______ _______ _____ _____    ______ ____

>  <TORSDO>
F 6

$$$$
=
 OpenBabel11072413573D

 29 32  0  0  1  0  0  0  0  0999 V2000
  161.9120  203.5300  146.0880 S   0  0  0  0  0  0  0  0  0  0  0  0
  160.9970  201.2110  146.8550 O   0  0  0  0  0  0  0  0  0  0  0  0
  162.4040  209.1460  149.0020 C   0  0  0  0  0  2  0  0  0  0  0  0
  161.3140  206.5530  149.2590 C   0  0  0  0  0  0  0  0  0  0  0  0
  160.4390  204.7580  150.7040 N   0  0  0  0  0  2  0  0  0  0  0  0
  162.3990  208.1710  147.9080 N   0  0  0  0  0  0  0  0  0  0  0  0
  160.8110  202.5640  151.7450 C   0  0  0  0  0  2  0  0  0  0  0  0
  160.8540  202.9720  148.3360 N   0  0  0  0  0  0  0  0  0  0  0  0
  161.1880  204.2980  148.3850 C   0  0  0  0  0  0  0  0  0  0  0  0
  160.1490  202.2240  149.3720 C   0  0  0  0  0  2  0  0  0  0  0  0
  161.9540  206.9550  148.0520 C   0  0  0  0  0  0  0  0  0  0  0  0
  161.0100  207.4700  150.1900 C   0  0  0  0  0  3  0  0  0  0  0  0
  161.1100  201.8000  150.4670 C   0  0  0  0  0  2  0  0  0  0  0  0
  161.7650  204.7670  147.2140 C   0  0  0  0  0  0  0  0  0  0  0  0
  162.1450  206.0560  147.0480 N   0  0  0  0  0  0  0  0  0  0  0  0
  161.2000  202.4210  147.1460 C   0  0  0  0  0  0  0  0  0  0  0  0
  161.2060  208.9340  149.9240 C   0  0  0  0  0  2  0  0  0  0  0  0
  160.9770  205.1940  149.4520 C   0  0  0  0  0  0  0  0  0  0  0  0
  161.2690  204.0140  151.6420 C   0  0  2  0  0  3  0  0  0  0  0  0
  161.2640  204.6910  153.0090 C   0  0  0  0  0  2  0  0  0  0  0  0
  162.0460  205.9960  153.0070 C   0  0  0  0  0  2  0  0  0  0  0  0
  161.1310  207.1310  153.4130 C   0  0  0  0  0  2  0  0  0  0  0  0
  160.5940  206.8730  154.7830 C   0  0  0  0  0  3  0  0  0  0  0  0
  160.7990  207.7060  155.8120 C   0  0  0  0  0  3  0  0  0  0  0  0
  161.5760  208.9850  155.6990 C   0  0  2  0  0  3  0  0  0  0  0  0
  162.2970  209.2230  156.9370 N   0  0  0  0  0  1  0  0  0  0  0  0
  161.0640  211.0770  154.6800 O   0  0  0  0  0  0  0  0  0  0  0  0
  159.3910  210.1770  155.9610 O   0  0  0  0  0  1  0  0  0  0  0  0
  160.6690  210.1360  155.4160 C   0  0  0  0  0  0  0  0  0  0  0  0
  1 16  1  0  0  0  0
  1 14  1  0  0  0  0
  2 16  2  0  0  0  0
  3 17  1  0  0  0  0
  4 18  1  0  0  0  0
  4 12  2  0  0  0  0
  5 19  1  0  0  0  0
  6 11  2  0  0  0  0
  6  3  1  0  0  0  0
  8  9  1  0  0  0  0
  8 10  1  0  0  0  0
  9 18  2  0  0  0  0
 10 13  1  0  0  0  0
 11  4  1  0  0  0  0
 13  7  1  0  0  0  0
 14  9  1  0  0  0  0
 15 14  2  0  0  0  0
 15 11  1  0  0  0  0
 16  8  1  0  0  0  0
 17 12  1  0  0  0  0
 18  5  1  0  0  0  0
 19  7  1  0  0  0  0
 19 20  1  1  0  0  0
 21 20  1  0  0  0  0
 21 22  1  0  0  0  0
 22 23  1  0  0  0  0
 23 24  2  0  0  0  0
 25 24  1  0  0  0  0
 25 26  1  1  0  0  0
 27 29  2  0  0  0  0
 29 25  1  0  0  0  0
 29 28  1  0  0  0  0
M  END
>  <MODEL>
5

>  <REMARK>
 VINA RESULT:      -8.0      1.046      1.148
  Name = 
  6 active torsions:
  status: ('A' for Active; 'I' for Inactive)
    1  A    between atoms: C_1  and  C_18
    2  A    between atoms: C_9  and  CA_14
    3  A    between atoms: C_13  and  C_18
    4  A    between atoms: C_13  and  C_24
    5  A    between atoms: CA_14  and  C_15
    6  A    between atoms: C_24  and  C_29
                            x       y       z     vdW  Elec       q    Type
                         _______ _______ _______ _____ _____    ______ ____

>  <TORSDO>
F 6

$$$$
=
 OpenBabel11072413573D

 29 32  0  0  1  0  0  0  0  0999 V2000
  161.2950  200.9190  148.6380 S   0  0  0  0  0  0  0  0  0  0  0  0
  160.8960  200.9700  151.2150 O   0  0  0  0  0  0  0  0  0  0  0  0
  161.5020  205.4690  144.2190 C   0  0  0  0  0  2  0  0  0  0  0  0
  160.8780  204.9750  146.9290 C   0  0  0  0  0  0  0  0  0  0  0  0
  160.5720  205.8300  149.2210 N   0  0  0  0  0  2  0  0  0  0  0  0
  161.4310  204.1210  144.7890 N   0  0  0  0  0  0  0  0  0  0  0  0
  161.4580  206.0080  151.5050 C   0  0  0  0  0  2  0  0  0  0  0  0
  160.7820  202.9650  150.0650 N   0  0  0  0  0  0  0  0  0  0  0  0
  160.9200  203.4150  148.7800 C   0  0  0  0  0  0  0  0  0  0  0  0
  160.4080  203.7710  151.2230 C   0  0  0  0  0  2  0  0  0  0  0  0
  161.2070  203.9020  146.0530 C   0  0  0  0  0  0  0  0  0  0  0  0
  160.6270  206.1940  146.4260 C   0  0  0  0  0  3  0  0  0  0  0  0
  161.6140  204.5190  151.7600 C   0  0  0  0  0  2  0  0  0  0  0  0
  161.1860  202.4060  147.8660 C   0  0  0  0  0  0  0  0  0  0  0  0
  161.3320  202.6370  146.5400 N   0  0  0  0  0  0  0  0  0  0  0  0
  160.9710  201.6230  150.1400 C   0  0  0  0  0  0  0  0  0  0  0  0
  160.5490  206.4150  144.9440 C   0  0  0  0  0  2  0  0  0  0  0  0
  160.7890  204.7400  148.3200 C   0  0  0  0  0  0  0  0  0  0  0  0
  161.6670  206.3420  150.0330 C   0  0  2  0  0  3  0  0  0  0  0  0
  161.8260  207.8450  149.8270 C   0  0  0  0  0  2  0  0  0  0  0  0
  162.3370  208.5460  151.0770 C   0  0  0  0  0  2  0  0  0  0  0  0
  161.2120  209.3440  151.7000 C   0  0  0  0  0  2  0  0  0  0  0  0
  161.7790  210.3380  152.6610 C   0  0  0  0  0  3  0  0  0  0  0  0
  161.4340  210.3760  153.9540 C   0  0  0  0  0  3  0  0  0  0  0  0
  160.4550  209.4250  154.5790 C   0  0  2  0  0  3  0  0  0  0  0  0
  159.6370  210.1370  155.5440 N   0  0  0  0  0  1  0  0  0  0  0  0
  161.7630  208.5000  156.3430 O   0  0  0  0  0  1  0  0  0  0  0  0
  161.1690  207.0280  154.6900 O   0  0  0  0  0  0  0  0  0  0  0  0
  161.1640  208.2980  155.2550 C   0  0  0  0  0  0  0  0  0  0  0  0
  1 16  1  0  0  0  0
  3  6  1  0  0  0  0
  3 17  1  0  0  0  0
  4 18  1  0  0  0  0
  5 19  1  0  0  0  0
  6 11  2  0  0  0  0
  7 13  1  0  0  0  0
  8 16  1  0  0  0  0
  8 10  1  0  0  0  0
  9  8  1  0  0  0  0
 10 13  1  0  0  0  0
 11 15  1  0  0  0  0
 11  4  1  0  0  0  0
 12  4  2  0  0  0  0
 14  1  1  0  0  0  0
 14  9  1  0  0  0  0
 15 14  2  0  0  0  0
 16  2  2  0  0  0  0
 17 12  1  0  0  0  0
 18  9  2  0  0  0  0
 18  5  1  0  0  0  0
 19 20  1  1  0  0  0
 19  7  1  0  0  0  0
 20 21  1  0  0  0  0
 21 22  1  0  0  0  0
 22 23  1  0  0  0  0
 23 24  2  0  0  0  0
 24 25  1  0  0  0  0
 25 29  1  0  0  0  0
 25 26  1  1  0  0  0
 28 29  2  0  0  0  0
 29 27  1  0  0  0  0
M  END
>  <MODEL>
6

>  <REMARK>
 VINA RESULT:      -7.9      2.129      3.520
  Name = 
  6 active torsions:
  status: ('A' for Active; 'I' for Inactive)
    1  A    between atoms: C_1  and  C_18
    2  A    between atoms: C_9  and  CA_14
    3  A    between atoms: C_13  and  C_18
    4  A    between atoms: C_13  and  C_24
    5  A    between atoms: CA_14  and  C_15
    6  A    between atoms: C_24  and  C_29
                            x       y       z     vdW  Elec       q    Type
                         _______ _______ _______ _____ _____    ______ ____

>  <TORSDO>
F 6

$$$$
=
 OpenBabel11072413573D

 29 32  0  0  1  0  0  0  0  0999 V2000
  161.2400  200.9030  148.6420 S   0  0  0  0  0  0  0  0  0  0  0  0
  160.8640  200.9620  151.2220 O   0  0  0  0  0  0  0  0  0  0  0  0
  161.5350  205.4520  144.2260 C   0  0  0  0  0  2  0  0  0  0  0  0
  160.9200  204.9720  146.9410 C   0  0  0  0  0  0  0  0  0  0  0  0
  160.6580  205.8310  149.2360 N   0  0  0  0  0  2  0  0  0  0  0  0
  161.4320  204.1050  144.7950 N   0  0  0  0  0  0  0  0  0  0  0  0
  161.5670  205.9820  151.5130 C   0  0  0  0  0  2  0  0  0  0  0  0
  160.7960  202.9610  150.0750 N   0  0  0  0  0  0  0  0  0  0  0  0
  160.9360  203.4080  148.7900 C   0  0  0  0  0  0  0  0  0  0  0  0
  160.4540  203.7750  151.2370 C   0  0  0  0  0  2  0  0  0  0  0  0
  161.2120  203.8910  146.0610 C   0  0  0  0  0  0  0  0  0  0  0  0
  160.6990  206.1970  146.4410 C   0  0  0  0  0  3  0  0  0  0  0  0
  161.6850  204.4890  151.7650 C   0  0  0  0  0  2  0  0  0  0  0  0
  161.1650  202.3940  147.8730 C   0  0  0  0  0  0  0  0  0  0  0  0
  161.3060  202.6220  146.5450 N   0  0  0  0  0  0  0  0  0  0  0  0
  160.9480  201.6140  150.1470 C   0  0  0  0  0  0  0  0  0  0  0  0
  160.6150  206.4230  144.9600 C   0  0  0  0  0  2  0  0  0  0  0  0
  160.8370  204.7370  148.3320 C   0  0  0  0  0  0  0  0  0  0  0  0
  161.7740  206.3120  150.0400 C   0  0  2  0  0  3  0  0  0  0  0  0
  161.9730  207.8100  149.8340 C   0  0  0  0  0  2  0  0  0  0  0  0
  162.6220  208.4750  151.0380 C   0  0  0  0  0  2  0  0  0  0  0  0
  161.8380  209.7160  151.4100 C   0  0  0  0  0  2  0  0  0  0  0  0
  160.6280  209.3250  152.1940 C   0  0  0  0  0  3  0  0  0  0  0  0
  160.0100  210.1580  153.0400 C   0  0  0  0  0  3  0  0  0  0  0  0
  160.4560  211.5700  153.2850 C   0  0  2  0  0  3  0  0  0  0  0  0
  160.4530  211.8370  154.7120 N   0  0  0  0  0  1  0  0  0  0  0  0
  159.7850  212.8540  151.3920 O   0  0  0  0  0  0  0  0  0  0  0  0
  158.4750  213.1000  153.2570 O   0  0  0  0  0  1  0  0  0  0  0  0
  159.5580  212.5400  152.5900 C   0  0  0  0  0  0  0  0  0  0  0  0
  1 16  1  0  0  0  0
  3  6  1  0  0  0  0
  3 17  1  0  0  0  0
  4 18  1  0  0  0  0
  5 19  1  0  0  0  0
  6 11  2  0  0  0  0
  7 13  1  0  0  0  0
  8 16  1  0  0  0  0
  8 10  1  0  0  0  0
  9  8  1  0  0  0  0
 10 13  1  0  0  0  0
 11 15  1  0  0  0  0
 11  4  1  0  0  0  0
 12  4  2  0  0  0  0
 14  1  1  0  0  0  0
 14  9  1  0  0  0  0
 15 14  2  0  0  0  0
 16  2  2  0  0  0  0
 17 12  1  0  0  0  0
 18  9  2  0  0  0  0
 18  5  1  0  0  0  0
 19 20  1  1  0  0  0
 19  7  1  0  0  0  0
 20 21  1  0  0  0  0
 21 22  1  0  0  0  0
 22 23  1  0  0  0  0
 23 24  2  0  0  0  0
 24 25  1  0  0  0  0
 25 26  1  1  0  0  0
 27 29  2  0  0  0  0
 29 28  1  0  0  0  0
 29 25  1  0  0  0  0
M  END
>  <MODEL>
7

>  <REMARK>
 VINA RESULT:      -7.8      2.725      3.998
  Name = 
  6 active torsions:
  status: ('A' for Active; 'I' for Inactive)
    1  A    between atoms: C_1  and  C_18
    2  A    between atoms: C_9  and  CA_14
    3  A    between atoms: C_13  and  C_18
    4  A    between atoms: C_13  and  C_24
    5  A    between atoms: CA_14  and  C_15
    6  A    between atoms: C_24  and  C_29
                            x       y       z     vdW  Elec       q    Type
                         _______ _______ _______ _____ _____    ______ ____

>  <TORSDO>
F 6

$$$$
=
 OpenBabel11072413573D

 29 32  0  0  1  0  0  0  0  0999 V2000
  159.5090  211.5220  155.4100 S   0  0  0  0  0  0  0  0  0  0  0  0
  159.9310  209.5620  157.0780 O   0  0  0  0  0  0  0  0  0  0  0  0
  160.8570  212.3110  149.2580 C   0  0  0  0  0  2  0  0  0  0  0  0
  161.3020  210.6130  151.4720 C   0  0  0  0  0  0  0  0  0  0  0  0
  161.9150  208.3910  152.3460 N   0  0  0  0  0  2  0  0  0  0  0  0
  160.4580  212.6590  150.6250 N   0  0  0  0  0  0  0  0  0  0  0  0
  161.1770  206.2970  153.3950 C   0  0  0  0  0  2  0  0  0  0  0  0
  160.7240  209.3370  154.9240 N   0  0  0  0  0  0  0  0  0  0  0  0
  160.7370  210.0530  153.7590 C   0  0  0  0  0  0  0  0  0  0  0  0
  161.3710  208.0480  155.1500 C   0  0  0  0  0  2  0  0  0  0  0  0
  160.6070  211.8450  151.6310 C   0  0  0  0  0  0  0  0  0  0  0  0
  161.9580  210.3600  150.3290 C   0  0  0  0  0  3  0  0  0  0  0  0
  160.5110  206.9210  154.6090 C   0  0  0  0  0  2  0  0  0  0  0  0
  160.1230  211.2920  153.8640 C   0  0  0  0  0  0  0  0  0  0  0  0
  160.0510  212.1660  152.8310 N   0  0  0  0  0  0  0  0  0  0  0  0
  160.0780  210.0110  155.9090 C   0  0  0  0  0  0  0  0  0  0  0  0
  162.0900  211.4120  149.2660 C   0  0  0  0  0  2  0  0  0  0  0  0
  161.3190  209.6780  152.5320 C   0  0  0  0  0  0  0  0  0  0  0  0
  161.0800  207.2100  152.1790 C   0  0  2  0  0  3  0  0  0  0  0  0
  161.4560  206.4670  150.9010 C   0  0  0  0  0  2  0  0  0  0  0  0
  160.8510  205.0720  150.8470 C   0  0  0  0  0  2  0  0  0  0  0  0
  160.9880  204.5190  149.4460 C   0  0  0  0  0  2  0  0  0  0  0  0
  160.8580  205.6300  148.4560 C   0  0  0  0  0  3  0  0  0  0  0  0
  161.3150  205.5430  147.2010 C   0  0  0  0  0  3  0  0  0  0  0  0
  161.9960  204.3240  146.6510 C   0  0  2  0  0  3  0  0  0  0  0  0
  163.2880  204.6970  146.1020 N   0  0  0  0  0  1  0  0  0  0  0  0
  160.8950  202.4550  145.6620 O   0  0  0  0  0  1  0  0  0  0  0  0
  160.6890  204.4310  144.5190 O   0  0  0  0  0  0  0  0  0  0  0  0
  161.1650  203.6830  145.5890 C   0  0  0  0  0  0  0  0  0  0  0  0
  1 16  1  0  0  0  0
  3 17  1  0  0  0  0
  3  6  1  0  0  0  0
  4 11  1  0  0  0  0
  4 18  1  0  0  0  0
  5 18  1  0  0  0  0
  6 11  2  0  0  0  0
  7 13  1  0  0  0  0
  8 10  1  0  0  0  0
  8 16  1  0  0  0  0
  9 14  1  0  0  0  0
  9  8  1  0  0  0  0
 11 15  1  0  0  0  0
 12  4  2  0  0  0  0
 13 10  1  0  0  0  0
 14  1  1  0  0  0  0
 15 14  2  0  0  0  0
 16  2  2  0  0  0  0
 17 12  1  0  0  0  0
 18  9  2  0  0  0  0
 19 20  1  6  0  0  0
 19  5  1  0  0  0  0
 19  7  1  0  0  0  0
 21 20  1  0  0  0  0
 22 21  1  0  0  0  0
 23 22  1  0  0  0  0
 24 23  2  0  0  0  0
 25 26  1  6  0  0  0
 25 24  1  0  0  0  0
 28 29  2  0  0  0  0
 29 27  1  0  0  0  0
 29 25  1  0  0  0  0
M  END
>  <MODEL>
8

>  <REMARK>
 VINA RESULT:      -7.8      3.507      8.462
  Name = 
  6 active torsions:
  status: ('A' for Active; 'I' for Inactive)
    1  A    between atoms: C_1  and  C_18
    2  A    between atoms: C_9  and  CA_14
    3  A    between atoms: C_13  and  C_18
    4  A    between atoms: C_13  and  C_24
    5  A    between atoms: CA_14  and  C_15
    6  A    between atoms: C_24  and  C_29
                            x       y       z     vdW  Elec       q    Type
                         _______ _______ _______ _____ _____    ______ ____

>  <TORSDO>
F 6

$$$$
=
 OpenBabel11072413573D

 29 32  0  0  1  0  0  0  0  0999 V2000
  159.1880  212.0430  153.9390 S   0  0  0  0  0  0  0  0  0  0  0  0
  159.6460  210.1560  155.6800 O   0  0  0  0  0  0  0  0  0  0  0  0
  161.0910  212.9370  147.9510 C   0  0  0  0  0  2  0  0  0  0  0  0
  161.4840  211.3160  150.2310 C   0  0  0  0  0  0  0  0  0  0  0  0
  162.2460  209.1860  151.2080 N   0  0  0  0  0  2  0  0  0  0  0  0
  160.5110  213.2480  149.2610 N   0  0  0  0  0  0  0  0  0  0  0  0
  161.6390  207.0280  152.2130 C   0  0  0  0  0  2  0  0  0  0  0  0
  160.6860  210.0080  153.6270 N   0  0  0  0  0  0  0  0  0  0  0  0
  160.7430  210.7130  152.4560 C   0  0  0  0  0  0  0  0  0  0  0  0
  161.4460  208.8030  153.9450 C   0  0  0  0  0  2  0  0  0  0  0  0
  160.6410  212.4630  150.2920 C   0  0  0  0  0  0  0  0  0  0  0  0
  162.2830  211.1320  149.1690 C   0  0  0  0  0  3  0  0  0  0  0  0
  160.7800  207.5810  153.3370 C   0  0  0  0  0  2  0  0  0  0  0  0
  159.9860  211.8750  152.4720 C   0  0  0  0  0  0  0  0  0  0  0  0
  159.9280  212.7270  151.4210 N   0  0  0  0  0  0  0  0  0  0  0  0
  159.8660  210.6110  154.5250 C   0  0  0  0  0  0  0  0  0  0  0  0
  162.4090  212.1850  148.1070 C   0  0  0  0  0  2  0  0  0  0  0  0
  161.4920  210.3970  151.3050 C   0  0  0  0  0  0  0  0  0  0  0  0
  161.5710  207.9160  150.9760 C   0  0  2  0  0  3  0  0  0  0  0  0
  162.1630  207.2120  149.7600 C   0  0  0  0  0  2  0  0  0  0  0  0
  161.2790  207.3480  148.5290 C   0  0  0  0  0  2  0  0  0  0  0  0
  160.3820  206.1340  148.4180 C   0  0  0  0  0  2  0  0  0  0  0  0
  161.1360  204.9160  148.8420 C   0  0  0  0  0  3  0  0  0  0  0  0
  161.5490  203.9800  147.9780 C   0  0  0  0  0  3  0  0  0  0  0  0
  161.3090  204.0550  146.4990 C   0  0  2  0  0  3  0  0  0  0  0  0
  161.2660  202.7130  145.9470 N   0  0  0  0  0  1  0  0  0  0  0  0
  163.5850  204.6810  146.1680 O   0  0  0  0  0  1  0  0  0  0  0  0
  162.0700  205.7500  144.8210 O   0  0  0  0  0  0  0  0  0  0  0  0
  162.3850  204.8410  145.8250 C   0  0  0  0  0  0  0  0  0  0  0  0
  1 16  1  0  0  0  0
  3 17  1  0  0  0  0
  3  6  1  0  0  0  0
  4 11  1  0  0  0  0
  4 18  1  0  0  0  0
  5 18  1  0  0  0  0
  6 11  2  0  0  0  0
  7 13  1  0  0  0  0
  8 10  1  0  0  0  0
  8 16  1  0  0  0  0
  9 14  1  0  0  0  0
  9  8  1  0  0  0  0
 11 15  1  0  0  0  0
 12  4  2  0  0  0  0
 13 10  1  0  0  0  0
 14  1  1  0  0  0  0
 15 14  2  0  0  0  0
 16  2  2  0  0  0  0
 17 12  1  0  0  0  0
 18  9  2  0  0  0  0
 19 20  1  6  0  0  0
 19  5  1  0  0  0  0
 19  7  1  0  0  0  0
 21 20  1  0  0  0  0
 22 21  1  0  0  0  0
 22 23  1  0  0  0  0
 24 23  2  0  0  0  0
 25 26  1  6  0  0  0
 25 24  1  0  0  0  0
 28 29  2  0  0  0  0
 29 27  1  0  0  0  0
 29 25  1  0  0  0  0
M  END
>  <MODEL>
9

>  <REMARK>
 VINA RESULT:      -7.7      3.735      8.307
  Name = 
  6 active torsions:
  status: ('A' for Active; 'I' for Inactive)
    1  A    between atoms: C_1  and  C_18
    2  A    between atoms: C_9  and  CA_14
    3  A    between atoms: C_13  and  C_18
    4  A    between atoms: C_13  and  C_24
    5  A    between atoms: CA_14  and  C_15
    6  A    between atoms: C_24  and  C_29
                            x       y       z     vdW  Elec       q    Type
                         _______ _______ _______ _____ _____    ______ ____

>  <TORSDO>
F 6

$$$$
