=
 OpenBabel11072414173D

 34 35  0  0  1  0  0  0  0  0999 V2000
  160.4480  209.1440  153.8270 C   0  0  0  0  0  2  0  0  0  0  0  0
  158.4670  210.0940  156.2280 C   0  0  0  0  0  2  0  0  0  0  0  0
  159.8800  209.8040  156.7030 C   0  0  0  0  0  2  0  0  0  0  0  0
  162.0190  210.4830  152.2510 C   0  0  2  0  0  3  0  0  0  0  0  0
  159.2850  213.3140  149.7480 C   0  0  0  0  0  0  0  0  0  0  0  0
  160.3320  208.4500  156.2390 C   0  0  0  0  0  0  0  0  0  0  0  0
  161.7370  209.9590  153.6680 C   0  0  1  0  0  3  0  0  0  0  0  0
  158.0510  213.7680  149.2800 C   0  0  0  0  0  3  0  0  0  0  0  0
  157.5260  213.3820  154.2880 O   0  0  0  0  0  0  0  0  0  0  0  0
  157.0350  214.0050  150.1480 N   0  0  0  0  0  0  0  0  0  0  0  0
  157.1750  213.8040  151.4830 C   0  0  0  0  0  3  0  0  0  0  0  0
  156.7500  211.8840  155.9850 C   0  0  0  0  0  2  0  0  0  0  0  0
  160.3710  213.0490  148.7630 C   0  0  0  0  0  1  0  0  0  0  0  0
  158.0930  211.5160  156.5970 C   0  0  0  0  0  2  0  0  0  0  0  0
  155.5650  212.1940  153.8950 N   0  0  0  0  0  1  0  0  0  0  0  0
  160.7680  212.5770  151.6570 C   0  0  0  0  0  2  0  0  0  0  0  0
  160.5790  208.1640  154.9520 C   0  0  0  0  0  3  0  0  0  0  0  0
  159.4640  213.1010  151.1290 C   0  0  0  0  0  0  0  0  0  0  0  0
  160.7830  211.0610  151.5660 C   0  0  0  0  0  2  0  0  0  0  0  0
  158.3870  213.3380  152.0050 C   0  0  0  0  0  0  0  0  0  0  0  0
  156.8870  212.1550  154.4940 C   0  0  1  0  0  3  0  0  0  0  0  0
  158.5300  213.1200  153.4130 N   0  0  0  0  0  2  0  0  0  0  0  0
  160.5680  207.3940  157.2610 C   0  0  0  0  0  1  0  0  0  0  0  0
  161.9200  210.9340  154.6670 O   0  0  0  0  0  0  0  0  0  0  0  0
  163.0660  210.6660  155.2630 O   0  0  0  0  0  1  0  0  0  0  0  0
  162.5920  209.3570  151.4010 C   0  0  0  0  0  2  0  0  0  0  0  0
  161.5630  208.8550  150.3950 C   0  0  2  0  0  3  0  0  0  0  0  0
  160.3300  206.8800  149.9040 O   0  0  0  0  0  0  0  0  0  0  0  0
  161.4150  205.3200  152.0130 C   0  0  0  0  0  1  0  0  0  0  0  0
  161.1900  207.4260  150.6470 C   0  0  0  0  0  0  0  0  0  0  0  0
  161.7700  206.7020  151.7360 N   0  0  0  0  0  2  0  0  0  0  0  0
  161.9770  210.2020  148.4540 O   0  0  0  0  0  1  0  0  0  0  0  0
  162.5470  207.9930  148.2720 O   0  0  0  0  0  0  0  0  0  0  0  0
  162.0330  209.0630  148.9890 C   0  0  0  0  0  0  0  0  0  0  0  0
  1 17  1  0  0  0  0
  2 14  1  0  0  0  0
  2  3  1  0  0  0  0
  4 26  1  6  0  0  0
  4  7  1  0  0  0  0
  5 18  1  0  0  0  0
  6  3  1  0  0  0  0
  6 23  1  0  0  0  0
  7  1  1  0  0  0  0
  7 24  1  1  0  0  0
  8  5  2  0  0  0  0
  8 10  1  0  0  0  0
  9 21  1  0  0  0  0
 10 11  2  0  0  0  0
 11 20  1  0  0  0  0
 12 14  1  0  0  0  0
 13  5  1  0  0  0  0
 17  6  2  0  0  0  0
 18 16  1  0  0  0  0
 18 20  2  0  0  0  0
 19 16  1  0  0  0  0
 19  4  1  0  0  0  0
 20 22  1  0  0  0  0
 21 15  1  1  0  0  0
 21 12  1  0  0  0  0
 22  9  1  0  0  0  0
 24 25  1  0  0  0  0
 27 30  1  0  0  0  0
 27 26  1  1  0  0  0
 28 30  2  0  0  0  0
 30 31  1  0  0  0  0
 31 29  1  0  0  0  0
 32 34  1  0  0  0  0
 33 34  2  0  0  0  0
 34 27  1  0  0  0  0
M  END
>  <MODEL>
1

>  <REMARK>
 VINA RESULT:      -5.1      0.000      0.000
  Name = 
  5 active torsions:
  status: ('A' for Active; 'I' for Inactive)
    1  A    between atoms: O_2  and  C_9
    2  A    between atoms: C_6  and  C_30
    3  A    between atoms: C_14  and  C_20
    4  A    between atoms: C_14  and  C_29
    5  A    between atoms: C_14  and  C_30
                            x       y       z     vdW  Elec       q    Type
                         _______ _______ _______ _____ _____    ______ ____

>  <TORSDO>
F 5

$$$$
=
 OpenBabel11072414173D

 34 35  0  0  1  0  0  0  0  0999 V2000
  160.7300  207.2030  147.8210 C   0  0  0  0  0  2  0  0  0  0  0  0
  160.9830  203.9700  148.0950 C   0  0  0  0  0  2  0  0  0  0  0  0
  161.8620  204.5450  146.9980 C   0  0  0  0  0  2  0  0  0  0  0  0
  162.0680  209.1410  148.9180 C   0  0  2  0  0  3  0  0  0  0  0  0
  161.3310  208.8240  153.5120 C   0  0  0  0  0  0  0  0  0  0  0  0
  161.0640  205.4240  146.0800 C   0  0  0  0  0  0  0  0  0  0  0  0
  162.0490  207.9820  147.9080 C   0  0  1  0  0  3  0  0  0  0  0  0
  160.6800  208.3280  154.6430 C   0  0  0  0  0  3  0  0  0  0  0  0
  161.9060  204.2640  151.9070 O   0  0  0  0  0  0  0  0  0  0  0  0
  160.5070  206.9910  154.8010 N   0  0  0  0  0  0  0  0  0  0  0  0
  160.9470  206.1000  153.8760 C   0  0  0  0  0  3  0  0  0  0  0  0
  161.0120  202.7590  150.2740 C   0  0  0  0  0  2  0  0  0  0  0  0
  161.4860  210.2980  153.3660 C   0  0  0  0  0  1  0  0  0  0  0  0
  161.8430  203.2000  149.0780 C   0  0  0  0  0  2  0  0  0  0  0  0
  159.7050  203.5520  152.1530 N   0  0  0  0  0  1  0  0  0  0  0  0
  162.4730  208.4330  151.2920 C   0  0  0  0  0  2  0  0  0  0  0  0
  160.5590  206.6070  146.4580 C   0  0  0  0  0  3  0  0  0  0  0  0
  161.8030  207.9260  152.5370 C   0  0  0  0  0  0  0  0  0  0  0  0
  161.4210  208.7850  150.2540 C   0  0  0  0  0  2  0  0  0  0  0  0
  161.5940  206.5440  152.7180 C   0  0  0  0  0  0  0  0  0  0  0  0
  160.7400  203.9290  151.2080 C   0  0  1  0  0  3  0  0  0  0  0  0
  162.0500  205.6030  151.7390 N   0  0  0  0  0  2  0  0  0  0  0  0
  160.8710  204.9850  144.6710 C   0  0  0  0  0  1  0  0  0  0  0  0
  163.1900  207.1610  147.9820 O   0  0  0  0  0  0  0  0  0  0  0  0
  163.1210  206.5080  149.1260 O   0  0  0  0  0  1  0  0  0  0  0  0
  161.3620  210.3470  148.3160 C   0  0  0  0  0  2  0  0  0  0  0  0
  161.9450  211.6480  148.8570 C   0  0  2  0  0  3  0  0  0  0  0  0
  160.3530  213.3990  148.6180 O   0  0  0  0  0  0  0  0  0  0  0  0
  159.4770  213.3750  151.3180 C   0  0  0  0  0  1  0  0  0  0  0  0
  160.8810  212.5550  149.3920 C   0  0  0  0  0  0  0  0  0  0  0  0
  160.4960  212.4950  150.7680 N   0  0  0  0  0  2  0  0  0  0  0  0
  163.9950  212.6070  148.0610 O   0  0  0  0  0  1  0  0  0  0  0  0
  162.2370  212.6590  146.5960 O   0  0  0  0  0  0  0  0  0  0  0  0
  162.7890  212.3330  147.8260 C   0  0  0  0  0  0  0  0  0  0  0  0
  1  7  1  0  0  0  0
  2 14  1  0  0  0  0
  3  2  1  0  0  0  0
  4 26  1  6  0  0  0
  4 19  1  0  0  0  0
  5  8  1  0  0  0  0
  6 17  2  0  0  0  0
  6  3  1  0  0  0  0
  7 24  1  1  0  0  0
  7  4  1  0  0  0  0
  8 10  2  0  0  0  0
 11 10  1  0  0  0  0
 12 21  1  0  0  0  0
 13  5  1  0  0  0  0
 14 12  1  0  0  0  0
 16 18  1  0  0  0  0
 17  1  1  0  0  0  0
 18 20  1  0  0  0  0
 18  5  2  0  0  0  0
 19 16  1  0  0  0  0
 20 11  2  0  0  0  0
 21  9  1  0  0  0  0
 21 15  1  1  0  0  0
 22  9  1  0  0  0  0
 22 20  1  0  0  0  0
 23  6  1  0  0  0  0
 24 25  1  0  0  0  0
 27 26  1  6  0  0  0
 27 30  1  0  0  0  0
 28 30  2  0  0  0  0
 30 31  1  0  0  0  0
 31 29  1  0  0  0  0
 33 34  2  0  0  0  0
 34 32  1  0  0  0  0
 34 27  1  0  0  0  0
M  END
>  <MODEL>
2

>  <REMARK>
 VINA RESULT:      -4.9      3.200      7.852
  Name = 
  5 active torsions:
  status: ('A' for Active; 'I' for Inactive)
    1  A    between atoms: O_2  and  C_9
    2  A    between atoms: C_6  and  C_30
    3  A    between atoms: C_14  and  C_20
    4  A    between atoms: C_14  and  C_29
    5  A    between atoms: C_14  and  C_30
                            x       y       z     vdW  Elec       q    Type
                         _______ _______ _______ _____ _____    ______ ____

>  <TORSDO>
F 5

$$$$
=
 OpenBabel11072414173D

 34 35  0  0  1  0  0  0  0  0999 V2000
  160.6840  206.5530  150.4040 C   0  0  0  0  0  2  0  0  0  0  0  0
  160.6790  206.8880  153.6410 C   0  0  0  0  0  2  0  0  0  0  0  0
  161.6620  205.8380  153.1530 C   0  0  0  0  0  2  0  0  0  0  0  0
  162.0940  207.7020  148.5490 C   0  0  2  0  0  3  0  0  0  0  0  0
  161.0620  212.2470  148.7250 C   0  0  0  0  0  0  0  0  0  0  0  0
  160.9870  204.8610  152.2350 C   0  0  0  0  0  0  0  0  0  0  0  0
  162.0490  206.7090  149.7220 C   0  0  1  0  0  3  0  0  0  0  0  0
  160.3100  213.3420  149.1510 C   0  0  0  0  0  3  0  0  0  0  0  0
  161.3910  210.7440  153.3440 O   0  0  0  0  0  0  0  0  0  0  0  0
  160.0290  213.5090  150.4680 N   0  0  0  0  0  0  0  0  0  0  0  0
  160.4550  212.6250  151.4070 C   0  0  0  0  0  3  0  0  0  0  0  0
  160.4870  209.0820  154.8090 C   0  0  0  0  0  2  0  0  0  0  0  0
  161.3350  212.0890  147.2690 C   0  0  0  0  0  1  0  0  0  0  0  0
  161.4180  207.9330  154.4540 C   0  0  0  0  0  2  0  0  0  0  0  0
  159.1330  210.8660  153.8880 N   0  0  0  0  0  1  0  0  0  0  0  0
  162.3020  210.1060  149.2400 C   0  0  0  0  0  2  0  0  0  0  0  0
  160.5500  205.1910  151.0110 C   0  0  0  0  0  3  0  0  0  0  0  0
  161.5240  211.3140  149.6740 C   0  0  0  0  0  0  0  0  0  0  0  0
  161.3440  209.0010  148.8310 C   0  0  0  0  0  2  0  0  0  0  0  0
  161.2020  211.5020  151.0320 C   0  0  0  0  0  0  0  0  0  0  0  0
  160.2480  209.9810  153.6060 C   0  0  1  0  0  3  0  0  0  0  0  0
  161.6440  210.5670  152.0230 N   0  0  0  0  0  2  0  0  0  0  0  0
  160.8470  203.4490  152.6850 C   0  0  0  0  0  1  0  0  0  0  0  0
  163.1190  206.8640  150.6230 O   0  0  0  0  0  0  0  0  0  0  0  0
  162.8660  207.9420  151.3400 O   0  0  0  0  0  1  0  0  0  0  0  0
  161.5160  207.0400  147.3060 C   0  0  0  0  0  2  0  0  0  0  0  0
  162.2050  205.7090  147.0260 C   0  0  2  0  0  3  0  0  0  0  0  0
  163.4700  204.9620  145.1550 O   0  0  0  0  0  0  0  0  0  0  0  0
  161.5460  205.6720  143.1920 C   0  0  0  0  0  1  0  0  0  0  0  0
  162.3930  205.4770  145.5580 C   0  0  0  0  0  0  0  0  0  0  0  0
  161.3840  205.8700  144.6230 N   0  0  0  0  0  2  0  0  0  0  0  0
  160.2170  204.5840  147.7600 O   0  0  0  0  0  0  0  0  0  0  0  0
  162.1890  203.4970  148.1780 O   0  0  0  0  0  1  0  0  0  0  0  0
  161.4740  204.5750  147.6750 C   0  0  0  0  0  0  0  0  0  0  0  0
  1 17  1  0  0  0  0
  2 14  1  0  0  0  0
  3  2  1  0  0  0  0
  4 26  1  6  0  0  0
  4 19  1  0  0  0  0
  4  7  1  0  0  0  0
  5  8  2  0  0  0  0
  5 18  1  0  0  0  0
  6 23  1  0  0  0  0
  6  3  1  0  0  0  0
  7  1  1  0  0  0  0
  7 24  1  1  0  0  0
  8 10  1  0  0  0  0
  9 21  1  0  0  0  0
 10 11  2  0  0  0  0
 13  5  1  0  0  0  0
 14 12  1  0  0  0  0
 16 18  1  0  0  0  0
 17  6  2  0  0  0  0
 18 20  2  0  0  0  0
 19 16  1  0  0  0  0
 20 11  1  0  0  0  0
 20 22  1  0  0  0  0
 21 15  1  1  0  0  0
 21 12  1  0  0  0  0
 22  9  1  0  0  0  0
 24 25  1  0  0  0  0
 27 26  1  6  0  0  0
 27 34  1  0  0  0  0
 28 30  2  0  0  0  0
 29 31  1  0  0  0  0
 30 27  1  0  0  0  0
 31 30  1  0  0  0  0
 34 32  2  0  0  0  0
 34 33  1  0  0  0  0
M  END
>  <MODEL>
3

>  <REMARK>
 VINA RESULT:      -4.0      2.914      4.834
  Name = 
  5 active torsions:
  status: ('A' for Active; 'I' for Inactive)
    1  A    between atoms: O_2  and  C_9
    2  A    between atoms: C_6  and  C_30
    3  A    between atoms: C_14  and  C_20
    4  A    between atoms: C_14  and  C_29
    5  A    between atoms: C_14  and  C_30
                            x       y       z     vdW  Elec       q    Type
                         _______ _______ _______ _____ _____    ______ ____

>  <TORSDO>
F 5

$$$$
=
 OpenBabel11072414173D

 34 35  0  0  1  0  0  0  0  0999 V2000
  158.5260  211.1740  152.9590 C   0  0  0  0  0  2  0  0  0  0  0  0
  158.8180  213.8050  151.0660 C   0  0  0  0  0  2  0  0  0  0  0  0
  158.8720  214.1300  152.5490 C   0  0  0  0  0  2  0  0  0  0  0  0
  160.2990  209.5710  153.9780 C   0  0  2  0  0  3  0  0  0  0  0  0
  162.4690  207.5410  150.3830 C   0  0  0  0  0  0  0  0  0  0  0  0
  157.7030  213.5270  153.2700 C   0  0  0  0  0  0  0  0  0  0  0  0
  159.6480  210.9650  153.9830 C   0  0  1  0  0  3  0  0  0  0  0  0
  162.6180  207.2190  149.0340 C   0  0  0  0  0  3  0  0  0  0  0  0
  161.8550  212.2100  149.1440 O   0  0  0  0  0  0  0  0  0  0  0  0
  162.5450  208.1870  148.0860 N   0  0  0  0  0  0  0  0  0  0  0  0
  162.3180  209.4870  148.4100 C   0  0  0  0  0  3  0  0  0  0  0  0
  160.1240  213.8500  148.9440 C   0  0  0  0  0  2  0  0  0  0  0  0
  162.5390  206.4470  151.3920 C   0  0  0  0  0  1  0  0  0  0  0  0
  160.0780  214.3120  150.3920 C   0  0  0  0  0  2  0  0  0  0  0  0
  160.2310  211.9010  147.5080 N   0  0  0  0  0  1  0  0  0  0  0  0
  162.0350  209.2510  152.1930 C   0  0  0  0  0  2  0  0  0  0  0  0
  157.5550  212.2050  153.4450 C   0  0  0  0  0  3  0  0  0  0  0  0
  162.2370  208.8800  150.7520 C   0  0  0  0  0  0  0  0  0  0  0  0
  160.5790  209.0440  152.5730 C   0  0  0  0  0  2  0  0  0  0  0  0
  162.1480  209.8630  149.7470 C   0  0  0  0  0  0  0  0  0  0  0  0
  160.4970  212.3780  148.8540 C   0  0  1  0  0  3  0  0  0  0  0  0
  161.9010  211.2330  150.0850 N   0  0  0  0  0  2  0  0  0  0  0  0
  156.6910  214.4410  153.8660 C   0  0  0  0  0  1  0  0  0  0  0  0
  160.5850  212.0150  154.0220 O   0  0  0  0  0  0  0  0  0  0  0  0
  160.3870  212.6670  155.1510 O   0  0  0  0  0  1  0  0  0  0  0  0
  159.4000  208.5920  154.7200 C   0  0  0  0  0  2  0  0  0  0  0  0
  159.9570  208.2830  156.1050 C   0  0  2  0  0  3  0  0  0  0  0  0
  159.9210  210.3760  157.2360 O   0  0  0  0  0  0  0  0  0  0  0  0
  162.7340  210.7620  157.2360 C   0  0  0  0  0  1  0  0  0  0  0  0
  160.6310  209.4750  156.7130 C   0  0  0  0  0  0  0  0  0  0  0  0
  162.0540  209.6090  156.6680 N   0  0  0  0  0  2  0  0  0  0  0  0
  161.4820  206.7850  155.0150 O   0  0  0  0  0  0  0  0  0  0  0  0
  161.0390  206.3290  157.2150 O   0  0  0  0  0  1  0  0  0  0  0  0
  160.8660  207.0930  156.0700 C   0  0  0  0  0  0  0  0  0  0  0  0
  1 17  1  0  0  0  0
  1  7  1  0  0  0  0
  2  3  1  0  0  0  0
  3  6  1  0  0  0  0
  4  7  1  0  0  0  0
  4 26  1  6  0  0  0
  5 18  1  0  0  0  0
  5 13  1  0  0  0  0
  6 17  2  0  0  0  0
  6 23  1  0  0  0  0
  7 24  1  6  0  0  0
  8  5  2  0  0  0  0
  9 22  1  0  0  0  0
 10 11  2  0  0  0  0
 10  8  1  0  0  0  0
 11 20  1  0  0  0  0
 12 14  1  0  0  0  0
 14  2  1  0  0  0  0
 16 19  1  0  0  0  0
 18 16  1  0  0  0  0
 19  4  1  0  0  0  0
 20 22  1  0  0  0  0
 20 18  2  0  0  0  0
 21 15  1  6  0  0  0
 21 12  1  0  0  0  0
 21  9  1  0  0  0  0
 24 25  1  0  0  0  0
 27 26  1  6  0  0  0
 27 30  1  0  0  0  0
 30 28  2  0  0  0  0
 31 30  1  0  0  0  0
 31 29  1  0  0  0  0
 32 34  2  0  0  0  0
 34 27  1  0  0  0  0
 34 33  1  0  0  0  0
M  END
>  <MODEL>
4

>  <REMARK>
 VINA RESULT:      -3.7      2.723      6.339
  Name = 
  5 active torsions:
  status: ('A' for Active; 'I' for Inactive)
    1  A    between atoms: O_2  and  C_9
    2  A    between atoms: C_6  and  C_30
    3  A    between atoms: C_14  and  C_20
    4  A    between atoms: C_14  and  C_29
    5  A    between atoms: C_14  and  C_30
                            x       y       z     vdW  Elec       q    Type
                         _______ _______ _______ _____ _____    ______ ____

>  <TORSDO>
F 5

$$$$
=
 OpenBabel11072414173D

 34 35  0  0  1  0  0  0  0  0999 V2000
  160.7000  206.3190  146.9060 C   0  0  0  0  0  2  0  0  0  0  0  0
  160.7940  203.1690  146.0910 C   0  0  0  0  0  2  0  0  0  0  0  0
  161.7310  204.0280  145.2580 C   0  0  0  0  0  2  0  0  0  0  0  0
  162.0930  207.7090  148.6020 C   0  0  2  0  0  3  0  0  0  0  0  0
  161.2050  205.9250  152.8190 C   0  0  0  0  0  0  0  0  0  0  0  0
  161.0020  205.2030  144.6760 C   0  0  0  0  0  0  0  0  0  0  0  0
  162.0500  206.9530  147.2630 C   0  0  1  0  0  3  0  0  0  0  0  0
  160.4990  205.1170  153.7110 C   0  0  0  0  0  3  0  0  0  0  0  0
  161.6150  202.1320  149.7940 O   0  0  0  0  0  0  0  0  0  0  0  0
  160.2590  203.8150  153.4140 N   0  0  0  0  0  0  0  0  0  0  0  0
  160.6840  203.2590  152.2500 C   0  0  0  0  0  3  0  0  0  0  0  0
  160.7010  201.3050  147.7420 C   0  0  0  0  0  2  0  0  0  0  0  0
  161.4340  207.3540  153.1740 C   0  0  0  0  0  1  0  0  0  0  0  0
  161.5870  202.0720  146.7720 C   0  0  0  0  0  2  0  0  0  0  0  0
  159.3770  201.4990  149.7620 N   0  0  0  0  0  1  0  0  0  0  0  0
  162.3940  206.2320  150.6100 C   0  0  0  0  0  2  0  0  0  0  0  0
  160.5410  206.2200  145.4200 C   0  0  0  0  0  3  0  0  0  0  0  0
  161.6640  205.3770  151.6060 C   0  0  0  0  0  0  0  0  0  0  0  0
  161.3910  206.9650  149.7350 C   0  0  0  0  0  2  0  0  0  0  0  0
  161.3860  204.0280  151.3140 C   0  0  0  0  0  0  0  0  0  0  0  0
  160.4570  202.1110  149.0090 C   0  0  1  0  0  3  0  0  0  0  0  0
  161.8270  203.4410  150.0840 N   0  0  0  0  0  2  0  0  0  0  0  0
  160.8310  205.2680  143.1990 C   0  0  0  0  0  1  0  0  0  0  0  0
  163.1490  206.0940  147.0750 O   0  0  0  0  0  0  0  0  0  0  0  0
  162.8650  204.9630  147.6910 O   0  0  0  0  0  1  0  0  0  0  0  0
  161.4620  209.0820  148.4260 C   0  0  0  0  0  2  0  0  0  0  0  0
  162.3310  210.1660  149.0550 C   0  0  2  0  0  3  0  0  0  0  0  0
  162.7060  209.8450  151.3820 O   0  0  0  0  0  0  0  0  0  0  0  0
  160.4860  211.3830  152.2560 C   0  0  0  0  0  1  0  0  0  0  0  0
  161.9910  210.3860  150.4970 C   0  0  0  0  0  0  0  0  0  0  0  0
  160.8490  211.1660  150.8650 N   0  0  0  0  0  2  0  0  0  0  0  0
  163.2300  212.2440  148.2600 O   0  0  0  0  0  1  0  0  0  0  0  0
  161.1190  211.7310  147.5380 O   0  0  0  0  0  0  0  0  0  0  0  0
  162.2600  211.4390  148.2700 C   0  0  0  0  0  0  0  0  0  0  0  0
  1  7  1  0  0  0  0
  2 14  1  0  0  0  0
  3  2  1  0  0  0  0
  4 26  1  6  0  0  0
  4 19  1  0  0  0  0
  5 13  1  0  0  0  0
  5  8  1  0  0  0  0
  6  3  1  0  0  0  0
  6 17  2  0  0  0  0
  7 24  1  1  0  0  0
  7  4  1  0  0  0  0
  9 22  1  0  0  0  0
 10  8  2  0  0  0  0
 11 10  1  0  0  0  0
 12 21  1  0  0  0  0
 14 12  1  0  0  0  0
 16 18  1  0  0  0  0
 17  1  1  0  0  0  0
 18  5  2  0  0  0  0
 19 16  1  0  0  0  0
 20 18  1  0  0  0  0
 20 11  2  0  0  0  0
 21 15  1  1  0  0  0
 21  9  1  0  0  0  0
 22 20  1  0  0  0  0
 23  6  1  0  0  0  0
 24 25  1  0  0  0  0
 27 26  1  6  0  0  0
 27 30  1  0  0  0  0
 30 31  1  0  0  0  0
 30 28  2  0  0  0  0
 31 29  1  0  0  0  0
 32 34  1  0  0  0  0
 33 34  2  0  0  0  0
 34 27  1  0  0  0  0
M  END
>  <MODEL>
5

>  <REMARK>
 VINA RESULT:      -3.2      3.720      9.157
  Name = 
  5 active torsions:
  status: ('A' for Active; 'I' for Inactive)
    1  A    between atoms: O_2  and  C_9
    2  A    between atoms: C_6  and  C_30
    3  A    between atoms: C_14  and  C_20
    4  A    between atoms: C_14  and  C_29
    5  A    between atoms: C_14  and  C_30
                            x       y       z     vdW  Elec       q    Type
                         _______ _______ _______ _____ _____    ______ ____

>  <TORSDO>
F 5

$$$$
=
 OpenBabel11072414173D

 34 35  0  0  1  0  0  0  0  0999 V2000
  158.0830  212.5230  150.0810 C   0  0  0  0  0  2  0  0  0  0  0  0
  160.3930  211.9750  147.8540 C   0  0  0  0  0  2  0  0  0  0  0  0
  160.0600  213.4490  148.0160 C   0  0  0  0  0  2  0  0  0  0  0  0
  158.2190  213.0100  152.6290 C   0  0  2  0  0  3  0  0  0  0  0  0
  160.1310  209.2390  154.5970 C   0  0  0  0  0  0  0  0  0  0  0  0
  158.5810  213.6770  147.9060 C   0  0  0  0  0  0  0  0  0  0  0  0
  158.4550  213.5100  151.1950 C   0  0  1  0  0  3  0  0  0  0  0  0
  160.5720  207.9150  154.5940 C   0  0  0  0  0  3  0  0  0  0  0  0
  162.5830  210.0090  150.4620 O   0  0  0  0  0  0  0  0  0  0  0  0
  161.3770  207.4630  153.5990 N   0  0  0  0  0  0  0  0  0  0  0  0
  161.7700  208.2690  152.5780 C   0  0  0  0  0  3  0  0  0  0  0  0
  162.1980  210.2770  148.1150 C   0  0  0  0  0  2  0  0  0  0  0  0
  159.2360  209.6920  155.6990 C   0  0  0  0  0  1  0  0  0  0  0  0
  161.8730  211.7620  148.1040 C   0  0  0  0  0  2  0  0  0  0  0  0
  161.7780  208.1850  149.2630 N   0  0  0  0  0  1  0  0  0  0  0  0
  160.0360  211.5200  153.5130 C   0  0  0  0  0  2  0  0  0  0  0  0
  157.7050  213.2560  148.8310 C   0  0  0  0  0  3  0  0  0  0  0  0
  160.5250  210.1010  153.5560 C   0  0  0  0  0  0  0  0  0  0  0  0
  158.6720  211.5680  152.8460 C   0  0  0  0  0  2  0  0  0  0  0  0
  161.3460  209.6010  152.5260 C   0  0  0  0  0  0  0  0  0  0  0  0
  161.7390  209.6280  149.4120 C   0  0  1  0  0  3  0  0  0  0  0  0
  161.7560  210.4470  151.4440 N   0  0  0  0  0  2  0  0  0  0  0  0
  158.0690  214.4530  146.7440 C   0  0  0  0  0  1  0  0  0  0  0  0
  159.7120  214.1190  151.0180 O   0  0  0  0  0  0  0  0  0  0  0  0
  160.1530  214.4470  152.2170 O   0  0  0  0  0  1  0  0  0  0  0  0
  156.7410  213.1360  152.9710 C   0  0  0  0  0  2  0  0  0  0  0  0
  156.5310  214.0950  154.1380 C   0  0  2  0  0  3  0  0  0  0  0  0
  156.7700  212.6900  156.0430 O   0  0  0  0  0  0  0  0  0  0  0  0
  159.1610  213.8850  156.9980 C   0  0  0  0  0  1  0  0  0  0  0  0
  157.2520  213.6390  155.3690 C   0  0  0  0  0  0  0  0  0  0  0  0
  158.4490  214.2950  155.7980 N   0  0  0  0  0  2  0  0  0  0  0  0
  154.2490  214.3690  153.4510 O   0  0  0  0  0  0  0  0  0  0  0  0
  154.6270  214.4530  155.7070 O   0  0  0  0  0  1  0  0  0  0  0  0
  155.0740  214.3160  154.4010 C   0  0  0  0  0  0  0  0  0  0  0  0
  1  7  1  0  0  0  0
  2  3  1  0  0  0  0
  2 14  1  0  0  0  0
  4 19  1  0  0  0  0
  4 26  1  6  0  0  0
  5 13  1  0  0  0  0
  6  3  1  0  0  0  0
  6 17  2  0  0  0  0
  7 24  1  1  0  0  0
  7  4  1  0  0  0  0
  8  5  1  0  0  0  0
  9 22  1  0  0  0  0
 10  8  2  0  0  0  0
 11 10  1  0  0  0  0
 12 21  1  0  0  0  0
 14 12  1  0  0  0  0
 16 18  1  0  0  0  0
 17  1  1  0  0  0  0
 18  5  2  0  0  0  0
 19 16  1  0  0  0  0
 20 11  2  0  0  0  0
 20 18  1  0  0  0  0
 21 15  1  6  0  0  0
 21  9  1  0  0  0  0
 22 20  1  0  0  0  0
 23  6  1  0  0  0  0
 24 25  1  0  0  0  0
 27 26  1  6  0  0  0
 27 34  1  0  0  0  0
 27 30  1  0  0  0  0
 30 31  1  0  0  0  0
 30 28  2  0  0  0  0
 31 29  1  0  0  0  0
 32 34  2  0  0  0  0
 34 33  1  0  0  0  0
M  END
>  <MODEL>
6

>  <REMARK>
 VINA RESULT:      -2.8      2.427      8.068
  Name = 
  5 active torsions:
  status: ('A' for Active; 'I' for Inactive)
    1  A    between atoms: O_2  and  C_9
    2  A    between atoms: C_6  and  C_30
    3  A    between atoms: C_14  and  C_20
    4  A    between atoms: C_14  and  C_29
    5  A    between atoms: C_14  and  C_30
                            x       y       z     vdW  Elec       q    Type
                         _______ _______ _______ _____ _____    ______ ____

>  <TORSDO>
F 5

$$$$
=
 OpenBabel11072414173D

 34 35  0  0  1  0  0  0  0  0999 V2000
  158.0080  212.3790  150.6330 C   0  0  0  0  0  2  0  0  0  0  0  0
  160.1340  211.9310  148.2090 C   0  0  0  0  0  2  0  0  0  0  0  0
  159.8190  213.3950  148.4610 C   0  0  0  0  0  2  0  0  0  0  0  0
  158.3450  212.7540  153.1810 C   0  0  2  0  0  3  0  0  0  0  0  0
  160.3950  208.9010  154.8260 C   0  0  0  0  0  0  0  0  0  0  0  0
  158.3370  213.6270  148.4780 C   0  0  0  0  0  0  0  0  0  0  0  0
  158.4690  213.3160  151.7560 C   0  0  1  0  0  3  0  0  0  0  0  0
  160.8310  207.5790  154.7300 C   0  0  0  0  0  3  0  0  0  0  0  0
  162.5170  209.8530  150.5480 O   0  0  0  0  0  0  0  0  0  0  0  0
  161.5540  207.1720  153.6560 N   0  0  0  0  0  0  0  0  0  0  0  0
  161.8670  208.0220  152.6440 C   0  0  0  0  0  3  0  0  0  0  0  0
  161.9490  210.2230  148.2530 C   0  0  0  0  0  2  0  0  0  0  0  0
  159.5910  209.3050  156.0130 C   0  0  0  0  0  1  0  0  0  0  0  0
  161.6280  211.7080  148.3330 C   0  0  0  0  0  2  0  0  0  0  0  0
  161.6150  208.0830  149.3370 N   0  0  0  0  0  1  0  0  0  0  0  0
  160.2210  211.2270  153.8530 C   0  0  0  0  0  2  0  0  0  0  0  0
  157.5350  213.1650  149.4500 C   0  0  0  0  0  3  0  0  0  0  0  0
  160.7090  209.8080  153.7960 C   0  0  0  0  0  0  0  0  0  0  0  0
  158.8090  211.3040  153.2980 C   0  0  0  0  0  2  0  0  0  0  0  0
  161.4440  209.3550  152.6830 C   0  0  0  0  0  0  0  0  0  0  0  0
  161.5920  209.5180  149.5530 C   0  0  1  0  0  3  0  0  0  0  0  0
  161.7700  210.2470  151.6110 N   0  0  0  0  0  2  0  0  0  0  0  0
  157.7380  214.4530  147.3940 C   0  0  0  0  0  1  0  0  0  0  0  0
  159.7100  213.9330  151.5070 O   0  0  0  0  0  0  0  0  0  0  0  0
  160.5660  212.9730  151.2170 O   0  0  0  0  0  1  0  0  0  0  0  0
  156.8990  212.8640  153.6430 C   0  0  0  0  0  2  0  0  0  0  0  0
  156.7710  212.5140  155.1210 C   0  0  2  0  0  3  0  0  0  0  0  0
  155.2320  210.8610  154.3720 O   0  0  0  0  0  0  0  0  0  0  0  0
  154.1870  210.2430  156.9380 C   0  0  0  0  0  1  0  0  0  0  0  0
  155.7120  211.4810  155.3590 C   0  0  0  0  0  0  0  0  0  0  0  0
  155.2250  211.2280  156.6800 N   0  0  0  0  0  2  0  0  0  0  0  0
  157.4850  214.2610  156.6030 O   0  0  0  0  0  1  0  0  0  0  0  0
  155.2800  214.3140  155.9910 O   0  0  0  0  0  0  0  0  0  0  0  0
  156.5420  213.7400  155.9500 C   0  0  0  0  0  0  0  0  0  0  0  0
  1  7  1  0  0  0  0
  2 14  1  0  0  0  0
  2  3  1  0  0  0  0
  3  6  1  0  0  0  0
  4 19  1  0  0  0  0
  4 26  1  6  0  0  0
  5 13  1  0  0  0  0
  6 17  2  0  0  0  0
  7 24  1  6  0  0  0
  7  4  1  0  0  0  0
  8  5  1  0  0  0  0
  9 22  1  0  0  0  0
 10  8  2  0  0  0  0
 11 20  2  0  0  0  0
 11 10  1  0  0  0  0
 12 14  1  0  0  0  0
 12 21  1  0  0  0  0
 17  1  1  0  0  0  0
 18 16  1  0  0  0  0
 18  5  2  0  0  0  0
 19 16  1  0  0  0  0
 20 18  1  0  0  0  0
 21 15  1  6  0  0  0
 21  9  1  0  0  0  0
 22 20  1  0  0  0  0
 23  6  1  0  0  0  0
 25 24  1  0  0  0  0
 27 26  1  6  0  0  0
 27 30  1  0  0  0  0
 27 34  1  0  0  0  0
 28 30  2  0  0  0  0
 30 31  1  0  0  0  0
 31 29  1  0  0  0  0
 34 33  2  0  0  0  0
 34 32  1  0  0  0  0
M  END
>  <MODEL>
7

>  <REMARK>
 VINA RESULT:      -2.6      2.446      7.906
  Name = 
  5 active torsions:
  status: ('A' for Active; 'I' for Inactive)
    1  A    between atoms: O_2  and  C_9
    2  A    between atoms: C_6  and  C_30
    3  A    between atoms: C_14  and  C_20
    4  A    between atoms: C_14  and  C_29
    5  A    between atoms: C_14  and  C_30
                            x       y       z     vdW  Elec       q    Type
                         _______ _______ _______ _____ _____    ______ ____

>  <TORSDO>
F 5

$$$$
=
 OpenBabel11072414173D

 34 35  0  0  1  0  0  0  0  0999 V2000
  162.6080  209.2720  151.5590 C   0  0  0  0  0  2  0  0  0  0  0  0
  161.6050  207.4140  154.0360 C   0  0  0  0  0  2  0  0  0  0  0  0
  161.0560  208.8290  154.0930 C   0  0  0  0  0  2  0  0  0  0  0  0
  161.5810  209.7340  149.2180 C   0  0  2  0  0  3  0  0  0  0  0  0
  161.5130  205.6460  146.9730 C   0  0  0  0  0  0  0  0  0  0  0  0
  162.1600  209.8360  153.9650 C   0  0  0  0  0  0  0  0  0  0  0  0
  161.4980  209.9410  150.7390 C   0  0  1  0  0  3  0  0  0  0  0  0
  161.8550  204.3030  146.8110 C   0  0  0  0  0  3  0  0  0  0  0  0
  160.1950  204.7010  151.5640 O   0  0  0  0  0  0  0  0  0  0  0  0
  161.7010  203.4280  147.8370 N   0  0  0  0  0  0  0  0  0  0  0  0
  161.2220  203.8230  149.0450 C   0  0  0  0  0  3  0  0  0  0  0  0
  160.9740  205.0140  153.8050 C   0  0  0  0  0  2  0  0  0  0  0  0
  161.7130  206.5780  145.8280 C   0  0  0  0  0  1  0  0  0  0  0  0
  160.4560  206.4260  154.0320 C   0  0  0  0  0  2  0  0  0  0  0  0
  162.1190  203.5740  152.2290 N   0  0  0  0  0  1  0  0  0  0  0  0
  160.6680  207.5330  148.4270 C   0  0  0  0  0  2  0  0  0  0  0  0
  162.8510  210.0240  152.8310 C   0  0  0  0  0  3  0  0  0  0  0  0
  161.0090  206.0860  148.2120 C   0  0  0  0  0  0  0  0  0  0  0  0
  161.9190  208.2980  148.8250 C   0  0  0  0  0  2  0  0  0  0  0  0
  160.8760  205.1610  149.2660 C   0  0  0  0  0  0  0  0  0  0  0  0
  161.3510  204.8010  152.3470 C   0  0  1  0  0  3  0  0  0  0  0  0
  160.3790  205.5760  150.5430 N   0  0  0  0  0  2  0  0  0  0  0  0
  162.4660  210.7030  155.1360 C   0  0  0  0  0  1  0  0  0  0  0  0
  160.2060  209.7360  151.2590 O   0  0  0  0  0  0  0  0  0  0  0  0
  159.8000  210.8900  151.7520 O   0  0  0  0  0  1  0  0  0  0  0  0
  162.6210  210.6790  148.6360 C   0  0  0  0  0  2  0  0  0  0  0  0
  162.1140  212.1170  148.6380 C   0  0  2  0  0  3  0  0  0  0  0  0
  160.7580  211.7780  146.7130 O   0  0  0  0  0  0  0  0  0  0  0  0
  158.4670  213.1170  147.7220 C   0  0  0  0  0  1  0  0  0  0  0  0
  160.8310  212.2560  147.8770 C   0  0  0  0  0  0  0  0  0  0  0  0
  159.7190  212.9530  148.4440 N   0  0  0  0  0  2  0  0  0  0  0  0
  164.3270  212.6570  147.8860 O   0  0  0  0  0  0  0  0  0  0  0  0
  162.8380  214.3940  147.9260 O   0  0  0  0  0  1  0  0  0  0  0  0
  163.1600  213.0610  148.1330 C   0  0  0  0  0  0  0  0  0  0  0  0
  1 17  1  0  0  0  0
  2  3  1  0  0  0  0
  4 26  1  1  0  0  0
  4  7  1  0  0  0  0
  5 18  1  0  0  0  0
  6  3  1  0  0  0  0
  6 23  1  0  0  0  0
  7 24  1  1  0  0  0
  7  1  1  0  0  0  0
  8  5  2  0  0  0  0
  8 10  1  0  0  0  0
  9 21  1  0  0  0  0
 10 11  2  0  0  0  0
 11 20  1  0  0  0  0
 12 14  1  0  0  0  0
 13  5  1  0  0  0  0
 14  2  1  0  0  0  0
 16 19  1  0  0  0  0
 17  6  2  0  0  0  0
 18 16  1  0  0  0  0
 18 20  2  0  0  0  0
 19  4  1  0  0  0  0
 20 22  1  0  0  0  0
 21 15  1  1  0  0  0
 21 12  1  0  0  0  0
 22  9  1  0  0  0  0
 24 25  1  0  0  0  0
 27 26  1  6  0  0  0
 28 30  2  0  0  0  0
 29 31  1  0  0  0  0
 30 31  1  0  0  0  0
 30 27  1  0  0  0  0
 32 34  2  0  0  0  0
 33 34  1  0  0  0  0
 34 27  1  0  0  0  0
M  END
>  <MODEL>
8

>  <REMARK>
 VINA RESULT:      -2.6      3.316      6.851
  Name = 
  5 active torsions:
  status: ('A' for Active; 'I' for Inactive)
    1  A    between atoms: O_2  and  C_9
    2  A    between atoms: C_6  and  C_30
    3  A    between atoms: C_14  and  C_20
    4  A    between atoms: C_14  and  C_29
    5  A    between atoms: C_14  and  C_30
                            x       y       z     vdW  Elec       q    Type
                         _______ _______ _______ _____ _____    ______ ____

>  <TORSDO>
F 5

$$$$
=
 OpenBabel11072414173D

 34 35  0  0  1  0  0  0  0  0999 V2000
  160.6940  208.8060  152.1820 C   0  0  0  0  0  2  0  0  0  0  0  0
  159.2210  210.4540  154.5700 C   0  0  0  0  0  2  0  0  0  0  0  0
  160.5070  209.7820  155.0170 C   0  0  0  0  0  2  0  0  0  0  0  0
  162.5050  209.5090  150.4570 C   0  0  2  0  0  3  0  0  0  0  0  0
  160.6060  212.8730  147.8430 C   0  0  0  0  0  0  0  0  0  0  0  0
  160.5090  208.3290  154.6410 C   0  0  0  0  0  0  0  0  0  0  0  0
  162.1580  209.1830  151.9190 C   0  0  1  0  0  3  0  0  0  0  0  0
  159.5400  213.6470  147.3830 C   0  0  0  0  0  3  0  0  0  0  0  0
  159.1980  213.7470  152.4210 O   0  0  0  0  0  0  0  0  0  0  0  0
  158.6890  214.2330  148.2640 N   0  0  0  0  0  0  0  0  0  0  0  0
  158.8360  214.0810  149.6060 C   0  0  0  0  0  3  0  0  0  0  0  0
  158.1050  212.6600  154.2510 C   0  0  0  0  0  2  0  0  0  0  0  0
  161.5080  212.2330  146.8440 C   0  0  0  0  0  1  0  0  0  0  0  0
  159.3080  211.9430  154.8430 C   0  0  0  0  0  2  0  0  0  0  0  0
  156.9540  213.1820  152.1840 N   0  0  0  0  0  1  0  0  0  0  0  0
  161.9040  211.8420  149.7510 C   0  0  0  0  0  2  0  0  0  0  0  0
  160.5890  207.9030  153.3720 C   0  0  0  0  0  3  0  0  0  0  0  0
  160.7890  212.7010  149.2280 C   0  0  0  0  0  0  0  0  0  0  0  0
  161.4620  210.3890  149.7730 C   0  0  0  0  0  2  0  0  0  0  0  0
  159.8810  213.3050  150.1200 C   0  0  0  0  0  0  0  0  0  0  0  0
  158.2340  212.7840  152.7400 C   0  0  1  0  0  3  0  0  0  0  0  0
  160.0280  213.1410  151.5350 N   0  0  0  0  0  2  0  0  0  0  0  0
  160.4760  207.3160  155.7310 C   0  0  0  0  0  1  0  0  0  0  0  0
  162.6770  210.1170  152.8350 O   0  0  0  0  0  0  0  0  0  0  0  0
  161.8090  211.1080  152.9090 O   0  0  0  0  0  1  0  0  0  0  0  0
  162.6690  208.2140  149.6760 C   0  0  0  0  0  2  0  0  0  0  0  0
  161.4300  207.3350  149.8100 C   0  0  2  0  0  3  0  0  0  0  0  0
  162.6970  206.2140  151.4830 O   0  0  0  0  0  0  0  0  0  0  0  0
  160.8230  204.1280  151.9280 C   0  0  0  0  0  1  0  0  0  0  0  0
  161.6310  206.2390  150.8110 C   0  0  0  0  0  0  0  0  0  0  0  0
  160.6470  205.2130  150.9760 N   0  0  0  0  0  2  0  0  0  0  0  0
  161.8490  206.5510  147.5820 O   0  0  0  0  0  0  0  0  0  0  0  0
  159.6570  206.5560  148.2400 O   0  0  0  0  0  1  0  0  0  0  0  0
  161.0010  206.7970  148.4810 C   0  0  0  0  0  0  0  0  0  0  0  0
  1 17  1  0  0  0  0
  2 14  1  0  0  0  0
  2  3  1  0  0  0  0
  4 26  1  6  0  0  0
  4  7  1  0  0  0  0
  5 18  1  0  0  0  0
  6  3  1  0  0  0  0
  6 23  1  0  0  0  0
  7  1  1  0  0  0  0
  7 24  1  1  0  0  0
  8  5  2  0  0  0  0
  8 10  1  0  0  0  0
  9 21  1  0  0  0  0
 10 11  2  0  0  0  0
 11 20  1  0  0  0  0
 12 14  1  0  0  0  0
 13  5  1  0  0  0  0
 16 19  1  0  0  0  0
 17  6  2  0  0  0  0
 18 16  1  0  0  0  0
 18 20  2  0  0  0  0
 19  4  1  0  0  0  0
 20 22  1  0  0  0  0
 21 15  1  6  0  0  0
 21 12  1  0  0  0  0
 22  9  1  0  0  0  0
 24 25  1  0  0  0  0
 27 26  1  6  0  0  0
 27 30  1  0  0  0  0
 30 31  1  0  0  0  0
 30 28  2  0  0  0  0
 31 29  1  0  0  0  0
 32 34  2  0  0  0  0
 33 34  1  0  0  0  0
 34 27  1  0  0  0  0
M  END
>  <MODEL>
9

>  <REMARK>
 VINA RESULT:      -2.4      1.763      2.271
  Name = 
  5 active torsions:
  status: ('A' for Active; 'I' for Inactive)
    1  A    between atoms: O_2  and  C_9
    2  A    between atoms: C_6  and  C_30
    3  A    between atoms: C_14  and  C_20
    4  A    between atoms: C_14  and  C_29
    5  A    between atoms: C_14  and  C_30
                            x       y       z     vdW  Elec       q    Type
                         _______ _______ _______ _____ _____    ______ ____

>  <TORSDO>
F 5

$$$$
