=
 OpenBabel11072412593D

 48 55  0  0  1  0  0  0  0  0999 V2000
  162.4370  209.8780  148.4230 C   0  0  0  0  0  2  0  0  0  0  0  0
  161.0090  210.2760  139.1940 C   0  0  1  0  0  3  0  0  0  0  0  0
  160.2390  205.2680  147.5020 C   0  0  2  0  0  3  0  0  0  0  0  0
  161.9630  207.6640  149.6680 C   0  0  2  0  0  0  0  0  0  0  0  0
  160.9640  202.8360  147.9530 C   0  0  0  0  0  2  0  0  0  0  0  0
  162.2550  206.4200  148.8110 C   0  0  2  0  0  3  0  0  0  0  0  0
  161.8480  205.8870  142.8360 C   0  0  0  0  0  2  0  0  0  0  0  0
  162.5340  207.9100  141.7530 O   0  0  0  0  0  0  0  0  0  0  0  0
  160.4130  211.3420  141.8130 C   0  0  2  0  0  3  0  0  0  0  0  0
  160.3760  204.1300  148.5440 C   0  0  1  0  0  3  0  0  0  0  0  0
  161.4730  205.3750  146.5830 C   0  0  1  0  0  3  0  0  0  0  0  0
  160.3190  212.3330  146.3290 C   0  0  1  0  0  3  0  0  0  0  0  0
  161.0020  201.3490  150.0460 C   0  0  0  0  0  2  0  0  0  0  0  0
  161.4170  208.7700  148.7320 C   0  0  2  0  0  3  0  0  0  0  0  0
  159.9330  211.3010  144.8590 S   0  0  0  0  0  0  0  0  0  0  0  0
  161.9780  210.8210  147.3500 C   0  0  0  0  0  3  0  0  0  0  0  0
  160.3750  201.6150  148.6660 C   0  0  0  0  0  2  0  0  0  0  0  0
  161.0600  205.8340  145.1930 C   0  0  0  0  0  2  0  0  0  0  0  0
  161.8430  202.4410  150.5260 N   0  0  0  0  0  2  0  0  0  0  0  0
  158.8940  212.8070  140.6280 O   0  0  0  0  0  0  0  0  0  0  0  0
  161.1300  209.5370  140.5500 C   0  0  2  0  0  3  0  0  0  0  0  0
  159.7640  211.8930  140.5550 C   0  0  0  0  0  0  0  0  0  0  0  0
  160.8160  211.4600  147.4350 C   0  0  0  0  0  3  0  0  0  0  0  0
  160.9110  212.4480  142.6080 N   0  0  0  0  0  0  0  0  0  0  0  0
  161.4960  210.4680  141.5390 O   0  0  0  0  0  0  0  0  0  0  0  0
  161.3120  213.5750  144.6400 N   0  0  0  0  0  2  0  0  0  0  0  0
  160.7420  212.5290  143.8920 C   0  0  0  0  0  0  0  0  0  0  0  0
  162.1380  208.3830  140.4840 C   0  0  2  0  0  3  0  0  0  0  0  0
  161.3060  213.3780  146.0210 N   0  0  0  0  0  2  0  0  0  0  0  0
  163.1540  208.0560  150.2840 O   0  0  0  0  0  1  0  0  0  0  0  0
  162.2780  205.8810  144.2970 C   0  0  0  0  0  2  0  0  0  0  0  0
  160.9880  204.5870  149.8060 N   0  0  1  0  0  0  0  0  0  0  0  0
  160.6300  208.0480  147.2370 S   0  0  0  0  0  0  0  0  0  0  0  0
  161.6590  207.2670  139.5640 C   0  0  0  0  0  1  0  0  0  0  0  0
  160.9690  203.5650  150.8570 C   0  0  0  0  0  2  0  0  0  0  0  0
  161.4450  207.2890  142.3910 C   0  0  0  0  0  2  0  0  0  0  0  0
  161.2520  206.4080  147.6700 C   0  0  1  0  0  0  0  0  0  0  0  0
  162.3380  205.1010  149.5860 C   0  0  0  0  0  2  0  0  0  0  0  0
  160.0270  211.2970  139.3250 O   0  0  0  0  0  0  0  0  0  0  0  0
  162.2810  210.8610  138.7490 N   0  0  0  0  0  0  0  0  0  0  0  0
  163.4850  210.9090  139.5610 C   0  0  0  0  0  2  0  0  0  0  0  0
  164.3120  212.0910  139.0420 C   0  0  2  0  0  3  0  0  0  0  0  0
  162.3520  211.8790  137.7730 C   0  0  0  0  0  0  0  0  0  0  0  0
  161.3940  212.1730  137.0120 O   0  0  0  0  0  0  0  0  0  0  0  0
  163.6230  212.6260  137.7900 C   0  0  0  0  0  2  0  0  0  0  0  0
  165.6050  211.6870  138.7480 F   0  0  0  0  0  0  0  0  0  0  0  0
  161.3890  207.6740  152.1510 C   0  0  0  0  0  1  0  0  0  0  0  0
  160.9050  207.3790  150.7350 C   0  0  0  0  0  2  0  0  0  0  0  0
  1 14  1  0  0  0  0
  2 40  1  1  0  0  0
  2 39  1  0  0  0  0
  2 21  1  0  0  0  0
  3 37  1  0  0  0  0
  3 10  1  0  0  0  0
  4 30  1  0  0  0  0
  4 48  1  0  0  0  0
  5 10  1  0  0  0  0
  5 17  1  0  0  0  0
  6 38  1  0  0  0  0
  6  4  1  0  0  0  0
  7 31  1  0  0  0  0
  8 36  1  0  0  0  0
  9 24  1  0  0  0  0
 10 32  1  0  0  0  0
 11  3  1  0  0  0  0
 11 37  1  0  0  0  0
 12 23  1  0  0  0  0
 13 19  1  0  0  0  0
 14  4  1  0  0  0  0
 15 12  1  0  0  0  0
 16 23  2  0  0  0  0
 16  1  1  0  0  0  0
 17 13  1  0  0  0  0
 18 11  1  0  0  0  0
 19 35  1  0  0  0  0
 21 25  1  0  0  0  0
 22 20  2  0  0  0  0
 22  9  1  0  0  0  0
 24 27  2  0  0  0  0
 25  9  1  0  0  0  0
 26 29  1  0  0  0  0
 27 26  1  0  0  0  0
 27 15  1  0  0  0  0
 28 21  1  0  0  0  0
 28  8  1  0  0  0  0
 29 12  1  0  0  0  0
 31 18  1  0  0  0  0
 32 35  1  0  0  0  0
 33 37  1  0  0  0  0
 33 14  1  0  0  0  0
 34 28  1  0  0  0  0
 36  7  1  0  0  0  0
 37  6  1  0  0  0  0
 38 32  1  0  0  0  0
 39 22  1  0  0  0  0
 40 41  1  0  0  0  0
 42 41  1  0  0  0  0
 43 45  1  0  0  0  0
 43 40  1  0  0  0  0
 44 43  2  0  0  0  0
 45 42  1  0  0  0  0
 46 42  1  0  0  0  0
 48 47  1  0  0  0  0
M  END
>  <MODEL>
1

>  <REMARK>
 VINA RESULT:       6.6      0.000      0.000
  Name = 
  2 active torsions:
  status: ('A' for Active; 'I' for Inactive)
    1  A    between atoms: C_2  and  N_4
    2  A    between atoms: C_5  and  C_45
                            x       y       z     vdW  Elec       q    Type
                         _______ _______ _______ _____ _____    ______ ____

>  <TORSDO>
F 2

$$$$
=
 OpenBabel11072412593D

 48 55  0  0  1  0  0  0  0  0999 V2000
  162.3640  209.0460  147.8990 C   0  0  0  0  0  2  0  0  0  0  0  0
  161.0080  211.7980  139.0690 C   0  0  1  0  0  3  0  0  0  0  0  0
  160.2450  204.8020  145.7900 C   0  0  2  0  0  3  0  0  0  0  0  0
  161.9130  206.5790  148.5220 C   0  0  2  0  0  0  0  0  0  0  0  0
  161.0040  202.3460  145.6070 C   0  0  0  0  0  2  0  0  0  0  0  0
  162.2320  205.6030  147.3770 C   0  0  2  0  0  3  0  0  0  0  0  0
  161.8840  206.6280  141.4630 C   0  0  0  0  0  2  0  0  0  0  0  0
  162.5480  208.8700  140.9480 O   0  0  0  0  0  0  0  0  0  0  0  0
  160.3730  212.1430  141.8670 C   0  0  2  0  0  3  0  0  0  0  0  0
  160.3900  203.4360  146.5040 C   0  0  1  0  0  3  0  0  0  0  0  0
  161.4850  205.1600  144.9460 C   0  0  1  0  0  3  0  0  0  0  0  0
  160.2260  211.9310  146.4840 C   0  0  1  0  0  3  0  0  0  0  0  0
  161.0470  200.3690  147.2440 C   0  0  0  0  0  2  0  0  0  0  0  0
  161.3580  207.8820  147.8980 C   0  0  2  0  0  3  0  0  0  0  0  0
  159.8680  211.3100  144.7930 S   0  0  0  0  0  0  0  0  0  0  0  0
  161.8990  210.2280  147.0990 C   0  0  0  0  0  3  0  0  0  0  0  0
  160.4280  200.9760  145.9730 C   0  0  0  0  0  2  0  0  0  0  0  0
  161.0760  205.9570  143.7170 C   0  0  0  0  0  2  0  0  0  0  0  0
  161.8670  201.3110  148.0000 N   0  0  0  0  0  2  0  0  0  0  0  0
  158.8420  213.8450  141.0820 O   0  0  0  0  0  0  0  0  0  0  0  0
  161.1290  210.7350  140.1890 C   0  0  2  0  0  3  0  0  0  0  0  0
  159.7270  212.9920  140.7870 C   0  0  0  0  0  0  0  0  0  0  0  0
  160.7260  210.8090  147.3330 C   0  0  0  0  0  3  0  0  0  0  0  0
  160.8470  213.0130  142.9270 N   0  0  0  0  0  0  0  0  0  0  0  0
  161.4720  211.3840  141.3900 O   0  0  0  0  0  0  0  0  0  0  0  0
  161.2130  213.5800  145.1860 N   0  0  0  0  0  2  0  0  0  0  0  0
  160.6660  212.7560  144.1860 C   0  0  0  0  0  0  0  0  0  0  0  0
  162.1550  209.6500  139.8390 C   0  0  2  0  0  3  0  0  0  0  0  0
  161.1990  213.0330  146.4680 N   0  0  0  0  0  2  0  0  0  0  0  0
  163.0930  206.8130  149.2340 O   0  0  0  0  0  1  0  0  0  0  0  0
  162.3010  206.2500  142.8780 C   0  0  0  0  0  2  0  0  0  0  0  0
  160.9850  203.5590  147.8490 N   0  0  1  0  0  0  0  0  0  0  0  0
  160.5960  207.5620  146.2570 S   0  0  0  0  0  0  0  0  0  0  0  0
  161.7010  208.8040  138.6570 C   0  0  0  0  0  1  0  0  0  0  0  0
  160.9730  202.3000  148.6000 C   0  0  0  0  0  2  0  0  0  0  0  0
  161.4620  208.0920  141.3910 C   0  0  0  0  0  2  0  0  0  0  0  0
  161.2390  205.8740  146.2600 C   0  0  1  0  0  0  0  0  0  0  0  0
  162.3280  204.1290  147.7860 C   0  0  0  0  0  2  0  0  0  0  0  0
  160.0090  212.7380  139.4480 O   0  0  0  0  0  0  0  0  0  0  0  0
  162.2740  212.4950  138.8060 N   0  0  0  0  0  0  0  0  0  0  0  0
  163.3620  212.6010  139.7640 C   0  0  0  0  0  2  0  0  0  0  0  0
  164.1500  213.8610  139.3900 C   0  0  2  0  0  3  0  0  0  0  0  0
  162.3840  213.5540  137.8780 C   0  0  0  0  0  0  0  0  0  0  0  0
  161.5070  213.8050  137.0110 O   0  0  0  0  0  0  0  0  0  0  0  0
  163.5790  214.3930  138.0780 C   0  0  0  0  0  2  0  0  0  0  0  0
  165.4970  213.5680  139.2490 F   0  0  0  0  0  0  0  0  0  0  0  0
  161.3260  205.9190  150.9130 C   0  0  0  0  0  1  0  0  0  0  0  0
  160.8500  206.0140  149.4670 C   0  0  0  0  0  2  0  0  0  0  0  0
  2 40  1  1  0  0  0
  2 39  1  0  0  0  0
  2 21  1  0  0  0  0
  3 37  1  0  0  0  0
  3 10  1  0  0  0  0
  4 30  1  0  0  0  0
  4 48  1  0  0  0  0
  5 17  1  0  0  0  0
  5 10  1  0  0  0  0
  6 38  1  0  0  0  0
  6  4  1  0  0  0  0
  7 31  1  0  0  0  0
  8 36  1  0  0  0  0
  9 24  1  0  0  0  0
 10 32  1  0  0  0  0
 11  3  1  0  0  0  0
 11 37  1  0  0  0  0
 12 23  1  0  0  0  0
 13 19  1  0  0  0  0
 14  1  1  0  0  0  0
 14  4  1  0  0  0  0
 15 12  1  0  0  0  0
 16 23  2  0  0  0  0
 16  1  1  0  0  0  0
 17 13  1  0  0  0  0
 18 11  1  0  0  0  0
 19 35  1  0  0  0  0
 21 25  1  0  0  0  0
 22 20  2  0  0  0  0
 22  9  1  0  0  0  0
 24 27  2  0  0  0  0
 25  9  1  0  0  0  0
 26 29  1  0  0  0  0
 27 15  1  0  0  0  0
 27 26  1  0  0  0  0
 28 21  1  0  0  0  0
 28  8  1  0  0  0  0
 29 12  1  0  0  0  0
 31 18  1  0  0  0  0
 32 35  1  0  0  0  0
 33 37  1  0  0  0  0
 33 14  1  0  0  0  0
 34 28  1  0  0  0  0
 36  7  1  0  0  0  0
 37  6  1  0  0  0  0
 38 32  1  0  0  0  0
 39 22  1  0  0  0  0
 40 41  1  0  0  0  0
 42 41  1  0  0  0  0
 43 45  1  0  0  0  0
 43 40  1  0  0  0  0
 44 43  2  0  0  0  0
 45 42  1  0  0  0  0
 46 42  1  0  0  0  0
 48 47  1  0  0  0  0
M  END
>  <MODEL>
2

>  <REMARK>
 VINA RESULT:       6.8      1.409      1.626
  Name = 
  2 active torsions:
  status: ('A' for Active; 'I' for Inactive)
    1  A    between atoms: C_2  and  N_4
    2  A    between atoms: C_5  and  C_45
                            x       y       z     vdW  Elec       q    Type
                         _______ _______ _______ _____ _____    ______ ____

>  <TORSDO>
F 2

$$$$
