=
 OpenBabel11072409483D

 49 54  0  0  1  0  0  0  0  0999 V2000
  160.5740  209.4240  152.7670 C   0  0  2  0  0  3  0  0  0  0  0  0
  161.4230  206.6040  156.1230 O   0  0  0  0  0  0  0  0  0  0  0  0
  161.8490  210.3320  150.7520 C   0  0  2  0  0  0  0  0  0  0  0  0
  161.8110  209.7480  155.0830 C   0  0  0  0  0  0  0  0  0  0  0  0
  161.0140  211.5450  153.7960 O   0  0  0  0  0  1  0  0  0  0  0  0
  162.8170  210.2670  155.7910 C   0  0  0  0  0  2  0  0  0  0  0  0
  159.7970  208.2080  153.3000 C   0  0  0  0  0  2  0  0  0  0  0  0
  162.7060  211.0550  151.8070 C   0  0  0  0  0  2  0  0  0  0  0  0
  161.0050  207.4620  155.3580 C   0  0  0  0  0  0  0  0  0  0  0  0
  160.8570  208.8710  155.8290 C   0  0  0  0  0  2  0  0  0  0  0  0
  161.1300  209.1300  151.3740 C   0  0  0  0  0  2  0  0  0  0  0  0
  161.5580  210.2560  153.6640 C   0  0  2  0  0  0  0  0  0  0  0  0
  162.8220  210.3260  153.0130 O   0  0  0  0  0  0  0  0  0  0  0  0
  160.6320  207.0970  153.9560 C   0  0  2  0  0  3  0  0  0  0  0  0
  162.0570  209.0120  148.5770 C   0  0  0  0  0  1  0  0  0  0  0  0
  162.7820  209.8260  149.6460 C   0  0  0  0  0  2  0  0  0  0  0  0
  161.8050  205.9450  152.1210 N   0  0  0  0  0  0  0  0  0  0  0  0
  161.8520  206.7070  153.1610 C   0  0  0  0  0  3  0  0  0  0  0  0
  160.5810  205.3650  151.6170 C   0  0  2  0  0  3  0  0  0  0  0  0
  162.0420  203.3970  151.7320 N   0  0  0  0  0  2  0  0  0  0  0  0
  160.8590  201.6280  150.1330 S   0  0  0  0  0  0  0  0  0  0  0  0
  162.0110  201.9630  151.4980 C   0  0  0  0  0  2  0  0  0  0  0  0
  160.6590  203.8370  151.6640 C   0  0  2  0  0  3  0  0  0  0  0  0
  160.0320  203.2180  150.4280 C   0  0  0  0  0  2  0  0  0  0  0  0
  160.3720  205.8060  150.2460 N   0  0  0  0  0  2  0  0  0  0  0  0
  161.6430  205.6520  149.5590 C   0  0  0  0  0  2  0  0  0  0  0  0
  161.3940  205.2990  148.1060 C   0  0  0  0  0  2  0  0  0  0  0  0
  162.2970  205.8090  145.7320 C   0  0  1  0  0  3  0  0  0  0  0  0
  162.5370  205.8320  147.2520 C   0  0  2  0  0  3  0  0  0  0  0  0
  163.0950  204.7060  146.4080 C   0  0  0  0  0  2  0  0  0  0  0  0
  160.9410  205.3180  145.3050 C   0  0  0  0  0  0  0  0  0  0  0  0
  160.7810  204.1250  144.9310 O   0  0  0  0  0  0  0  0  0  0  0  0
  159.8700  206.2000  145.2680 O   0  0  0  0  0  1  0  0  0  0  0  0
  160.7960  211.3120  150.2130 C   0  0  0  0  0  2  0  0  0  0  0  0
  160.7390  213.7590  150.0230 O   0  0  0  0  0  0  0  0  0  0  0  0
  161.4250  212.4950  148.1660 O   0  0  0  0  0  0  0  0  0  0  0  0
  161.4010  212.5810  149.5950 C   0  0  2  0  0  3  0  0  0  0  0  0
  160.4100  213.0520  147.3770 C   0  0  0  0  0  0  0  0  0  0  0  0
  159.4410  213.7340  147.9920 C   0  0  0  0  0  3  0  0  0  0  0  0
  159.4280  213.7800  149.4910 C   0  0  0  0  0  2  0  0  0  0  0  0
  160.5200  212.6740  143.0820 C   0  0  0  0  0  3  0  0  0  0  0  0
  161.6550  213.0570  145.1830 C   0  0  0  0  0  0  0  0  0  0  0  0
  159.2540  212.6260  145.1570 C   0  0  0  0  0  0  0  0  0  0  0  0
  162.8180  213.3490  145.8220 F   0  0  0  0  0  0  0  0  0  0  0  0
  161.6870  212.9420  143.7930 C   0  0  0  0  0  3  0  0  0  0  0  0
  159.3140  212.5180  143.7590 C   0  0  0  0  0  3  0  0  0  0  0  0
  160.4390  212.9020  145.8930 C   0  0  0  0  0  0  0  0  0  0  0  0
  157.9560  212.4160  145.8270 C   0  0  0  0  0  3  0  0  0  0  0  0
  157.0570  213.3440  145.8800 N   0  0  0  0  0  2  0  0  0  0  0  0
  1 11  1  6  0  0  0
  1  7  1  0  0  0  0
  1 12  1  0  0  0  0
  3 16  1  6  0  0  0
  3 11  1  0  0  0  0
  3  8  1  0  0  0  0
  4  6  2  0  0  0  0
  4 10  1  0  0  0  0
  7 14  1  0  0  0  0
  8 13  1  0  0  0  0
  9 10  1  0  0  0  0
  9  2  2  0  0  0  0
 12  5  1  1  0  0  0
 12  4  1  0  0  0  0
 13 12  1  0  0  0  0
 14 18  1  6  0  0  0
 14  9  1  0  0  0  0
 15 16  1  0  0  0  0
 17 18  2  0  0  0  0
 19 25  1  6  0  0  0
 19 17  1  0  0  0  0
 21 24  1  0  0  0  0
 21 22  1  0  0  0  0
 22 20  1  0  0  0  0
 23 19  1  6  0  0  0
 23 20  1  0  0  0  0
 24 23  1  0  0  0  0
 26 25  1  0  0  0  0
 27 26  1  0  0  0  0
 28 31  1  1  0  0  0
 28 30  1  0  0  0  0
 28 29  1  0  0  0  0
 29 27  1  1  0  0  0
 30 29  1  0  0  0  0
 32 31  2  0  0  0  0
 33 31  1  0  0  0  0
 34  3  1  0  0  0  0
 36 37  1  0  0  0  0
 37 35  1  0  0  0  0
 37 34  1  1  0  0  0
 38 39  2  0  0  0  0
 38 36  1  0  0  0  0
 39 40  1  0  0  0  0
 40 35  1  0  0  0  0
 41 46  2  0  0  0  0
 41 45  1  0  0  0  0
 42 44  1  0  0  0  0
 42 47  1  0  0  0  0
 43 48  1  0  0  0  0
 43 47  2  0  0  0  0
 45 42  2  0  0  0  0
 46 43  1  0  0  0  0
 47 38  1  0  0  0  0
 48 49  2  0  0  0  0
M  END
>  <MODEL>
1

>  <REMARK>
 VINA RESULT:      -3.7      0.000      0.000
  Name = 
  13 active torsions:
  status: ('A' for Active; 'I' for Inactive)
    1  A    between atoms: N_6  and  C_32
    2  A    between atoms: C_7  and  C_28
    3  A    between atoms: C_7  and  C_45
    4  A    between atoms: C_8  and  C_20
    5  A    between atoms: C_14  and  C_35
    6  A    between atoms: C_16  and  N_42
    7  A    between atoms: C_16  and  C_48
    8  A    between atoms: C_17  and  C_28
    9  A    between atoms: C_22  and  C_48
   10  A    between atoms: C_26  and  C_47
   11  A    between atoms: C_30  and  C_32
   12  A    between atoms: C_31  and  C_49
   13  A    between atoms: C_32  and  N_42
                            x       y       z     vdW  Elec       q    Type
                         _______ _______ _______ _____ _____    ______ ____

>  <TORSDO>
F 13

$$$$
=
 OpenBabel11072409483D

 49 54  0  0  1  0  0  0  0  0999 V2000
  160.1590  209.1530  153.8720 C   0  0  2  0  0  3  0  0  0  0  0  0
  161.2930  206.1690  156.9940 O   0  0  0  0  0  0  0  0  0  0  0  0
  161.3390  210.3620  151.9600 C   0  0  2  0  0  0  0  0  0  0  0  0
  161.3380  209.4130  156.2260 C   0  0  0  0  0  0  0  0  0  0  0  0
  160.3560  211.2140  155.0810 O   0  0  0  0  0  1  0  0  0  0  0  0
  162.2760  209.9770  156.9900 C   0  0  0  0  0  2  0  0  0  0  0  0
  159.5180  207.8180  154.2890 C   0  0  0  0  0  2  0  0  0  0  0  0
  162.1050  211.0830  153.0840 C   0  0  0  0  0  2  0  0  0  0  0  0
  160.7870  207.0380  156.2960 C   0  0  0  0  0  0  0  0  0  0  0  0
  160.4820  208.3770  156.8810 C   0  0  0  0  0  2  0  0  0  0  0  0
  160.7540  209.0410  152.4680 C   0  0  0  0  0  2  0  0  0  0  0  0
  161.0390  210.0090  154.8500 C   0  0  2  0  0  0  0  0  0  0  0  0
  162.2920  210.2710  154.2270 O   0  0  0  0  0  0  0  0  0  0  0  0
  160.4660  206.7540  154.8630 C   0  0  2  0  0  3  0  0  0  0  0  0
  161.6620  209.4650  149.5910 C   0  0  0  0  0  1  0  0  0  0  0  0
  162.3300  210.0570  150.8300 C   0  0  0  0  0  2  0  0  0  0  0  0
  161.7630  205.9330  152.9360 N   0  0  0  0  0  0  0  0  0  0  0  0
  161.7270  206.5680  154.0580 C   0  0  0  0  0  3  0  0  0  0  0  0
  160.6030  205.3100  152.3390 C   0  0  2  0  0  3  0  0  0  0  0  0
  162.2230  203.5080  151.9440 N   0  0  0  0  0  2  0  0  0  0  0  0
  160.8900  201.7730  150.4290 S   0  0  0  0  0  0  0  0  0  0  0  0
  162.2680  202.1070  151.5650 C   0  0  0  0  0  2  0  0  0  0  0  0
  160.8220  203.8010  152.2020 C   0  0  2  0  0  3  0  0  0  0  0  0
  160.0080  203.2310  151.0550 C   0  0  0  0  0  2  0  0  0  0  0  0
  160.3680  205.8950  151.0280 N   0  0  0  0  0  2  0  0  0  0  0  0
  161.6520  205.9320  150.3490 C   0  0  0  0  0  2  0  0  0  0  0  0
  161.5330  205.2510  149.0010 C   0  0  0  0  0  2  0  0  0  0  0  0
  161.1940  205.9290  146.5230 C   0  0  1  0  0  3  0  0  0  0  0  0
  160.8870  206.2070  148.0060 C   0  0  2  0  0  3  0  0  0  0  0  0
  161.9710  206.9870  147.2900 C   0  0  0  0  0  2  0  0  0  0  0  0
  162.0410  204.7130  146.2620 C   0  0  0  0  0  0  0  0  0  0  0  0
  163.2960  204.8090  146.2030 O   0  0  0  0  0  1  0  0  0  0  0  0
  161.4320  203.4880  146.0270 O   0  0  0  0  0  0  0  0  0  0  0  0
  160.1890  211.2630  151.4870 C   0  0  0  0  0  2  0  0  0  0  0  0
  159.6860  213.6630  151.6200 O   0  0  0  0  0  0  0  0  0  0  0  0
  160.9010  212.8600  149.7770 O   0  0  0  0  0  0  0  0  0  0  0  0
  160.6260  212.7000  151.1720 C   0  0  2  0  0  3  0  0  0  0  0  0
  159.9400  213.3620  148.8900 C   0  0  0  0  0  0  0  0  0  0  0  0
  158.7690  213.7590  149.3920 C   0  0  0  0  0  3  0  0  0  0  0  0
  158.5020  213.5510  150.8530 C   0  0  0  0  0  2  0  0  0  0  0  0
  160.7710  213.6270  144.6650 C   0  0  0  0  0  3  0  0  0  0  0  0
  159.1880  213.6100  146.4940 C   0  0  0  0  0  0  0  0  0  0  0  0
  161.5770  213.4110  146.9480 C   0  0  0  0  0  0  0  0  0  0  0  0
  157.8890  213.6450  146.8860 F   0  0  0  0  0  0  0  0  0  0  0  0
  159.4580  213.6870  145.1270 C   0  0  0  0  0  3  0  0  0  0  0  0
  161.8200  213.4890  145.5690 C   0  0  0  0  0  3  0  0  0  0  0  0
  160.2410  213.4700  147.4320 C   0  0  0  0  0  0  0  0  0  0  0  0
  162.7290  213.3020  147.8650 C   0  0  0  0  0  3  0  0  0  0  0  0
  163.5310  212.2870  147.8350 N   0  0  0  0  0  2  0  0  0  0  0  0
  1 11  1  6  0  0  0
  1  7  1  0  0  0  0
  1 12  1  0  0  0  0
  3 16  1  6  0  0  0
  3 11  1  0  0  0  0
  3  8  1  0  0  0  0
  4 10  1  0  0  0  0
  4  6  2  0  0  0  0
  7 14  1  0  0  0  0
  8 13  1  0  0  0  0
  9 10  1  0  0  0  0
  9  2  2  0  0  0  0
 12  5  1  1  0  0  0
 12  4  1  0  0  0  0
 13 12  1  0  0  0  0
 14 18  1  6  0  0  0
 14  9  1  0  0  0  0
 15 16  1  0  0  0  0
 17 18  2  0  0  0  0
 19 25  1  6  0  0  0
 19 17  1  0  0  0  0
 20 23  1  0  0  0  0
 21 24  1  0  0  0  0
 21 22  1  0  0  0  0
 22 20  1  0  0  0  0
 23 19  1  6  0  0  0
 24 23  1  0  0  0  0
 26 25  1  0  0  0  0
 27 26  1  0  0  0  0
 28 31  1  1  0  0  0
 28 30  1  0  0  0  0
 28 29  1  0  0  0  0
 29 27  1  1  0  0  0
 30 29  1  0  0  0  0
 32 31  1  0  0  0  0
 33 31  2  0  0  0  0
 34  3  1  0  0  0  0
 36 37  1  0  0  0  0
 37 34  1  6  0  0  0
 37 35  1  0  0  0  0
 38 39  2  0  0  0  0
 38 36  1  0  0  0  0
 39 40  1  0  0  0  0
 40 35  1  0  0  0  0
 41 45  2  0  0  0  0
 41 46  1  0  0  0  0
 42 44  1  0  0  0  0
 42 47  2  0  0  0  0
 43 47  1  0  0  0  0
 43 48  1  0  0  0  0
 45 42  1  0  0  0  0
 46 43  2  0  0  0  0
 47 38  1  0  0  0  0
 49 48  2  0  0  0  0
M  END
>  <MODEL>
2

>  <REMARK>
 VINA RESULT:      -3.4      1.702      2.140
  Name = 
  13 active torsions:
  status: ('A' for Active; 'I' for Inactive)
    1  A    between atoms: N_6  and  C_32
    2  A    between atoms: C_7  and  C_28
    3  A    between atoms: C_7  and  C_45
    4  A    between atoms: C_8  and  C_20
    5  A    between atoms: C_14  and  C_35
    6  A    between atoms: C_16  and  N_42
    7  A    between atoms: C_16  and  C_48
    8  A    between atoms: C_17  and  C_28
    9  A    between atoms: C_22  and  C_48
   10  A    between atoms: C_26  and  C_47
   11  A    between atoms: C_30  and  C_32
   12  A    between atoms: C_31  and  C_49
   13  A    between atoms: C_32  and  N_42
                            x       y       z     vdW  Elec       q    Type
                         _______ _______ _______ _____ _____    ______ ____

>  <TORSDO>
F 13

$$$$
=
 OpenBabel11072409483D

 49 54  0  0  1  0  0  0  0  0999 V2000
  159.6000  209.6710  154.2860 C   0  0  2  0  0  3  0  0  0  0  0  0
  162.3970  206.9840  152.0740 O   0  0  0  0  0  0  0  0  0  0  0  0
  159.8050  211.7730  155.7170 C   0  0  2  0  0  0  0  0  0  0  0  0
  161.1170  207.6540  155.0780 C   0  0  0  0  0  0  0  0  0  0  0  0
  159.3280  208.4860  156.3530 O   0  0  0  0  0  1  0  0  0  0  0  0
  161.9440  207.1160  155.9780 C   0  0  0  0  0  2  0  0  0  0  0  0
  159.5840  209.1510  152.8380 C   0  0  0  0  0  2  0  0  0  0  0  0
  160.5030  210.8410  156.7240 C   0  0  0  0  0  2  0  0  0  0  0  0
  161.4710  207.5200  152.6680 C   0  0  0  0  0  0  0  0  0  0  0  0
  160.8560  206.8440  153.8490 C   0  0  0  0  0  2  0  0  0  0  0  0
  159.8560  211.1780  154.3060 C   0  0  0  0  0  2  0  0  0  0  0  0
  160.3200  208.9040  155.4510 C   0  0  2  0  0  0  0  0  0  0  0  0
  161.2210  209.7970  156.0970 O   0  0  0  0  0  0  0  0  0  0  0  0
  160.9520  208.8440  152.2070 C   0  0  2  0  0  3  0  0  0  0  0  0
  160.3970  213.8890  157.0160 C   0  0  0  0  0  1  0  0  0  0  0  0
  160.5520  213.1120  155.7110 C   0  0  0  0  0  2  0  0  0  0  0  0
  162.6040  210.5140  151.4640 N   0  0  0  0  0  0  0  0  0  0  0  0
  161.9760  209.9280  152.4270 C   0  0  0  0  0  3  0  0  0  0  0  0
  162.4100  210.1800  150.0710 C   0  0  2  0  0  3  0  0  0  0  0  0
  162.2790  211.7750  148.2090 N   0  0  0  0  0  2  0  0  0  0  0  0
  161.1200  213.9160  149.2830 S   0  0  0  0  0  0  0  0  0  0  0  0
  161.5450  212.9580  147.7990 C   0  0  0  0  0  2  0  0  0  0  0  0
  161.5800  211.2630  149.3760 C   0  0  2  0  0  3  0  0  0  0  0  0
  161.3100  212.4300  150.3080 C   0  0  0  0  0  2  0  0  0  0  0  0
  161.7250  208.8990  149.9780 N   0  0  0  0  0  2  0  0  0  0  0  0
  161.8170  208.4760  148.5910 C   0  0  0  0  0  2  0  0  0  0  0  0
  162.5950  207.1780  148.5080 C   0  0  0  0  0  2  0  0  0  0  0  0
  161.3810  205.0310  147.7120 C   0  0  1  0  0  3  0  0  0  0  0  0
  161.6770  206.0140  148.8600 C   0  0  2  0  0  3  0  0  0  0  0  0
  160.3940  206.1320  148.0640 C   0  0  0  0  0  2  0  0  0  0  0  0
  162.0890  205.3260  146.4190 C   0  0  0  0  0  0  0  0  0  0  0  0
  161.4990  205.9430  145.4920 O   0  0  0  0  0  0  0  0  0  0  0  0
  163.3840  204.8640  146.2220 O   0  0  0  0  0  1  0  0  0  0  0  0
  158.3350  211.9370  156.1310 C   0  0  0  0  0  2  0  0  0  0  0  0
  156.6730  213.6210  156.7860 O   0  0  0  0  0  0  0  0  0  0  0  0
  157.5490  213.6820  154.6080 O   0  0  0  0  0  0  0  0  0  0  0  0
  157.8120  213.3720  155.9800 C   0  0  2  0  0  3  0  0  0  0  0  0
  156.2660  213.5620  154.0580 C   0  0  0  0  0  0  0  0  0  0  0  0
  155.2660  213.2140  154.8710 C   0  0  0  0  0  3  0  0  0  0  0  0
  155.5800  212.8680  156.2960 C   0  0  0  0  0  2  0  0  0  0  0  0
  155.5500  214.3390  149.8760 C   0  0  0  0  0  3  0  0  0  0  0  0
  154.7440  214.2080  152.1530 C   0  0  0  0  0  0  0  0  0  0  0  0
  157.0870  213.7350  151.6610 C   0  0  0  0  0  0  0  0  0  0  0  0
  153.6900  214.3040  153.0030 F   0  0  0  0  0  0  0  0  0  0  0  0
  154.5130  214.4510  150.7980 C   0  0  0  0  0  3  0  0  0  0  0  0
  156.8260  213.9830  150.3050 C   0  0  0  0  0  3  0  0  0  0  0  0
  156.0340  213.8450  152.6120 C   0  0  0  0  0  0  0  0  0  0  0  0
  158.4650  213.3970  152.0660 C   0  0  0  0  0  3  0  0  0  0  0  0
  159.3000  214.3000  152.4680 N   0  0  0  0  0  2  0  0  0  0  0  0
  1  7  1  6  0  0  0
  1 11  1  0  0  0  0
  1 12  1  0  0  0  0
  2  9  2  0  0  0  0
  3 16  1  1  0  0  0
  3 34  1  0  0  0  0
  3  8  1  0  0  0  0
  4 12  1  0  0  0  0
  4  6  2  0  0  0  0
  9 10  1  0  0  0  0
 10  4  1  0  0  0  0
 11  3  1  0  0  0  0
 12 13  1  0  0  0  0
 12  5  1  1  0  0  0
 13  8  1  0  0  0  0
 14 18  1  1  0  0  0
 14  9  1  0  0  0  0
 14  7  1  0  0  0  0
 16 15  1  0  0  0  0
 17 18  2  0  0  0  0
 19 25  1  1  0  0  0
 19 17  1  0  0  0  0
 20 23  1  0  0  0  0
 21 24  1  0  0  0  0
 22 20  1  0  0  0  0
 22 21  1  0  0  0  0
 23 19  1  1  0  0  0
 23 24  1  0  0  0  0
 26 25  1  0  0  0  0
 27 26  1  0  0  0  0
 28 31  1  6  0  0  0
 28 30  1  0  0  0  0
 28 29  1  0  0  0  0
 29 27  1  6  0  0  0
 30 29  1  0  0  0  0
 32 31  2  0  0  0  0
 33 31  1  0  0  0  0
 36 37  1  0  0  0  0
 37 34  1  6  0  0  0
 37 35  1  0  0  0  0
 38 36  1  0  0  0  0
 38 39  2  0  0  0  0
 39 40  1  0  0  0  0
 40 35  1  0  0  0  0
 41 46  2  0  0  0  0
 41 45  1  0  0  0  0
 42 47  1  0  0  0  0
 42 44  1  0  0  0  0
 43 48  1  0  0  0  0
 43 47  2  0  0  0  0
 45 42  2  0  0  0  0
 46 43  1  0  0  0  0
 47 38  1  0  0  0  0
 48 49  2  0  0  0  0
M  END
>  <MODEL>
3

>  <REMARK>
 VINA RESULT:      -2.9      4.168      6.449
  Name = 
  13 active torsions:
  status: ('A' for Active; 'I' for Inactive)
    1  A    between atoms: N_6  and  C_32
    2  A    between atoms: C_7  and  C_28
    3  A    between atoms: C_7  and  C_45
    4  A    between atoms: C_8  and  C_20
    5  A    between atoms: C_14  and  C_35
    6  A    between atoms: C_16  and  N_42
    7  A    between atoms: C_16  and  C_48
    8  A    between atoms: C_17  and  C_28
    9  A    between atoms: C_22  and  C_48
   10  A    between atoms: C_26  and  C_47
   11  A    between atoms: C_30  and  C_32
   12  A    between atoms: C_31  and  C_49
   13  A    between atoms: C_32  and  N_42
                            x       y       z     vdW  Elec       q    Type
                         _______ _______ _______ _____ _____    ______ ____

>  <TORSDO>
F 13

$$$$
=
 OpenBabel11072409483D

 49 54  0  0  1  0  0  0  0  0999 V2000
  160.4690  205.8040  151.2900 C   0  0  2  0  0  3  0  0  0  0  0  0
  161.5130  202.7730  148.1820 O   0  0  0  0  0  0  0  0  0  0  0  0
  161.7250  207.5570  152.6530 C   0  0  2  0  0  0  0  0  0  0  0  0
  161.4670  203.3600  151.4640 C   0  0  0  0  0  0  0  0  0  0  0  0
  160.4880  204.4740  153.2860 O   0  0  0  0  0  1  0  0  0  0  0  0
  162.3230  202.5000  152.0210 C   0  0  0  0  0  2  0  0  0  0  0  0
  159.8600  205.5070  149.9090 C   0  0  0  0  0  2  0  0  0  0  0  0
  162.3770  206.3430  153.3400 C   0  0  0  0  0  2  0  0  0  0  0  0
  161.0190  203.4580  149.0680 C   0  0  0  0  0  0  0  0  0  0  0  0
  160.6140  202.8250  150.3580 C   0  0  0  0  0  2  0  0  0  0  0  0
  161.1650  207.1650  151.2820 C   0  0  0  0  0  2  0  0  0  0  0  0
  161.2390  204.7190  152.1240 C   0  0  2  0  0  0  0  0  0  0  0  0
  162.5200  205.2350  152.4720 O   0  0  0  0  0  0  0  0  0  0  0  0
  160.8120  204.9230  148.8530 C   0  0  2  0  0  3  0  0  0  0  0  0
  162.2830  209.8820  151.7590 C   0  0  0  0  0  1  0  0  0  0  0  0
  162.8050  208.6270  152.4530 C   0  0  0  0  0  2  0  0  0  0  0  0
  162.3070  206.7220  148.0770 N   0  0  0  0  0  0  0  0  0  0  0  0
  162.1330  205.6440  148.7650 C   0  0  0  0  0  3  0  0  0  0  0  0
  161.2600  207.3430  147.2980 C   0  0  2  0  0  3  0  0  0  0  0  0
  159.9130  205.9130  145.8270 N   0  0  0  0  0  2  0  0  0  0  0  0
  161.7160  204.4160  144.5660 S   0  0  0  0  0  0  0  0  0  0  0  0
  160.0390  205.1120  144.6220 C   0  0  0  0  0  2  0  0  0  0  0  0
  161.1490  206.6710  145.9270 C   0  0  2  0  0  3  0  0  0  0  0  0
  162.3030  205.7150  145.6900 C   0  0  0  0  0  2  0  0  0  0  0  0
  161.5640  208.7560  147.1300 N   0  0  0  0  0  2  0  0  0  0  0  0
  161.9480  209.2600  148.4370 C   0  0  0  0  0  2  0  0  0  0  0  0
  161.3720  210.6480  148.6360 C   0  0  0  0  0  2  0  0  0  0  0  0
  162.0340  213.1520  148.6020 C   0  0  1  0  0  3  0  0  0  0  0  0
  162.4660  211.6860  148.4240 C   0  0  2  0  0  3  0  0  0  0  0  0
  162.1220  212.5340  147.2170 C   0  0  0  0  0  2  0  0  0  0  0  0
  160.6030  213.3510  149.0210 C   0  0  0  0  0  0  0  0  0  0  0  0
  159.7050  213.5500  148.1580 O   0  0  0  0  0  0  0  0  0  0  0  0
  160.2770  213.3740  150.3700 O   0  0  0  0  0  1  0  0  0  0  0  0
  160.5710  208.0620  153.5330 C   0  0  0  0  0  2  0  0  0  0  0  0
  161.1760  208.5210  155.8670 O   0  0  0  0  0  0  0  0  0  0  0  0
  160.0970  210.1980  154.6260 O   0  0  0  0  0  0  0  0  0  0  0  0
  161.0070  209.0940  154.5810 C   0  0  2  0  0  3  0  0  0  0  0  0
  159.0530  210.2540  155.5590 C   0  0  0  0  0  0  0  0  0  0  0  0
  158.9660  209.2760  156.4620 C   0  0  0  0  0  3  0  0  0  0  0  0
  159.9160  208.1190  156.3700 C   0  0  0  0  0  2  0  0  0  0  0  0
  156.2510  213.5330  155.4690 C   0  0  0  0  0  3  0  0  0  0  0  0
  156.7170  211.1670  155.2810 C   0  0  0  0  0  0  0  0  0  0  0  0
  158.5250  212.7290  155.7770 C   0  0  0  0  0  0  0  0  0  0  0  0
  156.2410  209.9210  155.0260 F   0  0  0  0  0  0  0  0  0  0  0  0
  155.8140  212.2300  155.2450 C   0  0  0  0  0  3  0  0  0  0  0  0
  157.5960  213.7790  155.7320 C   0  0  0  0  0  3  0  0  0  0  0  0
  158.0900  211.3940  155.5470 C   0  0  0  0  0  0  0  0  0  0  0  0
  159.9320  213.0420  156.0950 C   0  0  0  0  0  3  0  0  0  0  0  0
  160.2560  214.0560  156.8300 N   0  0  0  0  0  2  0  0  0  0  0  0
  1  7  1  6  0  0  0
  1 12  1  0  0  0  0
  2  9  2  0  0  0  0
  3 16  1  6  0  0  0
  3  8  1  0  0  0  0
  3 34  1  0  0  0  0
  4  6  2  0  0  0  0
  4 12  1  0  0  0  0
  9 10  1  0  0  0  0
 10  4  1  0  0  0  0
 11  1  1  0  0  0  0
 11  3  1  0  0  0  0
 12 13  1  0  0  0  0
 12  5  1  1  0  0  0
 13  8  1  0  0  0  0
 14 18  1  1  0  0  0
 14  9  1  0  0  0  0
 14  7  1  0  0  0  0
 15 16  1  0  0  0  0
 17 18  2  0  0  0  0
 19 25  1  6  0  0  0
 19 17  1  0  0  0  0
 20 23  1  0  0  0  0
 21 22  1  0  0  0  0
 21 24  1  0  0  0  0
 22 20  1  0  0  0  0
 23 19  1  1  0  0  0
 24 23  1  0  0  0  0
 25 26  1  0  0  0  0
 26 27  1  0  0  0  0
 28 31  1  1  0  0  0
 29 28  1  0  0  0  0
 29 27  1  1  0  0  0
 30 29  1  0  0  0  0
 30 28  1  0  0  0  0
 31 33  1  0  0  0  0
 32 31  2  0  0  0  0
 35 40  1  0  0  0  0
 36 38  1  0  0  0  0
 37 34  1  6  0  0  0
 37 36  1  0  0  0  0
 37 35  1  0  0  0  0
 38 39  2  0  0  0  0
 40 39  1  0  0  0  0
 41 46  1  0  0  0  0
 42 47  2  0  0  0  0
 43 48  1  0  0  0  0
 44 42  1  0  0  0  0
 45 42  1  0  0  0  0
 45 41  2  0  0  0  0
 46 43  2  0  0  0  0
 47 38  1  0  0  0  0
 47 43  1  0  0  0  0
 48 49  2  0  0  0  0
M  END
>  <MODEL>
4

>  <REMARK>
 VINA RESULT:      -2.9      3.530      7.765
  Name = 
  13 active torsions:
  status: ('A' for Active; 'I' for Inactive)
    1  A    between atoms: N_6  and  C_32
    2  A    between atoms: C_7  and  C_28
    3  A    between atoms: C_7  and  C_45
    4  A    between atoms: C_8  and  C_20
    5  A    between atoms: C_14  and  C_35
    6  A    between atoms: C_16  and  N_42
    7  A    between atoms: C_16  and  C_48
    8  A    between atoms: C_17  and  C_28
    9  A    between atoms: C_22  and  C_48
   10  A    between atoms: C_26  and  C_47
   11  A    between atoms: C_30  and  C_32
   12  A    between atoms: C_31  and  C_49
   13  A    between atoms: C_32  and  N_42
                            x       y       z     vdW  Elec       q    Type
                         _______ _______ _______ _____ _____    ______ ____

>  <TORSDO>
F 13

$$$$
=
 OpenBabel11072409483D

 49 54  0  0  1  0  0  0  0  0999 V2000
  160.6860  209.2490  152.1580 C   0  0  2  0  0  3  0  0  0  0  0  0
  161.3640  206.6310  155.7110 O   0  0  0  0  0  0  0  0  0  0  0  0
  162.1190  210.2330  150.2900 C   0  0  2  0  0  0  0  0  0  0  0  0
  161.5620  209.7690  154.6000 C   0  0  0  0  0  0  0  0  0  0  0  0
  160.7640  211.4330  153.1460 O   0  0  0  0  0  1  0  0  0  0  0  0
  162.4060  210.4120  155.4100 C   0  0  0  0  0  2  0  0  0  0  0  0
  159.9730  207.9720  152.6360 C   0  0  0  0  0  2  0  0  0  0  0  0
  162.7490  211.0730  151.4160 C   0  0  0  0  0  2  0  0  0  0  0  0
  160.9650  207.4180  154.8620 C   0  0  0  0  0  0  0  0  0  0  0  0
  160.6120  208.8150  155.2510 C   0  0  0  0  0  2  0  0  0  0  0  0
  161.4500  208.9780  150.8620 C   0  0  0  0  0  2  0  0  0  0  0  0
  161.4500  210.2070  153.1400 C   0  0  2  0  0  0  0  0  0  0  0  0
  162.7760  210.3940  152.6560 O   0  0  0  0  0  0  0  0  0  0  0  0
  160.8220  206.9760  153.4410 C   0  0  2  0  0  3  0  0  0  0  0  0
  162.8810  208.5620  148.5170 C   0  0  0  0  0  1  0  0  0  0  0  0
  163.2380  209.7990  149.3360 C   0  0  0  0  0  2  0  0  0  0  0  0
  162.3240  206.0850  151.7030 N   0  0  0  0  0  0  0  0  0  0  0  0
  162.1710  206.6970  152.8280 C   0  0  0  0  0  3  0  0  0  0  0  0
  161.2210  205.5800  150.9180 C   0  0  2  0  0  3  0  0  0  0  0  0
  162.0970  203.4010  151.6340 N   0  0  0  0  0  2  0  0  0  0  0  0
  160.5240  201.6440  150.4010 S   0  0  0  0  0  0  0  0  0  0  0  0
  161.6880  202.0120  151.7460 C   0  0  0  0  0  2  0  0  0  0  0  0
  160.8850  204.1460  151.3350 C   0  0  2  0  0  3  0  0  0  0  0  0
  160.1470  203.4120  150.2300 C   0  0  0  0  0  2  0  0  0  0  0  0
  161.5840  205.6100  149.5080 N   0  0  0  0  0  2  0  0  0  0  0  0
  160.4570  206.1920  148.7990 C   0  0  0  0  0  2  0  0  0  0  0  0
  160.6260  205.9680  147.3100 C   0  0  0  0  0  2  0  0  0  0  0  0
  162.2240  204.8290  145.6180 C   0  0  1  0  0  3  0  0  0  0  0  0
  162.0050  205.3820  147.0380 C   0  0  2  0  0  3  0  0  0  0  0  0
  161.8710  203.8980  146.7660 C   0  0  0  0  0  2  0  0  0  0  0  0
  161.0630  205.0010  144.6780 C   0  0  0  0  0  0  0  0  0  0  0  0
  160.3000  204.0320  144.4200 O   0  0  0  0  0  1  0  0  0  0  0  0
  160.8640  206.2220  144.0460 O   0  0  0  0  0  0  0  0  0  0  0  0
  161.0530  211.0790  149.5780 C   0  0  0  0  0  2  0  0  0  0  0  0
  162.4540  212.7040  148.3860 O   0  0  0  0  0  0  0  0  0  0  0  0
  160.4080  212.0580  147.4320 O   0  0  0  0  0  0  0  0  0  0  0  0
  161.5210  211.6480  148.2320 C   0  0  2  0  0  3  0  0  0  0  0  0
  159.9670  213.3870  147.4080 C   0  0  0  0  0  0  0  0  0  0  0  0
  160.6600  214.2900  148.1060 C   0  0  0  0  0  3  0  0  0  0  0  0
  161.8040  213.8240  148.9570 C   0  0  0  0  0  2  0  0  0  0  0  0
  156.4830  214.4530  145.0970 C   0  0  0  0  0  3  0  0  0  0  0  0
  157.4960  213.8600  147.2120 C   0  0  0  0  0  0  0  0  0  0  0  0
  158.8770  214.0380  145.2090 C   0  0  0  0  0  0  0  0  0  0  0  0
  157.3220  213.5930  148.5330 F   0  0  0  0  0  0  0  0  0  0  0  0
  156.3690  214.1970  146.4620 C   0  0  0  0  0  3  0  0  0  0  0  0
  157.7270  214.3730  144.4770 C   0  0  0  0  0  3  0  0  0  0  0  0
  158.7720  213.7730  146.6020 C   0  0  0  0  0  0  0  0  0  0  0  0
  160.1760  214.0030  144.5080 C   0  0  0  0  0  3  0  0  0  0  0  0
  160.2550  214.0150  143.2170 N   0  0  0  0  0  2  0  0  0  0  0  0
  1 11  1  6  0  0  0
  1  7  1  0  0  0  0
  1 12  1  0  0  0  0
  3 16  1  6  0  0  0
  3 11  1  0  0  0  0
  3  8  1  0  0  0  0
  4 10  1  0  0  0  0
  4  6  2  0  0  0  0
  7 14  1  0  0  0  0
  8 13  1  0  0  0  0
  9 10  1  0  0  0  0
  9  2  2  0  0  0  0
 12  5  1  6  0  0  0
 12  4  1  0  0  0  0
 13 12  1  0  0  0  0
 14 18  1  6  0  0  0
 14  9  1  0  0  0  0
 15 16  1  0  0  0  0
 17 18  2  0  0  0  0
 19 25  1  6  0  0  0
 19 17  1  0  0  0  0
 20 22  1  0  0  0  0
 21 22  1  0  0  0  0
 23 19  1  6  0  0  0
 23 20  1  0  0  0  0
 24 21  1  0  0  0  0
 24 23  1  0  0  0  0
 26 25  1  0  0  0  0
 27 26  1  0  0  0  0
 28 31  1  6  0  0  0
 28 30  1  0  0  0  0
 28 29  1  0  0  0  0
 29 27  1  6  0  0  0
 30 29  1  0  0  0  0
 32 31  1  0  0  0  0
 33 31  2  0  0  0  0
 34  3  1  0  0  0  0
 35 40  1  0  0  0  0
 36 37  1  0  0  0  0
 37 35  1  0  0  0  0
 37 34  1  1  0  0  0
 38 36  1  0  0  0  0
 38 39  2  0  0  0  0
 39 40  1  0  0  0  0
 41 45  1  0  0  0  0
 42 44  1  0  0  0  0
 43 47  2  0  0  0  0
 45 42  2  0  0  0  0
 46 41  2  0  0  0  0
 46 43  1  0  0  0  0
 47 42  1  0  0  0  0
 47 38  1  0  0  0  0
 48 43  1  0  0  0  0
 49 48  2  0  0  0  0
M  END
>  <MODEL>
5

>  <REMARK>
 VINA RESULT:      -2.8      1.549      2.025
  Name = 
  13 active torsions:
  status: ('A' for Active; 'I' for Inactive)
    1  A    between atoms: N_6  and  C_32
    2  A    between atoms: C_7  and  C_28
    3  A    between atoms: C_7  and  C_45
    4  A    between atoms: C_8  and  C_20
    5  A    between atoms: C_14  and  C_35
    6  A    between atoms: C_16  and  N_42
    7  A    between atoms: C_16  and  C_48
    8  A    between atoms: C_17  and  C_28
    9  A    between atoms: C_22  and  C_48
   10  A    between atoms: C_26  and  C_47
   11  A    between atoms: C_30  and  C_32
   12  A    between atoms: C_31  and  C_49
   13  A    between atoms: C_32  and  N_42
                            x       y       z     vdW  Elec       q    Type
                         _______ _______ _______ _____ _____    ______ ____

>  <TORSDO>
F 13

$$$$
=
 OpenBabel11072409483D

 49 54  0  0  1  0  0  0  0  0999 V2000
  160.4150  204.8480  151.1290 C   0  0  2  0  0  3  0  0  0  0  0  0
  161.2820  201.5660  148.2280 O   0  0  0  0  0  0  0  0  0  0  0  0
  161.7320  206.7410  152.2210 C   0  0  2  0  0  0  0  0  0  0  0  0
  161.4870  202.4490  151.4370 C   0  0  0  0  0  0  0  0  0  0  0  0
  160.6310  203.7060  153.2270 O   0  0  0  0  0  1  0  0  0  0  0  0
  162.4070  201.6590  151.9960 C   0  0  0  0  0  2  0  0  0  0  0  0
  159.7040  204.4150  149.8350 C   0  0  0  0  0  2  0  0  0  0  0  0
  162.4690  205.6060  152.9570 C   0  0  0  0  0  2  0  0  0  0  0  0
  160.8440  202.3200  149.0870 C   0  0  0  0  0  0  0  0  0  0  0  0
  160.5610  201.8000  150.4580 C   0  0  0  0  0  2  0  0  0  0  0  0
  161.0730  206.2150  150.9420 C   0  0  0  0  0  2  0  0  0  0  0  0
  161.2780  203.8580  151.9900 C   0  0  2  0  0  0  0  0  0  0  0  0
  162.5690  204.4270  152.1830 O   0  0  0  0  0  0  0  0  0  0  0  0
  160.5820  203.7550  148.7610 C   0  0  2  0  0  3  0  0  0  0  0  0
  162.2010  209.2260  151.8720 C   0  0  0  0  0  1  0  0  0  0  0  0
  162.7640  207.8080  151.8370 C   0  0  0  0  0  2  0  0  0  0  0  0
  161.9420  205.5720  147.8010 N   0  0  0  0  0  0  0  0  0  0  0  0
  161.8730  204.4890  148.4990 C   0  0  0  0  0  3  0  0  0  0  0  0
  160.7940  206.1870  147.1750 C   0  0  2  0  0  3  0  0  0  0  0  0
  161.4730  204.4740  145.5520 N   0  0  0  0  0  2  0  0  0  0  0  0
  161.2150  205.6880  143.1980 S   0  0  0  0  0  0  0  0  0  0  0  0
  161.3220  204.1420  144.1460 C   0  0  0  0  0  2  0  0  0  0  0  0
  160.5370  205.5590  145.8020 C   0  0  2  0  0  3  0  0  0  0  0  0
  160.7000  206.5810  144.6920 C   0  0  0  0  0  2  0  0  0  0  0  0
  161.0390  207.6140  147.0250 N   0  0  0  0  0  2  0  0  0  0  0  0
  161.5790  208.0810  148.2900 C   0  0  0  0  0  2  0  0  0  0  0  0
  162.1180  209.4880  148.1220 C   0  0  0  0  0  2  0  0  0  0  0  0
  161.2980  211.8100  148.9260 C   0  0  1  0  0  3  0  0  0  0  0  0
  161.6440  210.3540  149.2820 C   0  0  2  0  0  3  0  0  0  0  0  0
  162.6510  211.4590  149.5230 C   0  0  0  0  0  2  0  0  0  0  0  0
  161.4190  212.1590  147.4670 C   0  0  0  0  0  0  0  0  0  0  0  0
  162.4820  212.6650  147.0160 O   0  0  0  0  0  1  0  0  0  0  0  0
  160.3320  211.9740  146.6230 O   0  0  0  0  0  0  0  0  0  0  0  0
  160.6410  207.3030  153.1440 C   0  0  0  0  0  2  0  0  0  0  0  0
  160.7410  207.3230  155.5970 O   0  0  0  0  0  0  0  0  0  0  0  0
  160.8940  209.3610  154.4410 O   0  0  0  0  0  0  0  0  0  0  0  0
  161.1940  207.9620  154.4150 C   0  0  2  0  0  3  0  0  0  0  0  0
  159.7780  209.8630  155.1230 C   0  0  0  0  0  0  0  0  0  0  0  0
  159.0280  209.0040  155.8160 C   0  0  0  0  0  3  0  0  0  0  0  0
  159.3510  207.5410  155.7450 C   0  0  0  0  0  2  0  0  0  0  0  0
  158.8970  214.0830  154.9680 C   0  0  0  0  0  3  0  0  0  0  0  0
  158.7040  211.8650  154.0250 C   0  0  0  0  0  0  0  0  0  0  0  0
  159.9380  212.2020  156.1020 C   0  0  0  0  0  0  0  0  0  0  0  0
  158.2450  211.0850  153.0110 F   0  0  0  0  0  0  0  0  0  0  0  0
  158.4260  213.2310  153.9720 C   0  0  0  0  0  3  0  0  0  0  0  0
  159.6470  213.5710  156.0230 C   0  0  0  0  0  3  0  0  0  0  0  0
  159.4650  211.3220  155.0890 C   0  0  0  0  0  0  0  0  0  0  0  0
  160.7070  211.7070  157.2610 C   0  0  0  0  0  3  0  0  0  0  0  0
  162.0010  211.6770  157.2590 N   0  0  0  0  0  2  0  0  0  0  0  0
  1  7  1  6  0  0  0
  1 12  1  0  0  0  0
  2  9  2  0  0  0  0
  3 16  1  6  0  0  0
  3  8  1  0  0  0  0
  3 34  1  0  0  0  0
  4 12  1  0  0  0  0
  4  6  2  0  0  0  0
  9 10  1  0  0  0  0
 10  4  1  0  0  0  0
 11  1  1  0  0  0  0
 11  3  1  0  0  0  0
 12 13  1  0  0  0  0
 12  5  1  1  0  0  0
 13  8  1  0  0  0  0
 14 18  1  1  0  0  0
 14  9  1  0  0  0  0
 14  7  1  0  0  0  0
 16 15  1  0  0  0  0
 17 18  2  0  0  0  0
 19 25  1  6  0  0  0
 19 17  1  0  0  0  0
 20 23  1  0  0  0  0
 21 22  1  0  0  0  0
 21 24  1  0  0  0  0
 22 20  1  0  0  0  0
 23 19  1  1  0  0  0
 24 23  1  0  0  0  0
 25 26  1  0  0  0  0
 27 26  1  0  0  0  0
 28 31  1  6  0  0  0
 28 29  1  0  0  0  0
 28 30  1  0  0  0  0
 29 27  1  6  0  0  0
 29 30  1  0  0  0  0
 32 31  1  0  0  0  0
 33 31  2  0  0  0  0
 35 40  1  0  0  0  0
 36 38  1  0  0  0  0
 37 34  1  6  0  0  0
 37 36  1  0  0  0  0
 37 35  1  0  0  0  0
 38 39  2  0  0  0  0
 40 39  1  0  0  0  0
 41 46  1  0  0  0  0
 42 47  2  0  0  0  0
 43 48  1  0  0  0  0
 44 42  1  0  0  0  0
 45 42  1  0  0  0  0
 45 41  2  0  0  0  0
 46 43  2  0  0  0  0
 47 38  1  0  0  0  0
 47 43  1  0  0  0  0
 49 48  2  0  0  0  0
M  END
>  <MODEL>
6

>  <REMARK>
 VINA RESULT:      -2.3      3.139      7.619
  Name = 
  13 active torsions:
  status: ('A' for Active; 'I' for Inactive)
    1  A    between atoms: N_6  and  C_32
    2  A    between atoms: C_7  and  C_28
    3  A    between atoms: C_7  and  C_45
    4  A    between atoms: C_8  and  C_20
    5  A    between atoms: C_14  and  C_35
    6  A    between atoms: C_16  and  N_42
    7  A    between atoms: C_16  and  C_48
    8  A    between atoms: C_17  and  C_28
    9  A    between atoms: C_22  and  C_48
   10  A    between atoms: C_26  and  C_47
   11  A    between atoms: C_30  and  C_32
   12  A    between atoms: C_31  and  C_49
   13  A    between atoms: C_32  and  N_42
                            x       y       z     vdW  Elec       q    Type
                         _______ _______ _______ _____ _____    ______ ____

>  <TORSDO>
F 13

$$$$
=
 OpenBabel11072409483D

 49 54  0  0  1  0  0  0  0  0999 V2000
  161.7450  209.0450  153.6800 C   0  0  2  0  0  3  0  0  0  0  0  0
  159.6350  212.3880  155.7560 O   0  0  0  0  0  0  0  0  0  0  0  0
  161.0750  206.8520  152.5620 C   0  0  2  0  0  0  0  0  0  0  0  0
  160.8740  209.3200  156.1630 C   0  0  0  0  0  0  0  0  0  0  0  0
  162.4520  207.6970  155.5330 O   0  0  0  0  0  1  0  0  0  0  0  0
  160.2790  208.8040  157.2410 C   0  0  0  0  0  2  0  0  0  0  0  0
  161.8090  210.5700  153.4850 C   0  0  0  0  0  2  0  0  0  0  0  0
  160.7160  206.4040  153.9910 C   0  0  0  0  0  2  0  0  0  0  0  0
  160.4190  211.5600  155.3110 C   0  0  0  0  0  0  0  0  0  0  0  0
  161.2650  210.7610  156.2470 C   0  0  0  0  0  2  0  0  0  0  0  0
  161.0970  208.3810  152.4660 C   0  0  0  0  0  2  0  0  0  0  0  0
  161.3300  208.3850  155.0430 C   0  0  2  0  0  0  0  0  0  0  0  0
  160.2650  207.4710  154.8020 O   0  0  0  0  0  0  0  0  0  0  0  0
  160.5360  211.3570  153.8350 C   0  0  2  0  0  3  0  0  0  0  0  0
  159.8540  204.7970  151.6660 C   0  0  0  0  0  1  0  0  0  0  0  0
  159.9990  206.3160  151.6110 C   0  0  0  0  0  2  0  0  0  0  0  0
  158.3640  211.4380  152.6750 N   0  0  0  0  0  0  0  0  0  0  0  0
  159.2750  210.7500  153.2750 C   0  0  0  0  0  3  0  0  0  0  0  0
  158.4420  212.8700  152.4930 C   0  0  2  0  0  3  0  0  0  0  0  0
  156.6670  212.6240  154.1700 N   0  0  0  0  0  2  0  0  0  0  0  0
  154.7190  214.2000  153.2730 S   0  0  0  0  0  0  0  0  0  0  0  0
  155.4870  213.3150  154.6610 C   0  0  0  0  0  2  0  0  0  0  0  0
  157.3380  213.5670  153.2910 C   0  0  2  0  0  3  0  0  0  0  0  0
  156.2940  214.1720  152.3710 C   0  0  0  0  0  2  0  0  0  0  0  0
  158.2980  213.1800  151.0780 N   0  0  0  0  0  2  0  0  0  0  0  0
  159.4540  213.9760  150.7040 C   0  0  0  0  0  2  0  0  0  0  0  0
  160.3920  213.1410  149.8560 C   0  0  0  0  0  2  0  0  0  0  0  0
  160.9790  212.6400  147.3830 C   0  0  1  0  0  3  0  0  0  0  0  0
  160.0030  213.2750  148.3890 C   0  0  2  0  0  3  0  0  0  0  0  0
  161.0320  214.1290  147.6780 C   0  0  0  0  0  2  0  0  0  0  0  0
  162.1500  211.9210  147.9940 C   0  0  0  0  0  0  0  0  0  0  0  0
  162.0150  210.7560  148.4580 O   0  0  0  0  0  1  0  0  0  0  0  0
  163.3750  212.5660  148.1000 O   0  0  0  0  0  0  0  0  0  0  0  0
  162.4710  206.3150  152.2120 C   0  0  0  0  0  2  0  0  0  0  0  0
  162.4590  208.1470  150.5780 O   0  0  0  0  0  0  0  0  0  0  0  0
  162.9290  205.9700  149.8340 O   0  0  0  0  0  0  0  0  0  0  0  0
  163.0450  206.9010  150.9150 C   0  0  2  0  0  3  0  0  0  0  0  0
  161.8570  206.0160  148.9330 C   0  0  0  0  0  0  0  0  0  0  0  0
  160.9700  207.0050  149.0650 C   0  0  0  0  0  3  0  0  0  0  0  0
  161.1030  207.9470  150.2240 C   0  0  0  0  0  2  0  0  0  0  0  0
  161.4770  203.1160  145.7630 C   0  0  0  0  0  3  0  0  0  0  0  0
  162.0210  205.3530  146.5040 C   0  0  0  0  0  0  0  0  0  0  0  0
  161.3200  203.6690  148.1250 C   0  0  0  0  0  0  0  0  0  0  0  0
  162.3980  206.6130  146.1660 F   0  0  0  0  0  0  0  0  0  0  0  0
  161.8890  204.4160  145.4790 C   0  0  0  0  0  3  0  0  0  0  0  0
  161.1950  202.7470  147.0750 C   0  0  0  0  0  3  0  0  0  0  0  0
  161.7390  205.0000  147.8470 C   0  0  0  0  0  0  0  0  0  0  0  0
  161.0430  203.2150  149.5020 C   0  0  0  0  0  3  0  0  0  0  0  0
  160.7440  201.9850  149.7680 N   0  0  0  0  0  2  0  0  0  0  0  0
  1 11  1  6  0  0  0
  1 12  1  0  0  0  0
  3 16  1  6  0  0  0
  3  8  1  0  0  0  0
  4 10  1  0  0  0  0
  4  6  2  0  0  0  0
  7  1  1  0  0  0  0
  7 14  1  0  0  0  0
  8 13  1  0  0  0  0
  9  2  2  0  0  0  0
  9 10  1  0  0  0  0
 11  3  1  0  0  0  0
 12  5  1  1  0  0  0
 12  4  1  0  0  0  0
 13 12  1  0  0  0  0
 14 18  1  1  0  0  0
 14  9  1  0  0  0  0
 16 15  1  0  0  0  0
 17 18  2  0  0  0  0
 19 25  1  6  0  0  0
 19 17  1  0  0  0  0
 20 22  1  0  0  0  0
 21 22  1  0  0  0  0
 23 19  1  6  0  0  0
 23 20  1  0  0  0  0
 24 21  1  0  0  0  0
 24 23  1  0  0  0  0
 26 25  1  0  0  0  0
 27 26  1  0  0  0  0
 28 30  1  0  0  0  0
 28 31  1  1  0  0  0
 28 29  1  0  0  0  0
 29 27  1  1  0  0  0
 30 29  1  0  0  0  0
 31 33  2  0  0  0  0
 31 32  1  0  0  0  0
 34  3  1  0  0  0  0
 35 37  1  0  0  0  0
 36 37  1  0  0  0  0
 37 34  1  1  0  0  0
 38 39  2  0  0  0  0
 38 36  1  0  0  0  0
 39 40  1  0  0  0  0
 40 35  1  0  0  0  0
 41 46  1  0  0  0  0
 42 47  2  0  0  0  0
 43 48  1  0  0  0  0
 44 42  1  0  0  0  0
 45 41  2  0  0  0  0
 45 42  1  0  0  0  0
 46 43  2  0  0  0  0
 47 43  1  0  0  0  0
 47 38  1  0  0  0  0
 48 49  2  0  0  0  0
M  END
>  <MODEL>
7

>  <REMARK>
 VINA RESULT:      -2.2      3.545      7.584
  Name = 
  13 active torsions:
  status: ('A' for Active; 'I' for Inactive)
    1  A    between atoms: N_6  and  C_32
    2  A    between atoms: C_7  and  C_28
    3  A    between atoms: C_7  and  C_45
    4  A    between atoms: C_8  and  C_20
    5  A    between atoms: C_14  and  C_35
    6  A    between atoms: C_16  and  N_42
    7  A    between atoms: C_16  and  C_48
    8  A    between atoms: C_17  and  C_28
    9  A    between atoms: C_22  and  C_48
   10  A    between atoms: C_26  and  C_47
   11  A    between atoms: C_30  and  C_32
   12  A    between atoms: C_31  and  C_49
   13  A    between atoms: C_32  and  N_42
                            x       y       z     vdW  Elec       q    Type
                         _______ _______ _______ _____ _____    ______ ____

>  <TORSDO>
F 13

$$$$
=
 OpenBabel11072409483D

 49 54  0  0  1  0  0  0  0  0999 V2000
  160.6080  212.0800  152.2420 C   0  0  2  0  0  3  0  0  0  0  0  0
  162.3310  209.9250  148.7320 O   0  0  0  0  0  0  0  0  0  0  0  0
  158.3020  212.3290  153.3050 C   0  0  2  0  0  0  0  0  0  0  0  0
  160.6960  212.6770  149.6660 C   0  0  0  0  0  0  0  0  0  0  0  0
  160.2450  214.2700  151.3330 O   0  0  0  0  0  1  0  0  0  0  0  0
  160.1030  213.1620  148.5730 C   0  0  0  0  0  2  0  0  0  0  0  0
  161.8220  211.1450  152.1150 C   0  0  0  0  0  2  0  0  0  0  0  0
  157.9570  213.1080  152.0230 C   0  0  0  0  0  2  0  0  0  0  0  0
  162.0690  210.6600  149.6750 C   0  0  0  0  0  0  0  0  0  0  0  0
  162.0810  212.1420  149.4880 C   0  0  0  0  0  2  0  0  0  0  0  0
  159.5100  211.4160  153.0730 C   0  0  0  0  0  2  0  0  0  0  0  0
  160.0510  212.9110  151.0320 C   0  0  2  0  0  0  0  0  0  0  0  0
  158.6610  212.6380  150.8900 O   0  0  0  0  0  0  0  0  0  0  0  0
  161.7490  210.0760  151.0130 C   0  0  2  0  0  3  0  0  0  0  0  0
  155.8920  212.2720  154.1450 C   0  0  0  0  0  1  0  0  0  0  0  0
  157.0940  211.4580  153.6720 C   0  0  0  0  0  2  0  0  0  0  0  0
  160.3490  208.0490  150.9770 N   0  0  0  0  0  0  0  0  0  0  0  0
  160.4360  209.3360  150.9750 C   0  0  0  0  0  3  0  0  0  0  0  0
  161.5010  207.1760  150.9930 C   0  0  2  0  0  3  0  0  0  0  0  0
  162.6870  207.1260  148.8450 N   0  0  0  0  0  2  0  0  0  0  0  0
  160.7960  206.4790  147.0870 S   0  0  0  0  0  0  0  0  0  0  0  0
  162.5610  206.5690  147.5090 C   0  0  0  0  0  2  0  0  0  0  0  0
  161.6570  206.4770  149.6400 C   0  0  2  0  0  3  0  0  0  0  0  0
  160.3620  206.5170  148.8500 C   0  0  0  0  0  2  0  0  0  0  0  0
  161.3320  206.1820  152.0440 N   0  0  0  0  0  2  0  0  0  0  0  0
  161.9340  204.9530  151.5570 C   0  0  0  0  0  2  0  0  0  0  0  0
  160.8500  203.9250  151.3000 C   0  0  0  0  0  2  0  0  0  0  0  0
  161.3980  201.6550  150.1780 C   0  0  1  0  0  3  0  0  0  0  0  0
  161.4340  202.5250  151.4470 C   0  0  2  0  0  3  0  0  0  0  0  0
  160.3330  201.5040  151.2520 C   0  0  0  0  0  2  0  0  0  0  0  0
  160.8460  202.3310  148.9530 C   0  0  0  0  0  0  0  0  0  0  0  0
  159.6860  202.0590  148.5400 O   0  0  0  0  0  1  0  0  0  0  0  0
  161.6400  203.2180  148.2390 O   0  0  0  0  0  0  0  0  0  0  0  0
  158.6460  213.3320  154.4160 C   0  0  0  0  0  2  0  0  0  0  0  0
  158.9070  213.6380  156.8380 O   0  0  0  0  0  0  0  0  0  0  0  0
  158.8410  211.4560  155.9730 O   0  0  0  0  0  0  0  0  0  0  0  0
  158.3700  212.8000  155.8290 C   0  0  2  0  0  3  0  0  0  0  0  0
  160.0970  211.1700  156.5230 C   0  0  0  0  0  0  0  0  0  0  0  0
  160.8280  212.1890  156.9780 C   0  0  0  0  0  3  0  0  0  0  0  0
  160.3200  213.5870  156.7860 C   0  0  0  0  0  2  0  0  0  0  0  0
  161.4470  207.0840  156.8260 C   0  0  0  0  0  3  0  0  0  0  0  0
  159.6840  208.6840  156.3970 C   0  0  0  0  0  0  0  0  0  0  0  0
  161.9310  209.4640  156.9400 C   0  0  0  0  0  0  0  0  0  0  0  0
  158.3740  208.8970  156.1090 F   0  0  0  0  0  0  0  0  0  0  0  0
  160.1210  207.3630  156.5040 C   0  0  0  0  0  3  0  0  0  0  0  0
  162.3430  208.1270  157.0430 C   0  0  0  0  0  3  0  0  0  0  0  0
  160.5790  209.7610  156.6140 C   0  0  0  0  0  0  0  0  0  0  0  0
  162.9310  210.5300  157.1450 C   0  0  0  0  0  3  0  0  0  0  0  0
  163.5750  211.0610  156.1560 N   0  0  0  0  0  2  0  0  0  0  0  0
  1  7  1  6  0  0  0
  1 11  1  0  0  0  0
  2  9  2  0  0  0  0
  3 16  1  1  0  0  0
  3 34  1  0  0  0  0
  4 12  1  0  0  0  0
  6  4  2  0  0  0  0
  8  3  1  0  0  0  0
  9 14  1  0  0  0  0
 10  4  1  0  0  0  0
 10  9  1  0  0  0  0
 11  3  1  0  0  0  0
 12  5  1  1  0  0  0
 12  1  1  0  0  0  0
 13 12  1  0  0  0  0
 13  8  1  0  0  0  0
 14 18  1  6  0  0  0
 14  7  1  0  0  0  0
 16 15  1  0  0  0  0
 18 17  2  0  0  0  0
 19 17  1  6  0  0  0
 19 25  1  0  0  0  0
 20 23  1  0  0  0  0
 21 22  1  0  0  0  0
 21 24  1  0  0  0  0
 22 20  1  0  0  0  0
 23 19  1  1  0  0  0
 24 23  1  0  0  0  0
 26 25  1  0  0  0  0
 27 26  1  0  0  0  0
 28 31  1  6  0  0  0
 28 30  1  0  0  0  0
 28 29  1  0  0  0  0
 29 27  1  6  0  0  0
 30 29  1  0  0  0  0
 32 31  1  0  0  0  0
 33 31  2  0  0  0  0
 36 38  1  0  0  0  0
 37 34  1  6  0  0  0
 37 36  1  0  0  0  0
 37 35  1  0  0  0  0
 38 47  1  0  0  0  0
 38 39  2  0  0  0  0
 40 35  1  0  0  0  0
 40 39  1  0  0  0  0
 41 46  1  0  0  0  0
 42 45  1  0  0  0  0
 42 47  2  0  0  0  0
 43 46  2  0  0  0  0
 43 48  1  0  0  0  0
 44 42  1  0  0  0  0
 45 41  2  0  0  0  0
 47 43  1  0  0  0  0
 49 48  2  0  0  0  0
M  END
>  <MODEL>
8

>  <REMARK>
 VINA RESULT:      -1.8      3.380      7.587
  Name = 
  13 active torsions:
  status: ('A' for Active; 'I' for Inactive)
    1  A    between atoms: N_6  and  C_32
    2  A    between atoms: C_7  and  C_28
    3  A    between atoms: C_7  and  C_45
    4  A    between atoms: C_8  and  C_20
    5  A    between atoms: C_14  and  C_35
    6  A    between atoms: C_16  and  N_42
    7  A    between atoms: C_16  and  C_48
    8  A    between atoms: C_17  and  C_28
    9  A    between atoms: C_22  and  C_48
   10  A    between atoms: C_26  and  C_47
   11  A    between atoms: C_30  and  C_32
   12  A    between atoms: C_31  and  C_49
   13  A    between atoms: C_32  and  N_42
                            x       y       z     vdW  Elec       q    Type
                         _______ _______ _______ _____ _____    ______ ____

>  <TORSDO>
F 13

$$$$
=
 OpenBabel11072409483D

 49 54  0  0  1  0  0  0  0  0999 V2000
  160.1980  208.4470  153.2800 C   0  0  2  0  0  3  0  0  0  0  0  0
  161.7910  205.6470  150.1880 O   0  0  0  0  0  0  0  0  0  0  0  0
  161.1860  210.0280  155.0210 C   0  0  2  0  0  0  0  0  0  0  0  0
  161.0850  205.9590  153.4320 C   0  0  0  0  0  0  0  0  0  0  0  0
  159.7770  206.9560  155.1100 O   0  0  0  0  0  1  0  0  0  0  0  0
  161.7880  205.0220  154.0710 C   0  0  0  0  0  2  0  0  0  0  0  0
  159.8790  208.2910  151.7830 C   0  0  0  0  0  2  0  0  0  0  0  0
  161.6560  208.7360  155.7140 C   0  0  0  0  0  2  0  0  0  0  0  0
  161.1410  206.2750  151.0130 C   0  0  0  0  0  0  0  0  0  0  0  0
  160.4650  205.5530  152.1330 C   0  0  0  0  0  2  0  0  0  0  0  0
  160.9100  209.7750  153.5360 C   0  0  0  0  0  2  0  0  0  0  0  0
  160.7560  207.2670  154.1520 C   0  0  2  0  0  0  0  0  0  0  0  0
  161.9490  207.7000  154.7970 O   0  0  0  0  0  0  0  0  0  0  0  0
  161.0150  207.7600  150.8940 C   0  0  2  0  0  3  0  0  0  0  0  0
  163.1760  210.8700  156.3810 C   0  0  0  0  0  1  0  0  0  0  0  0
  162.3070  211.0670  155.1420 C   0  0  0  0  0  2  0  0  0  0  0  0
  162.9480  209.1480  150.2550 N   0  0  0  0  0  0  0  0  0  0  0  0
  162.3410  208.4320  151.1410 C   0  0  0  0  0  3  0  0  0  0  0  0
  162.4320  209.3650  148.9220 C   0  0  2  0  0  3  0  0  0  0  0  0
  161.1290  210.9140  147.5340 N   0  0  0  0  0  2  0  0  0  0  0  0
  161.5770  213.2930  148.6380 S   0  0  0  0  0  0  0  0  0  0  0  0
  160.5340  212.2380  147.5890 C   0  0  0  0  0  2  0  0  0  0  0  0
  161.5430  210.6110  148.8940 C   0  0  2  0  0  3  0  0  0  0  0  0
  162.2780  211.8220  149.4380 C   0  0  0  0  0  2  0  0  0  0  0  0
  161.6620  208.2010  148.5120 N   0  0  0  0  0  2  0  0  0  0  0  0
  162.5510  207.3670  147.7220 C   0  0  0  0  0  2  0  0  0  0  0  0
  161.7370  206.3580  146.9380 C   0  0  0  0  0  2  0  0  0  0  0  0
  162.2330  204.2490  145.5180 C   0  0  1  0  0  3  0  0  0  0  0  0
  162.5370  205.0710  146.7830 C   0  0  2  0  0  3  0  0  0  0  0  0
  161.5940  203.8880  146.8490 C   0  0  0  0  0  2  0  0  0  0  0  0
  161.2310  204.8630  144.5800 C   0  0  0  0  0  0  0  0  0  0  0  0
  161.4100  206.0240  144.1240 O   0  0  0  0  0  0  0  0  0  0  0  0
  160.0720  204.1690  144.2600 O   0  0  0  0  0  1  0  0  0  0  0  0
  159.8870  210.5040  155.6900 C   0  0  0  0  0  2  0  0  0  0  0  0
  159.3320  212.4220  157.1190 O   0  0  0  0  0  0  0  0  0  0  0  0
  158.9940  212.6010  154.8020 O   0  0  0  0  0  0  0  0  0  0  0  0
  159.7980  212.0290  155.8390 C   0  0  2  0  0  3  0  0  0  0  0  0
  157.6360  212.8840  154.9940 C   0  0  0  0  0  0  0  0  0  0  0  0
  157.1160  212.6690  156.2040 C   0  0  0  0  0  3  0  0  0  0  0  0
  157.9760  212.0420  157.2610 C   0  0  0  0  0  2  0  0  0  0  0  0
  155.2180  214.4250  151.7710 C   0  0  0  0  0  3  0  0  0  0  0  0
  155.4290  213.6730  154.0600 C   0  0  0  0  0  0  0  0  0  0  0  0
  157.3860  213.7050  152.6040 C   0  0  0  0  0  0  0  0  0  0  0  0
  154.8130  213.4090  155.2420 F   0  0  0  0  0  0  0  0  0  0  0  0
  154.6470  214.1640  153.0140 C   0  0  0  0  0  3  0  0  0  0  0  0
  156.5760  214.1970  151.5690 C   0  0  0  0  0  3  0  0  0  0  0  0
  156.8130  213.4330  153.8770 C   0  0  0  0  0  0  0  0  0  0  0  0
  158.8270  213.5150  152.3450 C   0  0  0  0  0  3  0  0  0  0  0  0
  159.5280  214.3960  151.7070 N   0  0  0  0  0  2  0  0  0  0  0  0
  1  7  1  6  0  0  0
  1 11  1  0  0  0  0
  1 12  1  0  0  0  0
  2  9  2  0  0  0  0
  3 16  1  1  0  0  0
  3 34  1  0  0  0  0
  3  8  1  0  0  0  0
  4  6  2  0  0  0  0
  4 12  1  0  0  0  0
  9 10  1  0  0  0  0
 10  4  1  0  0  0  0
 11  3  1  0  0  0  0
 12 13  1  0  0  0  0
 12  5  1  1  0  0  0
 13  8  1  0  0  0  0
 14  9  1  0  0  0  0
 14 18  1  1  0  0  0
 14  7  1  0  0  0  0
 16 15  1  0  0  0  0
 17 18  2  0  0  0  0
 19 25  1  1  0  0  0
 19 17  1  0  0  0  0
 20 22  1  0  0  0  0
 20 23  1  0  0  0  0
 21 24  1  0  0  0  0
 22 21  1  0  0  0  0
 23 19  1  6  0  0  0
 23 24  1  0  0  0  0
 26 25  1  0  0  0  0
 27 26  1  0  0  0  0
 28 31  1  6  0  0  0
 28 29  1  0  0  0  0
 28 30  1  0  0  0  0
 29 30  1  0  0  0  0
 29 27  1  6  0  0  0
 32 31  2  0  0  0  0
 33 31  1  0  0  0  0
 35 40  1  0  0  0  0
 36 38  1  0  0  0  0
 36 37  1  0  0  0  0
 37 34  1  1  0  0  0
 37 35  1  0  0  0  0
 38 39  2  0  0  0  0
 39 40  1  0  0  0  0
 41 45  1  0  0  0  0
 42 44  1  0  0  0  0
 43 47  2  0  0  0  0
 45 42  2  0  0  0  0
 46 41  2  0  0  0  0
 46 43  1  0  0  0  0
 47 42  1  0  0  0  0
 47 38  1  0  0  0  0
 48 43  1  0  0  0  0
 49 48  2  0  0  0  0
M  END
>  <MODEL>
9

>  <REMARK>
 VINA RESULT:      -1.7      3.834      6.516
  Name = 
  13 active torsions:
  status: ('A' for Active; 'I' for Inactive)
    1  A    between atoms: N_6  and  C_32
    2  A    between atoms: C_7  and  C_28
    3  A    between atoms: C_7  and  C_45
    4  A    between atoms: C_8  and  C_20
    5  A    between atoms: C_14  and  C_35
    6  A    between atoms: C_16  and  N_42
    7  A    between atoms: C_16  and  C_48
    8  A    between atoms: C_17  and  C_28
    9  A    between atoms: C_22  and  C_48
   10  A    between atoms: C_26  and  C_47
   11  A    between atoms: C_30  and  C_32
   12  A    between atoms: C_31  and  C_49
   13  A    between atoms: C_32  and  N_42
                            x       y       z     vdW  Elec       q    Type
                         _______ _______ _______ _____ _____    ______ ____

>  <TORSDO>
F 13

$$$$
