=
 OpenBabel11072413563D

 46 49  0  0  1  0  0  0  0  0999 V2000
  160.8820  208.3940  154.8740 C   0  0  0  0  0  0  0  0  0  0  0  0
  160.1460  207.2250  154.2950 C   0  0  0  0  0  2  0  0  0  0  0  0
  161.4960  209.2670  154.0650 C   0  0  0  0  0  3  0  0  0  0  0  0
  161.0850  206.3210  153.5730 C   0  0  0  0  0  3  0  0  0  0  0  0
  161.6240  208.0430  151.8570 C   0  0  0  0  0  0  0  0  0  0  0  0
  161.5550  209.1650  152.5930 C   0  0  0  0  0  3  0  0  0  0  0  0
  161.7420  206.6850  152.4690 C   0  0  0  0  0  0  0  0  0  0  0  0
  160.2810  211.6950  156.5370 N   0  0  0  0  0  0  0  0  0  0  0  0
  162.7660  210.7300  156.2260 S   0  0  0  0  0  0  0  0  0  0  0  0
  158.2280  210.6980  156.0110 O   0  0  0  0  0  0  0  0  0  0  0  0
  162.3080  209.1050  156.9100 C   0  0  0  0  0  2  0  0  0  0  0  0
  159.7620  209.2310  157.0690 C   0  0  0  0  0  2  0  0  0  0  0  0
  161.5510  211.6150  157.2430 C   0  0  0  0  0  2  0  0  0  0  0  0
  160.9700  208.5820  156.3770 C   0  0  1  0  0  3  0  0  0  0  0  0
  159.3790  210.5710  156.5080 C   0  0  0  0  0  0  0  0  0  0  0  0
  159.9720  212.9620  155.8720 C   0  0  2  0  0  3  0  0  0  0  0  0
  159.9660  214.1080  156.8720 C   0  0  0  0  0  2  0  0  0  0  0  0
  158.6540  214.4370  157.2130 O   0  0  0  0  0  1  0  0  0  0  0  0
  158.6430  212.8930  155.1160 C   0  0  0  0  0  2  0  0  0  0  0  0
  159.6090  212.3480  152.8840 C   0  0  0  0  0  2  0  0  0  0  0  0
  157.5450  213.7970  151.5410 C   0  0  0  0  0  3  0  0  0  0  0  0
  157.4220  213.5170  153.0170 C   0  0  0  0  0  2  0  0  0  0  0  0
  158.7910  213.3600  153.6770 C   0  0  1  0  0  3  0  0  0  0  0  0
  159.8810  212.9000  151.4860 C   0  0  0  0  0  2  0  0  0  0  0  0
  158.6440  213.4750  150.8400 C   0  0  0  0  0  3  0  0  0  0  0  0
  161.9370  209.2530  149.8440 O   0  0  0  0  0  0  0  0  0  0  0  0
  161.6030  208.1590  150.3720 C   0  0  0  0  0  0  0  0  0  0  0  0
  161.2850  207.0930  149.5200 O   0  0  0  0  0  0  0  0  0  0  0  0
  162.0650  206.7150  148.3940 C   0  0  0  0  0  2  0  0  0  0  0  0
  161.3000  205.7490  147.4920 C   0  0  2  0  0  3  0  0  0  0  0  0
  161.3930  203.2800  146.7230 C   0  0  0  0  0  0  0  0  0  0  0  0
  161.6970  203.6000  145.5430 O   0  0  0  0  0  0  0  0  0  0  0  0
  160.9320  202.4320  149.4200 C   0  0  0  0  0  2  0  0  0  0  0  0
  160.7460  203.9020  149.0830 C   0  0  0  0  0  2  0  0  0  0  0  0
  161.0020  201.9260  147.0160 N   0  0  0  0  0  0  0  0  0  0  0  0
  160.3560  201.5950  148.2870 C   0  0  0  0  0  2  0  0  0  0  0  0
  161.5670  204.2790  147.8530 C   0  0  2  0  0  3  0  0  0  0  0  0
  161.1540  200.8940  145.9920 C   0  0  2  0  0  3  0  0  0  0  0  0
  158.9410  200.8160  145.1730 O   0  0  0  0  0  0  0  0  0  0  0  0
  160.1130  201.0530  144.9280 C   0  0  0  0  0  3  0  0  0  0  0  0
  161.0680  199.5720  146.5950 N   0  0  0  0  0  2  0  0  0  0  0  0
  161.5420  198.6930  145.6810 O   0  0  0  0  0  1  0  0  0  0  0  0
  161.4420  206.0650  146.0050 C   0  0  0  0  0  2  0  0  0  0  0  0
  160.1710  206.5230  145.4700 N   0  0  0  0  0  1  0  0  0  0  0  0
  162.0660  204.2790  152.0270 C   0  0  0  0  0  1  0  0  0  0  0  0
  162.6420  205.6720  151.8440 C   0  0  0  0  0  2  0  0  0  0  0  0
  2  1  1  0  0  0  0
  3  1  2  0  0  0  0
  4  2  1  0  0  0  0
  5  7  1  0  0  0  0
  5  6  2  0  0  0  0
  6  3  1  0  0  0  0
  7  4  2  0  0  0  0
  8 13  1  0  0  0  0
  9 11  1  0  0  0  0
  9 13  1  0  0  0  0
 10 15  2  0  0  0  0
 14  1  1  6  0  0  0
 14 11  1  0  0  0  0
 14 12  1  0  0  0  0
 15  8  1  0  0  0  0
 15 12  1  0  0  0  0
 16 19  1  1  0  0  0
 16  8  1  0  0  0  0
 16 17  1  0  0  0  0
 17 18  1  0  0  0  0
 20 23  1  0  0  0  0
 21 22  1  0  0  0  0
 22 23  1  0  0  0  0
 23 19  1  1  0  0  0
 24 20  1  0  0  0  0
 25 24  1  0  0  0  0
 25 21  2  0  0  0  0
 26 27  2  0  0  0  0
 27  5  1  0  0  0  0
 28 27  1  0  0  0  0
 29 28  1  0  0  0  0
 30 43  1  6  0  0  0
 30 29  1  0  0  0  0
 31 35  1  0  0  0  0
 31 37  1  0  0  0  0
 32 31  2  0  0  0  0
 34 33  1  0  0  0  0
 35 36  1  0  0  0  0
 36 33  1  0  0  0  0
 37 30  1  6  0  0  0
 37 34  1  0  0  0  0
 38 40  1  6  0  0  0
 38 41  1  0  0  0  0
 38 35  1  0  0  0  0
 40 39  2  0  0  0  0
 42 41  1  0  0  0  0
 44 43  1  0  0  0  0
 46 45  1  0  0  0  0
 46  7  1  0  0  0  0
M  END
>  <MODEL>
1

>  <REMARK>
 VINA RESULT:      -7.3      0.000      0.000
  Name = 
  15 active torsions:
  status: ('A' for Active; 'I' for Inactive)
    1  A    between atoms: N_2  and  C_7
    2  A    between atoms: N_4  and  C_15
    3  A    between atoms: C_6  and  C_23
    4  A    between atoms: C_7  and  N_30
    5  A    between atoms: C_7  and  C_34
    6  A    between atoms: C_8  and  C_35
    7  A    between atoms: C_15  and  C_22
    8  A    between atoms: C_15  and  C_24
    9  A    between atoms: C_22  and  C_32
   10  A    between atoms: C_23  and  C_43
   11  A    between atoms: C_23  and  C_45
   12  A    between atoms: C_27  and  C_33
   13  A    between atoms: O_29  and  C_33
   14  A    between atoms: O_29  and  C_45
   15  A    between atoms: C_37  and  C_41
                            x       y       z     vdW  Elec       q    Type
                         _______ _______ _______ _____ _____    ______ ____

>  <TORSDO>
F 15

$$$$
=
 OpenBabel11072413563D

 46 49  0  0  1  0  0  0  0  0999 V2000
  159.5730  212.3310  151.7400 C   0  0  0  0  0  0  0  0  0  0  0  0
  158.4690  211.6550  152.4930 C   0  0  0  0  0  2  0  0  0  0  0  0
  160.7070  211.6690  151.4750 C   0  0  0  0  0  3  0  0  0  0  0  0
  158.9150  211.3050  153.8720 C   0  0  0  0  0  3  0  0  0  0  0  0
  160.6240  209.6920  153.0480 C   0  0  0  0  0  0  0  0  0  0  0  0
  161.0060  210.2900  151.9070 C   0  0  0  0  0  3  0  0  0  0  0  0
  159.8770  210.4150  154.1220 C   0  0  0  0  0  0  0  0  0  0  0  0
  159.0620  213.3150  148.1630 N   0  0  0  0  0  0  0  0  0  0  0  0
  161.4480  213.6120  149.3570 S   0  0  0  0  0  0  0  0  0  0  0  0
  157.0290  212.5950  149.0740 O   0  0  0  0  0  0  0  0  0  0  0  0
  160.7140  214.4500  150.7970 C   0  0  0  0  0  2  0  0  0  0  0  0
  158.2050  214.1300  150.4480 C   0  0  0  0  0  2  0  0  0  0  0  0
  160.1840  214.2410  148.2170 C   0  0  0  0  0  2  0  0  0  0  0  0
  159.4330  213.7770  151.3000 C   0  0  1  0  0  3  0  0  0  0  0  0
  158.0630  213.3040  149.2010 C   0  0  0  0  0  0  0  0  0  0  0  0
  159.0030  212.4140  147.0110 C   0  0  2  0  0  3  0  0  0  0  0  0
  160.4020  212.0070  146.5730 C   0  0  0  0  0  2  0  0  0  0  0  0
  160.9170  211.0520  147.4500 O   0  0  0  0  0  1  0  0  0  0  0  0
  158.2270  213.0350  145.8480 C   0  0  0  0  0  2  0  0  0  0  0  0
  159.4260  211.9950  143.9260 C   0  0  0  0  0  2  0  0  0  0  0  0
  159.2490  214.4040  142.4000 C   0  0  0  0  0  3  0  0  0  0  0  0
  158.4610  214.2700  143.6770 C   0  0  0  0  0  2  0  0  0  0  0  0
  159.1290  213.3010  144.6520 C   0  0  1  0  0  3  0  0  0  0  0  0
  160.4520  212.2510  142.8230 C   0  0  0  0  0  2  0  0  0  0  0  0
  160.1170  213.4660  141.9910 C   0  0  0  0  0  3  0  0  0  0  0  0
  161.5800  207.9340  154.3150 O   0  0  0  0  0  0  0  0  0  0  0  0
  160.9750  208.2610  153.2590 C   0  0  0  0  0  0  0  0  0  0  0  0
  160.6180  207.2390  152.3690 O   0  0  0  0  0  0  0  0  0  0  0  0
  160.8610  205.8600  152.6030 C   0  0  0  0  0  2  0  0  0  0  0  0
  161.5470  205.2080  151.4040 C   0  0  2  0  0  3  0  0  0  0  0  0
  161.3800  205.0800  148.8250 C   0  0  0  0  0  0  0  0  0  0  0  0
  161.1390  203.8440  148.8450 O   0  0  0  0  0  0  0  0  0  0  0  0
  161.6930  207.9240  148.6730 C   0  0  0  0  0  2  0  0  0  0  0  0
  161.9550  207.2380  150.0030 C   0  0  0  0  0  2  0  0  0  0  0  0
  161.7010  205.7230  147.5770 N   0  0  0  0  0  0  0  0  0  0  0  0
  162.2790  207.0680  147.5590 C   0  0  0  0  0  2  0  0  0  0  0  0
  161.2020  205.9130  150.0820 C   0  0  2  0  0  3  0  0  0  0  0  0
  161.5470  204.9850  146.3250 C   0  0  2  0  0  3  0  0  0  0  0  0
  163.0290  203.9940  144.7780 O   0  0  0  0  0  0  0  0  0  0  0  0
  162.8410  204.3450  145.9320 C   0  0  0  0  0  3  0  0  0  0  0  0
  161.0780  205.8740  145.2730 N   0  0  0  0  0  2  0  0  0  0  0  0
  159.7870  206.1670  145.5530 O   0  0  0  0  0  1  0  0  0  0  0  0
  161.3890  203.6900  151.3650 C   0  0  0  0  0  2  0  0  0  0  0  0
  160.5010  203.2540  152.4280 N   0  0  0  0  0  1  0  0  0  0  0  0
  159.0480  210.5520  156.4430 C   0  0  0  0  0  1  0  0  0  0  0  0
  160.2120  210.1550  155.5530 C   0  0  0  0  0  2  0  0  0  0  0  0
  1  2  1  0  0  0  0
  2  4  1  0  0  0  0
  3  1  2  0  0  0  0
  3  6  1  0  0  0  0
  4  7  2  0  0  0  0
  5 27  1  0  0  0  0
  5  7  1  0  0  0  0
  6  5  2  0  0  0  0
  7 46  1  0  0  0  0
  8 13  1  0  0  0  0
  8 15  1  0  0  0  0
  9 11  1  0  0  0  0
 10 15  2  0  0  0  0
 11 14  1  0  0  0  0
 12 14  1  0  0  0  0
 13  9  1  0  0  0  0
 14  1  1  6  0  0  0
 15 12  1  0  0  0  0
 16 19  1  6  0  0  0
 16  8  1  0  0  0  0
 17 16  1  0  0  0  0
 17 18  1  0  0  0  0
 20 23  1  0  0  0  0
 21 22  1  0  0  0  0
 22 23  1  0  0  0  0
 23 19  1  1  0  0  0
 24 20  1  0  0  0  0
 25 21  2  0  0  0  0
 25 24  1  0  0  0  0
 27 26  2  0  0  0  0
 28 29  1  0  0  0  0
 28 27  1  0  0  0  0
 30 43  1  6  0  0  0
 30 29  1  0  0  0  0
 31 32  2  0  0  0  0
 31 37  1  0  0  0  0
 33 34  1  0  0  0  0
 34 37  1  0  0  0  0
 35 31  1  0  0  0  0
 36 35  1  0  0  0  0
 36 33  1  0  0  0  0
 37 30  1  1  0  0  0
 38 40  1  6  0  0  0
 38 35  1  0  0  0  0
 39 40  2  0  0  0  0
 41 42  1  0  0  0  0
 41 38  1  0  0  0  0
 43 44  1  0  0  0  0
 46 45  1  0  0  0  0
M  END
>  <MODEL>
2

>  <REMARK>
 VINA RESULT:      -5.7      3.900      6.752
  Name = 
  15 active torsions:
  status: ('A' for Active; 'I' for Inactive)
    1  A    between atoms: N_2  and  C_7
    2  A    between atoms: N_4  and  C_15
    3  A    between atoms: C_6  and  C_23
    4  A    between atoms: C_7  and  N_30
    5  A    between atoms: C_7  and  C_34
    6  A    between atoms: C_8  and  C_35
    7  A    between atoms: C_15  and  C_22
    8  A    between atoms: C_15  and  C_24
    9  A    between atoms: C_22  and  C_32
   10  A    between atoms: C_23  and  C_43
   11  A    between atoms: C_23  and  C_45
   12  A    between atoms: C_27  and  C_33
   13  A    between atoms: O_29  and  C_33
   14  A    between atoms: O_29  and  C_45
   15  A    between atoms: C_37  and  C_41
                            x       y       z     vdW  Elec       q    Type
                         _______ _______ _______ _____ _____    ______ ____

>  <TORSDO>
F 15

$$$$
=
 OpenBabel11072413563D

 46 49  0  0  1  0  0  0  0  0999 V2000
  159.7710  209.8690  155.4800 C   0  0  0  0  0  0  0  0  0  0  0  0
  158.9680  208.6450  155.1630 C   0  0  0  0  0  2  0  0  0  0  0  0
  160.6850  210.3150  154.6110 C   0  0  0  0  0  3  0  0  0  0  0  0
  159.8550  207.4520  155.0560 C   0  0  0  0  0  3  0  0  0  0  0  0
  161.0380  208.3510  153.0590 C   0  0  0  0  0  0  0  0  0  0  0  0
  161.0250  209.6670  153.3280 C   0  0  0  0  0  3  0  0  0  0  0  0
  160.7790  207.3150  154.1030 C   0  0  0  0  0  0  0  0  0  0  0  0
  157.7670  213.0180  155.7880 N   0  0  0  0  0  0  0  0  0  0  0  0
  160.4500  213.0720  155.8180 S   0  0  0  0  0  0  0  0  0  0  0  0
  156.3230  211.1750  155.7150 O   0  0  0  0  0  0  0  0  0  0  0  0
  160.5440  211.7540  157.0720 C   0  0  0  0  0  2  0  0  0  0  0  0
  158.1380  210.9120  157.2190 C   0  0  0  0  0  2  0  0  0  0  0  0
  158.8690  213.7010  156.4490 C   0  0  0  0  0  2  0  0  0  0  0  0
  159.5810  210.5940  156.8010 C   0  0  1  0  0  3  0  0  0  0  0  0
  157.3610  211.6980  156.2020 C   0  0  0  0  0  0  0  0  0  0  0  0
  157.0990  213.7350  154.7010 C   0  0  2  0  0  3  0  0  0  0  0  0
  155.6740  214.0980  155.0900 C   0  0  0  0  0  2  0  0  0  0  0  0
  154.8070  213.8280  154.0300 O   0  0  0  0  0  1  0  0  0  0  0  0
  157.1200  212.9310  153.3990 C   0  0  0  0  0  2  0  0  0  0  0  0
  159.1030  212.7230  151.9030 C   0  0  0  0  0  2  0  0  0  0  0  0
  157.9260  214.4530  149.9580 C   0  0  0  0  0  3  0  0  0  0  0  0
  157.0910  213.9390  151.1020 C   0  0  0  0  0  2  0  0  0  0  0  0
  157.9490  213.6220  152.3270 C   0  0  1  0  0  3  0  0  0  0  0  0
  160.0140  213.4860  150.9420 C   0  0  0  0  0  2  0  0  0  0  0  0
  159.2420  214.2070  149.8630 C   0  0  0  0  0  3  0  0  0  0  0  0
  160.5030  208.1380  150.7620 O   0  0  0  0  0  0  0  0  0  0  0  0
  161.3440  207.9070  151.6710 C   0  0  0  0  0  0  0  0  0  0  0  0
  162.5490  207.2930  151.3040 O   0  0  0  0  0  0  0  0  0  0  0  0
  162.8900  206.9450  149.9700 C   0  0  0  0  0  2  0  0  0  0  0  0
  161.7100  206.2990  149.2480 C   0  0  2  0  0  3  0  0  0  0  0  0
  161.7950  203.9560  148.1540 C   0  0  0  0  0  0  0  0  0  0  0  0
  162.5140  204.3640  147.2040 O   0  0  0  0  0  0  0  0  0  0  0  0
  160.3560  202.8740  150.3840 C   0  0  0  0  0  2  0  0  0  0  0  0
  160.4540  204.3840  150.2510 C   0  0  0  0  0  2  0  0  0  0  0  0
  161.1850  202.6540  148.0790 N   0  0  0  0  0  0  0  0  0  0  0  0
  160.1140  202.2780  149.0040 C   0  0  0  0  0  2  0  0  0  0  0  0
  161.6800  204.7740  149.4290 C   0  0  2  0  0  3  0  0  0  0  0  0
  161.5650  201.7410  147.0030 C   0  0  2  0  0  3  0  0  0  0  0  0
  160.4070  202.8760  145.2870 O   0  0  0  0  0  0  0  0  0  0  0  0
  160.5830  201.8210  145.8760 C   0  0  0  0  0  3  0  0  0  0  0  0
  161.6500  200.3780  147.5080 N   0  0  0  0  0  2  0  0  0  0  0  0
  161.2110  199.5660  146.5180 O   0  0  0  0  0  1  0  0  0  0  0  0
  161.5550  206.7630  147.8020 C   0  0  0  0  0  2  0  0  0  0  0  0
  162.0370  208.1270  147.6620 N   0  0  0  0  0  1  0  0  0  0  0  0
  160.8360  204.9490  153.4010 C   0  0  0  0  0  1  0  0  0  0  0  0
  161.5880  206.0600  154.1110 C   0  0  0  0  0  2  0  0  0  0  0  0
  2  1  1  0  0  0  0
  3  1  2  0  0  0  0
  4  2  1  0  0  0  0
  5  6  2  0  0  0  0
  5  7  1  0  0  0  0
  6  3  1  0  0  0  0
  7 46  1  0  0  0  0
  7  4  2  0  0  0  0
  8 15  1  0  0  0  0
  8 13  1  0  0  0  0
  9 13  1  0  0  0  0
  9 11  1  0  0  0  0
 10 15  2  0  0  0  0
 14  1  1  6  0  0  0
 14 11  1  0  0  0  0
 14 12  1  0  0  0  0
 15 12  1  0  0  0  0
 16 19  1  6  0  0  0
 16 17  1  0  0  0  0
 16  8  1  0  0  0  0
 18 17  1  0  0  0  0
 20 23  1  0  0  0  0
 21 22  1  0  0  0  0
 22 23  1  0  0  0  0
 23 19  1  1  0  0  0
 24 20  1  0  0  0  0
 25 21  2  0  0  0  0
 25 24  1  0  0  0  0
 26 27  2  0  0  0  0
 27  5  1  0  0  0  0
 28 27  1  0  0  0  0
 29 28  1  0  0  0  0
 30 43  1  6  0  0  0
 30 29  1  0  0  0  0
 31 37  1  0  0  0  0
 32 31  2  0  0  0  0
 34 33  1  0  0  0  0
 35 31  1  0  0  0  0
 35 36  1  0  0  0  0
 36 33  1  0  0  0  0
 37 30  1  6  0  0  0
 37 34  1  0  0  0  0
 38 40  1  6  0  0  0
 38 41  1  0  0  0  0
 38 35  1  0  0  0  0
 39 40  2  0  0  0  0
 42 41  1  0  0  0  0
 44 43  1  0  0  0  0
 45 46  1  0  0  0  0
M  END
>  <MODEL>
3

>  <REMARK>
 VINA RESULT:      -5.1      1.722      2.245
  Name = 
  15 active torsions:
  status: ('A' for Active; 'I' for Inactive)
    1  A    between atoms: N_2  and  C_7
    2  A    between atoms: N_4  and  C_15
    3  A    between atoms: C_6  and  C_23
    4  A    between atoms: C_7  and  N_30
    5  A    between atoms: C_7  and  C_34
    6  A    between atoms: C_8  and  C_35
    7  A    between atoms: C_15  and  C_22
    8  A    between atoms: C_15  and  C_24
    9  A    between atoms: C_22  and  C_32
   10  A    between atoms: C_23  and  C_43
   11  A    between atoms: C_23  and  C_45
   12  A    between atoms: C_27  and  C_33
   13  A    between atoms: O_29  and  C_33
   14  A    between atoms: O_29  and  C_45
   15  A    between atoms: C_37  and  C_41
                            x       y       z     vdW  Elec       q    Type
                         _______ _______ _______ _____ _____    ______ ____

>  <TORSDO>
F 15

$$$$
=
 OpenBabel11072413563D

 46 49  0  0  1  0  0  0  0  0999 V2000
  160.9120  208.3170  154.5360 C   0  0  0  0  0  0  0  0  0  0  0  0
  160.0850  207.1900  153.9960 C   0  0  0  0  0  2  0  0  0  0  0  0
  161.5830  209.1170  153.6980 C   0  0  0  0  0  3  0  0  0  0  0  0
  160.9490  206.1980  153.2950 C   0  0  0  0  0  3  0  0  0  0  0  0
  161.6020  207.8240  151.5260 C   0  0  0  0  0  0  0  0  0  0  0  0
  161.6230  208.9690  152.2300 C   0  0  0  0  0  3  0  0  0  0  0  0
  161.6230  206.4800  152.1770 C   0  0  0  0  0  0  0  0  0  0  0  0
  160.1150  211.5980  156.1560 N   0  0  0  0  0  0  0  0  0  0  0  0
  162.6550  210.8090  155.7940 S   0  0  0  0  0  0  0  0  0  0  0  0
  158.1270  210.4440  155.7050 O   0  0  0  0  0  0  0  0  0  0  0  0
  162.3350  209.1700  156.5180 C   0  0  0  0  0  2  0  0  0  0  0  0
  159.7920  209.1140  156.7460 C   0  0  0  0  0  2  0  0  0  0  0  0
  161.4060  211.6240  156.8270 C   0  0  0  0  0  2  0  0  0  0  0  0
  161.0260  208.5400  156.0330 C   0  0  1  0  0  3  0  0  0  0  0  0
  159.2970  210.4110  156.1720 C   0  0  0  0  0  0  0  0  0  0  0  0
  159.6970  212.8260  155.4760 C   0  0  2  0  0  3  0  0  0  0  0  0
  159.2160  213.8600  156.4830 C   0  0  0  0  0  2  0  0  0  0  0  0
  157.8380  213.7390  156.6690 O   0  0  0  0  0  1  0  0  0  0  0  0
  158.6220  212.5490  154.4230 C   0  0  0  0  0  2  0  0  0  0  0  0
  159.6200  212.2310  152.1610 C   0  0  0  0  0  2  0  0  0  0  0  0
  157.9430  214.2570  151.0430 C   0  0  0  0  0  3  0  0  0  0  0  0
  157.6740  213.7510  152.4360 C   0  0  0  0  0  2  0  0  0  0  0  0
  158.9470  213.2240  153.1000 C   0  0  1  0  0  3  0  0  0  0  0  0
  160.0780  212.9580  150.8980 C   0  0  0  0  0  2  0  0  0  0  0  0
  159.0100  213.8600  150.3300 C   0  0  0  0  0  3  0  0  0  0  0  0
  161.9560  208.9620  149.4790 O   0  0  0  0  0  0  0  0  0  0  0  0
  161.5780  207.8990  150.0390 C   0  0  0  0  0  0  0  0  0  0  0  0
  161.2100  206.8240  149.2190 O   0  0  0  0  0  0  0  0  0  0  0  0
  162.1370  205.9910  148.5370 C   0  0  0  0  0  2  0  0  0  0  0  0
  161.8120  205.9080  147.0460 C   0  0  2  0  0  3  0  0  0  0  0  0
  161.0060  203.5020  147.5540 C   0  0  0  0  0  0  0  0  0  0  0  0
  161.3500  203.5820  148.7640 O   0  0  0  0  0  0  0  0  0  0  0  0
  159.9790  203.2930  144.8880 C   0  0  0  0  0  2  0  0  0  0  0  0
  160.8760  204.4720  145.2270 C   0  0  0  0  0  2  0  0  0  0  0  0
  160.6490  202.2240  146.9980 N   0  0  0  0  0  0  0  0  0  0  0  0
  160.5450  202.0450  145.5480 C   0  0  0  0  0  2  0  0  0  0  0  0
  160.8400  204.7630  146.7250 C   0  0  2  0  0  3  0  0  0  0  0  0
  160.4920  201.0710  147.8820 C   0  0  2  0  0  3  0  0  0  0  0  0
  159.8910  200.7400  150.1410 O   0  0  0  0  0  0  0  0  0  0  0  0
  160.3120  201.5170  149.2990 C   0  0  0  0  0  3  0  0  0  0  0  0
  161.6470  200.1920  147.7690 N   0  0  0  0  0  2  0  0  0  0  0  0
  161.5770  199.6070  146.5500 O   0  0  0  0  0  1  0  0  0  0  0  0
  163.0490  205.9500  146.1530 C   0  0  0  0  0  2  0  0  0  0  0  0
  163.7800  204.6990  146.2540 N   0  0  0  0  0  1  0  0  0  0  0  0
  161.7360  204.0510  151.7560 C   0  0  0  0  0  1  0  0  0  0  0  0
  162.4390  205.3840  151.5770 C   0  0  0  0  0  2  0  0  0  0  0  0
  2  1  1  0  0  0  0
  3  1  2  0  0  0  0
  4  2  1  0  0  0  0
  5  7  1  0  0  0  0
  5  6  2  0  0  0  0
  6  3  1  0  0  0  0
  7  4  2  0  0  0  0
  8 15  1  0  0  0  0
  8 13  1  0  0  0  0
  9 11  1  0  0  0  0
  9 13  1  0  0  0  0
 10 15  2  0  0  0  0
 14  1  1  6  0  0  0
 14 11  1  0  0  0  0
 14 12  1  0  0  0  0
 15 12  1  0  0  0  0
 16 19  1  6  0  0  0
 16  8  1  0  0  0  0
 16 17  1  0  0  0  0
 17 18  1  0  0  0  0
 20 23  1  0  0  0  0
 21 22  1  0  0  0  0
 22 23  1  0  0  0  0
 23 19  1  1  0  0  0
 24 20  1  0  0  0  0
 25 24  1  0  0  0  0
 25 21  2  0  0  0  0
 26 27  2  0  0  0  0
 27  5  1  0  0  0  0
 28 27  1  0  0  0  0
 29 28  1  0  0  0  0
 30 43  1  6  0  0  0
 30 29  1  0  0  0  0
 31 32  2  0  0  0  0
 33 34  1  0  0  0  0
 33 36  1  0  0  0  0
 34 37  1  0  0  0  0
 35 31  1  0  0  0  0
 35 38  1  0  0  0  0
 36 35  1  0  0  0  0
 37 30  1  6  0  0  0
 37 31  1  0  0  0  0
 38 40  1  1  0  0  0
 40 39  2  0  0  0  0
 41 38  1  0  0  0  0
 42 41  1  0  0  0  0
 43 44  1  0  0  0  0
 46 45  1  0  0  0  0
 46  7  1  0  0  0  0
M  END
>  <MODEL>
4

>  <REMARK>
 VINA RESULT:      -5.1      1.344      1.753
  Name = 
  15 active torsions:
  status: ('A' for Active; 'I' for Inactive)
    1  A    between atoms: N_2  and  C_7
    2  A    between atoms: N_4  and  C_15
    3  A    between atoms: C_6  and  C_23
    4  A    between atoms: C_7  and  N_30
    5  A    between atoms: C_7  and  C_34
    6  A    between atoms: C_8  and  C_35
    7  A    between atoms: C_15  and  C_22
    8  A    between atoms: C_15  and  C_24
    9  A    between atoms: C_22  and  C_32
   10  A    between atoms: C_23  and  C_43
   11  A    between atoms: C_23  and  C_45
   12  A    between atoms: C_27  and  C_33
   13  A    between atoms: O_29  and  C_33
   14  A    between atoms: O_29  and  C_45
   15  A    between atoms: C_37  and  C_41
                            x       y       z     vdW  Elec       q    Type
                         _______ _______ _______ _____ _____    ______ ____

>  <TORSDO>
F 15

$$$$
=
 OpenBabel11072413563D

 46 49  0  0  1  0  0  0  0  0999 V2000
  161.3230  208.7030  153.8050 C   0  0  0  0  0  0  0  0  0  0  0  0
  162.1100  209.9670  153.6430 C   0  0  0  0  0  2  0  0  0  0  0  0
  161.0480  207.9430  152.7380 C   0  0  0  0  0  3  0  0  0  0  0  0
  161.3660  210.9400  152.7940 C   0  0  0  0  0  3  0  0  0  0  0  0
  161.4970  209.4800  150.7810 C   0  0  0  0  0  0  0  0  0  0  0  0
  161.4260  208.2630  151.3470 C   0  0  0  0  0  3  0  0  0  0  0  0
  161.1000  210.7260  151.5030 C   0  0  0  0  0  0  0  0  0  0  0  0
  159.6330  211.0990  156.1350 N   0  0  0  0  0  0  0  0  0  0  0  0
  162.1660  210.3130  156.5490 S   0  0  0  0  0  0  0  0  0  0  0  0
  158.1150  210.4010  154.4940 O   0  0  0  0  0  0  0  0  0  0  0  0
  161.7380  208.5540  156.3520 C   0  0  0  0  0  2  0  0  0  0  0  0
  159.3370  208.6270  155.4870 C   0  0  0  0  0  2  0  0  0  0  0  0
  160.5350  210.7410  157.2200 C   0  0  0  0  0  2  0  0  0  0  0  0
  160.8010  208.2890  155.1690 C   0  0  1  0  0  3  0  0  0  0  0  0
  158.9940  210.0820  155.3380 C   0  0  0  0  0  0  0  0  0  0  0  0
  159.4090  212.5280  155.9040 C   0  0  2  0  0  3  0  0  0  0  0  0
  160.4380  213.3610  156.6530 C   0  0  0  0  0  2  0  0  0  0  0  0
  159.8160  214.4530  157.2600 O   0  0  0  0  0  1  0  0  0  0  0  0
  157.9880  212.9450  156.2860 C   0  0  0  0  0  2  0  0  0  0  0  0
  157.9130  213.1590  153.8040 C   0  0  0  0  0  2  0  0  0  0  0  0
  155.0890  213.5960  153.8410 C   0  0  0  0  0  3  0  0  0  0  0  0
  155.7900  213.1370  155.0940 C   0  0  0  0  0  2  0  0  0  0  0  0
  157.2540  213.5760  155.1130 C   0  0  1  0  0  3  0  0  0  0  0  0
  157.2650  213.9190  152.6470 C   0  0  0  0  0  2  0  0  0  0  0  0
  155.7570  213.9060  152.7190 C   0  0  0  0  0  3  0  0  0  0  0  0
  161.8650  210.6950  148.7820 O   0  0  0  0  0  0  0  0  0  0  0  0
  161.9720  209.5890  149.3740 C   0  0  0  0  0  0  0  0  0  0  0  0
  162.5870  208.5360  148.6840 O   0  0  0  0  0  0  0  0  0  0  0  0
  162.6320  207.1960  149.1540 C   0  0  0  0  0  2  0  0  0  0  0  0
  161.7130  206.2920  148.3350 C   0  0  2  0  0  3  0  0  0  0  0  0
  161.6370  203.7880  147.6890 C   0  0  0  0  0  0  0  0  0  0  0  0
  162.1060  204.0110  146.5420 O   0  0  0  0  0  0  0  0  0  0  0  0
  160.7830  203.1390  150.3460 C   0  0  0  0  0  2  0  0  0  0  0  0
  160.7910  204.5990  149.9260 C   0  0  0  0  0  2  0  0  0  0  0  0
  161.0750  202.4970  147.9910 N   0  0  0  0  0  0  0  0  0  0  0  0
  160.2560  202.3020  149.1890 C   0  0  0  0  0  2  0  0  0  0  0  0
  161.7820  204.8260  148.7880 C   0  0  2  0  0  3  0  0  0  0  0  0
  161.2360  201.4000  147.0380 C   0  0  2  0  0  3  0  0  0  0  0  0
  159.9900  201.0330  145.0670 O   0  0  0  0  0  0  0  0  0  0  0  0
  159.9660  201.1750  146.2790 C   0  0  0  0  0  3  0  0  0  0  0  0
  161.6350  200.1850  147.7340 N   0  0  0  0  0  2  0  0  0  0  0  0
  161.7990  199.2290  146.7890 O   0  0  0  0  0  1  0  0  0  0  0  0
  161.8520  206.4900  146.8270 C   0  0  0  0  0  2  0  0  0  0  0  0
  160.5420  206.6570  146.2230 N   0  0  0  0  0  1  0  0  0  0  0  0
  160.2420  213.0360  151.6380 C   0  0  0  0  0  1  0  0  0  0  0  0
  160.3560  211.7940  150.7730 C   0  0  0  0  0  2  0  0  0  0  0  0
  2  1  1  0  0  0  0
  3  1  2  0  0  0  0
  4  2  1  0  0  0  0
  5  6  2  0  0  0  0
  5  7  1  0  0  0  0
  6  3  1  0  0  0  0
  7  4  2  0  0  0  0
  8 13  1  0  0  0  0
  9 13  1  0  0  0  0
 10 15  2  0  0  0  0
 11  9  1  0  0  0  0
 14  1  1  6  0  0  0
 14 12  1  0  0  0  0
 14 11  1  0  0  0  0
 15 12  1  0  0  0  0
 15  8  1  0  0  0  0
 16  8  1  0  0  0  0
 16 19  1  1  0  0  0
 16 17  1  0  0  0  0
 17 18  1  0  0  0  0
 20 23  1  0  0  0  0
 21 22  1  0  0  0  0
 22 23  1  0  0  0  0
 23 19  1  1  0  0  0
 24 25  1  0  0  0  0
 24 20  1  0  0  0  0
 25 21  2  0  0  0  0
 26 27  2  0  0  0  0
 27  5  1  0  0  0  0
 28 29  1  0  0  0  0
 28 27  1  0  0  0  0
 30 43  1  6  0  0  0
 30 29  1  0  0  0  0
 31 35  1  0  0  0  0
 31 37  1  0  0  0  0
 32 31  2  0  0  0  0
 34 33  1  0  0  0  0
 35 36  1  0  0  0  0
 36 33  1  0  0  0  0
 37 30  1  6  0  0  0
 37 34  1  0  0  0  0
 38 40  1  1  0  0  0
 38 41  1  0  0  0  0
 38 35  1  0  0  0  0
 39 40  2  0  0  0  0
 42 41  1  0  0  0  0
 44 43  1  0  0  0  0
 46  7  1  0  0  0  0
 46 45  1  0  0  0  0
M  END
>  <MODEL>
5

>  <REMARK>
 VINA RESULT:      -5.0      1.286      2.486
  Name = 
  15 active torsions:
  status: ('A' for Active; 'I' for Inactive)
    1  A    between atoms: N_2  and  C_7
    2  A    between atoms: N_4  and  C_15
    3  A    between atoms: C_6  and  C_23
    4  A    between atoms: C_7  and  N_30
    5  A    between atoms: C_7  and  C_34
    6  A    between atoms: C_8  and  C_35
    7  A    between atoms: C_15  and  C_22
    8  A    between atoms: C_15  and  C_24
    9  A    between atoms: C_22  and  C_32
   10  A    between atoms: C_23  and  C_43
   11  A    between atoms: C_23  and  C_45
   12  A    between atoms: C_27  and  C_33
   13  A    between atoms: O_29  and  C_33
   14  A    between atoms: O_29  and  C_45
   15  A    between atoms: C_37  and  C_41
                            x       y       z     vdW  Elec       q    Type
                         _______ _______ _______ _____ _____    ______ ____

>  <TORSDO>
F 15

$$$$
=
 OpenBabel11072413563D

 46 49  0  0  1  0  0  0  0  0999 V2000
  159.6000  212.2090  151.6390 C   0  0  0  0  0  0  0  0  0  0  0  0
  158.5720  211.4470  152.4170 C   0  0  0  0  0  2  0  0  0  0  0  0
  160.7230  211.6010  151.2350 C   0  0  0  0  0  3  0  0  0  0  0  0
  159.1310  211.0010  153.7240 C   0  0  0  0  0  3  0  0  0  0  0  0
  160.8020  209.5030  152.6440 C   0  0  0  0  0  0  0  0  0  0  0  0
  161.0820  210.1990  151.5300 C   0  0  0  0  0  3  0  0  0  0  0  0
  160.1280  210.1180  153.8270 C   0  0  0  0  0  0  0  0  0  0  0  0
  159.0480  213.4880  148.1620 N   0  0  0  0  0  0  0  0  0  0  0  0
  161.4180  213.7790  149.3880 S   0  0  0  0  0  0  0  0  0  0  0  0
  157.0470  212.6010  148.9970 O   0  0  0  0  0  0  0  0  0  0  0  0
  160.6480  214.4530  150.8950 C   0  0  0  0  0  2  0  0  0  0  0  0
  158.1550  214.0560  150.5080 C   0  0  0  0  0  2  0  0  0  0  0  0
  160.1280  214.4530  148.3040 C   0  0  0  0  0  2  0  0  0  0  0  0
  159.3980  213.6810  151.3300 C   0  0  1  0  0  3  0  0  0  0  0  0
  158.0490  213.3400  149.1920 C   0  0  0  0  0  0  0  0  0  0  0  0
  159.0280  212.6920  146.9340 C   0  0  2  0  0  3  0  0  0  0  0  0
  160.4190  212.1690  146.6090 C   0  0  0  0  0  2  0  0  0  0  0  0
  160.9190  211.4410  147.6890 O   0  0  0  0  0  1  0  0  0  0  0  0
  158.4560  213.4850  145.7570 C   0  0  0  0  0  2  0  0  0  0  0  0
  158.5430  213.7320  143.2780 C   0  0  0  0  0  2  0  0  0  0  0  0
  161.3260  214.3770  143.3540 C   0  0  0  0  0  3  0  0  0  0  0  0
  160.5360  214.3270  144.6360 C   0  0  0  0  0  2  0  0  0  0  0  0
  159.3430  213.3780  144.5260 C   0  0  1  0  0  3  0  0  0  0  0  0
  159.3980  213.4730  142.0380 C   0  0  0  0  0  2  0  0  0  0  0  0
  160.7940  214.0330  142.1700 C   0  0  0  0  0  3  0  0  0  0  0  0
  161.1870  207.4880  153.8290 O   0  0  0  0  0  0  0  0  0  0  0  0
  161.1970  208.0690  152.7110 C   0  0  0  0  0  0  0  0  0  0  0  0
  161.5290  207.3070  151.5830 O   0  0  0  0  0  0  0  0  0  0  0  0
  160.5740  206.7180  150.7120 C   0  0  0  0  0  2  0  0  0  0  0  0
  161.2430  206.1450  149.4640 C   0  0  2  0  0  3  0  0  0  0  0  0
  161.3820  203.8460  148.2850 C   0  0  0  0  0  0  0  0  0  0  0  0
  161.7510  204.3640  147.1970 O   0  0  0  0  0  0  0  0  0  0  0  0
  160.7720  202.5470  150.7640 C   0  0  0  0  0  2  0  0  0  0  0  0
  160.6030  204.0550  150.6780 C   0  0  0  0  0  2  0  0  0  0  0  0
  160.9760  202.4650  148.3160 N   0  0  0  0  0  0  0  0  0  0  0  0
  160.2610  201.9250  149.4730 C   0  0  0  0  0  2  0  0  0  0  0  0
  161.4910  204.6330  149.5790 C   0  0  2  0  0  3  0  0  0  0  0  0
  161.1870  201.6260  147.1380 C   0  0  2  0  0  3  0  0  0  0  0  0
  159.8420  200.9210  145.3300 O   0  0  0  0  0  0  0  0  0  0  0  0
  159.8790  201.2890  146.4930 C   0  0  0  0  0  3  0  0  0  0  0  0
  161.8980  200.4110  147.5080 N   0  0  0  0  0  2  0  0  0  0  0  0
  161.3900  199.4120  146.7490 O   0  0  0  0  0  1  0  0  0  0  0  0
  162.4570  206.9470  149.0040 C   0  0  0  0  0  2  0  0  0  0  0  0
  162.6050  206.8430  147.5620 N   0  0  0  0  0  1  0  0  0  0  0  0
  159.3780  209.5620  156.1120 C   0  0  0  0  0  1  0  0  0  0  0  0
  160.5780  209.7540  155.2030 C   0  0  0  0  0  2  0  0  0  0  0  0
  1  2  1  0  0  0  0
  2  4  1  0  0  0  0
  3  6  1  0  0  0  0
  3  1  2  0  0  0  0
  4  7  2  0  0  0  0
  5 27  1  0  0  0  0
  5  7  1  0  0  0  0
  6  5  2  0  0  0  0
  7 46  1  0  0  0  0
  8 13  1  0  0  0  0
  8 15  1  0  0  0  0
  9 11  1  0  0  0  0
 10 15  2  0  0  0  0
 11 14  1  0  0  0  0
 12 14  1  0  0  0  0
 13  9  1  0  0  0  0
 14  1  1  6  0  0  0
 15 12  1  0  0  0  0
 16 19  1  6  0  0  0
 16  8  1  0  0  0  0
 17 16  1  0  0  0  0
 17 18  1  0  0  0  0
 20 23  1  0  0  0  0
 21 22  1  0  0  0  0
 23 22  1  0  0  0  0
 23 19  1  1  0  0  0
 24 25  1  0  0  0  0
 24 20  1  0  0  0  0
 25 21  2  0  0  0  0
 27 26  2  0  0  0  0
 28 27  1  0  0  0  0
 29 28  1  0  0  0  0
 30 43  1  1  0  0  0
 30 29  1  0  0  0  0
 31 35  1  0  0  0  0
 31 37  1  0  0  0  0
 32 31  2  0  0  0  0
 34 33  1  0  0  0  0
 35 36  1  0  0  0  0
 36 33  1  0  0  0  0
 37 30  1  6  0  0  0
 37 34  1  0  0  0  0
 38 40  1  1  0  0  0
 38 41  1  0  0  0  0
 38 35  1  0  0  0  0
 39 40  2  0  0  0  0
 42 41  1  0  0  0  0
 44 43  1  0  0  0  0
 46 45  1  0  0  0  0
M  END
>  <MODEL>
6

>  <REMARK>
 VINA RESULT:      -4.9      3.843      6.097
  Name = 
  15 active torsions:
  status: ('A' for Active; 'I' for Inactive)
    1  A    between atoms: N_2  and  C_7
    2  A    between atoms: N_4  and  C_15
    3  A    between atoms: C_6  and  C_23
    4  A    between atoms: C_7  and  N_30
    5  A    between atoms: C_7  and  C_34
    6  A    between atoms: C_8  and  C_35
    7  A    between atoms: C_15  and  C_22
    8  A    between atoms: C_15  and  C_24
    9  A    between atoms: C_22  and  C_32
   10  A    between atoms: C_23  and  C_43
   11  A    between atoms: C_23  and  C_45
   12  A    between atoms: C_27  and  C_33
   13  A    between atoms: O_29  and  C_33
   14  A    between atoms: O_29  and  C_45
   15  A    between atoms: C_37  and  C_41
                            x       y       z     vdW  Elec       q    Type
                         _______ _______ _______ _____ _____    ______ ____

>  <TORSDO>
F 15

$$$$
