=
 OpenBabel11072411103D

 30 33  0  0  1  0  0  0  0  0999 V2000
  161.9340  209.1140  150.0760 C   0  0  0  0  0  2  0  0  0  0  0  0
  160.8100  205.5340  149.3390 C   0  0  0  0  0  2  0  0  0  0  0  0
  162.1890  208.1720  151.2560 C   0  0  2  0  0  3  0  0  0  0  0  0
  162.4880  207.2540  148.4630 C   0  0  0  0  0  2  0  0  0  0  0  0
  161.7560  205.9340  148.2070 C   0  0  2  0  0  3  0  0  0  0  0  0
  161.8500  206.0440  151.6010 N   0  0  1  0  0  0  0  0  0  0  0  0
  161.5180  208.3820  148.8040 C   0  0  0  0  0  2  0  0  0  0  0  0
  161.1830  207.2030  151.3500 O   0  0  0  0  0  0  0  0  0  0  0  0
  161.0090  205.2710  152.5070 C   0  0  0  0  0  2  0  0  0  0  0  0
  160.6870  204.2240  151.4630 C   0  0  0  0  0  2  0  0  0  0  0  0
  161.5860  205.0320  150.5610 C   0  0  1  0  0  3  0  0  0  0  0  0
  161.8010  203.1960  147.6290 O   0  0  0  0  0  0  0  0  0  0  0  0
  161.2460  203.4130  146.5200 C   0  0  0  0  0  0  0  0  0  0  0  0
  160.8520  204.7360  146.1310 N   0  0  0  0  0  2  0  0  0  0  0  0
  160.6290  207.0280  146.4070 O   0  0  0  0  0  0  0  0  0  0  0  0
  161.0500  205.9400  146.8830 C   0  0  0  0  0  0  0  0  0  0  0  0
  160.9610  202.2720  145.6100 C   0  0  0  0  0  2  0  0  0  0  0  0
  160.9030  200.9820  146.4040 C   0  0  0  0  0  1  0  0  0  0  0  0
  162.2680  208.9650  152.5520 C   0  0  0  0  0  2  0  0  0  0  0  0
  160.7350  206.9410  156.2240 C   0  0  0  0  0  2  0  0  0  0  0  0
  160.4940  209.3370  156.8940 C   0  0  0  0  0  2  0  0  0  0  0  0
  159.9560  207.9200  157.0960 C   0  0  0  0  0  2  0  0  0  0  0  0
  160.8760  209.2760  153.0890 C   0  0  2  0  0  3  0  0  0  0  0  0
  160.6330  209.6800  155.4340 C   0  0  0  0  0  0  0  0  0  0  0  0
  160.6860  210.7510  153.2210 C   0  0  0  0  0  0  0  0  0  0  0  0
  160.8810  211.3630  154.8900 S   0  0  0  0  0  0  0  0  0  0  0  0
  160.7380  208.7490  154.4770 C   0  0  0  0  0  0  0  0  0  0  0  0
  159.0960  211.9430  151.6360 O   0  0  0  0  0  0  0  0  0  0  0  0
  160.5280  207.2800  154.7480 C   0  0  0  0  0  2  0  0  0  0  0  0
  159.8700  211.3620  152.4080 C   0  0  0  0  0  0  0  0  0  0  0  0
  1  3  1  0  0  0  0
  3  8  1  0  0  0  0
  3 19  1  1  0  0  0
  4  7  1  0  0  0  0
  5 16  1  6  0  0  0
  5  4  1  0  0  0  0
  5  2  1  0  0  0  0
  6  9  1  1  0  0  0
  7  1  1  0  0  0  0
  8  6  1  0  0  0  0
 10  9  1  0  0  0  0
 11  2  1  6  0  0  0
 11 10  1  0  0  0  0
 11  6  1  0  0  0  0
 13 12  2  0  0  0  0
 14 13  1  0  0  0  0
 14 16  1  0  0  0  0
 15 16  2  0  0  0  0
 17 18  1  0  0  0  0
 17 13  1  0  0  0  0
 20 22  1  0  0  0  0
 21 22  1  0  0  0  0
 23 19  1  1  0  0  0
 23 25  1  0  0  0  0
 23 27  1  0  0  0  0
 24 21  1  0  0  0  0
 25 26  1  0  0  0  0
 26 24  1  0  0  0  0
 27 29  1  0  0  0  0
 27 24  2  0  0  0  0
 28 30  2  0  0  0  0
 29 20  1  0  0  0  0
 30 25  2  0  0  0  0
M  END
>  <MODEL>
1

>  <REMARK>
 VINA RESULT:      -8.1      0.000      0.000
  Name = 
  4 active torsions:
  status: ('A' for Active; 'I' for Inactive)
    1  A    between atoms: C_5  and  C_6
    2  A    between atoms: C_5  and  C_13
    3  A    between atoms: C_10  and  C_27
    4  A    between atoms: C_11  and  C_14
                            x       y       z     vdW  Elec       q    Type
                         _______ _______ _______ _____ _____    ______ ____

>  <TORSDO>
F 4

$$$$
=
 OpenBabel11072411103D

 30 33  0  0  1  0  0  0  0  0999 V2000
  161.6230  205.8480  152.7000 C   0  0  0  0  0  2  0  0  0  0  0  0
  161.6350  204.6120  149.0800 C   0  0  0  0  0  2  0  0  0  0  0  0
  161.3880  206.9830  151.6990 C   0  0  2  0  0  3  0  0  0  0  0  0
  160.3000  204.2750  151.2360 C   0  0  0  0  0  2  0  0  0  0  0  0
  160.6070  203.7610  149.8270 C   0  0  2  0  0  3  0  0  0  0  0  0
  161.2440  207.0840  149.5230 N   0  0  1  0  0  0  0  0  0  0  0  0
  161.5710  204.4650  152.0590 C   0  0  0  0  0  2  0  0  0  0  0  0
  162.1150  206.7720  150.5210 O   0  0  0  0  0  0  0  0  0  0  0  0
  162.0310  207.7130  148.4700 C   0  0  0  0  0  2  0  0  0  0  0  0
  161.8580  206.5500  147.5180 C   0  0  0  0  0  2  0  0  0  0  0  0
  161.0250  205.9400  148.6190 C   0  0  1  0  0  3  0  0  0  0  0  0
  160.4840  203.2090  147.0860 O   0  0  0  0  0  0  0  0  0  0  0  0
  160.7780  202.0050  147.3080 C   0  0  0  0  0  0  0  0  0  0  0  0
  161.0530  201.5380  148.6350 N   0  0  0  0  0  2  0  0  0  0  0  0
  161.2910  201.7570  150.9320 O   0  0  0  0  0  0  0  0  0  0  0  0
  161.0050  202.3140  149.8390 C   0  0  0  0  0  0  0  0  0  0  0  0
  160.8750  201.0550  146.1670 C   0  0  0  0  0  2  0  0  0  0  0  0
  160.0480  201.5620  145.0030 C   0  0  0  0  0  1  0  0  0  0  0  0
  161.7790  208.3170  152.3180 C   0  0  0  0  0  2  0  0  0  0  0  0
  160.5400  206.8900  156.3630 C   0  0  0  0  0  2  0  0  0  0  0  0
  160.9150  209.3160  156.8340 C   0  0  0  0  0  2  0  0  0  0  0  0
  160.1440  208.0640  157.2510 C   0  0  0  0  0  2  0  0  0  0  0  0
  160.5970  208.9520  153.0390 C   0  0  2  0  0  3  0  0  0  0  0  0
  160.8600  209.5350  155.3440 C   0  0  0  0  0  0  0  0  0  0  0  0
  160.7380  210.4390  153.0610 C   0  0  0  0  0  0  0  0  0  0  0  0
  161.3470  211.0900  154.6120 S   0  0  0  0  0  0  0  0  0  0  0  0
  160.6030  208.5500  154.4750 C   0  0  0  0  0  0  0  0  0  0  0  0
  159.1700  211.8530  151.6450 O   0  0  0  0  0  0  0  0  0  0  0  0
  160.1490  207.1800  154.9140 C   0  0  0  0  0  2  0  0  0  0  0  0
  159.9340  211.1640  152.3350 C   0  0  0  0  0  0  0  0  0  0  0  0
  2  5  1  0  0  0  0
  3 19  1  1  0  0  0
  3  1  1  0  0  0  0
  4  7  1  0  0  0  0
  5 16  1  1  0  0  0
  5  4  1  0  0  0  0
  6  9  1  6  0  0  0
  6  8  1  0  0  0  0
  7  1  1  0  0  0  0
  8  3  1  0  0  0  0
 10  9  1  0  0  0  0
 11 10  1  6  0  0  0
 11  2  1  0  0  0  0
 11  6  1  0  0  0  0
 12 13  2  0  0  0  0
 13 14  1  0  0  0  0
 14 16  1  0  0  0  0
 16 15  2  0  0  0  0
 17 13  1  0  0  0  0
 18 17  1  0  0  0  0
 20 22  1  0  0  0  0
 21 22  1  0  0  0  0
 23 19  1  6  0  0  0
 23 25  1  0  0  0  0
 23 27  1  0  0  0  0
 24 21  1  0  0  0  0
 25 26  1  0  0  0  0
 26 24  1  0  0  0  0
 27 29  1  0  0  0  0
 27 24  2  0  0  0  0
 28 30  2  0  0  0  0
 29 20  1  0  0  0  0
 30 25  2  0  0  0  0
M  END
>  <MODEL>
2

>  <REMARK>
 VINA RESULT:      -8.0      1.441      2.795
  Name = 
  4 active torsions:
  status: ('A' for Active; 'I' for Inactive)
    1  A    between atoms: C_5  and  C_6
    2  A    between atoms: C_5  and  C_13
    3  A    between atoms: C_10  and  C_27
    4  A    between atoms: C_11  and  C_14
                            x       y       z     vdW  Elec       q    Type
                         _______ _______ _______ _____ _____    ______ ____

>  <TORSDO>
F 4

$$$$
=
 OpenBabel11072411103D

 30 33  0  0  1  0  0  0  0  0999 V2000
  162.2610  208.7160  149.9640 C   0  0  0  0  0  2  0  0  0  0  0  0
  161.4700  208.3270  153.6850 C   0  0  0  0  0  2  0  0  0  0  0  0
  161.7340  207.3190  150.3010 C   0  0  2  0  0  3  0  0  0  0  0  0
  160.7100  209.7220  151.6810 C   0  0  0  0  0  2  0  0  0  0  0  0
  160.6970  209.5550  153.2040 C   0  0  2  0  0  3  0  0  0  0  0  0
  161.0680  206.3490  152.1400 N   0  0  1  0  0  0  0  0  0  0  0  0
  162.1290  209.7010  151.1210 C   0  0  0  0  0  2  0  0  0  0  0  0
  162.1670  206.9110  151.5690 O   0  0  0  0  0  0  0  0  0  0  0  0
  161.5460  205.2300  152.9430 C   0  0  0  0  0  2  0  0  0  0  0  0
  161.2110  205.9070  154.2540 C   0  0  0  0  0  2  0  0  0  0  0  0
  160.6990  207.0350  153.3920 C   0  0  1  0  0  3  0  0  0  0  0  0
  158.3530  211.0780  153.0700 O   0  0  0  0  0  0  0  0  0  0  0  0
  158.9410  212.0430  153.6250 C   0  0  0  0  0  0  0  0  0  0  0  0
  160.3030  211.9370  154.0570 N   0  0  0  0  0  2  0  0  0  0  0  0
  162.3350  210.8580  154.3530 O   0  0  0  0  0  0  0  0  0  0  0  0
  161.1610  210.7990  153.9020 C   0  0  0  0  0  0  0  0  0  0  0  0
  158.1960  213.3080  153.8690 C   0  0  0  0  0  2  0  0  0  0  0  0
  156.7400  213.0020  154.1540 C   0  0  0  0  0  1  0  0  0  0  0  0
  162.1910  206.3180  149.2500 C   0  0  0  0  0  2  0  0  0  0  0  0
  160.7800  206.2490  145.0150 C   0  0  0  0  0  2  0  0  0  0  0  0
  161.3200  203.8320  145.3520 C   0  0  0  0  0  2  0  0  0  0  0  0
  160.4530  204.8260  144.5780 C   0  0  0  0  0  2  0  0  0  0  0  0
  161.0450  205.4080  148.8270 C   0  0  2  0  0  3  0  0  0  0  0  0
  161.3080  204.1140  146.8320 C   0  0  0  0  0  0  0  0  0  0  0  0
  161.2920  204.0090  149.2880 C   0  0  0  0  0  0  0  0  0  0  0  0
  161.9180  202.9220  148.0130 S   0  0  0  0  0  0  0  0  0  0  0  0
  160.9960  205.3130  147.3390 C   0  0  0  0  0  0  0  0  0  0  0  0
  159.8560  203.0480  151.1520 O   0  0  0  0  0  0  0  0  0  0  0  0
  160.4360  206.4300  146.4940 C   0  0  0  0  0  2  0  0  0  0  0  0
  160.5550  203.5160  150.2440 C   0  0  0  0  0  0  0  0  0  0  0  0
  1  3  1  0  0  0  0
  1  7  1  0  0  0  0
  3 19  1  6  0  0  0
  3  8  1  0  0  0  0
  4  5  1  0  0  0  0
  5  2  1  0  0  0  0
  5 16  1  1  0  0  0
  6  9  1  1  0  0  0
  6 11  1  0  0  0  0
  7  4  1  0  0  0  0
  8  6  1  0  0  0  0
  9 10  1  0  0  0  0
 11  2  1  1  0  0  0
 11 10  1  0  0  0  0
 12 13  2  0  0  0  0
 13 17  1  0  0  0  0
 13 14  1  0  0  0  0
 16 14  1  0  0  0  0
 16 15  2  0  0  0  0
 17 18  1  0  0  0  0
 20 29  1  0  0  0  0
 21 24  1  0  0  0  0
 22 20  1  0  0  0  0
 22 21  1  0  0  0  0
 23 19  1  6  0  0  0
 23 25  1  0  0  0  0
 24 27  2  0  0  0  0
 24 26  1  0  0  0  0
 25 30  2  0  0  0  0
 26 25  1  0  0  0  0
 27 23  1  0  0  0  0
 29 27  1  0  0  0  0
 30 28  2  0  0  0  0
M  END
>  <MODEL>
3

>  <REMARK>
 VINA RESULT:      -7.4      3.046      8.399
  Name = 
  4 active torsions:
  status: ('A' for Active; 'I' for Inactive)
    1  A    between atoms: C_5  and  C_6
    2  A    between atoms: C_5  and  C_13
    3  A    between atoms: C_10  and  C_27
    4  A    between atoms: C_11  and  C_14
                            x       y       z     vdW  Elec       q    Type
                         _______ _______ _______ _____ _____    ______ ____

>  <TORSDO>
F 4

$$$$
=
 OpenBabel11072411103D

 30 33  0  0  1  0  0  0  0  0999 V2000
  161.2110  204.5160  152.2330 C   0  0  0  0  0  2  0  0  0  0  0  0
  160.7800  208.2750  152.7910 C   0  0  0  0  0  2  0  0  0  0  0  0
  162.0330  205.3460  151.2440 C   0  0  2  0  0  3  0  0  0  0  0  0
  161.6510  206.2200  154.0410 C   0  0  0  0  0  2  0  0  0  0  0  0
  161.2050  207.6830  154.1350 C   0  0  2  0  0  3  0  0  0  0  0  0
  162.3260  207.4870  150.9330 N   0  0  1  0  0  0  0  0  0  0  0  0
  160.6020  205.3510  153.3550 C   0  0  0  0  0  2  0  0  0  0  0  0
  161.3630  206.5260  150.9010 O   0  0  0  0  0  0  0  0  0  0  0  0
  162.0140  208.4210  149.8580 C   0  0  0  0  0  2  0  0  0  0  0  0
  161.6360  209.5340  150.8100 C   0  0  0  0  0  2  0  0  0  0  0  0
  161.9940  208.5520  151.8970 C   0  0  1  0  0  3  0  0  0  0  0  0
  161.8190  210.2780  154.9810 O   0  0  0  0  0  0  0  0  0  0  0  0
  160.9010  210.2220  155.8410 C   0  0  0  0  0  0  0  0  0  0  0  0
  160.0540  209.0720  155.9530 N   0  0  0  0  0  2  0  0  0  0  0  0
  159.3050  206.9510  155.3840 O   0  0  0  0  0  0  0  0  0  0  0  0
  160.1400  207.8710  155.1740 C   0  0  0  0  0  0  0  0  0  0  0  0
  160.6690  211.3870  156.7360 C   0  0  0  0  0  2  0  0  0  0  0  0
  160.0840  212.5380  155.9430 C   0  0  0  0  0  1  0  0  0  0  0  0
  162.3260  204.5320  149.9930 C   0  0  0  0  0  2  0  0  0  0  0  0
  161.0580  206.6440  146.2690 C   0  0  0  0  0  2  0  0  0  0  0  0
  161.1020  204.2810  145.4560 C   0  0  0  0  0  2  0  0  0  0  0  0
  160.4710  205.6600  145.2630 C   0  0  0  0  0  2  0  0  0  0  0  0
  161.0370  204.1450  149.2790 C   0  0  2  0  0  3  0  0  0  0  0  0
  161.1010  203.8640  146.9040 C   0  0  0  0  0  0  0  0  0  0  0  0
  160.9900  202.6700  149.0510 C   0  0  0  0  0  0  0  0  0  0  0  0
  161.4280  202.1760  147.3890 S   0  0  0  0  0  0  0  0  0  0  0  0
  161.0150  204.7410  147.9120 C   0  0  0  0  0  0  0  0  0  0  0  0
  159.3370  201.2640  150.3740 O   0  0  0  0  0  0  0  0  0  0  0  0
  160.7120  206.2020  147.6910 C   0  0  0  0  0  2  0  0  0  0  0  0
  160.1420  201.9480  149.7290 C   0  0  0  0  0  0  0  0  0  0  0  0
  1  7  1  0  0  0  0
  2  5  1  0  0  0  0
  3 19  1  6  0  0  0
  3  1  1  0  0  0  0
  4  5  1  0  0  0  0
  5 16  1  1  0  0  0
  6  9  1  6  0  0  0
  6 11  1  0  0  0  0
  7  4  1  0  0  0  0
  8  6  1  0  0  0  0
  8  3  1  0  0  0  0
  9 10  1  0  0  0  0
 11 10  1  6  0  0  0
 11  2  1  0  0  0  0
 12 13  2  0  0  0  0
 13 14  1  0  0  0  0
 13 17  1  0  0  0  0
 16 15  2  0  0  0  0
 16 14  1  0  0  0  0
 18 17  1  0  0  0  0
 20 29  1  0  0  0  0
 21 24  1  0  0  0  0
 22 21  1  0  0  0  0
 22 20  1  0  0  0  0
 23 19  1  6  0  0  0
 24 26  1  0  0  0  0
 24 27  2  0  0  0  0
 25 23  1  0  0  0  0
 25 30  2  0  0  0  0
 26 25  1  0  0  0  0
 27 23  1  0  0  0  0
 29 27  1  0  0  0  0
 30 28  2  0  0  0  0
M  END
>  <MODEL>
4

>  <REMARK>
 VINA RESULT:      -6.7      3.112      8.724
  Name = 
  4 active torsions:
  status: ('A' for Active; 'I' for Inactive)
    1  A    between atoms: C_5  and  C_6
    2  A    between atoms: C_5  and  C_13
    3  A    between atoms: C_10  and  C_27
    4  A    between atoms: C_11  and  C_14
                            x       y       z     vdW  Elec       q    Type
                         _______ _______ _______ _____ _____    ______ ____

>  <TORSDO>
F 4

$$$$
=
 OpenBabel11072411103D

 30 33  0  0  1  0  0  0  0  0999 V2000
  160.8190  206.2890  154.5970 C   0  0  0  0  0  2  0  0  0  0  0  0
  161.9280  206.9200  150.9920 C   0  0  0  0  0  2  0  0  0  0  0  0
  160.6190  207.7470  154.1760 C   0  0  2  0  0  3  0  0  0  0  0  0
  160.2060  205.5270  152.2710 C   0  0  0  0  0  2  0  0  0  0  0  0
  160.9320  205.7610  150.9430 C   0  0  2  0  0  3  0  0  0  0  0  0
  160.9830  208.8600  152.3330 N   0  0  1  0  0  0  0  0  0  0  0  0
  161.1830  205.3740  153.4320 C   0  0  0  0  0  2  0  0  0  0  0  0
  161.6320  208.1610  153.3030 O   0  0  0  0  0  0  0  0  0  0  0  0
  161.8650  209.9560  151.9520 C   0  0  0  0  0  2  0  0  0  0  0  0
  162.1470  209.3750  150.5840 C   0  0  0  0  0  2  0  0  0  0  0  0
  161.2060  208.2720  151.0000 C   0  0  1  0  0  3  0  0  0  0  0  0
  160.6730  206.1650  148.1860 O   0  0  0  0  0  0  0  0  0  0  0  0
  161.1950  205.0400  147.9650 C   0  0  0  0  0  0  0  0  0  0  0  0
  161.6630  204.2130  149.0370 N   0  0  0  0  0  2  0  0  0  0  0  0
  162.0560  203.6770  151.2600 O   0  0  0  0  0  0  0  0  0  0  0  0
  161.5810  204.5060  150.4380 C   0  0  0  0  0  0  0  0  0  0  0  0
  161.3610  204.5770  146.5620 C   0  0  0  0  0  2  0  0  0  0  0  0
  162.7230  204.9900  146.0400 C   0  0  0  0  0  1  0  0  0  0  0  0
  160.5920  208.6480  155.4020 C   0  0  0  0  0  2  0  0  0  0  0  0
  157.4740  211.6320  154.2590 C   0  0  0  0  0  2  0  0  0  0  0  0
  158.5670  212.8260  156.1630 C   0  0  0  0  0  2  0  0  0  0  0  0
  157.7880  212.9980  154.8590 C   0  0  0  0  0  2  0  0  0  0  0  0
  160.9770  210.0770  155.0400 C   0  0  2  0  0  3  0  0  0  0  0  0
  159.7180  211.8670  156.0050 C   0  0  0  0  0  0  0  0  0  0  0  0
  161.8590  210.6620  156.0930 C   0  0  0  0  0  0  0  0  0  0  0  0
  161.0100  211.7490  157.2320 S   0  0  0  0  0  0  0  0  0  0  0  0
  159.7640  210.9440  155.0360 C   0  0  0  0  0  0  0  0  0  0  0  0
  164.3100  211.0780  155.5670 O   0  0  0  0  0  0  0  0  0  0  0  0
  158.7730  210.9110  153.8990 C   0  0  0  0  0  2  0  0  0  0  0  0
  163.1170  210.8760  155.8230 C   0  0  0  0  0  0  0  0  0  0  0  0
  2 11  1  0  0  0  0
  3  1  1  0  0  0  0
  3 19  1  1  0  0  0
  4  7  1  0  0  0  0
  5 16  1  1  0  0  0
  5  2  1  0  0  0  0
  5  4  1  0  0  0  0
  6  9  1  6  0  0  0
  6  8  1  0  0  0  0
  7  1  1  0  0  0  0
  8  3  1  0  0  0  0
 10  9  1  0  0  0  0
 11 10  1  6  0  0  0
 11  6  1  0  0  0  0
 13 12  2  0  0  0  0
 13 14  1  0  0  0  0
 14 16  1  0  0  0  0
 16 15  2  0  0  0  0
 17 13  1  0  0  0  0
 18 17  1  0  0  0  0
 20 22  1  0  0  0  0
 22 21  1  0  0  0  0
 23 19  1  1  0  0  0
 23 25  1  0  0  0  0
 24 21  1  0  0  0  0
 24 26  1  0  0  0  0
 25 26  1  0  0  0  0
 27 23  1  0  0  0  0
 27 24  2  0  0  0  0
 28 30  2  0  0  0  0
 29 20  1  0  0  0  0
 29 27  1  0  0  0  0
 30 25  2  0  0  0  0
M  END
>  <MODEL>
5

>  <REMARK>
 VINA RESULT:      -6.4      2.353      4.090
  Name = 
  4 active torsions:
  status: ('A' for Active; 'I' for Inactive)
    1  A    between atoms: C_5  and  C_6
    2  A    between atoms: C_5  and  C_13
    3  A    between atoms: C_10  and  C_27
    4  A    between atoms: C_11  and  C_14
                            x       y       z     vdW  Elec       q    Type
                         _______ _______ _______ _____ _____    ______ ____

>  <TORSDO>
F 4

$$$$
=
 OpenBabel11072411103D

 30 33  0  0  1  0  0  0  0  0999 V2000
  160.9300  209.1300  153.6820 C   0  0  0  0  0  2  0  0  0  0  0  0
  162.4290  207.4810  150.5730 C   0  0  0  0  0  2  0  0  0  0  0  0
  160.6890  209.9550  152.4150 C   0  0  2  0  0  3  0  0  0  0  0  0
  160.6580  207.0010  152.3550 C   0  0  0  0  0  2  0  0  0  0  0  0
  161.5250  206.4350  151.2260 C   0  0  2  0  0  3  0  0  0  0  0  0
  161.2020  209.6910  150.3090 N   0  0  1  0  0  0  0  0  0  0  0  0
  161.4940  207.7420  153.3940 C   0  0  0  0  0  2  0  0  0  0  0  0
  161.7720  209.8510  151.5340 O   0  0  0  0  0  0  0  0  0  0  0  0
  162.0510  210.4020  149.3610 C   0  0  0  0  0  2  0  0  0  0  0  0
  162.5360  209.1310  148.7000 C   0  0  0  0  0  2  0  0  0  0  0  0
  161.6250  208.4280  149.6760 C   0  0  1  0  0  3  0  0  0  0  0  0
  160.1240  204.4120  149.8940 O   0  0  0  0  0  0  0  0  0  0  0  0
  160.8650  203.5420  150.4220 C   0  0  0  0  0  0  0  0  0  0  0  0
  161.9500  203.9100  151.2840 N   0  0  0  0  0  2  0  0  0  0  0  0
  163.3080  205.4000  152.4320 O   0  0  0  0  0  0  0  0  0  0  0  0
  162.3120  205.2400  151.6770 C   0  0  0  0  0  0  0  0  0  0  0  0
  160.6320  202.1040  150.1190 C   0  0  0  0  0  2  0  0  0  0  0  0
  160.9370  201.8290  148.6610 C   0  0  0  0  0  1  0  0  0  0  0  0
  160.4530  211.4140  152.7760 C   0  0  0  0  0  2  0  0  0  0  0  0
  158.0410  211.4470  156.5330 C   0  0  0  0  0  2  0  0  0  0  0  0
  157.6170  213.7660  155.7020 C   0  0  0  0  0  2  0  0  0  0  0  0
  157.0560  212.6110  156.5320 C   0  0  0  0  0  2  0  0  0  0  0  0
  158.9670  211.7510  152.7440 C   0  0  2  0  0  3  0  0  0  0  0  0
  158.1250  213.2970  154.3640 C   0  0  0  0  0  0  0  0  0  0  0  0
  158.7380  213.0240  151.9980 C   0  0  0  0  0  0  0  0  0  0  0  0
  158.4920  214.4500  153.0500 S   0  0  0  0  0  0  0  0  0  0  0  0
  158.4800  212.0290  154.1270 C   0  0  0  0  0  0  0  0  0  0  0  0
  157.6010  212.9400  149.7260 O   0  0  0  0  0  0  0  0  0  0  0  0
  158.2190  210.9150  155.1110 C   0  0  0  0  0  2  0  0  0  0  0  0
  158.1540  212.9810  150.8330 C   0  0  0  0  0  0  0  0  0  0  0  0
  2  5  1  0  0  0  0
  3 19  1  1  0  0  0
  3  1  1  0  0  0  0
  4  7  1  0  0  0  0
  5 16  1  1  0  0  0
  5  4  1  0  0  0  0
  6  9  1  6  0  0  0
  6  8  1  0  0  0  0
  7  1  1  0  0  0  0
  8  3  1  0  0  0  0
 10  9  1  0  0  0  0
 11 10  1  6  0  0  0
 11  6  1  0  0  0  0
 11  2  1  0  0  0  0
 12 13  2  0  0  0  0
 13 14  1  0  0  0  0
 14 16  1  0  0  0  0
 16 15  2  0  0  0  0
 17 13  1  0  0  0  0
 18 17  1  0  0  0  0
 21 22  1  0  0  0  0
 22 20  1  0  0  0  0
 23 19  1  1  0  0  0
 23 27  1  0  0  0  0
 24 21  1  0  0  0  0
 25 23  1  0  0  0  0
 25 26  1  0  0  0  0
 26 24  1  0  0  0  0
 27 24  2  0  0  0  0
 27 29  1  0  0  0  0
 28 30  2  0  0  0  0
 29 20  1  0  0  0  0
 30 25  2  0  0  0  0
M  END
>  <MODEL>
6

>  <REMARK>
 VINA RESULT:      -6.3      2.596      4.253
  Name = 
  4 active torsions:
  status: ('A' for Active; 'I' for Inactive)
    1  A    between atoms: C_5  and  C_6
    2  A    between atoms: C_5  and  C_13
    3  A    between atoms: C_10  and  C_27
    4  A    between atoms: C_11  and  C_14
                            x       y       z     vdW  Elec       q    Type
                         _______ _______ _______ _____ _____    ______ ____

>  <TORSDO>
F 4

$$$$
=
 OpenBabel11072411103D

 30 33  0  0  1  0  0  0  0  0999 V2000
  161.2390  209.2270  152.0470 C   0  0  0  0  0  2  0  0  0  0  0  0
  161.0170  205.8960  150.1810 C   0  0  0  0  0  2  0  0  0  0  0  0
  161.4940  208.0300  152.9660 C   0  0  2  0  0  3  0  0  0  0  0  0
  162.4170  208.0360  150.1590 C   0  0  0  0  0  2  0  0  0  0  0  0
  162.0270  206.7540  149.4180 C   0  0  2  0  0  3  0  0  0  0  0  0
  161.5560  205.8680  152.6650 N   0  0  1  0  0  0  0  0  0  0  0  0
  161.1930  208.8480  150.5700 C   0  0  0  0  0  2  0  0  0  0  0  0
  160.7110  206.9320  152.5900 O   0  0  0  0  0  0  0  0  0  0  0  0
  160.7610  204.7420  153.1390 C   0  0  0  0  0  2  0  0  0  0  0  0
  160.8350  204.0140  151.8150 C   0  0  0  0  0  2  0  0  0  0  0  0
  161.6770  205.1820  151.3650 C   0  0  1  0  0  3  0  0  0  0  0  0
  162.0920  204.1690  148.3490 O   0  0  0  0  0  0  0  0  0  0  0  0
  161.7380  204.6160  147.2270 C   0  0  0  0  0  0  0  0  0  0  0  0
  161.4530  206.0080  147.0360 N   0  0  0  0  0  2  0  0  0  0  0  0
  161.2500  208.2210  147.7010 O   0  0  0  0  0  0  0  0  0  0  0  0
  161.5540  207.0420  148.0240 C   0  0  0  0  0  0  0  0  0  0  0  0
  161.5790  203.6770  146.0840 C   0  0  0  0  0  2  0  0  0  0  0  0
  161.0330  204.4180  144.8800 C   0  0  0  0  0  1  0  0  0  0  0  0
  161.2000  208.4060  154.4100 C   0  0  0  0  0  2  0  0  0  0  0  0
  157.6080  211.0460  154.1600 C   0  0  0  0  0  2  0  0  0  0  0  0
  158.4310  211.6170  156.4510 C   0  0  0  0  0  2  0  0  0  0  0  0
  157.6560  212.1260  155.2350 C   0  0  0  0  0  2  0  0  0  0  0  0
  161.3230  209.9100  154.6190 C   0  0  2  0  0  3  0  0  0  0  0  0
  159.7400  210.9860  156.0540 C   0  0  0  0  0  0  0  0  0  0  0  0
  162.0640  210.2020  155.8830 C   0  0  0  0  0  0  0  0  0  0  0  0
  161.0110  210.6380  157.2610 S   0  0  0  0  0  0  0  0  0  0  0  0
  159.9720  210.5070  154.8260 C   0  0  0  0  0  0  0  0  0  0  0  0
  164.4070  211.1790  155.7470 O   0  0  0  0  0  0  0  0  0  0  0  0
  159.0230  210.7330  153.6750 C   0  0  0  0  0  2  0  0  0  0  0  0
  163.2660  210.7040  155.8130 C   0  0  0  0  0  0  0  0  0  0  0  0
  1  3  1  0  0  0  0
  3 19  1  1  0  0  0
  4  7  1  0  0  0  0
  5 16  1  6  0  0  0
  5  4  1  0  0  0  0
  5  2  1  0  0  0  0
  6  9  1  1  0  0  0
  7  1  1  0  0  0  0
  8  6  1  0  0  0  0
  8  3  1  0  0  0  0
 10  9  1  0  0  0  0
 11  2  1  6  0  0  0
 11 10  1  0  0  0  0
 11  6  1  0  0  0  0
 13 12  2  0  0  0  0
 14 13  1  0  0  0  0
 14 16  1  0  0  0  0
 15 16  2  0  0  0  0
 17 13  1  0  0  0  0
 18 17  1  0  0  0  0
 20 22  1  0  0  0  0
 22 21  1  0  0  0  0
 23 19  1  1  0  0  0
 23 27  1  0  0  0  0
 23 25  1  0  0  0  0
 24 21  1  0  0  0  0
 24 26  1  0  0  0  0
 25 26  1  0  0  0  0
 27 24  2  0  0  0  0
 28 30  2  0  0  0  0
 29 20  1  0  0  0  0
 29 27  1  0  0  0  0
 30 25  2  0  0  0  0
M  END
>  <MODEL>
7

>  <REMARK>
 VINA RESULT:      -6.3      2.078      2.790
  Name = 
  4 active torsions:
  status: ('A' for Active; 'I' for Inactive)
    1  A    between atoms: C_5  and  C_6
    2  A    between atoms: C_5  and  C_13
    3  A    between atoms: C_10  and  C_27
    4  A    between atoms: C_11  and  C_14
                            x       y       z     vdW  Elec       q    Type
                         _______ _______ _______ _____ _____    ______ ____

>  <TORSDO>
F 4

$$$$
=
 OpenBabel11072411103D

 30 33  0  0  1  0  0  0  0  0999 V2000
  161.8100  209.5810  148.6480 C   0  0  0  0  0  2  0  0  0  0  0  0
  161.0040  206.2590  150.3630 C   0  0  0  0  0  2  0  0  0  0  0  0
  162.0470  209.6360  150.1600 C   0  0  2  0  0  3  0  0  0  0  0  0
  162.6120  207.1890  148.6040 C   0  0  0  0  0  2  0  0  0  0  0  0
  161.9980  205.9410  149.2450 C   0  0  2  0  0  3  0  0  0  0  0  0
  161.8400  208.1930  151.7840 N   0  0  1  0  0  0  0  0  0  0  0  0
  161.5410  208.1700  148.1360 C   0  0  0  0  0  2  0  0  0  0  0  0
  161.1110  208.8520  150.8440 O   0  0  0  0  0  0  0  0  0  0  0  0
  160.9940  208.0920  152.9670 C   0  0  0  0  0  2  0  0  0  0  0  0
  160.8250  206.5950  152.8320 C   0  0  0  0  0  2  0  0  0  0  0  0
  161.7260  206.7310  151.6290 C   0  0  1  0  0  3  0  0  0  0  0  0
  161.5250  203.6810  150.8270 O   0  0  0  0  0  0  0  0  0  0  0  0
  161.0940  203.0580  149.8210 C   0  0  0  0  0  0  0  0  0  0  0  0
  161.0000  203.6900  148.5380 N   0  0  0  0  0  2  0  0  0  0  0  0
  161.2270  205.4470  147.0390 O   0  0  0  0  0  0  0  0  0  0  0  0
  161.3900  205.0320  148.2170 C   0  0  0  0  0  0  0  0  0  0  0  0
  160.6420  201.6500  149.9730 C   0  0  0  0  0  2  0  0  0  0  0  0
  161.1870  200.8070  148.8390 C   0  0  0  0  0  1  0  0  0  0  0  0
  161.9760  211.0750  150.6490 C   0  0  0  0  0  2  0  0  0  0  0  0
  158.9220  211.7830  153.8280 C   0  0  0  0  0  2  0  0  0  0  0  0
  159.1610  214.0950  152.9080 C   0  0  0  0  0  2  0  0  0  0  0  0
  158.2190  213.1200  153.6140 C   0  0  0  0  0  2  0  0  0  0  0  0
  160.6290  211.7020  150.3090 C   0  0  2  0  0  3  0  0  0  0  0  0
  159.8180  213.4660  151.7060 C   0  0  0  0  0  0  0  0  0  0  0  0
  160.8220  212.9550  149.5210 C   0  0  0  0  0  0  0  0  0  0  0  0
  160.6710  214.4530  150.4860 S   0  0  0  0  0  0  0  0  0  0  0  0
  159.9440  212.1410  151.5590 C   0  0  0  0  0  0  0  0  0  0  0  0
  160.1700  212.9860  147.0640 O   0  0  0  0  0  0  0  0  0  0  0  0
  159.2660  211.1550  152.4780 C   0  0  0  0  0  2  0  0  0  0  0  0
  160.4870  212.9710  148.2600 C   0  0  0  0  0  0  0  0  0  0  0  0
  1  3  1  0  0  0  0
  3 19  1  1  0  0  0
  3  8  1  0  0  0  0
  4  5  1  0  0  0  0
  5 16  1  6  0  0  0
  5  2  1  0  0  0  0
  6  9  1  1  0  0  0
  7  4  1  0  0  0  0
  7  1  1  0  0  0  0
  8  6  1  0  0  0  0
 10  9  1  0  0  0  0
 11  2  1  6  0  0  0
 11  6  1  0  0  0  0
 11 10  1  0  0  0  0
 13 17  1  0  0  0  0
 13 12  2  0  0  0  0
 14 13  1  0  0  0  0
 15 16  2  0  0  0  0
 16 14  1  0  0  0  0
 18 17  1  0  0  0  0
 21 22  1  0  0  0  0
 22 20  1  0  0  0  0
 23 19  1  1  0  0  0
 23 27  1  0  0  0  0
 24 21  1  0  0  0  0
 25 23  1  0  0  0  0
 25 26  1  0  0  0  0
 26 24  1  0  0  0  0
 27 24  2  0  0  0  0
 27 29  1  0  0  0  0
 28 30  2  0  0  0  0
 29 20  1  0  0  0  0
 30 25  2  0  0  0  0
M  END
>  <MODEL>
8

>  <REMARK>
 VINA RESULT:      -5.9      2.435      3.630
  Name = 
  4 active torsions:
  status: ('A' for Active; 'I' for Inactive)
    1  A    between atoms: C_5  and  C_6
    2  A    between atoms: C_5  and  C_13
    3  A    between atoms: C_10  and  C_27
    4  A    between atoms: C_11  and  C_14
                            x       y       z     vdW  Elec       q    Type
                         _______ _______ _______ _____ _____    ______ ____

>  <TORSDO>
F 4

$$$$
=
 OpenBabel11072411103D

 30 33  0  0  1  0  0  0  0  0999 V2000
  161.1810  207.4790  148.5740 C   0  0  0  0  0  2  0  0  0  0  0  0
  161.9660  207.2320  152.3090 C   0  0  0  0  0  2  0  0  0  0  0  0
  160.4960  206.2790  149.2320 C   0  0  2  0  0  3  0  0  0  0  0  0
  160.8310  208.8370  150.6720 C   0  0  0  0  0  2  0  0  0  0  0  0
  161.4190  208.6400  152.0730 C   0  0  2  0  0  3  0  0  0  0  0  0
  160.4380  205.4880  151.2660 N   0  0  1  0  0  0  0  0  0  0  0  0
  161.8180  208.4310  149.5810 C   0  0  0  0  0  2  0  0  0  0  0  0
  161.2980  205.7330  150.2400 O   0  0  0  0  0  0  0  0  0  0  0  0
  160.8950  204.2590  151.9040 C   0  0  0  0  0  2  0  0  0  0  0  0
  161.3380  204.9690  153.1640 C   0  0  0  0  0  2  0  0  0  0  0  0
  160.8310  206.2180  152.4860 C   0  0  1  0  0  3  0  0  0  0  0  0
  160.6630  209.2620  154.6940 O   0  0  0  0  0  0  0  0  0  0  0  0
  161.5600  210.1440  154.7510 C   0  0  0  0  0  0  0  0  0  0  0  0
  162.4570  210.3660  153.6550 N   0  0  0  0  0  2  0  0  0  0  0  0
  163.3170  209.9850  151.5350 O   0  0  0  0  0  0  0  0  0  0  0  0
  162.4470  209.6850  152.3940 C   0  0  0  0  0  0  0  0  0  0  0  0
  161.7150  210.9480  155.9930 C   0  0  0  0  0  2  0  0  0  0  0  0
  163.0820  210.7000  156.6000 C   0  0  0  0  0  1  0  0  0  0  0  0
  160.1820  205.2180  148.1870 C   0  0  0  0  0  2  0  0  0  0  0  0
  160.9810  201.1060  149.7330 C   0  0  0  0  0  2  0  0  0  0  0  0
  161.0750  200.6900  147.2700 C   0  0  0  0  0  2  0  0  0  0  0  0
  161.5710  200.2230  148.6390 C   0  0  0  0  0  2  0  0  0  0  0  0
  161.4410  204.4630  147.7790 C   0  0  2  0  0  3  0  0  0  0  0  0
  161.2210  202.1800  147.1010 C   0  0  0  0  0  0  0  0  0  0  0  0
  161.5940  204.4720  146.2930 C   0  0  0  0  0  0  0  0  0  0  0  0
  161.0750  202.9560  145.4990 S   0  0  0  0  0  0  0  0  0  0  0  0
  161.3090  203.0220  148.1380 C   0  0  0  0  0  0  0  0  0  0  0  0
  163.4560  205.8510  145.2480 O   0  0  0  0  0  0  0  0  0  0  0  0
  161.4700  202.5440  149.5600 C   0  0  0  0  0  2  0  0  0  0  0  0
  162.5500  205.1790  145.7570 C   0  0  0  0  0  0  0  0  0  0  0  0
  1  3  1  0  0  0  0
  1  7  1  0  0  0  0
  3 19  1  6  0  0  0
  3  8  1  0  0  0  0
  4  5  1  0  0  0  0
  5  2  1  0  0  0  0
  5 16  1  6  0  0  0
  6  9  1  1  0  0  0
  6 11  1  0  0  0  0
  7  4  1  0  0  0  0
  8  6  1  0  0  0  0
  9 10  1  0  0  0  0
 11  2  1  6  0  0  0
 11 10  1  0  0  0  0
 12 13  2  0  0  0  0
 13 17  1  0  0  0  0
 14 13  1  0  0  0  0
 15 16  2  0  0  0  0
 16 14  1  0  0  0  0
 17 18  1  0  0  0  0
 21 22  1  0  0  0  0
 22 20  1  0  0  0  0
 23 27  1  0  0  0  0
 23 19  1  6  0  0  0
 24 21  1  0  0  0  0
 24 27  2  0  0  0  0
 25 23  1  0  0  0  0
 26 25  1  0  0  0  0
 26 24  1  0  0  0  0
 27 29  1  0  0  0  0
 28 30  2  0  0  0  0
 29 20  1  0  0  0  0
 30 25  2  0  0  0  0
M  END
>  <MODEL>
9

>  <REMARK>
 VINA RESULT:      -5.9      3.218      8.157
  Name = 
  4 active torsions:
  status: ('A' for Active; 'I' for Inactive)
    1  A    between atoms: C_5  and  C_6
    2  A    between atoms: C_5  and  C_13
    3  A    between atoms: C_10  and  C_27
    4  A    between atoms: C_11  and  C_14
                            x       y       z     vdW  Elec       q    Type
                         _______ _______ _______ _____ _____    ______ ____

>  <TORSDO>
F 4

$$$$
