=
 OpenBabel11072411273D

 35 40  0  0  1  0  0  0  0  0999 V2000
  160.9270  208.4410  153.5380 C   0  0  0  0  0  2  0  0  0  0  0  0
  161.7980  210.0400  149.3290 C   0  0  0  0  0  0  0  0  0  0  0  0
  161.2250  210.0960  150.9170 S   0  0  0  0  0  0  0  0  0  0  0  0
  161.7170  206.2820  152.3760 C   0  0  2  0  0  3  0  0  0  0  0  0
  161.5710  208.4560  151.1270 C   0  0  0  0  0  0  0  0  0  0  0  0
  161.7750  206.5730  154.7660 O   0  0  0  0  0  0  0  0  0  0  0  0
  162.2290  208.7970  149.0100 N   0  0  0  0  0  0  0  0  0  0  0  0
  161.4610  205.6610  153.7530 C   0  0  0  0  0  2  0  0  0  0  0  0
  162.1040  207.9210  150.0050 N   0  0  0  0  0  0  0  0  0  0  0  0
  161.3420  207.7080  152.3340 N   0  0  0  0  0  0  0  0  0  0  0  0
  160.7370  207.5100  154.7320 C   0  0  0  0  0  2  0  0  0  0  0  0
  161.9160  214.4530  145.6310 C   0  0  0  0  0  2  0  0  0  0  0  0
  161.9250  213.2920  146.5890 C   0  0  0  0  0  0  0  0  0  0  0  0
  161.0890  211.1500  147.2640 N   0  0  0  0  0  0  0  0  0  0  0  0
  163.4890  214.4130  148.0140 F   0  0  0  0  0  0  0  0  0  0  0  0
  161.8440  211.1750  148.3960 C   0  0  0  0  0  0  0  0  0  0  0  0
  160.2960  212.0690  145.1050 C   0  0  0  0  0  2  0  0  0  0  0  0
  161.2550  214.0670  144.3060 C   0  0  0  0  0  2  0  0  0  0  0  0
  161.0960  212.1770  146.3720 C   0  0  0  0  0  0  0  0  0  0  0  0
  162.6620  212.2800  148.6580 C   0  0  0  0  0  3  0  0  0  0  0  0
  162.7000  213.3420  147.7530 C   0  0  0  0  0  0  0  0  0  0  0  0
  159.9800  213.3970  144.5660 N   0  0  1  0  0  0  0  0  0  0  0  0
  159.7030  213.7380  141.0070 C   0  0  0  0  0  2  0  0  0  0  0  0
  159.5650  214.3800  142.3520 C   0  0  0  0  0  2  0  0  0  0  0  0
  159.5010  212.2680  141.2830 C   0  0  0  0  0  2  0  0  0  0  0  0
  159.2810  213.2180  143.2890 C   0  0  1  0  0  3  0  0  0  0  0  0
  159.7150  212.0430  142.6500 O   0  0  0  0  0  0  0  0  0  0  0  0
  162.2920  203.6200  151.5290 O   0  0  0  0  0  0  0  0  0  0  0  0
  161.2980  204.1970  151.0080 C   0  0  0  0  0  0  0  0  0  0  0  0
  160.9720  205.5390  151.3670 N   0  0  0  0  0  2  0  0  0  0  0  0
  161.1740  202.3660  147.9260 C   0  0  0  0  0  2  0  0  0  0  0  0
  160.4800  203.5030  149.9680 C   0  0  0  0  0  3  0  0  0  0  0  0
  160.4500  202.0040  150.1920 C   0  0  0  0  0  2  0  0  0  0  0  0
  160.4120  201.4000  148.8080 C   0  0  0  0  0  2  0  0  0  0  0  0
  161.0580  203.7300  148.5820 C   0  0  0  0  0  2  0  0  0  0  0  0
  1 11  1  0  0  0  0
  2  3  1  0  0  0  0
  3  5  1  0  0  0  0
  4 30  1  6  0  0  0
  4  8  1  0  0  0  0
  5 10  1  0  0  0  0
  7  2  2  0  0  0  0
  7  9  1  0  0  0  0
  8  6  1  0  0  0  0
  9  5  2  0  0  0  0
 10  4  1  0  0  0  0
 10  1  1  0  0  0  0
 11  6  1  0  0  0  0
 12 13  1  0  0  0  0
 13 21  1  0  0  0  0
 14 16  2  0  0  0  0
 16 20  1  0  0  0  0
 16  2  1  0  0  0  0
 17 19  1  0  0  0  0
 18 12  1  0  0  0  0
 19 13  2  0  0  0  0
 19 14  1  0  0  0  0
 21 15  1  0  0  0  0
 21 20  2  0  0  0  0
 22 18  1  6  0  0  0
 22 17  1  0  0  0  0
 23 25  1  0  0  0  0
 23 24  1  0  0  0  0
 25 27  1  0  0  0  0
 26 24  1  6  0  0  0
 26 22  1  0  0  0  0
 27 26  1  0  0  0  0
 29 30  1  0  0  0  0
 29 28  2  0  0  0  0
 31 35  1  0  0  0  0
 31 34  1  0  0  0  0
 32 33  1  0  0  0  0
 32 29  1  0  0  0  0
 34 33  1  0  0  0  0
 35 32  1  0  0  0  0
M  END
>  <MODEL>
1

>  <REMARK>
 VINA RESULT:      -7.7      0.000      0.000
  Name = 
  4 active torsions:
  status: ('A' for Active; 'I' for Inactive)
    1  A    between atoms: C_3  and  C_16
    2  A    between atoms: C_6  and  N_35
    3  A    between atoms: C_15  and  C_29
    4  A    between atoms: C_22  and  N_33
                            x       y       z     vdW  Elec       q    Type
                         _______ _______ _______ _____ _____    ______ ____

>  <TORSDO>
F 4

$$$$
=
 OpenBabel11072411273D

 35 40  0  0  1  0  0  0  0  0999 V2000
  161.6880  209.5250  156.1420 C   0  0  0  0  0  2  0  0  0  0  0  0
  160.8740  207.1900  152.2790 C   0  0  0  0  0  0  0  0  0  0  0  0
  161.5910  207.5010  153.7770 S   0  0  0  0  0  0  0  0  0  0  0  0
  160.2420  211.2310  154.8630 C   0  0  2  0  0  3  0  0  0  0  0  0
  160.8420  209.0130  153.8500 C   0  0  0  0  0  0  0  0  0  0  0  0
  160.4940  211.2700  157.2590 O   0  0  0  0  0  0  0  0  0  0  0  0
  160.0990  208.2270  151.8850 N   0  0  0  0  0  0  0  0  0  0  0  0
  160.4550  212.0820  156.1200 C   0  0  0  0  0  2  0  0  0  0  0  0
  160.0800  209.2360  152.7550 N   0  0  0  0  0  0  0  0  0  0  0  0
  160.9780  209.9550  154.9290 N   0  0  0  0  0  0  0  0  0  0  0  0
  161.7360  210.6300  157.1930 C   0  0  0  0  0  2  0  0  0  0  0  0
  161.5480  202.4260  149.1150 C   0  0  0  0  0  2  0  0  0  0  0  0
  161.3350  203.6570  149.9540 C   0  0  0  0  0  0  0  0  0  0  0  0
  161.1520  206.0400  150.1350 N   0  0  0  0  0  0  0  0  0  0  0  0
  161.2840  202.3480  151.9580 F   0  0  0  0  0  0  0  0  0  0  0  0
  161.0430  205.9620  151.4890 C   0  0  0  0  0  0  0  0  0  0  0  0
  161.3600  205.0690  147.8660 C   0  0  0  0  0  2  0  0  0  0  0  0
  161.3250  202.7240  147.6320 C   0  0  0  0  0  2  0  0  0  0  0  0
  161.3120  204.9330  149.3610 C   0  0  0  0  0  0  0  0  0  0  0  0
  161.0870  204.7120  152.1160 C   0  0  0  0  0  3  0  0  0  0  0  0
  161.2350  203.5570  151.3460 C   0  0  0  0  0  0  0  0  0  0  0  0
  162.0600  203.9340  147.2550 N   0  0  1  0  0  0  0  0  0  0  0  0
  160.2730  204.3400  144.1730 C   0  0  0  0  0  2  0  0  0  0  0  0
  160.7450  203.4100  145.2450 C   0  0  0  0  0  2  0  0  0  0  0  0
  161.2730  205.4710  144.2060 C   0  0  0  0  0  2  0  0  0  0  0  0
  161.9910  204.0830  145.7980 C   0  0  1  0  0  3  0  0  0  0  0  0
  161.9280  205.4430  145.4440 O   0  0  0  0  0  0  0  0  0  0  0  0
  158.4890  212.4970  153.0040 O   0  0  0  0  0  0  0  0  0  0  0  0
  159.7300  212.6220  152.8140 C   0  0  0  0  0  0  0  0  0  0  0  0
  160.6620  211.9910  153.6930 N   0  0  0  0  0  2  0  0  0  0  0  0
  159.8520  213.0520  149.2560 C   0  0  0  0  0  2  0  0  0  0  0  0
  160.2430  213.3880  151.6390 C   0  0  0  0  0  3  0  0  0  0  0  0
  159.2260  214.4010  151.1470 C   0  0  0  0  0  2  0  0  0  0  0  0
  159.4080  214.4450  149.6480 C   0  0  0  0  0  2  0  0  0  0  0  0
  160.5390  212.4610  150.4740 C   0  0  0  0  0  2  0  0  0  0  0  0
  1 11  1  0  0  0  0
  2  3  1  0  0  0  0
  3  5  1  0  0  0  0
  4 30  1  6  0  0  0
  4 10  1  0  0  0  0
  4  8  1  0  0  0  0
  5 10  1  0  0  0  0
  7  2  2  0  0  0  0
  7  9  1  0  0  0  0
  8  6  1  0  0  0  0
  9  5  2  0  0  0  0
 10  1  1  0  0  0  0
 11  6  1  0  0  0  0
 12 13  1  0  0  0  0
 13 21  1  0  0  0  0
 14 16  2  0  0  0  0
 16 20  1  0  0  0  0
 16  2  1  0  0  0  0
 17 19  1  0  0  0  0
 18 12  1  0  0  0  0
 19 13  2  0  0  0  0
 19 14  1  0  0  0  0
 21 15  1  0  0  0  0
 21 20  2  0  0  0  0
 22 18  1  6  0  0  0
 22 17  1  0  0  0  0
 23 25  1  0  0  0  0
 23 24  1  0  0  0  0
 25 27  1  0  0  0  0
 26 24  1  1  0  0  0
 26 22  1  0  0  0  0
 27 26  1  0  0  0  0
 29 28  2  0  0  0  0
 29 30  1  0  0  0  0
 31 34  1  0  0  0  0
 31 35  1  0  0  0  0
 32 29  1  0  0  0  0
 33 32  1  0  0  0  0
 34 33  1  0  0  0  0
 35 32  1  0  0  0  0
M  END
>  <MODEL>
2

>  <REMARK>
 VINA RESULT:      -7.2      4.756      8.523
  Name = 
  4 active torsions:
  status: ('A' for Active; 'I' for Inactive)
    1  A    between atoms: C_3  and  C_16
    2  A    between atoms: C_6  and  N_35
    3  A    between atoms: C_15  and  C_29
    4  A    between atoms: C_22  and  N_33
                            x       y       z     vdW  Elec       q    Type
                         _______ _______ _______ _____ _____    ______ ____

>  <TORSDO>
F 4

$$$$
=
 OpenBabel11072411273D

 35 40  0  0  1  0  0  0  0  0999 V2000
  161.6000  211.7980  146.4430 C   0  0  0  0  0  2  0  0  0  0  0  0
  161.8400  208.8310  149.9310 C   0  0  0  0  0  0  0  0  0  0  0  0
  161.5010  209.3450  148.3590 S   0  0  0  0  0  0  0  0  0  0  0  0
  162.2360  213.3910  148.3640 C   0  0  2  0  0  3  0  0  0  0  0  0
  161.8900  210.9370  148.7670 C   0  0  0  0  0  0  0  0  0  0  0  0
  162.6360  213.9170  146.0480 O   0  0  0  0  0  0  0  0  0  0  0  0
  162.2320  209.8670  150.7080 N   0  0  0  0  0  0  0  0  0  0  0  0
  162.1880  214.4520  147.2600 C   0  0  0  0  0  2  0  0  0  0  0  0
  162.2620  211.0320  150.0640 N   0  0  0  0  0  0  0  0  0  0  0  0
  161.8450  212.0590  147.8680 N   0  0  0  0  0  0  0  0  0  0  0  0
  161.5940  213.0860  145.6230 C   0  0  0  0  0  2  0  0  0  0  0  0
  161.4370  203.3860  151.7630 C   0  0  0  0  0  2  0  0  0  0  0  0
  161.5110  204.8200  151.3100 C   0  0  0  0  0  0  0  0  0  0  0  0
  161.3800  206.4530  149.5620 N   0  0  0  0  0  0  0  0  0  0  0  0
  162.1570  205.5350  153.5020 F   0  0  0  0  0  0  0  0  0  0  0  0
  161.7390  207.4480  150.4190 C   0  0  0  0  0  0  0  0  0  0  0  0
  160.8110  204.1110  148.9940 C   0  0  0  0  0  2  0  0  0  0  0  0
  160.7190  202.5180  150.7290 C   0  0  0  0  0  2  0  0  0  0  0  0
  161.2770  205.1590  149.9650 C   0  0  0  0  0  0  0  0  0  0  0  0
  162.0050  207.1440  151.7590 C   0  0  0  0  0  3  0  0  0  0  0  0
  161.8930  205.8260  152.2050 C   0  0  0  0  0  0  0  0  0  0  0  0
  161.2710  202.7770  149.3970 N   0  0  1  0  0  0  0  0  0  0  0  0
  161.1850  201.0490  146.2570 C   0  0  0  0  0  2  0  0  0  0  0  0
  160.8380  202.2820  147.0290 C   0  0  0  0  0  2  0  0  0  0  0  0
  161.2380  199.9660  147.3060 C   0  0  0  0  0  2  0  0  0  0  0  0
  160.7080  201.7970  148.4630 C   0  0  1  0  0  3  0  0  0  0  0  0
  161.3940  200.5730  148.5590 O   0  0  0  0  0  0  0  0  0  0  0  0
  159.4540  213.9680  148.1240 O   0  0  0  0  0  0  0  0  0  0  0  0
  159.9690  214.0440  149.2730 C   0  0  0  0  0  0  0  0  0  0  0  0
  161.3620  213.7950  149.4580 N   0  0  0  0  0  2  0  0  0  0  0  0
  156.9520  213.6550  151.1740 C   0  0  0  0  0  2  0  0  0  0  0  0
  159.1400  214.4500  150.4480 C   0  0  0  0  0  3  0  0  0  0  0  0
  159.3130  213.4900  151.6090 C   0  0  0  0  0  2  0  0  0  0  0  0
  157.9610  213.4380  152.2820 C   0  0  0  0  0  2  0  0  0  0  0  0
  157.6630  214.4530  150.0950 C   0  0  0  0  0  2  0  0  0  0  0  0
  1 10  1  0  0  0  0
  2 16  1  0  0  0  0
  2  7  2  0  0  0  0
  3  5  1  0  0  0  0
  3  2  1  0  0  0  0
  4 30  1  1  0  0  0
  5  9  2  0  0  0  0
  6  8  1  0  0  0  0
  8  4  1  0  0  0  0
  9  7  1  0  0  0  0
 10  4  1  0  0  0  0
 10  5  1  0  0  0  0
 11  6  1  0  0  0  0
 11  1  1  0  0  0  0
 13 12  1  0  0  0  0
 13 21  1  0  0  0  0
 14 19  1  0  0  0  0
 14 16  2  0  0  0  0
 16 20  1  0  0  0  0
 17 19  1  0  0  0  0
 18 12  1  0  0  0  0
 19 13  2  0  0  0  0
 20 21  2  0  0  0  0
 21 15  1  0  0  0  0
 22 17  1  6  0  0  0
 22 18  1  0  0  0  0
 23 24  1  0  0  0  0
 23 25  1  0  0  0  0
 25 27  1  0  0  0  0
 26 24  1  6  0  0  0
 26 27  1  0  0  0  0
 26 22  1  0  0  0  0
 28 29  2  0  0  0  0
 29 30  1  0  0  0  0
 29 32  1  0  0  0  0
 31 34  1  0  0  0  0
 32 33  1  0  0  0  0
 33 34  1  0  0  0  0
 35 32  1  0  0  0  0
 35 31  1  0  0  0  0
M  END
>  <MODEL>
3

>  <REMARK>
 VINA RESULT:      -6.7      3.432      9.901
  Name = 
  4 active torsions:
  status: ('A' for Active; 'I' for Inactive)
    1  A    between atoms: C_3  and  C_16
    2  A    between atoms: C_6  and  N_35
    3  A    between atoms: C_15  and  C_29
    4  A    between atoms: C_22  and  N_33
                            x       y       z     vdW  Elec       q    Type
                         _______ _______ _______ _____ _____    ______ ____

>  <TORSDO>
F 4

$$$$
=
 OpenBabel11072411273D

 35 40  0  0  1  0  0  0  0  0999 V2000
  160.1830  202.1230  150.5640 C   0  0  0  0  0  2  0  0  0  0  0  0
  161.2060  206.3050  152.1450 C   0  0  0  0  0  0  0  0  0  0  0  0
  160.3910  204.8260  152.0970 S   0  0  0  0  0  0  0  0  0  0  0  0
  161.7690  202.9460  148.7090 C   0  0  2  0  0  3  0  0  0  0  0  0
  161.1780  204.4100  150.6620 C   0  0  0  0  0  0  0  0  0  0  0  0
  161.3440  200.6110  149.1210 O   0  0  0  0  0  0  0  0  0  0  0  0
  162.0390  206.4370  151.0870 N   0  0  0  0  0  0  0  0  0  0  0  0
  161.4910  201.5640  148.1070 C   0  0  0  0  0  2  0  0  0  0  0  0
  162.0250  205.3880  150.2670 N   0  0  0  0  0  0  0  0  0  0  0  0
  160.9920  203.1800  149.9400 N   0  0  0  0  0  0  0  0  0  0  0  0
  160.0910  200.8820  149.6810 C   0  0  0  0  0  2  0  0  0  0  0  0
  160.5920  210.3680  156.1800 C   0  0  0  0  0  2  0  0  0  0  0  0
  160.7930  209.3040  155.1340 C   0  0  0  0  0  0  0  0  0  0  0  0
  160.6600  208.5860  152.8520 N   0  0  0  0  0  0  0  0  0  0  0  0
  161.4490  207.7150  156.8000 F   0  0  0  0  0  0  0  0  0  0  0  0
  161.0580  207.3290  153.1900 C   0  0  0  0  0  0  0  0  0  0  0  0
  160.1310  210.9540  153.3460 C   0  0  0  0  0  2  0  0  0  0  0  0
  160.4580  211.7510  155.5400 C   0  0  0  0  0  2  0  0  0  0  0  0
  160.5060  209.5660  153.7820 C   0  0  0  0  0  0  0  0  0  0  0  0
  161.3270  207.0250  154.5290 C   0  0  0  0  0  3  0  0  0  0  0  0
  161.1930  208.0150  155.5030 C   0  0  0  0  0  0  0  0  0  0  0  0
  159.4920  211.6950  154.4400 N   0  0  1  0  0  0  0  0  0  0  0  0
  158.1820  214.0790  152.1040 C   0  0  0  0  0  2  0  0  0  0  0  0
  159.2890  213.1390  152.4620 C   0  0  0  0  0  2  0  0  0  0  0  0
  157.5780  214.4530  153.4360 C   0  0  0  0  0  2  0  0  0  0  0  0
  159.2360  213.0630  153.9780 C   0  0  1  0  0  3  0  0  0  0  0  0
  157.9550  213.4870  154.3780 O   0  0  0  0  0  0  0  0  0  0  0  0
  163.6880  204.3460  147.1300 O   0  0  0  0  0  0  0  0  0  0  0  0
  162.4700  204.6160  146.9440 C   0  0  0  0  0  0  0  0  0  0  0  0
  161.4610  203.9710  147.7200 N   0  0  0  0  0  2  0  0  0  0  0  0
  160.6800  205.4580  143.9520 C   0  0  0  0  0  2  0  0  0  0  0  0
  162.0680  205.6530  145.9460 C   0  0  0  0  0  3  0  0  0  0  0  0
  160.6860  206.2030  146.2390 C   0  0  0  0  0  2  0  0  0  0  0  0
  160.0800  206.4880  144.8850 C   0  0  0  0  0  2  0  0  0  0  0  0
  162.0220  205.0700  144.5450 C   0  0  0  0  0  2  0  0  0  0  0  0
  2 16  1  0  0  0  0
  3  2  1  0  0  0  0
  4 30  1  6  0  0  0
  4 10  1  0  0  0  0
  5  3  1  0  0  0  0
  6 11  1  0  0  0  0
  7  2  2  0  0  0  0
  8  4  1  0  0  0  0
  8  6  1  0  0  0  0
  9  5  2  0  0  0  0
  9  7  1  0  0  0  0
 10  1  1  0  0  0  0
 10  5  1  0  0  0  0
 11  1  1  0  0  0  0
 13 21  1  0  0  0  0
 13 12  1  0  0  0  0
 14 16  2  0  0  0  0
 14 19  1  0  0  0  0
 16 20  1  0  0  0  0
 17 19  1  0  0  0  0
 18 12  1  0  0  0  0
 19 13  2  0  0  0  0
 20 21  2  0  0  0  0
 21 15  1  0  0  0  0
 22 17  1  6  0  0  0
 22 18  1  0  0  0  0
 23 24  1  0  0  0  0
 23 25  1  0  0  0  0
 25 27  1  0  0  0  0
 26 24  1  6  0  0  0
 26 27  1  0  0  0  0
 26 22  1  0  0  0  0
 29 28  2  0  0  0  0
 29 30  1  0  0  0  0
 31 35  1  0  0  0  0
 31 34  1  0  0  0  0
 32 33  1  0  0  0  0
 32 29  1  0  0  0  0
 34 33  1  0  0  0  0
 35 32  1  0  0  0  0
M  END
>  <MODEL>
4

>  <REMARK>
 VINA RESULT:      -6.1      5.487      7.845
  Name = 
  4 active torsions:
  status: ('A' for Active; 'I' for Inactive)
    1  A    between atoms: C_3  and  C_16
    2  A    between atoms: C_6  and  N_35
    3  A    between atoms: C_15  and  C_29
    4  A    between atoms: C_22  and  N_33
                            x       y       z     vdW  Elec       q    Type
                         _______ _______ _______ _____ _____    ______ ____

>  <TORSDO>
F 4

$$$$
=
 OpenBabel11072411273D

 35 40  0  0  1  0  0  0  0  0999 V2000
  162.2940  211.9760  147.6600 C   0  0  0  0  0  2  0  0  0  0  0  0
  161.2820  208.1700  150.0090 C   0  0  0  0  0  0  0  0  0  0  0  0
  161.7460  209.0790  148.6640 S   0  0  0  0  0  0  0  0  0  0  0  0
  161.3850  213.0030  149.8400 C   0  0  2  0  0  3  0  0  0  0  0  0
  161.4630  210.5160  149.5060 C   0  0  0  0  0  0  0  0  0  0  0  0
  162.8450  214.2000  148.3430 O   0  0  0  0  0  0  0  0  0  0  0  0
  160.9320  208.9700  151.0420 N   0  0  0  0  0  0  0  0  0  0  0  0
  161.6980  214.3270  149.1340 C   0  0  0  0  0  2  0  0  0  0  0  0
  161.0330  210.2690  150.7640 N   0  0  0  0  0  0  0  0  0  0  0  0
  161.6530  211.8400  148.9750 N   0  0  0  0  0  0  0  0  0  0  0  0
  162.4330  213.4380  147.2450 C   0  0  0  0  0  2  0  0  0  0  0  0
  161.2100  202.4150  150.2130 C   0  0  0  0  0  2  0  0  0  0  0  0
  161.1920  203.9190  150.1770 C   0  0  0  0  0  0  0  0  0  0  0  0
  161.2720  205.9680  148.9360 N   0  0  0  0  0  0  0  0  0  0  0  0
  161.1600  204.0280  152.5690 F   0  0  0  0  0  0  0  0  0  0  0  0
  161.2600  206.7010  150.0820 C   0  0  0  0  0  0  0  0  0  0  0  0
  161.2020  203.8480  147.6570 C   0  0  0  0  0  2  0  0  0  0  0  0
  160.9050  201.8270  148.8340 C   0  0  0  0  0  2  0  0  0  0  0  0
  161.2560  204.6080  148.9520 C   0  0  0  0  0  0  0  0  0  0  0  0
  161.2230  206.0500  151.3200 C   0  0  0  0  0  3  0  0  0  0  0  0
  161.1900  204.6560  151.3670 C   0  0  0  0  0  0  0  0  0  0  0  0
  161.7310  202.4890  147.8210 N   0  0  1  0  0  0  0  0  0  0  0  0
  160.1860  200.0230  145.7260 C   0  0  0  0  0  2  0  0  0  0  0  0
  161.1930  200.3230  146.7910 C   0  0  0  0  0  2  0  0  0  0  0  0
  160.0530  201.3240  144.9730 C   0  0  0  0  0  2  0  0  0  0  0  0
  161.5640  201.7770  146.5500 C   0  0  1  0  0  3  0  0  0  0  0  0
  160.5320  202.3570  145.7910 O   0  0  0  0  0  0  0  0  0  0  0  0
  160.4760  212.7370  152.5300 O   0  0  0  0  0  0  0  0  0  0  0  0
  159.6040  212.8910  151.6320 C   0  0  0  0  0  0  0  0  0  0  0  0
  159.9900  213.0030  150.2620 N   0  0  0  0  0  2  0  0  0  0  0  0
  157.0280  213.7120  153.9890 C   0  0  0  0  0  2  0  0  0  0  0  0
  158.1520  212.9040  151.9820 C   0  0  0  0  0  3  0  0  0  0  0  0
  157.5220  214.2540  151.6970 C   0  0  0  0  0  2  0  0  0  0  0  0
  156.4830  214.4390  152.7780 C   0  0  0  0  0  2  0  0  0  0  0  0
  157.9470  212.6250  153.4600 C   0  0  0  0  0  2  0  0  0  0  0  0
  1 10  1  0  0  0  0
  2 16  1  0  0  0  0
  2  7  2  0  0  0  0
  3  5  1  0  0  0  0
  3  2  1  0  0  0  0
  4 30  1  6  0  0  0
  5  9  2  0  0  0  0
  6  8  1  0  0  0  0
  8  4  1  0  0  0  0
  9  7  1  0  0  0  0
 10  5  1  0  0  0  0
 10  4  1  0  0  0  0
 11  1  1  0  0  0  0
 11  6  1  0  0  0  0
 13 12  1  0  0  0  0
 13 21  1  0  0  0  0
 14 19  1  0  0  0  0
 14 16  2  0  0  0  0
 16 20  1  0  0  0  0
 17 19  1  0  0  0  0
 18 12  1  0  0  0  0
 19 13  2  0  0  0  0
 20 21  2  0  0  0  0
 21 15  1  0  0  0  0
 22 17  1  6  0  0  0
 22 18  1  0  0  0  0
 23 24  1  0  0  0  0
 25 23  1  0  0  0  0
 25 27  1  0  0  0  0
 26 24  1  1  0  0  0
 26 22  1  0  0  0  0
 27 26  1  0  0  0  0
 29 32  1  0  0  0  0
 29 28  2  0  0  0  0
 30 29  1  0  0  0  0
 32 35  1  0  0  0  0
 33 32  1  0  0  0  0
 33 34  1  0  0  0  0
 34 31  1  0  0  0  0
 35 31  1  0  0  0  0
M  END
>  <MODEL>
5

>  <REMARK>
 VINA RESULT:      -5.2      4.098      9.682
  Name = 
  4 active torsions:
  status: ('A' for Active; 'I' for Inactive)
    1  A    between atoms: C_3  and  C_16
    2  A    between atoms: C_6  and  N_35
    3  A    between atoms: C_15  and  C_29
    4  A    between atoms: C_22  and  N_33
                            x       y       z     vdW  Elec       q    Type
                         _______ _______ _______ _____ _____    ______ ____

>  <TORSDO>
F 4

$$$$
=
 OpenBabel11072411273D

 35 40  0  0  1  0  0  0  0  0999 V2000
  163.2740  214.1080  140.9960 C   0  0  0  0  0  2  0  0  0  0  0  0
  159.4040  213.6440  143.4130 C   0  0  0  0  0  0  0  0  0  0  0  0
  161.0490  213.9380  143.1690 S   0  0  0  0  0  0  0  0  0  0  0  0
  161.6960  213.1940  139.1770 C   0  0  2  0  0  3  0  0  0  0  0  0
  160.9050  213.5350  141.5350 C   0  0  0  0  0  0  0  0  0  0  0  0
  163.6960  214.4370  138.6660 O   0  0  0  0  0  0  0  0  0  0  0  0
  158.8030  213.2550  142.2650 N   0  0  0  0  0  0  0  0  0  0  0  0
  162.9390  213.3220  138.2890 C   0  0  0  0  0  2  0  0  0  0  0  0
  159.6330  213.1960  141.2250 N   0  0  0  0  0  0  0  0  0  0  0  0
  161.9800  213.5490  140.5790 N   0  0  0  0  0  0  0  0  0  0  0  0
  164.3020  214.0610  139.8690 C   0  0  0  0  0  2  0  0  0  0  0  0
  156.6770  214.2180  148.4530 C   0  0  0  0  0  2  0  0  0  0  0  0
  157.3670  214.0350  147.1270 C   0  0  0  0  0  0  0  0  0  0  0  0
  159.3670  213.6590  145.8620 N   0  0  0  0  0  0  0  0  0  0  0  0
  155.3250  214.4530  145.9480 F   0  0  0  0  0  0  0  0  0  0  0  0
  158.6890  213.7910  144.6890 C   0  0  0  0  0  0  0  0  0  0  0  0
  159.5310  213.5670  148.3320 C   0  0  0  0  0  2  0  0  0  0  0  0
  157.5520  213.7160  149.6030 C   0  0  0  0  0  2  0  0  0  0  0  0
  158.7500  213.7890  147.0680 C   0  0  0  0  0  0  0  0  0  0  0  0
  157.3160  214.0620  144.7100 C   0  0  0  0  0  3  0  0  0  0  0  0
  156.6540  214.1860  145.9320 C   0  0  0  0  0  0  0  0  0  0  0  0
  158.9060  214.2570  149.4660 N   0  0  1  0  0  0  0  0  0  0  0  0
  159.1840  212.9560  152.7960 C   0  0  0  0  0  2  0  0  0  0  0  0
  158.8030  214.1050  151.9170 C   0  0  0  0  0  2  0  0  0  0  0  0
  160.2170  212.2070  151.9880 C   0  0  0  0  0  2  0  0  0  0  0  0
  159.6630  213.9250  150.6770 C   0  0  1  0  0  3  0  0  0  0  0  0
  160.0820  212.5830  150.6450 O   0  0  0  0  0  0  0  0  0  0  0  0
  163.0010  210.8860  140.2290 O   0  0  0  0  0  0  0  0  0  0  0  0
  161.8820  210.7200  139.6700 C   0  0  0  0  0  0  0  0  0  0  0  0
  161.1890  211.8300  139.0990 N   0  0  0  0  0  2  0  0  0  0  0  0
  161.4880  207.7090  137.7630 C   0  0  0  0  0  2  0  0  0  0  0  0
  161.2910  209.3530  139.5510 C   0  0  0  0  0  3  0  0  0  0  0  0
  162.2810  208.2800  139.9620 C   0  0  0  0  0  2  0  0  0  0  0  0
  161.9840  207.1050  139.0600 C   0  0  0  0  0  2  0  0  0  0  0  0
  160.8900  209.0580  138.1170 C   0  0  0  0  0  2  0  0  0  0  0  0
  2 16  1  0  0  0  0
  3  2  1  0  0  0  0
  4 30  1  1  0  0  0
  4 10  1  0  0  0  0
  5  3  1  0  0  0  0
  6 11  1  0  0  0  0
  7  2  2  0  0  0  0
  8  6  1  0  0  0  0
  8  4  1  0  0  0  0
  9  5  2  0  0  0  0
  9  7  1  0  0  0  0
 10  1  1  0  0  0  0
 10  5  1  0  0  0  0
 11  1  1  0  0  0  0
 12 18  1  0  0  0  0
 13 12  1  0  0  0  0
 14 19  2  0  0  0  0
 16 20  2  0  0  0  0
 16 14  1  0  0  0  0
 19 13  1  0  0  0  0
 19 17  1  0  0  0  0
 20 21  1  0  0  0  0
 21 15  1  0  0  0  0
 21 13  2  0  0  0  0
 22 17  1  6  0  0  0
 22 18  1  0  0  0  0
 22 26  1  0  0  0  0
 24 23  1  0  0  0  0
 25 23  1  0  0  0  0
 26 24  1  1  0  0  0
 27 26  1  0  0  0  0
 27 25  1  0  0  0  0
 29 28  2  0  0  0  0
 30 29  1  0  0  0  0
 31 35  1  0  0  0  0
 31 34  1  0  0  0  0
 32 29  1  0  0  0  0
 32 33  1  0  0  0  0
 34 33  1  0  0  0  0
 35 32  1  0  0  0  0
M  END
>  <MODEL>
6

>  <REMARK>
 VINA RESULT:      -5.0      6.230     10.654
  Name = 
  4 active torsions:
  status: ('A' for Active; 'I' for Inactive)
    1  A    between atoms: C_3  and  C_16
    2  A    between atoms: C_6  and  N_35
    3  A    between atoms: C_15  and  C_29
    4  A    between atoms: C_22  and  N_33
                            x       y       z     vdW  Elec       q    Type
                         _______ _______ _______ _____ _____    ______ ____

>  <TORSDO>
F 4

$$$$
=
 OpenBabel11072411273D

 35 40  0  0  1  0  0  0  0  0999 V2000
  159.6850  212.6130  152.5410 C   0  0  0  0  0  2  0  0  0  0  0  0
  160.6060  208.1210  152.6280 C   0  0  0  0  0  0  0  0  0  0  0  0
  160.2120  209.6050  151.9260 S   0  0  0  0  0  0  0  0  0  0  0  0
  159.7290  212.1970  155.0820 C   0  0  2  0  0  3  0  0  0  0  0  0
  160.0970  210.3240  153.4500 C   0  0  0  0  0  0  0  0  0  0  0  0
  160.0740  214.3740  154.1100 O   0  0  0  0  0  0  0  0  0  0  0  0
  160.6390  208.2130  153.9770 N   0  0  0  0  0  0  0  0  0  0  0  0
  159.4280  213.6980  155.1510 C   0  0  0  0  0  2  0  0  0  0  0  0
  160.3580  209.4330  154.4320 N   0  0  0  0  0  0  0  0  0  0  0  0
  159.7700  211.7040  153.6930 N   0  0  0  0  0  0  0  0  0  0  0  0
  159.3440  214.0380  152.9660 C   0  0  0  0  0  2  0  0  0  0  0  0
  161.7340  203.2960  149.6930 C   0  0  0  0  0  2  0  0  0  0  0  0
  161.4030  204.5410  150.4710 C   0  0  0  0  0  0  0  0  0  0  0  0
  161.0520  206.9100  150.5450 N   0  0  0  0  0  0  0  0  0  0  0  0
  161.3560  203.3100  152.5240 F   0  0  0  0  0  0  0  0  0  0  0  0
  160.8910  206.8770  151.8960 C   0  0  0  0  0  0  0  0  0  0  0  0
  161.4200  205.8700  148.3290 C   0  0  0  0  0  2  0  0  0  0  0  0
  161.5540  203.5210  148.1910 C   0  0  0  0  0  2  0  0  0  0  0  0
  161.3190  205.7880  149.8250 C   0  0  0  0  0  0  0  0  0  0  0  0
  160.9930  205.6590  152.5760 C   0  0  0  0  0  3  0  0  0  0  0  0
  161.2520  204.4880  151.8620 C   0  0  0  0  0  0  0  0  0  0  0  0
  162.2210  204.7620  147.7940 N   0  0  1  0  0  0  0  0  0  0  0  0
  160.7520  204.1510  144.5800 C   0  0  0  0  0  2  0  0  0  0  0  0
  161.5560  203.6160  145.7230 C   0  0  0  0  0  2  0  0  0  0  0  0
  160.9920  205.6400  144.6310 C   0  0  0  0  0  2  0  0  0  0  0  0
  162.2030  204.8500  146.3300 C   0  0  1  0  0  3  0  0  0  0  0  0
  161.4580  205.9670  145.9120 O   0  0  0  0  0  0  0  0  0  0  0  0
  156.9240  212.2480  154.5710 O   0  0  0  0  0  0  0  0  0  0  0  0
  157.3320  211.5190  155.5160 C   0  0  0  0  0  0  0  0  0  0  0  0
  158.7210  211.4690  155.8420 N   0  0  0  0  0  2  0  0  0  0  0  0
  154.1030  211.3040  157.0630 C   0  0  0  0  0  2  0  0  0  0  0  0
  156.3620  210.7380  156.3420 C   0  0  0  0  0  3  0  0  0  0  0  0
  155.3580  210.0020  155.4760 C   0  0  0  0  0  2  0  0  0  0  0  0
  154.0710  210.0170  156.2660 C   0  0  0  0  0  2  0  0  0  0  0  0
  155.5680  211.6530  157.2560 C   0  0  0  0  0  2  0  0  0  0  0  0
  1 11  1  0  0  0  0
  1 10  1  0  0  0  0
  2  7  2  0  0  0  0
  3  2  1  0  0  0  0
  3  5  1  0  0  0  0
  4  8  1  0  0  0  0
  4 30  1  1  0  0  0
  5 10  1  0  0  0  0
  5  9  2  0  0  0  0
  6  8  1  0  0  0  0
  7  9  1  0  0  0  0
 10  4  1  0  0  0  0
 11  6  1  0  0  0  0
 12 13  1  0  0  0  0
 13 21  1  0  0  0  0
 14 16  2  0  0  0  0
 16 20  1  0  0  0  0
 16  2  1  0  0  0  0
 17 19  1  0  0  0  0
 18 12  1  0  0  0  0
 19 13  2  0  0  0  0
 19 14  1  0  0  0  0
 21 15  1  0  0  0  0
 21 20  2  0  0  0  0
 22 18  1  6  0  0  0
 22 17  1  0  0  0  0
 23 25  1  0  0  0  0
 23 24  1  0  0  0  0
 25 27  1  0  0  0  0
 26 24  1  6  0  0  0
 26 22  1  0  0  0  0
 27 26  1  0  0  0  0
 28 29  2  0  0  0  0
 29 30  1  0  0  0  0
 29 32  1  0  0  0  0
 31 35  1  0  0  0  0
 32 35  1  0  0  0  0
 33 34  1  0  0  0  0
 33 32  1  0  0  0  0
 34 31  1  0  0  0  0
M  END
>  <MODEL>
7

>  <REMARK>
 VINA RESULT:      -4.7      5.540      8.857
  Name = 
  4 active torsions:
  status: ('A' for Active; 'I' for Inactive)
    1  A    between atoms: C_3  and  C_16
    2  A    between atoms: C_6  and  N_35
    3  A    between atoms: C_15  and  C_29
    4  A    between atoms: C_22  and  N_33
                            x       y       z     vdW  Elec       q    Type
                         _______ _______ _______ _____ _____    ______ ____

>  <TORSDO>
F 4

$$$$
