=
 OpenBabel11072411163D

 28 31  0  0  1  0  0  0  0  0999 V2000
  161.3270  208.3990  151.2930 C   0  0  2  0  0  3  0  0  0  0  0  0
  161.8700  205.8790  153.6750 N   0  0  0  0  0  1  0  0  0  0  0  0
  161.8720  210.8200  151.1970 S   0  0  0  0  0  0  0  0  0  0  0  0
  161.7370  210.0280  149.6870 C   0  0  0  0  0  0  0  0  0  0  0  0
  161.0480  207.1300  151.7590 C   0  0  0  0  0  0  0  0  0  0  0  0
  161.1660  208.1710  154.0800 C   0  0  0  0  0  3  0  0  0  0  0  0
  160.9320  206.9040  153.2540 C   0  0  0  0  0  0  0  0  0  0  0  0
  160.8740  206.1150  150.8040 C   0  0  0  0  0  3  0  0  0  0  0  0
  161.0080  206.4180  149.4300 C   0  0  0  0  0  0  0  0  0  0  0  0
  161.4360  209.3330  153.5440 N   0  0  0  0  0  0  0  0  0  0  0  0
  161.4510  208.6840  149.9440 C   0  0  0  0  0  0  0  0  0  0  0  0
  161.5190  209.4590  152.1240 C   0  0  0  0  0  0  0  0  0  0  0  0
  161.2980  207.6970  149.0240 N   0  0  0  0  0  0  0  0  0  0  0  0
  162.7920  212.7170  147.4850 C   0  0  0  0  0  2  0  0  0  0  0  0
  162.0440  210.6360  148.3460 C   0  0  2  0  0  3  0  0  0  0  0  0
  163.1880  211.6230  148.4310 C   0  0  0  0  0  2  0  0  0  0  0  0
  160.9250  211.3120  147.8330 O   0  0  0  0  0  0  0  0  0  0  0  0
  161.4470  212.2740  146.9580 C   0  0  0  0  0  2  0  0  0  0  0  0
  160.8250  205.3270  148.4200 C   0  0  1  0  0  3  0  0  0  0  0  0
  161.3150  206.0080  144.6260 C   0  0  0  0  0  1  0  0  0  0  0  0
  160.7170  205.6830  145.9100 N   0  0  0  0  0  2  0  0  0  0  0  0
  162.7000  205.9750  147.1070 O   0  0  0  0  0  0  0  0  0  0  0  0
  161.4750  205.6850  147.1220 C   0  0  0  0  0  0  0  0  0  0  0  0
  161.3450  203.9900  148.9340 C   0  0  0  0  0  2  0  0  0  0  0  0
  161.1480  202.9040  147.8880 C   0  0  0  0  0  2  0  0  0  0  0  0
  161.3850  200.5510  148.1130 O   0  0  0  0  0  1  0  0  0  0  0  0
  160.7000  201.7460  150.0460 C   0  0  0  0  0  1  0  0  0  0  0  0
  160.6200  201.6370  148.5340 C   0  0  1  0  0  3  0  0  0  0  0  0
  1 11  1  1  0  0  0
  1  5  1  0  0  0  0
  1 12  1  0  0  0  0
  3 12  1  0  0  0  0
  4 11  2  0  0  0  0
  4  3  1  0  0  0  0
  5  7  1  0  0  0  0
  7  2  1  0  0  0  0
  7  6  2  0  0  0  0
  8  5  2  0  0  0  0
  9  8  1  0  0  0  0
 10  6  1  0  0  0  0
 12 10  2  0  0  0  0
 13  9  2  0  0  0  0
 13 11  1  0  0  0  0
 14 16  1  0  0  0  0
 15 16  1  0  0  0  0
 15  4  1  1  0  0  0
 17 15  1  0  0  0  0
 18 14  1  0  0  0  0
 18 17  1  0  0  0  0
 19 24  1  1  0  0  0
 19  9  1  0  0  0  0
 20 21  1  0  0  0  0
 21 23  1  0  0  0  0
 22 23  2  0  0  0  0
 23 19  1  0  0  0  0
 25 28  1  0  0  0  0
 25 24  1  0  0  0  0
 26 28  1  0  0  0  0
 28 27  1  1  0  0  0
M  END
>  <MODEL>
1

>  <REMARK>
 VINA RESULT:      -7.4      0.000      0.000
  Name = 
  6 active torsions:
  status: ('A' for Active; 'I' for Inactive)
    1  A    between atoms: C_5  and  C_11
    2  A    between atoms: C_6  and  C_15
    3  A    between atoms: C_6  and  C_25
    4  A    between atoms: C_15  and  C_16
    5  A    between atoms: C_16  and  C_17
    6  A    between atoms: C_16  and  C_21
                            x       y       z     vdW  Elec       q    Type
                         _______ _______ _______ _____ _____    ______ ____

>  <TORSDO>
F 6

$$$$
=
 OpenBabel11072411163D

 28 31  0  0  1  0  0  0  0  0999 V2000
  161.0950  205.5710  151.6930 C   0  0  2  0  0  3  0  0  0  0  0  0
  160.5090  208.6490  153.2750 N   0  0  0  0  0  1  0  0  0  0  0  0
  160.6890  203.2050  152.3310 S   0  0  0  0  0  0  0  0  0  0  0  0
  160.7120  203.5280  150.6510 C   0  0  0  0  0  0  0  0  0  0  0  0
  161.3200  206.9310  151.7560 C   0  0  0  0  0  0  0  0  0  0  0  0
  161.3640  206.6060  154.2810 C   0  0  0  0  0  3  0  0  0  0  0  0
  161.4870  207.5870  153.1130 C   0  0  0  0  0  0  0  0  0  0  0  0
  161.3910  207.6310  150.5400 C   0  0  0  0  0  3  0  0  0  0  0  0
  161.2160  206.9360  149.3220 C   0  0  0  0  0  0  0  0  0  0  0  0
  161.1400  205.3280  154.1200 N   0  0  0  0  0  0  0  0  0  0  0  0
  160.9290  204.9000  150.4930 C   0  0  0  0  0  0  0  0  0  0  0  0
  161.0020  204.7910  152.8040 C   0  0  0  0  0  0  0  0  0  0  0  0
  160.9840  205.5830  149.3200 N   0  0  0  0  0  0  0  0  0  0  0  0
  161.3930  200.6670  148.5200 C   0  0  0  0  0  2  0  0  0  0  0  0
  160.3830  202.5440  149.5630 C   0  0  2  0  0  3  0  0  0  0  0  0
  160.9520  201.1730  149.8600 C   0  0  0  0  0  2  0  0  0  0  0  0
  160.8980  202.9700  148.3280 O   0  0  0  0  0  0  0  0  0  0  0  0
  161.0600  201.7980  147.5760 C   0  0  0  0  0  2  0  0  0  0  0  0
  161.2910  207.6930  148.0320 C   0  0  1  0  0  3  0  0  0  0  0  0
  162.1360  211.4630  148.4510 C   0  0  0  0  0  1  0  0  0  0  0  0
  161.4090  210.2130  148.3070 N   0  0  0  0  0  2  0  0  0  0  0  0
  163.3350  208.8960  148.2240 O   0  0  0  0  0  0  0  0  0  0  0  0
  162.0770  208.9540  148.1970 C   0  0  0  0  0  0  0  0  0  0  0  0
  161.8690  206.8390  146.9110 C   0  0  0  0  0  2  0  0  0  0  0  0
  160.7530  206.2260  146.0790 C   0  0  0  0  0  2  0  0  0  0  0  0
  161.2230  205.2180  143.9800 O   0  0  0  0  0  1  0  0  0  0  0  0
  162.6730  204.6710  145.7780 C   0  0  0  0  0  1  0  0  0  0  0  0
  161.2510  204.9890  145.3550 C   0  0  1  0  0  3  0  0  0  0  0  0
  1 11  1  1  0  0  0
  1  5  1  0  0  0  0
  1 12  1  0  0  0  0
  3 12  1  0  0  0  0
  4  3  1  0  0  0  0
  5  7  1  0  0  0  0
  7  2  1  0  0  0  0
  7  6  2  0  0  0  0
  8  5  2  0  0  0  0
  9  8  1  0  0  0  0
 10  6  1  0  0  0  0
 11  4  2  0  0  0  0
 12 10  2  0  0  0  0
 13  9  2  0  0  0  0
 13 11  1  0  0  0  0
 14 16  1  0  0  0  0
 15 16  1  0  0  0  0
 15  4  1  1  0  0  0
 17 15  1  0  0  0  0
 18 17  1  0  0  0  0
 18 14  1  0  0  0  0
 19 24  1  6  0  0  0
 19 23  1  0  0  0  0
 19  9  1  0  0  0  0
 21 20  1  0  0  0  0
 23 22  2  0  0  0  0
 23 21  1  0  0  0  0
 25 24  1  0  0  0  0
 26 28  1  0  0  0  0
 28 27  1  1  0  0  0
 28 25  1  0  0  0  0
M  END
>  <MODEL>
2

>  <REMARK>
 VINA RESULT:      -7.0      2.260      5.734
  Name = 
  6 active torsions:
  status: ('A' for Active; 'I' for Inactive)
    1  A    between atoms: C_5  and  C_11
    2  A    between atoms: C_6  and  C_15
    3  A    between atoms: C_6  and  C_25
    4  A    between atoms: C_15  and  C_16
    5  A    between atoms: C_16  and  C_17
    6  A    between atoms: C_16  and  C_21
                            x       y       z     vdW  Elec       q    Type
                         _______ _______ _______ _____ _____    ______ ____

>  <TORSDO>
F 6

$$$$
=
 OpenBabel11072411163D

 28 31  0  0  1  0  0  0  0  0999 V2000
  160.9900  203.5520  150.0940 C   0  0  0  0  0  0  0  0  0  0  0  0
  161.7430  201.2000  147.5990 N   0  0  0  0  0  1  0  0  0  0  0  0
  160.9120  203.4620  152.5740 S   0  0  0  0  0  0  0  0  0  0  0  0
  161.2410  204.9980  151.8970 C   0  0  0  0  0  0  0  0  0  0  0  0
  160.9680  203.1900  148.7620 C   0  0  0  0  0  0  0  0  0  0  0  0
  160.4220  200.8530  149.6120 C   0  0  0  0  0  3  0  0  0  0  0  0
  160.6610  201.7520  148.3960 C   0  0  2  0  0  3  0  0  0  0  0  0
  161.2220  204.1960  147.8140 C   0  0  0  0  0  3  0  0  0  0  0  0
  161.5060  205.5100  148.2500 C   0  0  0  0  0  0  0  0  0  0  0  0
  160.4750  201.2890  150.8430 N   0  0  0  0  0  0  0  0  0  0  0  0
  161.2660  204.8450  150.5070 C   0  0  0  0  0  0  0  0  0  0  0  0
  160.7630  202.6640  151.0980 C   0  0  0  0  0  0  0  0  0  0  0  0
  161.5270  205.8110  149.5890 N   0  0  0  0  0  0  0  0  0  0  0  0
  160.8210  207.4320  154.5600 C   0  0  0  0  0  2  0  0  0  0  0  0
  161.6070  206.2370  152.6660 C   0  0  2  0  0  3  0  0  0  0  0  0
  161.3200  206.0810  154.1440 C   0  0  0  0  0  2  0  0  0  0  0  0
  160.8870  207.3490  152.2000 O   0  0  0  0  0  0  0  0  0  0  0  0
  160.8430  208.2380  153.2820 C   0  0  0  0  0  2  0  0  0  0  0  0
  161.7800  206.5740  147.2310 C   0  0  1  0  0  3  0  0  0  0  0  0
  161.4120  205.3610  143.5570 C   0  0  0  0  0  1  0  0  0  0  0  0
  161.9690  205.6970  144.8570 N   0  0  0  0  0  2  0  0  0  0  0  0
  159.9310  206.4120  145.7430 O   0  0  0  0  0  0  0  0  0  0  0  0
  161.1640  206.2240  145.9150 C   0  0  0  0  0  0  0  0  0  0  0  0
  161.3050  207.9420  147.7040 C   0  0  0  0  0  2  0  0  0  0  0  0
  162.3860  208.6260  148.5260 C   0  0  0  0  0  2  0  0  0  0  0  0
  162.3400  209.8810  150.5430 O   0  0  0  0  0  1  0  0  0  0  0  0
  162.1800  211.1070  148.5160 C   0  0  0  0  0  1  0  0  0  0  0  0
  161.8160  209.8300  149.2520 C   0  0  1  0  0  3  0  0  0  0  0  0
  1 11  1  0  0  0  0
  1 12  2  0  0  0  0
  4  3  1  0  0  0  0
  5  1  1  0  0  0  0
  6 10  2  0  0  0  0
  7  2  1  1  0  0  0
  7  5  1  0  0  0  0
  7  6  1  0  0  0  0
  8  9  1  0  0  0  0
  8  5  2  0  0  0  0
  9 13  2  0  0  0  0
 10 12  1  0  0  0  0
 11  4  2  0  0  0  0
 12  3  1  0  0  0  0
 13 11  1  0  0  0  0
 15  4  1  6  0  0  0
 15 16  1  0  0  0  0
 16 14  1  0  0  0  0
 17 15  1  0  0  0  0
 17 18  1  0  0  0  0
 18 14  1  0  0  0  0
 19 24  1  1  0  0  0
 19  9  1  0  0  0  0
 20 21  1  0  0  0  0
 21 23  1  0  0  0  0
 22 23  2  0  0  0  0
 23 19  1  0  0  0  0
 24 25  1  0  0  0  0
 25 28  1  0  0  0  0
 28 27  1  6  0  0  0
 28 26  1  0  0  0  0
M  END
>  <MODEL>
3

>  <REMARK>
 VINA RESULT:      -7.0      2.707      6.210
  Name = 
  6 active torsions:
  status: ('A' for Active; 'I' for Inactive)
    1  A    between atoms: C_5  and  C_11
    2  A    between atoms: C_6  and  C_15
    3  A    between atoms: C_6  and  C_25
    4  A    between atoms: C_15  and  C_16
    5  A    between atoms: C_16  and  C_17
    6  A    between atoms: C_16  and  C_21
                            x       y       z     vdW  Elec       q    Type
                         _______ _______ _______ _____ _____    ______ ____

>  <TORSDO>
F 6

$$$$
=
 OpenBabel11072411163D

 28 31  0  0  1  0  0  0  0  0999 V2000
  160.8940  204.0730  150.6400 C   0  0  0  0  0  0  0  0  0  0  0  0
  161.6250  201.7290  148.1330 N   0  0  0  0  0  1  0  0  0  0  0  0
  161.0470  204.0440  153.1190 S   0  0  0  0  0  0  0  0  0  0  0  0
  161.1760  205.5840  152.3850 C   0  0  0  0  0  0  0  0  0  0  0  0
  160.7840  203.6750  149.3230 C   0  0  0  0  0  0  0  0  0  0  0  0
  160.5260  201.3230  150.2640 C   0  0  0  0  0  3  0  0  0  0  0  0
  160.5740  202.2050  149.0140 C   0  0  2  0  0  3  0  0  0  0  0  0
  160.8620  204.6730  148.3380 C   0  0  0  0  0  3  0  0  0  0  0  0
  161.0660  206.0180  148.7200 C   0  0  0  0  0  0  0  0  0  0  0  0
  160.6500  201.7950  151.4770 N   0  0  0  0  0  0  0  0  0  0  0  0
  161.0890  205.3960  151.0020 C   0  0  0  0  0  0  0  0  0  0  0  0
  160.8370  203.1960  151.6780 C   0  0  0  0  0  0  0  0  0  0  0  0
  161.1800  206.3560  150.0460 N   0  0  0  0  0  0  0  0  0  0  0  0
  160.5720  208.2120  154.8170 C   0  0  0  0  0  2  0  0  0  0  0  0
  161.4980  206.8700  153.0940 C   0  0  2  0  0  3  0  0  0  0  0  0
  161.0760  206.8270  154.5470 C   0  0  0  0  0  2  0  0  0  0  0  0
  160.8480  207.9550  152.4850 O   0  0  0  0  0  0  0  0  0  0  0  0
  160.7260  208.9220  153.4930 C   0  0  0  0  0  2  0  0  0  0  0  0
  161.1520  207.0730  147.6600 C   0  0  1  0  0  3  0  0  0  0  0  0
  162.2540  210.6410  148.7380 C   0  0  0  0  0  1  0  0  0  0  0  0
  161.4480  209.5060  148.3210 N   0  0  0  0  0  2  0  0  0  0  0  0
  163.2460  208.0180  148.2800 O   0  0  0  0  0  0  0  0  0  0  0  0
  162.0140  208.2100  148.1070 C   0  0  0  0  0  0  0  0  0  0  0  0
  161.6510  206.5050  146.3380 C   0  0  0  0  0  2  0  0  0  0  0  0
  160.4800  206.1840  145.4210 C   0  0  0  0  0  2  0  0  0  0  0  0
  161.4550  205.5780  143.3410 O   0  0  0  0  0  1  0  0  0  0  0  0
  161.7980  204.0880  145.1570 C   0  0  0  0  0  1  0  0  0  0  0  0
  160.8430  205.0520  144.4780 C   0  0  1  0  0  3  0  0  0  0  0  0
  1 11  1  0  0  0  0
  1 12  2  0  0  0  0
  4  3  1  0  0  0  0
  5  1  1  0  0  0  0
  6 10  2  0  0  0  0
  7  2  1  6  0  0  0
  7  5  1  0  0  0  0
  7  6  1  0  0  0  0
  8  9  1  0  0  0  0
  8  5  2  0  0  0  0
  9 13  2  0  0  0  0
 10 12  1  0  0  0  0
 11  4  2  0  0  0  0
 12  3  1  0  0  0  0
 13 11  1  0  0  0  0
 15  4  1  6  0  0  0
 15 16  1  0  0  0  0
 16 14  1  0  0  0  0
 17 15  1  0  0  0  0
 17 18  1  0  0  0  0
 18 14  1  0  0  0  0
 19 24  1  6  0  0  0
 19 23  1  0  0  0  0
 19  9  1  0  0  0  0
 21 20  1  0  0  0  0
 23 22  2  0  0  0  0
 23 21  1  0  0  0  0
 25 24  1  0  0  0  0
 26 28  1  0  0  0  0
 28 27  1  1  0  0  0
 28 25  1  0  0  0  0
M  END
>  <MODEL>
4

>  <REMARK>
 VINA RESULT:      -6.7      2.776      5.585
  Name = 
  6 active torsions:
  status: ('A' for Active; 'I' for Inactive)
    1  A    between atoms: C_5  and  C_11
    2  A    between atoms: C_6  and  C_15
    3  A    between atoms: C_6  and  C_25
    4  A    between atoms: C_15  and  C_16
    5  A    between atoms: C_16  and  C_17
    6  A    between atoms: C_16  and  C_21
                            x       y       z     vdW  Elec       q    Type
                         _______ _______ _______ _____ _____    ______ ____

>  <TORSDO>
F 6

$$$$
=
 OpenBabel11072411163D

 28 31  0  0  1  0  0  0  0  0999 V2000
  161.2800  205.4130  151.5460 C   0  0  2  0  0  3  0  0  0  0  0  0
  160.8370  208.5860  152.9790 N   0  0  0  0  0  1  0  0  0  0  0  0
  160.5640  203.1230  152.1850 S   0  0  0  0  0  0  0  0  0  0  0  0
  160.8100  203.3840  150.5130 C   0  0  0  0  0  0  0  0  0  0  0  0
  161.6340  206.7460  151.6040 C   0  0  0  0  0  0  0  0  0  0  0  0
  161.3570  206.5050  154.1240 C   0  0  0  0  0  3  0  0  0  0  0  0
  161.7120  207.4280  152.9560 C   0  0  0  0  0  0  0  0  0  0  0  0
  161.9150  207.3940  150.3900 C   0  0  0  0  0  3  0  0  0  0  0  0
  161.8090  206.6780  149.1750 C   0  0  0  0  0  0  0  0  0  0  0  0
  161.0240  205.2500  153.9660 N   0  0  0  0  0  0  0  0  0  0  0  0
  161.1840  204.7220  150.3500 C   0  0  0  0  0  0  0  0  0  0  0  0
  160.9820  204.6850  152.6560 C   0  0  0  0  0  0  0  0  0  0  0  0
  161.4410  205.3550  149.1760 N   0  0  0  0  0  0  0  0  0  0  0  0
  161.5810  200.5820  148.3350 C   0  0  0  0  0  2  0  0  0  0  0  0
  160.5080  202.4010  149.4170 C   0  0  2  0  0  3  0  0  0  0  0  0
  161.1380  201.0520  149.6880 C   0  0  0  0  0  2  0  0  0  0  0  0
  160.9870  202.8640  148.1810 O   0  0  0  0  0  0  0  0  0  0  0  0
  161.1880  201.7100  147.4100 C   0  0  0  0  0  2  0  0  0  0  0  0
  162.1070  207.3790  147.8860 C   0  0  1  0  0  3  0  0  0  0  0  0
  162.0690  204.8460  144.9390 C   0  0  0  0  0  1  0  0  0  0  0  0
  162.4910  205.6310  146.0860 N   0  0  0  0  0  2  0  0  0  0  0  0
  160.4560  206.7570  146.2890 O   0  0  0  0  0  0  0  0  0  0  0  0
  161.6260  206.5780  146.7180 C   0  0  0  0  0  0  0  0  0  0  0  0
  161.5150  208.7830  147.8580 C   0  0  0  0  0  2  0  0  0  0  0  0
  162.3930  209.7460  148.6430 C   0  0  0  0  0  2  0  0  0  0  0  0
  161.5040  211.7130  149.6340 O   0  0  0  0  0  1  0  0  0  0  0  0
  163.0810  212.0150  147.8860 C   0  0  0  0  0  1  0  0  0  0  0  0
  161.9360  211.1760  148.4230 C   0  0  1  0  0  3  0  0  0  0  0  0
  1 11  1  6  0  0  0
  1  5  1  0  0  0  0
  1 12  1  0  0  0  0
  3 12  1  0  0  0  0
  4  3  1  0  0  0  0
  5  7  1  0  0  0  0
  7  2  1  0  0  0  0
  7  6  2  0  0  0  0
  8  5  2  0  0  0  0
  9 13  2  0  0  0  0
  9  8  1  0  0  0  0
 10  6  1  0  0  0  0
 11  4  2  0  0  0  0
 12 10  2  0  0  0  0
 13 11  1  0  0  0  0
 14 16  1  0  0  0  0
 15 16  1  0  0  0  0
 15  4  1  1  0  0  0
 17 15  1  0  0  0  0
 18 17  1  0  0  0  0
 18 14  1  0  0  0  0
 19 24  1  1  0  0  0
 19  9  1  0  0  0  0
 20 21  1  0  0  0  0
 21 23  1  0  0  0  0
 22 23  2  0  0  0  0
 23 19  1  0  0  0  0
 24 25  1  0  0  0  0
 28 27  1  1  0  0  0
 28 25  1  0  0  0  0
 28 26  1  0  0  0  0
M  END
>  <MODEL>
5

>  <REMARK>
 VINA RESULT:      -6.5      2.101      6.392
  Name = 
  6 active torsions:
  status: ('A' for Active; 'I' for Inactive)
    1  A    between atoms: C_5  and  C_11
    2  A    between atoms: C_6  and  C_15
    3  A    between atoms: C_6  and  C_25
    4  A    between atoms: C_15  and  C_16
    5  A    between atoms: C_16  and  C_17
    6  A    between atoms: C_16  and  C_21
                            x       y       z     vdW  Elec       q    Type
                         _______ _______ _______ _____ _____    ______ ____

>  <TORSDO>
F 6

$$$$
=
 OpenBabel11072411163D

 28 31  0  0  1  0  0  0  0  0999 V2000
  161.4150  208.5540  151.1830 C   0  0  2  0  0  3  0  0  0  0  0  0
  162.0400  206.1030  153.6170 N   0  0  0  0  0  1  0  0  0  0  0  0
  161.6240  211.0290  151.1430 S   0  0  0  0  0  0  0  0  0  0  0  0
  161.7690  210.2460  149.6280 C   0  0  0  0  0  0  0  0  0  0  0  0
  161.2670  207.2520  151.6180 C   0  0  0  0  0  0  0  0  0  0  0  0
  160.9810  208.2690  153.9350 C   0  0  0  0  0  3  0  0  0  0  0  0
  161.0190  206.9930  153.0910 C   0  0  0  0  0  0  0  0  0  0  0  0
  161.3440  206.2360  150.6520 C   0  0  0  0  0  3  0  0  0  0  0  0
  161.5850  206.5730  149.3010 C   0  0  0  0  0  0  0  0  0  0  0  0
  161.1430  209.4650  153.4300 N   0  0  0  0  0  0  0  0  0  0  0  0
  161.6470  208.8720  149.8560 C   0  0  0  0  0  0  0  0  0  0  0  0
  161.3640  209.6190  152.0280 C   0  0  0  0  0  0  0  0  0  0  0  0
  161.7360  207.8850  148.9270 N   0  0  0  0  0  0  0  0  0  0  0  0
  162.7290  213.0730  147.5610 C   0  0  0  0  0  2  0  0  0  0  0  0
  162.1340  210.9080  148.3290 C   0  0  2  0  0  3  0  0  0  0  0  0
  163.1500  212.0110  148.5320 C   0  0  0  0  0  2  0  0  0  0  0  0
  161.0020  211.4690  147.7160 O   0  0  0  0  0  0  0  0  0  0  0  0
  161.4970  212.4980  146.9040 C   0  0  0  0  0  2  0  0  0  0  0  0
  161.6690  205.4800  148.2790 C   0  0  1  0  0  3  0  0  0  0  0  0
  160.6540  201.7370  148.5320 C   0  0  0  0  0  1  0  0  0  0  0  0
  161.2000  202.9960  148.0540 N   0  0  0  0  0  2  0  0  0  0  0  0
  160.5470  204.2020  149.9430 O   0  0  0  0  0  0  0  0  0  0  0  0
  161.1100  204.2020  148.8170 C   0  0  0  0  0  0  0  0  0  0  0  0
  160.9750  205.8690  146.9800 C   0  0  0  0  0  2  0  0  0  0  0  0
  161.9990  206.1200  145.8840 C   0  0  0  0  0  2  0  0  0  0  0  0
  162.8290  203.9700  145.3080 O   0  0  0  0  0  1  0  0  0  0  0  0
  160.5740  204.4360  144.7310 C   0  0  0  0  0  1  0  0  0  0  0  0
  161.9810  204.9870  144.8750 C   0  0  1  0  0  3  0  0  0  0  0  0
  1 11  1  1  0  0  0
  1  5  1  0  0  0  0
  1 12  1  0  0  0  0
  3 12  1  0  0  0  0
  4 11  2  0  0  0  0
  4  3  1  0  0  0  0
  5  7  1  0  0  0  0
  7  2  1  0  0  0  0
  7  6  2  0  0  0  0
  8  5  2  0  0  0  0
  9  8  1  0  0  0  0
 10  6  1  0  0  0  0
 12 10  2  0  0  0  0
 13  9  2  0  0  0  0
 13 11  1  0  0  0  0
 14 16  1  0  0  0  0
 15 16  1  0  0  0  0
 15  4  1  1  0  0  0
 17 15  1  0  0  0  0
 18 14  1  0  0  0  0
 18 17  1  0  0  0  0
 19 24  1  6  0  0  0
 19 23  1  0  0  0  0
 19  9  1  0  0  0  0
 21 20  1  0  0  0  0
 21 23  1  0  0  0  0
 23 22  2  0  0  0  0
 25 24  1  0  0  0  0
 28 27  1  1  0  0  0
 28 26  1  0  0  0  0
 28 25  1  0  0  0  0
M  END
>  <MODEL>
6

>  <REMARK>
 VINA RESULT:      -6.4      1.279      2.507
  Name = 
  6 active torsions:
  status: ('A' for Active; 'I' for Inactive)
    1  A    between atoms: C_5  and  C_11
    2  A    between atoms: C_6  and  C_15
    3  A    between atoms: C_6  and  C_25
    4  A    between atoms: C_15  and  C_16
    5  A    between atoms: C_16  and  C_17
    6  A    between atoms: C_16  and  C_21
                            x       y       z     vdW  Elec       q    Type
                         _______ _______ _______ _____ _____    ______ ____

>  <TORSDO>
F 6

$$$$
=
 OpenBabel11072411163D

 28 31  0  0  1  0  0  0  0  0999 V2000
  161.4430  205.6440  150.6460 C   0  0  2  0  0  3  0  0  0  0  0  0
  160.1270  205.8450  153.8940 N   0  0  0  0  0  1  0  0  0  0  0  0
  161.2060  204.0070  148.7930 S   0  0  0  0  0  0  0  0  0  0  0  0
  161.5690  205.6120  148.3250 C   0  0  0  0  0  0  0  0  0  0  0  0
  161.4720  206.2150  151.9020 C   0  0  0  0  0  0  0  0  0  0  0  0
  160.9830  203.8690  152.7620 C   0  0  0  0  0  3  0  0  0  0  0  0
  161.2420  205.3360  153.1150 C   0  0  0  0  0  0  0  0  0  0  0  0
  161.7290  207.5940  151.9790 C   0  0  0  0  0  3  0  0  0  0  0  0
  161.9240  208.3360  150.7920 C   0  0  0  0  0  0  0  0  0  0  0  0
  160.9650  203.4230  151.5330 N   0  0  0  0  0  0  0  0  0  0  0  0
  161.6400  206.3810  149.4900 C   0  0  0  0  0  0  0  0  0  0  0  0
  161.2000  204.3200  150.4480 C   0  0  0  0  0  0  0  0  0  0  0  0
  161.8730  207.7170  149.5680 N   0  0  0  0  0  0  0  0  0  0  0  0
  160.4570  205.7920  144.8720 C   0  0  0  0  0  2  0  0  0  0  0  0
  161.6230  206.1240  146.9120 C   0  0  2  0  0  3  0  0  0  0  0  0
  160.2430  206.2080  146.2960 C   0  0  0  0  0  2  0  0  0  0  0  0
  162.4080  205.2840  146.1040 O   0  0  0  0  0  0  0  0  0  0  0  0
  161.9340  205.4830  144.8000 C   0  0  0  0  0  2  0  0  0  0  0  0
  162.1940  209.8070  150.8860 C   0  0  1  0  0  3  0  0  0  0  0  0
  161.4090  212.4780  148.1750 C   0  0  0  0  0  1  0  0  0  0  0  0
  161.5800  211.8100  149.4540 N   0  0  0  0  0  2  0  0  0  0  0  0
  162.3310  209.8110  148.5110 O   0  0  0  0  0  0  0  0  0  0  0  0
  162.0490  210.4630  149.5500 C   0  0  0  0  0  0  0  0  0  0  0  0
  161.2970  210.4780  151.9180 C   0  0  0  0  0  2  0  0  0  0  0  0
  161.9510  210.4500  153.2910 C   0  0  0  0  0  2  0  0  0  0  0  0
  159.6440  210.7020  153.8000 O   0  0  0  0  0  1  0  0  0  0  0  0
  160.8820  209.2030  155.1620 C   0  0  0  0  0  1  0  0  0  0  0  0
  160.8960  210.5040  154.3800 C   0  0  1  0  0  3  0  0  0  0  0  0
  1 11  1  6  0  0  0
  1  5  1  0  0  0  0
  3 12  1  0  0  0  0
  4  3  1  0  0  0  0
  4 11  2  0  0  0  0
  5  8  2  0  0  0  0
  5  7  1  0  0  0  0
  6  7  2  0  0  0  0
  7  2  1  0  0  0  0
  9 19  1  0  0  0  0
  9  8  1  0  0  0  0
 10  6  1  0  0  0  0
 11 13  1  0  0  0  0
 12  1  1  0  0  0  0
 12 10  2  0  0  0  0
 13  9  2  0  0  0  0
 14 16  1  0  0  0  0
 15  4  1  1  0  0  0
 16 15  1  0  0  0  0
 17 15  1  0  0  0  0
 18 14  1  0  0  0  0
 18 17  1  0  0  0  0
 19 24  1  1  0  0  0
 20 21  1  0  0  0  0
 21 23  1  0  0  0  0
 22 23  2  0  0  0  0
 23 19  1  0  0  0  0
 24 25  1  0  0  0  0
 25 28  1  0  0  0  0
 26 28  1  0  0  0  0
 28 27  1  6  0  0  0
M  END
>  <MODEL>
7

>  <REMARK>
 VINA RESULT:      -6.3      2.478      6.160
  Name = 
  6 active torsions:
  status: ('A' for Active; 'I' for Inactive)
    1  A    between atoms: C_5  and  C_11
    2  A    between atoms: C_6  and  C_15
    3  A    between atoms: C_6  and  C_25
    4  A    between atoms: C_15  and  C_16
    5  A    between atoms: C_16  and  C_17
    6  A    between atoms: C_16  and  C_21
                            x       y       z     vdW  Elec       q    Type
                         _______ _______ _______ _____ _____    ______ ____

>  <TORSDO>
F 6

$$$$
=
 OpenBabel11072411163D

 28 31  0  0  1  0  0  0  0  0999 V2000
  161.2020  208.3430  153.1100 C   0  0  2  0  0  3  0  0  0  0  0  0
  159.7460  211.5350  153.1980 N   0  0  0  0  0  1  0  0  0  0  0  0
  160.8920  206.2740  154.4480 S   0  0  0  0  0  0  0  0  0  0  0  0
  161.4450  206.0460  152.8460 C   0  0  0  0  0  0  0  0  0  0  0  0
  161.2250  209.6670  152.7180 C   0  0  0  0  0  0  0  0  0  0  0  0
  160.4460  210.1750  155.0880 C   0  0  0  0  0  3  0  0  0  0  0  0
  160.8410  210.7370  153.7200 C   0  0  0  0  0  0  0  0  0  0  0  0
  161.6210  209.9430  151.3990 C   0  0  0  0  0  3  0  0  0  0  0  0
  161.9560  208.8780  150.5320 C   0  0  0  0  0  0  0  0  0  0  0  0
  160.4470  208.8960  155.3620 N   0  0  0  0  0  0  0  0  0  0  0  0
  161.5360  207.3080  152.2520 C   0  0  0  0  0  0  0  0  0  0  0  0
  160.8310  207.9550  154.3600 C   0  0  0  0  0  0  0  0  0  0  0  0
  161.9040  207.5790  150.9730 N   0  0  0  0  0  0  0  0  0  0  0  0
  160.5920  203.4770  150.4240 C   0  0  0  0  0  2  0  0  0  0  0  0
  161.6270  204.7200  152.1600 C   0  0  2  0  0  3  0  0  0  0  0  0
  161.2550  204.7940  150.6950 C   0  0  0  0  0  2  0  0  0  0  0  0
  160.8310  203.7320  152.7610 O   0  0  0  0  0  0  0  0  0  0  0  0
  160.6200  202.7730  151.7600 C   0  0  0  0  0  2  0  0  0  0  0  0
  162.3740  209.1840  149.1260 C   0  0  1  0  0  3  0  0  0  0  0  0
  160.8270  206.2890  147.0460 C   0  0  0  0  0  1  0  0  0  0  0  0
  160.9780  207.4740  147.8720 N   0  0  0  0  0  2  0  0  0  0  0  0
  163.3110  207.3830  147.8860 O   0  0  0  0  0  0  0  0  0  0  0  0
  162.2620  207.9710  148.2600 C   0  0  0  0  0  0  0  0  0  0  0  0
  161.5750  210.3410  148.5410 C   0  0  0  0  0  2  0  0  0  0  0  0
  162.4840  211.5280  148.2610 C   0  0  0  0  0  2  0  0  0  0  0  0
  160.7740  212.2240  146.7660 O   0  0  0  0  0  1  0  0  0  0  0  0
  160.9170  213.3740  148.8380 C   0  0  0  0  0  1  0  0  0  0  0  0
  161.6800  212.6930  147.7160 C   0  0  1  0  0  3  0  0  0  0  0  0
  1 11  1  6  0  0  0
  1 12  1  0  0  0  0
  2  7  1  0  0  0  0
  4  3  1  0  0  0  0
  5  1  1  0  0  0  0
  5  7  1  0  0  0  0
  6 10  1  0  0  0  0
  7  6  2  0  0  0  0
  8  5  2  0  0  0  0
  9 13  2  0  0  0  0
  9  8  1  0  0  0  0
 11  4  2  0  0  0  0
 12  3  1  0  0  0  0
 12 10  2  0  0  0  0
 13 11  1  0  0  0  0
 14 16  1  0  0  0  0
 14 18  1  0  0  0  0
 15 17  1  0  0  0  0
 15  4  1  1  0  0  0
 16 15  1  0  0  0  0
 18 17  1  0  0  0  0
 19 24  1  6  0  0  0
 19  9  1  0  0  0  0
 20 21  1  0  0  0  0
 21 23  1  0  0  0  0
 22 23  2  0  0  0  0
 23 19  1  0  0  0  0
 25 24  1  0  0  0  0
 26 28  1  0  0  0  0
 28 25  1  0  0  0  0
 28 27  1  1  0  0  0
M  END
>  <MODEL>
8

>  <REMARK>
 VINA RESULT:      -6.1      2.214      6.354
  Name = 
  6 active torsions:
  status: ('A' for Active; 'I' for Inactive)
    1  A    between atoms: C_5  and  C_11
    2  A    between atoms: C_6  and  C_15
    3  A    between atoms: C_6  and  C_25
    4  A    between atoms: C_15  and  C_16
    5  A    between atoms: C_16  and  C_17
    6  A    between atoms: C_16  and  C_21
                            x       y       z     vdW  Elec       q    Type
                         _______ _______ _______ _____ _____    ______ ____

>  <TORSDO>
F 6

$$$$
=
 OpenBabel11072411163D

 28 31  0  0  1  0  0  0  0  0999 V2000
  161.3620  203.9010  149.6040 C   0  0  2  0  0  3  0  0  0  0  0  0
  159.9410  203.2140  152.7400 N   0  0  0  0  0  1  0  0  0  0  0  0
  161.2420  202.7970  147.3830 S   0  0  0  0  0  0  0  0  0  0  0  0
  161.5600  204.4780  147.3610 C   0  0  0  0  0  0  0  0  0  0  0  0
  161.3330  204.1260  150.9660 C   0  0  0  0  0  0  0  0  0  0  0  0
  160.9020  201.6240  151.1690 C   0  0  0  0  0  3  0  0  0  0  0  0
  161.0980  202.9550  151.9000 C   0  0  0  0  0  0  0  0  0  0  0  0
  161.5370  205.4430  151.4080 C   0  0  0  0  0  3  0  0  0  0  0  0
  161.7420  206.4740  150.4620 C   0  0  0  0  0  0  0  0  0  0  0  0
  160.9380  201.5130  149.8660 N   0  0  0  0  0  0  0  0  0  0  0  0
  161.5680  204.9180  148.6880 C   0  0  0  0  0  0  0  0  0  0  0  0
  161.1730  202.6680  149.0610 C   0  0  0  0  0  0  0  0  0  0  0  0
  161.7510  206.1940  149.1180 N   0  0  0  0  0  0  0  0  0  0  0  0
  160.1610  206.2150  144.4950 C   0  0  0  0  0  2  0  0  0  0  0  0
  161.6390  205.3410  146.1320 C   0  0  2  0  0  3  0  0  0  0  0  0
  160.4040  206.2010  145.9740 C   0  0  0  0  0  2  0  0  0  0  0  0
  161.7720  204.5550  144.9760 O   0  0  0  0  0  0  0  0  0  0  0  0
  161.2610  205.3450  143.9360 C   0  0  0  0  0  2  0  0  0  0  0  0
  161.9550  207.8760  150.9440 C   0  0  1  0  0  3  0  0  0  0  0  0
  162.0440  211.1860  148.9100 C   0  0  0  0  0  1  0  0  0  0  0  0
  161.9500  210.2330  150.0030 N   0  0  0  0  0  2  0  0  0  0  0  0
  162.2760  208.3670  148.6380 O   0  0  0  0  0  0  0  0  0  0  0  0
  162.0760  208.8240  149.7950 C   0  0  0  0  0  0  0  0  0  0  0  0
  160.8510  208.3180  151.8960 C   0  0  0  0  0  2  0  0  0  0  0  0
  161.4100  208.5500  153.2910 C   0  0  0  0  0  2  0  0  0  0  0  0
  161.5250  210.3940  154.7840 O   0  0  0  0  0  1  0  0  0  0  0  0
  160.0110  210.5830  152.9670 C   0  0  0  0  0  1  0  0  0  0  0  0
  160.6470  209.6590  153.9890 C   0  0  1  0  0  3  0  0  0  0  0  0
  1 11  1  6  0  0  0
  1  5  1  0  0  0  0
  3 12  1  0  0  0  0
  4  3  1  0  0  0  0
  4 11  2  0  0  0  0
  5  8  2  0  0  0  0
  5  7  1  0  0  0  0
  6  7  2  0  0  0  0
  7  2  1  0  0  0  0
  9 19  1  0  0  0  0
  9  8  1  0  0  0  0
 10  6  1  0  0  0  0
 11 13  1  0  0  0  0
 12  1  1  0  0  0  0
 12 10  2  0  0  0  0
 13  9  2  0  0  0  0
 14 16  1  0  0  0  0
 15  4  1  1  0  0  0
 16 15  1  0  0  0  0
 17 15  1  0  0  0  0
 18 14  1  0  0  0  0
 18 17  1  0  0  0  0
 19 24  1  1  0  0  0
 20 21  1  0  0  0  0
 22 23  2  0  0  0  0
 23 21  1  0  0  0  0
 23 19  1  0  0  0  0
 24 25  1  0  0  0  0
 25 28  1  0  0  0  0
 28 27  1  6  0  0  0
 28 26  1  0  0  0  0
M  END
>  <MODEL>
9

>  <REMARK>
 VINA RESULT:      -6.0      2.883      6.444
  Name = 
  6 active torsions:
  status: ('A' for Active; 'I' for Inactive)
    1  A    between atoms: C_5  and  C_11
    2  A    between atoms: C_6  and  C_15
    3  A    between atoms: C_6  and  C_25
    4  A    between atoms: C_15  and  C_16
    5  A    between atoms: C_16  and  C_17
    6  A    between atoms: C_16  and  C_21
                            x       y       z     vdW  Elec       q    Type
                         _______ _______ _______ _____ _____    ______ ____

>  <TORSDO>
F 6

$$$$
