=
 OpenBabel11072413173D

 27 29  0  0  0  0  0  0  0  0999 V2000
  160.5190  207.1710  154.3060 C   0  0  0  0  0  3  0  0  0  0  0  0
  161.6180  206.5580  149.3830 N   0  0  0  0  0  0  0  0  0  0  0  0
  162.8110  208.0180  147.9960 O   0  0  0  0  0  0  0  0  0  0  0  0
  160.4980  205.6230  149.5190 C   0  0  0  0  0  2  0  0  0  0  0  0
  161.4070  202.1280  151.8040 N   0  0  0  0  0  0  0  0  0  0  0  0
  160.6430  202.9670  148.2410 C   0  0  0  0  0  1  0  0  0  0  0  0
  160.8770  204.4030  150.3130 C   0  0  0  0  0  0  0  0  0  0  0  0
  161.3900  203.3370  152.4250 C   0  0  0  0  0  3  0  0  0  0  0  0
  161.8640  207.1950  148.1190 C   0  0  0  0  0  0  0  0  0  0  0  0
  160.9090  203.1390  149.6980 C   0  0  0  0  0  0  0  0  0  0  0  0
  160.5410  205.9400  153.6470 C   0  0  0  0  0  3  0  0  0  0  0  0
  161.7560  206.9510  151.8070 C   0  0  0  0  0  0  0  0  0  0  0  0
  161.1800  202.0090  150.4700 C   0  0  0  0  0  3  0  0  0  0  0  0
  161.7270  208.1780  152.4760 C   0  0  0  0  0  3  0  0  0  0  0  0
  162.5040  206.8580  150.5120 C   0  0  0  0  0  2  0  0  0  0  0  0
  161.1510  205.8170  152.3920 C   0  0  0  0  0  0  0  0  0  0  0  0
  161.1140  208.3020  153.7300 C   0  0  0  0  0  0  0  0  0  0  0  0
  161.1350  204.5070  151.6980 C   0  0  0  0  0  0  0  0  0  0  0  0
  160.8170  210.6430  153.6950 O   0  0  0  0  0  0  0  0  0  0  0  0
  162.0240  208.8070  156.6000 C   0  0  0  0  0  1  0  0  0  0  0  0
  161.0690  209.6250  154.3980 C   0  0  0  0  0  0  0  0  0  0  0  0
  161.2930  209.7880  155.8130 N   0  0  0  0  0  0  0  0  0  0  0  0
  160.8560  210.9970  156.4970 C   0  0  0  0  0  2  0  0  0  0  0  0
  159.5090  210.8870  156.8470 O   0  0  0  0  0  1  0  0  0  0  0  0
  161.0300  206.8790  146.9190 C   0  0  0  0  0  2  0  0  0  0  0  0
  161.7320  205.9240  146.0580 C   0  0  0  0  0  0  0  0  0  0  0  0
  162.2870  205.1700  145.3780 N   0  0  0  0  0  0  0  0  0  0  0  0
  2  4  1  0  0  0  0
  2 15  1  0  0  0  0
  3  9  2  0  0  0  0
  4  7  1  0  0  0  0
  5  8  1  0  0  0  0
  6 10  1  0  0  0  0
  7 18  1  0  0  0  0
  9  2  1  0  0  0  0
 10  7  2  0  0  0  0
 10 13  1  0  0  0  0
 11  1  2  0  0  0  0
 12 16  2  0  0  0  0
 12 14  1  0  0  0  0
 13  5  2  0  0  0  0
 14 17  2  0  0  0  0
 15 12  1  0  0  0  0
 16 11  1  0  0  0  0
 17  1  1  0  0  0  0
 17 21  1  0  0  0  0
 18 16  1  0  0  0  0
 18  8  2  0  0  0  0
 19 21  2  0  0  0  0
 21 22  1  0  0  0  0
 22 23  1  0  0  0  0
 22 20  1  0  0  0  0
 23 24  1  0  0  0  0
 25  9  1  0  0  0  0
 26 25  1  0  0  0  0
 27 26  3  0  0  0  0
M  END
>  <MODEL>
1

>  <REMARK>
 VINA RESULT:      -8.0      0.000      0.000
  Name = 
  4 active torsions:
  status: ('A' for Active; 'I' for Inactive)
    1  A    between atoms: C_4  and  C_23
    2  A    between atoms: C_6  and  N_21
    3  A    between atoms: C_13  and  C_23
    4  A    between atoms: C_17  and  C_26
                            x       y       z     vdW  Elec       q    Type
                         _______ _______ _______ _____ _____    ______ ____

>  <TORSDO>
F 4

$$$$
=
 OpenBabel11072413173D

 27 29  0  0  0  0  0  0  0  0999 V2000
  161.4620  210.4490  150.7470 C   0  0  0  0  0  3  0  0  0  0  0  0
  161.5760  206.3470  147.7490 N   0  0  0  0  0  0  0  0  0  0  0  0
  162.4950  206.1740  145.6040 O   0  0  0  0  0  0  0  0  0  0  0  0
  160.4920  205.9740  148.6630 C   0  0  0  0  0  2  0  0  0  0  0  0
  161.7860  205.0820  152.6370 N   0  0  0  0  0  0  0  0  0  0  0  0
  160.3530  203.2240  149.7250 C   0  0  0  0  0  1  0  0  0  0  0  0
  161.0030  205.6500  150.0400 C   0  0  0  0  0  0  0  0  0  0  0  0
  161.9040  206.3540  152.1740 C   0  0  0  0  0  3  0  0  0  0  0  0
  161.5790  205.8420  146.4050 C   0  0  0  0  0  0  0  0  0  0  0  0
  160.9000  204.3430  150.5460 C   0  0  0  0  0  0  0  0  0  0  0  0
  161.3410  209.1340  151.2000 C   0  0  0  0  0  3  0  0  0  0  0  0
  162.1870  208.3270  149.0750 C   0  0  0  0  0  0  0  0  0  0  0  0
  161.3010  204.0820  151.8560 C   0  0  0  0  0  3  0  0  0  0  0  0
  162.3040  209.6470  148.6320 C   0  0  0  0  0  3  0  0  0  0  0  0
  162.6680  207.2260  148.1790 C   0  0  0  0  0  2  0  0  0  0  0  0
  161.6930  208.0610  150.3710 C   0  0  0  0  0  0  0  0  0  0  0  0
  161.9470  210.7210  149.4610 C   0  0  0  0  0  0  0  0  0  0  0  0
  161.5270  206.6730  150.8630 C   0  0  0  0  0  0  0  0  0  0  0  0
  163.0630  212.4220  148.2640 O   0  0  0  0  0  0  0  0  0  0  0  0
  160.1060  213.0030  150.3100 C   0  0  0  0  0  1  0  0  0  0  0  0
  162.0500  212.1080  148.9490 C   0  0  0  0  0  0  0  0  0  0  0  0
  161.0360  213.1030  149.1950 N   0  0  0  0  0  0  0  0  0  0  0  0
  160.9570  214.3000  148.3690 C   0  0  0  0  0  2  0  0  0  0  0  0
  160.3270  214.0040  147.1590 O   0  0  0  0  0  1  0  0  0  0  0  0
  160.5240  204.8940  145.9330 C   0  0  0  0  0  2  0  0  0  0  0  0
  161.0250  203.5190  145.9900 C   0  0  0  0  0  0  0  0  0  0  0  0
  161.4200  202.4320  146.0350 N   0  0  0  0  0  0  0  0  0  0  0  0
  1 11  1  0  0  0  0
  2 15  1  0  0  0  0
  2  4  1  0  0  0  0
  3  9  2  0  0  0  0
  4  7  1  0  0  0  0
  6 10  1  0  0  0  0
  7 10  2  0  0  0  0
  7 18  1  0  0  0  0
  8  5  1  0  0  0  0
  9  2  1  0  0  0  0
 10 13  1  0  0  0  0
 12 16  1  0  0  0  0
 13  5  2  0  0  0  0
 14 12  2  0  0  0  0
 14 17  1  0  0  0  0
 15 12  1  0  0  0  0
 16 18  1  0  0  0  0
 16 11  2  0  0  0  0
 17  1  2  0  0  0  0
 18  8  2  0  0  0  0
 19 21  2  0  0  0  0
 21 22  1  0  0  0  0
 21 17  1  0  0  0  0
 22 20  1  0  0  0  0
 23 22  1  0  0  0  0
 24 23  1  0  0  0  0
 25 26  1  0  0  0  0
 25  9  1  0  0  0  0
 26 27  3  0  0  0  0
M  END
>  <MODEL>
2

>  <REMARK>
 VINA RESULT:      -7.2      3.274      4.529
  Name = 
  4 active torsions:
  status: ('A' for Active; 'I' for Inactive)
    1  A    between atoms: C_4  and  C_23
    2  A    between atoms: C_6  and  N_21
    3  A    between atoms: C_13  and  C_23
    4  A    between atoms: C_17  and  C_26
                            x       y       z     vdW  Elec       q    Type
                         _______ _______ _______ _____ _____    ______ ____

>  <TORSDO>
F 4

$$$$
=
 OpenBabel11072413173D

 27 29  0  0  0  0  0  0  0  0999 V2000
  161.3730  202.7170  150.8340 C   0  0  0  0  0  3  0  0  0  0  0  0
  161.5150  207.6420  149.5870 N   0  0  0  0  0  0  0  0  0  0  0  0
  160.9250  208.6120  147.5410 O   0  0  0  0  0  0  0  0  0  0  0  0
  162.4290  207.6360  150.7330 C   0  0  0  0  0  2  0  0  0  0  0  0
  160.5060  206.9970  154.4960 N   0  0  0  0  0  0  0  0  0  0  0  0
  162.2700  209.7900  152.7440 C   0  0  0  0  0  1  0  0  0  0  0  0
  161.6990  207.4280  152.0320 C   0  0  0  0  0  0  0  0  0  0  0  0
  160.5210  205.9900  153.5830 C   0  0  0  0  0  3  0  0  0  0  0  0
  161.6910  208.6110  148.5420 C   0  0  0  0  0  0  0  0  0  0  0  0
  161.6610  208.4520  152.9950 C   0  0  0  0  0  0  0  0  0  0  0  0
  161.3600  203.7670  151.7540 C   0  0  0  0  0  3  0  0  0  0  0  0
  160.8070  205.3180  149.9720 C   0  0  0  0  0  0  0  0  0  0  0  0
  161.0530  208.2100  154.2270 C   0  0  0  0  0  3  0  0  0  0  0  0
  160.8230  204.2590  149.0600 C   0  0  0  0  0  3  0  0  0  0  0  0
  160.4140  206.6790  149.4830 C   0  0  0  0  0  2  0  0  0  0  0  0
  161.0850  205.0760  151.3350 C   0  0  0  0  0  0  0  0  0  0  0  0
  161.1020  202.9500  149.4790 C   0  0  0  0  0  0  0  0  0  0  0  0
  161.1070  206.1790  152.3250 C   0  0  0  0  0  0  0  0  0  0  0  0
  161.2150  200.6650  148.8990 O   0  0  0  0  0  0  0  0  0  0  0  0
  161.4840  203.3750  146.4800 C   0  0  0  0  0  1  0  0  0  0  0  0
  161.1460  201.8540  148.4810 C   0  0  0  0  0  0  0  0  0  0  0  0
  161.1030  202.0960  147.0600 N   0  0  0  0  0  0  0  0  0  0  0  0
  160.7450  201.0280  146.1380 C   0  0  0  0  0  2  0  0  0  0  0  0
  159.9740  201.5390  145.0920 O   0  0  0  0  0  1  0  0  0  0  0  0
  162.7580  209.6550  148.6280 C   0  0  0  0  0  2  0  0  0  0  0  0
  162.1550  210.9900  148.6200 C   0  0  0  0  0  0  0  0  0  0  0  0
  161.6780  212.0440  148.6130 N   0  0  0  0  0  0  0  0  0  0  0  0
  1 11  1  0  0  0  0
  2  4  1  0  0  0  0
  3  9  2  0  0  0  0
  4  7  1  0  0  0  0
  6 10  1  0  0  0  0
  7 18  2  0  0  0  0
  7 10  1  0  0  0  0
  8  5  2  0  0  0  0
  9 25  1  0  0  0  0
  9  2  1  0  0  0  0
 10 13  2  0  0  0  0
 12 16  1  0  0  0  0
 13  5  1  0  0  0  0
 14 17  1  0  0  0  0
 14 12  2  0  0  0  0
 15  2  1  0  0  0  0
 15 12  1  0  0  0  0
 16 11  2  0  0  0  0
 16 18  1  0  0  0  0
 17  1  2  0  0  0  0
 18  8  1  0  0  0  0
 20 22  1  0  0  0  0
 21 19  2  0  0  0  0
 21 17  1  0  0  0  0
 22 21  1  0  0  0  0
 23 22  1  0  0  0  0
 24 23  1  0  0  0  0
 26 25  1  0  0  0  0
 27 26  3  0  0  0  0
M  END
>  <MODEL>
3

>  <REMARK>
 VINA RESULT:      -7.1      2.934      7.171
  Name = 
  4 active torsions:
  status: ('A' for Active; 'I' for Inactive)
    1  A    between atoms: C_4  and  C_23
    2  A    between atoms: C_6  and  N_21
    3  A    between atoms: C_13  and  C_23
    4  A    between atoms: C_17  and  C_26
                            x       y       z     vdW  Elec       q    Type
                         _______ _______ _______ _____ _____    ______ ____

>  <TORSDO>
F 4

$$$$
=
 OpenBabel11072413173D

 27 29  0  0  0  0  0  0  0  0999 V2000
  160.5880  207.7470  154.4110 C   0  0  0  0  0  3  0  0  0  0  0  0
  161.6750  206.8860  149.5210 N   0  0  0  0  0  0  0  0  0  0  0  0
  162.9270  208.2390  148.0800 O   0  0  0  0  0  0  0  0  0  0  0  0
  160.5180  206.0030  149.6920 C   0  0  0  0  0  2  0  0  0  0  0  0
  161.2840  202.5730  152.1250 N   0  0  0  0  0  0  0  0  0  0  0  0
  160.5620  203.2910  148.5260 C   0  0  0  0  0  1  0  0  0  0  0  0
  160.8470  204.8020  150.5370 C   0  0  0  0  0  0  0  0  0  0  0  0
  161.3120  203.8060  152.6940 C   0  0  0  0  0  3  0  0  0  0  0  0
  161.9480  207.4600  148.2330 C   0  0  0  0  0  0  0  0  0  0  0  0
  160.8310  203.5140  149.9760 C   0  0  0  0  0  0  0  0  0  0  0  0
  160.5640  206.4890  153.8040 C   0  0  0  0  0  3  0  0  0  0  0  0
  161.8220  207.3740  151.9280 C   0  0  0  0  0  0  0  0  0  0  0  0
  161.0550  202.4070  150.7960 C   0  0  0  0  0  3  0  0  0  0  0  0
  161.8400  208.6280  152.5450 C   0  0  0  0  0  3  0  0  0  0  0  0
  162.5690  207.1980  150.6400 C   0  0  0  0  0  2  0  0  0  0  0  0
  161.1710  206.2900  152.5570 C   0  0  0  0  0  0  0  0  0  0  0  0
  161.2280  208.8280  153.7910 C   0  0  0  0  0  0  0  0  0  0  0  0
  161.1050  204.9540  151.9180 C   0  0  0  0  0  0  0  0  0  0  0  0
  162.3370  210.7860  154.5030 O   0  0  0  0  0  0  0  0  0  0  0  0
  158.8390  210.0720  155.2280 C   0  0  0  0  0  1  0  0  0  0  0  0
  161.2350  210.1790  154.4020 C   0  0  0  0  0  0  0  0  0  0  0  0
  160.0340  210.8230  154.8730 N   0  0  0  0  0  0  0  0  0  0  0  0
  160.0010  212.2630  155.0870 C   0  0  0  0  0  2  0  0  0  0  0  0
  158.7350  212.6510  155.5290 O   0  0  0  0  0  1  0  0  0  0  0  0
  161.1050  207.1260  147.0440 C   0  0  0  0  0  2  0  0  0  0  0  0
  161.5200  205.8390  146.4810 C   0  0  0  0  0  0  0  0  0  0  0  0
  161.8480  204.8240  146.0360 N   0  0  0  0  0  0  0  0  0  0  0  0
  2  4  1  0  0  0  0
  2 15  1  0  0  0  0
  3  9  2  0  0  0  0
  4  7  1  0  0  0  0
  5  8  1  0  0  0  0
  6 10  1  0  0  0  0
  7 18  1  0  0  0  0
  9  2  1  0  0  0  0
 10  7  2  0  0  0  0
 10 13  1  0  0  0  0
 11  1  1  0  0  0  0
 12 14  2  0  0  0  0
 12 16  1  0  0  0  0
 13  5  2  0  0  0  0
 14 17  1  0  0  0  0
 15 12  1  0  0  0  0
 16 11  2  0  0  0  0
 17 21  1  0  0  0  0
 17  1  2  0  0  0  0
 18 16  1  0  0  0  0
 18  8  2  0  0  0  0
 21 19  2  0  0  0  0
 21 22  1  0  0  0  0
 22 23  1  0  0  0  0
 22 20  1  0  0  0  0
 23 24  1  0  0  0  0
 25  9  1  0  0  0  0
 26 25  1  0  0  0  0
 27 26  3  0  0  0  0
M  END
>  <MODEL>
4

>  <REMARK>
 VINA RESULT:      -6.9      1.037      1.144
  Name = 
  4 active torsions:
  status: ('A' for Active; 'I' for Inactive)
    1  A    between atoms: C_4  and  C_23
    2  A    between atoms: C_6  and  N_21
    3  A    between atoms: C_13  and  C_23
    4  A    between atoms: C_17  and  C_26
                            x       y       z     vdW  Elec       q    Type
                         _______ _______ _______ _____ _____    ______ ____

>  <TORSDO>
F 4

$$$$
=
 OpenBabel11072413173D

 27 29  0  0  0  0  0  0  0  0999 V2000
  161.5930  207.5450  151.1240 C   0  0  0  0  0  3  0  0  0  0  0  0
  160.9640  202.9320  149.0850 N   0  0  0  0  0  0  0  0  0  0  0  0
  160.0830  201.0260  150.1170 O   0  0  0  0  0  0  0  0  0  0  0  0
  161.9610  203.4910  148.1670 C   0  0  0  0  0  2  0  0  0  0  0  0
  160.4560  206.5780  145.6240 N   0  0  0  0  0  0  0  0  0  0  0  0
  161.6770  203.0620  145.2610 C   0  0  0  0  0  1  0  0  0  0  0  0
  161.3750  204.5570  147.2820 C   0  0  0  0  0  0  0  0  0  0  0  0
  160.5330  206.8040  146.9620 C   0  0  0  0  0  3  0  0  0  0  0  0
  160.9210  201.5150  149.3130 C   0  0  0  0  0  0  0  0  0  0  0  0
  161.2770  204.3510  145.8940 C   0  0  0  0  0  0  0  0  0  0  0  0
  161.5130  207.2890  149.7540 C   0  0  0  0  0  3  0  0  0  0  0  0
  160.6120  205.0860  150.2200 C   0  0  0  0  0  0  0  0  0  0  0  0
  160.8100  205.3840  145.0810 C   0  0  0  0  0  3  0  0  0  0  0  0
  160.6960  205.3530  151.5890 C   0  0  0  0  0  3  0  0  0  0  0  0
  160.0000  203.7910  149.7790 C   0  0  0  0  0  2  0  0  0  0  0  0
  161.0300  206.0590  149.2870 C   0  0  0  0  0  0  0  0  0  0  0  0
  161.1830  206.5820  152.0560 C   0  0  0  0  0  0  0  0  0  0  0  0
  160.9840  205.8000  147.8280 C   0  0  0  0  0  0  0  0  0  0  0  0
  161.5760  205.8440  154.2630 O   0  0  0  0  0  0  0  0  0  0  0  0
  160.3430  209.1710  153.4400 C   0  0  0  0  0  1  0  0  0  0  0  0
  161.2930  206.8210  153.5150 C   0  0  0  0  0  0  0  0  0  0  0  0
  161.1000  208.1220  154.1060 N   0  0  0  0  0  0  0  0  0  0  0  0
  161.5990  208.4100  155.4440 C   0  0  0  0  0  2  0  0  0  0  0  0
  160.5740  208.2510  156.3780 O   0  0  0  0  0  1  0  0  0  0  0  0
  161.8410  200.5870  148.5840 C   0  0  0  0  0  2  0  0  0  0  0  0
  161.2770  200.2480  147.2760 C   0  0  0  0  0  0  0  0  0  0  0  0
  160.8310  199.9800  146.2430 N   0  0  0  0  0  0  0  0  0  0  0  0
  1 17  1  0  0  0  0
  2  9  1  0  0  0  0
  2 15  1  0  0  0  0
  4  2  1  0  0  0  0
  5  8  1  0  0  0  0
  6 10  1  0  0  0  0
  7 18  1  0  0  0  0
  7  4  1  0  0  0  0
  8 18  2  0  0  0  0
  9  3  2  0  0  0  0
 10  7  2  0  0  0  0
 11  1  2  0  0  0  0
 12 14  1  0  0  0  0
 13  5  2  0  0  0  0
 13 10  1  0  0  0  0
 14 17  2  0  0  0  0
 15 12  1  0  0  0  0
 16 11  1  0  0  0  0
 16 12  2  0  0  0  0
 17 21  1  0  0  0  0
 18 16  1  0  0  0  0
 20 22  1  0  0  0  0
 21 22  1  0  0  0  0
 21 19  2  0  0  0  0
 22 23  1  0  0  0  0
 23 24  1  0  0  0  0
 25  9  1  0  0  0  0
 26 25  1  0  0  0  0
 27 26  3  0  0  0  0
M  END
>  <MODEL>
5

>  <REMARK>
 VINA RESULT:      -6.8      2.658      4.573
  Name = 
  4 active torsions:
  status: ('A' for Active; 'I' for Inactive)
    1  A    between atoms: C_4  and  C_23
    2  A    between atoms: C_6  and  N_21
    3  A    between atoms: C_13  and  C_23
    4  A    between atoms: C_17  and  C_26
                            x       y       z     vdW  Elec       q    Type
                         _______ _______ _______ _____ _____    ______ ____

>  <TORSDO>
F 4

$$$$
=
 OpenBabel11072413173D

 27 29  0  0  0  0  0  0  0  0999 V2000
  160.9330  205.5090  147.5610 C   0  0  0  0  0  3  0  0  0  0  0  0
  161.3430  207.0290  152.3940 N   0  0  0  0  0  0  0  0  0  0  0  0
  162.0040  205.7500  154.2390 O   0  0  0  0  0  0  0  0  0  0  0  0
  160.4560  208.0700  151.8660 C   0  0  0  0  0  2  0  0  0  0  0  0
  162.3610  210.7860  149.1720 N   0  0  0  0  0  0  0  0  0  0  0  0
  160.9020  210.8900  152.6140 C   0  0  0  0  0  1  0  0  0  0  0  0
  161.1810  209.0100  150.9410 C   0  0  0  0  0  0  0  0  0  0  0  0
  162.2120  209.4870  148.8040 C   0  0  0  0  0  3  0  0  0  0  0  0
  161.2620  206.6600  153.7800 C   0  0  0  0  0  0  0  0  0  0  0  0
  161.3560  210.3590  151.2960 C   0  0  0  0  0  0  0  0  0  0  0  0
  161.0860  206.8370  147.9630 C   0  0  0  0  0  3  0  0  0  0  0  0
  161.7820  206.0890  150.1630 C   0  0  0  0  0  0  0  0  0  0  0  0
  161.9540  211.2330  150.3880 C   0  0  0  0  0  3  0  0  0  0  0  0
  161.6260  204.7630  149.7500 C   0  0  0  0  0  3  0  0  0  0  0  0
  162.3220  206.3530  151.5360 C   0  0  0  0  0  2  0  0  0  0  0  0
  161.5030  207.1430  149.2660 C   0  0  0  0  0  0  0  0  0  0  0  0
  161.2050  204.4580  148.4480 C   0  0  0  0  0  0  0  0  0  0  0  0
  161.6280  208.5610  149.6780 C   0  0  0  0  0  0  0  0  0  0  0  0
  160.8040  202.1890  148.9570 O   0  0  0  0  0  0  0  0  0  0  0  0
  161.7240  203.3780  145.6400 C   0  0  0  0  0  1  0  0  0  0  0  0
  161.0150  203.0420  148.0510 C   0  0  0  0  0  0  0  0  0  0  0  0
  161.0520  202.6090  146.6760 N   0  0  0  0  0  0  0  0  0  0  0  0
  160.4760  201.3300  146.2870 C   0  0  0  0  0  2  0  0  0  0  0  0
  160.0750  201.3740  144.9510 O   0  0  0  0  0  1  0  0  0  0  0  0
  160.3250  207.3590  154.7110 C   0  0  0  0  0  2  0  0  0  0  0  0
  161.0590  208.3390  155.5170 C   0  0  0  0  0  0  0  0  0  0  0  0
  161.6390  209.1110  156.1530 N   0  0  0  0  0  0  0  0  0  0  0  0
  1 11  2  0  0  0  0
  1 17  1  0  0  0  0
  2  9  1  0  0  0  0
  4  2  1  0  0  0  0
  5 13  1  0  0  0  0
  7 10  1  0  0  0  0
  7  4  1  0  0  0  0
  8  5  2  0  0  0  0
  8 18  1  0  0  0  0
  9  3  2  0  0  0  0
  9 25  1  0  0  0  0
 10  6  1  0  0  0  0
 11 16  1  0  0  0  0
 12 15  1  0  0  0  0
 13 10  2  0  0  0  0
 14 12  1  0  0  0  0
 15  2  1  0  0  0  0
 16 18  1  0  0  0  0
 16 12  2  0  0  0  0
 17 14  2  0  0  0  0
 18  7  2  0  0  0  0
 20 22  1  0  0  0  0
 21 17  1  0  0  0  0
 21 19  2  0  0  0  0
 22 21  1  0  0  0  0
 23 22  1  0  0  0  0
 24 23  1  0  0  0  0
 25 26  1  0  0  0  0
 26 27  3  0  0  0  0
M  END
>  <MODEL>
6

>  <REMARK>
 VINA RESULT:      -6.6      2.926      8.254
  Name = 
  4 active torsions:
  status: ('A' for Active; 'I' for Inactive)
    1  A    between atoms: C_4  and  C_23
    2  A    between atoms: C_6  and  N_21
    3  A    between atoms: C_13  and  C_23
    4  A    between atoms: C_17  and  C_26
                            x       y       z     vdW  Elec       q    Type
                         _______ _______ _______ _____ _____    ______ ____

>  <TORSDO>
F 4

$$$$
=
 OpenBabel11072413173D

 27 29  0  0  0  0  0  0  0  0999 V2000
  161.9140  208.7300  149.8500 C   0  0  0  0  0  3  0  0  0  0  0  0
  160.9980  203.7570  149.3400 N   0  0  0  0  0  0  0  0  0  0  0  0
  160.0930  202.3030  150.9350 O   0  0  0  0  0  0  0  0  0  0  0  0
  161.9690  203.9560  148.2610 C   0  0  0  0  0  2  0  0  0  0  0  0
  160.4650  206.2030  144.9510 N   0  0  0  0  0  0  0  0  0  0  0  0
  161.5240  202.6820  145.6360 C   0  0  0  0  0  1  0  0  0  0  0  0
  161.3830  204.7330  147.1130 C   0  0  0  0  0  0  0  0  0  0  0  0
  160.6180  206.8190  146.1520 C   0  0  0  0  0  3  0  0  0  0  0  0
  160.9090  202.4790  149.9910 C   0  0  0  0  0  0  0  0  0  0  0  0
  161.2080  204.1230  145.8590 C   0  0  0  0  0  0  0  0  0  0  0  0
  161.7550  208.0750  148.6260 C   0  0  0  0  0  3  0  0  0  0  0  0
  160.7900  206.1690  149.7750 C   0  0  0  0  0  0  0  0  0  0  0  0
  160.7430  204.8840  144.7870 C   0  0  0  0  0  3  0  0  0  0  0  0
  160.9530  206.8340  150.9930 C   0  0  0  0  0  3  0  0  0  0  0  0
  160.1050  204.8360  149.7720 C   0  0  0  0  0  2  0  0  0  0  0  0
  161.2000  206.7890  148.5750 C   0  0  0  0  0  0  0  0  0  0  0  0
  161.5120  208.1190  151.0450 C   0  0  0  0  0  0  0  0  0  0  0  0
  161.0700  206.1030  147.2680 C   0  0  0  0  0  0  0  0  0  0  0  0
  162.3220  209.8830  152.3870 O   0  0  0  0  0  0  0  0  0  0  0  0
  160.9140  206.8070  153.7360 C   0  0  0  0  0  1  0  0  0  0  0  0
  161.7050  208.7830  152.3570 C   0  0  0  0  0  0  0  0  0  0  0  0
  161.2070  208.2250  153.5890 N   0  0  0  0  0  0  0  0  0  0  0  0
  161.0520  209.0610  154.7710 C   0  0  0  0  0  2  0  0  0  0  0  0
  161.5810  208.4120  155.8880 O   0  0  0  0  0  1  0  0  0  0  0  0
  161.7530  201.3270  149.5480 C   0  0  0  0  0  2  0  0  0  0  0  0
  161.2060  200.7490  148.3180 C   0  0  0  0  0  0  0  0  0  0  0  0
  160.7740  200.2930  147.3470 N   0  0  0  0  0  0  0  0  0  0  0  0
  1 17  1  0  0  0  0
  2 15  1  0  0  0  0
  2  9  1  0  0  0  0
  4  2  1  0  0  0  0
  5  8  1  0  0  0  0
  6 10  1  0  0  0  0
  7 18  1  0  0  0  0
  7  4  1  0  0  0  0
  8 18  2  0  0  0  0
  9  3  2  0  0  0  0
 10  7  2  0  0  0  0
 11  1  2  0  0  0  0
 12 14  1  0  0  0  0
 13  5  2  0  0  0  0
 13 10  1  0  0  0  0
 14 17  2  0  0  0  0
 15 12  1  0  0  0  0
 16 11  1  0  0  0  0
 16 12  2  0  0  0  0
 17 21  1  0  0  0  0
 18 16  1  0  0  0  0
 21 19  2  0  0  0  0
 21 22  1  0  0  0  0
 22 20  1  0  0  0  0
 22 23  1  0  0  0  0
 23 24  1  0  0  0  0
 25  9  1  0  0  0  0
 26 25  1  0  0  0  0
 27 26  3  0  0  0  0
M  END
>  <MODEL>
7

>  <REMARK>
 VINA RESULT:      -6.3      2.348      4.521
  Name = 
  4 active torsions:
  status: ('A' for Active; 'I' for Inactive)
    1  A    between atoms: C_4  and  C_23
    2  A    between atoms: C_6  and  N_21
    3  A    between atoms: C_13  and  C_23
    4  A    between atoms: C_17  and  C_26
                            x       y       z     vdW  Elec       q    Type
                         _______ _______ _______ _____ _____    ______ ____

>  <TORSDO>
F 4

$$$$
=
 OpenBabel11072413173D

 27 29  0  0  0  0  0  0  0  0999 V2000
  160.8450  205.3640  149.2960 C   0  0  0  0  0  3  0  0  0  0  0  0
  160.9660  207.8190  153.7440 N   0  0  0  0  0  0  0  0  0  0  0  0
  161.5630  206.9530  155.8340 O   0  0  0  0  0  0  0  0  0  0  0  0
  160.0810  208.7040  152.9810 C   0  0  0  0  0  2  0  0  0  0  0  0
  162.0530  210.9020  149.8910 N   0  0  0  0  0  0  0  0  0  0  0  0
  160.4160  211.6300  153.1740 C   0  0  0  0  0  1  0  0  0  0  0  0
  160.8290  209.4680  151.9220 C   0  0  0  0  0  0  0  0  0  0  0  0
  161.9560  209.5510  149.7820 C   0  0  0  0  0  3  0  0  0  0  0  0
  160.8230  207.7270  155.1710 C   0  0  0  0  0  0  0  0  0  0  0  0
  160.9510  210.8660  152.0100 C   0  0  0  0  0  0  0  0  0  0  0  0
  160.9430  206.7500  149.4330 C   0  0  0  0  0  3  0  0  0  0  0  0
  161.5430  206.4740  151.7670 C   0  0  0  0  0  0  0  0  0  0  0  0
  161.5720  211.5650  150.9750 C   0  0  0  0  0  3  0  0  0  0  0  0
  161.4430  205.0890  151.6180 C   0  0  0  0  0  3  0  0  0  0  0  0
  162.0040  207.0230  153.0840 C   0  0  0  0  0  2  0  0  0  0  0  0
  161.2850  207.3210  150.6670 C   0  0  0  0  0  0  0  0  0  0  0  0
  161.0970  204.5190  150.3850 C   0  0  0  0  0  0  0  0  0  0  0  0
  161.3520  208.7960  150.7950 C   0  0  0  0  0  0  0  0  0  0  0  0
  160.8310  202.3710  151.3270 O   0  0  0  0  0  0  0  0  0  0  0  0
  161.5630  202.9520  147.8060 C   0  0  0  0  0  1  0  0  0  0  0  0
  160.9640  203.0460  150.2690 C   0  0  0  0  0  0  0  0  0  0  0  0
  160.9710  202.3640  148.9980 N   0  0  0  0  0  0  0  0  0  0  0  0
  160.4460  201.0110  148.8820 C   0  0  0  0  0  2  0  0  0  0  0  0
  161.2070  200.2810  147.9670 O   0  0  0  0  0  1  0  0  0  0  0  0
  159.8210  208.5640  155.9010 C   0  0  0  0  0  2  0  0  0  0  0  0
  160.4770  209.7390  156.4800 C   0  0  0  0  0  0  0  0  0  0  0  0
  160.9960  210.6660  156.9370 N   0  0  0  0  0  0  0  0  0  0  0  0
  1 11  2  0  0  0  0
  1 17  1  0  0  0  0
  2  9  1  0  0  0  0
  4  2  1  0  0  0  0
  5 13  1  0  0  0  0
  7 10  1  0  0  0  0
  7  4  1  0  0  0  0
  8  5  2  0  0  0  0
  8 18  1  0  0  0  0
  9  3  2  0  0  0  0
  9 25  1  0  0  0  0
 10  6  1  0  0  0  0
 11 16  1  0  0  0  0
 12 15  1  0  0  0  0
 13 10  2  0  0  0  0
 14 12  1  0  0  0  0
 15  2  1  0  0  0  0
 16 18  1  0  0  0  0
 16 12  2  0  0  0  0
 17 14  2  0  0  0  0
 18  7  2  0  0  0  0
 20 22  1  0  0  0  0
 21 17  1  0  0  0  0
 21 19  2  0  0  0  0
 22 21  1  0  0  0  0
 23 22  1  0  0  0  0
 24 23  1  0  0  0  0
 25 26  1  0  0  0  0
 26 27  3  0  0  0  0
M  END
>  <MODEL>
8

>  <REMARK>
 VINA RESULT:      -6.2      2.906      8.072
  Name = 
  4 active torsions:
  status: ('A' for Active; 'I' for Inactive)
    1  A    between atoms: C_4  and  C_23
    2  A    between atoms: C_6  and  N_21
    3  A    between atoms: C_13  and  C_23
    4  A    between atoms: C_17  and  C_26
                            x       y       z     vdW  Elec       q    Type
                         _______ _______ _______ _____ _____    ______ ____

>  <TORSDO>
F 4

$$$$
=
 OpenBabel11072413173D

 27 29  0  0  0  0  0  0  0  0999 V2000
  160.6100  205.0750  151.4360 C   0  0  0  0  0  3  0  0  0  0  0  0
  161.5360  204.6860  146.4540 N   0  0  0  0  0  0  0  0  0  0  0  0
  162.6740  206.2110  145.0920 O   0  0  0  0  0  0  0  0  0  0  0  0
  160.4250  203.7390  146.5880 C   0  0  0  0  0  2  0  0  0  0  0  0
  161.4290  200.1520  148.6830 N   0  0  0  0  0  0  0  0  0  0  0  0
  160.5350  201.1430  145.1890 C   0  0  0  0  0  1  0  0  0  0  0  0
  160.8370  202.4870  147.3130 C   0  0  0  0  0  0  0  0  0  0  0  0
  161.4290  201.3320  149.3570 C   0  0  0  0  0  3  0  0  0  0  0  0
  161.7350  205.3790  145.2120 C   0  0  0  0  0  0  0  0  0  0  0  0
  160.8520  201.2520  146.6420 C   0  0  0  0  0  0  0  0  0  0  0  0
  160.6140  203.8740  150.7220 C   0  0  0  0  0  3  0  0  0  0  0  0
  161.7580  204.9720  148.8870 C   0  0  0  0  0  0  0  0  0  0  0  0
  161.1540  200.0910  147.3540 C   0  0  0  0  0  3  0  0  0  0  0  0
  161.7490  206.1670  149.6100 C   0  0  0  0  0  3  0  0  0  0  0  0
  162.4600  204.9400  147.5630 C   0  0  0  0  0  2  0  0  0  0  0  0
  161.1790  203.8100  149.4420 C   0  0  0  0  0  0  0  0  0  0  0  0
  161.1790  206.2330  150.8900 C   0  0  0  0  0  0  0  0  0  0  0  0
  161.1430  202.5320  148.6920 C   0  0  0  0  0  0  0  0  0  0  0  0
  160.6100  207.5620  152.7550 O   0  0  0  0  0  0  0  0  0  0  0  0
  161.9520  208.9140  149.6500 C   0  0  0  0  0  1  0  0  0  0  0  0
  161.1540  207.5250  151.6160 C   0  0  0  0  0  0  0  0  0  0  0  0
  161.7330  208.7300  151.0770 N   0  0  0  0  0  0  0  0  0  0  0  0
  162.0510  209.8530  151.9480 C   0  0  0  0  0  2  0  0  0  0  0  0
  161.1640  210.9050  151.7130 O   0  0  0  0  0  1  0  0  0  0  0  0
  160.8590  205.1110  144.0290 C   0  0  0  0  0  2  0  0  0  0  0  0
  161.4280  205.7370  142.8330 C   0  0  0  0  0  0  0  0  0  0  0  0
  161.8770  206.2310  141.8880 N   0  0  0  0  0  0  0  0  0  0  0  0
  2  4  1  0  0  0  0
  2 15  1  0  0  0  0
  3  9  2  0  0  0  0
  4  7  1  0  0  0  0
  5  8  1  0  0  0  0
  6 10  1  0  0  0  0
  7 18  1  0  0  0  0
  9  2  1  0  0  0  0
 10  7  2  0  0  0  0
 10 13  1  0  0  0  0
 11  1  2  0  0  0  0
 12 16  2  0  0  0  0
 12 14  1  0  0  0  0
 13  5  2  0  0  0  0
 14 17  2  0  0  0  0
 15 12  1  0  0  0  0
 16 11  1  0  0  0  0
 17  1  1  0  0  0  0
 17 21  1  0  0  0  0
 18  8  2  0  0  0  0
 18 16  1  0  0  0  0
 20 22  1  0  0  0  0
 21 19  2  0  0  0  0
 22 21  1  0  0  0  0
 22 23  1  0  0  0  0
 24 23  1  0  0  0  0
 25  9  1  0  0  0  0
 26 25  1  0  0  0  0
 27 26  3  0  0  0  0
M  END
>  <MODEL>
9

>  <REMARK>
 VINA RESULT:      -5.5      2.646      3.895
  Name = 
  4 active torsions:
  status: ('A' for Active; 'I' for Inactive)
    1  A    between atoms: C_4  and  C_23
    2  A    between atoms: C_6  and  N_21
    3  A    between atoms: C_13  and  C_23
    4  A    between atoms: C_17  and  C_26
                            x       y       z     vdW  Elec       q    Type
                         _______ _______ _______ _____ _____    ______ ____

>  <TORSDO>
F 4

$$$$
