=
 OpenBabel11072415293D

 59 66  0  0  1  0  0  0  0  0999 V2000
  160.8510  210.3410  154.0320 C   0  0  2  0  0  0  0  0  0  0  0  0
  159.4120  212.3350  154.6500 C   0  0  0  0  0  2  0  0  0  0  0  0
  159.3040  212.6770  153.1800 C   0  0  2  0  0  3  0  0  0  0  0  0
  160.6540  212.4380  152.4940 C   0  0  0  0  0  2  0  0  0  0  0  0
  161.3640  211.0970  152.7960 C   0  0  2  0  0  3  0  0  0  0  0  0
  160.4740  209.8750  152.6170 C   0  0  1  0  0  3  0  0  0  0  0  0
  159.5700  210.8320  154.7380 C   0  0  2  0  0  3  0  0  0  0  0  0
  161.9530  209.6350  154.8800 C   0  0  1  0  0  3  0  0  0  0  0  0
  163.3560  210.1770  154.7220 C   0  0  0  0  0  2  0  0  0  0  0  0
  161.6840  209.8440  156.3610 C   0  0  0  0  0  2  0  0  0  0  0  0
  163.7230  210.6730  156.1030 C   0  0  2  0  0  3  0  0  0  0  0  0
  162.5330  210.8540  156.8240 O   0  0  0  0  0  0  0  0  0  0  0  0
  164.5230  211.9680  156.0160 C   0  0  1  0  0  3  0  0  0  0  0  0
  165.0540  212.3040  157.2610 O   0  0  0  0  0  1  0  0  0  0  0  0
  165.6350  211.8740  154.9740 C   0  0  0  0  0  2  0  0  0  0  0  0
  166.6440  214.0200  155.2530 O   0  0  0  0  0  0  0  0  0  0  0  0
  168.0470  212.2190  155.6780 N   0  0  0  0  0  1  0  0  0  0  0  0
  166.7930  212.7720  155.2830 C   0  0  0  0  0  0  0  0  0  0  0  0
  159.3260  210.2850  156.1120 C   0  0  0  0  0  0  0  0  0  0  0  0
  158.9170  211.1130  157.1480 O   0  0  0  0  0  1  0  0  0  0  0  0
  159.4640  209.0510  156.3240 O   0  0  0  0  0  0  0  0  0  0  0  0
  161.2650  208.6780  152.1120 C   0  0  0  0  0  2  0  0  0  0  0  0
  160.7510  208.2390  150.7480 C   0  0  0  0  0  2  0  0  0  0  0  0
  162.4350  207.1760  147.9880 C   0  0  0  0  0  2  0  0  0  0  0  0
  160.7550  205.5720  152.2810 C   0  0  2  0  0  3  0  0  0  0  0  0
  161.7560  204.6850  150.1840 C   0  0  1  0  0  3  0  0  0  0  0  0
  161.4810  206.4650  148.9170 C   0  0  0  0  0  0  0  0  0  0  0  0
  160.4760  204.0770  152.1540 C   0  0  0  0  0  2  0  0  0  0  0  0
  160.9250  207.2190  147.7360 C   0  0  0  0  0  2  0  0  0  0  0  0
  161.3860  206.9550  150.3030 C   0  0  2  0  0  3  0  0  0  0  0  0
  161.5090  205.8670  151.0320 C   0  0  1  0  0  3  0  0  0  0  0  0
  160.7350  203.6880  150.6990 C   0  0  0  0  0  2  0  0  0  0  0  0
  161.5080  205.0640  148.8460 O   0  0  0  0  0  0  0  0  0  0  0  0
  162.8010  205.7750  153.5400 O   0  0  0  0  0  0  0  0  0  0  0  0
  161.5430  205.8570  153.5270 C   0  0  0  0  0  0  0  0  0  0  0  0
  160.8810  206.2860  154.6700 O   0  0  0  0  0  1  0  0  0  0  0  0
  158.9050  214.0190  153.0400 O   0  0  0  0  0  0  0  0  0  0  0  0
  157.0470  213.8040  151.3880 C   0  0  2  0  0  3  0  0  0  0  0  0
  155.3940  213.7090  149.6530 O   0  0  0  0  0  1  0  0  0  0  0  0
  158.4890  214.2610  151.7100 C   0  0  2  0  0  3  0  0  0  0  0  0
  159.5110  213.7430  150.6930 C   0  0  0  0  0  2  0  0  0  0  0  0
  159.0910  214.0980  149.2740 C   0  0  0  0  0  2  0  0  0  0  0  0
  156.6800  214.1740  149.9470 C   0  0  2  0  0  3  0  0  0  0  0  0
  157.6930  213.5540  148.9830 C   0  0  1  0  0  3  0  0  0  0  0  0
  157.3130  213.7840  147.5520 C   0  0  0  0  0  0  0  0  0  0  0  0
  156.1050  213.7860  147.1960 O   0  0  0  0  0  0  0  0  0  0  0  0
  159.2050  214.1890  145.7690 C   0  0  0  0  0  0  0  0  0  0  0  0
  158.3390  213.9920  146.5760 C   0  0  0  0  0  0  0  0  0  0  0  0
  162.4040  213.1030  144.2050 C   0  0  0  0  0  2  0  0  0  0  0  0
  160.1170  213.5750  143.6460 N   0  0  0  0  0  2  0  0  0  0  0  0
  160.2780  214.4460  144.8090 C   0  0  2  0  0  3  0  0  0  0  0  0
  161.8880  214.1340  145.6060 S   0  0  0  0  0  0  0  0  0  0  0  0
  161.4480  213.4060  143.0760 C   0  0  0  0  0  2  0  0  0  0  0  0
  156.0440  214.4440  152.3430 C   0  0  0  0  0  2  0  0  0  0  0  0
  155.6060  213.4020  153.3520 C   0  0  0  0  0  2  0  0  0  0  0  0
  155.6800  213.9480  154.7630 C   0  0  0  0  0  2  0  0  0  0  0  0
  156.5470  213.1550  155.5070 O   0  0  0  0  0  0  0  0  0  0  0  0
  156.0570  211.8570  155.3600 C   0  0  0  0  0  2  0  0  0  0  0  0
  155.4370  211.3980  156.6620 C   0  0  0  0  0  1  0  0  0  0  0  0
  1  7  1  0  0  0  0
  1  8  1  1  0  0  0
  2  7  1  0  0  0  0
  3 37  1  1  0  0  0
  3  2  1  0  0  0  0
  4  3  1  0  0  0  0
  5  4  1  1  0  0  0
  5  1  1  0  0  0  0
  6 22  1  6  0  0  0
  6  5  1  0  0  0  0
  6  1  1  0  0  0  0
  7 19  1  1  0  0  0
  8  9  1  6  0  0  0
  8 10  1  0  0  0  0
  9 11  1  0  0  0  0
 10 12  1  0  0  0  0
 11 13  1  6  0  0  0
 11 12  1  0  0  0  0
 13 14  1  1  0  0  0
 15 18  1  0  0  0  0
 15 13  1  0  0  0  0
 16 18  2  0  0  0  0
 18 17  1  0  0  0  0
 19 21  2  0  0  0  0
 19 20  1  0  0  0  0
 23 22  1  0  0  0  0
 24 27  1  0  0  0  0
 25 35  1  1  0  0  0
 26 32  1  1  0  0  0
 26 31  1  0  0  0  0
 27 30  1  0  0  0  0
 28 25  1  0  0  0  0
 29 24  1  0  0  0  0
 29 27  1  0  0  0  0
 30 23  1  6  0  0  0
 30 31  1  0  0  0  0
 31 25  1  0  0  0  0
 32 28  1  0  0  0  0
 33 27  1  0  0  0  0
 33 26  1  0  0  0  0
 35 34  2  0  0  0  0
 35 36  1  0  0  0  0
 38 40  1  0  0  0  0
 38 54  1  0  0  0  0
 39 43  1  0  0  0  0
 40 37  1  0  0  0  0
 41 40  1  0  0  0  0
 42 41  1  0  0  0  0
 43 38  1  0  0  0  0
 44 42  1  0  0  0  0
 44 43  1  0  0  0  0
 45 44  1  0  0  0  0
 46 45  2  0  0  0  0
 47 48  3  0  0  0  0
 48 45  1  0  0  0  0
 49 52  1  0  0  0  0
 50 51  1  0  0  0  0
 51 52  1  0  0  0  0
 51 47  1  0  0  0  0
 53 50  1  0  0  0  0
 53 49  1  0  0  0  0
 54 55  1  0  0  0  0
 55 56  1  0  0  0  0
 56 57  1  0  0  0  0
 58 57  1  0  0  0  0
 58 59  1  0  0  0  0
M  END
>  <MODEL>
1

>  <REMARK>
 VINA RESULT:      -3.6      0.000      0.000
  Name = 
  19 active torsions:
  status: ('A' for Active; 'I' for Inactive)
    1  A    between atoms: C_1  and  C_38
    2  A    between atoms: C_1  and  C_59
    3  A    between atoms: C_2  and  C_53
    4  A    between atoms: C_3  and  C_9
    5  A    between atoms: C_4  and  C_26
    6  A    between atoms: C_6  and  O_20
    7  A    between atoms: O_7  and  C_12
    8  A    between atoms: O_7  and  C_32
    9  A    between atoms: C_10  and  C_48
   10  A    between atoms: C_10  and  C_55
   11  A    between atoms: C_12  and  C_16
   12  A    between atoms: C_14  and  C_27
   13  A    between atoms: C_16  and  C_26
   14  A    between atoms: O_20  and  C_36
   15  A    between atoms: C_28  and  C_39
   16  A    between atoms: C_28  and  C_49
   17  A    between atoms: C_33  and  C_34
   18  A    between atoms: C_35  and  C_39
   19  A    between atoms: C_48  and  C_57
                            x       y       z     vdW  Elec       q    Type
                         _______ _______ _______ _____ _____    ______ ____

>  <TORSDO>
F 19

$$$$
=
 OpenBabel11072415293D

 59 66  0  0  1  0  0  0  0  0999 V2000
  160.5750  211.4840  151.6520 C   0  0  2  0  0  0  0  0  0  0  0  0
  162.3600  210.1000  150.5000 C   0  0  0  0  0  2  0  0  0  0  0  0
  162.0530  208.9650  151.4520 C   0  0  2  0  0  3  0  0  0  0  0  0
  161.8000  209.5230  152.8570 C   0  0  0  0  0  2  0  0  0  0  0  0
  160.8440  210.7350  152.9650 C   0  0  2  0  0  3  0  0  0  0  0  0
  159.5170  210.5390  152.2440 C   0  0  1  0  0  3  0  0  0  0  0  0
  161.0750  210.8800  150.3220 C   0  0  2  0  0  3  0  0  0  0  0  0
  160.4790  213.0360  151.7830 C   0  0  1  0  0  3  0  0  0  0  0  0
  160.0450  213.7770  150.5390 C   0  0  0  0  0  2  0  0  0  0  0  0
  159.3970  213.4080  152.7820 C   0  0  0  0  0  2  0  0  0  0  0  0
  158.7520  214.4530  150.9390 C   0  0  2  0  0  3  0  0  0  0  0  0
  158.2560  213.7930  152.0720 O   0  0  0  0  0  0  0  0  0  0  0  0
  157.7470  214.4190  149.7920 C   0  0  1  0  0  3  0  0  0  0  0  0
  158.3900  214.1630  148.5810 O   0  0  0  0  0  1  0  0  0  0  0  0
  156.6500  213.3850  150.0370 C   0  0  0  0  0  2  0  0  0  0  0  0
  155.0460  214.2060  151.6040 O   0  0  0  0  0  0  0  0  0  0  0  0
  154.4460  214.4500  149.3740 N   0  0  0  0  0  1  0  0  0  0  0  0
  155.3380  214.0120  150.3970 C   0  0  0  0  0  0  0  0  0  0  0  0
  161.0960  211.8080  149.1460 C   0  0  0  0  0  0  0  0  0  0  0  0
  162.1980  212.6140  148.8930 O   0  0  0  0  0  1  0  0  0  0  0  0
  160.1150  211.8370  148.3570 O   0  0  0  0  0  0  0  0  0  0  0  0
  158.3790  211.2370  152.9700 C   0  0  0  0  0  2  0  0  0  0  0  0
  157.8110  210.3360  154.0580 C   0  0  0  0  0  2  0  0  0  0  0  0
  155.3880  211.8400  155.9140 C   0  0  0  0  0  2  0  0  0  0  0  0
  160.1790  210.9090  155.9380 C   0  0  2  0  0  3  0  0  0  0  0  0
  158.4990  212.2400  157.1980 C   0  0  1  0  0  3  0  0  0  0  0  0
  156.8530  212.1510  155.7370 C   0  0  0  0  0  0  0  0  0  0  0  0
  160.8720  211.9990  156.7500 C   0  0  0  0  0  2  0  0  0  0  0  0
  155.8580  212.7480  154.7750 C   0  0  0  0  0  2  0  0  0  0  0  0
  157.7500  211.0370  155.3830 C   0  0  2  0  0  3  0  0  0  0  0  0
  158.7410  211.1440  156.2420 C   0  0  1  0  0  3  0  0  0  0  0  0
  159.8020  213.0150  157.1530 C   0  0  0  0  0  2  0  0  0  0  0  0
  157.4090  212.9960  156.7110 O   0  0  0  0  0  0  0  0  0  0  0  0
  161.7840  209.3930  156.9050 O   0  0  0  0  0  1  0  0  0  0  0  0
  160.6570  209.5500  156.3620 C   0  0  0  0  0  0  0  0  0  0  0  0
  159.8160  208.4550  156.2170 O   0  0  0  0  0  0  0  0  0  0  0  0
  163.1310  208.0600  151.4630 O   0  0  0  0  0  0  0  0  0  0  0  0
  161.5320  206.7810  150.0350 C   0  0  2  0  0  3  0  0  0  0  0  0
  160.0990  205.3640  148.7360 O   0  0  0  0  0  1  0  0  0  0  0  0
  162.6850  206.7770  151.0650 C   0  0  2  0  0  3  0  0  0  0  0  0
  162.3950  205.8790  152.2710 C   0  0  0  0  0  2  0  0  0  0  0  0
  162.0100  204.4760  151.8220 C   0  0  0  0  0  2  0  0  0  0  0  0
  161.1770  205.3480  149.6270 C   0  0  2  0  0  3  0  0  0  0  0  0
  160.8150  204.5330  150.8710 C   0  0  1  0  0  3  0  0  0  0  0  0
  160.3440  203.1560  150.5170 C   0  0  0  0  0  0  0  0  0  0  0  0
  159.6750  202.4710  151.3360 O   0  0  0  0  0  0  0  0  0  0  0  0
  160.9290  202.1710  148.1480 C   0  0  0  0  0  0  0  0  0  0  0  0
  160.6670  202.6090  149.2350 C   0  0  0  0  0  0  0  0  0  0  0  0
  160.5190  199.5290  145.5570 C   0  0  0  0  0  2  0  0  0  0  0  0
  160.1090  201.8670  145.9230 N   0  0  0  0  0  2  0  0  0  0  0  0
  161.2520  201.6680  146.8130 C   0  0  2  0  0  3  0  0  0  0  0  0
  161.6610  199.8940  146.9190 S   0  0  0  0  0  0  0  0  0  0  0  0
  160.2190  200.8490  144.8860 C   0  0  0  0  0  2  0  0  0  0  0  0
  161.9110  207.5790  148.7920 C   0  0  0  0  0  2  0  0  0  0  0  0
  162.5340  206.6340  147.7840 C   0  0  0  0  0  2  0  0  0  0  0  0
  161.5870  206.3700  146.6310 C   0  0  0  0  0  2  0  0  0  0  0  0
  161.9450  205.1720  146.0210 O   0  0  0  0  0  0  0  0  0  0  0  0
  161.6730  205.3660  144.6670 C   0  0  0  0  0  2  0  0  0  0  0  0
  160.3010  204.8170  144.3420 C   0  0  0  0  0  1  0  0  0  0  0  0
  1  8  1  1  0  0  0
  1  6  1  0  0  0  0
  1  5  1  0  0  0  0
  2  3  1  0  0  0  0
  3 37  1  1  0  0  0
  3  4  1  0  0  0  0
  5  4  1  6  0  0  0
  6  5  1  0  0  0  0
  6 22  1  1  0  0  0
  7 19  1  6  0  0  0
  7  2  1  0  0  0  0
  7  1  1  0  0  0  0
  8  9  1  6  0  0  0
  8 10  1  0  0  0  0
  9 11  1  0  0  0  0
 11 13  1  6  0  0  0
 11 12  1  0  0  0  0
 12 10  1  0  0  0  0
 13 14  1  6  0  0  0
 13 15  1  0  0  0  0
 15 18  1  0  0  0  0
 17 18  1  0  0  0  0
 18 16  2  0  0  0  0
 20 19  1  0  0  0  0
 21 19  2  0  0  0  0
 22 23  1  0  0  0  0
 25 31  1  0  0  0  0
 25 35  1  1  0  0  0
 25 28  1  0  0  0  0
 26 32  1  6  0  0  0
 27 24  1  0  0  0  0
 27 33  1  0  0  0  0
 28 32  1  0  0  0  0
 29 27  1  0  0  0  0
 29 24  1  0  0  0  0
 30 23  1  6  0  0  0
 30 27  1  0  0  0  0
 30 31  1  0  0  0  0
 31 26  1  0  0  0  0
 33 26  1  0  0  0  0
 35 34  1  0  0  0  0
 36 35  2  0  0  0  0
 38 40  1  0  0  0  0
 39 43  1  0  0  0  0
 40 37  1  0  0  0  0
 40 41  1  0  0  0  0
 42 41  1  0  0  0  0
 43 38  1  0  0  0  0
 43 44  1  0  0  0  0
 44 42  1  0  0  0  0
 45 44  1  0  0  0  0
 45 46  2  0  0  0  0
 47 48  3  0  0  0  0
 48 45  1  0  0  0  0
 49 52  1  0  0  0  0
 50 51  1  0  0  0  0
 51 52  1  0  0  0  0
 51 47  1  0  0  0  0
 53 49  1  0  0  0  0
 53 50  1  0  0  0  0
 54 38  1  0  0  0  0
 55 54  1  0  0  0  0
 56 55  1  0  0  0  0
 57 56  1  0  0  0  0
 58 57  1  0  0  0  0
 59 58  1  0  0  0  0
M  END
>  <MODEL>
2

>  <REMARK>
 VINA RESULT:      -3.0      3.873      9.675
  Name = 
  19 active torsions:
  status: ('A' for Active; 'I' for Inactive)
    1  A    between atoms: C_1  and  C_38
    2  A    between atoms: C_1  and  C_59
    3  A    between atoms: C_2  and  C_53
    4  A    between atoms: C_3  and  C_9
    5  A    between atoms: C_4  and  C_26
    6  A    between atoms: C_6  and  O_20
    7  A    between atoms: O_7  and  C_12
    8  A    between atoms: O_7  and  C_32
    9  A    between atoms: C_10  and  C_48
   10  A    between atoms: C_10  and  C_55
   11  A    between atoms: C_12  and  C_16
   12  A    between atoms: C_14  and  C_27
   13  A    between atoms: C_16  and  C_26
   14  A    between atoms: O_20  and  C_36
   15  A    between atoms: C_28  and  C_39
   16  A    between atoms: C_28  and  C_49
   17  A    between atoms: C_33  and  C_34
   18  A    between atoms: C_35  and  C_39
   19  A    between atoms: C_48  and  C_57
                            x       y       z     vdW  Elec       q    Type
                         _______ _______ _______ _____ _____    ______ ____

>  <TORSDO>
F 19

$$$$
=
 OpenBabel11072415293D

 59 66  0  0  1  0  0  0  0  0999 V2000
  161.2420  208.3050  151.8670 C   0  0  2  0  0  0  0  0  0  0  0  0
  161.1850  210.8400  151.8160 C   0  0  0  0  0  2  0  0  0  0  0  0
  161.5180  210.7890  150.3420 C   0  0  2  0  0  3  0  0  0  0  0  0
  162.5510  209.6850  150.0830 C   0  0  0  0  0  2  0  0  0  0  0  0
  162.2780  208.3080  150.7330 C   0  0  2  0  0  3  0  0  0  0  0  0
  160.8770  207.7710  150.4730 C   0  0  1  0  0  3  0  0  0  0  0  0
  160.4100  209.5780  152.1320 C   0  0  2  0  0  3  0  0  0  0  0  0
  161.5740  207.3630  153.0650 C   0  0  1  0  0  3  0  0  0  0  0  0
  160.6190  206.2120  153.2830 C   0  0  0  0  0  2  0  0  0  0  0  0
  162.8940  206.6520  152.8180 C   0  0  0  0  0  2  0  0  0  0  0  0
  161.4720  204.9770  153.0980 C   0  0  2  0  0  3  0  0  0  0  0  0
  162.6190  205.3520  152.3840 O   0  0  0  0  0  0  0  0  0  0  0  0
  160.6940  203.8880  152.3670 C   0  0  1  0  0  3  0  0  0  0  0  0
  159.4930  204.3900  151.8670 O   0  0  0  0  0  1  0  0  0  0  0  0
  161.5180  203.2680  151.2400 C   0  0  0  0  0  2  0  0  0  0  0  0
  162.9280  201.6250  152.2470 O   0  0  0  0  0  0  0  0  0  0  0  0
  161.1290  200.7690  151.0530 N   0  0  0  0  0  1  0  0  0  0  0  0
  161.9210  201.8550  151.5300 C   0  0  0  0  0  0  0  0  0  0  0  0
  159.6900  209.6310  153.4450 C   0  0  0  0  0  0  0  0  0  0  0  0
  160.3170  209.2340  154.6180 O   0  0  0  0  0  1  0  0  0  0  0  0
  158.5110  210.0700  153.4920 O   0  0  0  0  0  0  0  0  0  0  0  0
  160.8730  206.2550  150.3560 C   0  0  0  0  0  2  0  0  0  0  0  0
  160.3200  205.8280  149.0030 C   0  0  0  0  0  2  0  0  0  0  0  0
  163.1830  207.3580  147.9820 C   0  0  0  0  0  2  0  0  0  0  0  0
  160.4810  203.3800  147.1470 C   0  0  2  0  0  3  0  0  0  0  0  0
  162.4350  204.5810  146.1870 C   0  0  1  0  0  3  0  0  0  0  0  0
  162.1870  206.4980  147.2440 C   0  0  0  0  0  0  0  0  0  0  0  0
  160.7140  202.9400  145.7040 C   0  0  0  0  0  2  0  0  0  0  0  0
  161.9520  207.9850  147.3220 C   0  0  0  0  0  2  0  0  0  0  0  0
  161.4170  205.5180  148.0290 C   0  0  2  0  0  3  0  0  0  0  0  0
  161.5480  204.3980  147.3510 C   0  0  1  0  0  3  0  0  0  0  0  0
  161.6270  203.9810  145.0540 C   0  0  0  0  0  2  0  0  0  0  0  0
  162.6390  205.9700  146.0240 O   0  0  0  0  0  0  0  0  0  0  0  0
  161.6580  201.5340  148.1560 O   0  0  0  0  0  0  0  0  0  0  0  0
  160.5960  202.2090  148.0800 C   0  0  0  0  0  0  0  0  0  0  0  0
  159.5380  201.9040  148.9250 O   0  0  0  0  0  1  0  0  0  0  0  0
  162.0150  212.0410  149.9310 O   0  0  0  0  0  0  0  0  0  0  0  0
  159.9900  213.2710  149.1460 C   0  0  2  0  0  3  0  0  0  0  0  0
  158.1250  214.4280  148.1800 O   0  0  0  0  0  1  0  0  0  0  0  0
  161.2880  212.5010  148.8080 C   0  0  2  0  0  3  0  0  0  0  0  0
  161.0610  211.3860  147.7830 C   0  0  0  0  0  2  0  0  0  0  0  0
  160.3630  211.9240  146.5420 C   0  0  0  0  0  2  0  0  0  0  0  0
  159.3230  213.7790  147.8640 C   0  0  2  0  0  3  0  0  0  0  0  0
  159.0490  212.6020  146.9250 C   0  0  1  0  0  3  0  0  0  0  0  0
  158.2880  213.0280  145.7070 C   0  0  0  0  0  0  0  0  0  0  0  0
  157.0860  213.3950  145.7900 O   0  0  0  0  0  0  0  0  0  0  0  0
  159.4790  213.0110  143.3610 C   0  0  0  0  0  0  0  0  0  0  0  0
  158.9330  213.0040  144.4300 C   0  0  0  0  0  0  0  0  0  0  0  0
  161.5220  211.2480  140.7950 C   0  0  0  0  0  2  0  0  0  0  0  0
  159.3830  212.3020  141.0790 N   0  0  0  0  0  2  0  0  0  0  0  0
  160.1630  213.0430  142.0690 C   0  0  2  0  0  3  0  0  0  0  0  0
  161.8190  212.2990  142.2440 S   0  0  0  0  0  0  0  0  0  0  0  0
  160.3330  211.8390  140.0760 C   0  0  0  0  0  2  0  0  0  0  0  0
  160.2790  214.4530  150.0650 C   0  0  0  0  0  2  0  0  0  0  0  0
  159.6820  214.1610  151.4270 C   0  0  0  0  0  2  0  0  0  0  0  0
  158.5190  213.1960  151.3140 C   0  0  0  0  0  2  0  0  0  0  0  0
  157.8070  213.2090  152.5090 O   0  0  0  0  0  0  0  0  0  0  0  0
  158.7490  213.5430  153.4820 C   0  0  0  0  0  2  0  0  0  0  0  0
  158.1710  213.2900  154.8570 C   0  0  0  0  0  1  0  0  0  0  0  0
  1  7  1  0  0  0  0
  1  8  1  1  0  0  0
  2  7  1  0  0  0  0
  3 37  1  1  0  0  0
  3  2  1  0  0  0  0
  4  3  1  0  0  0  0
  5  4  1  6  0  0  0
  5  1  1  0  0  0  0
  6 22  1  1  0  0  0
  6  5  1  0  0  0  0
  6  1  1  0  0  0  0
  7 19  1  1  0  0  0
  8 10  1  6  0  0  0
  8  9  1  0  0  0  0
 11 13  1  6  0  0  0
 11  9  1  0  0  0  0
 12 10  1  0  0  0  0
 12 11  1  0  0  0  0
 13 14  1  6  0  0  0
 15 18  1  0  0  0  0
 15 13  1  0  0  0  0
 17 18  1  0  0  0  0
 18 16  2  0  0  0  0
 19 21  2  0  0  0  0
 19 20  1  0  0  0  0
 23 22  1  0  0  0  0
 25 31  1  0  0  0  0
 25 35  1  1  0  0  0
 26 32  1  6  0  0  0
 26 31  1  0  0  0  0
 27 29  1  0  0  0  0
 27 24  1  0  0  0  0
 27 30  1  0  0  0  0
 28 25  1  0  0  0  0
 29 24  1  0  0  0  0
 30 23  1  6  0  0  0
 31 30  1  0  0  0  0
 32 28  1  0  0  0  0
 33 26  1  0  0  0  0
 33 27  1  0  0  0  0
 35 34  2  0  0  0  0
 35 36  1  0  0  0  0
 38 54  1  0  0  0  0
 40 38  1  0  0  0  0
 40 37  1  0  0  0  0
 41 40  1  0  0  0  0
 42 44  1  0  0  0  0
 42 41  1  0  0  0  0
 43 39  1  0  0  0  0
 43 38  1  0  0  0  0
 44 43  1  0  0  0  0
 45 46  2  0  0  0  0
 45 44  1  0  0  0  0
 47 48  3  0  0  0  0
 48 45  1  0  0  0  0
 49 52  1  0  0  0  0
 50 51  1  0  0  0  0
 51 52  1  0  0  0  0
 51 47  1  0  0  0  0
 53 49  1  0  0  0  0
 53 50  1  0  0  0  0
 54 55  1  0  0  0  0
 56 55  1  0  0  0  0
 56 57  1  0  0  0  0
 57 58  1  0  0  0  0
 58 59  1  0  0  0  0
M  END
>  <MODEL>
3

>  <REMARK>
 VINA RESULT:      -3.0      3.387      5.452
  Name = 
  19 active torsions:
  status: ('A' for Active; 'I' for Inactive)
    1  A    between atoms: C_1  and  C_38
    2  A    between atoms: C_1  and  C_59
    3  A    between atoms: C_2  and  C_53
    4  A    between atoms: C_3  and  C_9
    5  A    between atoms: C_4  and  C_26
    6  A    between atoms: C_6  and  O_20
    7  A    between atoms: O_7  and  C_12
    8  A    between atoms: O_7  and  C_32
    9  A    between atoms: C_10  and  C_48
   10  A    between atoms: C_10  and  C_55
   11  A    between atoms: C_12  and  C_16
   12  A    between atoms: C_14  and  C_27
   13  A    between atoms: C_16  and  C_26
   14  A    between atoms: O_20  and  C_36
   15  A    between atoms: C_28  and  C_39
   16  A    between atoms: C_28  and  C_49
   17  A    between atoms: C_33  and  C_34
   18  A    between atoms: C_35  and  C_39
   19  A    between atoms: C_48  and  C_57
                            x       y       z     vdW  Elec       q    Type
                         _______ _______ _______ _____ _____    ______ ____

>  <TORSDO>
F 19

$$$$
=
 OpenBabel11072415293D

 59 66  0  0  1  0  0  0  0  0999 V2000
  161.2460  207.4230  152.8410 C   0  0  2  0  0  0  0  0  0  0  0  0
  160.9480  209.6420  154.0310 C   0  0  0  0  0  2  0  0  0  0  0  0
  160.8530  210.3200  152.6830 C   0  0  2  0  0  3  0  0  0  0  0  0
  161.8660  209.6930  151.7170 C   0  0  0  0  0  2  0  0  0  0  0  0
  161.9130  208.1480  151.6620 C   0  0  2  0  0  3  0  0  0  0  0  0
  160.5510  207.4950  151.4720 C   0  0  1  0  0  3  0  0  0  0  0  0
  160.4120  208.2380  153.8520 C   0  0  2  0  0  3  0  0  0  0  0  0
  161.9880  206.1440  153.3370 C   0  0  1  0  0  3  0  0  0  0  0  0
  161.1350  204.9060  153.4950 C   0  0  0  0  0  2  0  0  0  0  0  0
  163.0160  205.7050  152.3070 C   0  0  0  0  0  2  0  0  0  0  0  0
  161.7300  203.9150  152.5200 C   0  0  2  0  0  3  0  0  0  0  0  0
  162.4840  204.6360  151.5830 O   0  0  0  0  0  0  0  0  0  0  0  0
  160.6330  203.1000  151.8430 C   0  0  1  0  0  3  0  0  0  0  0  0
  160.1890  203.7370  150.6850 O   0  0  0  0  0  1  0  0  0  0  0  0
  161.1030  201.6820  151.5200 C   0  0  0  0  0  2  0  0  0  0  0  0
  159.2780  201.4170  150.0030 O   0  0  0  0  0  0  0  0  0  0  0  0
  161.2410  200.3510  149.3670 N   0  0  0  0  0  1  0  0  0  0  0  0
  160.4730  201.1350  150.2770 C   0  0  0  0  0  0  0  0  0  0  0  0
  160.0930  207.5500  155.1450 C   0  0  0  0  0  0  0  0  0  0  0  0
  160.9930  207.5630  156.2010 O   0  0  0  0  0  1  0  0  0  0  0  0
  158.9800  206.9770  155.2880 O   0  0  0  0  0  0  0  0  0  0  0  0
  160.6510  206.2250  150.6430 C   0  0  0  0  0  2  0  0  0  0  0  0
  160.2020  206.4890  149.2120 C   0  0  0  0  0  2  0  0  0  0  0  0
  162.8810  208.5430  148.7830 C   0  0  0  0  0  2  0  0  0  0  0  0
  160.7510  204.6030  146.8430 C   0  0  2  0  0  3  0  0  0  0  0  0
  162.5690  206.2210  146.3330 C   0  0  1  0  0  3  0  0  0  0  0  0
  162.0340  207.7800  147.7940 C   0  0  0  0  0  0  0  0  0  0  0  0
  161.0940  204.5600  145.3560 C   0  0  0  0  0  2  0  0  0  0  0  0
  161.6060  209.1650  148.2070 C   0  0  0  0  0  2  0  0  0  0  0  0
  161.3680  206.5550  148.2690 C   0  0  2  0  0  3  0  0  0  0  0  0
  161.6680  205.6570  147.3550 C   0  0  1  0  0  3  0  0  0  0  0  0
  161.8890  205.8260  145.0360 C   0  0  0  0  0  2  0  0  0  0  0  0
  162.5970  207.6210  146.5180 O   0  0  0  0  0  0  0  0  0  0  0  0
  160.3730  202.2340  147.0720 O   0  0  0  0  0  0  0  0  0  0  0  0
  160.9800  203.2620  147.4770 C   0  0  0  0  0  0  0  0  0  0  0  0
  161.9280  203.1360  148.4830 O   0  0  0  0  0  1  0  0  0  0  0  0
  161.0970  211.6980  152.8340 O   0  0  0  0  0  0  0  0  0  0  0  0
  158.8600  212.4180  151.9940 C   0  0  2  0  0  3  0  0  0  0  0  0
  156.8210  213.2290  151.0270 O   0  0  0  0  0  1  0  0  0  0  0  0
  160.3990  212.4220  151.8390 C   0  0  2  0  0  3  0  0  0  0  0  0
  160.8500  212.0290  150.4290 C   0  0  0  0  0  2  0  0  0  0  0  0
  160.1570  212.8860  149.3800 C   0  0  0  0  0  2  0  0  0  0  0  0
  158.2130  213.2830  150.9080 C   0  0  2  0  0  3  0  0  0  0  0  0
  158.6400  212.7810  149.5270 C   0  0  1  0  0  3  0  0  0  0  0  0
  157.9400  213.5170  148.4260 C   0  0  0  0  0  0  0  0  0  0  0  0
  156.8610  214.1310  148.6420 O   0  0  0  0  0  0  0  0  0  0  0  0
  158.9570  213.5310  145.9990 C   0  0  0  0  0  0  0  0  0  0  0  0
  158.5000  213.5130  147.1090 C   0  0  0  0  0  0  0  0  0  0  0  0
  161.7030  212.6440  143.6470 C   0  0  0  0  0  2  0  0  0  0  0  0
  159.3540  212.2880  143.9960 N   0  0  0  0  0  2  0  0  0  0  0  0
  159.5120  213.5870  144.6470 C   0  0  2  0  0  3  0  0  0  0  0  0
  161.2790  214.0300  144.7380 S   0  0  0  0  0  0  0  0  0  0  0  0
  160.4130  212.2010  142.9990 C   0  0  0  0  0  2  0  0  0  0  0  0
  158.4470  212.9400  153.3660 C   0  0  0  0  0  2  0  0  0  0  0  0
  157.6640  211.8550  154.0780 C   0  0  0  0  0  2  0  0  0  0  0  0
  156.9020  212.4220  155.2590 C   0  0  0  0  0  2  0  0  0  0  0  0
  157.0020  211.5350  156.3260 O   0  0  0  0  0  0  0  0  0  0  0  0
  158.1640  210.8060  156.0750 C   0  0  0  0  0  2  0  0  0  0  0  0
  159.2040  211.1300  157.1250 C   0  0  0  0  0  1  0  0  0  0  0  0
  1  8  1  1  0  0  0
  1  7  1  0  0  0  0
  3 37  1  1  0  0  0
  3  2  1  0  0  0  0
  4  3  1  0  0  0  0
  5  4  1  1  0  0  0
  5  1  1  0  0  0  0
  6 22  1  6  0  0  0
  6  5  1  0  0  0  0
  6  1  1  0  0  0  0
  7  2  1  0  0  0  0
  7 19  1  1  0  0  0
  8 10  1  6  0  0  0
  8  9  1  0  0  0  0
 11 13  1  6  0  0  0
 11  9  1  0  0  0  0
 12 10  1  0  0  0  0
 12 11  1  0  0  0  0
 13 14  1  6  0  0  0
 15 13  1  0  0  0  0
 16 18  2  0  0  0  0
 17 18  1  0  0  0  0
 18 15  1  0  0  0  0
 19 21  2  0  0  0  0
 19 20  1  0  0  0  0
 23 22  1  0  0  0  0
 25 31  1  0  0  0  0
 25 35  1  1  0  0  0
 26 32  1  6  0  0  0
 26 33  1  0  0  0  0
 26 31  1  0  0  0  0
 27 29  1  0  0  0  0
 27 30  1  0  0  0  0
 27 24  1  0  0  0  0
 28 25  1  0  0  0  0
 29 24  1  0  0  0  0
 30 23  1  6  0  0  0
 31 30  1  0  0  0  0
 32 28  1  0  0  0  0
 33 27  1  0  0  0  0
 34 35  2  0  0  0  0
 35 36  1  0  0  0  0
 38 54  1  0  0  0  0
 40 38  1  0  0  0  0
 40 37  1  0  0  0  0
 41 40  1  0  0  0  0
 42 44  1  0  0  0  0
 42 41  1  0  0  0  0
 43 39  1  0  0  0  0
 43 38  1  0  0  0  0
 44 43  1  0  0  0  0
 45 46  2  0  0  0  0
 45 44  1  0  0  0  0
 47 48  3  0  0  0  0
 48 45  1  0  0  0  0
 49 52  1  0  0  0  0
 50 51  1  0  0  0  0
 51 52  1  0  0  0  0
 51 47  1  0  0  0  0
 53 49  1  0  0  0  0
 53 50  1  0  0  0  0
 54 55  1  0  0  0  0
 55 56  1  0  0  0  0
 56 57  1  0  0  0  0
 58 57  1  0  0  0  0
 58 59  1  0  0  0  0
M  END
>  <MODEL>
4

>  <REMARK>
 VINA RESULT:      -2.5      3.023      5.531
  Name = 
  19 active torsions:
  status: ('A' for Active; 'I' for Inactive)
    1  A    between atoms: C_1  and  C_38
    2  A    between atoms: C_1  and  C_59
    3  A    between atoms: C_2  and  C_53
    4  A    between atoms: C_3  and  C_9
    5  A    between atoms: C_4  and  C_26
    6  A    between atoms: C_6  and  O_20
    7  A    between atoms: O_7  and  C_12
    8  A    between atoms: O_7  and  C_32
    9  A    between atoms: C_10  and  C_48
   10  A    between atoms: C_10  and  C_55
   11  A    between atoms: C_12  and  C_16
   12  A    between atoms: C_14  and  C_27
   13  A    between atoms: C_16  and  C_26
   14  A    between atoms: O_20  and  C_36
   15  A    between atoms: C_28  and  C_39
   16  A    between atoms: C_28  and  C_49
   17  A    between atoms: C_33  and  C_34
   18  A    between atoms: C_35  and  C_39
   19  A    between atoms: C_48  and  C_57
                            x       y       z     vdW  Elec       q    Type
                         _______ _______ _______ _____ _____    ______ ____

>  <TORSDO>
F 19

$$$$
=
 OpenBabel11072415293D

 59 66  0  0  1  0  0  0  0  0999 V2000
  161.3050  207.3540  152.4850 C   0  0  2  0  0  0  0  0  0  0  0  0
  160.7370  209.6470  153.4060 C   0  0  0  0  0  2  0  0  0  0  0  0
  160.8050  210.1970  151.9990 C   0  0  2  0  0  3  0  0  0  0  0  0
  161.9730  209.5490  151.2470 C   0  0  0  0  0  2  0  0  0  0  0  0
  162.1000  208.0100  151.3460 C   0  0  2  0  0  3  0  0  0  0  0  0
  160.8100  207.2640  151.0330 C   0  0  1  0  0  3  0  0  0  0  0  0
  160.2970  208.2030  153.2890 C   0  0  2  0  0  3  0  0  0  0  0  0
  162.0260  206.1690  153.1990 C   0  0  1  0  0  3  0  0  0  0  0  0
  161.1940  204.9250  153.4160 C   0  0  0  0  0  2  0  0  0  0  0  0
  163.1650  205.6560  152.3340 C   0  0  0  0  0  2  0  0  0  0  0  0
  161.9120  203.8530  152.6280 C   0  0  2  0  0  3  0  0  0  0  0  0
  162.7390  204.4900  151.6910 O   0  0  0  0  0  0  0  0  0  0  0  0
  160.9130  202.9240  151.9460 C   0  0  1  0  0  3  0  0  0  0  0  0
  159.7290  203.6010  151.6560 O   0  0  0  0  0  1  0  0  0  0  0  0
  161.4950  202.3080  150.6750 C   0  0  0  0  0  2  0  0  0  0  0  0
  161.2210  200.0640  149.9050 O   0  0  0  0  0  0  0  0  0  0  0  0
  159.2610  201.3030  150.0190 N   0  0  0  0  0  1  0  0  0  0  0  0
  160.6730  201.1660  150.1600 C   0  0  0  0  0  0  0  0  0  0  0  0
  159.8280  207.6130  154.5850 C   0  0  0  0  0  0  0  0  0  0  0  0
  159.2190  208.4050  155.5490 O   0  0  0  0  0  1  0  0  0  0  0  0
  159.9580  206.3780  154.7910 O   0  0  0  0  0  0  0  0  0  0  0  0
  161.0870  205.9340  150.3500 C   0  0  0  0  0  2  0  0  0  0  0  0
  160.4290  205.8950  148.9770 C   0  0  0  0  0  2  0  0  0  0  0  0
  163.0150  207.9760  148.2290 C   0  0  0  0  0  2  0  0  0  0  0  0
  160.6160  204.0990  146.4860 C   0  0  2  0  0  3  0  0  0  0  0  0
  162.3390  205.7430  145.7700 C   0  0  1  0  0  3  0  0  0  0  0  0
  162.0290  207.2450  147.3510 C   0  0  0  0  0  0  0  0  0  0  0  0
  160.7340  204.1100  144.9640 C   0  0  0  0  0  2  0  0  0  0  0  0
  161.6690  208.6120  147.8730 C   0  0  0  0  0  2  0  0  0  0  0  0
  161.4400  206.0000  147.8750 C   0  0  2  0  0  3  0  0  0  0  0  0
  161.6010  205.1380  146.8950 C   0  0  1  0  0  3  0  0  0  0  0  0
  161.4730  205.3910  144.5760 C   0  0  0  0  0  2  0  0  0  0  0  0
  162.3960  207.1350  146.0000 O   0  0  0  0  0  0  0  0  0  0  0  0
  161.8470  202.5700  147.8850 O   0  0  0  0  0  1  0  0  0  0  0  0
  160.9370  202.7360  147.0300 C   0  0  0  0  0  0  0  0  0  0  0  0
  160.1700  201.6470  146.6350 O   0  0  0  0  0  0  0  0  0  0  0  0
  160.9610  211.5950  152.0510 O   0  0  0  0  0  0  0  0  0  0  0  0
  160.4130  213.0790  150.1200 C   0  0  2  0  0  3  0  0  0  0  0  0
  160.0890  214.4500  148.1790 O   0  0  0  0  0  1  0  0  0  0  0  0
  161.3830  212.0780  150.7890 C   0  0  2  0  0  3  0  0  0  0  0  0
  161.7920  210.9380  149.8530 C   0  0  0  0  0  2  0  0  0  0  0  0
  162.3330  211.4840  148.5390 C   0  0  0  0  0  2  0  0  0  0  0  0
  160.9980  213.5870  148.7990 C   0  0  2  0  0  3  0  0  0  0  0  0
  161.3020  212.4010  147.8810 C   0  0  1  0  0  3  0  0  0  0  0  0
  161.7660  212.8470  146.5280 C   0  0  0  0  0  0  0  0  0  0  0  0
  162.9510  213.2350  146.3460 O   0  0  0  0  0  0  0  0  0  0  0  0
  160.0870  212.8220  144.5020 C   0  0  0  0  0  0  0  0  0  0  0  0
  160.8460  212.8440  145.4330 C   0  0  0  0  0  0  0  0  0  0  0  0
  159.0130  214.1730  141.2040 C   0  0  0  0  0  2  0  0  0  0  0  0
  159.8460  212.1620  142.2170 N   0  0  0  0  0  2  0  0  0  0  0  0
  159.1690  212.7620  143.3660 C   0  0  2  0  0  3  0  0  0  0  0  0
  158.6110  214.4480  142.9510 S   0  0  0  0  0  0  0  0  0  0  0  0
  159.1750  212.6820  141.0320 C   0  0  0  0  0  2  0  0  0  0  0  0
  160.1330  214.2660  151.0360 C   0  0  0  0  0  2  0  0  0  0  0  0
  158.7230  214.1370  151.5760 C   0  0  0  0  0  2  0  0  0  0  0  0
  157.7000  214.4440  150.5010 C   0  0  0  0  0  2  0  0  0  0  0  0
  157.1620  213.2480  150.0380 O   0  0  0  0  0  0  0  0  0  0  0  0
  156.3440  213.6150  148.9700 C   0  0  0  0  0  2  0  0  0  0  0  0
  157.0500  213.3170  147.6650 C   0  0  0  0  0  1  0  0  0  0  0  0
  1  8  1  1  0  0  0
  1  7  1  0  0  0  0
  3 37  1  1  0  0  0
  3  2  1  0  0  0  0
  4  3  1  0  0  0  0
  5  4  1  1  0  0  0
  5  1  1  0  0  0  0
  6 22  1  6  0  0  0
  6  5  1  0  0  0  0
  6  1  1  0  0  0  0
  7  2  1  0  0  0  0
  7 19  1  1  0  0  0
  8 10  1  6  0  0  0
  8  9  1  0  0  0  0
 11 13  1  6  0  0  0
 11  9  1  0  0  0  0
 12 10  1  0  0  0  0
 12 11  1  0  0  0  0
 13 14  1  6  0  0  0
 15 13  1  0  0  0  0
 16 18  2  0  0  0  0
 17 18  1  0  0  0  0
 18 15  1  0  0  0  0
 19 21  2  0  0  0  0
 19 20  1  0  0  0  0
 23 22  1  0  0  0  0
 25 31  1  0  0  0  0
 25 35  1  1  0  0  0
 26 32  1  6  0  0  0
 26 33  1  0  0  0  0
 26 31  1  0  0  0  0
 27 29  1  0  0  0  0
 27 30  1  0  0  0  0
 27 24  1  0  0  0  0
 28 25  1  0  0  0  0
 29 24  1  0  0  0  0
 30 23  1  6  0  0  0
 31 30  1  0  0  0  0
 32 28  1  0  0  0  0
 33 27  1  0  0  0  0
 35 34  1  0  0  0  0
 36 35  2  0  0  0  0
 38 40  1  0  0  0  0
 38 54  1  0  0  0  0
 39 43  1  0  0  0  0
 40 37  1  0  0  0  0
 41 40  1  0  0  0  0
 42 41  1  0  0  0  0
 43 38  1  0  0  0  0
 44 42  1  0  0  0  0
 44 43  1  0  0  0  0
 45 44  1  0  0  0  0
 46 45  2  0  0  0  0
 47 48  3  0  0  0  0
 48 45  1  0  0  0  0
 49 52  1  0  0  0  0
 50 51  1  0  0  0  0
 51 47  1  0  0  0  0
 52 51  1  0  0  0  0
 53 49  1  0  0  0  0
 53 50  1  0  0  0  0
 54 55  1  0  0  0  0
 56 55  1  0  0  0  0
 57 56  1  0  0  0  0
 58 57  1  0  0  0  0
 59 58  1  0  0  0  0
M  END
>  <MODEL>
5

>  <REMARK>
 VINA RESULT:      -1.1      3.615      6.183
  Name = 
  19 active torsions:
  status: ('A' for Active; 'I' for Inactive)
    1  A    between atoms: C_1  and  C_38
    2  A    between atoms: C_1  and  C_59
    3  A    between atoms: C_2  and  C_53
    4  A    between atoms: C_3  and  C_9
    5  A    between atoms: C_4  and  C_26
    6  A    between atoms: C_6  and  O_20
    7  A    between atoms: O_7  and  C_12
    8  A    between atoms: O_7  and  C_32
    9  A    between atoms: C_10  and  C_48
   10  A    between atoms: C_10  and  C_55
   11  A    between atoms: C_12  and  C_16
   12  A    between atoms: C_14  and  C_27
   13  A    between atoms: C_16  and  C_26
   14  A    between atoms: O_20  and  C_36
   15  A    between atoms: C_28  and  C_39
   16  A    between atoms: C_28  and  C_49
   17  A    between atoms: C_33  and  C_34
   18  A    between atoms: C_35  and  C_39
   19  A    between atoms: C_48  and  C_57
                            x       y       z     vdW  Elec       q    Type
                         _______ _______ _______ _____ _____    ______ ____

>  <TORSDO>
F 19

$$$$
=
 OpenBabel11072415293D

 59 66  0  0  1  0  0  0  0  0999 V2000
  160.7360  210.9670  153.3610 C   0  0  2  0  0  0  0  0  0  0  0  0
  161.7240  208.6490  153.6500 C   0  0  0  0  0  2  0  0  0  0  0  0
  161.4170  208.3680  152.1960 C   0  0  2  0  0  3  0  0  0  0  0  0
  160.0550  208.9690  151.8300 C   0  0  0  0  0  2  0  0  0  0  0  0
  159.7920  210.4270  152.2770 C   0  0  2  0  0  3  0  0  0  0  0  0
  160.9000  211.3980  151.8950 C   0  0  1  0  0  3  0  0  0  0  0  0
  161.9740  210.1380  153.7640 C   0  0  2  0  0  3  0  0  0  0  0  0
  160.0620  211.8790  154.4320 C   0  0  1  0  0  3  0  0  0  0  0  0
  158.6650  212.3550  154.1070 C   0  0  0  0  0  2  0  0  0  0  0  0
  159.8540  211.1020  155.7210 C   0  0  0  0  0  2  0  0  0  0  0  0
  157.8070  211.7730  155.2080 C   0  0  2  0  0  3  0  0  0  0  0  0
  158.5150  210.7100  155.7860 O   0  0  0  0  0  0  0  0  0  0  0  0
  156.4620  211.3100  154.6560 C   0  0  1  0  0  3  0  0  0  0  0  0
  156.1850  210.0050  155.0610 O   0  0  0  0  0  1  0  0  0  0  0  0
  155.3300  212.2460  155.0750 C   0  0  0  0  0  2  0  0  0  0  0  0
  156.3130  212.1570  157.2490 O   0  0  0  0  0  0  0  0  0  0  0  0
  154.5060  213.6020  157.0530 N   0  0  0  0  0  1  0  0  0  0  0  0
  155.4090  212.6370  156.5190 C   0  0  0  0  0  0  0  0  0  0  0  0
  162.6440  210.5360  155.0440 C   0  0  0  0  0  0  0  0  0  0  0  0
  162.4820  209.7810  156.1980 O   0  0  0  0  0  1  0  0  0  0  0  0
  163.3870  211.5520  155.0690 O   0  0  0  0  0  0  0  0  0  0  0  0
  160.3470  212.7770  151.5740 C   0  0  0  0  0  2  0  0  0  0  0  0
  160.7820  213.2140  150.1820 C   0  0  0  0  0  2  0  0  0  0  0  0
  157.6680  214.4530  150.7710 C   0  0  0  0  0  2  0  0  0  0  0  0
  160.5740  213.0260  147.1180 C   0  0  2  0  0  3  0  0  0  0  0  0
  158.2080  213.6830  147.5150 C   0  0  1  0  0  3  0  0  0  0  0  0
  158.1900  213.5150  149.7100 C   0  0  0  0  0  0  0  0  0  0  0  0
  159.6920  212.5420  145.9700 C   0  0  0  0  0  2  0  0  0  0  0  0
  157.7230  212.9450  151.0250 C   0  0  0  0  0  2  0  0  0  0  0  0
  159.6120  213.6270  149.3400 C   0  0  2  0  0  3  0  0  0  0  0  0
  159.5920  213.6800  148.0260 C   0  0  1  0  0  3  0  0  0  0  0  0
  158.2430  212.5990  146.4540 C   0  0  0  0  0  2  0  0  0  0  0  0
  157.3580  213.3510  148.5920 O   0  0  0  0  0  0  0  0  0  0  0  0
  161.6250  214.3760  145.4200 O   0  0  0  0  0  0  0  0  0  0  0  0
  161.6290  213.9680  146.6120 C   0  0  0  0  0  0  0  0  0  0  0  0
  162.5880  214.4530  147.4910 O   0  0  0  0  0  1  0  0  0  0  0  0
  161.4230  206.9780  151.9770 O   0  0  0  0  0  0  0  0  0  0  0  0
  161.5850  205.2420  150.1910 C   0  0  2  0  0  3  0  0  0  0  0  0
  161.6680  203.7340  148.3280 O   0  0  0  0  0  1  0  0  0  0  0  0
  161.3020  206.7090  150.5930 C   0  0  2  0  0  3  0  0  0  0  0  0
  162.0920  207.7130  149.7490 C   0  0  0  0  0  2  0  0  0  0  0  0
  161.8710  207.4640  148.2640 C   0  0  0  0  0  2  0  0  0  0  0  0
  161.3600  205.0500  148.6880 C   0  0  2  0  0  3  0  0  0  0  0  0
  162.2420  206.0260  147.9060 C   0  0  1  0  0  3  0  0  0  0  0  0
  162.1500  205.7980  146.4290 C   0  0  0  0  0  0  0  0  0  0  0  0
  162.4760  206.7020  145.6140 O   0  0  0  0  0  0  0  0  0  0  0  0
  161.2520  203.4970  145.5230 C   0  0  0  0  0  0  0  0  0  0  0  0
  161.6750  204.5410  145.9380 C   0  0  0  0  0  0  0  0  0  0  0  0
  159.1090  200.4940  146.0280 C   0  0  0  0  0  2  0  0  0  0  0  0
  159.3170  202.4250  144.6150 N   0  0  0  0  0  2  0  0  0  0  0  0
  160.7160  202.2410  144.9990 C   0  0  2  0  0  3  0  0  0  0  0  0
  160.8480  200.9480  146.2780 S   0  0  0  0  0  0  0  0  0  0  0  0
  158.6910  201.1130  144.7150 C   0  0  0  0  0  2  0  0  0  0  0  0
  160.6860  204.2810  150.9620 C   0  0  0  0  0  2  0  0  0  0  0  0
  161.5450  203.1700  151.5320 C   0  0  0  0  0  2  0  0  0  0  0  0
  160.8550  201.8280  151.3990 C   0  0  0  0  0  2  0  0  0  0  0  0
  160.1150  201.8180  150.2210 O   0  0  0  0  0  0  0  0  0  0  0  0
  160.7930  200.9350  149.3810 C   0  0  0  0  0  2  0  0  0  0  0  0
  162.2830  201.0580  149.6120 C   0  0  0  0  0  1  0  0  0  0  0  0
  1  7  1  0  0  0  0
  1  8  1  1  0  0  0
  2  7  1  0  0  0  0
  3 37  1  1  0  0  0
  3  2  1  0  0  0  0
  4  3  1  0  0  0  0
  5  4  1  6  0  0  0
  5  1  1  0  0  0  0
  6 22  1  1  0  0  0
  6  5  1  0  0  0  0
  6  1  1  0  0  0  0
  7 19  1  1  0  0  0
  8  9  1  6  0  0  0
  8 10  1  0  0  0  0
  9 11  1  0  0  0  0
 10 12  1  0  0  0  0
 11 13  1  6  0  0  0
 11 12  1  0  0  0  0
 13 14  1  1  0  0  0
 13 15  1  0  0  0  0
 15 18  1  0  0  0  0
 18 17  1  0  0  0  0
 18 16  2  0  0  0  0
 19 21  2  0  0  0  0
 19 20  1  0  0  0  0
 23 22  1  0  0  0  0
 24 29  1  0  0  0  0
 25 35  1  6  0  0  0
 25 31  1  0  0  0  0
 26 32  1  6  0  0  0
 26 31  1  0  0  0  0
 26 33  1  0  0  0  0
 27 24  1  0  0  0  0
 27 29  1  0  0  0  0
 28 32  1  0  0  0  0
 28 25  1  0  0  0  0
 30 27  1  0  0  0  0
 30 23  1  6  0  0  0
 31 30  1  0  0  0  0
 33 27  1  0  0  0  0
 34 35  2  0  0  0  0
 35 36  1  0  0  0  0
 38 40  1  0  0  0  0
 38 54  1  0  0  0  0
 39 43  1  0  0  0  0
 40 37  1  0  0  0  0
 41 40  1  0  0  0  0
 42 41  1  0  0  0  0
 43 38  1  0  0  0  0
 44 42  1  0  0  0  0
 44 43  1  0  0  0  0
 45 44  1  0  0  0  0
 46 45  2  0  0  0  0
 47 48  3  0  0  0  0
 48 45  1  0  0  0  0
 49 52  1  0  0  0  0
 50 53  1  0  0  0  0
 50 51  1  0  0  0  0
 51 47  1  0  0  0  0
 51 52  1  0  0  0  0
 53 49  1  0  0  0  0
 54 55  1  0  0  0  0
 56 55  1  0  0  0  0
 57 56  1  0  0  0  0
 58 59  1  0  0  0  0
 58 57  1  0  0  0  0
M  END
>  <MODEL>
6

>  <REMARK>
 VINA RESULT:      -0.9      3.796      9.176
  Name = 
  19 active torsions:
  status: ('A' for Active; 'I' for Inactive)
    1  A    between atoms: C_1  and  C_38
    2  A    between atoms: C_1  and  C_59
    3  A    between atoms: C_2  and  C_53
    4  A    between atoms: C_3  and  C_9
    5  A    between atoms: C_4  and  C_26
    6  A    between atoms: C_6  and  O_20
    7  A    between atoms: O_7  and  C_12
    8  A    between atoms: O_7  and  C_32
    9  A    between atoms: C_10  and  C_48
   10  A    between atoms: C_10  and  C_55
   11  A    between atoms: C_12  and  C_16
   12  A    between atoms: C_14  and  C_27
   13  A    between atoms: C_16  and  C_26
   14  A    between atoms: O_20  and  C_36
   15  A    between atoms: C_28  and  C_39
   16  A    between atoms: C_28  and  C_49
   17  A    between atoms: C_33  and  C_34
   18  A    between atoms: C_35  and  C_39
   19  A    between atoms: C_48  and  C_57
                            x       y       z     vdW  Elec       q    Type
                         _______ _______ _______ _____ _____    ______ ____

>  <TORSDO>
F 19

$$$$
=
 OpenBabel11072415293D

 59 66  0  0  1  0  0  0  0  0999 V2000
  161.4210  209.9340  150.5790 C   0  0  2  0  0  0  0  0  0  0  0  0
  160.9010  211.2190  148.4560 C   0  0  0  0  0  2  0  0  0  0  0  0
  160.8890  212.4960  149.2660 C   0  0  2  0  0  3  0  0  0  0  0  0
  160.2130  212.2440  150.6190 C   0  0  0  0  0  2  0  0  0  0  0  0
  160.6610  210.9870  151.4000 C   0  0  2  0  0  3  0  0  0  0  0  0
  162.1710  210.8600  151.5500 C   0  0  1  0  0  3  0  0  0  0  0  0
  161.8660  210.2760  149.1420 C   0  0  2  0  0  3  0  0  0  0  0  0
  161.0830  208.4520  150.9290 C   0  0  1  0  0  3  0  0  0  0  0  0
  160.5450  207.6130  149.7930 C   0  0  0  0  0  2  0  0  0  0  0  0
  162.3500  207.7060  151.3170 C   0  0  0  0  0  2  0  0  0  0  0  0
  161.5680  206.5120  149.6230 C   0  0  2  0  0  3  0  0  0  0  0  0
  162.7610  206.9400  150.2230 O   0  0  0  0  0  0  0  0  0  0  0  0
  161.7730  206.1900  148.1460 C   0  0  1  0  0  3  0  0  0  0  0  0
  163.1130  205.9050  147.8850 O   0  0  0  0  0  1  0  0  0  0  0  0
  160.8880  205.0290  147.6950 C   0  0  0  0  0  2  0  0  0  0  0  0
  160.4830  203.9040  149.7620 O   0  0  0  0  0  0  0  0  0  0  0  0
  161.5710  202.6300  148.1540 N   0  0  0  0  0  1  0  0  0  0  0  0
  160.9800  203.8460  148.6090 C   0  0  0  0  0  0  0  0  0  0  0  0
  162.2770  209.1150  148.2880 C   0  0  0  0  0  0  0  0  0  0  0  0
  161.3490  208.4410  147.5060 O   0  0  0  0  0  0  0  0  0  0  0  0
  163.4860  208.7630  148.2530 O   0  0  0  0  0  1  0  0  0  0  0  0
  162.5480  210.2180  152.8750 C   0  0  0  0  0  2  0  0  0  0  0  0
  161.3060  209.9790  153.7230 C   0  0  0  0  0  2  0  0  0  0  0  0
  163.4500  211.0650  156.1310 C   0  0  0  0  0  2  0  0  0  0  0  0
  158.8260  211.5480  154.6480 C   0  0  2  0  0  3  0  0  0  0  0  0
  160.2750  212.1660  156.5720 C   0  0  1  0  0  3  0  0  0  0  0  0
  161.9630  210.8140  156.1520 C   0  0  0  0  0  0  0  0  0  0  0  0
  157.9700  211.8950  155.8630 C   0  0  0  0  0  2  0  0  0  0  0  0
  162.9000  209.6760  156.4630 C   0  0  0  0  0  2  0  0  0  0  0  0
  161.2320  210.9330  154.8790 C   0  0  2  0  0  3  0  0  0  0  0  0
  160.2100  211.7070  155.1720 C   0  0  1  0  0  3  0  0  0  0  0  0
  158.8830  211.8560  157.0890 C   0  0  0  0  0  2  0  0  0  0  0  0
  161.2700  211.4030  157.2220 O   0  0  0  0  0  0  0  0  0  0  0  0
  159.1240  213.5660  153.3650 O   0  0  0  0  0  1  0  0  0  0  0  0
  158.5170  212.4700  153.5040 C   0  0  0  0  0  0  0  0  0  0  0  0
  157.5940  212.0800  152.5430 O   0  0  0  0  0  0  0  0  0  0  0  0
  160.2100  213.4980  148.5480 O   0  0  0  0  0  0  0  0  0  0  0  0
  160.2080  213.2820  146.0620 C   0  0  2  0  0  3  0  0  0  0  0  0
  160.3970  213.1980  143.6730 O   0  0  0  0  0  1  0  0  0  0  0  0
  160.9030  213.7850  147.3490 C   0  0  2  0  0  3  0  0  0  0  0  0
  162.3730  213.3620  147.4280 C   0  0  0  0  0  2  0  0  0  0  0  0
  163.1220  213.7650  146.1660 C   0  0  0  0  0  2  0  0  0  0  0  0
  161.0080  213.7030  144.8250 C   0  0  2  0  0  3  0  0  0  0  0  0
  162.4390  213.1750  144.9330 C   0  0  1  0  0  3  0  0  0  0  0  0
  163.2320  213.4560  143.6930 C   0  0  0  0  0  0  0  0  0  0  0  0
  164.1720  214.2960  143.7030 O   0  0  0  0  0  0  0  0  0  0  0  0
  162.6580  212.2060  141.4500 C   0  0  0  0  0  0  0  0  0  0  0  0
  162.9090  212.7700  142.4800 C   0  0  0  0  0  0  0  0  0  0  0  0
  160.1680  210.9320  138.9930 C   0  0  0  0  0  2  0  0  0  0  0  0
  161.9860  212.4900  139.1730 N   0  0  0  0  0  2  0  0  0  0  0  0
  162.3850  211.5180  140.1890 C   0  0  2  0  0  3  0  0  0  0  0  0
  161.0540  210.2970  140.4430 S   0  0  0  0  0  0  0  0  0  0  0  0
  161.1600  211.7640  138.2170 C   0  0  0  0  0  2  0  0  0  0  0  0
  158.7890  213.8310  145.9560 C   0  0  0  0  0  2  0  0  0  0  0  0
  157.8140  212.6820  146.1130 C   0  0  0  0  0  2  0  0  0  0  0  0
  157.2650  212.6260  147.5250 C   0  0  0  0  0  2  0  0  0  0  0  0
  156.5400  213.7890  147.7700 O   0  0  0  0  0  0  0  0  0  0  0  0
  156.8790  214.1520  149.0730 C   0  0  0  0  0  2  0  0  0  0  0  0
  155.6220  214.4490  149.8600 C   0  0  0  0  0  1  0  0  0  0  0  0
  1  8  1  1  0  0  0
  1  5  1  0  0  0  0
  1  6  1  0  0  0  0
  2  7  1  0  0  0  0
  2  3  1  0  0  0  0
  3 37  1  6  0  0  0
  3  4  1  0  0  0  0
  5  4  1  6  0  0  0
  5  6  1  0  0  0  0
  6 22  1  1  0  0  0
  7 19  1  6  0  0  0
  7  1  1  0  0  0  0
  8  9  1  6  0  0  0
  8 10  1  0  0  0  0
 11 13  1  6  0  0  0
 11  9  1  0  0  0  0
 11 12  1  0  0  0  0
 12 10  1  0  0  0  0
 13 14  1  1  0  0  0
 15 13  1  0  0  0  0
 15 18  1  0  0  0  0
 17 18  1  0  0  0  0
 18 16  2  0  0  0  0
 20 19  2  0  0  0  0
 21 19  1  0  0  0  0
 22 23  1  0  0  0  0
 24 27  1  0  0  0  0
 24 29  1  0  0  0  0
 25 35  1  6  0  0  0
 25 31  1  0  0  0  0
 25 28  1  0  0  0  0
 26 32  1  1  0  0  0
 26 33  1  0  0  0  0
 27 29  1  0  0  0  0
 27 33  1  0  0  0  0
 28 32  1  0  0  0  0
 30 23  1  1  0  0  0
 30 31  1  0  0  0  0
 30 27  1  0  0  0  0
 31 26  1  0  0  0  0
 34 35  1  0  0  0  0
 36 35  2  0  0  0  0
 38 40  1  0  0  0  0
 39 43  1  0  0  0  0
 40 41  1  0  0  0  0
 40 37  1  0  0  0  0
 42 41  1  0  0  0  0
 43 44  1  0  0  0  0
 43 38  1  0  0  0  0
 44 42  1  0  0  0  0
 45 46  2  0  0  0  0
 45 44  1  0  0  0  0
 47 48  3  0  0  0  0
 48 45  1  0  0  0  0
 49 52  1  0  0  0  0
 50 51  1  0  0  0  0
 51 52  1  0  0  0  0
 51 47  1  0  0  0  0
 53 49  1  0  0  0  0
 53 50  1  0  0  0  0
 54 38  1  0  0  0  0
 54 55  1  0  0  0  0
 55 56  1  0  0  0  0
 56 57  1  0  0  0  0
 57 58  1  0  0  0  0
 58 59  1  0  0  0  0
M  END
>  <MODEL>
7

>  <REMARK>
 VINA RESULT:      -0.8      3.105      7.592
  Name = 
  19 active torsions:
  status: ('A' for Active; 'I' for Inactive)
    1  A    between atoms: C_1  and  C_38
    2  A    between atoms: C_1  and  C_59
    3  A    between atoms: C_2  and  C_53
    4  A    between atoms: C_3  and  C_9
    5  A    between atoms: C_4  and  C_26
    6  A    between atoms: C_6  and  O_20
    7  A    between atoms: O_7  and  C_12
    8  A    between atoms: O_7  and  C_32
    9  A    between atoms: C_10  and  C_48
   10  A    between atoms: C_10  and  C_55
   11  A    between atoms: C_12  and  C_16
   12  A    between atoms: C_14  and  C_27
   13  A    between atoms: C_16  and  C_26
   14  A    between atoms: O_20  and  C_36
   15  A    between atoms: C_28  and  C_39
   16  A    between atoms: C_28  and  C_49
   17  A    between atoms: C_33  and  C_34
   18  A    between atoms: C_35  and  C_39
   19  A    between atoms: C_48  and  C_57
                            x       y       z     vdW  Elec       q    Type
                         _______ _______ _______ _____ _____    ______ ____

>  <TORSDO>
F 19

$$$$
