=
 OpenBabel11072415113D

 39 44  0  0  1  0  0  0  0  0999 V2000
  160.4250  208.0990  154.7340 N   0  0  0  0  0  0  0  0  0  0  0  0
  160.7590  207.4710  152.3750 C   0  0  0  0  0  0  0  0  0  0  0  0
  162.7990  207.9670  150.3930 C   0  0  0  0  0  2  0  0  0  0  0  0
  161.1870  208.6860  152.1340 C   0  0  0  0  0  0  0  0  0  0  0  0
  161.6220  208.8750  150.7160 C   0  0  2  0  0  3  0  0  0  0  0  0
  160.8260  209.3160  154.4790 C   0  0  0  0  0  0  0  0  0  0  0  0
  160.8580  206.6770  151.2010 N   0  0  0  0  0  0  0  0  0  0  0  0
  160.5390  206.9800  153.7840 C   0  0  1  0  0  3  0  0  0  0  0  0
  161.3860  207.4850  150.1030 C   0  0  2  0  0  3  0  0  0  0  0  0
  161.2830  209.6640  153.1660 N   0  0  0  0  0  2  0  0  0  0  0  0
  161.9090  205.9540  154.2770 Cl  0  0  0  0  0  0  0  0  0  0  0  0
  160.5460  203.2390  149.9530 N   0  0  0  0  0  0  0  0  0  0  0  0
  160.8410  205.2730  151.1620 N   0  0  0  0  0  2  0  0  0  0  0  0
  161.0220  205.0810  148.5990 C   0  0  0  0  0  2  0  0  0  0  0  0
  160.5630  202.9110  148.5760 C   0  0  1  0  0  3  0  0  0  0  0  0
  161.5720  203.6160  146.6370 C   0  0  0  0  0  3  0  0  0  0  0  0
  160.7350  204.5270  149.9470 C   0  0  0  0  0  0  0  0  0  0  0  0
  161.7710  202.3350  146.7500 N   0  0  0  0  0  0  0  0  0  0  0  0
  160.8050  204.0570  147.7920 C   0  0  2  0  0  3  0  0  0  0  0  0
  161.5700  200.7100  148.6530 N   0  0  0  0  0  1  0  0  0  0  0  0
  161.1740  201.9020  147.9820 C   0  0  1  0  0  3  0  0  0  0  0  0
  160.7500  210.3820  155.5310 C   0  0  1  0  0  3  0  0  0  0  0  0
  163.3370  210.7140  155.9480 O   0  0  0  0  0  1  0  0  0  0  0  0
  162.3580  208.5510  156.8380 O   0  0  0  0  0  1  0  0  0  0  0  0
  162.1110  210.2310  156.7130 S   0  0  0  0  0  3  0  0  0  0  0  0
  160.7340  211.7890  154.9280 C   0  0  0  0  0  2  0  0  0  0  0  0
  158.3300  212.5760  157.2580 C   0  0  0  0  0  2  0  0  0  0  0  0
  158.0140  211.3440  156.4580 C   0  0  0  0  0  2  0  0  0  0  0  0
  158.3360  211.6030  155.1160 O   0  0  0  0  0  0  0  0  0  0  0  0
  159.4060  212.5260  155.1290 C   0  0  1  0  0  0  0  0  0  0  0  0
  159.4510  213.1980  156.4870 C   0  0  0  0  0  2  0  0  0  0  0  0
  159.2570  213.6320  154.0680 C   0  0  0  0  0  2  0  0  0  0  0  0
  158.2070  213.2480  152.6150 P   0  0  2  0  0  0  0  0  0  0  0  0
  156.7400  213.3830  152.9610 O   0  0  0  0  0  1  0  0  0  0  0  0
  158.5100  211.6460  152.1660 O   0  0  0  0  0  0  0  0  0  0  0  0
  158.6130  214.3220  151.1950 C   0  0  1  0  0  3  0  0  0  0  0  0
  159.7920  213.7640  150.4240 C   0  0  0  0  0  1  0  0  0  0  0  0
  157.2210  213.1750  149.4690 C   0  0  0  0  0  1  0  0  0  0  0  0
  157.4200  214.4530  150.2620 C   0  0  0  0  0  2  0  0  0  0  0  0
  2  8  1  0  0  0  0
  4  2  2  0  0  0  0
  4 10  1  0  0  0  0
  5  3  1  1  0  0  0
  5  4  1  0  0  0  0
  6  1  2  0  0  0  0
  6 22  1  0  0  0  0
  7  2  1  0  0  0  0
  8 11  1  1  0  0  0
  8  1  1  0  0  0  0
  9  3  1  1  0  0  0
  9  5  1  0  0  0  0
  9  7  1  0  0  0  0
 10  6  1  0  0  0  0
 13  7  1  0  0  0  0
 14 17  1  0  0  0  0
 15 12  1  1  0  0  0
 16 18  2  0  0  0  0
 17 12  2  0  0  0  0
 17 13  1  0  0  0  0
 18 21  1  0  0  0  0
 19 16  1  6  0  0  0
 19 15  1  0  0  0  0
 19 14  1  0  0  0  0
 21 15  1  0  0  0  0
 21 20  1  1  0  0  0
 22 26  1  6  0  0  0
 22 25  1  0  0  0  0
 23 25  1  0  0  0  0
 25 24  1  0  0  0  0
 26 30  1  0  0  0  0
 28 27  1  0  0  0  0
 29 30  1  0  0  0  0
 29 28  1  0  0  0  0
 30 32  1  6  0  0  0
 30 31  1  0  0  0  0
 31 27  1  0  0  0  0
 33 35  2  6  0  0  0
 33 34  1  0  0  0  0
 33 32  1  0  0  0  0
 36 37  1  6  0  0  0
 36 33  1  0  0  0  0
 38 39  1  0  0  0  0
 39 36  1  0  0  0  0
M  END
>  <MODEL>
1

>  <REMARK>
 VINA RESULT:      -6.3      0.000      0.000
  Name = 
  9 active torsions:
  status: ('A' for Active; 'I' for Inactive)
    1  A    between atoms: P_1  and  C_10
    2  A    between atoms: P_1  and  C_22
    3  A    between atoms: N_6  and  N_24
    4  A    between atoms: C_7  and  C_26
    5  A    between atoms: C_7  and  C_35
    6  A    between atoms: C_10  and  C_39
    7  A    between atoms: C_18  and  C_35
    8  A    between atoms: C_22  and  C_26
    9  A    between atoms: S_33  and  C_35
                            x       y       z     vdW  Elec       q    Type
                         _______ _______ _______ _____ _____    ______ ____

>  <TORSDO>
F 9

$$$$
=
 OpenBabel11072415113D

 39 44  0  0  1  0  0  0  0  0999 V2000
  160.6920  207.7650  153.8380 N   0  0  0  0  0  0  0  0  0  0  0  0
  161.0420  207.0670  151.5010 C   0  0  0  0  0  0  0  0  0  0  0  0
  163.0660  207.5520  149.5000 C   0  0  0  0  0  2  0  0  0  0  0  0
  161.4350  208.2840  151.2180 C   0  0  0  0  0  0  0  0  0  0  0  0
  161.8640  208.4380  149.7940 C   0  0  2  0  0  3  0  0  0  0  0  0
  161.0590  208.9840  153.5410 C   0  0  0  0  0  0  0  0  0  0  0  0
  161.1630  206.2370  150.3540 N   0  0  0  0  0  0  0  0  0  0  0  0
  160.8370  206.6190  152.9260 C   0  0  1  0  0  3  0  0  0  0  0  0
  161.6660  207.0220  149.2290 C   0  0  2  0  0  3  0  0  0  0  0  0
  161.5050  209.3000  152.2170 N   0  0  0  0  0  2  0  0  0  0  0  0
  162.2360  205.6490  153.4510 Cl  0  0  0  0  0  0  0  0  0  0  0  0
  160.7570  202.7490  149.2850 N   0  0  0  0  0  0  0  0  0  0  0  0
  161.1850  204.8320  150.3630 N   0  0  0  0  0  2  0  0  0  0  0  0
  160.9380  204.5530  147.8140 C   0  0  0  0  0  2  0  0  0  0  0  0
  160.5520  202.3710  147.9360 C   0  0  1  0  0  3  0  0  0  0  0  0
  161.1970  203.0320  145.8340 C   0  0  0  0  0  3  0  0  0  0  0  0
  160.9000  204.0400  149.2080 C   0  0  0  0  0  0  0  0  0  0  0  0
  161.4550  201.7620  145.9520 N   0  0  0  0  0  0  0  0  0  0  0  0
  160.6210  203.4950  147.0870 C   0  0  2  0  0  3  0  0  0  0  0  0
  161.6290  200.2020  147.9110 N   0  0  0  0  0  1  0  0  0  0  0  0
  161.0870  201.3580  147.2800 C   0  0  1  0  0  3  0  0  0  0  0  0
  160.9540  210.0820  154.5560 C   0  0  1  0  0  3  0  0  0  0  0  0
  161.8050  208.9410  156.7810 O   0  0  0  0  0  1  0  0  0  0  0  0
  162.1770  211.4440  156.6290 O   0  0  0  0  0  1  0  0  0  0  0  0
  162.2880  209.9760  155.7730 S   0  0  0  0  0  3  0  0  0  0  0  0
  160.9450  211.4690  153.9090 C   0  0  0  0  0  2  0  0  0  0  0  0
  158.0420  212.2230  152.2270 C   0  0  0  0  0  2  0  0  0  0  0  0
  159.0920  213.2920  152.1260 C   0  0  0  0  0  2  0  0  0  0  0  0
  159.6710  213.4530  153.3950 O   0  0  0  0  0  0  0  0  0  0  0  0
  159.6000  212.1940  154.0320 C   0  0  1  0  0  0  0  0  0  0  0  0
  158.5550  211.3500  153.3290 C   0  0  0  0  0  2  0  0  0  0  0  0
  159.1960  212.2940  155.5150 C   0  0  0  0  0  2  0  0  0  0  0  0
  157.6490  213.2050  155.8910 P   0  0  2  0  0  0  0  0  0  0  0  0
  157.2660  214.1100  154.7410 O   0  0  0  0  0  0  0  0  0  0  0  0
  157.9310  214.1600  157.2590 O   0  0  0  0  0  1  0  0  0  0  0  0
  156.2760  212.0620  156.2700 C   0  0  1  0  0  3  0  0  0  0  0  0
  155.1850  212.7760  157.0400 C   0  0  0  0  0  1  0  0  0  0  0  0
  155.1840  210.0730  155.2290 C   0  0  0  0  0  1  0  0  0  0  0  0
  155.6920  211.4830  154.9920 C   0  0  0  0  0  2  0  0  0  0  0  0
  2  8  1  0  0  0  0
  4  2  2  0  0  0  0
  4 10  1  0  0  0  0
  5  3  1  1  0  0  0
  5  4  1  0  0  0  0
  6  1  2  0  0  0  0
  6 22  1  0  0  0  0
  7 13  1  0  0  0  0
  7  2  1  0  0  0  0
  8 11  1  1  0  0  0
  8  1  1  0  0  0  0
  9  3  1  1  0  0  0
  9  5  1  0  0  0  0
  9  7  1  0  0  0  0
 10  6  1  0  0  0  0
 14 17  1  0  0  0  0
 15 12  1  1  0  0  0
 16 18  2  0  0  0  0
 17 12  2  0  0  0  0
 17 13  1  0  0  0  0
 18 21  1  0  0  0  0
 19 16  1  6  0  0  0
 19 14  1  0  0  0  0
 19 15  1  0  0  0  0
 21 20  1  1  0  0  0
 21 15  1  0  0  0  0
 22 26  1  6  0  0  0
 22 25  1  0  0  0  0
 25 24  1  0  0  0  0
 25 23  1  0  0  0  0
 27 31  1  0  0  0  0
 28 27  1  0  0  0  0
 28 29  1  0  0  0  0
 29 30  1  0  0  0  0
 30 26  1  6  0  0  0
 30 32  1  0  0  0  0
 31 30  1  0  0  0  0
 32 33  1  0  0  0  0
 33 34  2  6  0  0  0
 33 36  1  0  0  0  0
 33 35  1  0  0  0  0
 36 37  1  6  0  0  0
 39 38  1  0  0  0  0
 39 36  1  0  0  0  0
M  END
>  <MODEL>
2

>  <REMARK>
 VINA RESULT:      -5.9      1.633      2.977
  Name = 
  9 active torsions:
  status: ('A' for Active; 'I' for Inactive)
    1  A    between atoms: P_1  and  C_10
    2  A    between atoms: P_1  and  C_22
    3  A    between atoms: N_6  and  N_24
    4  A    between atoms: C_7  and  C_26
    5  A    between atoms: C_7  and  C_35
    6  A    between atoms: C_10  and  C_39
    7  A    between atoms: C_18  and  C_35
    8  A    between atoms: C_22  and  C_26
    9  A    between atoms: S_33  and  C_35
                            x       y       z     vdW  Elec       q    Type
                         _______ _______ _______ _____ _____    ______ ____

>  <TORSDO>
F 9

$$$$
=
 OpenBabel11072415113D

 39 44  0  0  1  0  0  0  0  0999 V2000
  160.4990  208.4540  152.8700 N   0  0  0  0  0  0  0  0  0  0  0  0
  161.0750  207.3770  150.7300 C   0  0  0  0  0  0  0  0  0  0  0  0
  163.2200  207.6420  148.8150 C   0  0  0  0  0  2  0  0  0  0  0  0
  161.4170  208.5500  150.2550 C   0  0  0  0  0  0  0  0  0  0  0  0
  161.9480  208.4770  148.8590 C   0  0  2  0  0  3  0  0  0  0  0  0
  160.8160  209.6240  152.3800 C   0  0  0  0  0  0  0  0  0  0  0  0
  161.3350  206.3670  149.7650 N   0  0  0  0  0  0  0  0  0  0  0  0
  160.7840  207.1770  152.1960 C   0  0  1  0  0  3  0  0  0  0  0  0
  161.8790  206.9720  148.5520 C   0  0  2  0  0  3  0  0  0  0  0  0
  161.3470  209.7290  151.0530 N   0  0  0  0  0  2  0  0  0  0  0  0
  162.1910  206.4200  152.9830 Cl  0  0  0  0  0  0  0  0  0  0  0  0
  160.9840  202.7270  149.4400 N   0  0  0  0  0  0  0  0  0  0  0  0
  161.4390  204.9910  150.0330 N   0  0  0  0  0  2  0  0  0  0  0  0
  160.8520  204.2170  147.6470 C   0  0  0  0  0  2  0  0  0  0  0  0
  160.6130  202.0900  148.2320 C   0  0  1  0  0  3  0  0  0  0  0  0
  160.9160  202.3510  145.9700 C   0  0  0  0  0  3  0  0  0  0  0  0
  161.0400  203.9830  149.1020 C   0  0  0  0  0  0  0  0  0  0  0  0
  161.2600  201.1350  146.2840 N   0  0  0  0  0  0  0  0  0  0  0  0
  160.4970  203.0290  147.1870 C   0  0  2  0  0  3  0  0  0  0  0  0
  161.7990  199.9900  148.4510 N   0  0  0  0  0  1  0  0  0  0  0  0
  161.1080  200.9850  147.7040 C   0  0  1  0  0  3  0  0  0  0  0  0
  160.5660  210.8750  153.1660 C   0  0  1  0  0  3  0  0  0  0  0  0
  160.0920  213.4680  153.0060 O   0  0  0  0  0  1  0  0  0  0  0  0
  158.5360  211.9900  151.6550 O   0  0  0  0  0  1  0  0  0  0  0  0
  160.1630  212.2620  152.0780 S   0  0  0  0  0  3  0  0  0  0  0  0
  159.4630  210.6910  154.2110 C   0  0  0  0  0  2  0  0  0  0  0  0
  161.6650  209.3120  156.4630 C   0  0  0  0  0  2  0  0  0  0  0  0
  160.2850  208.7210  156.5290 C   0  0  0  0  0  2  0  0  0  0  0  0
  159.3580  209.7710  156.4380 O   0  0  0  0  0  0  0  0  0  0  0  0
  159.9660  210.7780  155.6560 C   0  0  1  0  0  0  0  0  0  0  0  0
  161.4630  210.5440  155.6380 C   0  0  0  0  0  2  0  0  0  0  0  0
  159.7230  212.1950  156.2080 C   0  0  0  0  0  2  0  0  0  0  0  0
  158.0240  212.8660  156.0460 P   0  0  2  0  0  0  0  0  0  0  0  0
  157.8280  213.5140  154.6930 O   0  0  0  0  0  0  0  0  0  0  0  0
  157.8180  214.0450  157.2430 O   0  0  0  0  0  1  0  0  0  0  0  0
  156.7660  211.5690  156.3050 C   0  0  1  0  0  3  0  0  0  0  0  0
  155.6630  212.0680  157.2150 C   0  0  0  0  0  1  0  0  0  0  0  0
  155.1520  210.0230  155.1930 C   0  0  0  0  0  1  0  0  0  0  0  0
  156.1630  211.1330  154.9790 C   0  0  0  0  0  2  0  0  0  0  0  0
  2  8  1  0  0  0  0
  4  2  2  0  0  0  0
  4 10  1  0  0  0  0
  5  3  1  1  0  0  0
  5  4  1  0  0  0  0
  6  1  2  0  0  0  0
  6 22  1  0  0  0  0
  7 13  1  0  0  0  0
  7  2  1  0  0  0  0
  8  1  1  0  0  0  0
  8 11  1  1  0  0  0
  9  3  1  1  0  0  0
  9  5  1  0  0  0  0
  9  7  1  0  0  0  0
 10  6  1  0  0  0  0
 14 17  1  0  0  0  0
 15 12  1  1  0  0  0
 16 18  2  0  0  0  0
 17 12  2  0  0  0  0
 17 13  1  0  0  0  0
 18 21  1  0  0  0  0
 19 16  1  6  0  0  0
 19 14  1  0  0  0  0
 19 15  1  0  0  0  0
 21 15  1  0  0  0  0
 21 20  1  1  0  0  0
 22 26  1  1  0  0  0
 24 25  1  0  0  0  0
 25 23  1  0  0  0  0
 25 22  1  0  0  0  0
 27 28  1  0  0  0  0
 29 28  1  0  0  0  0
 30 26  1  6  0  0  0
 30 32  1  0  0  0  0
 30 29  1  0  0  0  0
 31 30  1  0  0  0  0
 31 27  1  0  0  0  0
 33 34  2  6  0  0  0
 33 32  1  0  0  0  0
 33 36  1  0  0  0  0
 33 35  1  0  0  0  0
 36 37  1  1  0  0  0
 39 38  1  0  0  0  0
 39 36  1  0  0  0  0
M  END
>  <MODEL>
3

>  <REMARK>
 VINA RESULT:      -5.8      2.390      3.448
  Name = 
  9 active torsions:
  status: ('A' for Active; 'I' for Inactive)
    1  A    between atoms: P_1  and  C_10
    2  A    between atoms: P_1  and  C_22
    3  A    between atoms: N_6  and  N_24
    4  A    between atoms: C_7  and  C_26
    5  A    between atoms: C_7  and  C_35
    6  A    between atoms: C_10  and  C_39
    7  A    between atoms: C_18  and  C_35
    8  A    between atoms: C_22  and  C_26
    9  A    between atoms: S_33  and  C_35
                            x       y       z     vdW  Elec       q    Type
                         _______ _______ _______ _____ _____    ______ ____

>  <TORSDO>
F 9

$$$$
=
 OpenBabel11072415113D

 39 44  0  0  1  0  0  0  0  0999 V2000
  160.7740  207.5650  151.6540 N   0  0  0  0  0  0  0  0  0  0  0  0
  160.4740  208.2390  154.0050 C   0  0  0  0  0  0  0  0  0  0  0  0
  162.1080  208.1570  156.3840 C   0  0  0  0  0  2  0  0  0  0  0  0
  161.0720  207.1340  154.3770 C   0  0  0  0  0  0  0  0  0  0  0  0
  161.2280  207.0320  155.8600 C   0  0  2  0  0  3  0  0  0  0  0  0
  161.3450  206.4520  152.0340 C   0  0  0  0  0  0  0  0  0  0  0  0
  160.1660  209.0330  155.1420 N   0  0  0  0  0  0  0  0  0  0  0  0
  160.4630  208.6800  152.5630 C   0  0  1  0  0  3  0  0  0  0  0  0
  160.5990  208.3430  156.3560 C   0  0  2  0  0  3  0  0  0  0  0  0
  161.5740  206.1990  153.4250 N   0  0  0  0  0  2  0  0  0  0  0  0
  161.6770  209.9620  152.3240 Cl  0  0  0  0  0  0  0  0  0  0  0  0
  158.2710  212.1720  154.9710 N   0  0  0  0  0  0  0  0  0  0  0  0
  159.8640  210.4050  155.1220 N   0  0  0  0  0  2  0  0  0  0  0  0
  157.3530  210.1270  155.6250 C   0  0  0  0  0  2  0  0  0  0  0  0
  156.8690  212.2420  155.1600 C   0  0  1  0  0  3  0  0  0  0  0  0
  155.2350  211.2210  156.4110 C   0  0  0  0  0  3  0  0  0  0  0  0
  158.5280  210.9110  155.1660 C   0  0  0  0  0  0  0  0  0  0  0  0
  155.1320  212.5070  156.5870 N   0  0  0  0  0  0  0  0  0  0  0  0
  156.3490  210.9780  155.5060 C   0  0  2  0  0  3  0  0  0  0  0  0
  156.6590  214.4480  156.1370 N   0  0  0  0  0  1  0  0  0  0  0  0
  156.1780  213.1420  155.8360 C   0  0  1  0  0  3  0  0  0  0  0  0
  161.7040  205.3970  151.0320 C   0  0  1  0  0  3  0  0  0  0  0  0
  161.1680  202.8530  150.5650 O   0  0  0  0  0  1  0  0  0  0  0  0
  160.1140  203.8220  152.6570 O   0  0  0  0  0  1  0  0  0  0  0  0
  161.5480  203.7410  151.7430 S   0  0  0  0  0  3  0  0  0  0  0  0
  160.8630  205.4990  149.7570 C   0  0  0  0  0  2  0  0  0  0  0  0
  162.4630  208.1730  148.3010 C   0  0  0  0  0  2  0  0  0  0  0  0
  161.0440  207.9950  147.8400 C   0  0  0  0  0  2  0  0  0  0  0  0
  160.8270  206.6250  147.6230 O   0  0  0  0  0  0  0  0  0  0  0  0
  161.6660  205.9360  148.5270 C   0  0  1  0  0  0  0  0  0  0  0  0
  162.7550  206.8810  148.9980 C   0  0  0  0  0  2  0  0  0  0  0  0
  162.3550  204.7130  147.8930 C   0  0  0  0  0  2  0  0  0  0  0  0
  161.8890  204.3030  146.1680 P   0  0  2  0  0  0  0  0  0  0  0  0
  163.0570  204.5180  145.2300 O   0  0  0  0  0  0  0  0  0  0  0  0
  160.6330  205.3400  145.7110 O   0  0  0  0  0  1  0  0  0  0  0  0
  161.2860  202.5850  146.0290 C   0  0  1  0  0  3  0  0  0  0  0  0
  160.7730  202.0900  147.3660 C   0  0  0  0  0  1  0  0  0  0  0  0
  159.8170  201.0370  144.7350 C   0  0  0  0  0  1  0  0  0  0  0  0
  160.1750  202.4880  144.9970 C   0  0  0  0  0  2  0  0  0  0  0  0
  1  6  2  0  0  0  0
  1  8  1  0  0  0  0
  2  4  2  0  0  0  0
  2  7  1  0  0  0  0
  4  5  1  0  0  0  0
  5  9  1  0  0  0  0
  5  3  1  6  0  0  0
  6 10  1  0  0  0  0
  7  9  1  0  0  0  0
  8 11  1  1  0  0  0
  8  2  1  0  0  0  0
  9  3  1  6  0  0  0
 10  4  1  0  0  0  0
 12 17  2  0  0  0  0
 13  7  1  0  0  0  0
 13 17  1  0  0  0  0
 15 12  1  1  0  0  0
 15 19  1  0  0  0  0
 15 21  1  0  0  0  0
 16 18  2  0  0  0  0
 17 14  1  0  0  0  0
 19 14  1  1  0  0  0
 19 16  1  0  0  0  0
 21 20  1  1  0  0  0
 21 18  1  0  0  0  0
 22 26  1  6  0  0  0
 22 25  1  0  0  0  0
 22  6  1  0  0  0  0
 23 25  1  0  0  0  0
 25 24  1  0  0  0  0
 27 31  1  0  0  0  0
 28 27  1  0  0  0  0
 29 28  1  0  0  0  0
 29 30  1  0  0  0  0
 30 32  1  6  0  0  0
 30 31  1  0  0  0  0
 30 26  1  0  0  0  0
 33 34  2  6  0  0  0
 33 32  1  0  0  0  0
 35 33  1  0  0  0  0
 36 33  1  0  0  0  0
 36 37  1  1  0  0  0
 38 39  1  0  0  0  0
 39 36  1  0  0  0  0
M  END
>  <MODEL>
4

>  <REMARK>
 VINA RESULT:      -5.7      4.719      9.770
  Name = 
  9 active torsions:
  status: ('A' for Active; 'I' for Inactive)
    1  A    between atoms: P_1  and  C_10
    2  A    between atoms: P_1  and  C_22
    3  A    between atoms: N_6  and  N_24
    4  A    between atoms: C_7  and  C_26
    5  A    between atoms: C_7  and  C_35
    6  A    between atoms: C_10  and  C_39
    7  A    between atoms: C_18  and  C_35
    8  A    between atoms: C_22  and  C_26
    9  A    between atoms: S_33  and  C_35
                            x       y       z     vdW  Elec       q    Type
                         _______ _______ _______ _____ _____    ______ ____

>  <TORSDO>
F 9

$$$$
=
 OpenBabel11072415113D

 39 44  0  0  1  0  0  0  0  0999 V2000
  157.9010  213.8280  150.3620 N   0  0  0  0  0  0  0  0  0  0  0  0
  159.5020  213.7060  148.4930 C   0  0  0  0  0  0  0  0  0  0  0  0
  161.4600  211.7850  147.5940 C   0  0  0  0  0  2  0  0  0  0  0  0
  160.3950  213.2160  149.3160 C   0  0  0  0  0  0  0  0  0  0  0  0
  161.6810  212.8720  148.6360 C   0  0  2  0  0  3  0  0  0  0  0  0
  158.8070  213.3640  151.1830 C   0  0  0  0  0  0  0  0  0  0  0  0
  160.0250  213.7460  147.1730 N   0  0  0  0  0  0  0  0  0  0  0  0
  158.0570  213.8580  148.8990 C   0  0  1  0  0  3  0  0  0  0  0  0
  161.3980  213.2450  147.1730 C   0  0  2  0  0  3  0  0  0  0  0  0
  160.0960  212.9800  150.6900 N   0  0  0  0  0  2  0  0  0  0  0  0
  157.1000  212.5280  148.1980 Cl  0  0  0  0  0  0  0  0  0  0  0  0
  159.1400  214.1280  143.6310 N   0  0  0  0  0  0  0  0  0  0  0  0
  159.2650  213.8610  145.9970 N   0  0  0  0  0  2  0  0  0  0  0  0
  161.2000  213.3260  144.3820 C   0  0  0  0  0  2  0  0  0  0  0  0
  160.0650  213.9370  142.5770 C   0  0  1  0  0  3  0  0  0  0  0  0
  161.8700  212.6090  142.0730 C   0  0  0  0  0  3  0  0  0  0  0  0
  159.8420  213.8460  144.6900 C   0  0  0  0  0  0  0  0  0  0  0  0
  161.0210  212.5230  141.0890 N   0  0  0  0  0  0  0  0  0  0  0  0
  161.3090  213.5000  143.0770 C   0  0  2  0  0  3  0  0  0  0  0  0
  158.5960  213.1170  140.8350 N   0  0  0  0  0  1  0  0  0  0  0  0
  159.8760  213.3230  141.4230 C   0  0  1  0  0  3  0  0  0  0  0  0
  158.5380  213.2910  152.6560 C   0  0  1  0  0  3  0  0  0  0  0  0
  157.1830  214.3510  154.6600 O   0  0  0  0  0  1  0  0  0  0  0  0
  155.8010  213.6840  152.6420 O   0  0  0  0  0  1  0  0  0  0  0  0
  157.2370  214.4510  153.1410 S   0  0  0  0  0  3  0  0  0  0  0  0
  158.1730  211.8760  153.1080 C   0  0  0  0  0  2  0  0  0  0  0  0
  159.6440  211.0350  156.1010 C   0  0  0  0  0  2  0  0  0  0  0  0
  160.2310  212.2620  155.4630 C   0  0  0  0  0  2  0  0  0  0  0  0
  160.3730  212.0130  154.0890 O   0  0  0  0  0  0  0  0  0  0  0  0
  159.3440  211.1120  153.7350 C   0  0  1  0  0  0  0  0  0  0  0  0
  158.8340  210.4360  154.9930 C   0  0  0  0  0  2  0  0  0  0  0  0
  159.8190  210.0060  152.7750 C   0  0  0  0  0  2  0  0  0  0  0  0
  161.6150  209.6330  152.7650 P   0  0  2  0  0  0  0  0  0  0  0  0
  162.2910  210.2180  153.9860 O   0  0  0  0  0  1  0  0  0  0  0  0
  162.2840  210.3470  151.3850 O   0  0  0  0  0  0  0  0  0  0  0  0
  161.9240  207.8360  152.6810 C   0  0  1  0  0  3  0  0  0  0  0  0
  160.8870  207.0780  153.4850 C   0  0  0  0  0  1  0  0  0  0  0  0
  160.9470  206.1750  151.0930 C   0  0  0  0  0  1  0  0  0  0  0  0
  161.8930  207.3520  151.2410 C   0  0  0  0  0  2  0  0  0  0  0  0
  1  6  2  0  0  0  0
  2  8  1  0  0  0  0
  2  4  2  0  0  0  0
  4 10  1  0  0  0  0
  5  3  1  6  0  0  0
  5  4  1  0  0  0  0
  6 22  1  0  0  0  0
  7  9  1  0  0  0  0
  7  2  1  0  0  0  0
  8 11  1  6  0  0  0
  8  1  1  0  0  0  0
  9  3  1  6  0  0  0
  9  5  1  0  0  0  0
 10  6  1  0  0  0  0
 12 17  2  0  0  0  0
 13  7  1  0  0  0  0
 14 17  1  0  0  0  0
 15 19  1  0  0  0  0
 15 12  1  1  0  0  0
 17 13  1  0  0  0  0
 18 21  1  0  0  0  0
 18 16  2  0  0  0  0
 19 16  1  6  0  0  0
 19 14  1  0  0  0  0
 21 20  1  1  0  0  0
 21 15  1  0  0  0  0
 22 26  1  6  0  0  0
 22 25  1  0  0  0  0
 24 25  1  0  0  0  0
 25 23  1  0  0  0  0
 26 30  1  0  0  0  0
 28 27  1  0  0  0  0
 29 28  1  0  0  0  0
 30 32  1  6  0  0  0
 30 29  1  0  0  0  0
 30 31  1  0  0  0  0
 31 27  1  0  0  0  0
 33 35  2  6  0  0  0
 33 32  1  0  0  0  0
 33 34  1  0  0  0  0
 36 33  1  0  0  0  0
 36 37  1  1  0  0  0
 38 39  1  0  0  0  0
 39 36  1  0  0  0  0
M  END
>  <MODEL>
5

>  <REMARK>
 VINA RESULT:      -5.7      5.555      8.008
  Name = 
  9 active torsions:
  status: ('A' for Active; 'I' for Inactive)
    1  A    between atoms: P_1  and  C_10
    2  A    between atoms: P_1  and  C_22
    3  A    between atoms: N_6  and  N_24
    4  A    between atoms: C_7  and  C_26
    5  A    between atoms: C_7  and  C_35
    6  A    between atoms: C_10  and  C_39
    7  A    between atoms: C_18  and  C_35
    8  A    between atoms: C_22  and  C_26
    9  A    between atoms: S_33  and  C_35
                            x       y       z     vdW  Elec       q    Type
                         _______ _______ _______ _____ _____    ______ ____

>  <TORSDO>
F 9

$$$$
=
 OpenBabel11072415113D

 39 44  0  0  1  0  0  0  0  0999 V2000
  161.7630  208.8230  152.5960 N   0  0  0  0  0  0  0  0  0  0  0  0
  161.9160  206.6930  151.3670 C   0  0  0  0  0  0  0  0  0  0  0  0
  160.1970  204.3990  151.0200 C   0  0  0  0  0  2  0  0  0  0  0  0
  161.3860  206.0830  152.3980 C   0  0  0  0  0  0  0  0  0  0  0  0
  161.1790  204.6210  152.1620 C   0  0  2  0  0  3  0  0  0  0  0  0
  161.2600  208.2030  153.6310 C   0  0  0  0  0  0  0  0  0  0  0  0
  162.1200  205.7690  150.3060 N   0  0  0  0  0  0  0  0  0  0  0  0
  161.9540  208.1980  151.2770 C   0  0  1  0  0  3  0  0  0  0  0  0
  161.6890  204.4370  150.7240 C   0  0  2  0  0  3  0  0  0  0  0  0
  160.9930  206.7960  153.5680 N   0  0  0  0  0  2  0  0  0  0  0  0
  160.6600  208.7610  150.1890 Cl  0  0  0  0  0  0  0  0  0  0  0  0
  162.4610  205.4750  146.6630 N   0  0  0  0  0  0  0  0  0  0  0  0
  162.3210  206.1080  148.9570 N   0  0  0  0  0  2  0  0  0  0  0  0
  161.2890  203.9540  147.9920 C   0  0  0  0  0  2  0  0  0  0  0  0
  162.0130  204.3480  145.9320 C   0  0  1  0  0  3  0  0  0  0  0  0
  160.3040  202.8150  145.9840 C   0  0  0  0  0  3  0  0  0  0  0  0
  162.1020  205.1920  147.8820 C   0  0  0  0  0  0  0  0  0  0  0  0
  160.3400  203.3360  144.7920 N   0  0  0  0  0  0  0  0  0  0  0  0
  161.3550  203.4330  146.7790 C   0  0  2  0  0  3  0  0  0  0  0  0
  161.4180  205.3880  143.8280 N   0  0  0  0  0  1  0  0  0  0  0  0
  161.3830  204.3230  144.7720 C   0  0  1  0  0  3  0  0  0  0  0  0
  161.0210  208.9330  154.9180 C   0  0  1  0  0  3  0  0  0  0  0  0
  160.7740  207.4990  157.1220 O   0  0  0  0  0  1  0  0  0  0  0  0
  162.4040  209.4370  157.2590 O   0  0  0  0  0  1  0  0  0  0  0  0
  161.8830  208.1350  156.2930 S   0  0  0  0  0  3  0  0  0  0  0  0
  161.4260  210.4070  154.8300 C   0  0  0  0  0  2  0  0  0  0  0  0
  159.4280  212.1500  157.0200 C   0  0  0  0  0  2  0  0  0  0  0  0
  158.8610  210.8190  156.6140 C   0  0  0  0  0  2  0  0  0  0  0  0
  159.0610  210.6640  155.2330 O   0  0  0  0  0  0  0  0  0  0  0  0
  160.2410  211.3740  154.9160 C   0  0  1  0  0  0  0  0  0  0  0  0
  160.5300  212.3620  156.0290 C   0  0  0  0  0  2  0  0  0  0  0  0
  160.1240  212.1740  153.6050 C   0  0  0  0  0  2  0  0  0  0  0  0
  158.6450  213.2400  153.4140 P   0  0  2  0  0  0  0  0  0  0  0  0
  158.6150  214.3140  154.4800 O   0  0  0  0  0  1  0  0  0  0  0  0
  157.2760  212.2630  153.5960 O   0  0  0  0  0  0  0  0  0  0  0  0
  158.5810  214.0040  151.7570 C   0  0  1  0  0  3  0  0  0  0  0  0
  159.8580  213.7260  150.9910 C   0  0  0  0  0  1  0  0  0  0  0  0
  156.2210  214.4290  151.0610 C   0  0  0  0  0  1  0  0  0  0  0  0
  157.3960  213.4730  150.9660 C   0  0  0  0  0  2  0  0  0  0  0  0
  1  6  2  0  0  0  0
  2  4  2  0  0  0  0
  4 10  1  0  0  0  0
  5  3  1  6  0  0  0
  5  4  1  0  0  0  0
  6 22  1  0  0  0  0
  7  9  1  0  0  0  0
  7  2  1  0  0  0  0
  8 11  1  6  0  0  0
  8  2  1  0  0  0  0
  8  1  1  0  0  0  0
  9  3  1  6  0  0  0
  9  5  1  0  0  0  0
 10  6  1  0  0  0  0
 12 17  2  0  0  0  0
 13  7  1  0  0  0  0
 15 12  1  1  0  0  0
 15 19  1  0  0  0  0
 17 14  1  0  0  0  0
 17 13  1  0  0  0  0
 18 16  2  0  0  0  0
 19 16  1  6  0  0  0
 19 14  1  0  0  0  0
 21 20  1  1  0  0  0
 21 18  1  0  0  0  0
 21 15  1  0  0  0  0
 22 26  1  6  0  0  0
 22 25  1  0  0  0  0
 25 23  1  0  0  0  0
 25 24  1  0  0  0  0
 26 30  1  0  0  0  0
 28 27  1  0  0  0  0
 29 28  1  0  0  0  0
 30 32  1  6  0  0  0
 30 29  1  0  0  0  0
 30 31  1  0  0  0  0
 31 27  1  0  0  0  0
 33 35  2  1  0  0  0
 33 32  1  0  0  0  0
 33 34  1  0  0  0  0
 36 37  1  6  0  0  0
 36 33  1  0  0  0  0
 39 38  1  0  0  0  0
 39 36  1  0  0  0  0
M  END
>  <MODEL>
6

>  <REMARK>
 VINA RESULT:      -5.6      1.856      2.748
  Name = 
  9 active torsions:
  status: ('A' for Active; 'I' for Inactive)
    1  A    between atoms: P_1  and  C_10
    2  A    between atoms: P_1  and  C_22
    3  A    between atoms: N_6  and  N_24
    4  A    between atoms: C_7  and  C_26
    5  A    between atoms: C_7  and  C_35
    6  A    between atoms: C_10  and  C_39
    7  A    between atoms: C_18  and  C_35
    8  A    between atoms: C_22  and  C_26
    9  A    between atoms: S_33  and  C_35
                            x       y       z     vdW  Elec       q    Type
                         _______ _______ _______ _____ _____    ______ ____

>  <TORSDO>
F 9

$$$$
=
 OpenBabel11072415113D

 39 44  0  0  1  0  0  0  0  0999 V2000
  160.8650  208.4630  151.1400 N   0  0  0  0  0  0  0  0  0  0  0  0
  160.4340  208.5080  153.5660 C   0  0  0  0  0  0  0  0  0  0  0  0
  161.7890  207.4950  155.9060 C   0  0  0  0  0  2  0  0  0  0  0  0
  160.8190  207.2570  153.6360 C   0  0  0  0  0  0  0  0  0  0  0  0
  160.8070  206.7260  155.0340 C   0  0  2  0  0  3  0  0  0  0  0  0
  161.2200  207.2070  151.2140 C   0  0  0  0  0  0  0  0  0  0  0  0
  160.1350  208.9990  154.8650 N   0  0  0  0  0  0  0  0  0  0  0  0
  160.6350  209.3220  152.3130 C   0  0  1  0  0  3  0  0  0  0  0  0
  160.3350  207.9400  155.8500 C   0  0  2  0  0  3  0  0  0  0  0  0
  161.2680  206.5460  152.4850 N   0  0  0  0  0  2  0  0  0  0  0  0
  162.0450  210.3910  152.5190 Cl  0  0  0  0  0  0  0  0  0  0  0  0
  158.7600  212.3420  155.5020 N   0  0  0  0  0  0  0  0  0  0  0  0
  160.0470  210.3550  155.2230 N   0  0  0  0  0  2  0  0  0  0  0  0
  157.4850  210.3860  155.4930 C   0  0  0  0  0  2  0  0  0  0  0  0
  157.3730  212.5980  155.6300 C   0  0  1  0  0  3  0  0  0  0  0  0
  155.4890  211.5710  156.4480 C   0  0  0  0  0  3  0  0  0  0  0  0
  158.8050  211.0520  155.3410 C   0  0  0  0  0  0  0  0  0  0  0  0
  155.5630  212.7560  156.9800 N   0  0  0  0  0  0  0  0  0  0  0  0
  156.6370  211.3970  155.5710 C   0  0  2  0  0  3  0  0  0  0  0  0
  157.4010  214.4530  157.1860 N   0  0  0  0  0  1  0  0  0  0  0  0
  156.7620  213.3830  156.4980 C   0  0  1  0  0  3  0  0  0  0  0  0
  161.5160  206.4220  149.9720 C   0  0  1  0  0  3  0  0  0  0  0  0
  161.4220  208.5900  148.4670 O   0  0  0  0  0  1  0  0  0  0  0  0
  162.3040  206.5060  147.3230 O   0  0  0  0  0  1  0  0  0  0  0  0
  162.3770  207.4360  148.7480 S   0  0  0  0  0  3  0  0  0  0  0  0
  162.3250  205.1570  150.2670 C   0  0  0  0  0  2  0  0  0  0  0  0
  159.7750  203.2880  151.6210 C   0  0  0  0  0  2  0  0  0  0  0  0
  161.1410  202.8810  152.0970 C   0  0  0  0  0  2  0  0  0  0  0  0
  162.0040  202.8770  150.9900 O   0  0  0  0  0  0  0  0  0  0  0  0
  161.5210  203.8630  150.1000 C   0  0  1  0  0  0  0  0  0  0  0  0
  160.0770  204.1680  150.4480 C   0  0  0  0  0  2  0  0  0  0  0  0
  161.5580  203.4120  148.6290 C   0  0  0  0  0  2  0  0  0  0  0  0
  160.9490  201.7200  148.2660 P   0  0  2  0  0  0  0  0  0  0  0  0
  159.4840  201.5890  148.6220 O   0  0  0  0  0  0  0  0  0  0  0  0
  161.8340  200.6360  149.2170 O   0  0  0  0  0  1  0  0  0  0  0  0
  161.2070  201.2790  146.5130 C   0  0  1  0  0  3  0  0  0  0  0  0
  161.1620  199.7760  146.3290 C   0  0  0  0  0  1  0  0  0  0  0  0
  159.7120  200.9710  144.5380 C   0  0  0  0  0  1  0  0  0  0  0  0
  160.1460  201.9240  145.6350 C   0  0  0  0  0  2  0  0  0  0  0  0
  1  6  2  0  0  0  0
  1  8  1  0  0  0  0
  2  4  2  0  0  0  0
  2  7  1  0  0  0  0
  4  5  1  0  0  0  0
  5  9  1  0  0  0  0
  5  3  1  1  0  0  0
  6 10  1  0  0  0  0
  7 13  1  0  0  0  0
  7  9  1  0  0  0  0
  8 11  1  1  0  0  0
  8  2  1  0  0  0  0
  9  3  1  1  0  0  0
 10  4  1  0  0  0  0
 13 17  1  0  0  0  0
 15 12  1  1  0  0  0
 15 21  1  0  0  0  0
 16 18  2  0  0  0  0
 17 14  1  0  0  0  0
 17 12  2  0  0  0  0
 19 14  1  1  0  0  0
 19 15  1  0  0  0  0
 19 16  1  0  0  0  0
 21 18  1  0  0  0  0
 21 20  1  1  0  0  0
 22 26  1  1  0  0  0
 22  6  1  0  0  0  0
 23 25  1  0  0  0  0
 24 25  1  0  0  0  0
 25 22  1  0  0  0  0
 27 28  1  0  0  0  0
 29 28  1  0  0  0  0
 30 32  1  6  0  0  0
 30 26  1  0  0  0  0
 30 31  1  0  0  0  0
 30 29  1  0  0  0  0
 31 27  1  0  0  0  0
 33 34  2  1  0  0  0
 33 32  1  0  0  0  0
 33 35  1  0  0  0  0
 36 37  1  1  0  0  0
 36 33  1  0  0  0  0
 38 39  1  0  0  0  0
 39 36  1  0  0  0  0
M  END
>  <MODEL>
7

>  <REMARK>
 VINA RESULT:      -5.0      4.730     10.159
  Name = 
  9 active torsions:
  status: ('A' for Active; 'I' for Inactive)
    1  A    between atoms: P_1  and  C_10
    2  A    between atoms: P_1  and  C_22
    3  A    between atoms: N_6  and  N_24
    4  A    between atoms: C_7  and  C_26
    5  A    between atoms: C_7  and  C_35
    6  A    between atoms: C_10  and  C_39
    7  A    between atoms: C_18  and  C_35
    8  A    between atoms: C_22  and  C_26
    9  A    between atoms: S_33  and  C_35
                            x       y       z     vdW  Elec       q    Type
                         _______ _______ _______ _____ _____    ______ ____

>  <TORSDO>
F 9

$$$$
=
 OpenBabel11072415113D

 39 44  0  0  1  0  0  0  0  0999 V2000
  161.0270  206.7660  152.8190 N   0  0  0  0  0  0  0  0  0  0  0  0
  161.2600  207.1580  150.3980 C   0  0  0  0  0  0  0  0  0  0  0  0
  162.7360  209.0190  148.7570 C   0  0  0  0  0  2  0  0  0  0  0  0
  161.2060  208.4480  150.6220 C   0  0  0  0  0  0  0  0  0  0  0  0
  161.3670  209.2590  149.3770 C   0  0  2  0  0  3  0  0  0  0  0  0
  160.9460  208.0530  153.0320 C   0  0  0  0  0  0  0  0  0  0  0  0
  161.4790  206.9130  149.0160 N   0  0  0  0  0  0  0  0  0  0  0  0
  161.4020  206.1690  151.5270 C   0  0  1  0  0  3  0  0  0  0  0  0
  161.5520  208.1820  148.2960 C   0  0  2  0  0  3  0  0  0  0  0  0
  161.0860  208.9730  151.9420 N   0  0  0  0  0  2  0  0  0  0  0  0
  163.0930  205.6180  151.6250 Cl  0  0  0  0  0  0  0  0  0  0  0  0
  162.0680  203.3260  148.5030 N   0  0  0  0  0  0  0  0  0  0  0  0
  161.9450  205.7070  148.4650 N   0  0  0  0  0  2  0  0  0  0  0  0
  160.2470  204.1950  149.6780 C   0  0  0  0  0  2  0  0  0  0  0  0
  161.2880  202.3180  149.1190 C   0  0  1  0  0  3  0  0  0  0  0  0
  159.1130  201.9580  149.7620 C   0  0  0  0  0  3  0  0  0  0  0  0
  161.4960  204.4230  148.9060 C   0  0  0  0  0  0  0  0  0  0  0  0
  159.4850  200.9530  149.0220 N   0  0  0  0  0  0  0  0  0  0  0  0
  160.2310  202.8860  149.8570 C   0  0  2  0  0  3  0  0  0  0  0  0
  161.3930  200.5800  147.4340 N   0  0  0  0  0  1  0  0  0  0  0  0
  160.8320  201.1980  148.5880 C   0  0  1  0  0  3  0  0  0  0  0  0
  160.6390  208.5840  154.3990 C   0  0  1  0  0  3  0  0  0  0  0  0
  159.8540  207.0130  156.3720 O   0  0  0  0  0  1  0  0  0  0  0  0
  161.9250  208.3990  156.8410 O   0  0  0  0  0  1  0  0  0  0  0  0
  161.1520  207.4180  155.6840 S   0  0  0  0  0  3  0  0  0  0  0  0
  161.2810  209.9510  154.6470 C   0  0  0  0  0  2  0  0  0  0  0  0
  159.8570  211.8200  157.1580 C   0  0  0  0  0  2  0  0  0  0  0  0
  159.0600  210.6020  156.7860 C   0  0  0  0  0  2  0  0  0  0  0  0
  159.0510  210.5000  155.3860 O   0  0  0  0  0  0  0  0  0  0  0  0
  160.2650  211.0620  154.9330 C   0  0  1  0  0  0  0  0  0  0  0  0
  160.8360  211.9380  156.0320 C   0  0  0  0  0  2  0  0  0  0  0  0
  160.0900  211.9430  153.6820 C   0  0  0  0  0  2  0  0  0  0  0  0
  158.6830  213.1200  153.6900 P   0  0  2  0  0  0  0  0  0  0  0  0
  158.7790  214.0650  154.8680 O   0  0  0  0  0  1  0  0  0  0  0  0
  157.2570  212.2210  153.8350 O   0  0  0  0  0  0  0  0  0  0  0  0
  158.5990  214.0700  152.1330 C   0  0  1  0  0  3  0  0  0  0  0  0
  159.6720  213.6100  151.1680 C   0  0  0  0  0  1  0  0  0  0  0  0
  157.3860  213.4990  150.0280 C   0  0  0  0  0  1  0  0  0  0  0  0
  157.2350  213.9110  151.4800 C   0  0  0  0  0  2  0  0  0  0  0  0
  1  6  2  0  0  0  0
  2  4  2  0  0  0  0
  2  8  1  0  0  0  0
  4 10  1  0  0  0  0
  5  3  1  1  0  0  0
  5  4  1  0  0  0  0
  6 22  1  0  0  0  0
  7  2  1  0  0  0  0
  8 11  1  1  0  0  0
  8  1  1  0  0  0  0
  9  3  1  1  0  0  0
  9  7  1  0  0  0  0
  9  5  1  0  0  0  0
 10  6  1  0  0  0  0
 12 17  2  0  0  0  0
 13 17  1  0  0  0  0
 13  7  1  0  0  0  0
 15 12  1  6  0  0  0
 15 19  1  0  0  0  0
 16 19  1  0  0  0  0
 17 14  1  0  0  0  0
 18 16  2  0  0  0  0
 19 14  1  6  0  0  0
 21 20  1  6  0  0  0
 21 18  1  0  0  0  0
 21 15  1  0  0  0  0
 22 26  1  1  0  0  0
 22 25  1  0  0  0  0
 25 23  1  0  0  0  0
 25 24  1  0  0  0  0
 26 30  1  0  0  0  0
 28 27  1  0  0  0  0
 29 28  1  0  0  0  0
 30 32  1  6  0  0  0
 30 29  1  0  0  0  0
 30 31  1  0  0  0  0
 31 27  1  0  0  0  0
 32 33  1  0  0  0  0
 33 35  2  1  0  0  0
 33 34  1  0  0  0  0
 36 37  1  6  0  0  0
 36 33  1  0  0  0  0
 38 39  1  0  0  0  0
 39 36  1  0  0  0  0
M  END
>  <MODEL>
8

>  <REMARK>
 VINA RESULT:      -4.6      1.639      2.179
  Name = 
  9 active torsions:
  status: ('A' for Active; 'I' for Inactive)
    1  A    between atoms: P_1  and  C_10
    2  A    between atoms: P_1  and  C_22
    3  A    between atoms: N_6  and  N_24
    4  A    between atoms: C_7  and  C_26
    5  A    between atoms: C_7  and  C_35
    6  A    between atoms: C_10  and  C_39
    7  A    between atoms: C_18  and  C_35
    8  A    between atoms: C_22  and  C_26
    9  A    between atoms: S_33  and  C_35
                            x       y       z     vdW  Elec       q    Type
                         _______ _______ _______ _____ _____    ______ ____

>  <TORSDO>
F 9

$$$$
=
 OpenBabel11072415113D

 39 44  0  0  1  0  0  0  0  0999 V2000
  161.6860  208.8890  152.4810 N   0  0  0  0  0  0  0  0  0  0  0  0
  161.9240  206.7570  151.2690 C   0  0  0  0  0  0  0  0  0  0  0  0
  160.2690  204.4230  150.8850 C   0  0  0  0  0  2  0  0  0  0  0  0
  161.3780  206.1400  152.2870 C   0  0  0  0  0  0  0  0  0  0  0  0
  161.2110  204.6730  152.0530 C   0  0  2  0  0  3  0  0  0  0  0  0
  161.1680  208.2620  153.5050 C   0  0  0  0  0  0  0  0  0  0  0  0
  162.1790  205.8340  150.2200 N   0  0  0  0  0  0  0  0  0  0  0  0
  161.9300  208.2620  151.1720 C   0  0  1  0  0  3  0  0  0  0  0  0
  161.7670  204.4940  150.6320 C   0  0  2  0  0  3  0  0  0  0  0  0
  160.9350  206.8500  153.4420 N   0  0  0  0  0  2  0  0  0  0  0  0
  160.6560  208.7900  150.0440 Cl  0  0  0  0  0  0  0  0  0  0  0  0
  162.6130  205.5330  146.5870 N   0  0  0  0  0  0  0  0  0  0  0  0
  162.4120  206.1700  148.8760 N   0  0  0  0  0  2  0  0  0  0  0  0
  161.4170  204.0080  147.8900 C   0  0  0  0  0  2  0  0  0  0  0  0
  162.1900  204.4020  145.8480 C   0  0  1  0  0  3  0  0  0  0  0  0
  160.4890  202.8590  145.8610 C   0  0  0  0  0  3  0  0  0  0  0  0
  162.2260  205.2510  147.7970 C   0  0  0  0  0  0  0  0  0  0  0  0
  160.5520  203.3780  144.6690 N   0  0  0  0  0  0  0  0  0  0  0  0
  161.5160  203.4850  146.6800 C   0  0  2  0  0  3  0  0  0  0  0  0
  161.6410  205.4330  143.7270 N   0  0  0  0  0  1  0  0  0  0  0  0
  161.5890  204.3700  144.6720 C   0  0  1  0  0  3  0  0  0  0  0  0
  160.8740  208.9930  154.7800 C   0  0  1  0  0  3  0  0  0  0  0  0
  161.0430  208.0890  157.2560 O   0  0  0  0  0  1  0  0  0  0  0  0
  162.7080  209.9000  156.6410 O   0  0  0  0  0  1  0  0  0  0  0  0
  161.9770  208.4570  156.1090 S   0  0  0  0  0  3  0  0  0  0  0  0
  160.9600  210.5120  154.6090 C   0  0  0  0  0  2  0  0  0  0  0  0
  159.6150  212.2970  157.2230 C   0  0  0  0  0  2  0  0  0  0  0  0
  159.2810  210.8330  157.2570 C   0  0  0  0  0  2  0  0  0  0  0  0
  158.9570  210.4300  155.9510 O   0  0  0  0  0  0  0  0  0  0  0  0
  159.7040  211.2530  155.0790 C   0  0  1  0  0  0  0  0  0  0  0  0
  160.1530  212.4860  155.8390 C   0  0  0  0  0  2  0  0  0  0  0  0
  158.8920  211.7290  153.8600 C   0  0  0  0  0  2  0  0  0  0  0  0
  158.2890  213.4600  153.8920 P   0  0  2  0  0  0  0  0  0  0  0  0
  158.3150  214.0640  152.5050 O   0  0  0  0  0  0  0  0  0  0  0  0
  159.3280  214.3520  154.8870 O   0  0  0  0  0  1  0  0  0  0  0  0
  156.6050  213.5690  154.5880 C   0  0  1  0  0  3  0  0  0  0  0  0
  155.5730  213.6330  153.4800 C   0  0  0  0  0  1  0  0  0  0  0  0
  155.7990  212.8240  156.8300 C   0  0  0  0  0  1  0  0  0  0  0  0
  156.3130  212.3710  155.4770 C   0  0  0  0  0  2  0  0  0  0  0  0
  1  6  2  0  0  0  0
  2  4  2  0  0  0  0
  4 10  1  0  0  0  0
  5  3  1  6  0  0  0
  5  4  1  0  0  0  0
  6 22  1  0  0  0  0
  7  9  1  0  0  0  0
  7  2  1  0  0  0  0
  8 11  1  6  0  0  0
  8  2  1  0  0  0  0
  8  1  1  0  0  0  0
  9  3  1  6  0  0  0
  9  5  1  0  0  0  0
 10  6  1  0  0  0  0
 12 17  2  0  0  0  0
 13  7  1  0  0  0  0
 15 12  1  1  0  0  0
 15 19  1  0  0  0  0
 17 14  1  0  0  0  0
 17 13  1  0  0  0  0
 18 21  1  0  0  0  0
 18 16  2  0  0  0  0
 19 16  1  6  0  0  0
 19 14  1  0  0  0  0
 21 20  1  1  0  0  0
 21 15  1  0  0  0  0
 22 26  1  6  0  0  0
 22 25  1  0  0  0  0
 25 24  1  0  0  0  0
 25 23  1  0  0  0  0
 26 30  1  0  0  0  0
 27 28  1  0  0  0  0
 29 28  1  0  0  0  0
 30 32  1  6  0  0  0
 30 31  1  0  0  0  0
 30 29  1  0  0  0  0
 31 27  1  0  0  0  0
 32 33  1  0  0  0  0
 33 34  2  6  0  0  0
 33 36  1  0  0  0  0
 33 35  1  0  0  0  0
 36 37  1  6  0  0  0
 36 39  1  0  0  0  0
 39 38  1  0  0  0  0
M  END
>  <MODEL>
9

>  <REMARK>
 VINA RESULT:      -4.5      2.245      3.331
  Name = 
  9 active torsions:
  status: ('A' for Active; 'I' for Inactive)
    1  A    between atoms: P_1  and  C_10
    2  A    between atoms: P_1  and  C_22
    3  A    between atoms: N_6  and  N_24
    4  A    between atoms: C_7  and  C_26
    5  A    between atoms: C_7  and  C_35
    6  A    between atoms: C_10  and  C_39
    7  A    between atoms: C_18  and  C_35
    8  A    between atoms: C_22  and  C_26
    9  A    between atoms: S_33  and  C_35
                            x       y       z     vdW  Elec       q    Type
                         _______ _______ _______ _____ _____    ______ ____

>  <TORSDO>
F 9

$$$$
