=
 OpenBabel11072413423D

 44 49  0  0  1  0  0  0  0  0999 V2000
  161.9080  203.9740  145.4230 C   0  0  0  0  0  2  0  0  0  0  0  0
  161.5570  202.8470  151.6560 C   0  0  0  0  0  0  0  0  0  0  0  0
  157.6750  209.1160  155.9090 C   0  0  0  0  0  2  0  0  0  0  0  0
  162.5120  205.8360  151.6890 C   0  0  0  0  0  2  0  0  0  0  0  0
  160.9340  203.0580  149.4680 C   0  0  1  0  0  3  0  0  0  0  0  0
  161.5740  207.9480  149.6820 N   0  0  0  0  0  2  0  0  0  0  0  0
  160.5610  203.5420  147.2980 C   0  0  0  0  0  2  0  0  0  0  0  0
  160.8680  211.4200  152.2620 C   0  0  0  0  0  0  0  0  0  0  0  0
  163.2590  208.1970  148.0830 O   0  0  0  0  0  0  0  0  0  0  0  0
  162.4330  208.2440  150.8210 C   0  0  2  0  0  3  0  0  0  0  0  0
  160.4230  201.9510  151.3790 C   0  0  0  0  0  2  0  0  0  0  0  0
  162.1040  207.7810  148.3680 C   0  0  0  0  0  0  0  0  0  0  0  0
  159.9190  202.3150  150.1150 O   0  0  0  0  0  0  0  0  0  0  0  0
  159.9180  208.2730  156.5060 N   0  0  0  0  0  0  0  0  0  0  0  0
  157.8590  210.5600  155.9660 N   0  0  0  0  0  0  0  0  0  0  0  0
  160.5000  207.6650  153.8730 C   0  0  0  0  0  0  0  0  0  0  0  0
  161.2320  212.4860  151.7880 O   0  0  0  0  0  0  0  0  0  0  0  0
  160.3660  204.0080  148.6070 O   0  0  0  0  0  0  0  0  0  0  0  0
  162.1880  202.8470  152.7000 O   0  0  0  0  0  0  0  0  0  0  0  0
  158.0160  211.2170  153.6050 C   0  0  0  0  0  2  0  0  0  0  0  0
  160.3560  211.3390  153.6690 C   0  0  2  0  0  3  0  0  0  0  0  0
  157.1370  211.1520  154.8480 C   0  0  0  0  0  2  0  0  0  0  0  0
  158.9660  208.4640  155.5520 C   0  0  0  0  0  0  0  0  0  0  0  0
  157.1960  211.0140  157.1740 C   0  0  0  0  0  1  0  0  0  0  0  0
  160.1460  206.2960  146.9940 C   0  0  0  0  0  2  0  0  0  0  0  0
  162.1620  207.2940  151.9980 C   0  0  1  0  0  3  0  0  0  0  0  0
  160.9090  210.1800  151.4350 C   0  0  0  0  0  2  0  0  0  0  0  0
  161.3600  207.0440  147.4100 N   0  0  0  0  0  0  0  0  0  0  0  0
  161.2430  206.2340  146.1550 C   0  0  1  0  0  3  0  0  0  0  0  0
  161.4600  205.1500  150.8230 C   0  0  0  0  0  2  0  0  0  0  0  0
  162.2820  205.0910  146.2860 C   0  0  1  0  0  3  0  0  0  0  0  0
  161.8540  203.7050  150.5080 C   0  0  1  0  0  3  0  0  0  0  0  0
  159.2420  208.1590  154.2180 C   0  0  0  0  0  3  0  0  0  0  0  0
  159.1360  212.1230  153.8160 N   0  0  0  0  0  2  0  0  0  0  0  0
  162.3460  209.7210  151.2200 C   0  0  0  0  0  2  0  0  0  0  0  0
  161.4660  207.4800  154.8700 C   0  0  0  0  0  3  0  0  0  0  0  0
  161.9430  203.7630  146.8780 N   0  0  2  0  0  0  0  0  0  0  0  0
  161.1490  207.7830  156.1950 C   0  0  0  0  0  3  0  0  0  0  0  0
  160.7970  207.4240  152.4970 N   0  0  0  0  0  2  0  0  0  0  0  0
  161.4160  211.8180  154.6480 C   0  0  0  0  0  2  0  0  0  0  0  0
  160.8370  211.8950  156.0460 C   0  0  0  0  0  2  0  0  0  0  0  0
  161.7890  211.2500  157.0280 C   0  0  0  0  0  2  0  0  0  0  0  0
  163.0600  210.8550  156.3070 C   0  0  0  0  0  2  0  0  0  0  0  0
  164.1630  211.2190  157.0780 O   0  0  0  0  0  1  0  0  0  0  0  0
  2 19  2  0  0  0  0
  3 15  1  0  0  0  0
  5 18  1  1  0  0  0
  5 13  1  0  0  0  0
  5 32  1  0  0  0  0
  6 10  1  0  0  0  0
  7 18  1  0  0  0  0
  8 21  1  0  0  0  0
  9 12  2  0  0  0  0
 10 35  1  1  0  0  0
 10 26  1  0  0  0  0
 11  2  1  0  0  0  0
 12  6  1  0  0  0  0
 13 11  1  0  0  0  0
 15 24  1  0  0  0  0
 16 33  2  0  0  0  0
 16 36  1  0  0  0  0
 17  8  2  0  0  0  0
 20 34  1  0  0  0  0
 20 22  1  0  0  0  0
 21 34  1  0  0  0  0
 21 40  1  1  0  0  0
 22 15  1  0  0  0  0
 23  3  1  0  0  0  0
 23 14  2  0  0  0  0
 25 28  1  0  0  0  0
 26  4  1  6  0  0  0
 26 39  1  0  0  0  0
 27  8  1  0  0  0  0
 28 12  1  0  0  0  0
 29 31  1  0  0  0  0
 29 25  1  1  0  0  0
 29 28  1  0  0  0  0
 30  4  1  0  0  0  0
 31  1  1  6  0  0  0
 31 37  1  0  0  0  0
 32 30  1  1  0  0  0
 32  2  1  0  0  0  0
 33 23  1  0  0  0  0
 35 27  1  0  0  0  0
 36 38  2  0  0  0  0
 37  1  1  6  0  0  0
 37  7  1  0  0  0  0
 38 14  1  0  0  0  0
 39 16  1  0  0  0  0
 40 41  1  0  0  0  0
 41 42  1  0  0  0  0
 43 42  1  0  0  0  0
 43 44  1  0  0  0  0
M  END
>  <MODEL>
1

>  <REMARK>
 VINA RESULT:       1.4      0.000      0.000
  Name = 
  4 active torsions:
  status: ('A' for Active; 'I' for Inactive)
    1  A    between atoms: C_21  and  C_22
    2  A    between atoms: C_21  and  C_32
    3  A    between atoms: C_24  and  C_37
    4  A    between atoms: C_32  and  C_37
                            x       y       z     vdW  Elec       q    Type
                         _______ _______ _______ _____ _____    ______ ____

>  <TORSDO>
F 4

$$$$
=
 OpenBabel11072413423D

 44 49  0  0  1  0  0  0  0  0999 V2000
  162.7100  204.9660  146.9200 C   0  0  0  0  0  2  0  0  0  0  0  0
  161.3140  205.1920  153.1040 C   0  0  0  0  0  0  0  0  0  0  0  0
  155.9470  211.5130  155.0260 C   0  0  0  0  0  2  0  0  0  0  0  0
  161.8690  208.2310  152.5530 C   0  0  0  0  0  2  0  0  0  0  0  0
  161.1000  204.8120  150.8610 C   0  0  1  0  0  3  0  0  0  0  0  0
  161.0790  209.6670  149.9670 N   0  0  0  0  0  2  0  0  0  0  0  0
  161.0930  204.7400  148.6090 C   0  0  0  0  0  2  0  0  0  0  0  0
  159.4700  213.4550  151.4730 C   0  0  0  0  0  0  0  0  0  0  0  0
  162.9950  209.8330  148.6410 O   0  0  0  0  0  0  0  0  0  0  0  0
  161.6600  210.3430  151.1200 C   0  0  2  0  0  3  0  0  0  0  0  0
  160.3730  204.0820  152.8810 C   0  0  0  0  0  2  0  0  0  0  0  0
  161.8670  209.3060  148.8350 C   0  0  0  0  0  0  0  0  0  0  0  0
  160.0790  204.0720  151.5040 O   0  0  0  0  0  0  0  0  0  0  0  0
  158.1200  211.2030  156.1560 N   0  0  0  0  0  0  0  0  0  0  0  0
  155.9370  212.9440  154.7560 N   0  0  0  0  0  0  0  0  0  0  0  0
  159.2660  210.1370  153.8780 C   0  0  0  0  0  0  0  0  0  0  0  0
  159.7830  214.4370  150.8160 O   0  0  0  0  0  0  0  0  0  0  0  0
  160.5950  205.4430  149.7160 O   0  0  0  0  0  0  0  0  0  0  0  0
  161.7280  205.5250  154.2020 O   0  0  0  0  0  0  0  0  0  0  0  0
  156.4600  213.0840  152.3600 C   0  0  0  0  0  2  0  0  0  0  0  0
  158.7120  213.6020  152.7590 C   0  0  2  0  0  3  0  0  0  0  0  0
  155.3750  213.1500  153.4270 C   0  0  0  0  0  2  0  0  0  0  0  0
  157.3520  211.0210  155.0470 C   0  0  0  0  0  0  0  0  0  0  0  0
  155.0040  213.5370  155.6960 C   0  0  0  0  0  1  0  0  0  0  0  0
  160.4070  207.2530  147.5770 C   0  0  0  0  0  2  0  0  0  0  0  0
  161.2890  209.6430  152.4360 C   0  0  1  0  0  3  0  0  0  0  0  0
  159.8200  212.0880  150.9930 C   0  0  0  0  0  2  0  0  0  0  0  0
  161.4170  208.2640  147.9820 N   0  0  0  0  0  0  0  0  0  0  0  0
  161.6430  207.1900  146.9620 C   0  0  1  0  0  3  0  0  0  0  0  0
  161.0940  207.2080  151.7270 C   0  0  0  0  0  2  0  0  0  0  0  0
  162.7710  206.2920  147.5310 C   0  0  1  0  0  3  0  0  0  0  0  0
  161.7170  205.8140  151.8430 C   0  0  1  0  0  3  0  0  0  0  0  0
  157.9140  210.4800  153.8890 C   0  0  0  0  0  3  0  0  0  0  0  0
  157.3990  214.1860  152.5160 N   0  0  0  0  0  2  0  0  0  0  0  0
  161.3180  211.8370  151.1260 C   0  0  0  0  0  2  0  0  0  0  0  0
  160.0380  210.3370  155.0280 C   0  0  0  0  0  3  0  0  0  0  0  0
  162.4910  205.0880  148.3700 N   0  0  2  0  0  0  0  0  0  0  0  0
  159.4380  210.8670  156.1720 C   0  0  0  0  0  3  0  0  0  0  0  0
  159.8480  209.6520  152.6670 N   0  0  0  0  0  2  0  0  0  0  0  0
  159.4980  214.4520  153.7440 C   0  0  0  0  0  2  0  0  0  0  0  0
  159.8610  213.6310  154.9650 C   0  0  0  0  0  2  0  0  0  0  0  0
  159.3090  214.2940  156.2070 C   0  0  0  0  0  2  0  0  0  0  0  0
  160.4160  214.4380  157.2300 C   0  0  0  0  0  2  0  0  0  0  0  0
  161.1760  213.2700  157.2600 O   0  0  0  0  0  1  0  0  0  0  0  0
  2 19  2  0  0  0  0
  3 23  1  0  0  0  0
  5 18  1  6  0  0  0
  5 13  1  0  0  0  0
  5 32  1  0  0  0  0
  6 10  1  0  0  0  0
  7 18  1  0  0  0  0
  8 21  1  0  0  0  0
  9 12  2  0  0  0  0
 10 35  1  1  0  0  0
 10 26  1  0  0  0  0
 11  2  1  0  0  0  0
 12  6  1  0  0  0  0
 13 11  1  0  0  0  0
 14 38  1  0  0  0  0
 15  3  1  0  0  0  0
 15 24  1  0  0  0  0
 16 33  2  0  0  0  0
 16 36  1  0  0  0  0
 17  8  2  0  0  0  0
 20 34  1  0  0  0  0
 20 22  1  0  0  0  0
 21 40  1  1  0  0  0
 22 15  1  0  0  0  0
 23 14  2  0  0  0  0
 25 28  1  0  0  0  0
 26  4  1  6  0  0  0
 26 39  1  0  0  0  0
 27 35  1  0  0  0  0
 27  8  1  0  0  0  0
 28 12  1  0  0  0  0
 29 31  1  0  0  0  0
 29 25  1  1  0  0  0
 29 28  1  0  0  0  0
 30  4  1  0  0  0  0
 31  1  1  6  0  0  0
 31 37  1  0  0  0  0
 32 30  1  6  0  0  0
 32  2  1  0  0  0  0
 33 23  1  0  0  0  0
 34 21  1  0  0  0  0
 36 38  2  0  0  0  0
 37  1  1  6  0  0  0
 37  7  1  0  0  0  0
 39 16  1  0  0  0  0
 40 41  1  0  0  0  0
 41 42  1  0  0  0  0
 42 43  1  0  0  0  0
 43 44  1  0  0  0  0
M  END
>  <MODEL>
2

>  <REMARK>
 VINA RESULT:       1.8      2.089      2.694
  Name = 
  4 active torsions:
  status: ('A' for Active; 'I' for Inactive)
    1  A    between atoms: C_21  and  C_22
    2  A    between atoms: C_21  and  C_32
    3  A    between atoms: C_24  and  C_37
    4  A    between atoms: C_32  and  C_37
                            x       y       z     vdW  Elec       q    Type
                         _______ _______ _______ _____ _____    ______ ____

>  <TORSDO>
F 4

$$$$
