=
 OpenBabel11072410103D

 43 46  0  0  1  0  0  0  0  0999 V2000
  162.0220  210.1250  148.8000 N   0  0  0  0  0  2  0  0  0  0  0  0
  161.7250  211.1640  147.9860 O   0  0  0  0  0  0  0  0  0  0  0  0
  162.0040  212.2980  148.7480 C   0  0  0  0  0  2  0  0  0  0  0  0
  159.3820  213.2820  151.2770 C   0  0  0  0  0  0  0  0  0  0  0  0
  160.7460  212.8200  149.3450 C   0  0  0  0  0  0  0  0  0  0  0  0
  159.7040  213.2510  148.5200 C   0  0  0  0  0  3  0  0  0  0  0  0
  160.5840  212.8280  150.7310 C   0  0  0  0  0  3  0  0  0  0  0  0
  158.3770  213.6990  150.4550 N   0  0  0  0  0  0  0  0  0  0  0  0
  158.5150  213.6950  149.1020 C   0  0  0  0  0  3  0  0  0  0  0  0
  159.1910  213.2530  152.7630 C   0  0  2  0  0  3  0  0  0  0  0  0
  160.7270  211.2330  152.8850 C   0  0  0  0  0  3  0  0  0  0  0  0
  159.6150  211.9320  153.3770 C   0  0  0  0  0  0  0  0  0  0  0  0
  157.7450  213.6180  153.1130 C   0  0  0  0  0  2  0  0  0  0  0  0
  157.8470  212.1690  155.0740 N   0  0  0  0  0  2  0  0  0  0  0  0
  157.5280  213.5180  154.6170 C   0  0  0  0  0  2  0  0  0  0  0  0
  160.4580  209.5410  154.6060 C   0  0  0  0  0  0  0  0  0  0  0  0
  159.3640  210.2530  155.1190 C   0  0  0  0  0  3  0  0  0  0  0  0
  161.1410  210.0440  153.4900 C   0  0  0  0  0  3  0  0  0  0  0  0
  158.9530  211.4480  154.5230 C   0  0  0  0  0  0  0  0  0  0  0  0
  160.8940  208.2850  155.2410 C   0  0  0  0  0  0  0  0  0  0  0  0
  160.3600  207.0350  154.8130 N   0  0  0  0  0  1  0  0  0  0  0  0
  161.7470  208.3040  156.1680 O   0  0  0  0  0  0  0  0  0  0  0  0
  161.5340  208.9660  148.1740 N   0  0  0  0  0  2  0  0  0  0  0  0
  162.0020  207.7920  148.9160 C   0  0  2  0  0  3  0  0  0  0  0  0
  161.5870  206.4970  148.2290 C   0  0  0  0  0  2  0  0  0  0  0  0
  163.1190  205.1300  147.0310 O   0  0  0  0  0  1  0  0  0  0  0  0
  162.3620  206.3020  146.9350 C   0  0  1  0  0  3  0  0  0  0  0  0
  161.3910  206.2170  145.7550 C   0  0  2  0  0  3  0  0  0  0  0  0
  160.0890  206.0080  146.2130 O   0  0  0  0  0  1  0  0  0  0  0  0
  161.7650  205.0660  144.8320 C   0  0  0  0  0  2  0  0  0  0  0  0
  160.7960  204.0620  144.8730 O   0  0  0  0  0  0  0  0  0  0  0  0
  161.3810  203.0460  145.6310 C   0  0  0  0  0  2  0  0  0  0  0  0
  160.3560  202.1180  146.0990 N   0  0  0  0  0  0  0  0  0  0  0  0
  159.8930  201.3270  144.9660 C   0  0  0  0  0  1  0  0  0  0  0  0
  160.9180  201.2230  147.1180 C   0  0  0  0  0  2  0  0  0  0  0  0
  161.2590  201.3050  149.5710 C   0  0  0  0  0  2  0  0  0  0  0  0
  160.6060  202.6070  149.1620 C   0  0  0  0  0  2  0  0  0  0  0  0
  160.2140  201.3160  148.4740 C   0  0  0  0  0  3  0  0  0  0  0  0
  161.5160  207.8090  150.3580 C   0  0  0  0  0  2  0  0  0  0  0  0
  162.6300  207.5690  151.2610 N   0  0  0  0  0  2  0  0  0  0  0  0
  162.2990  206.3910  152.0450 C   0  0  0  0  0  2  0  0  0  0  0  0
  161.0270  204.5930  152.1820 C   0  0  0  0  0  1  0  0  0  0  0  0
  161.0770  205.8680  151.6200 O   0  0  0  0  0  0  0  0  0  0  0  0
  2  3  1  0  0  0  0
  2  1  1  0  0  0  0
  3  5  1  0  0  0  0
  5  7  2  0  0  0  0
  6  9  2  0  0  0  0
  6  5  1  0  0  0  0
  7  4  1  0  0  0  0
  8  4  2  0  0  0  0
  9  8  1  0  0  0  0
 10  4  1  6  0  0  0
 10 13  1  0  0  0  0
 10 12  1  0  0  0  0
 11 12  2  0  0  0  0
 11 18  1  0  0  0  0
 12 19  1  0  0  0  0
 13 15  1  0  0  0  0
 15 14  1  0  0  0  0
 16 17  1  0  0  0  0
 16 20  1  0  0  0  0
 18 16  2  0  0  0  0
 19 14  1  0  0  0  0
 19 17  2  0  0  0  0
 20 22  2  0  0  0  0
 21 20  1  0  0  0  0
 23  1  1  0  0  0  0
 23 24  1  0  0  0  0
 24 25  1  6  0  0  0
 24 39  1  0  0  0  0
 27 26  1  1  0  0  0
 27 25  1  0  0  0  0
 28 29  1  1  0  0  0
 28 27  1  0  0  0  0
 30 31  1  0  0  0  0
 30 28  1  0  0  0  0
 31 32  1  0  0  0  0
 32 33  1  0  0  0  0
 33 35  1  0  0  0  0
 34 33  1  0  0  0  0
 35 38  1  0  0  0  0
 37 36  1  0  0  0  0
 38 37  1  0  0  0  0
 38 36  1  0  0  0  0
 39 40  1  0  0  0  0
 40 41  1  0  0  0  0
 43 41  1  0  0  0  0
 43 42  1  0  0  0  0
M  END
>  <MODEL>
1

>  <REMARK>
 VINA RESULT:      -6.3      0.000      0.000
  Name = 
  20 active torsions:
  status: ('A' for Active; 'I' for Inactive)
    1  A    between atoms: N_1  and  C_24
    2  A    between atoms: N_1  and  C_36
    3  A    between atoms: N_3  and  C_20
    4  A    between atoms: N_3  and  C_31
    5  A    between atoms: C_4  and  C_10
    6  A    between atoms: C_4  and  C_13
    7  A    between atoms: O_5  and  N_32
    8  A    between atoms: O_5  and  C_43
    9  A    between atoms: C_7  and  C_8
   10  A    between atoms: C_10  and  O_23
   11  A    between atoms: C_12  and  C_43
   12  A    between atoms: C_13  and  C_14
   13  A    between atoms: C_14  and  C_26
   14  A    between atoms: C_18  and  C_29
   15  A    between atoms: C_20  and  C_26
   16  A    between atoms: O_23  and  C_24
   17  A    between atoms: C_26  and  N_37
   18  A    between atoms: O_27  and  C_31
   19  A    between atoms: N_32  and  N_37
   20  A    between atoms: C_36  and  C_42
                            x       y       z     vdW  Elec       q    Type
                         _______ _______ _______ _____ _____    ______ ____

>  <TORSDO>
F 20

$$$$
=
 OpenBabel11072410103D

 43 46  0  0  1  0  0  0  0  0999 V2000
  160.6600  211.6680  153.2160 N   0  0  0  0  0  2  0  0  0  0  0  0
  161.5010  210.6140  153.3190 O   0  0  0  0  0  0  0  0  0  0  0  0
  161.0480  209.7090  152.3590 C   0  0  0  0  0  2  0  0  0  0  0  0
  161.3620  205.9590  152.6400 C   0  0  0  0  0  0  0  0  0  0  0  0
  161.0620  208.3330  152.9230 C   0  0  0  0  0  0  0  0  0  0  0  0
  160.6880  208.1160  154.2510 C   0  0  0  0  0  3  0  0  0  0  0  0
  161.3940  207.2500  152.1090 C   0  0  0  0  0  3  0  0  0  0  0  0
  160.9960  205.7680  153.9390 N   0  0  0  0  0  0  0  0  0  0  0  0
  160.6640  206.8110  154.7470 C   0  0  0  0  0  3  0  0  0  0  0  0
  161.6800  204.7920  151.7550 C   0  0  2  0  0  3  0  0  0  0  0  0
  161.8540  206.3800  149.7800 C   0  0  0  0  0  3  0  0  0  0  0  0
  161.5120  205.1150  150.2830 C   0  0  0  0  0  0  0  0  0  0  0  0
  160.8530  203.5740  152.1790 C   0  0  0  0  0  2  0  0  0  0  0  0
  160.8010  202.7960  149.8660 N   0  0  0  0  0  2  0  0  0  0  0  0
  161.1180  202.4070  151.2370 C   0  0  0  0  0  2  0  0  0  0  0  0
  161.3040  205.6620  147.5260 C   0  0  0  0  0  0  0  0  0  0  0  0
  160.9910  204.3870  148.0210 C   0  0  0  0  0  3  0  0  0  0  0  0
  161.7450  206.6520  148.4140 C   0  0  0  0  0  3  0  0  0  0  0  0
  161.1080  204.1080  149.3850 C   0  0  0  0  0  0  0  0  0  0  0  0
  161.1880  205.9520  146.0860 C   0  0  0  0  0  0  0  0  0  0  0  0
  162.3110  205.7900  145.2240 N   0  0  0  0  0  1  0  0  0  0  0  0
  160.0920  206.3420  145.6020 O   0  0  0  0  0  0  0  0  0  0  0  0
  159.4330  211.1630  152.7520 N   0  0  0  0  0  2  0  0  0  0  0  0
  158.4280  212.2280  152.8080 C   0  0  2  0  0  3  0  0  0  0  0  0
  157.9670  212.6340  151.4140 C   0  0  0  0  0  2  0  0  0  0  0  0
  160.0880  213.1080  150.4520 O   0  0  0  0  0  1  0  0  0  0  0  0
  158.8820  213.7030  150.8360 C   0  0  1  0  0  3  0  0  0  0  0  0
  158.2080  214.3710  149.6360 C   0  0  2  0  0  3  0  0  0  0  0  0
  157.0870  213.6390  149.2410 O   0  0  0  0  0  1  0  0  0  0  0  0
  159.1670  214.4530  148.4560 C   0  0  0  0  0  2  0  0  0  0  0  0
  158.7490  213.6200  147.4170 O   0  0  0  0  0  0  0  0  0  0  0  0
  159.8910  212.8950  147.0710 C   0  0  0  0  0  2  0  0  0  0  0  0
  160.9800  213.8080  146.7370 N   0  0  0  0  0  0  0  0  0  0  0  0
  162.2070  213.3070  147.3420 C   0  0  0  0  0  1  0  0  0  0  0  0
  161.1490  213.8740  145.2810 C   0  0  0  0  0  2  0  0  0  0  0  0
  162.2290  212.9910  143.2340 C   0  0  0  0  0  2  0  0  0  0  0  0
  163.2750  213.7780  143.9920 C   0  0  0  0  0  2  0  0  0  0  0  0
  162.2520  212.9560  144.7480 C   0  0  0  0  0  3  0  0  0  0  0  0
  158.9370  213.4400  153.5750 C   0  0  0  0  0  2  0  0  0  0  0  0
  158.6140  213.3080  154.9860 N   0  0  0  0  0  2  0  0  0  0  0  0
  157.1660  213.2280  155.0870 C   0  0  0  0  0  2  0  0  0  0  0  0
  157.9030  211.7500  156.5500 C   0  0  0  0  0  1  0  0  0  0  0  0
  156.8100  212.5670  156.2630 O   0  0  0  0  0  0  0  0  0  0  0  0
  1  2  1  0  0  0  0
  3  5  1  0  0  0  0
  3  2  1  0  0  0  0
  4  8  1  0  0  0  0
  5  6  2  0  0  0  0
  6  9  1  0  0  0  0
  7  4  2  0  0  0  0
  7  5  1  0  0  0  0
  8  9  2  0  0  0  0
 10 13  1  0  0  0  0
 10  4  1  1  0  0  0
 11 12  1  0  0  0  0
 12 10  1  0  0  0  0
 14 15  1  0  0  0  0
 15 13  1  0  0  0  0
 16 17  2  0  0  0  0
 16 18  1  0  0  0  0
 17 19  1  0  0  0  0
 18 11  2  0  0  0  0
 19 14  1  0  0  0  0
 19 12  2  0  0  0  0
 20 16  1  0  0  0  0
 21 20  1  0  0  0  0
 22 20  2  0  0  0  0
 23 24  1  0  0  0  0
 23  1  1  0  0  0  0
 24 25  1  6  0  0  0
 24 39  1  0  0  0  0
 27 26  1  6  0  0  0
 27 25  1  0  0  0  0
 28 29  1  6  0  0  0
 28 27  1  0  0  0  0
 30 28  1  0  0  0  0
 31 30  1  0  0  0  0
 32 31  1  0  0  0  0
 33 32  1  0  0  0  0
 33 34  1  0  0  0  0
 35 33  1  0  0  0  0
 36 37  1  0  0  0  0
 36 38  1  0  0  0  0
 37 38  1  0  0  0  0
 38 35  1  0  0  0  0
 39 40  1  0  0  0  0
 40 41  1  0  0  0  0
 41 43  1  0  0  0  0
 43 42  1  0  0  0  0
M  END
>  <MODEL>
2

>  <REMARK>
 VINA RESULT:      -6.2      2.763      9.214
  Name = 
  20 active torsions:
  status: ('A' for Active; 'I' for Inactive)
    1  A    between atoms: N_1  and  C_24
    2  A    between atoms: N_1  and  C_36
    3  A    between atoms: N_3  and  C_20
    4  A    between atoms: N_3  and  C_31
    5  A    between atoms: C_4  and  C_10
    6  A    between atoms: C_4  and  C_13
    7  A    between atoms: O_5  and  N_32
    8  A    between atoms: O_5  and  C_43
    9  A    between atoms: C_7  and  C_8
   10  A    between atoms: C_10  and  O_23
   11  A    between atoms: C_12  and  C_43
   12  A    between atoms: C_13  and  C_14
   13  A    between atoms: C_14  and  C_26
   14  A    between atoms: C_18  and  C_29
   15  A    between atoms: C_20  and  C_26
   16  A    between atoms: O_23  and  C_24
   17  A    between atoms: C_26  and  N_37
   18  A    between atoms: O_27  and  C_31
   19  A    between atoms: N_32  and  N_37
   20  A    between atoms: C_36  and  C_42
                            x       y       z     vdW  Elec       q    Type
                         _______ _______ _______ _____ _____    ______ ____

>  <TORSDO>
F 20

$$$$
=
 OpenBabel11072410103D

 43 46  0  0  1  0  0  0  0  0999 V2000
  162.2560  209.9670  151.9710 N   0  0  0  0  0  2  0  0  0  0  0  0
  162.4360  208.9150  151.1390 O   0  0  0  0  0  0  0  0  0  0  0  0
  161.1800  208.3130  151.0610 C   0  0  0  0  0  2  0  0  0  0  0  0
  161.4970  204.5640  151.3600 C   0  0  0  0  0  0  0  0  0  0  0  0
  161.2460  206.9450  151.6400 C   0  0  0  0  0  0  0  0  0  0  0  0
  161.0170  206.7490  153.0040 C   0  0  0  0  0  3  0  0  0  0  0  0
  161.4800  205.8480  150.8100 C   0  0  0  0  0  3  0  0  0  0  0  0
  161.2730  204.3940  152.6940 N   0  0  0  0  0  0  0  0  0  0  0  0
  161.0390  205.4510  153.5190 C   0  0  0  0  0  3  0  0  0  0  0  0
  161.7080  203.3830  150.4630 C   0  0  2  0  0  3  0  0  0  0  0  0
  161.8250  204.9570  148.4740 C   0  0  0  0  0  3  0  0  0  0  0  0
  161.4620  203.7100  149.0030 C   0  0  0  0  0  0  0  0  0  0  0  0
  160.8590  202.2020  150.9440 C   0  0  0  0  0  2  0  0  0  0  0  0
  160.6290  201.4220  148.6430 N   0  0  0  0  0  2  0  0  0  0  0  0
  161.0140  201.0220  149.9930 C   0  0  0  0  0  2  0  0  0  0  0  0
  161.1050  204.2580  146.2620 C   0  0  0  0  0  0  0  0  0  0  0  0
  160.7690  202.9990  146.7810 C   0  0  0  0  0  3  0  0  0  0  0  0
  161.6420  205.2310  147.1160 C   0  0  0  0  0  3  0  0  0  0  0  0
  160.9600  202.7180  148.1370 C   0  0  0  0  0  0  0  0  0  0  0  0
  160.9100  204.5490  144.8310 C   0  0  0  0  0  0  0  0  0  0  0  0
  161.6760  205.5660  144.1900 N   0  0  0  0  0  1  0  0  0  0  0  0
  160.0660  203.8990  144.1580 O   0  0  0  0  0  0  0  0  0  0  0  0
  160.8680  210.1450  152.1050 N   0  0  0  0  0  2  0  0  0  0  0  0
  160.5890  210.7430  153.4130 C   0  0  2  0  0  3  0  0  0  0  0  0
  160.1130  212.1840  153.2780 C   0  0  0  0  0  2  0  0  0  0  0  0
  157.7890  211.9700  153.7270 O   0  0  0  0  0  1  0  0  0  0  0  0
  158.7050  212.2330  152.7040 C   0  0  1  0  0  3  0  0  0  0  0  0
  158.4420  213.6090  152.0890 C   0  0  2  0  0  3  0  0  0  0  0  0
  157.5090  214.3110  152.8550 O   0  0  0  0  0  1  0  0  0  0  0  0
  157.8960  213.4720  150.6750 C   0  0  0  0  0  2  0  0  0  0  0  0
  158.6690  214.2010  149.7700 O   0  0  0  0  0  0  0  0  0  0  0  0
  159.8720  213.4960  149.6950 C   0  0  0  0  0  2  0  0  0  0  0  0
  160.4960  213.7110  148.3930 N   0  0  0  0  0  0  0  0  0  0  0  0
  161.9160  213.3970  148.5020 C   0  0  0  0  0  1  0  0  0  0  0  0
  159.8810  212.8330  147.3910 C   0  0  0  0  0  2  0  0  0  0  0  0
  160.3300  212.8900  144.9550 C   0  0  0  0  0  2  0  0  0  0  0  0
  158.8630  212.5690  145.1360 C   0  0  0  0  0  2  0  0  0  0  0  0
  159.5460  213.5410  146.0760 C   0  0  0  0  0  3  0  0  0  0  0  0
  161.7980  210.6660  154.3350 C   0  0  0  0  0  2  0  0  0  0  0  0
  161.7260  209.4650  155.1500 N   0  0  0  0  0  2  0  0  0  0  0  0
  160.3320  209.2830  155.5210 C   0  0  0  0  0  2  0  0  0  0  0  0
  160.0240  207.4220  156.6680 C   0  0  0  0  0  1  0  0  0  0  0  0
  160.2500  208.7900  156.8240 O   0  0  0  0  0  0  0  0  0  0  0  0
  1 23  1  0  0  0  0
  2  1  1  0  0  0  0
  3  2  1  0  0  0  0
  3  5  1  0  0  0  0
  4  8  1  0  0  0  0
  5  6  2  0  0  0  0
  6  9  1  0  0  0  0
  7  4  2  0  0  0  0
  7  5  1  0  0  0  0
  8  9  2  0  0  0  0
 10 13  1  0  0  0  0
 10  4  1  1  0  0  0
 11 12  1  0  0  0  0
 12 10  1  0  0  0  0
 14 15  1  0  0  0  0
 15 13  1  0  0  0  0
 16 17  2  0  0  0  0
 16 18  1  0  0  0  0
 17 19  1  0  0  0  0
 18 11  2  0  0  0  0
 19 14  1  0  0  0  0
 19 12  2  0  0  0  0
 20 16  1  0  0  0  0
 21 20  1  0  0  0  0
 22 20  2  0  0  0  0
 23 24  1  0  0  0  0
 24 25  1  6  0  0  0
 24 39  1  0  0  0  0
 27 25  1  0  0  0  0
 27 26  1  1  0  0  0
 28 27  1  0  0  0  0
 28 29  1  1  0  0  0
 30 28  1  0  0  0  0
 31 30  1  0  0  0  0
 32 31  1  0  0  0  0
 33 34  1  0  0  0  0
 33 32  1  0  0  0  0
 35 33  1  0  0  0  0
 36 37  1  0  0  0  0
 36 38  1  0  0  0  0
 37 38  1  0  0  0  0
 38 35  1  0  0  0  0
 39 40  1  0  0  0  0
 40 41  1  0  0  0  0
 41 43  1  0  0  0  0
 42 43  1  0  0  0  0
M  END
>  <MODEL>
3

>  <REMARK>
 VINA RESULT:      -6.1      2.512      9.597
  Name = 
  20 active torsions:
  status: ('A' for Active; 'I' for Inactive)
    1  A    between atoms: N_1  and  C_24
    2  A    between atoms: N_1  and  C_36
    3  A    between atoms: N_3  and  C_20
    4  A    between atoms: N_3  and  C_31
    5  A    between atoms: C_4  and  C_10
    6  A    between atoms: C_4  and  C_13
    7  A    between atoms: O_5  and  N_32
    8  A    between atoms: O_5  and  C_43
    9  A    between atoms: C_7  and  C_8
   10  A    between atoms: C_10  and  O_23
   11  A    between atoms: C_12  and  C_43
   12  A    between atoms: C_13  and  C_14
   13  A    between atoms: C_14  and  C_26
   14  A    between atoms: C_18  and  C_29
   15  A    between atoms: C_20  and  C_26
   16  A    between atoms: O_23  and  C_24
   17  A    between atoms: C_26  and  N_37
   18  A    between atoms: O_27  and  C_31
   19  A    between atoms: N_32  and  N_37
   20  A    between atoms: C_36  and  C_42
                            x       y       z     vdW  Elec       q    Type
                         _______ _______ _______ _____ _____    ______ ____

>  <TORSDO>
F 20

$$$$
=
 OpenBabel11072410103D

 43 46  0  0  1  0  0  0  0  0999 V2000
  161.7720  212.3400  148.6490 N   0  0  0  0  0  2  0  0  0  0  0  0
  161.8600  211.0150  148.9050 O   0  0  0  0  0  0  0  0  0  0  0  0
  162.5630  210.9370  150.1080 C   0  0  0  0  0  2  0  0  0  0  0  0
  161.6270  207.5690  151.5280 C   0  0  0  0  0  0  0  0  0  0  0  0
  161.9580  209.8900  150.9730 C   0  0  0  0  0  0  0  0  0  0  0  0
  161.0670  210.2480  151.9880 C   0  0  0  0  0  3  0  0  0  0  0  0
  162.2350  208.5440  150.7350 C   0  0  0  0  0  3  0  0  0  0  0  0
  160.7620  207.9380  152.5150 N   0  0  0  0  0  0  0  0  0  0  0  0
  160.4760  209.2460  152.7600 C   0  0  0  0  0  3  0  0  0  0  0  0
  161.8930  206.1210  151.2470 C   0  0  2  0  0  3  0  0  0  0  0  0
  161.9940  206.6580  148.7660 C   0  0  0  0  0  3  0  0  0  0  0  0
  161.6630  205.7600  149.7920 C   0  0  0  0  0  0  0  0  0  0  0  0
  161.0730  205.2440  152.1980 C   0  0  0  0  0  2  0  0  0  0  0  0
  160.9110  203.5190  150.4790 N   0  0  0  0  0  2  0  0  0  0  0  0
  161.2840  203.7720  151.8670 C   0  0  0  0  0  2  0  0  0  0  0  0
  161.3380  205.0270  147.0910 C   0  0  0  0  0  0  0  0  0  0  0  0
  161.0340  204.1160  148.1120 C   0  0  0  0  0  3  0  0  0  0  0  0
  161.8280  206.2960  147.4270 C   0  0  0  0  0  3  0  0  0  0  0  0
  161.2090  204.4700  149.4530 C   0  0  0  0  0  0  0  0  0  0  0  0
  161.1600  204.6480  145.6780 C   0  0  0  0  0  0  0  0  0  0  0  0
  161.2830  203.2870  145.2730 N   0  0  0  0  0  1  0  0  0  0  0  0
  160.8940  205.5250  144.8120 O   0  0  0  0  0  0  0  0  0  0  0  0
  162.3170  212.5430  147.3700 N   0  0  0  0  0  2  0  0  0  0  0  0
  161.4800  213.5000  146.6410 C   0  0  2  0  0  3  0  0  0  0  0  0
  162.3220  214.4530  145.8030 C   0  0  0  0  0  2  0  0  0  0  0  0
  163.4330  213.0600  144.2300 O   0  0  0  0  0  1  0  0  0  0  0  0
  162.3890  213.9820  144.3590 C   0  0  1  0  0  3  0  0  0  0  0  0
  161.0580  213.3440  143.9570 C   0  0  2  0  0  3  0  0  0  0  0  0
  161.2780  212.1120  143.3380 O   0  0  0  0  0  1  0  0  0  0  0  0
  160.3020  214.2400  142.9850 C   0  0  0  0  0  2  0  0  0  0  0  0
  159.8320  213.5060  141.8960 O   0  0  0  0  0  0  0  0  0  0  0  0
  160.4460  214.0940  140.7890 C   0  0  0  0  0  2  0  0  0  0  0  0
  160.9610  213.0620  139.8950 N   0  0  0  0  0  0  0  0  0  0  0  0
  162.3980  212.9380  140.1090 C   0  0  0  0  0  1  0  0  0  0  0  0
  160.3150  211.7770  140.1880 C   0  0  0  0  0  2  0  0  0  0  0  0
  158.3140  210.7980  139.1040 C   0  0  0  0  0  2  0  0  0  0  0  0
  158.7980  211.9280  138.2220 C   0  0  0  0  0  2  0  0  0  0  0  0
  159.7990  211.0500  138.9440 C   0  0  0  0  0  3  0  0  0  0  0  0
  160.5710  214.2800  147.5820 C   0  0  0  0  0  2  0  0  0  0  0  0
  159.2380  214.3850  147.0100 N   0  0  0  0  0  2  0  0  0  0  0  0
  158.4510  213.2930  147.5580 C   0  0  0  0  0  2  0  0  0  0  0  0
  156.9340  213.3810  145.9570 C   0  0  0  0  0  1  0  0  0  0  0  0
  157.8970  212.5430  146.5200 O   0  0  0  0  0  0  0  0  0  0  0  0
  1  2  1  0  0  0  0
  2  3  1  0  0  0  0
  3  5  1  0  0  0  0
  4  8  1  0  0  0  0
  5  6  2  0  0  0  0
  6  9  1  0  0  0  0
  7  5  1  0  0  0  0
  7  4  2  0  0  0  0
  8  9  2  0  0  0  0
 10  4  1  6  0  0  0
 10 13  1  0  0  0  0
 11 12  1  0  0  0  0
 12 10  1  0  0  0  0
 14 15  1  0  0  0  0
 15 13  1  0  0  0  0
 16 18  1  0  0  0  0
 16 17  2  0  0  0  0
 17 19  1  0  0  0  0
 18 11  2  0  0  0  0
 19 12  2  0  0  0  0
 19 14  1  0  0  0  0
 20 16  1  0  0  0  0
 21 20  1  0  0  0  0
 22 20  2  0  0  0  0
 23  1  1  0  0  0  0
 24 25  1  1  0  0  0
 24 23  1  0  0  0  0
 24 39  1  0  0  0  0
 27 26  1  1  0  0  0
 27 25  1  0  0  0  0
 28 29  1  6  0  0  0
 28 27  1  0  0  0  0
 30 28  1  0  0  0  0
 31 30  1  0  0  0  0
 32 31  1  0  0  0  0
 33 34  1  0  0  0  0
 33 35  1  0  0  0  0
 33 32  1  0  0  0  0
 37 38  1  0  0  0  0
 37 36  1  0  0  0  0
 38 36  1  0  0  0  0
 38 35  1  0  0  0  0
 40 41  1  0  0  0  0
 40 39  1  0  0  0  0
 42 43  1  0  0  0  0
 43 41  1  0  0  0  0
M  END
>  <MODEL>
4

>  <REMARK>
 VINA RESULT:      -6.1      4.420      9.014
  Name = 
  20 active torsions:
  status: ('A' for Active; 'I' for Inactive)
    1  A    between atoms: N_1  and  C_24
    2  A    between atoms: N_1  and  C_36
    3  A    between atoms: N_3  and  C_20
    4  A    between atoms: N_3  and  C_31
    5  A    between atoms: C_4  and  C_10
    6  A    between atoms: C_4  and  C_13
    7  A    between atoms: O_5  and  N_32
    8  A    between atoms: O_5  and  C_43
    9  A    between atoms: C_7  and  C_8
   10  A    between atoms: C_10  and  O_23
   11  A    between atoms: C_12  and  C_43
   12  A    between atoms: C_13  and  C_14
   13  A    between atoms: C_14  and  C_26
   14  A    between atoms: C_18  and  C_29
   15  A    between atoms: C_20  and  C_26
   16  A    between atoms: O_23  and  C_24
   17  A    between atoms: C_26  and  N_37
   18  A    between atoms: O_27  and  C_31
   19  A    between atoms: N_32  and  N_37
   20  A    between atoms: C_36  and  C_42
                            x       y       z     vdW  Elec       q    Type
                         _______ _______ _______ _____ _____    ______ ____

>  <TORSDO>
F 20

$$$$
=
 OpenBabel11072410103D

 43 46  0  0  1  0  0  0  0  0999 V2000
  161.7820  207.9150  147.9620 N   0  0  0  0  0  2  0  0  0  0  0  0
  162.6140  206.9100  147.6050 O   0  0  0  0  0  0  0  0  0  0  0  0
  162.1520  206.5020  146.3530 C   0  0  0  0  0  2  0  0  0  0  0  0
  160.8900  203.2210  147.7250 C   0  0  0  0  0  0  0  0  0  0  0  0
  161.6750  205.0960  146.4300 C   0  0  0  0  0  0  0  0  0  0  0  0
  161.6600  204.2960  145.2850 C   0  0  0  0  0  3  0  0  0  0  0  0
  161.2960  204.5550  147.6600 C   0  0  0  0  0  3  0  0  0  0  0  0
  160.8820  202.4570  146.5960 N   0  0  0  0  0  0  0  0  0  0  0  0
  161.2510  202.9650  145.3890 C   0  0  0  0  0  3  0  0  0  0  0  0
  160.5220  202.6290  149.0520 C   0  0  2  0  0  3  0  0  0  0  0  0
  160.5600  204.9590  150.0630 C   0  0  0  0  0  3  0  0  0  0  0  0
  160.7800  203.5800  150.2050 C   0  0  0  0  0  0  0  0  0  0  0  0
  161.2310  201.2850  149.2400 C   0  0  0  0  0  2  0  0  0  0  0  0
  161.3230  201.6630  151.6500 N   0  0  0  0  0  2  0  0  0  0  0  0
  160.9170  200.7140  150.6170 C   0  0  0  0  0  2  0  0  0  0  0  0
  161.1500  205.3170  152.3920 C   0  0  0  0  0  0  0  0  0  0  0  0
  161.3410  203.9370  152.5450 C   0  0  0  0  0  3  0  0  0  0  0  0
  160.7500  205.8200  151.1470 C   0  0  0  0  0  3  0  0  0  0  0  0
  161.1420  203.0700  151.4670 C   0  0  0  0  0  0  0  0  0  0  0  0
  161.3530  206.2290  153.5320 C   0  0  0  0  0  0  0  0  0  0  0  0
  160.2900  206.4900  154.4460 N   0  0  0  0  0  1  0  0  0  0  0  0
  162.4690  206.7830  153.7130 O   0  0  0  0  0  0  0  0  0  0  0  0
  162.5910  208.9630  148.4310 N   0  0  0  0  0  2  0  0  0  0  0  0
  161.8620  209.7020  149.4660 C   0  0  2  0  0  3  0  0  0  0  0  0
  162.1530  211.1950  149.3950 C   0  0  0  0  0  2  0  0  0  0  0  0
  160.6320  211.4550  147.5870 O   0  0  0  0  0  1  0  0  0  0  0  0
  161.9480  211.7160  147.9800 C   0  0  1  0  0  3  0  0  0  0  0  0
  162.2340  213.2180  147.9320 C   0  0  2  0  0  3  0  0  0  0  0  0
  161.2630  213.9200  148.6500 O   0  0  0  0  0  1  0  0  0  0  0  0
  162.2260  213.7230  146.4960 C   0  0  0  0  0  2  0  0  0  0  0  0
  160.9910  214.2880  146.1750 O   0  0  0  0  0  0  0  0  0  0  0  0
  160.7260  213.8340  144.8820 C   0  0  0  0  0  2  0  0  0  0  0  0
  159.2910  213.8850  144.6180 N   0  0  0  0  0  0  0  0  0  0  0  0
  159.0830  213.8390  143.1760 C   0  0  0  0  0  1  0  0  0  0  0  0
  158.6260  212.7350  145.2400 C   0  0  0  0  0  2  0  0  0  0  0  0
  157.3940  212.6500  147.3880 C   0  0  0  0  0  2  0  0  0  0  0  0
  157.5780  214.1090  147.0310 C   0  0  0  0  0  2  0  0  0  0  0  0
  157.3120  213.0910  145.9410 C   0  0  0  0  0  3  0  0  0  0  0  0
  162.1670  209.1660  150.8580 C   0  0  0  0  0  2  0  0  0  0  0  0
  161.0260  209.3800  151.7330 N   0  0  0  0  0  2  0  0  0  0  0  0
  161.5200  210.0590  152.9200 C   0  0  0  0  0  2  0  0  0  0  0  0
  159.5030  210.9460  153.0570 C   0  0  0  0  0  1  0  0  0  0  0  0
  160.4680  210.2770  153.8110 O   0  0  0  0  0  0  0  0  0  0  0  0
  1 23  1  0  0  0  0
  2  1  1  0  0  0  0
  3  5  1  0  0  0  0
  3  2  1  0  0  0  0
  5  7  2  0  0  0  0
  6  9  2  0  0  0  0
  6  5  1  0  0  0  0
  7  4  1  0  0  0  0
  8  4  2  0  0  0  0
  9  8  1  0  0  0  0
 10  4  1  6  0  0  0
 10 13  1  0  0  0  0
 10 12  1  0  0  0  0
 11 12  2  0  0  0  0
 11 18  1  0  0  0  0
 12 19  1  0  0  0  0
 13 15  1  0  0  0  0
 15 14  1  0  0  0  0
 16 17  1  0  0  0  0
 16 20  1  0  0  0  0
 18 16  2  0  0  0  0
 19 14  1  0  0  0  0
 19 17  2  0  0  0  0
 20 22  2  0  0  0  0
 20 21  1  0  0  0  0
 23 24  1  0  0  0  0
 24 25  1  1  0  0  0
 24 39  1  0  0  0  0
 27 26  1  1  0  0  0
 27 25  1  0  0  0  0
 28 27  1  0  0  0  0
 28 29  1  1  0  0  0
 30 28  1  0  0  0  0
 31 30  1  0  0  0  0
 32 31  1  0  0  0  0
 33 32  1  0  0  0  0
 33 35  1  0  0  0  0
 34 33  1  0  0  0  0
 35 38  1  0  0  0  0
 37 36  1  0  0  0  0
 38 37  1  0  0  0  0
 38 36  1  0  0  0  0
 39 40  1  0  0  0  0
 40 41  1  0  0  0  0
 41 43  1  0  0  0  0
 42 43  1  0  0  0  0
M  END
>  <MODEL>
5

>  <REMARK>
 VINA RESULT:      -6.1      2.401      8.601
  Name = 
  20 active torsions:
  status: ('A' for Active; 'I' for Inactive)
    1  A    between atoms: N_1  and  C_24
    2  A    between atoms: N_1  and  C_36
    3  A    between atoms: N_3  and  C_20
    4  A    between atoms: N_3  and  C_31
    5  A    between atoms: C_4  and  C_10
    6  A    between atoms: C_4  and  C_13
    7  A    between atoms: O_5  and  N_32
    8  A    between atoms: O_5  and  C_43
    9  A    between atoms: C_7  and  C_8
   10  A    between atoms: C_10  and  O_23
   11  A    between atoms: C_12  and  C_43
   12  A    between atoms: C_13  and  C_14
   13  A    between atoms: C_14  and  C_26
   14  A    between atoms: C_18  and  C_29
   15  A    between atoms: C_20  and  C_26
   16  A    between atoms: O_23  and  C_24
   17  A    between atoms: C_26  and  N_37
   18  A    between atoms: O_27  and  C_31
   19  A    between atoms: N_32  and  N_37
   20  A    between atoms: C_36  and  C_42
                            x       y       z     vdW  Elec       q    Type
                         _______ _______ _______ _____ _____    ______ ____

>  <TORSDO>
F 20

$$$$
=
 OpenBabel11072410103D

 43 46  0  0  1  0  0  0  0  0999 V2000
  161.9480  208.3480  148.2980 N   0  0  0  0  0  2  0  0  0  0  0  0
  162.6660  207.3210  147.7880 O   0  0  0  0  0  0  0  0  0  0  0  0
  162.0050  206.9850  146.6070 C   0  0  0  0  0  2  0  0  0  0  0  0
  160.9830  203.5630  147.8250 C   0  0  0  0  0  0  0  0  0  0  0  0
  161.6580  205.5390  146.6230 C   0  0  0  0  0  0  0  0  0  0  0  0
  161.7810  204.7750  145.4600 C   0  0  0  0  0  3  0  0  0  0  0  0
  161.2650  204.9300  147.8150 C   0  0  0  0  0  3  0  0  0  0  0  0
  161.1070  202.8350  146.6790 N   0  0  0  0  0  0  0  0  0  0  0  0
  161.4930  203.4090  145.5080 C   0  0  0  0  0  3  0  0  0  0  0  0
  160.6000  202.9000  149.1140 C   0  0  2  0  0  3  0  0  0  0  0  0
  160.5760  205.1780  150.2380 C   0  0  0  0  0  3  0  0  0  0  0  0
  160.8180  203.7980  150.3170 C   0  0  0  0  0  0  0  0  0  0  0  0
  161.3300  201.5610  149.2510 C   0  0  0  0  0  2  0  0  0  0  0  0
  161.3690  201.8230  151.6780 N   0  0  0  0  0  2  0  0  0  0  0  0
  161.0000  200.9180  150.5930 C   0  0  0  0  0  2  0  0  0  0  0  0
  161.1150  205.4330  152.5920 C   0  0  0  0  0  0  0  0  0  0  0  0
  161.3280  204.0500  152.6820 C   0  0  0  0  0  3  0  0  0  0  0  0
  160.7300  205.9890  151.3650 C   0  0  0  0  0  3  0  0  0  0  0  0
  161.1650  203.2340  151.5600 C   0  0  0  0  0  0  0  0  0  0  0  0
  161.2790  206.2910  153.7790 C   0  0  0  0  0  0  0  0  0  0  0  0
  160.1450  206.9010  154.3920 N   0  0  0  0  0  1  0  0  0  0  0  0
  162.4230  206.4920  154.2670 O   0  0  0  0  0  0  0  0  0  0  0  0
  162.3330  208.4840  149.6420 N   0  0  0  0  0  2  0  0  0  0  0  0
  161.8320  209.7620  150.1550 C   0  0  2  0  0  3  0  0  0  0  0  0
  162.5120  210.9420  149.4730 C   0  0  0  0  0  2  0  0  0  0  0  0
  160.9410  212.7180  149.6500 O   0  0  0  0  0  1  0  0  0  0  0  0
  161.4910  211.8040  148.7450 C   0  0  1  0  0  3  0  0  0  0  0  0
  162.1630  212.5380  147.5830 C   0  0  2  0  0  3  0  0  0  0  0  0
  163.5030  212.7940  147.8820 O   0  0  0  0  0  1  0  0  0  0  0  0
  161.4710  213.8660  147.3110 C   0  0  0  0  0  2  0  0  0  0  0  0
  161.6670  214.2680  145.9890 O   0  0  0  0  0  0  0  0  0  0  0  0
  161.1800  213.2050  145.2270 C   0  0  0  0  0  2  0  0  0  0  0  0
  161.6810  213.3000  143.8590 N   0  0  0  0  0  0  0  0  0  0  0  0
  163.1320  213.1630  143.8860 C   0  0  0  0  0  1  0  0  0  0  0  0
  161.1080  212.2250  143.0400 C   0  0  0  0  0  2  0  0  0  0  0  0
  161.0700  211.0500  140.8590 C   0  0  0  0  0  2  0  0  0  0  0  0
  161.1870  212.5320  140.5720 C   0  0  0  0  0  2  0  0  0  0  0  0
  161.9030  211.9330  141.7660 C   0  0  0  0  0  3  0  0  0  0  0  0
  161.9850  209.8600  151.6660 C   0  0  0  0  0  2  0  0  0  0  0  0
  160.6770  209.8900  152.2980 N   0  0  0  0  0  2  0  0  0  0  0  0
  160.6530  211.0470  153.1780 C   0  0  0  0  0  2  0  0  0  0  0  0
  159.2280  212.6590  153.6710 C   0  0  0  0  0  1  0  0  0  0  0  0
  159.8950  212.0660  152.5990 O   0  0  0  0  0  0  0  0  0  0  0  0
  1 23  1  0  0  0  0
  2  1  1  0  0  0  0
  3  5  1  0  0  0  0
  3  2  1  0  0  0  0
  5  7  2  0  0  0  0
  6  9  2  0  0  0  0
  6  5  1  0  0  0  0
  7  4  1  0  0  0  0
  8  4  2  0  0  0  0
  9  8  1  0  0  0  0
 10  4  1  6  0  0  0
 10 13  1  0  0  0  0
 10 12  1  0  0  0  0
 11 12  2  0  0  0  0
 11 18  1  0  0  0  0
 12 19  1  0  0  0  0
 13 15  1  0  0  0  0
 15 14  1  0  0  0  0
 16 17  1  0  0  0  0
 16 20  1  0  0  0  0
 18 16  2  0  0  0  0
 19 14  1  0  0  0  0
 19 17  2  0  0  0  0
 20 22  2  0  0  0  0
 20 21  1  0  0  0  0
 23 24  1  0  0  0  0
 24 25  1  6  0  0  0
 24 39  1  0  0  0  0
 27 25  1  0  0  0  0
 27 26  1  1  0  0  0
 28 29  1  1  0  0  0
 28 27  1  0  0  0  0
 30 28  1  0  0  0  0
 31 30  1  0  0  0  0
 32 31  1  0  0  0  0
 33 34  1  0  0  0  0
 33 32  1  0  0  0  0
 35 33  1  0  0  0  0
 36 38  1  0  0  0  0
 37 36  1  0  0  0  0
 37 38  1  0  0  0  0
 38 35  1  0  0  0  0
 39 40  1  0  0  0  0
 40 41  1  0  0  0  0
 43 41  1  0  0  0  0
 43 42  1  0  0  0  0
M  END
>  <MODEL>
6

>  <REMARK>
 VINA RESULT:      -6.0      3.146      8.595
  Name = 
  20 active torsions:
  status: ('A' for Active; 'I' for Inactive)
    1  A    between atoms: N_1  and  C_24
    2  A    between atoms: N_1  and  C_36
    3  A    between atoms: N_3  and  C_20
    4  A    between atoms: N_3  and  C_31
    5  A    between atoms: C_4  and  C_10
    6  A    between atoms: C_4  and  C_13
    7  A    between atoms: O_5  and  N_32
    8  A    between atoms: O_5  and  C_43
    9  A    between atoms: C_7  and  C_8
   10  A    between atoms: C_10  and  O_23
   11  A    between atoms: C_12  and  C_43
   12  A    between atoms: C_13  and  C_14
   13  A    between atoms: C_14  and  C_26
   14  A    between atoms: C_18  and  C_29
   15  A    between atoms: C_20  and  C_26
   16  A    between atoms: O_23  and  C_24
   17  A    between atoms: C_26  and  N_37
   18  A    between atoms: O_27  and  C_31
   19  A    between atoms: N_32  and  N_37
   20  A    between atoms: C_36  and  C_42
                            x       y       z     vdW  Elec       q    Type
                         _______ _______ _______ _____ _____    ______ ____

>  <TORSDO>
F 20

$$$$
=
 OpenBabel11072410103D

 43 46  0  0  1  0  0  0  0  0999 V2000
  161.0120  205.5220  152.6070 N   0  0  0  0  0  2  0  0  0  0  0  0
  161.4180  206.5580  153.3770 O   0  0  0  0  0  0  0  0  0  0  0  0
  160.6140  206.4820  154.5150 C   0  0  0  0  0  2  0  0  0  0  0  0
  159.8100  209.8700  155.9690 C   0  0  0  0  0  0  0  0  0  0  0  0
  160.7250  207.7470  155.2890 C   0  0  0  0  0  0  0  0  0  0  0  0
  161.8980  208.0420  155.9870 C   0  0  0  0  0  3  0  0  0  0  0  0
  159.6770  208.6680  155.2720 C   0  0  0  0  0  3  0  0  0  0  0  0
  160.9630  210.1400  156.6460 N   0  0  0  0  0  0  0  0  0  0  0  0
  161.9970  209.2560  156.6700 C   0  0  0  0  0  3  0  0  0  0  0  0
  158.7010  210.8770  155.9180 C   0  0  2  0  0  3  0  0  0  0  0  0
  159.0060  211.0340  153.4020 C   0  0  0  0  0  3  0  0  0  0  0  0
  158.6810  211.6560  154.6170 C   0  0  0  0  0  0  0  0  0  0  0  0
  158.7710  211.7950  157.1420 C   0  0  0  0  0  2  0  0  0  0  0  0
  157.8480  213.6320  155.8250 N   0  0  0  0  0  2  0  0  0  0  0  0
  157.6900  212.8650  157.0580 C   0  0  0  0  0  2  0  0  0  0  0  0
  158.5270  213.0870  152.1950 C   0  0  0  0  0  0  0  0  0  0  0  0
  158.1720  213.7020  153.4040 C   0  0  0  0  0  3  0  0  0  0  0  0
  158.9350  211.7460  152.2020 C   0  0  0  0  0  3  0  0  0  0  0  0
  158.2320  212.9910  154.6050 C   0  0  0  0  0  0  0  0  0  0  0  0
  158.4550  213.8360  150.9280 C   0  0  0  0  0  0  0  0  0  0  0  0
  157.2350  213.9000  150.1940 N   0  0  0  0  0  1  0  0  0  0  0  0
  159.4720  214.4330  150.4830 O   0  0  0  0  0  0  0  0  0  0  0  0
  162.0040  205.3320  151.6300 N   0  0  0  0  0  2  0  0  0  0  0  0
  161.4800  204.4450  150.5870 C   0  0  2  0  0  3  0  0  0  0  0  0
  160.8290  205.2340  149.4590 C   0  0  0  0  0  2  0  0  0  0  0  0
  161.0490  204.1840  147.3380 O   0  0  0  0  0  1  0  0  0  0  0  0
  161.6490  205.1230  148.1830 C   0  0  1  0  0  3  0  0  0  0  0  0
  161.7280  206.4880  147.4960 C   0  0  2  0  0  3  0  0  0  0  0  0
  162.2840  206.3580  146.2210 O   0  0  0  0  0  1  0  0  0  0  0  0
  162.5940  207.4480  148.3000 C   0  0  0  0  0  2  0  0  0  0  0  0
  161.8340  208.5100  148.7930 O   0  0  0  0  0  0  0  0  0  0  0  0
  162.1620  208.5720  150.1480 C   0  0  0  0  0  2  0  0  0  0  0  0
  161.6900  209.8300  150.7190 N   0  0  0  0  0  0  0  0  0  0  0  0
  162.0600  209.8680  152.1290 C   0  0  0  0  0  1  0  0  0  0  0  0
  162.3140  210.9610  150.0240 C   0  0  0  0  0  2  0  0  0  0  0  0
  162.0650  212.9650  148.5870 C   0  0  0  0  0  2  0  0  0  0  0  0
  161.8230  211.7510  147.7160 C   0  0  0  0  0  2  0  0  0  0  0  0
  161.3410  211.7590  149.1520 C   0  0  0  0  0  3  0  0  0  0  0  0
  160.5050  203.4240  151.1560 C   0  0  0  0  0  2  0  0  0  0  0  0
  161.1750  202.1490  151.3470 N   0  0  0  0  0  2  0  0  0  0  0  0
  160.7010  201.2550  150.3030 C   0  0  0  0  0  2  0  0  0  0  0  0
  160.7280  201.4600  148.1060 C   0  0  0  0  0  1  0  0  0  0  0  0
  161.5670  201.3050  149.2100 O   0  0  0  0  0  0  0  0  0  0  0  0
  1  2  1  0  0  0  0
  2  3  1  0  0  0  0
  3  5  1  0  0  0  0
  4  8  1  0  0  0  0
  5  6  2  0  0  0  0
  6  9  1  0  0  0  0
  7  5  1  0  0  0  0
  7  4  2  0  0  0  0
  8  9  2  0  0  0  0
 10  4  1  6  0  0  0
 10 13  1  0  0  0  0
 11 12  1  0  0  0  0
 12 10  1  0  0  0  0
 14 15  1  0  0  0  0
 15 13  1  0  0  0  0
 16 18  1  0  0  0  0
 16 17  2  0  0  0  0
 17 19  1  0  0  0  0
 18 11  2  0  0  0  0
 19 12  2  0  0  0  0
 19 14  1  0  0  0  0
 20 16  1  0  0  0  0
 21 20  1  0  0  0  0
 22 20  2  0  0  0  0
 23  1  1  0  0  0  0
 24 25  1  6  0  0  0
 24 39  1  0  0  0  0
 24 23  1  0  0  0  0
 27 26  1  6  0  0  0
 27 25  1  0  0  0  0
 28 29  1  6  0  0  0
 28 27  1  0  0  0  0
 28 30  1  0  0  0  0
 30 31  1  0  0  0  0
 31 32  1  0  0  0  0
 32 33  1  0  0  0  0
 33 34  1  0  0  0  0
 35 33  1  0  0  0  0
 36 38  1  0  0  0  0
 37 36  1  0  0  0  0
 37 38  1  0  0  0  0
 38 35  1  0  0  0  0
 39 40  1  0  0  0  0
 41 40  1  0  0  0  0
 42 43  1  0  0  0  0
 43 41  1  0  0  0  0
M  END
>  <MODEL>
7

>  <REMARK>
 VINA RESULT:      -5.8      2.066      6.454
  Name = 
  20 active torsions:
  status: ('A' for Active; 'I' for Inactive)
    1  A    between atoms: N_1  and  C_24
    2  A    between atoms: N_1  and  C_36
    3  A    between atoms: N_3  and  C_20
    4  A    between atoms: N_3  and  C_31
    5  A    between atoms: C_4  and  C_10
    6  A    between atoms: C_4  and  C_13
    7  A    between atoms: O_5  and  N_32
    8  A    between atoms: O_5  and  C_43
    9  A    between atoms: C_7  and  C_8
   10  A    between atoms: C_10  and  O_23
   11  A    between atoms: C_12  and  C_43
   12  A    between atoms: C_13  and  C_14
   13  A    between atoms: C_14  and  C_26
   14  A    between atoms: C_18  and  C_29
   15  A    between atoms: C_20  and  C_26
   16  A    between atoms: O_23  and  C_24
   17  A    between atoms: C_26  and  N_37
   18  A    between atoms: O_27  and  C_31
   19  A    between atoms: N_32  and  N_37
   20  A    between atoms: C_36  and  C_42
                            x       y       z     vdW  Elec       q    Type
                         _______ _______ _______ _____ _____    ______ ____

>  <TORSDO>
F 20

$$$$
=
 OpenBabel11072410103D

 43 46  0  0  1  0  0  0  0  0999 V2000
  160.0690  209.5640  152.7340 N   0  0  0  0  0  2  0  0  0  0  0  0
  161.2990  209.0120  152.6240 O   0  0  0  0  0  0  0  0  0  0  0  0
  161.2610  207.9010  153.4670 C   0  0  0  0  0  2  0  0  0  0  0  0
  161.1290  205.5490  150.5190 C   0  0  0  0  0  0  0  0  0  0  0  0
  161.2820  206.6560  152.6540 C   0  0  0  0  0  0  0  0  0  0  0  0
  161.3750  205.4110  153.2800 C   0  0  0  0  0  3  0  0  0  0  0  0
  161.1490  206.7280  151.2670 C   0  0  0  0  0  3  0  0  0  0  0  0
  161.2230  204.3440  151.1490 N   0  0  0  0  0  0  0  0  0  0  0  0
  161.3480  204.2530  152.5000 C   0  0  0  0  0  3  0  0  0  0  0  0
  160.9460  205.6240  149.0330 C   0  0  2  0  0  3  0  0  0  0  0  0
  160.4680  203.1300  149.0010 C   0  0  0  0  0  3  0  0  0  0  0  0
  161.0070  204.2610  148.3710 C   0  0  0  0  0  0  0  0  0  0  0  0
  161.9560  206.6070  148.4310 C   0  0  0  0  0  2  0  0  0  0  0  0
  162.0240  205.2880  146.3780 N   0  0  0  0  0  2  0  0  0  0  0  0
  161.8230  206.6310  146.9140 C   0  0  0  0  0  2  0  0  0  0  0  0
  161.0230  201.7600  147.0740 C   0  0  0  0  0  0  0  0  0  0  0  0
  161.5350  202.8940  146.4290 C   0  0  0  0  0  3  0  0  0  0  0  0
  160.4820  201.8880  148.3600 C   0  0  0  0  0  3  0  0  0  0  0  0
  161.5140  204.1400  147.0620 C   0  0  0  0  0  0  0  0  0  0  0  0
  161.0390  200.4490  146.4010 C   0  0  0  0  0  0  0  0  0  0  0  0
  160.4530  200.2920  145.1120 N   0  0  0  0  0  1  0  0  0  0  0  0
  161.5750  199.4540  146.9580 O   0  0  0  0  0  0  0  0  0  0  0  0
  159.9580  210.0490  154.0480 N   0  0  0  0  0  2  0  0  0  0  0  0
  159.5080  211.4430  154.0050 C   0  0  2  0  0  3  0  0  0  0  0  0
  159.9390  212.1290  152.7160 C   0  0  0  0  0  2  0  0  0  0  0  0
  157.5970  211.8740  152.4040 O   0  0  0  0  0  1  0  0  0  0  0  0
  158.7280  212.5040  151.8760 C   0  0  1  0  0  3  0  0  0  0  0  0
  158.5450  214.0230  151.8770 C   0  0  2  0  0  3  0  0  0  0  0  0
  158.0670  214.4530  153.1160 O   0  0  0  0  0  1  0  0  0  0  0  0
  157.5470  214.4460  150.8070 C   0  0  0  0  0  2  0  0  0  0  0  0
  157.4990  213.5100  149.7730 O   0  0  0  0  0  0  0  0  0  0  0  0
  157.9490  214.2080  148.6510 C   0  0  0  0  0  2  0  0  0  0  0  0
  158.9520  213.4210  147.9410 N   0  0  0  0  0  0  0  0  0  0  0  0
  158.5560  213.3190  146.5410 C   0  0  0  0  0  1  0  0  0  0  0  0
  160.2600  214.0810  148.0270 C   0  0  0  0  0  2  0  0  0  0  0  0
  162.0680  212.8690  146.8440 C   0  0  0  0  0  2  0  0  0  0  0  0
  162.7250  213.8040  147.8370 C   0  0  0  0  0  2  0  0  0  0  0  0
  161.4290  213.1080  148.1970 C   0  0  0  0  0  3  0  0  0  0  0  0
  159.9970  212.2270  155.2150 C   0  0  0  0  0  2  0  0  0  0  0  0
  159.0600  212.0760  156.3160 N   0  0  0  0  0  2  0  0  0  0  0  0
  158.0860  213.1490  156.1990 C   0  0  0  0  0  2  0  0  0  0  0  0
  155.9360  213.3560  156.6560 C   0  0  0  0  0  1  0  0  0  0  0  0
  156.8340  212.6180  155.8850 O   0  0  0  0  0  0  0  0  0  0  0  0
  1 23  1  0  0  0  0
  2  1  1  0  0  0  0
  2  3  1  0  0  0  0
  4  8  2  0  0  0  0
  4  7  1  0  0  0  0
  5  6  1  0  0  0  0
  5  3  1  0  0  0  0
  7  5  2  0  0  0  0
  8  9  1  0  0  0  0
  9  6  2  0  0  0  0
 10  4  1  1  0  0  0
 12 11  1  0  0  0  0
 12 10  1  0  0  0  0
 13 10  1  0  0  0  0
 14 15  1  0  0  0  0
 14 19  1  0  0  0  0
 15 13  1  0  0  0  0
 16 18  1  0  0  0  0
 17 19  1  0  0  0  0
 17 16  2  0  0  0  0
 18 11  2  0  0  0  0
 19 12  2  0  0  0  0
 20 22  2  0  0  0  0
 20 16  1  0  0  0  0
 21 20  1  0  0  0  0
 24 25  1  6  0  0  0
 24 23  1  0  0  0  0
 24 39  1  0  0  0  0
 27 28  1  0  0  0  0
 27 26  1  1  0  0  0
 27 25  1  0  0  0  0
 28 29  1  1  0  0  0
 30 28  1  0  0  0  0
 31 30  1  0  0  0  0
 32 31  1  0  0  0  0
 33 35  1  0  0  0  0
 33 32  1  0  0  0  0
 34 33  1  0  0  0  0
 35 38  1  0  0  0  0
 36 37  1  0  0  0  0
 36 38  1  0  0  0  0
 37 38  1  0  0  0  0
 39 40  1  0  0  0  0
 41 40  1  0  0  0  0
 43 41  1  0  0  0  0
 43 42  1  0  0  0  0
M  END
>  <MODEL>
8

>  <REMARK>
 VINA RESULT:      -5.7      2.709      9.931
  Name = 
  20 active torsions:
  status: ('A' for Active; 'I' for Inactive)
    1  A    between atoms: N_1  and  C_24
    2  A    between atoms: N_1  and  C_36
    3  A    between atoms: N_3  and  C_20
    4  A    between atoms: N_3  and  C_31
    5  A    between atoms: C_4  and  C_10
    6  A    between atoms: C_4  and  C_13
    7  A    between atoms: O_5  and  N_32
    8  A    between atoms: O_5  and  C_43
    9  A    between atoms: C_7  and  C_8
   10  A    between atoms: C_10  and  O_23
   11  A    between atoms: C_12  and  C_43
   12  A    between atoms: C_13  and  C_14
   13  A    between atoms: C_14  and  C_26
   14  A    between atoms: C_18  and  C_29
   15  A    between atoms: C_20  and  C_26
   16  A    between atoms: O_23  and  C_24
   17  A    between atoms: C_26  and  N_37
   18  A    between atoms: O_27  and  C_31
   19  A    between atoms: N_32  and  N_37
   20  A    between atoms: C_36  and  C_42
                            x       y       z     vdW  Elec       q    Type
                         _______ _______ _______ _____ _____    ______ ____

>  <TORSDO>
F 20

$$$$
=
 OpenBabel11072410103D

 43 46  0  0  1  0  0  0  0  0999 V2000
  160.5290  202.4910  150.4860 N   0  0  0  0  0  2  0  0  0  0  0  0
  161.3240  203.5490  150.7660 O   0  0  0  0  0  0  0  0  0  0  0  0
  161.1010  203.8050  152.1190 C   0  0  0  0  0  2  0  0  0  0  0  0
  161.0950  207.2170  153.7310 C   0  0  0  0  0  0  0  0  0  0  0  0
  161.4320  205.2230  152.4200 C   0  0  0  0  0  0  0  0  0  0  0  0
  162.3240  205.9240  151.6050 C   0  0  0  0  0  3  0  0  0  0  0  0
  160.8070  205.8730  153.4850 C   0  0  0  0  0  3  0  0  0  0  0  0
  161.9690  207.8830  152.9250 N   0  0  0  0  0  0  0  0  0  0  0  0
  162.5860  207.2680  151.8790 C   0  0  0  0  0  3  0  0  0  0  0  0
  160.3940  207.9270  154.8500 C   0  0  2  0  0  3  0  0  0  0  0  0
  159.5660  209.6580  153.1860 C   0  0  0  0  0  3  0  0  0  0  0  0
  160.0000  209.3450  154.4830 C   0  0  0  0  0  0  0  0  0  0  0  0
  161.2480  207.8720  156.1200 C   0  0  0  0  0  2  0  0  0  0  0  0
  160.3580  210.0360  156.8180 N   0  0  0  0  0  2  0  0  0  0  0  0
  160.5720  208.6550  157.2400 C   0  0  0  0  0  2  0  0  0  0  0  0
  159.1610  211.9590  153.8500 C   0  0  0  0  0  0  0  0  0  0  0  0
  159.5660  211.6420  155.1550 C   0  0  0  0  0  3  0  0  0  0  0  0
  159.1550  210.9560  152.8710 C   0  0  0  0  0  3  0  0  0  0  0  0
  159.9670  210.3430  155.4760 C   0  0  0  0  0  0  0  0  0  0  0  0
  158.7300  213.3280  153.5150 C   0  0  0  0  0  0  0  0  0  0  0  0
  158.5580  213.7190  152.1550 N   0  0  0  0  0  1  0  0  0  0  0  0
  158.5060  214.1660  154.4290 O   0  0  0  0  0  0  0  0  0  0  0  0
  160.0050  202.7060  149.2000 N   0  0  0  0  0  2  0  0  0  0  0  0
  161.1130  202.9170  148.2640 C   0  0  2  0  0  3  0  0  0  0  0  0
  160.8900  204.1550  147.4050 C   0  0  0  0  0  2  0  0  0  0  0  0
  162.3130  205.7510  146.3660 O   0  0  0  0  0  1  0  0  0  0  0  0
  162.0210  205.1530  147.5970 C   0  0  1  0  0  3  0  0  0  0  0  0
  161.6130  206.2120  148.6230 C   0  0  2  0  0  3  0  0  0  0  0  0
  160.2530  206.5050  148.5030 O   0  0  0  0  0  1  0  0  0  0  0  0
  162.4000  207.4980  148.4140 C   0  0  0  0  0  2  0  0  0  0  0  0
  161.6450  208.6100  148.7900 O   0  0  0  0  0  0  0  0  0  0  0  0
  162.3260  209.6960  148.2370 C   0  0  0  0  0  2  0  0  0  0  0  0
  161.8490  210.9400  148.8320 N   0  0  0  0  0  0  0  0  0  0  0  0
  161.9740  210.8400  150.2810 C   0  0  0  0  0  1  0  0  0  0  0  0
  162.6590  212.0670  148.3530 C   0  0  0  0  0  2  0  0  0  0  0  0
  162.5800  214.3260  147.3390 C   0  0  0  0  0  2  0  0  0  0  0  0
  161.2980  213.6160  146.9600 C   0  0  0  0  0  2  0  0  0  0  0  0
  161.9070  213.3990  148.3310 C   0  0  0  0  0  3  0  0  0  0  0  0
  161.3460  201.6950  147.3860 C   0  0  0  0  0  2  0  0  0  0  0  0
  160.4030  201.6920  146.2790 N   0  0  0  0  0  2  0  0  0  0  0  0
  160.6040  200.4500  145.5510 C   0  0  0  0  0  2  0  0  0  0  0  0
  161.5620  198.4610  145.5300 C   0  0  0  0  0  1  0  0  0  0  0  0
  161.2070  199.5060  146.3840 O   0  0  0  0  0  0  0  0  0  0  0  0
  1  2  1  0  0  0  0
  2  3  1  0  0  0  0
  3  5  1  0  0  0  0
  5  7  2  0  0  0  0
  6  9  2  0  0  0  0
  6  5  1  0  0  0  0
  7  4  1  0  0  0  0
  8  4  2  0  0  0  0
  9  8  1  0  0  0  0
 10  4  1  6  0  0  0
 10 13  1  0  0  0  0
 11 12  1  0  0  0  0
 12 10  1  0  0  0  0
 12 19  2  0  0  0  0
 13 15  1  0  0  0  0
 14 15  1  0  0  0  0
 16 17  2  0  0  0  0
 17 19  1  0  0  0  0
 18 11  2  0  0  0  0
 18 16  1  0  0  0  0
 19 14  1  0  0  0  0
 20 16  1  0  0  0  0
 20 22  2  0  0  0  0
 21 20  1  0  0  0  0
 23  1  1  0  0  0  0
 24 39  1  6  0  0  0
 24 23  1  0  0  0  0
 25 27  1  0  0  0  0
 25 24  1  0  0  0  0
 27 26  1  6  0  0  0
 27 28  1  0  0  0  0
 28 29  1  6  0  0  0
 30 28  1  0  0  0  0
 30 31  1  0  0  0  0
 32 31  1  0  0  0  0
 32 33  1  0  0  0  0
 33 34  1  0  0  0  0
 35 33  1  0  0  0  0
 36 38  1  0  0  0  0
 37 36  1  0  0  0  0
 37 38  1  0  0  0  0
 38 35  1  0  0  0  0
 40 39  1  0  0  0  0
 41 40  1  0  0  0  0
 41 43  1  0  0  0  0
 42 43  1  0  0  0  0
M  END
>  <MODEL>
9

>  <REMARK>
 VINA RESULT:      -5.4      2.192      7.160
  Name = 
  20 active torsions:
  status: ('A' for Active; 'I' for Inactive)
    1  A    between atoms: N_1  and  C_24
    2  A    between atoms: N_1  and  C_36
    3  A    between atoms: N_3  and  C_20
    4  A    between atoms: N_3  and  C_31
    5  A    between atoms: C_4  and  C_10
    6  A    between atoms: C_4  and  C_13
    7  A    between atoms: O_5  and  N_32
    8  A    between atoms: O_5  and  C_43
    9  A    between atoms: C_7  and  C_8
   10  A    between atoms: C_10  and  O_23
   11  A    between atoms: C_12  and  C_43
   12  A    between atoms: C_13  and  C_14
   13  A    between atoms: C_14  and  C_26
   14  A    between atoms: C_18  and  C_29
   15  A    between atoms: C_20  and  C_26
   16  A    between atoms: O_23  and  C_24
   17  A    between atoms: C_26  and  N_37
   18  A    between atoms: O_27  and  C_31
   19  A    between atoms: N_32  and  N_37
   20  A    between atoms: C_36  and  C_42
                            x       y       z     vdW  Elec       q    Type
                         _______ _______ _______ _____ _____    ______ ____

>  <TORSDO>
F 20

$$$$
