=
 OpenBabel11072414333D

 36 39  0  0  1  0  0  0  0  0999 V2000
  160.6680  207.8420  152.2170 C   0  0  0  0  0  2  0  0  0  0  0  0
  160.0900  206.7080  154.2320 O   0  0  0  0  0  1  0  0  0  0  0  0
  162.3190  206.2290  152.0180 C   0  0  2  0  0  3  0  0  0  0  0  0
  162.2020  206.4500  153.4000 O   0  0  0  0  0  0  0  0  0  0  0  0
  163.6460  205.9490  151.6860 O   0  0  0  0  0  1  0  0  0  0  0  0
  161.7610  207.4420  151.2690 C   0  0  2  0  0  0  0  0  0  0  0  0
  161.1410  207.3570  153.5770 C   0  0  1  0  0  0  0  0  0  0  0  0
  162.0140  209.7520  151.1370 C   0  0  0  0  0  1  0  0  0  0  0  0
  162.6870  208.5180  151.2030 O   0  0  0  0  0  0  0  0  0  0  0  0
  161.1020  207.9130  149.0290 O   0  0  0  0  0  0  0  0  0  0  0  0
  161.1380  207.0770  149.9200 C   0  0  0  0  0  0  0  0  0  0  0  0
  161.1660  201.2450  148.3270 C   0  0  0  0  0  3  0  0  0  0  0  0
  161.1700  202.5460  147.8030 C   0  0  0  0  0  3  0  0  0  0  0  0
  160.9930  205.0590  148.3240 C   0  0  2  0  0  3  0  0  0  0  0  0
  160.6530  204.6830  150.7670 C   0  0  0  0  0  2  0  0  0  0  0  0
  160.8200  203.4170  150.0270 C   0  0  0  0  0  0  0  0  0  0  0  0
  160.5230  205.7210  149.6400 C   0  0  1  0  0  3  0  0  0  0  0  0
  160.9940  203.6200  148.6790 C   0  0  0  0  0  0  0  0  0  0  0  0
  160.8140  202.1310  150.5700 C   0  0  0  0  0  3  0  0  0  0  0  0
  160.9900  201.0380  149.7080 C   0  0  0  0  0  3  0  0  0  0  0  0
  162.2970  205.4480  147.9990 O   0  0  0  0  0  0  0  0  0  0  0  0
  162.2600  205.7250  146.6320 C   0  0  0  0  0  2  0  0  0  0  0  0
  163.1840  204.9200  145.9700 O   0  0  0  0  0  1  0  0  0  0  0  0
  161.6470  208.5330  154.4180 C   0  0  0  0  0  2  0  0  0  0  0  0
  160.6310  209.0620  155.3870 C   0  0  0  0  0  0  0  0  0  0  0  0
  160.6340  208.6590  156.5390 O   0  0  0  0  0  0  0  0  0  0  0  0
  159.6370  210.0920  154.9520 C   0  0  0  0  0  2  0  0  0  0  0  0
  160.2810  211.4730  154.8880 C   0  0  1  0  0  3  0  0  0  0  0  0
  159.4240  212.0620  152.7210 C   0  0  0  0  0  0  0  0  0  0  0  0
  158.4570  212.1880  151.9600 O   0  0  0  0  0  0  0  0  0  0  0  0
  160.4200  211.9310  153.5050 N   0  0  0  0  0  0  0  0  0  0  0  0
  159.4810  212.4650  155.7250 C   0  0  0  0  0  2  0  0  0  0  0  0
  158.2760  211.7970  156.3700 C   0  0  0  0  0  2  0  0  0  0  0  0
  157.0070  212.5590  156.0400 C   0  0  0  0  0  3  0  0  0  0  0  0
  156.3280  211.9040  154.8550 C   0  0  0  0  0  2  0  0  0  0  0  0
  155.8140  211.6500  156.2550 C   0  0  0  0  0  2  0  0  0  0  0  0
  1  7  1  0  0  0  0
  3  5  1  1  0  0  0
  3  4  1  0  0  0  0
  4  7  1  0  0  0  0
  6 11  1  6  0  0  0
  6  3  1  0  0  0  0
  6  1  1  0  0  0  0
  7  2  1  1  0  0  0
  7 24  1  0  0  0  0
  8  9  1  0  0  0  0
  9  6  1  0  0  0  0
 10 11  2  0  0  0  0
 12 20  1  0  0  0  0
 13 12  2  0  0  0  0
 13 18  1  0  0  0  0
 14 21  1  1  0  0  0
 14 18  1  0  0  0  0
 14 17  1  0  0  0  0
 16 19  1  0  0  0  0
 16 15  1  0  0  0  0
 17 11  1  1  0  0  0
 17 15  1  0  0  0  0
 18 16  2  0  0  0  0
 20 19  2  0  0  0  0
 22 21  1  0  0  0  0
 23 22  1  0  0  0  0
 24 25  1  0  0  0  0
 25 26  2  0  0  0  0
 27 25  1  0  0  0  0
 28 27  1  6  0  0  0
 28 32  1  0  0  0  0
 29 31  2  0  0  0  0
 30 29  2  0  0  0  0
 31 28  1  0  0  0  0
 32 33  1  0  0  0  0
 34 36  1  0  0  0  0
 34 33  1  0  0  0  0
 35 34  1  0  0  0  0
 35 36  1  0  0  0  0
M  END
>  <MODEL>
1

>  <REMARK>
 VINA RESULT:      -7.5      0.000      0.000
  Name = 
  13 active torsions:
  status: ('A' for Active; 'I' for Inactive)
    1  A    between atoms: C_4  and  C_7
    2  A    between atoms: C_4  and  C_18
    3  A    between atoms: C_7  and  C_24
    4  A    between atoms: O_9  and  C_11
    5  A    between atoms: O_9  and  C_21
    6  A    between atoms: C_14  and  C_16
    7  A    between atoms: C_14  and  C_27
    8  A    between atoms: C_16  and  C_35
    9  A    between atoms: C_17  and  C_32
   10  A    between atoms: O_23  and  C_33
   11  A    between atoms: C_24  and  C_27
   12  A    between atoms: C_24  and  N_36
   13  A    between atoms: C_32  and  C_33
                            x       y       z     vdW  Elec       q    Type
                         _______ _______ _______ _____ _____    ______ ____

>  <TORSDO>
F 13

$$$$
=
 OpenBabel11072414333D

 36 39  0  0  1  0  0  0  0  0999 V2000
  160.6130  208.0440  152.1500 C   0  0  0  0  0  2  0  0  0  0  0  0
  159.9270  207.0460  154.2020 O   0  0  0  0  0  1  0  0  0  0  0  0
  162.2090  206.3660  152.0980 C   0  0  2  0  0  3  0  0  0  0  0  0
  162.0540  206.6680  153.4610 O   0  0  0  0  0  0  0  0  0  0  0  0
  163.5350  206.0210  151.8300 O   0  0  0  0  0  1  0  0  0  0  0  0
  161.7210  207.5530  151.2640 C   0  0  2  0  0  0  0  0  0  0  0  0
  161.0220  207.6200  153.5510 C   0  0  1  0  0  0  0  0  0  0  0  0
  162.0660  209.8360  150.9680 C   0  0  0  0  0  1  0  0  0  0  0  0
  162.6890  208.5910  151.1720 O   0  0  0  0  0  0  0  0  0  0  0  0
  161.1170  207.9350  148.9920 O   0  0  0  0  0  0  0  0  0  0  0  0
  161.1310  207.1360  149.9170 C   0  0  0  0  0  0  0  0  0  0  0  0
  161.1770  201.2650  148.4730 C   0  0  0  0  0  3  0  0  0  0  0  0
  161.1700  202.5520  147.9160 C   0  0  0  0  0  3  0  0  0  0  0  0
  160.9840  205.0760  148.3740 C   0  0  2  0  0  3  0  0  0  0  0  0
  160.6660  204.7610  150.8280 C   0  0  0  0  0  2  0  0  0  0  0  0
  160.8330  203.4770  150.1190 C   0  0  0  0  0  0  0  0  0  0  0  0
  160.5210  205.7700  149.6760 C   0  0  1  0  0  3  0  0  0  0  0  0
  160.9950  203.6470  148.7650 C   0  0  0  0  0  0  0  0  0  0  0  0
  160.8390  202.2060  150.6950 C   0  0  0  0  0  3  0  0  0  0  0  0
  161.0130  201.0920  149.8590 C   0  0  0  0  0  3  0  0  0  0  0  0
  162.2840  205.4640  148.0280 O   0  0  0  0  0  0  0  0  0  0  0  0
  162.2300  205.7210  146.6580 C   0  0  0  0  0  2  0  0  0  0  0  0
  163.0560  204.8230  145.9850 O   0  0  0  0  0  1  0  0  0  0  0  0
  161.5430  208.8240  154.3430 C   0  0  0  0  0  2  0  0  0  0  0  0
  161.2830  208.7330  155.8170 C   0  0  0  0  0  0  0  0  0  0  0  0
  161.9060  207.9250  156.4870 O   0  0  0  0  0  0  0  0  0  0  0  0
  160.2840  209.6390  156.4660 C   0  0  0  0  0  2  0  0  0  0  0  0
  159.6020  210.5240  155.4290 C   0  0  1  0  0  3  0  0  0  0  0  0
  157.5210  211.3240  156.3280 C   0  0  0  0  0  0  0  0  0  0  0  0
  156.9150  212.1250  157.0510 O   0  0  0  0  0  0  0  0  0  0  0  0
  158.1460  210.5010  155.5840 N   0  0  0  0  0  0  0  0  0  0  0  0
  160.1480  211.9460  155.5110 C   0  0  0  0  0  2  0  0  0  0  0  0
  159.7440  212.7630  154.2940 C   0  0  0  0  0  2  0  0  0  0  0  0
  159.9780  211.9710  153.0210 C   0  0  0  0  0  3  0  0  0  0  0  0
  158.6840  211.9000  152.2360 C   0  0  0  0  0  2  0  0  0  0  0  0
  159.7620  212.8790  151.8280 C   0  0  0  0  0  2  0  0  0  0  0  0
  1  7  1  0  0  0  0
  3  5  1  1  0  0  0
  3  4  1  0  0  0  0
  4  7  1  0  0  0  0
  6 11  1  6  0  0  0
  6  3  1  0  0  0  0
  6  1  1  0  0  0  0
  7  2  1  1  0  0  0
  7 24  1  0  0  0  0
  8  9  1  0  0  0  0
  9  6  1  0  0  0  0
 10 11  2  0  0  0  0
 12 20  1  0  0  0  0
 13 12  2  0  0  0  0
 13 18  1  0  0  0  0
 14 21  1  1  0  0  0
 14 18  1  0  0  0  0
 14 17  1  0  0  0  0
 16 19  1  0  0  0  0
 16 15  1  0  0  0  0
 17 11  1  1  0  0  0
 17 15  1  0  0  0  0
 18 16  2  0  0  0  0
 20 19  2  0  0  0  0
 22 21  1  0  0  0  0
 23 22  1  0  0  0  0
 24 25  1  0  0  0  0
 25 27  1  0  0  0  0
 25 26  2  0  0  0  0
 28 32  1  1  0  0  0
 28 31  1  0  0  0  0
 28 27  1  0  0  0  0
 29 30  2  0  0  0  0
 31 29  2  0  0  0  0
 33 32  1  0  0  0  0
 34 33  1  0  0  0  0
 35 34  1  0  0  0  0
 36 35  1  0  0  0  0
 36 34  1  0  0  0  0
M  END
>  <MODEL>
2

>  <REMARK>
 VINA RESULT:      -7.3      1.239      1.977
  Name = 
  13 active torsions:
  status: ('A' for Active; 'I' for Inactive)
    1  A    between atoms: C_4  and  C_7
    2  A    between atoms: C_4  and  C_18
    3  A    between atoms: C_7  and  C_24
    4  A    between atoms: O_9  and  C_11
    5  A    between atoms: O_9  and  C_21
    6  A    between atoms: C_14  and  C_16
    7  A    between atoms: C_14  and  C_27
    8  A    between atoms: C_16  and  C_35
    9  A    between atoms: C_17  and  C_32
   10  A    between atoms: O_23  and  C_33
   11  A    between atoms: C_24  and  C_27
   12  A    between atoms: C_24  and  N_36
   13  A    between atoms: C_32  and  C_33
                            x       y       z     vdW  Elec       q    Type
                         _______ _______ _______ _____ _____    ______ ____

>  <TORSDO>
F 13

$$$$
=
 OpenBabel11072414333D

 36 39  0  0  1  0  0  0  0  0999 V2000
  160.6710  207.8010  152.0550 C   0  0  0  0  0  2  0  0  0  0  0  0
  160.0680  206.6920  154.0770 O   0  0  0  0  0  1  0  0  0  0  0  0
  162.3430  206.2030  151.9120 C   0  0  2  0  0  3  0  0  0  0  0  0
  162.1980  206.4450  153.2880 O   0  0  0  0  0  0  0  0  0  0  0  0
  163.6790  205.9330  151.6090 O   0  0  0  0  0  1  0  0  0  0  0  0
  161.7850  207.3980  151.1340 C   0  0  2  0  0  0  0  0  0  0  0  0
  161.1230  207.3420  153.4310 C   0  0  1  0  0  0  0  0  0  0  0  0
  162.0190  209.7000  150.8860 C   0  0  0  0  0  1  0  0  0  0  0  0
  162.7010  208.4830  151.0670 O   0  0  0  0  0  0  0  0  0  0  0  0
  161.1930  207.8150  148.8640 O   0  0  0  0  0  0  0  0  0  0  0  0
  161.1920  207.0050  149.7800 C   0  0  0  0  0  0  0  0  0  0  0  0
  161.1440  201.1460  148.2900 C   0  0  0  0  0  3  0  0  0  0  0  0
  161.1660  202.4370  147.7430 C   0  0  0  0  0  3  0  0  0  0  0  0
  161.0220  204.9610  148.2190 C   0  0  2  0  0  3  0  0  0  0  0  0
  160.6740  204.6320  150.6680 C   0  0  0  0  0  2  0  0  0  0  0  0
  160.8250  203.3510  149.9500 C   0  0  0  0  0  0  0  0  0  0  0  0
  160.5590  205.6520  149.5230 C   0  0  1  0  0  3  0  0  0  0  0  0
  161.0030  203.5280  148.6000 C   0  0  0  0  0  0  0  0  0  0  0  0
  160.8020  202.0760  150.5160 C   0  0  0  0  0  3  0  0  0  0  0  0
  160.9640  200.9650  149.6740 C   0  0  0  0  0  3  0  0  0  0  0  0
  162.3320  205.3270  147.8890 O   0  0  0  0  0  0  0  0  0  0  0  0
  162.3140  205.5210  146.5080 C   0  0  0  0  0  2  0  0  0  0  0  0
  161.0800  206.0470  146.1290 O   0  0  0  0  0  1  0  0  0  0  0  0
  161.6010  208.5380  154.2620 C   0  0  0  0  0  2  0  0  0  0  0  0
  161.2650  208.4310  155.7200 C   0  0  0  0  0  0  0  0  0  0  0  0
  161.9110  207.6790  156.4310 O   0  0  0  0  0  0  0  0  0  0  0  0
  160.1600  209.2550  156.3030 C   0  0  0  0  0  2  0  0  0  0  0  0
  160.6740  210.6290  156.7230 C   0  0  1  0  0  3  0  0  0  0  0  0
  163.0420  211.0380  156.6620 C   0  0  0  0  0  0  0  0  0  0  0  0
  164.1210  211.1160  157.2610 O   0  0  0  0  0  0  0  0  0  0  0  0
  161.9290  210.9570  156.0460 N   0  0  0  0  0  0  0  0  0  0  0  0
  159.6080  211.6890  156.4640 C   0  0  0  0  0  2  0  0  0  0  0  0
  158.7950  211.3620  155.2210 C   0  0  0  0  0  2  0  0  0  0  0  0
  159.3240  212.1290  154.0240 C   0  0  0  0  0  3  0  0  0  0  0  0
  159.2910  211.2310  152.8050 C   0  0  0  0  0  2  0  0  0  0  0  0
  158.2150  212.2770  153.0020 C   0  0  0  0  0  2  0  0  0  0  0  0
  1  7  1  0  0  0  0
  3  5  1  1  0  0  0
  3  4  1  0  0  0  0
  4  7  1  0  0  0  0
  6 11  1  6  0  0  0
  6  3  1  0  0  0  0
  6  1  1  0  0  0  0
  7  2  1  1  0  0  0
  7 24  1  0  0  0  0
  8  9  1  0  0  0  0
  9  6  1  0  0  0  0
 10 11  2  0  0  0  0
 12 20  1  0  0  0  0
 13 12  2  0  0  0  0
 13 18  1  0  0  0  0
 14 21  1  1  0  0  0
 14 18  1  0  0  0  0
 14 17  1  0  0  0  0
 16 19  1  0  0  0  0
 16 15  1  0  0  0  0
 17 11  1  1  0  0  0
 17 15  1  0  0  0  0
 18 16  2  0  0  0  0
 20 19  2  0  0  0  0
 22 21  1  0  0  0  0
 23 22  1  0  0  0  0
 24 25  1  0  0  0  0
 25 27  1  0  0  0  0
 25 26  2  0  0  0  0
 28 27  1  6  0  0  0
 29 30  2  0  0  0  0
 31 29  2  0  0  0  0
 31 28  1  0  0  0  0
 32 28  1  0  0  0  0
 33 32  1  0  0  0  0
 34 33  1  0  0  0  0
 35 36  1  0  0  0  0
 35 34  1  0  0  0  0
 36 34  1  0  0  0  0
M  END
>  <MODEL>
3

>  <REMARK>
 VINA RESULT:      -7.2      1.498      2.110
  Name = 
  13 active torsions:
  status: ('A' for Active; 'I' for Inactive)
    1  A    between atoms: C_4  and  C_7
    2  A    between atoms: C_4  and  C_18
    3  A    between atoms: C_7  and  C_24
    4  A    between atoms: O_9  and  C_11
    5  A    between atoms: O_9  and  C_21
    6  A    between atoms: C_14  and  C_16
    7  A    between atoms: C_14  and  C_27
    8  A    between atoms: C_16  and  C_35
    9  A    between atoms: C_17  and  C_32
   10  A    between atoms: O_23  and  C_33
   11  A    between atoms: C_24  and  C_27
   12  A    between atoms: C_24  and  N_36
   13  A    between atoms: C_32  and  C_33
                            x       y       z     vdW  Elec       q    Type
                         _______ _______ _______ _____ _____    ______ ____

>  <TORSDO>
F 13

$$$$
=
 OpenBabel11072414333D

 36 39  0  0  1  0  0  0  0  0999 V2000
  160.7470  208.0470  151.1920 C   0  0  0  0  0  2  0  0  0  0  0  0
  160.2270  208.1860  153.5140 O   0  0  0  0  0  1  0  0  0  0  0  0
  162.2210  206.3750  151.8260 C   0  0  2  0  0  3  0  0  0  0  0  0
  162.2340  207.2870  152.8950 O   0  0  0  0  0  0  0  0  0  0  0  0
  163.4860  205.8080  151.6620 O   0  0  0  0  0  1  0  0  0  0  0  0
  161.7190  207.0890  150.5680 C   0  0  2  0  0  0  0  0  0  0  0  0
  161.2780  208.2760  152.5970 C   0  0  1  0  0  0  0  0  0  0  0  0
  162.1970  208.6180  148.8800 C   0  0  0  0  0  1  0  0  0  0  0  0
  162.7340  207.8590  149.9350 O   0  0  0  0  0  0  0  0  0  0  0  0
  159.7860  206.3860  149.3680 O   0  0  0  0  0  0  0  0  0  0  0  0
  160.9620  206.1620  149.6170 C   0  0  0  0  0  0  0  0  0  0  0  0
  161.1260  200.4530  147.6330 C   0  0  0  0  0  3  0  0  0  0  0  0
  161.2350  201.2370  148.7910 C   0  0  0  0  0  3  0  0  0  0  0  0
  161.3560  203.6190  149.7550 C   0  0  2  0  0  3  0  0  0  0  0  0
  161.2500  204.6960  147.5070 C   0  0  0  0  0  2  0  0  0  0  0  0
  161.1980  203.2230  147.4210 C   0  0  0  0  0  0  0  0  0  0  0  0
  161.5950  204.9390  148.9850 C   0  0  1  0  0  3  0  0  0  0  0  0
  161.2700  202.6270  148.6570 C   0  0  0  0  0  0  0  0  0  0  0  0
  161.0860  202.4630  146.2560 C   0  0  0  0  0  3  0  0  0  0  0  0
  161.0500  201.0650  146.3690 C   0  0  0  0  0  3  0  0  0  0  0  0
  160.1370  203.6460  150.4410 O   0  0  0  0  0  0  0  0  0  0  0  0
  160.4350  203.1790  151.7220 C   0  0  0  0  0  2  0  0  0  0  0  0
  161.8080  202.9720  151.8320 O   0  0  0  0  0  1  0  0  0  0  0  0
  161.9560  209.6470  152.6960 C   0  0  0  0  0  2  0  0  0  0  0  0
  161.0990  210.6980  153.3350 C   0  0  0  0  0  0  0  0  0  0  0  0
  160.2210  211.2360  152.6810 O   0  0  0  0  0  0  0  0  0  0  0  0
  161.3030  211.0700  154.7700 C   0  0  0  0  0  2  0  0  0  0  0  0
  160.0270  210.8430  155.5740 C   0  0  1  0  0  3  0  0  0  0  0  0
  161.1470  209.0360  156.6950 C   0  0  0  0  0  0  0  0  0  0  0  0
  162.0020  208.1420  156.6750 O   0  0  0  0  0  0  0  0  0  0  0  0
  160.2660  209.9560  156.7140 N   0  0  0  0  0  0  0  0  0  0  0  0
  159.4440  212.1790  156.0220 C   0  0  0  0  0  2  0  0  0  0  0  0
  157.9270  212.1170  156.1100 C   0  0  0  0  0  2  0  0  0  0  0  0
  157.3250  211.8620  154.7420 C   0  0  0  0  0  3  0  0  0  0  0  0
  156.0550  211.0520  154.9010 C   0  0  0  0  0  2  0  0  0  0  0  0
  155.9740  212.5430  154.6600 C   0  0  0  0  0  2  0  0  0  0  0  0
  1  7  1  0  0  0  0
  3  5  1  6  0  0  0
  3  4  1  0  0  0  0
  6 11  1  6  0  0  0
  6  1  1  0  0  0  0
  6  3  1  0  0  0  0
  7 24  1  0  0  0  0
  7  4  1  0  0  0  0
  7  2  1  1  0  0  0
  8  9  1  0  0  0  0
  9  6  1  0  0  0  0
 10 11  2  0  0  0  0
 12 13  1  0  0  0  0
 14 21  1  6  0  0  0
 15 17  1  0  0  0  0
 16 15  1  0  0  0  0
 16 18  1  0  0  0  0
 17 11  1  1  0  0  0
 17 14  1  0  0  0  0
 18 13  2  0  0  0  0
 18 14  1  0  0  0  0
 19 20  1  0  0  0  0
 19 16  2  0  0  0  0
 20 12  2  0  0  0  0
 21 22  1  0  0  0  0
 22 23  1  0  0  0  0
 24 25  1  0  0  0  0
 25 27  1  0  0  0  0
 26 25  2  0  0  0  0
 28 27  1  1  0  0  0
 28 32  1  0  0  0  0
 28 31  1  0  0  0  0
 29 31  2  0  0  0  0
 30 29  2  0  0  0  0
 32 33  1  0  0  0  0
 34 35  1  0  0  0  0
 34 33  1  0  0  0  0
 36 34  1  0  0  0  0
 36 35  1  0  0  0  0
M  END
>  <MODEL>
4

>  <REMARK>
 VINA RESULT:      -7.0      1.664      2.924
  Name = 
  13 active torsions:
  status: ('A' for Active; 'I' for Inactive)
    1  A    between atoms: C_4  and  C_7
    2  A    between atoms: C_4  and  C_18
    3  A    between atoms: C_7  and  C_24
    4  A    between atoms: O_9  and  C_11
    5  A    between atoms: O_9  and  C_21
    6  A    between atoms: C_14  and  C_16
    7  A    between atoms: C_14  and  C_27
    8  A    between atoms: C_16  and  C_35
    9  A    between atoms: C_17  and  C_32
   10  A    between atoms: O_23  and  C_33
   11  A    between atoms: C_24  and  C_27
   12  A    between atoms: C_24  and  N_36
   13  A    between atoms: C_32  and  C_33
                            x       y       z     vdW  Elec       q    Type
                         _______ _______ _______ _____ _____    ______ ____

>  <TORSDO>
F 13

$$$$
=
 OpenBabel11072414333D

 36 39  0  0  1  0  0  0  0  0999 V2000
  160.8830  208.4110  150.2450 C   0  0  0  0  0  2  0  0  0  0  0  0
  162.0570  208.1450  148.1870 O   0  0  0  0  0  1  0  0  0  0  0  0
  162.7370  207.4020  151.2020 C   0  0  2  0  0  3  0  0  0  0  0  0
  162.6090  206.7920  149.9440 O   0  0  0  0  0  0  0  0  0  0  0  0
  163.2150  206.4820  152.1370 O   0  0  0  0  0  1  0  0  0  0  0  0
  161.3900  208.0120  151.6000 C   0  0  2  0  0  0  0  0  0  0  0  0
  161.5490  207.4410  149.2830 C   0  0  1  0  0  0  0  0  0  0  0  0
  160.8800  206.6560  153.4220 C   0  0  0  0  0  1  0  0  0  0  0  0
  160.4880  207.0470  152.1280 O   0  0  0  0  0  0  0  0  0  0  0  0
  162.6430  209.7390  152.6580 O   0  0  0  0  0  0  0  0  0  0  0  0
  161.5330  209.2650  152.4650 C   0  0  0  0  0  0  0  0  0  0  0  0
  158.8070  212.9030  156.4510 C   0  0  0  0  0  3  0  0  0  0  0  0
  159.3700  211.6260  156.3070 C   0  0  0  0  0  3  0  0  0  0  0  0
  160.3870  209.9120  154.6810 C   0  0  2  0  0  3  0  0  0  0  0  0
  160.0660  211.3820  152.6920 C   0  0  0  0  0  2  0  0  0  0  0  0
  159.5930  212.0190  153.9360 C   0  0  0  0  0  0  0  0  0  0  0  0
  160.3520  209.9380  153.1350 C   0  0  1  0  0  3  0  0  0  0  0  0
  159.7560  211.2060  155.0310 C   0  0  0  0  0  0  0  0  0  0  0  0
  159.0380  213.2940  154.0560 C   0  0  0  0  0  3  0  0  0  0  0  0
  158.6430  213.7350  155.3280 C   0  0  0  0  0  3  0  0  0  0  0  0
  161.7030  209.9030  155.1580 O   0  0  0  0  0  0  0  0  0  0  0  0
  161.7130  208.9380  156.1660 C   0  0  0  0  0  2  0  0  0  0  0  0
  162.6600  209.2840  157.1290 O   0  0  0  0  0  1  0  0  0  0  0  0
  160.5490  206.3780  148.8160 C   0  0  0  0  0  2  0  0  0  0  0  0
  160.9610  205.6740  147.5590 C   0  0  0  0  0  0  0  0  0  0  0  0
  160.6290  206.1330  146.4770 O   0  0  0  0  0  0  0  0  0  0  0  0
  161.7910  204.4300  147.6250 C   0  0  0  0  0  2  0  0  0  0  0  0
  160.9490  203.2000  147.3010 C   0  0  1  0  0  3  0  0  0  0  0  0
  160.5320  201.8130  145.3830 C   0  0  0  0  0  0  0  0  0  0  0  0
  159.8240  200.9730  144.8150 O   0  0  0  0  0  0  0  0  0  0  0  0
  161.2610  202.6780  145.9700 N   0  0  0  0  0  0  0  0  0  0  0  0
  161.1400  202.1350  148.3760 C   0  0  0  0  0  2  0  0  0  0  0  0
  160.3390  202.4640  149.6260 C   0  0  0  0  0  2  0  0  0  0  0  0
  161.2150  202.3620  150.8610 C   0  0  0  0  0  3  0  0  0  0  0  0
  161.6620  203.7510  151.2680 C   0  0  0  0  0  2  0  0  0  0  0  0
  160.5330  203.0730  152.0110 C   0  0  0  0  0  2  0  0  0  0  0  0
  1  6  1  0  0  0  0
  3  6  1  0  0  0  0
  3  5  1  1  0  0  0
  4  3  1  0  0  0  0
  6  9  1  1  0  0  0
  6 11  1  0  0  0  0
  7  2  1  6  0  0  0
  7  4  1  0  0  0  0
  7  1  1  0  0  0  0
  9  8  1  0  0  0  0
 11 10  2  0  0  0  0
 13 12  1  0  0  0  0
 14 18  1  0  0  0  0
 14 21  1  6  0  0  0
 15 17  1  0  0  0  0
 15 16  1  0  0  0  0
 16 19  2  0  0  0  0
 16 18  1  0  0  0  0
 17 11  1  6  0  0  0
 17 14  1  0  0  0  0
 18 13  2  0  0  0  0
 19 20  1  0  0  0  0
 20 12  2  0  0  0  0
 21 22  1  0  0  0  0
 22 23  1  0  0  0  0
 24  7  1  0  0  0  0
 25 27  1  0  0  0  0
 25 24  1  0  0  0  0
 26 25  2  0  0  0  0
 28 27  1  1  0  0  0
 28 32  1  0  0  0  0
 29 31  2  0  0  0  0
 30 29  2  0  0  0  0
 31 28  1  0  0  0  0
 32 33  1  0  0  0  0
 33 34  1  0  0  0  0
 34 35  1  0  0  0  0
 34 36  1  0  0  0  0
 35 36  1  0  0  0  0
M  END
>  <MODEL>
5

>  <REMARK>
 VINA RESULT:      -6.8      2.646      9.244
  Name = 
  13 active torsions:
  status: ('A' for Active; 'I' for Inactive)
    1  A    between atoms: C_4  and  C_7
    2  A    between atoms: C_4  and  C_18
    3  A    between atoms: C_7  and  C_24
    4  A    between atoms: O_9  and  C_11
    5  A    between atoms: O_9  and  C_21
    6  A    between atoms: C_14  and  C_16
    7  A    between atoms: C_14  and  C_27
    8  A    between atoms: C_16  and  C_35
    9  A    between atoms: C_17  and  C_32
   10  A    between atoms: O_23  and  C_33
   11  A    between atoms: C_24  and  C_27
   12  A    between atoms: C_24  and  N_36
   13  A    between atoms: C_32  and  C_33
                            x       y       z     vdW  Elec       q    Type
                         _______ _______ _______ _____ _____    ______ ____

>  <TORSDO>
F 13

$$$$
=
 OpenBabel11072414333D

 36 39  0  0  1  0  0  0  0  0999 V2000
  160.6210  207.7780  151.4350 C   0  0  0  0  0  2  0  0  0  0  0  0
  160.2220  207.7370  153.7840 O   0  0  0  0  0  1  0  0  0  0  0  0
  162.2510  206.1950  151.8860 C   0  0  2  0  0  3  0  0  0  0  0  0
  162.2540  207.0390  153.0090 O   0  0  0  0  0  0  0  0  0  0  0  0
  163.5450  205.7400  151.6220 O   0  0  0  0  0  1  0  0  0  0  0  0
  161.6280  206.9400  150.7030 C   0  0  2  0  0  0  0  0  0  0  0  0
  161.2110  207.9650  152.8230 C   0  0  1  0  0  0  0  0  0  0  0  0
  161.9610  208.4170  148.9350 C   0  0  0  0  0  1  0  0  0  0  0  0
  162.5440  207.8240  150.0700 O   0  0  0  0  0  0  0  0  0  0  0  0
  159.7080  206.2080  149.4980 O   0  0  0  0  0  0  0  0  0  0  0  0
  160.8910  206.0140  149.7340 C   0  0  0  0  0  0  0  0  0  0  0  0
  161.2000  200.3740  147.5770 C   0  0  0  0  0  3  0  0  0  0  0  0
  161.2860  201.1240  148.7590 C   0  0  0  0  0  3  0  0  0  0  0  0
  161.3460  203.4780  149.7960 C   0  0  2  0  0  3  0  0  0  0  0  0
  161.2250  204.6200  147.5820 C   0  0  0  0  0  2  0  0  0  0  0  0
  161.2080  203.1500  147.4510 C   0  0  0  0  0  0  0  0  0  0  0  0
  161.5570  204.8260  149.0690 C   0  0  1  0  0  3  0  0  0  0  0  0
  161.2880  202.5180  148.6680 C   0  0  0  0  0  0  0  0  0  0  0  0
  161.1200  202.4240  146.2620 C   0  0  0  0  0  3  0  0  0  0  0  0
  161.1160  201.0230  146.3320 C   0  0  0  0  0  3  0  0  0  0  0  0
  160.1230  203.4550  150.4760 O   0  0  0  0  0  0  0  0  0  0  0  0
  160.4630  203.3210  151.8230 C   0  0  0  0  0  2  0  0  0  0  0  0
  161.6300  202.5670  151.9340 O   0  0  0  0  0  1  0  0  0  0  0  0
  161.7860  209.3770  152.9740 C   0  0  0  0  0  2  0  0  0  0  0  0
  160.9720  210.4350  152.2930 C   0  0  0  0  0  0  0  0  0  0  0  0
  161.3860  210.9390  151.2610 O   0  0  0  0  0  0  0  0  0  0  0  0
  159.6520  210.8570  152.8600 C   0  0  0  0  0  2  0  0  0  0  0  0
  159.7600  212.2270  153.5200 C   0  0  1  0  0  3  0  0  0  0  0  0
  159.3320  213.7360  151.6990 C   0  0  0  0  0  0  0  0  0  0  0  0
  159.6920  214.2310  150.6240 O   0  0  0  0  0  0  0  0  0  0  0  0
  158.9630  213.2260  152.8070 N   0  0  0  0  0  0  0  0  0  0  0  0
  159.3550  212.1360  154.9880 C   0  0  0  0  0  2  0  0  0  0  0  0
  159.2950  210.6890  155.4540 C   0  0  0  0  0  2  0  0  0  0  0  0
  160.0420  210.5230  156.7640 C   0  0  0  0  0  3  0  0  0  0  0  0
  160.1450  209.0480  157.0930 C   0  0  0  0  0  2  0  0  0  0  0  0
  161.3340  209.7760  156.5050 C   0  0  0  0  0  2  0  0  0  0  0  0
  1  7  1  0  0  0  0
  3  5  1  6  0  0  0
  3  4  1  0  0  0  0
  6 11  1  6  0  0  0
  6  1  1  0  0  0  0
  6  3  1  0  0  0  0
  7 24  1  0  0  0  0
  7  4  1  0  0  0  0
  7  2  1  1  0  0  0
  8  9  1  0  0  0  0
  9  6  1  0  0  0  0
 10 11  2  0  0  0  0
 12 13  1  0  0  0  0
 14 21  1  6  0  0  0
 15 17  1  0  0  0  0
 16 15  1  0  0  0  0
 16 18  1  0  0  0  0
 17 11  1  1  0  0  0
 17 14  1  0  0  0  0
 18 13  2  0  0  0  0
 18 14  1  0  0  0  0
 19 20  1  0  0  0  0
 19 16  2  0  0  0  0
 20 12  2  0  0  0  0
 21 22  1  0  0  0  0
 22 23  1  0  0  0  0
 25 27  1  0  0  0  0
 25 24  1  0  0  0  0
 26 25  2  0  0  0  0
 28 27  1  6  0  0  0
 28 32  1  0  0  0  0
 29 31  2  0  0  0  0
 30 29  2  0  0  0  0
 31 28  1  0  0  0  0
 32 33  1  0  0  0  0
 33 34  1  0  0  0  0
 34 35  1  0  0  0  0
 36 34  1  0  0  0  0
 36 35  1  0  0  0  0
M  END
>  <MODEL>
6

>  <REMARK>
 VINA RESULT:      -6.8      1.847      2.999
  Name = 
  13 active torsions:
  status: ('A' for Active; 'I' for Inactive)
    1  A    between atoms: C_4  and  C_7
    2  A    between atoms: C_4  and  C_18
    3  A    between atoms: C_7  and  C_24
    4  A    between atoms: O_9  and  C_11
    5  A    between atoms: O_9  and  C_21
    6  A    between atoms: C_14  and  C_16
    7  A    between atoms: C_14  and  C_27
    8  A    between atoms: C_16  and  C_35
    9  A    between atoms: C_17  and  C_32
   10  A    between atoms: O_23  and  C_33
   11  A    between atoms: C_24  and  C_27
   12  A    between atoms: C_24  and  N_36
   13  A    between atoms: C_32  and  C_33
                            x       y       z     vdW  Elec       q    Type
                         _______ _______ _______ _____ _____    ______ ____

>  <TORSDO>
F 13

$$$$
=
 OpenBabel11072414333D

 36 39  0  0  1  0  0  0  0  0999 V2000
  160.6510  208.0350  151.2810 C   0  0  0  0  0  2  0  0  0  0  0  0
  160.1440  208.1280  153.6070 O   0  0  0  0  0  1  0  0  0  0  0  0
  162.1760  206.3970  151.8820 C   0  0  2  0  0  3  0  0  0  0  0  0
  162.1710  207.2930  152.9630 O   0  0  0  0  0  0  0  0  0  0  0  0
  163.4550  205.8680  151.7020 O   0  0  0  0  0  1  0  0  0  0  0  0
  161.6460  207.1130  150.6370 C   0  0  2  0  0  0  0  0  0  0  0  0
  161.1860  208.2600  152.6850 C   0  0  1  0  0  0  0  0  0  0  0  0
  162.0530  208.7490  149.0320 C   0  0  0  0  0  1  0  0  0  0  0  0
  162.6340  207.9200  150.0090 O   0  0  0  0  0  0  0  0  0  0  0  0
  159.7270  206.3770  149.4330 O   0  0  0  0  0  0  0  0  0  0  0  0
  160.9080  206.1780  149.6780 C   0  0  0  0  0  0  0  0  0  0  0  0
  161.2060  200.4910  147.6500 C   0  0  0  0  0  3  0  0  0  0  0  0
  161.3030  201.2680  148.8130 C   0  0  0  0  0  3  0  0  0  0  0  0
  161.3690  203.6450  149.7940 C   0  0  2  0  0  3  0  0  0  0  0  0
  161.2200  204.7360  147.5550 C   0  0  0  0  0  2  0  0  0  0  0  0
  161.2060  203.2630  147.4590 C   0  0  0  0  0  0  0  0  0  0  0  0
  161.5690  204.9770  149.0330 C   0  0  1  0  0  3  0  0  0  0  0  0
  161.3010  202.6600  148.6890 C   0  0  0  0  0  0  0  0  0  0  0  0
  161.1060  202.5090  146.2880 C   0  0  0  0  0  3  0  0  0  0  0  0
  161.1060  201.1100  146.3900 C   0  0  0  0  0  3  0  0  0  0  0  0
  160.1540  203.6360  150.4880 O   0  0  0  0  0  0  0  0  0  0  0  0
  160.4560  203.0860  151.7340 C   0  0  0  0  0  2  0  0  0  0  0  0
  161.8400  203.0330  151.8950 O   0  0  0  0  0  1  0  0  0  0  0  0
  161.8250  209.6470  152.7990 C   0  0  0  0  0  2  0  0  0  0  0  0
  161.5020  210.3570  154.0790 C   0  0  0  0  0  0  0  0  0  0  0  0
  162.0020  209.9680  155.1230 O   0  0  0  0  0  0  0  0  0  0  0  0
  160.5930  211.5450  154.0780 C   0  0  0  0  0  2  0  0  0  0  0  0
  159.8160  211.6300  152.7680 C   0  0  1  0  0  3  0  0  0  0  0  0
  157.8500  211.4520  154.1390 C   0  0  0  0  0  0  0  0  0  0  0  0
  157.3310  211.4890  155.2610 O   0  0  0  0  0  0  0  0  0  0  0  0
  158.3840  211.4140  152.9830 N   0  0  0  0  0  0  0  0  0  0  0  0
  160.0810  212.9680  152.0870 C   0  0  0  0  0  2  0  0  0  0  0  0
  159.6120  212.9530  150.6400 C   0  0  0  0  0  2  0  0  0  0  0  0
  160.4580  213.8900  149.7980 C   0  0  0  0  0  3  0  0  0  0  0  0
  161.0110  213.1280  148.6110 C   0  0  0  0  0  2  0  0  0  0  0  0
  159.8180  214.0420  148.4330 C   0  0  0  0  0  2  0  0  0  0  0  0
  1  7  1  0  0  0  0
  3  5  1  6  0  0  0
  3  4  1  0  0  0  0
  6 11  1  6  0  0  0
  6  1  1  0  0  0  0
  6  3  1  0  0  0  0
  7 24  1  0  0  0  0
  7  4  1  0  0  0  0
  7  2  1  1  0  0  0
  8  9  1  0  0  0  0
  9  6  1  0  0  0  0
 10 11  2  0  0  0  0
 12 13  1  0  0  0  0
 14 21  1  6  0  0  0
 15 17  1  0  0  0  0
 16 15  1  0  0  0  0
 16 18  1  0  0  0  0
 17 11  1  1  0  0  0
 17 14  1  0  0  0  0
 18 13  2  0  0  0  0
 18 14  1  0  0  0  0
 19 20  1  0  0  0  0
 19 16  2  0  0  0  0
 20 12  2  0  0  0  0
 21 22  1  0  0  0  0
 22 23  1  0  0  0  0
 24 25  1  0  0  0  0
 25 26  2  0  0  0  0
 27 25  1  0  0  0  0
 28 32  1  1  0  0  0
 28 31  1  0  0  0  0
 28 27  1  0  0  0  0
 29 30  2  0  0  0  0
 31 29  2  0  0  0  0
 33 32  1  0  0  0  0
 34 33  1  0  0  0  0
 35 34  1  0  0  0  0
 36 35  1  0  0  0  0
 36 34  1  0  0  0  0
M  END
>  <MODEL>
7

>  <REMARK>
 VINA RESULT:      -6.8      2.040      3.575
  Name = 
  13 active torsions:
  status: ('A' for Active; 'I' for Inactive)
    1  A    between atoms: C_4  and  C_7
    2  A    between atoms: C_4  and  C_18
    3  A    between atoms: C_7  and  C_24
    4  A    between atoms: O_9  and  C_11
    5  A    between atoms: O_9  and  C_21
    6  A    between atoms: C_14  and  C_16
    7  A    between atoms: C_14  and  C_27
    8  A    between atoms: C_16  and  C_35
    9  A    between atoms: C_17  and  C_32
   10  A    between atoms: O_23  and  C_33
   11  A    between atoms: C_24  and  C_27
   12  A    between atoms: C_24  and  N_36
   13  A    between atoms: C_32  and  C_33
                            x       y       z     vdW  Elec       q    Type
                         _______ _______ _______ _____ _____    ______ ____

>  <TORSDO>
F 13

$$$$
=
 OpenBabel11072414333D

 36 39  0  0  1  0  0  0  0  0999 V2000
  160.7010  207.7410  152.4470 C   0  0  0  0  0  2  0  0  0  0  0  0
  160.1440  206.9470  154.6230 O   0  0  0  0  0  1  0  0  0  0  0  0
  162.1440  205.9300  152.3720 C   0  0  2  0  0  3  0  0  0  0  0  0
  162.1500  206.3350  153.7170 O   0  0  0  0  0  0  0  0  0  0  0  0
  163.4040  205.4530  152.0080 O   0  0  0  0  0  1  0  0  0  0  0  0
  161.6720  207.0970  151.5010 C   0  0  2  0  0  0  0  0  0  0  0  0
  161.2110  207.3780  153.8310 C   0  0  1  0  0  0  0  0  0  0  0  0
  162.1670  209.2710  150.8340 C   0  0  0  0  0  1  0  0  0  0  0  0
  162.7070  208.0370  151.2410 O   0  0  0  0  0  0  0  0  0  0  0  0
  159.6970  206.6390  150.2510 O   0  0  0  0  0  0  0  0  0  0  0  0
  160.9190  206.6430  150.2500 C   0  0  0  0  0  0  0  0  0  0  0  0
  161.5100  203.4240  145.1660 C   0  0  0  0  0  3  0  0  0  0  0  0
  161.6270  203.3400  146.5610 C   0  0  0  0  0  3  0  0  0  0  0  0
  161.5790  204.6240  148.7900 C   0  0  2  0  0  3  0  0  0  0  0  0
  161.1960  206.8270  147.6860 C   0  0  0  0  0  2  0  0  0  0  0  0
  161.2860  205.7240  146.7090 C   0  0  0  0  0  0  0  0  0  0  0  0
  161.6240  206.1550  149.0000 C   0  0  1  0  0  3  0  0  0  0  0  0
  161.5110  204.5110  147.3130 C   0  0  0  0  0  0  0  0  0  0  0  0
  161.1650  205.8310  145.3230 C   0  0  0  0  0  3  0  0  0  0  0  0
  161.2780  204.6660  144.5490 C   0  0  0  0  0  3  0  0  0  0  0  0
  160.4180  204.0710  149.3420 O   0  0  0  0  0  0  0  0  0  0  0  0
  160.8580  202.9660  150.0730 C   0  0  0  0  0  2  0  0  0  0  0  0
  160.2070  201.8210  149.6190 O   0  0  0  0  0  1  0  0  0  0  0  0
  161.9040  208.5820  154.4780 C   0  0  0  0  0  2  0  0  0  0  0  0
  161.0660  209.2760  155.5090 C   0  0  0  0  0  0  0  0  0  0  0  0
  161.3540  209.1660  156.6900 O   0  0  0  0  0  0  0  0  0  0  0  0
  159.8980  210.1150  155.0950 C   0  0  0  0  0  2  0  0  0  0  0  0
  160.3600  211.4910  154.6260 C   0  0  1  0  0  3  0  0  0  0  0  0
  159.5420  212.0720  152.4420 C   0  0  0  0  0  0  0  0  0  0  0  0
  158.6570  212.5750  151.7390 O   0  0  0  0  0  0  0  0  0  0  0  0
  160.4520  211.5530  153.1670 N   0  0  0  0  0  0  0  0  0  0  0  0
  159.4310  212.5710  155.1720 C   0  0  0  0  0  2  0  0  0  0  0  0
  158.4310  211.9900  156.1600 C   0  0  0  0  0  2  0  0  0  0  0  0
  157.0710  212.6360  155.9800 C   0  0  0  0  0  3  0  0  0  0  0  0
  156.5010  212.2290  154.6370 C   0  0  0  0  0  2  0  0  0  0  0  0
  156.0150  211.5530  155.9010 C   0  0  0  0  0  2  0  0  0  0  0  0
  1  7  1  0  0  0  0
  3  5  1  6  0  0  0
  3  4  1  0  0  0  0
  4  7  1  0  0  0  0
  6 11  1  6  0  0  0
  6  3  1  0  0  0  0
  6  1  1  0  0  0  0
  7 24  1  0  0  0  0
  7  2  1  1  0  0  0
  8  9  1  0  0  0  0
  9  6  1  0  0  0  0
 11 10  2  0  0  0  0
 12 13  1  0  0  0  0
 13 18  2  0  0  0  0
 14 17  1  0  0  0  0
 14 21  1  1  0  0  0
 15 17  1  0  0  0  0
 16 18  1  0  0  0  0
 16 15  1  0  0  0  0
 17 11  1  1  0  0  0
 18 14  1  0  0  0  0
 19 16  2  0  0  0  0
 20 12  2  0  0  0  0
 20 19  1  0  0  0  0
 21 22  1  0  0  0  0
 23 22  1  0  0  0  0
 24 25  1  0  0  0  0
 25 26  2  0  0  0  0
 27 25  1  0  0  0  0
 28 27  1  6  0  0  0
 28 32  1  0  0  0  0
 29 31  2  0  0  0  0
 30 29  2  0  0  0  0
 31 28  1  0  0  0  0
 32 33  1  0  0  0  0
 34 33  1  0  0  0  0
 35 36  1  0  0  0  0
 35 34  1  0  0  0  0
 36 34  1  0  0  0  0
M  END
>  <MODEL>
8

>  <REMARK>
 VINA RESULT:      -6.6      1.351      2.388
  Name = 
  13 active torsions:
  status: ('A' for Active; 'I' for Inactive)
    1  A    between atoms: C_4  and  C_7
    2  A    between atoms: C_4  and  C_18
    3  A    between atoms: C_7  and  C_24
    4  A    between atoms: O_9  and  C_11
    5  A    between atoms: O_9  and  C_21
    6  A    between atoms: C_14  and  C_16
    7  A    between atoms: C_14  and  C_27
    8  A    between atoms: C_16  and  C_35
    9  A    between atoms: C_17  and  C_32
   10  A    between atoms: O_23  and  C_33
   11  A    between atoms: C_24  and  C_27
   12  A    between atoms: C_24  and  N_36
   13  A    between atoms: C_32  and  C_33
                            x       y       z     vdW  Elec       q    Type
                         _______ _______ _______ _____ _____    ______ ____

>  <TORSDO>
F 13

$$$$
=
 OpenBabel11072414333D

 36 39  0  0  1  0  0  0  0  0999 V2000
  160.6310  207.9120  152.2280 C   0  0  0  0  0  2  0  0  0  0  0  0
  160.1000  207.4170  154.4980 O   0  0  0  0  0  1  0  0  0  0  0  0
  162.0980  206.1260  152.3910 C   0  0  2  0  0  3  0  0  0  0  0  0
  162.1080  206.7130  153.6670 O   0  0  0  0  0  0  0  0  0  0  0  0
  163.3630  205.6200  152.0840 O   0  0  0  0  0  1  0  0  0  0  0  0
  161.6040  207.1560  151.3710 C   0  0  2  0  0  0  0  0  0  0  0  0
  161.1560  207.7490  153.6440 C   0  0  1  0  0  0  0  0  0  0  0  0
  162.0630  209.2390  150.4410 C   0  0  0  0  0  1  0  0  0  0  0  0
  162.6240  208.0650  150.9750 O   0  0  0  0  0  0  0  0  0  0  0  0
  159.6540  206.2940  150.3100 O   0  0  0  0  0  0  0  0  0  0  0  0
  160.8500  206.5240  150.2010 C   0  0  0  0  0  0  0  0  0  0  0  0
  161.4140  203.5470  144.9690 C   0  0  0  0  0  3  0  0  0  0  0  0
  161.5960  203.4170  146.3530 C   0  0  0  0  0  3  0  0  0  0  0  0
  161.5670  204.6080  148.6330 C   0  0  2  0  0  3  0  0  0  0  0  0
  161.0020  206.8240  147.6370 C   0  0  0  0  0  2  0  0  0  0  0  0
  161.1170  205.7680  146.6130 C   0  0  0  0  0  0  0  0  0  0  0  0
  161.5280  206.1300  148.9040 C   0  0  1  0  0  3  0  0  0  0  0  0
  161.4410  204.5490  147.1570 C   0  0  0  0  0  0  0  0  0  0  0  0
  160.9290  205.9200  145.2390 C   0  0  0  0  0  3  0  0  0  0  0  0
  161.0800  204.7960  144.4130 C   0  0  0  0  0  3  0  0  0  0  0  0
  160.4680  203.9630  149.2100 O   0  0  0  0  0  0  0  0  0  0  0  0
  160.9960  202.8200  149.8110 C   0  0  0  0  0  2  0  0  0  0  0  0
  160.0800  201.7750  149.7070 O   0  0  0  0  0  1  0  0  0  0  0  0
  161.8360  209.0390  154.1140 C   0  0  0  0  0  2  0  0  0  0  0  0
  161.5370  209.3930  155.5400 C   0  0  0  0  0  0  0  0  0  0  0  0
  161.9440  208.6690  156.4350 O   0  0  0  0  0  0  0  0  0  0  0  0
  160.7660  210.6330  155.8670 C   0  0  0  0  0  2  0  0  0  0  0  0
  159.5640  210.7830  154.9390 C   0  0  1  0  0  3  0  0  0  0  0  0
  157.3110  211.3540  155.5500 C   0  0  0  0  0  0  0  0  0  0  0  0
  156.3440  212.1180  155.4460 O   0  0  0  0  0  0  0  0  0  0  0  0
  158.3070  210.5670  155.6570 N   0  0  0  0  0  0  0  0  0  0  0  0
  159.5920  212.1490  154.2620 C   0  0  0  0  0  2  0  0  0  0  0  0
  159.4980  212.0170  152.7500 C   0  0  0  0  0  2  0  0  0  0  0  0
  159.3560  213.3830  152.1060 C   0  0  0  0  0  3  0  0  0  0  0  0
  159.8880  213.3220  150.6890 C   0  0  0  0  0  2  0  0  0  0  0  0
  158.3960  213.2820  150.9380 C   0  0  0  0  0  2  0  0  0  0  0  0
  1  7  1  0  0  0  0
  3  5  1  6  0  0  0
  3  4  1  0  0  0  0
  6 11  1  6  0  0  0
  6  1  1  0  0  0  0
  6  3  1  0  0  0  0
  7  4  1  0  0  0  0
  7 24  1  0  0  0  0
  7  2  1  1  0  0  0
  8  9  1  0  0  0  0
  9  6  1  0  0  0  0
 11 10  2  0  0  0  0
 12 13  1  0  0  0  0
 13 18  2  0  0  0  0
 14 17  1  0  0  0  0
 14 21  1  1  0  0  0
 15 17  1  0  0  0  0
 16 18  1  0  0  0  0
 16 15  1  0  0  0  0
 17 11  1  1  0  0  0
 18 14  1  0  0  0  0
 19 16  2  0  0  0  0
 20 12  2  0  0  0  0
 20 19  1  0  0  0  0
 21 22  1  0  0  0  0
 23 22  1  0  0  0  0
 24 25  1  0  0  0  0
 25 27  1  0  0  0  0
 25 26  2  0  0  0  0
 28 32  1  1  0  0  0
 28 31  1  0  0  0  0
 28 27  1  0  0  0  0
 29 31  2  0  0  0  0
 30 29  2  0  0  0  0
 33 32  1  0  0  0  0
 34 33  1  0  0  0  0
 35 36  1  0  0  0  0
 35 34  1  0  0  0  0
 36 34  1  0  0  0  0
M  END
>  <MODEL>
9

>  <REMARK>
 VINA RESULT:      -6.5      1.821      3.195
  Name = 
  13 active torsions:
  status: ('A' for Active; 'I' for Inactive)
    1  A    between atoms: C_4  and  C_7
    2  A    between atoms: C_4  and  C_18
    3  A    between atoms: C_7  and  C_24
    4  A    between atoms: O_9  and  C_11
    5  A    between atoms: O_9  and  C_21
    6  A    between atoms: C_14  and  C_16
    7  A    between atoms: C_14  and  C_27
    8  A    between atoms: C_16  and  C_35
    9  A    between atoms: C_17  and  C_32
   10  A    between atoms: O_23  and  C_33
   11  A    between atoms: C_24  and  C_27
   12  A    between atoms: C_24  and  N_36
   13  A    between atoms: C_32  and  C_33
                            x       y       z     vdW  Elec       q    Type
                         _______ _______ _______ _____ _____    ______ ____

>  <TORSDO>
F 13

$$$$
