=
 OpenBabel11072413293D

 41 45  0  0  1  0  0  0  0  0999 V2000
  160.9150  207.1000  151.8390 C   0  0  2  0  0  3  0  0  0  0  0  0
  160.8920  206.9610  154.2810 C   0  0  0  0  0  0  0  0  0  0  0  0
  159.9460  208.4030  156.0430 C   0  0  0  0  0  3  0  0  0  0  0  0
  161.0630  207.4920  155.6660 C   0  0  0  0  0  2  0  0  0  0  0  0
  159.7200  209.5530  155.4130 C   0  0  0  0  0  3  0  0  0  0  0  0
  160.8280  205.6140  154.1330 F   0  0  0  0  0  0  0  0  0  0  0  0
  160.4680  210.0310  154.2360 C   0  0  0  0  0  0  0  0  0  0  0  0
  160.9510  209.2390  153.2690 C   0  0  0  0  0  3  0  0  0  0  0  0
  160.5500  211.5000  154.0270 C   0  0  0  0  0  1  0  0  0  0  0  0
  160.9100  207.7540  153.1960 C   0  0  0  0  0  0  0  0  0  0  0  0
  161.9130  205.9880  151.6770 C   0  0  0  0  0  0  0  0  0  0  0  0
  163.1100  206.1970  151.8160 O   0  0  0  0  0  0  0  0  0  0  0  0
  161.4190  204.6040  151.3630 C   0  0  0  0  0  2  0  0  0  0  0  0
  161.1940  202.7690  148.0390 N   0  0  0  0  0  0  0  0  0  0  0  0
  160.9140  203.0360  149.4200 C   0  0  0  0  0  0  0  0  0  0  0  0
  161.2040  205.1700  147.5350 C   0  0  1  0  0  3  0  0  0  0  0  0
  161.6460  204.4240  144.7810 C   0  0  0  0  0  2  0  0  0  0  0  0
  160.4760  202.0430  150.1840 C   0  0  0  0  0  2  0  0  0  0  0  0
  162.0340  206.0340  146.6200 C   0  0  0  0  0  3  0  0  0  0  0  0
  161.3640  203.7130  147.1630 C   0  0  0  0  0  0  0  0  0  0  0  0
  160.8850  204.4600  149.9300 C   0  0  2  0  0  3  0  0  0  0  0  0
  161.6400  203.3770  145.8000 N   0  0  0  0  0  2  0  0  0  0  0  0
  162.2450  205.6880  145.3400 C   0  0  0  0  0  3  0  0  0  0  0  0
  161.6240  205.4080  148.9800 C   0  0  0  0  0  2  0  0  0  0  0  0
  160.8760  208.0810  150.6660 C   0  0  0  0  0  2  0  0  0  0  0  0
  162.5290  208.5730  150.0770 S   0  0  0  0  0  0  0  0  0  0  0  0
  160.0930  213.7040  147.3720 C   0  0  2  0  0  3  0  0  0  0  0  0
  161.9250  210.1520  149.5000 C   0  0  0  0  0  0  0  0  0  0  0  0
  161.7390  210.4380  148.2260 O   0  0  0  0  0  0  0  0  0  0  0  0
  160.9220  212.4590  146.9790 C   0  0  2  0  0  3  0  0  0  0  0  0
  161.6050  211.1710  150.3330 N   0  0  0  0  0  0  0  0  0  0  0  0
  160.6480  214.3980  148.6340 C   0  0  0  0  0  2  0  0  0  0  0  0
  160.6530  213.4650  149.8560 C   0  0  0  0  0  2  0  0  0  0  0  0
  161.2830  211.6620  148.1950 C   0  0  0  0  0  0  0  0  0  0  0  0
  161.2130  212.1310  149.4790 C   0  0  0  0  0  0  0  0  0  0  0  0
  162.1390  212.8660  146.2910 N   0  0  0  0  0  2  0  0  0  0  0  0
  161.1740  212.8860  144.1610 O   0  0  0  0  0  0  0  0  0  0  0  0
  163.4620  213.5210  144.2480 C   0  0  0  0  0  1  0  0  0  0  0  0
  162.1910  213.0790  144.8790 C   0  0  0  0  0  0  0  0  0  0  0  0
  158.7550  213.3500  147.5650 O   0  0  0  0  0  0  0  0  0  0  0  0
  158.3080  212.9370  146.3100 C   0  0  0  0  0  1  0  0  0  0  0  0
  1 25  1  6  0  0  0
  1 10  1  0  0  0  0
  2  4  1  0  0  0  0
  4  3  1  0  0  0  0
  5  3  2  0  0  0  0
  6  2  1  0  0  0  0
  7  5  1  0  0  0  0
  8  7  2  0  0  0  0
  9  7  1  0  0  0  0
 10  8  1  0  0  0  0
 10  2  2  0  0  0  0
 11 12  2  0  0  0  0
 11  1  1  0  0  0  0
 13 11  1  0  0  0  0
 14 15  1  0  0  0  0
 15 21  1  0  0  0  0
 15 18  2  0  0  0  0
 16 19  1  6  0  0  0
 16 24  1  0  0  0  0
 17 23  1  0  0  0  0
 17 22  1  0  0  0  0
 20 16  1  0  0  0  0
 20 14  2  0  0  0  0
 21 13  1  1  0  0  0
 22 20  1  0  0  0  0
 23 19  2  0  0  0  0
 24 21  1  0  0  0  0
 26 25  1  0  0  0  0
 27 40  1  1  0  0  0
 27 32  1  0  0  0  0
 28 26  1  0  0  0  0
 28 31  2  0  0  0  0
 29 28  1  0  0  0  0
 30 36  1  1  0  0  0
 30 27  1  0  0  0  0
 30 34  1  0  0  0  0
 32 33  1  0  0  0  0
 34 29  1  0  0  0  0
 34 35  2  0  0  0  0
 35 33  1  0  0  0  0
 35 31  1  0  0  0  0
 37 39  2  0  0  0  0
 38 39  1  0  0  0  0
 39 36  1  0  0  0  0
 41 40  1  0  0  0  0
M  END
>  <MODEL>
1

>  <REMARK>
 VINA RESULT:      -9.2      0.000      0.000
  Name = 
  9 active torsions:
  status: ('A' for Active; 'I' for Inactive)
    1  A    between atoms: N_1  and  C_25
    2  A    between atoms: C_4  and  O_12
    3  A    between atoms: C_5  and  C_15
    4  A    between atoms: C_5  and  C_24
    5  A    between atoms: C_7  and  S_22
    6  A    between atoms: C_15  and  C_33
    7  A    between atoms: S_22  and  C_35
    8  A    between atoms: C_24  and  C_35
    9  A    between atoms: C_24  and  C_38
                            x       y       z     vdW  Elec       q    Type
                         _______ _______ _______ _____ _____    ______ ____

>  <TORSDO>
F 9

$$$$
=
 OpenBabel11072413293D

 41 45  0  0  1  0  0  0  0  0999 V2000
  160.8190  208.7740  152.1780 C   0  0  2  0  0  3  0  0  0  0  0  0
  160.7480  207.3090  154.1360 C   0  0  0  0  0  0  0  0  0  0  0  0
  160.1270  207.6740  156.4930 C   0  0  0  0  0  3  0  0  0  0  0  0
  161.0200  206.9370  155.5550 C   0  0  0  0  0  2  0  0  0  0  0  0
  160.1640  208.9980  156.6210 C   0  0  0  0  0  3  0  0  0  0  0  0
  160.3910  206.3110  153.2870 F   0  0  0  0  0  0  0  0  0  0  0  0
  161.0080  209.9000  155.8160 C   0  0  0  0  0  0  0  0  0  0  0  0
  161.3120  209.7060  154.5250 C   0  0  0  0  0  3  0  0  0  0  0  0
  161.4120  211.1910  156.4310 C   0  0  0  0  0  1  0  0  0  0  0  0
  160.9480  208.5500  153.6620 C   0  0  0  0  0  0  0  0  0  0  0  0
  161.5350  207.7670  151.3230 C   0  0  0  0  0  0  0  0  0  0  0  0
  162.6910  207.4480  151.5660 O   0  0  0  0  0  0  0  0  0  0  0  0
  160.8040  207.1340  150.1730 C   0  0  0  0  0  2  0  0  0  0  0  0
  161.4200  204.5140  147.4850 N   0  0  0  0  0  0  0  0  0  0  0  0
  161.5660  205.7720  148.1600 C   0  0  0  0  0  0  0  0  0  0  0  0
  161.3070  203.3300  149.6310 C   0  0  1  0  0  3  0  0  0  0  0  0
  161.1450  200.8940  148.0910 C   0  0  0  0  0  2  0  0  0  0  0  0
  161.9970  206.8190  147.4680 C   0  0  0  0  0  2  0  0  0  0  0  0
  160.5060  202.1520  150.1230 C   0  0  0  0  0  3  0  0  0  0  0  0
  161.2680  203.3920  148.1200 C   0  0  0  0  0  0  0  0  0  0  0  0
  161.4650  205.8430  149.6680 C   0  0  2  0  0  3  0  0  0  0  0  0
  161.1290  202.1730  147.3850 N   0  0  0  0  0  2  0  0  0  0  0  0
  160.4260  201.0180  149.4080 C   0  0  0  0  0  3  0  0  0  0  0  0
  160.7530  204.6130  150.2380 C   0  0  0  0  0  2  0  0  0  0  0  0
  161.0240  210.2250  151.7390 C   0  0  0  0  0  2  0  0  0  0  0  0
  162.5430  210.4800  150.7640 S   0  0  0  0  0  0  0  0  0  0  0  0
  159.5720  213.2730  145.9730 C   0  0  2  0  0  3  0  0  0  0  0  0
  161.6770  211.4660  149.5510 C   0  0  0  0  0  0  0  0  0  0  0  0
  161.8240  211.3110  148.2500 O   0  0  0  0  0  0  0  0  0  0  0  0
  160.8380  212.4220  146.2250 C   0  0  2  0  0  3  0  0  0  0  0  0
  160.7980  212.4410  149.8820 N   0  0  0  0  0  0  0  0  0  0  0  0
  159.4410  214.4340  146.9830 C   0  0  0  0  0  2  0  0  0  0  0  0
  159.3580  213.9340  148.4350 C   0  0  0  0  0  2  0  0  0  0  0  0
  161.0310  212.1870  147.6910 C   0  0  0  0  0  0  0  0  0  0  0  0
  160.4090  212.8990  148.6810 C   0  0  0  0  0  0  0  0  0  0  0  0
  162.0100  213.0990  145.6870 N   0  0  0  0  0  2  0  0  0  0  0  0
  161.6170  212.4630  143.4720 O   0  0  0  0  0  0  0  0  0  0  0  0
  163.5290  213.8310  143.8140 C   0  0  0  0  0  1  0  0  0  0  0  0
  162.3310  213.0940  144.2950 C   0  0  0  0  0  0  0  0  0  0  0  0
  158.4320  212.4650  146.0160 O   0  0  0  0  0  0  0  0  0  0  0  0
  157.3870  213.2990  145.6190 C   0  0  0  0  0  1  0  0  0  0  0  0
  1 25  1  1  0  0  0
  1 10  1  0  0  0  0
  2  4  1  0  0  0  0
  3  5  2  0  0  0  0
  4  3  1  0  0  0  0
  6  2  1  0  0  0  0
  7  9  1  0  0  0  0
  7  5  1  0  0  0  0
  8  7  2  0  0  0  0
 10  2  2  0  0  0  0
 10  8  1  0  0  0  0
 11 12  2  0  0  0  0
 11  1  1  0  0  0  0
 13 11  1  0  0  0  0
 14 20  2  0  0  0  0
 14 15  1  0  0  0  0
 15 21  1  0  0  0  0
 16 19  1  1  0  0  0
 16 24  1  0  0  0  0
 17 23  1  0  0  0  0
 18 15  2  0  0  0  0
 20 16  1  0  0  0  0
 21 13  1  6  0  0  0
 21 24  1  0  0  0  0
 22 17  1  0  0  0  0
 22 20  1  0  0  0  0
 23 19  2  0  0  0  0
 26 25  1  0  0  0  0
 27 40  1  1  0  0  0
 27 30  1  0  0  0  0
 27 32  1  0  0  0  0
 28 31  2  0  0  0  0
 28 26  1  0  0  0  0
 29 28  1  0  0  0  0
 30 36  1  1  0  0  0
 30 34  1  0  0  0  0
 32 33  1  0  0  0  0
 33 35  1  0  0  0  0
 34 29  1  0  0  0  0
 34 35  2  0  0  0  0
 35 31  1  0  0  0  0
 37 39  2  0  0  0  0
 38 39  1  0  0  0  0
 39 36  1  0  0  0  0
 41 40  1  0  0  0  0
M  END
>  <MODEL>
2

>  <REMARK>
 VINA RESULT:      -9.1      1.307      2.353
  Name = 
  9 active torsions:
  status: ('A' for Active; 'I' for Inactive)
    1  A    between atoms: N_1  and  C_25
    2  A    between atoms: C_4  and  O_12
    3  A    between atoms: C_5  and  C_15
    4  A    between atoms: C_5  and  C_24
    5  A    between atoms: C_7  and  S_22
    6  A    between atoms: C_15  and  C_33
    7  A    between atoms: S_22  and  C_35
    8  A    between atoms: C_24  and  C_35
    9  A    between atoms: C_24  and  C_38
                            x       y       z     vdW  Elec       q    Type
                         _______ _______ _______ _____ _____    ______ ____

>  <TORSDO>
F 9

$$$$
=
 OpenBabel11072413293D

 41 45  0  0  1  0  0  0  0  0999 V2000
  161.4080  208.4020  152.6260 C   0  0  2  0  0  3  0  0  0  0  0  0
  160.7000  207.1400  154.5990 C   0  0  0  0  0  0  0  0  0  0  0  0
  159.7950  207.8070  156.7920 C   0  0  0  0  0  3  0  0  0  0  0  0
  160.6490  206.8310  156.0580 C   0  0  0  0  0  2  0  0  0  0  0  0
  160.0950  209.1010  156.8700 C   0  0  0  0  0  3  0  0  0  0  0  0
  160.2810  206.1740  153.7420 F   0  0  0  0  0  0  0  0  0  0  0  0
  161.2340  209.7450  156.1910 C   0  0  0  0  0  0  0  0  0  0  0  0
  161.6970  209.3920  154.9840 C   0  0  0  0  0  3  0  0  0  0  0  0
  161.8010  210.9680  156.8150 C   0  0  0  0  0  1  0  0  0  0  0  0
  161.2390  208.2730  154.1180 C   0  0  0  0  0  0  0  0  0  0  0  0
  161.7710  207.1270  151.9190 C   0  0  0  0  0  0  0  0  0  0  0  0
  162.8190  206.5490  152.1690 O   0  0  0  0  0  0  0  0  0  0  0  0
  160.8150  206.5540  150.9110 C   0  0  0  0  0  2  0  0  0  0  0  0
  161.4500  205.3040  147.3750 N   0  0  0  0  0  0  0  0  0  0  0  0
  161.5870  206.1640  148.5150 C   0  0  0  0  0  0  0  0  0  0  0  0
  161.3420  203.3290  148.8270 C   0  0  1  0  0  3  0  0  0  0  0  0
  161.1970  201.7620  146.4070 C   0  0  0  0  0  2  0  0  0  0  0  0
  162.0120  207.4070  148.3270 C   0  0  0  0  0  2  0  0  0  0  0  0
  160.5490  202.0490  148.7780 C   0  0  0  0  0  3  0  0  0  0  0  0
  161.3040  204.0180  147.4810 C   0  0  0  0  0  0  0  0  0  0  0  0
  161.4850  205.5960  149.9140 C   0  0  2  0  0  3  0  0  0  0  0  0
  161.1730  203.2180  146.3020 N   0  0  0  0  0  2  0  0  0  0  0  0
  160.4760  201.3190  147.6530 C   0  0  0  0  0  3  0  0  0  0  0  0
  160.7800  204.2360  149.9140 C   0  0  0  0  0  2  0  0  0  0  0  0
  162.2280  209.6160  152.1870 C   0  0  0  0  0  2  0  0  0  0  0  0
  161.6000  210.4050  150.6690 S   0  0  0  0  0  0  0  0  0  0  0  0
  158.0250  213.7350  154.6320 C   0  0  2  0  0  3  0  0  0  0  0  0
  160.5000  211.4640  151.5960 C   0  0  0  0  0  0  0  0  0  0  0  0
  159.9850  211.1330  152.7640 O   0  0  0  0  0  0  0  0  0  0  0  0
  158.4450  212.2670  154.3920 C   0  0  2  0  0  3  0  0  0  0  0  0
  160.1210  212.6920  151.1690 N   0  0  0  0  0  0  0  0  0  0  0  0
  157.5660  214.4290  153.3310 C   0  0  0  0  0  2  0  0  0  0  0  0
  158.6730  214.4530  152.2640 C   0  0  0  0  0  2  0  0  0  0  0  0
  159.2530  212.1490  153.1360 C   0  0  0  0  0  0  0  0  0  0  0  0
  159.3120  213.1050  152.1590 C   0  0  0  0  0  0  0  0  0  0  0  0
  157.2650  211.4200  154.2880 N   0  0  0  0  0  2  0  0  0  0  0  0
  156.7770  211.4630  156.5740 O   0  0  0  0  0  0  0  0  0  0  0  0
  155.2570  210.2250  155.2320 C   0  0  0  0  0  1  0  0  0  0  0  0
  156.4650  211.0710  155.4190 C   0  0  0  0  0  0  0  0  0  0  0  0
  159.0760  214.4490  155.2140 O   0  0  0  0  0  0  0  0  0  0  0  0
  159.2420  213.8770  156.4760 C   0  0  0  0  0  1  0  0  0  0  0  0
  1 25  1  1  0  0  0
  1 10  1  0  0  0  0
  2  4  1  0  0  0  0
  3  5  2  0  0  0  0
  4  3  1  0  0  0  0
  6  2  1  0  0  0  0
  7  9  1  0  0  0  0
  7  5  1  0  0  0  0
  8  7  2  0  0  0  0
 10  2  2  0  0  0  0
 10  8  1  0  0  0  0
 11 12  2  0  0  0  0
 11  1  1  0  0  0  0
 13 11  1  0  0  0  0
 14 20  2  0  0  0  0
 14 15  1  0  0  0  0
 15 21  1  0  0  0  0
 16 19  1  6  0  0  0
 16 24  1  0  0  0  0
 17 23  1  0  0  0  0
 18 15  2  0  0  0  0
 20 16  1  0  0  0  0
 21 24  1  0  0  0  0
 21 13  1  1  0  0  0
 22 17  1  0  0  0  0
 22 20  1  0  0  0  0
 23 19  2  0  0  0  0
 26 28  1  0  0  0  0
 26 25  1  0  0  0  0
 27 40  1  6  0  0  0
 28 29  1  0  0  0  0
 29 34  1  0  0  0  0
 30 36  1  6  0  0  0
 30 27  1  0  0  0  0
 31 28  2  0  0  0  0
 31 35  1  0  0  0  0
 32 27  1  0  0  0  0
 33 32  1  0  0  0  0
 34 30  1  0  0  0  0
 35 33  1  0  0  0  0
 35 34  2  0  0  0  0
 36 39  1  0  0  0  0
 38 39  1  0  0  0  0
 39 37  2  0  0  0  0
 40 41  1  0  0  0  0
M  END
>  <MODEL>
3

>  <REMARK>
 VINA RESULT:      -8.2      3.318      5.370
  Name = 
  9 active torsions:
  status: ('A' for Active; 'I' for Inactive)
    1  A    between atoms: N_1  and  C_25
    2  A    between atoms: C_4  and  O_12
    3  A    between atoms: C_5  and  C_15
    4  A    between atoms: C_5  and  C_24
    5  A    between atoms: C_7  and  S_22
    6  A    between atoms: C_15  and  C_33
    7  A    between atoms: S_22  and  C_35
    8  A    between atoms: C_24  and  C_35
    9  A    between atoms: C_24  and  C_38
                            x       y       z     vdW  Elec       q    Type
                         _______ _______ _______ _____ _____    ______ ____

>  <TORSDO>
F 9

$$$$
=
 OpenBabel11072413293D

 41 45  0  0  1  0  0  0  0  0999 V2000
  160.8640  211.2970  153.0310 C   0  0  2  0  0  3  0  0  0  0  0  0
  162.2540  210.7090  154.9570 C   0  0  0  0  0  0  0  0  0  0  0  0
  161.7710  209.6190  157.1150 C   0  0  0  0  0  3  0  0  0  0  0  0
  162.5920  210.6430  156.4090 C   0  0  0  0  0  2  0  0  0  0  0  0
  160.4480  209.7130  157.2200 C   0  0  0  0  0  3  0  0  0  0  0  0
  163.2580  210.4790  154.0720 F   0  0  0  0  0  0  0  0  0  0  0  0
  159.6270  210.7690  156.5990 C   0  0  0  0  0  0  0  0  0  0  0  0
  159.8830  211.3310  155.4100 C   0  0  0  0  0  3  0  0  0  0  0  0
  158.3420  211.1140  157.2610 C   0  0  0  0  0  1  0  0  0  0  0  0
  161.0440  211.0870  154.5120 C   0  0  0  0  0  0  0  0  0  0  0  0
  159.5370  211.8790  152.6330 C   0  0  0  0  0  0  0  0  0  0  0  0
  158.5780  211.1540  152.4090 O   0  0  0  0  0  0  0  0  0  0  0  0
  159.3950  213.3710  152.5350 C   0  0  0  0  0  2  0  0  0  0  0  0
  157.7360  213.4120  149.1120 N   0  0  0  0  0  0  0  0  0  0  0  0
  157.9020  213.7270  150.5020 C   0  0  0  0  0  0  0  0  0  0  0  0
  160.1550  213.5940  148.7410 C   0  0  1  0  0  3  0  0  0  0  0  0
  159.6020  213.0650  145.9570 C   0  0  0  0  0  2  0  0  0  0  0  0
  156.8350  214.0900  151.2030 C   0  0  0  0  0  2  0  0  0  0  0  0
  161.1330  212.8280  147.8870 C   0  0  0  0  0  3  0  0  0  0  0  0
  158.7390  213.3110  148.2920 C   0  0  0  0  0  0  0  0  0  0  0  0
  159.2880  213.8780  151.0890 C   0  0  2  0  0  3  0  0  0  0  0  0
  158.5030  212.9950  146.9170 N   0  0  0  0  0  2  0  0  0  0  0  0
  160.8780  212.5770  146.5930 C   0  0  0  0  0  3  0  0  0  0  0  0
  160.3450  213.2090  150.2030 C   0  0  0  0  0  2  0  0  0  0  0  0
  161.3140  210.1180  152.1680 C   0  0  0  0  0  2  0  0  0  0  0  0
  160.8010  208.4980  152.8280 S   0  0  0  0  0  0  0  0  0  0  0  0
  161.1680  205.3480  147.3950 C   0  0  2  0  0  3  0  0  0  0  0  0
  161.1350  207.6850  151.2720 C   0  0  0  0  0  0  0  0  0  0  0  0
  160.5230  206.5840  150.8810 O   0  0  0  0  0  0  0  0  0  0  0  0
  160.6500  205.1330  148.8350 C   0  0  2  0  0  3  0  0  0  0  0  0
  162.0370  208.1480  150.3740 N   0  0  0  0  0  0  0  0  0  0  0  0
  162.5950  205.9380  147.3710 C   0  0  0  0  0  2  0  0  0  0  0  0
  162.6720  207.3010  148.0770 C   0  0  0  0  0  2  0  0  0  0  0  0
  161.0110  206.2990  149.7030 C   0  0  0  0  0  0  0  0  0  0  0  0
  161.9540  207.2400  149.3880 C   0  0  0  0  0  0  0  0  0  0  0  0
  161.2240  203.9190  149.3970 N   0  0  0  0  0  2  0  0  0  0  0  0
  160.0190  202.4650  148.0190 O   0  0  0  0  0  0  0  0  0  0  0  0
  161.5250  201.4200  149.5310 C   0  0  0  0  0  1  0  0  0  0  0  0
  160.8760  202.6140  148.9290 C   0  0  0  0  0  0  0  0  0  0  0  0
  160.2930  206.1750  146.6860 O   0  0  0  0  0  0  0  0  0  0  0  0
  160.5030  205.8540  145.3450 C   0  0  0  0  0  1  0  0  0  0  0  0
  1 25  1  6  0  0  0
  1 10  1  0  0  0  0
  2  4  1  0  0  0  0
  3  5  2  0  0  0  0
  4  3  1  0  0  0  0
  6  2  1  0  0  0  0
  7  5  1  0  0  0  0
  7  9  1  0  0  0  0
  8  7  2  0  0  0  0
 10  2  2  0  0  0  0
 10  8  1  0  0  0  0
 11  1  1  0  0  0  0
 12 11  2  0  0  0  0
 13 11  1  0  0  0  0
 14 15  1  0  0  0  0
 15 21  1  0  0  0  0
 15 18  2  0  0  0  0
 16 19  1  6  0  0  0
 16 24  1  0  0  0  0
 17 23  1  0  0  0  0
 17 22  1  0  0  0  0
 20 16  1  0  0  0  0
 20 14  2  0  0  0  0
 21 13  1  1  0  0  0
 22 20  1  0  0  0  0
 23 19  2  0  0  0  0
 24 21  1  0  0  0  0
 25 26  1  0  0  0  0
 27 40  1  1  0  0  0
 27 30  1  0  0  0  0
 28 26  1  0  0  0  0
 29 28  1  0  0  0  0
 30 36  1  1  0  0  0
 30 34  1  0  0  0  0
 31 28  2  0  0  0  0
 32 27  1  0  0  0  0
 32 33  1  0  0  0  0
 33 35  1  0  0  0  0
 34 29  1  0  0  0  0
 35 34  2  0  0  0  0
 35 31  1  0  0  0  0
 37 39  2  0  0  0  0
 39 36  1  0  0  0  0
 39 38  1  0  0  0  0
 41 40  1  0  0  0  0
M  END
>  <MODEL>
4

>  <REMARK>
 VINA RESULT:      -7.5      2.645      7.527
  Name = 
  9 active torsions:
  status: ('A' for Active; 'I' for Inactive)
    1  A    between atoms: N_1  and  C_25
    2  A    between atoms: C_4  and  O_12
    3  A    between atoms: C_5  and  C_15
    4  A    between atoms: C_5  and  C_24
    5  A    between atoms: C_7  and  S_22
    6  A    between atoms: C_15  and  C_33
    7  A    between atoms: S_22  and  C_35
    8  A    between atoms: C_24  and  C_35
    9  A    between atoms: C_24  and  C_38
                            x       y       z     vdW  Elec       q    Type
                         _______ _______ _______ _____ _____    ______ ____

>  <TORSDO>
F 9

$$$$
=
 OpenBabel11072413293D

 41 45  0  0  1  0  0  0  0  0999 V2000
  160.7600  208.5120  152.7500 C   0  0  2  0  0  3  0  0  0  0  0  0
  160.5040  207.5470  154.9840 C   0  0  0  0  0  0  0  0  0  0  0  0
  160.5350  208.5140  157.2510 C   0  0  0  0  0  3  0  0  0  0  0  0
  160.8770  207.3300  156.4120 C   0  0  0  0  0  2  0  0  0  0  0  0
  161.1040  209.7030  157.0730 C   0  0  0  0  0  3  0  0  0  0  0  0
  159.6350  206.6660  154.4250 F   0  0  0  0  0  0  0  0  0  0  0  0
  162.0600  210.0280  155.9980 C   0  0  0  0  0  0  0  0  0  0  0  0
  162.0130  209.5190  154.7590 C   0  0  0  0  0  3  0  0  0  0  0  0
  163.0400  211.1140  156.2590 C   0  0  0  0  0  1  0  0  0  0  0  0
  161.0730  208.4980  154.2230 C   0  0  0  0  0  0  0  0  0  0  0  0
  161.3490  207.3710  151.9680 C   0  0  0  0  0  0  0  0  0  0  0  0
  162.2470  206.6880  152.4400 O   0  0  0  0  0  0  0  0  0  0  0  0
  160.8040  207.0640  150.6030 C   0  0  0  0  0  2  0  0  0  0  0  0
  161.2900  204.6870  147.6730 N   0  0  0  0  0  0  0  0  0  0  0  0
  161.4580  205.8880  148.4400 C   0  0  0  0  0  0  0  0  0  0  0  0
  161.3300  203.3290  149.7150 C   0  0  1  0  0  3  0  0  0  0  0  0
  161.1100  201.0240  147.9910 C   0  0  0  0  0  2  0  0  0  0  0  0
  161.8290  206.9970  147.8120 C   0  0  0  0  0  2  0  0  0  0  0  0
  160.5800  202.0970  150.1570 C   0  0  0  0  0  3  0  0  0  0  0  0
  161.1950  203.5130  148.2200 C   0  0  0  0  0  0  0  0  0  0  0  0
  161.4520  205.8330  149.9520 C   0  0  2  0  0  3  0  0  0  0  0  0
  161.0290  202.3560  147.3960 N   0  0  0  0  0  2  0  0  0  0  0  0
  160.4730  201.0250  149.3560 C   0  0  0  0  0  3  0  0  0  0  0  0
  160.7960  204.5450  150.4610 C   0  0  0  0  0  2  0  0  0  0  0  0
  160.9260  209.8780  152.0830 C   0  0  0  0  0  2  0  0  0  0  0  0
  162.5610  210.1170  151.3150 S   0  0  0  0  0  0  0  0  0  0  0  0
  160.3830  214.0650  146.9280 C   0  0  2  0  0  3  0  0  0  0  0  0
  161.8610  211.0390  149.9550 C   0  0  0  0  0  0  0  0  0  0  0  0
  161.4390  212.2840  150.0610 O   0  0  0  0  0  0  0  0  0  0  0  0
  160.4220  213.9380  148.4680 C   0  0  2  0  0  3  0  0  0  0  0  0
  161.7210  210.5270  148.7090 N   0  0  0  0  0  0  0  0  0  0  0  0
  159.9310  212.7540  146.2480 C   0  0  0  0  0  2  0  0  0  0  0  0
  160.8670  211.5780  146.5720 C   0  0  0  0  0  2  0  0  0  0  0  0
  161.0120  212.6230  148.8730 C   0  0  0  0  0  0  0  0  0  0  0  0
  161.1620  211.5480  148.0380 C   0  0  0  0  0  0  0  0  0  0  0  0
  159.0770  214.0510  149.0130 N   0  0  0  0  0  2  0  0  0  0  0  0
  159.7770  214.4440  151.2090 O   0  0  0  0  0  0  0  0  0  0  0  0
  157.4250  214.4530  150.8740 C   0  0  0  0  0  1  0  0  0  0  0  0
  158.8260  214.3230  150.3940 C   0  0  0  0  0  0  0  0  0  0  0  0
  161.6360  214.4520  146.4440 O   0  0  0  0  0  0  0  0  0  0  0  0
  161.6790  213.9690  145.1360 C   0  0  0  0  0  1  0  0  0  0  0  0
  1 25  1  6  0  0  0
  1 10  1  0  0  0  0
  2  4  1  0  0  0  0
  4  3  1  0  0  0  0
  5  3  2  0  0  0  0
  6  2  1  0  0  0  0
  7  9  1  0  0  0  0
  7  5  1  0  0  0  0
  8  7  2  0  0  0  0
 10  8  1  0  0  0  0
 10  2  2  0  0  0  0
 11 12  2  0  0  0  0
 11  1  1  0  0  0  0
 13 11  1  0  0  0  0
 14 20  2  0  0  0  0
 14 15  1  0  0  0  0
 15 21  1  0  0  0  0
 16 19  1  1  0  0  0
 16 24  1  0  0  0  0
 17 23  1  0  0  0  0
 18 15  2  0  0  0  0
 20 16  1  0  0  0  0
 21 24  1  0  0  0  0
 21 13  1  1  0  0  0
 22 17  1  0  0  0  0
 22 20  1  0  0  0  0
 23 19  2  0  0  0  0
 26 25  1  0  0  0  0
 27 40  1  6  0  0  0
 27 30  1  0  0  0  0
 28 29  1  0  0  0  0
 28 26  1  0  0  0  0
 30 34  1  0  0  0  0
 30 36  1  6  0  0  0
 31 28  2  0  0  0  0
 32 33  1  0  0  0  0
 32 27  1  0  0  0  0
 33 35  1  0  0  0  0
 34 29  1  0  0  0  0
 35 31  1  0  0  0  0
 35 34  2  0  0  0  0
 36 39  1  0  0  0  0
 39 38  1  0  0  0  0
 39 37  2  0  0  0  0
 41 40  1  0  0  0  0
M  END
>  <MODEL>
5

>  <REMARK>
 VINA RESULT:      -7.3      1.790      3.413
  Name = 
  9 active torsions:
  status: ('A' for Active; 'I' for Inactive)
    1  A    between atoms: N_1  and  C_25
    2  A    between atoms: C_4  and  O_12
    3  A    between atoms: C_5  and  C_15
    4  A    between atoms: C_5  and  C_24
    5  A    between atoms: C_7  and  S_22
    6  A    between atoms: C_15  and  C_33
    7  A    between atoms: S_22  and  C_35
    8  A    between atoms: C_24  and  C_35
    9  A    between atoms: C_24  and  C_38
                            x       y       z     vdW  Elec       q    Type
                         _______ _______ _______ _____ _____    ______ ____

>  <TORSDO>
F 9

$$$$
=
 OpenBabel11072413293D

 41 45  0  0  1  0  0  0  0  0999 V2000
  159.8650  212.2030  152.6680 C   0  0  2  0  0  3  0  0  0  0  0  0
  159.0380  213.2200  154.7340 C   0  0  0  0  0  0  0  0  0  0  0  0
  156.7770  213.5900  155.6430 C   0  0  0  0  0  3  0  0  0  0  0  0
  158.1650  214.1230  155.5390 C   0  0  0  0  0  2  0  0  0  0  0  0
  155.9880  213.4410  154.5820 C   0  0  0  0  0  3  0  0  0  0  0  0
  160.1480  212.7240  155.3380 F   0  0  0  0  0  0  0  0  0  0  0  0
  156.3950  213.6960  153.1870 C   0  0  0  0  0  0  0  0  0  0  0  0
  157.6200  213.4610  152.6980 C   0  0  0  0  0  3  0  0  0  0  0  0
  155.3320  214.0840  152.2250 C   0  0  0  0  0  1  0  0  0  0  0  0
  158.8220  212.9790  153.4300 C   0  0  0  0  0  0  0  0  0  0  0  0
  160.1350  212.7060  151.2770 C   0  0  0  0  0  0  0  0  0  0  0  0
  160.7300  212.0120  150.4650 O   0  0  0  0  0  0  0  0  0  0  0  0
  159.6430  214.0710  150.8870 C   0  0  0  0  0  2  0  0  0  0  0  0
  158.8330  212.9480  147.3440 N   0  0  0  0  0  0  0  0  0  0  0  0
  158.5720  213.4690  148.6550 C   0  0  0  0  0  0  0  0  0  0  0  0
  160.9670  214.1530  147.2460 C   0  0  1  0  0  3  0  0  0  0  0  0
  161.2510  213.1000  144.5720 C   0  0  0  0  0  2  0  0  0  0  0  0
  157.3370  213.3940  149.1350 C   0  0  0  0  0  2  0  0  0  0  0  0
  162.3250  213.8130  146.6850 C   0  0  0  0  0  3  0  0  0  0  0  0
  159.9230  213.2110  146.6890 C   0  0  0  0  0  0  0  0  0  0  0  0
  159.6190  214.2970  149.3680 C   0  0  2  0  0  3  0  0  0  0  0  0
  160.1190  212.6590  145.3840 N   0  0  0  0  0  2  0  0  0  0  0  0
  162.4600  213.3200  145.4430 C   0  0  0  0  0  3  0  0  0  0  0  0
  161.0100  214.0740  148.7670 C   0  0  0  0  0  2  0  0  0  0  0  0
  159.7170  210.6850  152.7650 C   0  0  0  0  0  2  0  0  0  0  0  0
  161.1620  209.8620  153.5120 S   0  0  0  0  0  0  0  0  0  0  0  0
  161.1850  205.8540  148.6620 C   0  0  2  0  0  3  0  0  0  0  0  0
  161.3880  208.8150  152.0810 C   0  0  0  0  0  0  0  0  0  0  0  0
  160.8260  207.6300  151.9520 O   0  0  0  0  0  0  0  0  0  0  0  0
  160.8450  205.8600  150.1700 C   0  0  2  0  0  3  0  0  0  0  0  0
  162.1490  209.1700  151.0180 N   0  0  0  0  0  0  0  0  0  0  0  0
  162.5500  206.5150  148.3710 C   0  0  0  0  0  2  0  0  0  0  0  0
  162.5960  207.9810  148.8310 C   0  0  0  0  0  2  0  0  0  0  0  0
  161.2050  207.1770  150.7860 C   0  0  0  0  0  0  0  0  0  0  0  0
  162.0310  208.1030  150.2100 C   0  0  0  0  0  0  0  0  0  0  0  0
  161.5700  204.7960  150.8500 N   0  0  0  0  0  2  0  0  0  0  0  0
  160.0850  203.1020  150.2230 O   0  0  0  0  0  0  0  0  0  0  0  0
  161.9500  202.3940  151.5140 C   0  0  0  0  0  1  0  0  0  0  0  0
  161.1430  203.4320  150.8210 C   0  0  0  0  0  0  0  0  0  0  0  0
  160.1760  206.4950  147.9380 O   0  0  0  0  0  0  0  0  0  0  0  0
  160.4540  206.2040  146.6020 C   0  0  0  0  0  1  0  0  0  0  0  0
  1 25  1  6  0  0  0
  1 10  1  0  0  0  0
  2  6  1  0  0  0  0
  2  4  1  0  0  0  0
  4  3  1  0  0  0  0
  5  3  2  0  0  0  0
  7  5  1  0  0  0  0
  8  7  2  0  0  0  0
  8 10  1  0  0  0  0
  9  7  1  0  0  0  0
 10  2  2  0  0  0  0
 11  1  1  0  0  0  0
 12 11  2  0  0  0  0
 13 11  1  0  0  0  0
 14 15  1  0  0  0  0
 15 18  2  0  0  0  0
 15 21  1  0  0  0  0
 16 19  1  6  0  0  0
 16 24  1  0  0  0  0
 17 22  1  0  0  0  0
 17 23  1  0  0  0  0
 20 16  1  0  0  0  0
 20 14  2  0  0  0  0
 21 13  1  1  0  0  0
 22 20  1  0  0  0  0
 23 19  2  0  0  0  0
 24 21  1  0  0  0  0
 25 26  1  0  0  0  0
 27 40  1  6  0  0  0
 27 30  1  0  0  0  0
 28 26  1  0  0  0  0
 29 28  1  0  0  0  0
 30 34  1  0  0  0  0
 30 36  1  1  0  0  0
 31 28  2  0  0  0  0
 32 27  1  0  0  0  0
 32 33  1  0  0  0  0
 33 35  1  0  0  0  0
 34 29  1  0  0  0  0
 35 34  2  0  0  0  0
 35 31  1  0  0  0  0
 37 39  2  0  0  0  0
 39 36  1  0  0  0  0
 39 38  1  0  0  0  0
 41 40  1  0  0  0  0
M  END
>  <MODEL>
6

>  <REMARK>
 VINA RESULT:      -7.1      2.949      7.815
  Name = 
  9 active torsions:
  status: ('A' for Active; 'I' for Inactive)
    1  A    between atoms: N_1  and  C_25
    2  A    between atoms: C_4  and  O_12
    3  A    between atoms: C_5  and  C_15
    4  A    between atoms: C_5  and  C_24
    5  A    between atoms: C_7  and  S_22
    6  A    between atoms: C_15  and  C_33
    7  A    between atoms: S_22  and  C_35
    8  A    between atoms: C_24  and  C_35
    9  A    between atoms: C_24  and  C_38
                            x       y       z     vdW  Elec       q    Type
                         _______ _______ _______ _____ _____    ______ ____

>  <TORSDO>
F 9

$$$$
=
 OpenBabel11072413293D

 41 45  0  0  1  0  0  0  0  0999 V2000
  160.9530  212.4340  148.0530 C   0  0  2  0  0  3  0  0  0  0  0  0
  159.3500  212.6110  146.2140 C   0  0  0  0  0  0  0  0  0  0  0  0
  159.5200  212.2200  143.7860 C   0  0  0  0  0  3  0  0  0  0  0  0
  158.8890  213.0380  144.8600 C   0  0  0  0  0  2  0  0  0  0  0  0
  160.8320  212.2250  143.5630 C   0  0  0  0  0  3  0  0  0  0  0  0
  158.4020  212.2040  147.0960 F   0  0  0  0  0  0  0  0  0  0  0  0
  161.8230  212.9520  144.3770 C   0  0  0  0  0  0  0  0  0  0  0  0
  161.7340  213.1300  145.7020 C   0  0  0  0  0  3  0  0  0  0  0  0
  163.0820  213.3720  143.7090 C   0  0  0  0  0  1  0  0  0  0  0  0
  160.6290  212.7190  146.6100 C   0  0  0  0  0  0  0  0  0  0  0  0
  161.2080  213.6520  148.8960 C   0  0  0  0  0  0  0  0  0  0  0  0
  162.3330  214.1210  148.9940 O   0  0  0  0  0  0  0  0  0  0  0  0
  160.0530  214.3040  149.6020 C   0  0  0  0  0  2  0  0  0  0  0  0
  157.2840  213.5460  152.0970 N   0  0  0  0  0  0  0  0  0  0  0  0
  157.8630  213.8440  150.8190 C   0  0  0  0  0  0  0  0  0  0  0  0
  159.1770  212.0910  152.6610 C   0  0  1  0  0  3  0  0  0  0  0  0
  157.7930  211.5220  155.1300 C   0  0  0  0  0  2  0  0  0  0  0  0
  157.0940  214.3880  149.8840 C   0  0  0  0  0  2  0  0  0  0  0  0
  159.9380  211.8270  153.9350 C   0  0  0  0  0  3  0  0  0  0  0  0
  157.8670  212.7810  152.9700 C   0  0  0  0  0  0  0  0  0  0  0  0
  159.2410  213.3290  150.4690 C   0  0  2  0  0  3  0  0  0  0  0  0
  157.2330  212.5240  154.2260 N   0  0  0  0  0  2  0  0  0  0  0  0
  159.2980  211.5660  155.0860 C   0  0  0  0  0  3  0  0  0  0  0  0
  160.0280  212.9400  151.7250 C   0  0  0  0  0  2  0  0  0  0  0  0
  161.9660  211.3070  148.2610 C   0  0  0  0  0  2  0  0  0  0  0  0
  161.8650  210.5350  149.9090 S   0  0  0  0  0  0  0  0  0  0  0  0
  161.2090  204.7020  147.6450 C   0  0  2  0  0  3  0  0  0  0  0  0
  161.9170  208.8900  149.2130 C   0  0  0  0  0  0  0  0  0  0  0  0
  161.0950  207.9230  149.5730 O   0  0  0  0  0  0  0  0  0  0  0  0
  160.7930  205.5260  148.8850 C   0  0  2  0  0  3  0  0  0  0  0  0
  162.8000  208.5190  148.2570 N   0  0  0  0  0  0  0  0  0  0  0  0
  162.7070  204.8700  147.3110 C   0  0  0  0  0  2  0  0  0  0  0  0
  163.0760  206.3330  147.0140 C   0  0  0  0  0  2  0  0  0  0  0  0
  161.4220  206.8850  148.8480 C   0  0  0  0  0  0  0  0  0  0  0  0
  162.4780  207.2310  148.0500 C   0  0  0  0  0  0  0  0  0  0  0  0
  161.2020  204.8390  150.1020 N   0  0  0  0  0  2  0  0  0  0  0  0
  160.0970  202.8430  149.5930 O   0  0  0  0  0  0  0  0  0  0  0  0
  161.3100  202.8420  151.6360 C   0  0  0  0  0  1  0  0  0  0  0  0
  160.8320  203.4880  150.3850 C   0  0  0  0  0  0  0  0  0  0  0  0
  160.4260  205.0590  146.5440 O   0  0  0  0  0  0  0  0  0  0  0  0
  161.0110  204.4040  145.4610 C   0  0  0  0  0  1  0  0  0  0  0  0
  1 25  1  6  0  0  0
  1 11  1  0  0  0  0
  2 10  2  0  0  0  0
  2  6  1  0  0  0  0
  3  4  1  0  0  0  0
  4  2  1  0  0  0  0
  5  3  2  0  0  0  0
  5  7  1  0  0  0  0
  7  8  2  0  0  0  0
  8 10  1  0  0  0  0
  9  7  1  0  0  0  0
 10  1  1  0  0  0  0
 11 12  2  0  0  0  0
 11 13  1  0  0  0  0
 14 20  2  0  0  0  0
 15 14  1  0  0  0  0
 16 24  1  6  0  0  0
 16 20  1  0  0  0  0
 16 19  1  0  0  0  0
 18 15  2  0  0  0  0
 19 23  2  0  0  0  0
 20 22  1  0  0  0  0
 21 13  1  1  0  0  0
 21 15  1  0  0  0  0
 21 24  1  0  0  0  0
 22 17  1  0  0  0  0
 23 17  1  0  0  0  0
 25 26  1  0  0  0  0
 27 40  1  6  0  0  0
 27 30  1  0  0  0  0
 28 29  1  0  0  0  0
 28 26  1  0  0  0  0
 30 36  1  1  0  0  0
 31 28  2  0  0  0  0
 32 27  1  0  0  0  0
 33 32  1  0  0  0  0
 33 35  1  0  0  0  0
 34 30  1  0  0  0  0
 34 29  1  0  0  0  0
 35 31  1  0  0  0  0
 35 34  2  0  0  0  0
 36 39  1  0  0  0  0
 37 39  2  0  0  0  0
 39 38  1  0  0  0  0
 41 40  1  0  0  0  0
M  END
>  <MODEL>
7

>  <REMARK>
 VINA RESULT:      -7.1      2.998      9.543
  Name = 
  9 active torsions:
  status: ('A' for Active; 'I' for Inactive)
    1  A    between atoms: N_1  and  C_25
    2  A    between atoms: C_4  and  O_12
    3  A    between atoms: C_5  and  C_15
    4  A    between atoms: C_5  and  C_24
    5  A    between atoms: C_7  and  S_22
    6  A    between atoms: C_15  and  C_33
    7  A    between atoms: S_22  and  C_35
    8  A    between atoms: C_24  and  C_35
    9  A    between atoms: C_24  and  C_38
                            x       y       z     vdW  Elec       q    Type
                         _______ _______ _______ _____ _____    ______ ____

>  <TORSDO>
F 9

$$$$
=
 OpenBabel11072413293D

 41 45  0  0  1  0  0  0  0  0999 V2000
  161.9560  207.6300  152.4360 C   0  0  2  0  0  3  0  0  0  0  0  0
  162.4590  209.8410  151.5180 C   0  0  0  0  0  0  0  0  0  0  0  0
  161.9270  210.9380  149.3750 C   0  0  0  0  0  3  0  0  0  0  0  0
  162.9280  210.7940  150.4700 C   0  0  0  0  0  2  0  0  0  0  0  0
  161.5810  209.9240  148.5860 C   0  0  0  0  0  3  0  0  0  0  0  0
  162.3520  210.3130  152.7870 F   0  0  0  0  0  0  0  0  0  0  0  0
  162.0630  208.5380  148.7340 C   0  0  0  0  0  0  0  0  0  0  0  0
  162.3180  207.9440  149.9080 C   0  0  0  0  0  3  0  0  0  0  0  0
  162.1110  207.6960  147.5110 C   0  0  0  0  0  1  0  0  0  0  0  0
  162.2500  208.5370  151.2700 C   0  0  0  0  0  0  0  0  0  0  0  0
  162.2620  206.1780  152.1980 C   0  0  0  0  0  0  0  0  0  0  0  0
  163.3560  205.8290  151.7810 O   0  0  0  0  0  0  0  0  0  0  0  0
  161.2070  205.1510  152.5030 C   0  0  0  0  0  2  0  0  0  0  0  0
  160.8520  202.2270  150.0970 N   0  0  0  0  0  0  0  0  0  0  0  0
  160.6290  202.9850  151.2940 C   0  0  0  0  0  0  0  0  0  0  0  0
  160.8310  204.2750  148.7470 C   0  0  1  0  0  3  0  0  0  0  0  0
  161.1620  202.5650  146.4440 C   0  0  0  0  0  2  0  0  0  0  0  0
  160.2270  202.3470  152.3860 C   0  0  0  0  0  2  0  0  0  0  0  0
  161.6190  204.7330  147.5460 C   0  0  0  0  0  3  0  0  0  0  0  0
  160.9820  202.7810  148.9300 C   0  0  0  0  0  0  0  0  0  0  0  0
  160.6140  204.4970  151.2460 C   0  0  2  0  0  3  0  0  0  0  0  0
  161.2030  201.9650  147.7760 N   0  0  0  0  0  2  0  0  0  0  0  0
  161.7780  203.9390  146.4750 C   0  0  0  0  0  3  0  0  0  0  0  0
  161.3100  205.0220  149.9860 C   0  0  0  0  0  2  0  0  0  0  0  0
  160.6060  207.8830  153.1080 C   0  0  0  0  0  2  0  0  0  0  0  0
  160.7120  208.0190  154.9220 S   0  0  0  0  0  0  0  0  0  0  0  0
  157.9500  213.6310  154.2490 C   0  0  2  0  0  3  0  0  0  0  0  0
  160.0850  209.6920  154.8990 C   0  0  0  0  0  0  0  0  0  0  0  0
  159.5050  210.2360  153.8480 O   0  0  0  0  0  0  0  0  0  0  0  0
  158.4900  212.4820  153.3660 C   0  0  2  0  0  3  0  0  0  0  0  0
  160.1520  210.5210  155.9680 N   0  0  0  0  0  0  0  0  0  0  0  0
  158.9550  214.0420  155.3460 C   0  0  0  0  0  2  0  0  0  0  0  0
  159.2920  212.8780  156.2920 C   0  0  0  0  0  2  0  0  0  0  0  0
  159.1700  211.4470  154.2080 C   0  0  0  0  0  0  0  0  0  0  0  0
  159.5780  211.6420  155.5000 C   0  0  0  0  0  0  0  0  0  0  0  0
  159.4330  213.0040  152.3880 N   0  0  0  0  0  2  0  0  0  0  0  0
  157.8350  213.3320  150.7130 O   0  0  0  0  0  0  0  0  0  0  0  0
  160.0490  213.9780  150.1460 C   0  0  0  0  0  1  0  0  0  0  0  0
  159.0340  213.4280  151.0830 C   0  0  0  0  0  0  0  0  0  0  0  0
  156.7300  213.2640  154.8240 O   0  0  0  0  0  0  0  0  0  0  0  0
  155.7680  213.6140  153.8780 C   0  0  0  0  0  1  0  0  0  0  0  0
  1 25  1  6  0  0  0
  2  6  1  0  0  0  0
  3  4  1  0  0  0  0
  4  2  1  0  0  0  0
  5  7  1  0  0  0  0
  5  3  2  0  0  0  0
  7  8  2  0  0  0  0
  8 10  1  0  0  0  0
  9  7  1  0  0  0  0
 10  2  2  0  0  0  0
 10  1  1  0  0  0  0
 11  1  1  0  0  0  0
 11 13  1  0  0  0  0
 12 11  2  0  0  0  0
 14 15  1  0  0  0  0
 15 18  2  0  0  0  0
 16 19  1  6  0  0  0
 16 20  1  0  0  0  0
 16 24  1  0  0  0  0
 17 23  1  0  0  0  0
 17 22  1  0  0  0  0
 20 14  2  0  0  0  0
 21 15  1  0  0  0  0
 21 13  1  1  0  0  0
 22 20  1  0  0  0  0
 23 19  2  0  0  0  0
 24 21  1  0  0  0  0
 25 26  1  0  0  0  0
 27 40  1  1  0  0  0
 27 32  1  0  0  0  0
 28 26  1  0  0  0  0
 28 31  2  0  0  0  0
 29 34  1  0  0  0  0
 29 28  1  0  0  0  0
 30 36  1  6  0  0  0
 30 34  1  0  0  0  0
 30 27  1  0  0  0  0
 32 33  1  0  0  0  0
 34 35  2  0  0  0  0
 35 31  1  0  0  0  0
 35 33  1  0  0  0  0
 37 39  2  0  0  0  0
 38 39  1  0  0  0  0
 39 36  1  0  0  0  0
 41 40  1  0  0  0  0
M  END
>  <MODEL>
8

>  <REMARK>
 VINA RESULT:      -7.1      2.935      5.120
  Name = 
  9 active torsions:
  status: ('A' for Active; 'I' for Inactive)
    1  A    between atoms: N_1  and  C_25
    2  A    between atoms: C_4  and  O_12
    3  A    between atoms: C_5  and  C_15
    4  A    between atoms: C_5  and  C_24
    5  A    between atoms: C_7  and  S_22
    6  A    between atoms: C_15  and  C_33
    7  A    between atoms: S_22  and  C_35
    8  A    between atoms: C_24  and  C_35
    9  A    between atoms: C_24  and  C_38
                            x       y       z     vdW  Elec       q    Type
                         _______ _______ _______ _____ _____    ______ ____

>  <TORSDO>
F 9

$$$$
=
 OpenBabel11072413293D

 41 45  0  0  1  0  0  0  0  0999 V2000
  161.6100  206.3470  148.8670 C   0  0  2  0  0  3  0  0  0  0  0  0
  162.1730  205.5810  146.6130 C   0  0  0  0  0  0  0  0  0  0  0  0
  161.4110  203.6820  145.2380 C   0  0  0  0  0  3  0  0  0  0  0  0
  162.5580  204.5670  145.5880 C   0  0  0  0  0  2  0  0  0  0  0  0
  160.8420  202.8680  146.1230 C   0  0  0  0  0  3  0  0  0  0  0  0
  162.3220  206.8890  146.2830 F   0  0  0  0  0  0  0  0  0  0  0  0
  161.2020  202.7910  147.5510 C   0  0  0  0  0  0  0  0  0  0  0  0
  161.5850  203.8380  148.2960 C   0  0  0  0  0  3  0  0  0  0  0  0
  160.9660  201.5010  148.2490 C   0  0  0  0  0  1  0  0  0  0  0  0
  161.7980  205.2440  147.8590 C   0  0  0  0  0  0  0  0  0  0  0  0
  160.4820  206.1290  149.8370 C   0  0  0  0  0  0  0  0  0  0  0  0
  159.3190  206.2420  149.4790 O   0  0  0  0  0  0  0  0  0  0  0  0
  160.8030  205.7460  151.2540 C   0  0  0  0  0  2  0  0  0  0  0  0
  160.9220  207.7860  154.4630 N   0  0  0  0  0  0  0  0  0  0  0  0
  161.2120  206.6890  153.5850 C   0  0  0  0  0  0  0  0  0  0  0  0
  161.0740  209.3720  152.5970 C   0  0  1  0  0  3  0  0  0  0  0  0
  160.5970  211.4520  154.5410 C   0  0  0  0  0  2  0  0  0  0  0  0
  161.5790  205.5300  154.1170 C   0  0  0  0  0  2  0  0  0  0  0  0
  160.3080  210.6170  152.2300 C   0  0  0  0  0  3  0  0  0  0  0  0
  160.8200  209.0110  154.0440 C   0  0  0  0  0  0  0  0  0  0  0  0
  161.3340  206.9180  152.0950 C   0  0  2  0  0  3  0  0  0  0  0  0
  160.5280  210.0580  154.9730 N   0  0  0  0  0  2  0  0  0  0  0  0
  160.0810  211.5850  153.1320 C   0  0  0  0  0  3  0  0  0  0  0  0
  160.6640  208.2300  151.6750 C   0  0  0  0  0  2  0  0  0  0  0  0
  161.6630  207.7570  148.2780 C   0  0  0  0  0  2  0  0  0  0  0  0
  162.9860  208.7900  148.9880 S   0  0  0  0  0  0  0  0  0  0  0  0
  159.3630  213.6150  147.2050 C   0  0  2  0  0  3  0  0  0  0  0  0
  162.0890  210.2950  148.6360 C   0  0  0  0  0  0  0  0  0  0  0  0
  161.4870  210.5310  147.4870 O   0  0  0  0  0  0  0  0  0  0  0  0
  160.1380  212.4390  146.5670 C   0  0  2  0  0  3  0  0  0  0  0  0
  161.9540  211.3020  149.5310 N   0  0  0  0  0  0  0  0  0  0  0  0
  160.2200  214.3880  148.2310 C   0  0  0  0  0  2  0  0  0  0  0  0
  160.6930  213.4900  149.3860 C   0  0  0  0  0  2  0  0  0  0  0  0
  160.9330  211.7080  147.6040 C   0  0  0  0  0  0  0  0  0  0  0  0
  161.2280  212.2010  148.8470 C   0  0  0  0  0  0  0  0  0  0  0  0
  161.0340  212.9340  145.5320 N   0  0  0  0  0  2  0  0  0  0  0  0
  159.9440  211.8420  143.7750 O   0  0  0  0  0  0  0  0  0  0  0  0
  161.8070  213.1750  143.1450 C   0  0  0  0  0  1  0  0  0  0  0  0
  160.8690  212.6090  144.1500 C   0  0  0  0  0  0  0  0  0  0  0  0
  158.1910  213.1490  147.8080 O   0  0  0  0  0  0  0  0  0  0  0  0
  157.4520  212.5850  146.7680 C   0  0  0  0  0  1  0  0  0  0  0  0
  1 25  1  6  0  0  0
  1 11  1  0  0  0  0
  2 10  2  0  0  0  0
  3  4  1  0  0  0  0
  3  5  2  0  0  0  0
  4  2  1  0  0  0  0
  5  7  1  0  0  0  0
  6  2  1  0  0  0  0
  7  9  1  0  0  0  0
  7  8  2  0  0  0  0
 10  8  1  0  0  0  0
 10  1  1  0  0  0  0
 11 13  1  0  0  0  0
 12 11  2  0  0  0  0
 15 18  2  0  0  0  0
 15 14  1  0  0  0  0
 16 24  1  6  0  0  0
 16 20  1  0  0  0  0
 17 22  1  0  0  0  0
 19 16  1  0  0  0  0
 19 23  2  0  0  0  0
 20 14  2  0  0  0  0
 20 22  1  0  0  0  0
 21 13  1  6  0  0  0
 21 15  1  0  0  0  0
 23 17  1  0  0  0  0
 24 21  1  0  0  0  0
 25 26  1  0  0  0  0
 27 40  1  1  0  0  0
 27 32  1  0  0  0  0
 28 26  1  0  0  0  0
 28 31  2  0  0  0  0
 29 34  1  0  0  0  0
 29 28  1  0  0  0  0
 30 36  1  6  0  0  0
 30 27  1  0  0  0  0
 30 34  1  0  0  0  0
 32 33  1  0  0  0  0
 34 35  2  0  0  0  0
 35 33  1  0  0  0  0
 35 31  1  0  0  0  0
 37 39  2  0  0  0  0
 38 39  1  0  0  0  0
 39 36  1  0  0  0  0
 41 40  1  0  0  0  0
M  END
>  <MODEL>
9

>  <REMARK>
 VINA RESULT:      -7.0      2.632      6.248
  Name = 
  9 active torsions:
  status: ('A' for Active; 'I' for Inactive)
    1  A    between atoms: N_1  and  C_25
    2  A    between atoms: C_4  and  O_12
    3  A    between atoms: C_5  and  C_15
    4  A    between atoms: C_5  and  C_24
    5  A    between atoms: C_7  and  S_22
    6  A    between atoms: C_15  and  C_33
    7  A    between atoms: S_22  and  C_35
    8  A    between atoms: C_24  and  C_35
    9  A    between atoms: C_24  and  C_38
                            x       y       z     vdW  Elec       q    Type
                         _______ _______ _______ _____ _____    ______ ____

>  <TORSDO>
F 9

$$$$
