=
 OpenBabel11072414243D

 26 27  0  0  1  0  0  0  0  0999 V2000
  160.8210  203.2620  150.1390 C   0  0  0  0  0  0  0  0  0  0  0  0
  161.0080  203.1410  151.5270 C   0  0  0  0  0  3  0  0  0  0  0  0
  161.1420  205.5490  151.7420 C   0  0  0  0  0  0  0  0  0  0  0  0
  160.9860  205.6810  150.3600 C   0  0  0  0  0  3  0  0  0  0  0  0
  160.8310  204.5440  149.5620 C   0  0  0  0  0  3  0  0  0  0  0  0
  161.1650  204.2780  152.3230 C   0  0  0  0  0  3  0  0  0  0  0  0
  160.7060  202.0330  149.2700 C   0  0  1  0  0  0  0  0  0  0  0  0
  161.4450  200.9810  149.8200 O   0  0  0  0  0  1  0  0  0  0  0  0
  159.3120  201.6210  149.1720 N   0  0  0  0  0  1  0  0  0  0  0  0
  161.2500  202.3570  147.8800 C   0  0  0  0  0  2  0  0  0  0  0  0
  160.7840  201.4240  146.9130 O   0  0  0  0  0  0  0  0  0  0  0  0
  159.9720  200.9750  144.8150 O   0  0  0  0  0  0  0  0  0  0  0  0
  160.8370  203.0710  145.1370 O   0  0  0  0  0  1  0  0  0  0  0  0
  160.5100  201.7990  145.5970 C   0  0  0  0  0  0  0  0  0  0  0  0
  161.3320  206.7580  152.5900 C   0  0  0  0  0  2  0  0  0  0  0  0
  160.7750  206.5230  153.9130 N   0  0  0  0  0  2  0  0  0  0  0  0
  159.8800  210.2730  155.6520 C   0  0  2  0  0  3  0  0  0  0  0  0
  160.4910  210.1080  154.2790 C   0  0  0  0  0  3  0  0  0  0  0  0
  160.0660  207.7810  155.8770 C   0  0  0  0  0  2  0  0  0  0  0  0
  160.9770  208.9370  153.8360 C   0  0  0  0  0  3  0  0  0  0  0  0
  160.2370  209.1170  156.5920 C   0  0  0  0  0  2  0  0  0  0  0  0
  161.0430  207.7080  154.7090 C   0  0  2  0  0  3  0  0  0  0  0  0
  158.4330  210.3760  155.5360 N   0  0  0  0  0  2  0  0  0  0  0  0
  158.1500  211.5320  154.7000 C   0  0  0  0  0  2  0  0  0  0  0  0
  156.1300  210.6740  155.2320 O   0  0  0  0  0  1  0  0  0  0  0  0
  156.7120  211.7050  154.5760 N   0  0  0  0  0  2  0  0  0  0  0  0
  1  2  1  0  0  0  0
  2  6  2  0  0  0  0
  3  6  1  0  0  0  0
  3 15  1  0  0  0  0
  4  3  2  0  0  0  0
  5  1  2  0  0  0  0
  5  4  1  0  0  0  0
  7  9  1  6  0  0  0
  7  8  1  0  0  0  0
  7  1  1  0  0  0  0
 10  7  1  0  0  0  0
 11 10  1  0  0  0  0
 12 14  2  0  0  0  0
 13 14  1  0  0  0  0
 14 11  1  0  0  0  0
 15 16  1  0  0  0  0
 17 23  1  6  0  0  0
 17 21  1  0  0  0  0
 18 17  1  0  0  0  0
 19 21  1  0  0  0  0
 20 18  2  0  0  0  0
 20 22  1  0  0  0  0
 22 16  1  6  0  0  0
 22 19  1  0  0  0  0
 24 23  1  0  0  0  0
 26 24  1  0  0  0  0
 26 25  1  0  0  0  0
M  END
>  <MODEL>
1

>  <REMARK>
 VINA RESULT:      -7.4      0.000      0.000
  Name = 
  10 active torsions:
  status: ('A' for Active; 'I' for Inactive)
    1  A    between atoms: C_1  and  C_3
    2  A    between atoms: C_1  and  C_7
    3  A    between atoms: N_2  and  C_17
    4  A    between atoms: N_2  and  C_21
    5  A    between atoms: C_5  and  N_6
    6  A    between atoms: N_6  and  C_19
    7  A    between atoms: C_7  and  O_24
    8  A    between atoms: C_12  and  C_17
    9  A    between atoms: N_16  and  C_19
   10  A    between atoms: O_24  and  C_25
                            x       y       z     vdW  Elec       q    Type
                         _______ _______ _______ _____ _____    ______ ____

>  <TORSDO>
F 10

$$$$
=
 OpenBabel11072414243D

 26 27  0  0  1  0  0  0  0  0999 V2000
  160.8860  203.2410  150.2240 C   0  0  0  0  0  0  0  0  0  0  0  0
  160.8410  204.5400  149.6890 C   0  0  0  0  0  3  0  0  0  0  0  0
  161.1290  205.4850  151.9000 C   0  0  0  0  0  0  0  0  0  0  0  0
  161.1460  204.1990  152.4470 C   0  0  0  0  0  3  0  0  0  0  0  0
  161.0210  203.0840  151.6150 C   0  0  0  0  0  3  0  0  0  0  0  0
  160.9650  205.6550  150.5220 C   0  0  0  0  0  3  0  0  0  0  0  0
  160.6990  202.0370  149.3330 C   0  0  1  0  0  0  0  0  0  0  0  0
  161.4110  200.9460  149.8410 O   0  0  0  0  0  1  0  0  0  0  0  0
  159.2890  201.6810  149.2660 N   0  0  0  0  0  1  0  0  0  0  0  0
  161.2180  202.3690  147.9360 C   0  0  0  0  0  2  0  0  0  0  0  0
  160.7020  201.4650  146.9650 O   0  0  0  0  0  0  0  0  0  0  0  0
  160.9720  202.9460  145.2340 O   0  0  0  0  0  1  0  0  0  0  0  0
  159.9340  200.9700  144.7230 O   0  0  0  0  0  0  0  0  0  0  0  0
  160.5520  201.8270  145.6260 C   0  0  0  0  0  0  0  0  0  0  0  0
  161.2380  206.6750  152.7880 C   0  0  0  0  0  2  0  0  0  0  0  0
  160.7690  207.8590  152.0840 N   0  0  0  0  0  2  0  0  0  0  0  0
  159.9180  210.9030  154.8940 C   0  0  2  0  0  3  0  0  0  0  0  0
  159.7380  211.0630  153.4020 C   0  0  0  0  0  3  0  0  0  0  0  0
  160.8770  208.6400  154.3910 C   0  0  0  0  0  2  0  0  0  0  0  0
  160.2220  210.1810  152.5120 C   0  0  0  0  0  3  0  0  0  0  0  0
  161.0190  209.8960  155.2430 C   0  0  0  0  0  2  0  0  0  0  0  0
  161.0730  209.0050  152.9230 C   0  0  2  0  0  3  0  0  0  0  0  0
  158.6630  210.4810  155.4970 N   0  0  0  0  0  2  0  0  0  0  0  0
  157.6030  211.2540  154.8690 C   0  0  0  0  0  2  0  0  0  0  0  0
  155.4390  210.6170  154.7620 O   0  0  0  0  0  1  0  0  0  0  0  0
  156.3700  211.0940  155.6220 N   0  0  0  0  0  2  0  0  0  0  0  0
  1  5  1  0  0  0  0
  2  1  2  0  0  0  0
  2  6  1  0  0  0  0
  3  4  1  0  0  0  0
  3 15  1  0  0  0  0
  5  4  2  0  0  0  0
  6  3  2  0  0  0  0
  7  9  1  6  0  0  0
  7  8  1  0  0  0  0
  7  1  1  0  0  0  0
 10  7  1  0  0  0  0
 11 10  1  0  0  0  0
 12 14  1  0  0  0  0
 13 14  2  0  0  0  0
 14 11  1  0  0  0  0
 16 15  1  0  0  0  0
 17 21  1  0  0  0  0
 17 23  1  1  0  0  0
 18 17  1  0  0  0  0
 19 21  1  0  0  0  0
 20 22  1  0  0  0  0
 20 18  2  0  0  0  0
 22 16  1  6  0  0  0
 22 19  1  0  0  0  0
 24 23  1  0  0  0  0
 24 26  1  0  0  0  0
 25 26  1  0  0  0  0
M  END
>  <MODEL>
2

>  <REMARK>
 VINA RESULT:      -7.4      0.842      1.527
  Name = 
  10 active torsions:
  status: ('A' for Active; 'I' for Inactive)
    1  A    between atoms: C_1  and  C_3
    2  A    between atoms: C_1  and  C_7
    3  A    between atoms: N_2  and  C_17
    4  A    between atoms: N_2  and  C_21
    5  A    between atoms: C_5  and  N_6
    6  A    between atoms: N_6  and  C_19
    7  A    between atoms: C_7  and  O_24
    8  A    between atoms: C_12  and  C_17
    9  A    between atoms: N_16  and  C_19
   10  A    between atoms: O_24  and  C_25
                            x       y       z     vdW  Elec       q    Type
                         _______ _______ _______ _____ _____    ______ ____

>  <TORSDO>
F 10

$$$$
=
 OpenBabel11072414243D

 26 27  0  0  1  0  0  0  0  0999 V2000
  160.9030  203.2620  150.0960 C   0  0  0  0  0  0  0  0  0  0  0  0
  160.8510  204.5460  149.5260 C   0  0  0  0  0  3  0  0  0  0  0  0
  161.1330  205.5510  151.7110 C   0  0  0  0  0  0  0  0  0  0  0  0
  161.1570  204.2810  152.2930 C   0  0  0  0  0  3  0  0  0  0  0  0
  161.0380  203.1430  151.4910 C   0  0  0  0  0  3  0  0  0  0  0  0
  160.9690  205.6830  150.3290 C   0  0  0  0  0  3  0  0  0  0  0  0
  160.7220  202.0330  149.2380 C   0  0  1  0  0  0  0  0  0  0  0  0
  161.4200  200.9530  149.7890 O   0  0  0  0  0  1  0  0  0  0  0  0
  159.3110  201.6840  149.1590 N   0  0  0  0  0  1  0  0  0  0  0  0
  161.2640  202.3210  147.8400 C   0  0  0  0  0  2  0  0  0  0  0  0
  160.7510  201.3990  146.8870 O   0  0  0  0  0  0  0  0  0  0  0  0
  159.9440  200.9470  144.7870 O   0  0  0  0  0  0  0  0  0  0  0  0
  160.8210  203.0380  145.1050 O   0  0  0  0  0  1  0  0  0  0  0  0
  160.4850  201.7710  145.5680 C   0  0  0  0  0  0  0  0  0  0  0  0
  161.2360  206.7660  152.5660 C   0  0  0  0  0  2  0  0  0  0  0  0
  160.8080  206.4520  153.9200 N   0  0  0  0  0  2  0  0  0  0  0  0
  159.9710  210.2020  155.6870 C   0  0  2  0  0  3  0  0  0  0  0  0
  160.6160  210.0380  154.3300 C   0  0  0  0  0  3  0  0  0  0  0  0
  160.0800  207.7040  155.8820 C   0  0  0  0  0  2  0  0  0  0  0  0
  161.0810  208.8600  153.8830 C   0  0  0  0  0  3  0  0  0  0  0  0
  160.2690  209.0250  156.6200 C   0  0  0  0  0  2  0  0  0  0  0  0
  161.0880  207.6190  154.7400 C   0  0  2  0  0  3  0  0  0  0  0  0
  158.5320  210.3480  155.5320 N   0  0  0  0  0  2  0  0  0  0  0  0
  158.3100  211.3440  154.4960 C   0  0  0  0  0  2  0  0  0  0  0  0
  156.7990  212.8510  155.2340 O   0  0  0  0  0  1  0  0  0  0  0  0
  156.9090  211.7310  154.4810 N   0  0  0  0  0  2  0  0  0  0  0  0
  1  5  1  0  0  0  0
  2  1  2  0  0  0  0
  2  6  1  0  0  0  0
  3  4  1  0  0  0  0
  3 15  1  0  0  0  0
  5  4  2  0  0  0  0
  6  3  2  0  0  0  0
  7  9  1  6  0  0  0
  7  8  1  0  0  0  0
  7  1  1  0  0  0  0
 10  7  1  0  0  0  0
 11 10  1  0  0  0  0
 12 14  2  0  0  0  0
 13 14  1  0  0  0  0
 14 11  1  0  0  0  0
 15 16  1  0  0  0  0
 17 23  1  6  0  0  0
 17 21  1  0  0  0  0
 18 17  1  0  0  0  0
 19 21  1  0  0  0  0
 20 18  2  0  0  0  0
 20 22  1  0  0  0  0
 22 16  1  6  0  0  0
 22 19  1  0  0  0  0
 24 23  1  0  0  0  0
 26 24  1  0  0  0  0
 26 25  1  0  0  0  0
M  END
>  <MODEL>
3

>  <REMARK>
 VINA RESULT:      -7.4      0.459      1.055
  Name = 
  10 active torsions:
  status: ('A' for Active; 'I' for Inactive)
    1  A    between atoms: C_1  and  C_3
    2  A    between atoms: C_1  and  C_7
    3  A    between atoms: N_2  and  C_17
    4  A    between atoms: N_2  and  C_21
    5  A    between atoms: C_5  and  N_6
    6  A    between atoms: N_6  and  C_19
    7  A    between atoms: C_7  and  O_24
    8  A    between atoms: C_12  and  C_17
    9  A    between atoms: N_16  and  C_19
   10  A    between atoms: O_24  and  C_25
                            x       y       z     vdW  Elec       q    Type
                         _______ _______ _______ _____ _____    ______ ____

>  <TORSDO>
F 10

$$$$
=
 OpenBabel11072414243D

 26 27  0  0  1  0  0  0  0  0999 V2000
  160.2160  209.4590  155.1430 C   0  0  0  0  0  0  0  0  0  0  0  0
  160.0980  208.2370  155.8260 C   0  0  0  0  0  3  0  0  0  0  0  0
  160.9850  207.0530  153.9100 C   0  0  0  0  0  0  0  0  0  0  0  0
  161.0810  208.2580  153.2090 C   0  0  0  0  0  3  0  0  0  0  0  0
  160.6940  209.4540  153.8200 C   0  0  0  0  0  3  0  0  0  0  0  0
  160.4830  207.0420  155.2140 C   0  0  0  0  0  3  0  0  0  0  0  0
  159.7510  210.7450  155.7820 C   0  0  1  0  0  0  0  0  0  0  0  0
  159.4180  210.5250  157.1220 O   0  0  0  0  0  1  0  0  0  0  0  0
  160.8100  211.7430  155.7240 N   0  0  0  0  0  1  0  0  0  0  0  0
  158.5200  211.2520  155.0360 C   0  0  0  0  0  2  0  0  0  0  0  0
  157.3200  210.8730  155.7000 O   0  0  0  0  0  0  0  0  0  0  0  0
  155.2160  210.1180  155.1820 O   0  0  0  0  0  1  0  0  0  0  0  0
  155.7470  212.2210  154.4450 O   0  0  0  0  0  0  0  0  0  0  0  0
  156.0660  211.0440  155.1140 C   0  0  0  0  0  0  0  0  0  0  0  0
  161.3740  205.7750  153.2520 C   0  0  0  0  0  2  0  0  0  0  0  0
  161.8910  206.0450  151.9190 N   0  0  0  0  0  2  0  0  0  0  0  0
  160.8480  204.2060  148.2550 C   0  0  2  0  0  3  0  0  0  0  0  0
  160.7520  205.6940  148.5060 C   0  0  0  0  0  3  0  0  0  0  0  0
  161.5140  203.9890  150.6640 C   0  0  0  0  0  2  0  0  0  0  0  0
  160.8660  206.2340  149.7300 C   0  0  0  0  0  3  0  0  0  0  0  0
  160.6790  203.3870  149.5380 C   0  0  0  0  0  2  0  0  0  0  0  0
  161.0010  205.3910  150.9740 C   0  0  2  0  0  3  0  0  0  0  0  0
  162.1310  203.8940  147.6440 N   0  0  0  0  0  2  0  0  0  0  0  0
  162.2030  204.6340  146.3940 C   0  0  0  0  0  2  0  0  0  0  0  0
  161.1350  204.8330  144.4140 O   0  0  0  0  0  1  0  0  0  0  0  0
  161.4650  203.9250  145.3620 N   0  0  0  0  0  2  0  0  0  0  0  0
  1  7  1  0  0  0  0
  1  2  1  0  0  0  0
  3  6  1  0  0  0  0
  4  5  1  0  0  0  0
  4  3  2  0  0  0  0
  5  1  2  0  0  0  0
  6  2  2  0  0  0  0
  7  9  1  6  0  0  0
  7  8  1  0  0  0  0
 10 11  1  0  0  0  0
 10  7  1  0  0  0  0
 13 14  2  0  0  0  0
 14 12  1  0  0  0  0
 14 11  1  0  0  0  0
 15  3  1  0  0  0  0
 16 15  1  0  0  0  0
 17 23  1  1  0  0  0
 17 18  1  0  0  0  0
 17 21  1  0  0  0  0
 18 20  2  0  0  0  0
 19 22  1  0  0  0  0
 20 22  1  0  0  0  0
 21 19  1  0  0  0  0
 22 16  1  1  0  0  0
 24 23  1  0  0  0  0
 25 26  1  0  0  0  0
 26 24  1  0  0  0  0
M  END
>  <MODEL>
4

>  <REMARK>
 VINA RESULT:      -6.9      2.483      9.696
  Name = 
  10 active torsions:
  status: ('A' for Active; 'I' for Inactive)
    1  A    between atoms: C_1  and  C_3
    2  A    between atoms: C_1  and  C_7
    3  A    between atoms: N_2  and  C_17
    4  A    between atoms: N_2  and  C_21
    5  A    between atoms: C_5  and  N_6
    6  A    between atoms: N_6  and  C_19
    7  A    between atoms: C_7  and  O_24
    8  A    between atoms: C_12  and  C_17
    9  A    between atoms: N_16  and  C_19
   10  A    between atoms: O_24  and  C_25
                            x       y       z     vdW  Elec       q    Type
                         _______ _______ _______ _____ _____    ______ ____

>  <TORSDO>
F 10

$$$$
=
 OpenBabel11072414243D

 26 27  0  0  1  0  0  0  0  0999 V2000
  161.0810  208.2170  153.0230 C   0  0  0  0  0  0  0  0  0  0  0  0
  161.0770  207.0790  153.8470 C   0  0  0  0  0  3  0  0  0  0  0  0
  161.2290  205.6430  151.9040 C   0  0  0  0  0  0  0  0  0  0  0  0
  161.2050  206.7650  151.0720 C   0  0  0  0  0  3  0  0  0  0  0  0
  161.1260  208.0450  151.6280 C   0  0  0  0  0  3  0  0  0  0  0  0
  161.1540  205.8000  153.2910 C   0  0  0  0  0  3  0  0  0  0  0  0
  160.9440  209.5970  153.6190 C   0  0  1  0  0  0  0  0  0  0  0  0
  160.5060  209.5100  154.9440 O   0  0  0  0  0  1  0  0  0  0  0  0
  162.2300  210.2790  153.5980 N   0  0  0  0  0  1  0  0  0  0  0  0
  159.9240  210.3890  152.8040 C   0  0  0  0  0  2  0  0  0  0  0  0
  160.0830  211.7900  152.9970 O   0  0  0  0  0  0  0  0  0  0  0  0
  157.9410  212.5730  153.2390 O   0  0  0  0  0  0  0  0  0  0  0  0
  159.4690  213.3140  154.7750 O   0  0  0  0  0  1  0  0  0  0  0  0
  159.1260  212.5580  153.6610 C   0  0  0  0  0  0  0  0  0  0  0  0
  161.2890  204.2770  151.3130 C   0  0  0  0  0  2  0  0  0  0  0  0
  160.5310  204.2450  150.0710 N   0  0  0  0  0  2  0  0  0  0  0  0
  161.6800  203.3560  146.0990 C   0  0  2  0  0  3  0  0  0  0  0  0
  161.0810  202.3420  147.0470 C   0  0  0  0  0  3  0  0  0  0  0  0
  161.6370  204.9660  148.0220 C   0  0  0  0  0  2  0  0  0  0  0  0
  160.9340  202.5740  148.3620 C   0  0  0  0  0  3  0  0  0  0  0  0
  162.4480  204.4580  146.8350 C   0  0  0  0  0  2  0  0  0  0  0  0
  161.4460  203.8300  149.0220 C   0  0  2  0  0  3  0  0  0  0  0  0
  160.6290  203.9520  145.2900 N   0  0  0  0  0  2  0  0  0  0  0  0
  161.2750  204.8030  144.3040 C   0  0  0  0  0  2  0  0  0  0  0  0
  159.7850  206.1720  145.3070 O   0  0  0  0  0  1  0  0  0  0  0  0
  160.8910  206.1870  144.5240 N   0  0  0  0  0  2  0  0  0  0  0  0
  1  7  1  0  0  0  0
  1  2  1  0  0  0  0
  3  6  1  0  0  0  0
  4  5  1  0  0  0  0
  4  3  2  0  0  0  0
  5  1  2  0  0  0  0
  6  2  2  0  0  0  0
  7  9  1  6  0  0  0
  7  8  1  0  0  0  0
 10 11  1  0  0  0  0
 10  7  1  0  0  0  0
 11 14  1  0  0  0  0
 12 14  2  0  0  0  0
 14 13  1  0  0  0  0
 15  3  1  0  0  0  0
 16 15  1  0  0  0  0
 17 23  1  1  0  0  0
 17 21  1  0  0  0  0
 17 18  1  0  0  0  0
 18 20  2  0  0  0  0
 19 22  1  0  0  0  0
 20 22  1  0  0  0  0
 21 19  1  0  0  0  0
 22 16  1  1  0  0  0
 24 26  1  0  0  0  0
 24 23  1  0  0  0  0
 26 25  1  0  0  0  0
M  END
>  <MODEL>
5

>  <REMARK>
 VINA RESULT:      -6.8      3.050      9.552
  Name = 
  10 active torsions:
  status: ('A' for Active; 'I' for Inactive)
    1  A    between atoms: C_1  and  C_3
    2  A    between atoms: C_1  and  C_7
    3  A    between atoms: N_2  and  C_17
    4  A    between atoms: N_2  and  C_21
    5  A    between atoms: C_5  and  N_6
    6  A    between atoms: N_6  and  C_19
    7  A    between atoms: C_7  and  O_24
    8  A    between atoms: C_12  and  C_17
    9  A    between atoms: N_16  and  C_19
   10  A    between atoms: O_24  and  C_25
                            x       y       z     vdW  Elec       q    Type
                         _______ _______ _______ _____ _____    ______ ____

>  <TORSDO>
F 10

$$$$
=
 OpenBabel11072414243D

 26 27  0  0  1  0  0  0  0  0999 V2000
  161.3530  205.9590  147.5180 C   0  0  0  0  0  0  0  0  0  0  0  0
  160.8590  205.2980  148.6560 C   0  0  0  0  0  3  0  0  0  0  0  0
  161.1960  207.2920  149.9880 C   0  0  0  0  0  0  0  0  0  0  0  0
  161.7160  207.9500  148.8710 C   0  0  0  0  0  3  0  0  0  0  0  0
  161.7980  207.2870  147.6440 C   0  0  0  0  0  3  0  0  0  0  0  0
  160.7780  205.9620  149.8820 C   0  0  0  0  0  3  0  0  0  0  0  0
  161.4920  205.2270  146.2040 C   0  0  1  0  0  0  0  0  0  0  0  0
  160.3700  205.4590  145.4020 O   0  0  0  0  0  1  0  0  0  0  0  0
  162.6750  205.6950  145.4960 N   0  0  0  0  0  1  0  0  0  0  0  0
  161.6100  203.7310  146.4810 C   0  0  0  0  0  2  0  0  0  0  0  0
  161.0340  202.9630  145.4310 O   0  0  0  0  0  0  0  0  0  0  0  0
  159.8580  201.1090  144.7670 O   0  0  0  0  0  0  0  0  0  0  0  0
  160.9540  200.9480  146.7710 O   0  0  0  0  0  1  0  0  0  0  0  0
  160.5950  201.6540  145.6280 C   0  0  0  0  0  0  0  0  0  0  0  0
  161.1290  207.9890  151.3010 C   0  0  0  0  0  2  0  0  0  0  0  0
  160.8870  207.0220  152.3610 N   0  0  0  0  0  2  0  0  0  0  0  0
  160.5700  209.3550  155.8740 C   0  0  2  0  0  3  0  0  0  0  0  0
  161.0080  209.9070  154.5360 C   0  0  0  0  0  3  0  0  0  0  0  0
  160.5270  207.1030  154.7710 C   0  0  0  0  0  2  0  0  0  0  0  0
  161.3220  209.1200  153.4940 C   0  0  0  0  0  3  0  0  0  0  0  0
  160.9100  207.8700  156.0320 C   0  0  0  0  0  2  0  0  0  0  0  0
  161.3590  207.6160  153.6000 C   0  0  2  0  0  3  0  0  0  0  0  0
  159.1370  209.5470  156.0380 N   0  0  0  0  0  2  0  0  0  0  0  0
  158.8300  210.8970  155.5920 C   0  0  0  0  0  2  0  0  0  0  0  0
  157.3100  211.7740  154.1710 O   0  0  0  0  0  1  0  0  0  0  0  0
  157.4150  210.9980  155.2750 N   0  0  0  0  0  2  0  0  0  0  0  0
  1  5  2  0  0  0  0
  1  2  1  0  0  0  0
  2  6  2  0  0  0  0
  3 15  1  0  0  0  0
  4  3  2  0  0  0  0
  5  4  1  0  0  0  0
  6  3  1  0  0  0  0
  7  8  1  6  0  0  0
  7 10  1  0  0  0  0
  7  1  1  0  0  0  0
  9  7  1  0  0  0  0
 11 14  1  0  0  0  0
 11 10  1  0  0  0  0
 12 14  2  0  0  0  0
 14 13  1  0  0  0  0
 15 16  1  0  0  0  0
 17 21  1  0  0  0  0
 17 23  1  6  0  0  0
 18 17  1  0  0  0  0
 19 21  1  0  0  0  0
 20 22  1  0  0  0  0
 20 18  2  0  0  0  0
 22 16  1  6  0  0  0
 22 19  1  0  0  0  0
 24 23  1  0  0  0  0
 25 26  1  0  0  0  0
 26 24  1  0  0  0  0
M  END
>  <MODEL>
6

>  <REMARK>
 VINA RESULT:      -6.8      2.101      2.790
  Name = 
  10 active torsions:
  status: ('A' for Active; 'I' for Inactive)
    1  A    between atoms: C_1  and  C_3
    2  A    between atoms: C_1  and  C_7
    3  A    between atoms: N_2  and  C_17
    4  A    between atoms: N_2  and  C_21
    5  A    between atoms: C_5  and  N_6
    6  A    between atoms: N_6  and  C_19
    7  A    between atoms: C_7  and  O_24
    8  A    between atoms: C_12  and  C_17
    9  A    between atoms: N_16  and  C_19
   10  A    between atoms: O_24  and  C_25
                            x       y       z     vdW  Elec       q    Type
                         _______ _______ _______ _____ _____    ______ ____

>  <TORSDO>
F 10

$$$$
=
 OpenBabel11072414243D

 26 27  0  0  1  0  0  0  0  0999 V2000
  161.5590  205.6720  148.1690 C   0  0  0  0  0  0  0  0  0  0  0  0
  161.8720  207.0370  148.2860 C   0  0  0  0  0  3  0  0  0  0  0  0
  161.1890  207.0180  150.6090 C   0  0  0  0  0  0  0  0  0  0  0  0
  160.8470  205.6680  150.4970 C   0  0  0  0  0  3  0  0  0  0  0  0
  161.0270  204.9990  149.2830 C   0  0  0  0  0  3  0  0  0  0  0  0
  161.6900  207.7050  149.4990 C   0  0  0  0  0  3  0  0  0  0  0  0
  161.7030  204.9620  146.8450 C   0  0  1  0  0  0  0  0  0  0  0  0
  160.8460  205.5290  145.8970 O   0  0  0  0  0  1  0  0  0  0  0  0
  163.0730  205.0780  146.3630 N   0  0  0  0  0  1  0  0  0  0  0  0
  161.3430  203.4900  147.0300 C   0  0  0  0  0  2  0  0  0  0  0  0
  161.2430  202.8200  145.7790 O   0  0  0  0  0  0  0  0  0  0  0  0
  159.7020  201.3690  144.8930 O   0  0  0  0  0  0  0  0  0  0  0  0
  161.1770  200.4810  146.4030 O   0  0  0  0  0  1  0  0  0  0  0  0
  160.6790  201.5490  145.6650 C   0  0  0  0  0  0  0  0  0  0  0  0
  160.9760  207.7380  151.8950 C   0  0  0  0  0  2  0  0  0  0  0  0
  161.3500  209.1360  151.7440 N   0  0  0  0  0  2  0  0  0  0  0  0
  159.8840  210.7050  155.3880 C   0  0  2  0  0  3  0  0  0  0  0  0
  160.1800  211.5480  154.1680 C   0  0  0  0  0  3  0  0  0  0  0  0
  160.7980  208.7630  154.0900 C   0  0  0  0  0  2  0  0  0  0  0  0
  160.8530  211.0790  153.1060 C   0  0  0  0  0  3  0  0  0  0  0  0
  160.7560  209.4480  155.4520 C   0  0  0  0  0  2  0  0  0  0  0  0
  161.4580  209.6970  153.0800 C   0  0  2  0  0  3  0  0  0  0  0  0
  158.4800  210.3250  155.3920 N   0  0  0  0  0  2  0  0  0  0  0  0
  157.7020  211.5510  155.3000 C   0  0  0  0  0  2  0  0  0  0  0  0
  155.6750  210.6400  154.9010 O   0  0  0  0  0  1  0  0  0  0  0  0
  156.3710  211.3260  155.8380 N   0  0  0  0  0  2  0  0  0  0  0  0
  1  2  2  0  0  0  0
  1  5  1  0  0  0  0
  2  6  1  0  0  0  0
  3 15  1  0  0  0  0
  4  3  1  0  0  0  0
  5  4  2  0  0  0  0
  6  3  2  0  0  0  0
  7  8  1  6  0  0  0
  7 10  1  0  0  0  0
  7  1  1  0  0  0  0
  9  7  1  0  0  0  0
 11 10  1  0  0  0  0
 12 14  2  0  0  0  0
 14 11  1  0  0  0  0
 14 13  1  0  0  0  0
 16 15  1  0  0  0  0
 17 23  1  6  0  0  0
 17 21  1  0  0  0  0
 18 17  1  0  0  0  0
 19 21  1  0  0  0  0
 20 18  2  0  0  0  0
 22 16  1  6  0  0  0
 22 20  1  0  0  0  0
 22 19  1  0  0  0  0
 24 23  1  0  0  0  0
 24 26  1  0  0  0  0
 25 26  1  0  0  0  0
M  END
>  <MODEL>
7

>  <REMARK>
 VINA RESULT:      -6.6      1.977      2.756
  Name = 
  10 active torsions:
  status: ('A' for Active; 'I' for Inactive)
    1  A    between atoms: C_1  and  C_3
    2  A    between atoms: C_1  and  C_7
    3  A    between atoms: N_2  and  C_17
    4  A    between atoms: N_2  and  C_21
    5  A    between atoms: C_5  and  N_6
    6  A    between atoms: N_6  and  C_19
    7  A    between atoms: C_7  and  O_24
    8  A    between atoms: C_12  and  C_17
    9  A    between atoms: N_16  and  C_19
   10  A    between atoms: O_24  and  C_25
                            x       y       z     vdW  Elec       q    Type
                         _______ _______ _______ _____ _____    ______ ____

>  <TORSDO>
F 10

$$$$
=
 OpenBabel11072414243D

 26 27  0  0  1  0  0  0  0  0999 V2000
  160.8280  208.6870  154.3830 C   0  0  0  0  0  0  0  0  0  0  0  0
  160.7950  207.3230  154.7210 C   0  0  0  0  0  3  0  0  0  0  0  0
  161.5540  206.7310  152.4990 C   0  0  0  0  0  0  0  0  0  0  0  0
  161.5640  208.0820  152.1420 C   0  0  0  0  0  3  0  0  0  0  0  0
  161.1990  209.0540  153.0770 C   0  0  0  0  0  3  0  0  0  0  0  0
  161.1580  206.3520  153.7850 C   0  0  0  0  0  3  0  0  0  0  0  0
  160.3850  209.7350  155.3750 C   0  0  1  0  0  0  0  0  0  0  0  0
  159.9800  209.1290  156.5680 O   0  0  0  0  0  1  0  0  0  0  0  0
  161.4850  210.6440  155.6650 N   0  0  0  0  0  1  0  0  0  0  0  0
  159.2120  210.5120  154.7830 C   0  0  0  0  0  2  0  0  0  0  0  0
  159.5220  211.8940  154.6480 O   0  0  0  0  0  0  0  0  0  0  0  0
  158.3950  213.4610  153.4090 O   0  0  0  0  0  1  0  0  0  0  0  0
  160.0590  212.3200  152.3260 O   0  0  0  0  0  0  0  0  0  0  0  0
  159.3000  212.5880  153.4590 C   0  0  0  0  0  0  0  0  0  0  0  0
  161.9200  205.6920  151.4970 C   0  0  0  0  0  2  0  0  0  0  0  0
  160.9710  204.5910  151.5610 N   0  0  0  0  0  2  0  0  0  0  0  0
  161.2510  204.5250  147.3410 C   0  0  2  0  0  3  0  0  0  0  0  0
  160.7700  205.7190  148.1330 C   0  0  0  0  0  3  0  0  0  0  0  0
  161.3660  203.3030  149.5290 C   0  0  0  0  0  2  0  0  0  0  0  0
  160.4700  205.6530  149.4400 C   0  0  0  0  0  3  0  0  0  0  0  0
  160.9740  203.2000  148.0590 C   0  0  0  0  0  2  0  0  0  0  0  0
  160.4960  204.3550  150.2090 C   0  0  2  0  0  3  0  0  0  0  0  0
  162.6770  204.6500  147.0840 N   0  0  0  0  0  2  0  0  0  0  0  0
  162.8490  204.7220  145.6410 C   0  0  0  0  0  2  0  0  0  0  0  0
  161.3000  205.3840  144.1380 O   0  0  0  0  0  1  0  0  0  0  0  0
  161.6030  204.3690  144.9820 N   0  0  0  0  0  2  0  0  0  0  0  0
  1  2  1  0  0  0  0
  1  7  1  0  0  0  0
  3  6  1  0  0  0  0
  4  3  2  0  0  0  0
  4  5  1  0  0  0  0
  5  1  2  0  0  0  0
  6  2  2  0  0  0  0
  7  9  1  1  0  0  0
  7  8  1  0  0  0  0
 10  7  1  0  0  0  0
 11 10  1  0  0  0  0
 12 14  1  0  0  0  0
 13 14  2  0  0  0  0
 14 11  1  0  0  0  0
 15 16  1  0  0  0  0
 15  3  1  0  0  0  0
 17 23  1  1  0  0  0
 17 21  1  0  0  0  0
 17 18  1  0  0  0  0
 18 20  2  0  0  0  0
 19 22  1  0  0  0  0
 20 22  1  0  0  0  0
 21 19  1  0  0  0  0
 22 16  1  1  0  0  0
 24 23  1  0  0  0  0
 25 26  1  0  0  0  0
 26 24  1  0  0  0  0
M  END
>  <MODEL>
8

>  <REMARK>
 VINA RESULT:      -6.6      2.826      9.467
  Name = 
  10 active torsions:
  status: ('A' for Active; 'I' for Inactive)
    1  A    between atoms: C_1  and  C_3
    2  A    between atoms: C_1  and  C_7
    3  A    between atoms: N_2  and  C_17
    4  A    between atoms: N_2  and  C_21
    5  A    between atoms: C_5  and  N_6
    6  A    between atoms: N_6  and  C_19
    7  A    between atoms: C_7  and  O_24
    8  A    between atoms: C_12  and  C_17
    9  A    between atoms: N_16  and  C_19
   10  A    between atoms: O_24  and  C_25
                            x       y       z     vdW  Elec       q    Type
                         _______ _______ _______ _____ _____    ______ ____

>  <TORSDO>
F 10

$$$$
=
 OpenBabel11072414243D

 26 27  0  0  1  0  0  0  0  0999 V2000
  161.1840  209.4670  152.5990 C   0  0  0  0  0  0  0  0  0  0  0  0
  161.7380  209.9080  151.3850 C   0  0  0  0  0  3  0  0  0  0  0  0
  161.6200  207.6620  150.4880 C   0  0  0  0  0  0  0  0  0  0  0  0
  161.0950  207.2060  151.7000 C   0  0  0  0  0  3  0  0  0  0  0  0
  160.8820  208.1020  152.7510 C   0  0  0  0  0  3  0  0  0  0  0  0
  161.9520  209.0110  150.3350 C   0  0  0  0  0  3  0  0  0  0  0  0
  161.0020  210.4230  153.7530 C   0  0  1  0  0  0  0  0  0  0  0  0
  162.2160  210.6110  154.4200 O   0  0  0  0  0  1  0  0  0  0  0  0
  160.5360  211.7130  153.2630 N   0  0  0  0  0  1  0  0  0  0  0  0
  159.9800  209.8370  154.7240 C   0  0  0  0  0  2  0  0  0  0  0  0
  160.5350  209.6790  156.0240 O   0  0  0  0  0  0  0  0  0  0  0  0
  159.8550  207.6130  156.7560 O   0  0  0  0  0  0  0  0  0  0  0  0
  162.0980  208.0520  156.9050 O   0  0  0  0  0  1  0  0  0  0  0  0
  160.8010  208.4200  156.5650 C   0  0  0  0  0  0  0  0  0  0  0  0
  161.8700  206.7050  149.3750 C   0  0  0  0  0  2  0  0  0  0  0  0
  160.7740  206.7630  148.4200 N   0  0  0  0  0  2  0  0  0  0  0  0
  161.6540  204.6400  144.8700 C   0  0  2  0  0  3  0  0  0  0  0  0
  162.5290  204.6150  146.1020 C   0  0  0  0  0  3  0  0  0  0  0  0
  160.2380  206.3180  146.0840 C   0  0  0  0  0  2  0  0  0  0  0  0
  162.3620  205.4640  147.1300 C   0  0  0  0  0  3  0  0  0  0  0  0
  160.8620  205.9450  144.7430 C   0  0  0  0  0  2  0  0  0  0  0  0
  161.3470  206.5790  147.0980 C   0  0  2  0  0  3  0  0  0  0  0  0
  160.7330  203.5140  144.8990 N   0  0  0  0  0  2  0  0  0  0  0  0
  161.2540  202.5580  145.8650 C   0  0  0  0  0  2  0  0  0  0  0  0
  160.0730  200.9970  144.7390 O   0  0  0  0  0  1  0  0  0  0  0  0
  160.3340  201.4400  145.9910 N   0  0  0  0  0  2  0  0  0  0  0  0
  1  5  1  0  0  0  0
  1  7  1  0  0  0  0
  2  1  2  0  0  0  0
  3  4  1  0  0  0  0
  4  5  2  0  0  0  0
  6  3  2  0  0  0  0
  6  2  1  0  0  0  0
  7  9  1  6  0  0  0
  7  8  1  0  0  0  0
  7 10  1  0  0  0  0
 10 11  1  0  0  0  0
 11 14  1  0  0  0  0
 14 12  2  0  0  0  0
 14 13  1  0  0  0  0
 15  3  1  0  0  0  0
 16 15  1  0  0  0  0
 17 23  1  1  0  0  0
 17 18  1  0  0  0  0
 18 20  2  0  0  0  0
 19 22  1  0  0  0  0
 21 17  1  0  0  0  0
 21 19  1  0  0  0  0
 22 20  1  0  0  0  0
 22 16  1  1  0  0  0
 23 24  1  0  0  0  0
 24 26  1  0  0  0  0
 25 26  1  0  0  0  0
M  END
>  <MODEL>
9

>  <REMARK>
 VINA RESULT:      -6.5      3.461     10.102
  Name = 
  10 active torsions:
  status: ('A' for Active; 'I' for Inactive)
    1  A    between atoms: C_1  and  C_3
    2  A    between atoms: C_1  and  C_7
    3  A    between atoms: N_2  and  C_17
    4  A    between atoms: N_2  and  C_21
    5  A    between atoms: C_5  and  N_6
    6  A    between atoms: N_6  and  C_19
    7  A    between atoms: C_7  and  O_24
    8  A    between atoms: C_12  and  C_17
    9  A    between atoms: N_16  and  C_19
   10  A    between atoms: O_24  and  C_25
                            x       y       z     vdW  Elec       q    Type
                         _______ _______ _______ _____ _____    ______ ____

>  <TORSDO>
F 10

$$$$
