=
 OpenBabel11072412193D

 38 42  0  0  1  0  0  0  0  0999 V2000
  158.9530  211.4620  152.6270 C   0  0  0  0  0  2  0  0  0  0  0  0
  158.0800  213.6910  155.0590 C   0  0  0  0  0  2  0  0  0  0  0  0
  159.0600  213.7170  151.4550 C   0  0  1  0  0  3  0  0  0  0  0  0
  159.7540  212.2360  153.6880 C   0  0  1  0  0  3  0  0  0  0  0  0
  159.6960  210.2620  156.8770 N   0  0  0  0  0  2  0  0  0  0  0  0
  161.3780  210.8840  155.2510 C   0  0  2  0  0  3  0  0  0  0  0  0
  158.7780  214.4460  152.7650 C   0  0  0  0  0  2  0  0  0  0  0  0
  161.9230  209.6160  157.2610 O   0  0  0  0  0  0  0  0  0  0  0  0
  159.1100  211.0280  155.8340 C   0  0  0  0  0  0  0  0  0  0  0  0
  158.4110  212.3390  151.4930 C   0  0  0  0  0  2  0  0  0  0  0  0
  161.0690  210.1890  156.5350 C   0  0  0  0  0  0  0  0  0  0  0  0
  158.5330  214.4520  150.3950 O   0  0  0  0  0  1  0  0  0  0  0  0
  159.1970  213.6480  154.0100 C   0  0  1  0  0  3  0  0  0  0  0  0
  157.6310  211.3350  155.8530 C   0  0  0  0  0  2  0  0  0  0  0  0
  160.0120  211.3960  154.9060 C   0  0  0  0  0  0  0  0  0  0  0  0
  157.1630  212.4800  154.9500 C   0  0  1  0  0  3  0  0  0  0  0  0
  161.0160  208.1130  152.9970 C   0  0  1  0  0  3  0  0  0  0  0  0
  161.9140  209.9360  154.1670 C   0  0  1  0  0  3  0  0  0  0  0  0
  161.3590  208.5970  154.3300 N   0  0  0  0  0  2  0  0  0  0  0  0
  161.6370  210.4000  152.7500 C   0  0  0  0  0  2  0  0  0  0  0  0
  161.5010  209.1220  151.9770 C   0  0  0  0  0  2  0  0  0  0  0  0
  161.6650  206.7580  152.7570 C   0  0  0  0  0  2  0  0  0  0  0  0
  160.7510  204.8650  151.4650 C   0  0  0  0  0  3  0  0  0  0  0  0
  161.1510  206.1370  151.4970 C   0  0  0  0  0  3  0  0  0  0  0  0
  160.2750  204.2690  150.1820 C   0  0  0  0  0  2  0  0  0  0  0  0
  161.1440  203.0830  149.7270 C   0  0  0  0  0  2  0  0  0  0  0  0
  161.5210  203.0770  148.3040 N   0  0  0  0  0  0  0  0  0  0  0  0
  160.9580  202.2260  146.0670 C   0  0  0  0  0  0  0  0  0  0  0  0
  161.9670  204.5230  146.3760 C   0  0  0  0  0  0  0  0  0  0  0  0
  160.6220  201.2880  145.2960 O   0  0  0  0  0  0  0  0  0  0  0  0
  160.7320  202.0950  147.5440 C   0  0  0  0  0  2  0  0  0  0  0  0
  161.6500  205.7470  145.8170 F   0  0  0  0  0  0  0  0  0  0  0  0
  161.3430  204.4280  147.7660 C   0  0  0  0  0  2  0  0  0  0  0  0
  163.3430  204.4130  146.4760 F   0  0  0  0  0  0  0  0  0  0  0  0
  161.4580  203.4530  145.5230 N   0  0  0  0  0  2  0  0  0  0  0  0
  155.3020  212.5950  156.4320 O   0  0  0  0  0  1  0  0  0  0  0  0
  154.9560  213.5000  154.3530 O   0  0  0  0  0  0  0  0  0  0  0  0
  155.7620  212.8610  155.2910 C   0  0  0  0  0  0  0  0  0  0  0  0
  3 12  1  6  0  0  0
  3 10  1  0  0  0  0
  3  7  1  0  0  0  0
  4  1  1  6  0  0  0
  4 13  1  0  0  0  0
  4 15  1  0  0  0  0
  6 15  1  6  0  0  0
  6 11  1  0  0  0  0
  9 14  1  0  0  0  0
  9  5  1  0  0  0  0
 10  1  1  0  0  0  0
 11  5  1  0  0  0  0
 11  8  2  0  0  0  0
 13  7  1  6  0  0  0
 13  2  1  0  0  0  0
 15  9  2  0  0  0  0
 16  2  1  0  0  0  0
 16 38  1  1  0  0  0
 16 14  1  0  0  0  0
 17 22  1  6  0  0  0
 17 19  1  0  0  0  0
 18 20  1  6  0  0  0
 18 19  1  0  0  0  0
 18  6  1  0  0  0  0
 21 20  1  0  0  0  0
 21 17  1  0  0  0  0
 23 24  2  0  0  0  0
 24 22  1  0  0  0  0
 25 23  1  0  0  0  0
 26 25  1  0  0  0  0
 27 26  1  0  0  0  0
 28 31  1  0  0  0  0
 29 34  1  0  0  0  0
 29 33  1  0  0  0  0
 30 28  2  0  0  0  0
 31 27  1  0  0  0  0
 32 29  1  0  0  0  0
 33 27  1  0  0  0  0
 35 28  1  0  0  0  0
 35 29  1  0  0  0  0
 37 38  2  0  0  0  0
 38 36  1  0  0  0  0
M  END
>  <MODEL>
1

>  <REMARK>
 VINA RESULT:      -8.1      0.000      0.000
  Name = 
  7 active torsions:
  status: ('A' for Active; 'I' for Inactive)
    1  A    between atoms: N_2  and  C_21
    2  A    between atoms: C_4  and  C_5
    3  A    between atoms: C_5  and  C_30
    4  A    between atoms: C_9  and  C_10
    5  A    between atoms: C_10  and  C_21
    6  A    between atoms: C_13  and  C_19
    7  A    between atoms: C_36  and  C_37
                            x       y       z     vdW  Elec       q    Type
                         _______ _______ _______ _____ _____    ______ ____

>  <TORSDO>
F 7

$$$$
=
 OpenBabel11072412193D

 38 42  0  0  1  0  0  0  0  0999 V2000
  160.6720  211.6730  148.7340 C   0  0  0  0  0  2  0  0  0  0  0  0
  160.2640  214.4530  146.7990 C   0  0  0  0  0  2  0  0  0  0  0  0
  163.0370  212.5600  148.4320 C   0  0  1  0  0  3  0  0  0  0  0  0
  160.4070  213.1540  149.0550 C   0  0  1  0  0  3  0  0  0  0  0  0
  156.7040  213.7400  148.9190 N   0  0  0  0  0  0  0  0  0  0  0  0
  158.3990  213.7410  150.6470 C   0  0  2  0  0  3  0  0  0  0  0  0
  162.5160  213.7920  147.7000 C   0  0  0  0  0  2  0  0  0  0  0  0
  156.0720  214.2940  151.1140 O   0  0  0  0  0  0  0  0  0  0  0  0
  157.9730  213.4240  148.3620 C   0  0  0  0  0  0  0  0  0  0  0  0
  162.0840  211.3930  148.2050 C   0  0  0  0  0  2  0  0  0  0  0  0
  156.9640  213.9480  150.2960 C   0  0  0  0  0  0  0  0  0  0  0  0
  164.3000  212.2320  147.9430 O   0  0  0  0  0  1  0  0  0  0  0  0
  161.0680  214.1530  148.0690 C   0  0  1  0  0  3  0  0  0  0  0  0
  158.1060  213.1420  146.8840 C   0  0  0  0  0  2  0  0  0  0  0  0
  158.9460  213.4140  149.2900 C   0  0  1  0  0  3  0  0  0  0  0  0
  159.5200  213.2200  146.3020 C   0  0  1  0  0  3  0  0  0  0  0  0
  160.0820  212.2180  153.4290 C   0  0  1  0  0  3  0  0  0  0  0  0
  158.6180  212.5840  151.6350 C   0  0  1  0  0  3  0  0  0  0  0  0
  160.0270  212.4680  151.9930 N   0  0  0  0  0  2  0  0  0  0  0  0
  157.8060  212.7000  152.9100 C   0  0  0  0  0  2  0  0  0  0  0  0
  158.6680  212.0340  153.9420 C   0  0  0  0  0  2  0  0  0  0  0  0
  160.9140  210.9750  153.7050 C   0  0  0  0  0  2  0  0  0  0  0  0
  160.8740  208.9920  152.2380 C   0  0  0  0  0  3  0  0  0  0  0  0
  161.2400  210.2590  152.4320 C   0  0  0  0  0  3  0  0  0  0  0  0
  161.2450  208.2990  150.9680 C   0  0  0  0  0  2  0  0  0  0  0  0
  161.1820  206.7660  151.0950 C   0  0  0  0  0  2  0  0  0  0  0  0
  161.4940  206.0120  149.8700 N   0  0  0  0  0  0  0  0  0  0  0  0
  161.2100  203.8780  148.6820 C   0  0  0  0  0  0  0  0  0  0  0  0
  161.3340  206.0680  147.4260 C   0  0  0  0  0  0  0  0  0  0  0  0
  161.2110  202.6180  148.6630 O   0  0  0  0  0  0  0  0  0  0  0  0
  161.0900  204.6020  149.9910 C   0  0  0  0  0  2  0  0  0  0  0  0
  160.5820  206.5680  146.3790 F   0  0  0  0  0  0  0  0  0  0  0  0
  160.8270  206.6590  148.7380 C   0  0  0  0  0  2  0  0  0  0  0  0
  162.6600  206.4180  147.2400 F   0  0  0  0  0  0  0  0  0  0  0  0
  161.2190  204.6120  147.4520 N   0  0  0  0  0  2  0  0  0  0  0  0
  158.5270  213.8200  144.2230 O   0  0  0  0  0  1  0  0  0  0  0  0
  160.4280  212.5460  144.0690 O   0  0  0  0  0  0  0  0  0  0  0  0
  159.4620  213.2180  144.8120 C   0  0  0  0  0  0  0  0  0  0  0  0
  3 12  1  6  0  0  0
  4  1  1  6  0  0  0
  4 15  1  0  0  0  0
  5 11  1  0  0  0  0
  6 11  1  6  0  0  0
  6 18  1  0  0  0  0
  7 13  1  0  0  0  0
  7  3  1  0  0  0  0
  9  5  2  0  0  0  0
 10  3  1  0  0  0  0
 10  1  1  0  0  0  0
 11  8  2  0  0  0  0
 13  2  1  6  0  0  0
 13  4  1  0  0  0  0
 14  9  1  0  0  0  0
 15  9  1  6  0  0  0
 15  6  1  0  0  0  0
 16 38  1  6  0  0  0
 16  2  1  0  0  0  0
 16 14  1  0  0  0  0
 17 22  1  6  0  0  0
 17 21  1  0  0  0  0
 18 19  1  0  0  0  0
 18 20  1  1  0  0  0
 19 17  1  0  0  0  0
 20 21  1  0  0  0  0
 23 24  2  0  0  0  0
 24 22  1  0  0  0  0
 25 26  1  0  0  0  0
 25 23  1  0  0  0  0
 27 31  1  0  0  0  0
 27 26  1  0  0  0  0
 28 31  1  0  0  0  0
 29 35  1  0  0  0  0
 29 33  1  0  0  0  0
 30 28  2  0  0  0  0
 32 29  1  0  0  0  0
 33 27  1  0  0  0  0
 34 29  1  0  0  0  0
 35 28  1  0  0  0  0
 36 38  1  0  0  0  0
 37 38  2  0  0  0  0
M  END
>  <MODEL>
2

>  <REMARK>
 VINA RESULT:      -7.8      3.759      6.331
  Name = 
  7 active torsions:
  status: ('A' for Active; 'I' for Inactive)
    1  A    between atoms: N_2  and  C_21
    2  A    between atoms: C_4  and  C_5
    3  A    between atoms: C_5  and  C_30
    4  A    between atoms: C_9  and  C_10
    5  A    between atoms: C_10  and  C_21
    6  A    between atoms: C_13  and  C_19
    7  A    between atoms: C_36  and  C_37
                            x       y       z     vdW  Elec       q    Type
                         _______ _______ _______ _____ _____    ______ ____

>  <TORSDO>
F 7

$$$$
=
 OpenBabel11072412193D

 38 42  0  0  1  0  0  0  0  0999 V2000
  162.5490  204.1040  147.1160 C   0  0  0  0  0  2  0  0  0  0  0  0
  159.8990  202.0460  146.4930 C   0  0  0  0  0  2  0  0  0  0  0  0
  161.5340  205.0450  144.9820 C   0  0  1  0  0  3  0  0  0  0  0  0
  161.0740  204.1210  147.5490 C   0  0  1  0  0  3  0  0  0  0  0  0
  160.7250  201.9860  150.6150 N   0  0  0  0  0  2  0  0  0  0  0  0
  160.5330  204.3460  150.1120 C   0  0  2  0  0  3  0  0  0  0  0  0
  160.3750  204.0570  145.0600 C   0  0  0  0  0  2  0  0  0  0  0  0
  160.1030  203.4560  152.3400 O   0  0  0  0  0  0  0  0  0  0  0  0
  160.9890  202.2180  149.2380 C   0  0  0  0  0  0  0  0  0  0  0  0
  162.7670  204.4330  145.6350 C   0  0  0  0  0  2  0  0  0  0  0  0
  160.4330  203.2690  151.1400 C   0  0  0  0  0  0  0  0  0  0  0  0
  161.8070  205.3310  143.6460 O   0  0  0  0  0  1  0  0  0  0  0  0
  160.0860  203.5680  146.4890 C   0  0  1  0  0  3  0  0  0  0  0  0
  161.3360  201.0660  148.3250 C   0  0  0  0  0  2  0  0  0  0  0  0
  160.8930  203.5200  148.9150 C   0  0  0  0  0  0  0  0  0  0  0  0
  161.1990  201.3240  146.8220 C   0  0  1  0  0  3  0  0  0  0  0  0
  161.6450  207.4530  151.5290 C   0  0  1  0  0  3  0  0  0  0  0  0
  161.6240  205.3820  150.4290 C   0  0  1  0  0  3  0  0  0  0  0  0
  161.0790  206.7350  150.3910 N   0  0  0  0  0  2  0  0  0  0  0  0
  162.3020  205.1750  151.7690 C   0  0  0  0  0  2  0  0  0  0  0  0
  162.6710  206.5640  152.2000 C   0  0  0  0  0  2  0  0  0  0  0  0
  162.2900  208.7460  151.0530 C   0  0  0  0  0  2  0  0  0  0  0  0
  160.4140  209.8580  152.2060 C   0  0  0  0  0  3  0  0  0  0  0  0
  161.6440  209.9310  151.6970 C   0  0  0  0  0  3  0  0  0  0  0  0
  159.7880  211.0700  152.8110 C   0  0  0  0  0  2  0  0  0  0  0  0
  159.6960  210.9810  154.3460 C   0  0  0  0  0  2  0  0  0  0  0  0
  160.6230  210.0330  154.9850 N   0  0  0  0  0  0  0  0  0  0  0  0
  162.3740  209.7560  156.6890 C   0  0  0  0  0  0  0  0  0  0  0  0
  160.7480  207.8920  156.1690 C   0  0  0  0  0  0  0  0  0  0  0  0
  163.4280  210.1440  157.2610 O   0  0  0  0  0  0  0  0  0  0  0  0
  161.5670  210.7250  155.8770 C   0  0  0  0  0  2  0  0  0  0  0  0
  160.0340  207.0420  156.9930 F   0  0  0  0  0  0  0  0  0  0  0  0
  159.8420  209.0320  155.7160 C   0  0  0  0  0  2  0  0  0  0  0  0
  161.1940  207.1850  155.0660 F   0  0  0  0  0  0  0  0  0  0  0  0
  161.8970  208.4220  156.8990 N   0  0  0  0  0  2  0  0  0  0  0  0
  161.9810  199.0950  146.5220 O   0  0  0  0  0  1  0  0  0  0  0  0
  160.5930  199.8760  144.8720 O   0  0  0  0  0  0  0  0  0  0  0  0
  161.2800  200.0380  146.0720 C   0  0  0  0  0  0  0  0  0  0  0  0
  2 16  1  0  0  0  0
  3 12  1  6  0  0  0
  3  7  1  0  0  0  0
  3 10  1  0  0  0  0
  4  1  1  6  0  0  0
  4 15  1  0  0  0  0
  5 11  1  0  0  0  0
  6 15  1  6  0  0  0
  6 18  1  0  0  0  0
  6 11  1  0  0  0  0
  9  5  1  0  0  0  0
 10  1  1  0  0  0  0
 11  8  2  0  0  0  0
 13  7  1  6  0  0  0
 13  2  1  0  0  0  0
 13  4  1  0  0  0  0
 14  9  1  0  0  0  0
 15  9  2  0  0  0  0
 16 38  1  6  0  0  0
 16 14  1  0  0  0  0
 17 22  1  6  0  0  0
 17 21  1  0  0  0  0
 18 20  1  1  0  0  0
 19 18  1  0  0  0  0
 19 17  1  0  0  0  0
 20 21  1  0  0  0  0
 22 24  1  0  0  0  0
 23 25  1  0  0  0  0
 24 23  2  0  0  0  0
 25 26  1  0  0  0  0
 26 27  1  0  0  0  0
 27 33  1  0  0  0  0
 27 31  1  0  0  0  0
 28 35  1  0  0  0  0
 28 30  2  0  0  0  0
 29 35  1  0  0  0  0
 29 32  1  0  0  0  0
 31 28  1  0  0  0  0
 33 29  1  0  0  0  0
 34 29  1  0  0  0  0
 37 38  2  0  0  0  0
 38 36  1  0  0  0  0
M  END
>  <MODEL>
3

>  <REMARK>
 VINA RESULT:      -7.7      3.917     10.817
  Name = 
  7 active torsions:
  status: ('A' for Active; 'I' for Inactive)
    1  A    between atoms: N_2  and  C_21
    2  A    between atoms: C_4  and  C_5
    3  A    between atoms: C_5  and  C_30
    4  A    between atoms: C_9  and  C_10
    5  A    between atoms: C_10  and  C_21
    6  A    between atoms: C_13  and  C_19
    7  A    between atoms: C_36  and  C_37
                            x       y       z     vdW  Elec       q    Type
                         _______ _______ _______ _____ _____    ______ ____

>  <TORSDO>
F 7

$$$$
=
 OpenBabel11072412193D

 38 42  0  0  1  0  0  0  0  0999 V2000
  162.5290  204.2950  146.8960 C   0  0  0  0  0  2  0  0  0  0  0  0
  159.8910  202.1750  146.4680 C   0  0  0  0  0  2  0  0  0  0  0  0
  161.4660  205.0750  144.7200 C   0  0  1  0  0  3  0  0  0  0  0  0
  161.0610  204.3290  147.3540 C   0  0  1  0  0  3  0  0  0  0  0  0
  160.7910  202.4120  150.5680 N   0  0  0  0  0  2  0  0  0  0  0  0
  160.5650  204.7290  149.9050 C   0  0  2  0  0  3  0  0  0  0  0  0
  160.3190  204.0840  144.8890 C   0  0  0  0  0  2  0  0  0  0  0  0
  160.1840  203.9940  152.1970 O   0  0  0  0  0  0  0  0  0  0  0  0
  161.0270  202.5490  149.1740 C   0  0  0  0  0  0  0  0  0  0  0  0
  162.7170  204.5210  145.3910 C   0  0  0  0  0  2  0  0  0  0  0  0
  160.4950  203.7260  151.0070 C   0  0  0  0  0  0  0  0  0  0  0  0
  161.7120  205.2690  143.3620 O   0  0  0  0  0  1  0  0  0  0  0  0
  160.0600  203.6940  146.3540 C   0  0  1  0  0  3  0  0  0  0  0  0
  161.3700  201.3390  148.3370 C   0  0  0  0  0  2  0  0  0  0  0  0
  160.9110  203.8240  148.7610 C   0  0  0  0  0  0  0  0  0  0  0  0
  161.2040  201.4890  146.8230 C   0  0  1  0  0  3  0  0  0  0  0  0
  161.6270  208.1240  150.3950 C   0  0  1  0  0  3  0  0  0  0  0  0
  161.6500  205.7940  150.1280 C   0  0  1  0  0  3  0  0  0  0  0  0
  161.2890  207.0460  149.4700 N   0  0  0  0  0  2  0  0  0  0  0  0
  161.9400  206.0850  151.5870 C   0  0  0  0  0  2  0  0  0  0  0  0
  162.3430  207.5300  151.5900 C   0  0  0  0  0  2  0  0  0  0  0  0
  162.5130  209.1440  149.6950 C   0  0  0  0  0  2  0  0  0  0  0  0
  162.1340  211.4050  148.7840 C   0  0  0  0  0  3  0  0  0  0  0  0
  161.8940  210.5050  149.7380 C   0  0  0  0  0  3  0  0  0  0  0  0
  161.5260  212.7650  148.8770 C   0  0  0  0  0  2  0  0  0  0  0  0
  161.6340  213.5500  147.5570 C   0  0  0  0  0  2  0  0  0  0  0  0
  160.4650  213.4670  146.6680 N   0  0  0  0  0  0  0  0  0  0  0  0
  159.5630  212.4930  144.5980 C   0  0  0  0  0  0  0  0  0  0  0  0
  158.0760  212.9230  146.5970 C   0  0  0  0  0  0  0  0  0  0  0  0
  159.6770  212.1930  143.3800 O   0  0  0  0  0  0  0  0  0  0  0  0
  160.7910  212.7660  145.4160 C   0  0  0  0  0  2  0  0  0  0  0  0
  157.1010  212.1490  147.1980 F   0  0  0  0  0  0  0  0  0  0  0  0
  159.3770  212.7950  147.3830 C   0  0  0  0  0  2  0  0  0  0  0  0
  157.6660  214.2450  146.5900 F   0  0  0  0  0  0  0  0  0  0  0  0
  158.2740  212.4730  145.2220 N   0  0  0  0  0  2  0  0  0  0  0  0
  161.9740  199.2400  146.6850 O   0  0  0  0  0  1  0  0  0  0  0  0
  160.6110  199.9160  144.9680 O   0  0  0  0  0  0  0  0  0  0  0  0
  161.2840  200.1540  146.1630 C   0  0  0  0  0  0  0  0  0  0  0  0
  2 16  1  0  0  0  0
  3 12  1  6  0  0  0
  3  7  1  0  0  0  0
  3 10  1  0  0  0  0
  4  1  1  6  0  0  0
  4 15  1  0  0  0  0
  5 11  1  0  0  0  0
  6 15  1  6  0  0  0
  6 18  1  0  0  0  0
  6 11  1  0  0  0  0
  9  5  1  0  0  0  0
 10  1  1  0  0  0  0
 11  8  2  0  0  0  0
 13  7  1  6  0  0  0
 13  2  1  0  0  0  0
 13  4  1  0  0  0  0
 14  9  1  0  0  0  0
 15  9  2  0  0  0  0
 16 38  1  6  0  0  0
 16 14  1  0  0  0  0
 17 22  1  6  0  0  0
 17 21  1  0  0  0  0
 18 20  1  1  0  0  0
 19 18  1  0  0  0  0
 19 17  1  0  0  0  0
 20 21  1  0  0  0  0
 22 24  1  0  0  0  0
 23 25  1  0  0  0  0
 23 24  2  0  0  0  0
 26 25  1  0  0  0  0
 27 33  1  0  0  0  0
 27 26  1  0  0  0  0
 28 35  1  0  0  0  0
 28 31  1  0  0  0  0
 29 32  1  0  0  0  0
 29 33  1  0  0  0  0
 30 28  2  0  0  0  0
 31 27  1  0  0  0  0
 34 29  1  0  0  0  0
 35 29  1  0  0  0  0
 37 38  2  0  0  0  0
 38 36  1  0  0  0  0
M  END
>  <MODEL>
4

>  <REMARK>
 VINA RESULT:      -6.9      5.564     10.507
  Name = 
  7 active torsions:
  status: ('A' for Active; 'I' for Inactive)
    1  A    between atoms: N_2  and  C_21
    2  A    between atoms: C_4  and  C_5
    3  A    between atoms: C_5  and  C_30
    4  A    between atoms: C_9  and  C_10
    5  A    between atoms: C_10  and  C_21
    6  A    between atoms: C_13  and  C_19
    7  A    between atoms: C_36  and  C_37
                            x       y       z     vdW  Elec       q    Type
                         _______ _______ _______ _____ _____    ______ ____

>  <TORSDO>
F 7

$$$$
=
 OpenBabel11072412193D

 38 42  0  0  1  0  0  0  0  0999 V2000
  162.0100  210.5930  152.4610 C   0  0  0  0  0  2  0  0  0  0  0  0
  160.0860  209.0940  154.8470 C   0  0  0  0  0  2  0  0  0  0  0  0
  161.8310  208.1800  151.6750 C   0  0  1  0  0  3  0  0  0  0  0  0
  160.4930  210.4060  152.6310 C   0  0  1  0  0  3  0  0  0  0  0  0
  159.1970  213.2030  154.7700 N   0  0  0  0  0  2  0  0  0  0  0  0
  158.9520  212.5290  152.4580 C   0  0  2  0  0  3  0  0  0  0  0  0
  160.8590  207.8520  152.8030 C   0  0  0  0  0  2  0  0  0  0  0  0
  157.7730  214.4530  153.3790 O   0  0  0  0  0  0  0  0  0  0  0  0
  159.9600  212.0310  154.5160 C   0  0  0  0  0  0  0  0  0  0  0  0
  162.7630  209.3020  152.1180 C   0  0  0  0  0  2  0  0  0  0  0  0
  158.5740  213.4940  153.5310 C   0  0  0  0  0  0  0  0  0  0  0  0
  162.5800  207.0460  151.3650 O   0  0  0  0  0  1  0  0  0  0  0  0
  160.0820  209.0750  153.3140 C   0  0  1  0  0  3  0  0  0  0  0  0
  160.7730  211.3980  155.6210 C   0  0  0  0  0  2  0  0  0  0  0  0
  159.8520  211.6210  153.2400 C   0  0  0  0  0  0  0  0  0  0  0  0
  161.2200  209.9520  155.3940 C   0  0  1  0  0  3  0  0  0  0  0  0
  160.1780  212.5520  149.0830 C   0  0  1  0  0  3  0  0  0  0  0  0
  159.6990  213.1900  151.2880 C   0  0  1  0  0  3  0  0  0  0  0  0
  160.3860  212.1870  150.4810 N   0  0  0  0  0  2  0  0  0  0  0  0
  158.8110  214.0140  150.3770 C   0  0  0  0  0  2  0  0  0  0  0  0
  159.4660  213.8880  149.0330 C   0  0  0  0  0  2  0  0  0  0  0  0
  161.5170  212.6350  148.3670 C   0  0  0  0  0  2  0  0  0  0  0  0
  161.9380  210.2330  148.7410 C   0  0  0  0  0  3  0  0  0  0  0  0
  161.9640  211.2800  147.9160 C   0  0  0  0  0  3  0  0  0  0  0  0
  162.4240  208.9030  148.2660 C   0  0  0  0  0  2  0  0  0  0  0  0
  161.2830  207.8790  148.1210 C   0  0  0  0  0  2  0  0  0  0  0  0
  161.7020  206.4850  147.9070 N   0  0  0  0  0  0  0  0  0  0  0  0
  161.2120  204.1270  148.4030 C   0  0  0  0  0  0  0  0  0  0  0  0
  162.2000  204.8170  146.1820 C   0  0  0  0  0  0  0  0  0  0  0  0
  160.9040  203.2110  149.2120 O   0  0  0  0  0  0  0  0  0  0  0  0
  160.9420  205.5590  148.7610 C   0  0  0  0  0  2  0  0  0  0  0  0
  161.8940  204.4430  144.8860 F   0  0  0  0  0  0  0  0  0  0  0  0
  161.5350  206.1550  146.4890 C   0  0  0  0  0  2  0  0  0  0  0  0
  163.5730  204.9410  146.3060 F   0  0  0  0  0  0  0  0  0  0  0  0
  161.7220  203.7940  147.1070 N   0  0  0  0  0  2  0  0  0  0  0  0
  162.7730  209.8560  157.1960 O   0  0  0  0  0  0  0  0  0  0  0  0
  161.0990  208.2890  157.2610 O   0  0  0  0  0  1  0  0  0  0  0  0
  161.7410  209.3700  156.6650 C   0  0  0  0  0  0  0  0  0  0  0  0
  2 16  1  0  0  0  0
  3 12  1  1  0  0  0
  3 10  1  0  0  0  0
  3  7  1  0  0  0  0
  4  1  1  1  0  0  0
  4 15  1  0  0  0  0
  4 13  1  0  0  0  0
  6 15  1  1  0  0  0
  6 11  1  0  0  0  0
  8 11  2  0  0  0  0
  9  5  1  0  0  0  0
  9 14  1  0  0  0  0
 10  1  1  0  0  0  0
 11  5  1  0  0  0  0
 13  7  1  1  0  0  0
 13  2  1  0  0  0  0
 15  9  2  0  0  0  0
 16 14  1  0  0  0  0
 16 38  1  1  0  0  0
 17 22  1  6  0  0  0
 17 19  1  0  0  0  0
 18 20  1  6  0  0  0
 18  6  1  0  0  0  0
 19 18  1  0  0  0  0
 21 17  1  0  0  0  0
 21 20  1  0  0  0  0
 24 22  1  0  0  0  0
 24 23  2  0  0  0  0
 25 23  1  0  0  0  0
 26 25  1  0  0  0  0
 27 26  1  0  0  0  0
 27 31  1  0  0  0  0
 28 31  1  0  0  0  0
 28 30  2  0  0  0  0
 29 34  1  0  0  0  0
 29 33  1  0  0  0  0
 29 35  1  0  0  0  0
 32 29  1  0  0  0  0
 33 27  1  0  0  0  0
 35 28  1  0  0  0  0
 38 36  2  0  0  0  0
 38 37  1  0  0  0  0
M  END
>  <MODEL>
5

>  <REMARK>
 VINA RESULT:      -6.8      2.555      5.101
  Name = 
  7 active torsions:
  status: ('A' for Active; 'I' for Inactive)
    1  A    between atoms: N_2  and  C_21
    2  A    between atoms: C_4  and  C_5
    3  A    between atoms: C_5  and  C_30
    4  A    between atoms: C_9  and  C_10
    5  A    between atoms: C_10  and  C_21
    6  A    between atoms: C_13  and  C_19
    7  A    between atoms: C_36  and  C_37
                            x       y       z     vdW  Elec       q    Type
                         _______ _______ _______ _____ _____    ______ ____

>  <TORSDO>
F 7

$$$$
=
 OpenBabel11072412193D

 38 42  0  0  1  0  0  0  0  0999 V2000
  162.5200  204.0750  146.9990 C   0  0  0  0  0  2  0  0  0  0  0  0
  159.8480  202.0320  146.4250 C   0  0  0  0  0  2  0  0  0  0  0  0
  161.4920  205.0000  144.8640 C   0  0  1  0  0  3  0  0  0  0  0  0
  161.0490  204.1080  147.4460 C   0  0  1  0  0  3  0  0  0  0  0  0
  160.7120  202.0120  150.5390 N   0  0  0  0  0  2  0  0  0  0  0  0
  160.5340  204.3670  150.0110 C   0  0  2  0  0  3  0  0  0  0  0  0
  160.3260  204.0220  144.9650 C   0  0  0  0  0  2  0  0  0  0  0  0
  160.1180  203.5060  152.2530 O   0  0  0  0  0  0  0  0  0  0  0  0
  160.9650  202.2260  149.1570 C   0  0  0  0  0  0  0  0  0  0  0  0
  162.7270  204.3850  145.5130 C   0  0  0  0  0  2  0  0  0  0  0  0
  160.4350  203.3030  151.0520 C   0  0  0  0  0  0  0  0  0  0  0  0
  161.7550  205.2690  143.5220 O   0  0  0  0  0  1  0  0  0  0  0  0
  160.0460  203.5520  146.4010 C   0  0  1  0  0  3  0  0  0  0  0  0
  161.2940  201.0600  148.2540 C   0  0  0  0  0  2  0  0  0  0  0  0
  160.8760  203.5240  148.8200 C   0  0  0  0  0  0  0  0  0  0  0  0
  161.1460  201.3020  146.7500 C   0  0  1  0  0  3  0  0  0  0  0  0
  161.6790  207.4910  151.3620 C   0  0  1  0  0  3  0  0  0  0  0  0
  161.6360  205.3970  150.3060 C   0  0  1  0  0  3  0  0  0  0  0  0
  161.1050  206.7550  150.2400 N   0  0  0  0  0  2  0  0  0  0  0  0
  162.3110  205.2110  151.6510 C   0  0  0  0  0  2  0  0  0  0  0  0
  162.6960  206.6050  152.0520 C   0  0  0  0  0  2  0  0  0  0  0  0
  162.3370  208.7660  150.8590 C   0  0  0  0  0  2  0  0  0  0  0  0
  160.8930  209.8990  152.5080 C   0  0  0  0  0  3  0  0  0  0  0  0
  161.9710  209.9310  151.7240 C   0  0  0  0  0  3  0  0  0  0  0  0
  160.5400  211.0920  153.3330 C   0  0  0  0  0  2  0  0  0  0  0  0
  159.5780  210.7470  154.4850 C   0  0  0  0  0  2  0  0  0  0  0  0
  158.5160  211.7320  154.7450 N   0  0  0  0  0  0  0  0  0  0  0  0
  156.8750  213.2530  153.7250 C   0  0  0  0  0  0  0  0  0  0  0  0
  156.3870  212.0750  155.9080 C   0  0  0  0  0  0  0  0  0  0  0  0
  156.5630  214.1300  152.8770 O   0  0  0  0  0  0  0  0  0  0  0  0
  158.0920  212.4040  153.5070 C   0  0  0  0  0  2  0  0  0  0  0  0
  155.2590  211.4190  156.3640 F   0  0  0  0  0  0  0  0  0  0  0  0
  157.3910  211.0500  155.3890 C   0  0  0  0  0  2  0  0  0  0  0  0
  156.9500  212.7880  156.9530 F   0  0  0  0  0  0  0  0  0  0  0  0
  156.0130  212.9980  154.8400 N   0  0  0  0  0  2  0  0  0  0  0  0
  161.9560  199.0860  146.4340 O   0  0  0  0  0  1  0  0  0  0  0  0
  160.4560  199.8150  144.8590 O   0  0  0  0  0  0  0  0  0  0  0  0
  161.2090  200.0070  146.0130 C   0  0  0  0  0  0  0  0  0  0  0  0
  2 16  1  0  0  0  0
  3 12  1  6  0  0  0
  3  7  1  0  0  0  0
  3 10  1  0  0  0  0
  4  1  1  6  0  0  0
  4 15  1  0  0  0  0
  5 11  1  0  0  0  0
  6 15  1  6  0  0  0
  6 18  1  0  0  0  0
  6 11  1  0  0  0  0
  9  5  1  0  0  0  0
 10  1  1  0  0  0  0
 11  8  2  0  0  0  0
 13  7  1  6  0  0  0
 13  2  1  0  0  0  0
 13  4  1  0  0  0  0
 14  9  1  0  0  0  0
 15  9  2  0  0  0  0
 16 38  1  6  0  0  0
 16 14  1  0  0  0  0
 17 22  1  6  0  0  0
 17 21  1  0  0  0  0
 18 20  1  1  0  0  0
 19 18  1  0  0  0  0
 19 17  1  0  0  0  0
 20 21  1  0  0  0  0
 22 24  1  0  0  0  0
 23 25  1  0  0  0  0
 24 23  2  0  0  0  0
 25 26  1  0  0  0  0
 26 27  1  0  0  0  0
 27 33  1  0  0  0  0
 28 35  1  0  0  0  0
 29 32  1  0  0  0  0
 29 34  1  0  0  0  0
 30 28  2  0  0  0  0
 31 28  1  0  0  0  0
 31 27  1  0  0  0  0
 33 29  1  0  0  0  0
 35 29  1  0  0  0  0
 37 38  2  0  0  0  0
 38 36  1  0  0  0  0
M  END
>  <MODEL>
6

>  <REMARK>
 VINA RESULT:      -6.8      4.044     11.344
  Name = 
  7 active torsions:
  status: ('A' for Active; 'I' for Inactive)
    1  A    between atoms: N_2  and  C_21
    2  A    between atoms: C_4  and  C_5
    3  A    between atoms: C_5  and  C_30
    4  A    between atoms: C_9  and  C_10
    5  A    between atoms: C_10  and  C_21
    6  A    between atoms: C_13  and  C_19
    7  A    between atoms: C_36  and  C_37
                            x       y       z     vdW  Elec       q    Type
                         _______ _______ _______ _____ _____    ______ ____

>  <TORSDO>
F 7

$$$$
=
 OpenBabel11072412193D

 38 42  0  0  1  0  0  0  0  0999 V2000
  158.7580  211.3910  152.6250 C   0  0  0  0  0  2  0  0  0  0  0  0
  158.1890  213.7200  155.0530 C   0  0  0  0  0  2  0  0  0  0  0  0
  159.1130  213.6120  151.4360 C   0  0  1  0  0  3  0  0  0  0  0  0
  159.6600  212.0710  153.6690 C   0  0  1  0  0  3  0  0  0  0  0  0
  159.4170  210.1330  156.8720 N   0  0  0  0  0  2  0  0  0  0  0  0
  161.1360  210.5450  155.2190 C   0  0  2  0  0  3  0  0  0  0  0  0
  158.9380  214.3760  152.7450 C   0  0  0  0  0  2  0  0  0  0  0  0
  161.5580  209.2320  157.2290 O   0  0  0  0  0  0  0  0  0  0  0  0
  158.9100  210.9580  155.8320 C   0  0  0  0  0  0  0  0  0  0  0  0
  158.3070  212.3200  151.4920 C   0  0  0  0  0  2  0  0  0  0  0  0
  160.7660  209.8980  156.5120 C   0  0  0  0  0  0  0  0  0  0  0  0
  158.6610  214.3990  150.3780 O   0  0  0  0  0  1  0  0  0  0  0  0
  159.2780  213.5400  153.9890 C   0  0  1  0  0  3  0  0  0  0  0  0
  157.4780  211.4380  155.8690 C   0  0  0  0  0  2  0  0  0  0  0  0
  159.8350  211.2130  154.8900 C   0  0  0  0  0  0  0  0  0  0  0  0
  157.1340  212.6250  154.9660 C   0  0  1  0  0  3  0  0  0  0  0  0
  160.7880  207.4010  153.5210 C   0  0  1  0  0  3  0  0  0  0  0  0
  161.5410  209.5360  154.1340 C   0  0  1  0  0  3  0  0  0  0  0  0
  161.3790  208.1670  154.6140 N   0  0  0  0  0  2  0  0  0  0  0  0
  160.7720  209.6830  152.8350 C   0  0  0  0  0  2  0  0  0  0  0  0
  160.7170  208.2850  152.2930 C   0  0  0  0  0  2  0  0  0  0  0  0
  161.6330  206.1670  153.2410 C   0  0  0  0  0  2  0  0  0  0  0  0
  160.5100  204.3860  151.9560 C   0  0  0  0  0  3  0  0  0  0  0  0
  161.2170  205.5160  151.9600 C   0  0  0  0  0  3  0  0  0  0  0  0
  160.1400  203.7460  150.6590 C   0  0  0  0  0  2  0  0  0  0  0  0
  161.2700  203.8330  149.6170 C   0  0  0  0  0  2  0  0  0  0  0  0
  161.1550  204.9300  148.6420 N   0  0  0  0  0  0  0  0  0  0  0  0
  161.7860  207.2490  148.1230 C   0  0  0  0  0  0  0  0  0  0  0  0
  161.5160  205.5260  146.2930 C   0  0  0  0  0  0  0  0  0  0  0  0
  161.9330  208.4530  148.4610 O   0  0  0  0  0  0  0  0  0  0  0  0
  161.7090  206.1830  149.1770 C   0  0  0  0  0  2  0  0  0  0  0  0
  162.2920  205.2350  145.1870 F   0  0  0  0  0  0  0  0  0  0  0  0
  161.8360  204.5340  147.4080 C   0  0  0  0  0  2  0  0  0  0  0  0
  160.1790  205.4240  145.9500 F   0  0  0  0  0  0  0  0  0  0  0  0
  161.7970  206.8890  146.7370 N   0  0  0  0  0  2  0  0  0  0  0  0
  155.1080  213.7650  154.4510 O   0  0  0  0  0  0  0  0  0  0  0  0
  155.2980  213.0340  156.6170 O   0  0  0  0  0  1  0  0  0  0  0  0
  155.7930  213.1700  155.3240 C   0  0  0  0  0  0  0  0  0  0  0  0
  3 12  1  6  0  0  0
  3 10  1  0  0  0  0
  3  7  1  0  0  0  0
  4  1  1  6  0  0  0
  4 13  1  0  0  0  0
  4 15  1  0  0  0  0
  6 15  1  6  0  0  0
  6 11  1  0  0  0  0
  9 14  1  0  0  0  0
  9  5  1  0  0  0  0
 10  1  1  0  0  0  0
 11  5  1  0  0  0  0
 11  8  2  0  0  0  0
 13  7  1  6  0  0  0
 13  2  1  0  0  0  0
 15  9  2  0  0  0  0
 16  2  1  0  0  0  0
 16 38  1  1  0  0  0
 16 14  1  0  0  0  0
 17 22  1  6  0  0  0
 17 19  1  0  0  0  0
 18 20  1  6  0  0  0
 18 19  1  0  0  0  0
 18  6  1  0  0  0  0
 21 20  1  0  0  0  0
 21 17  1  0  0  0  0
 23 24  2  0  0  0  0
 24 22  1  0  0  0  0
 25 23  1  0  0  0  0
 26 25  1  0  0  0  0
 27 31  1  0  0  0  0
 27 26  1  0  0  0  0
 28 30  2  0  0  0  0
 28 31  1  0  0  0  0
 29 35  1  0  0  0  0
 29 33  1  0  0  0  0
 32 29  1  0  0  0  0
 33 27  1  0  0  0  0
 34 29  1  0  0  0  0
 35 28  1  0  0  0  0
 36 38  2  0  0  0  0
 38 37  1  0  0  0  0
M  END
>  <MODEL>
7

>  <REMARK>
 VINA RESULT:      -6.8      1.686      2.074
  Name = 
  7 active torsions:
  status: ('A' for Active; 'I' for Inactive)
    1  A    between atoms: N_2  and  C_21
    2  A    between atoms: C_4  and  C_5
    3  A    between atoms: C_5  and  C_30
    4  A    between atoms: C_9  and  C_10
    5  A    between atoms: C_10  and  C_21
    6  A    between atoms: C_13  and  C_19
    7  A    between atoms: C_36  and  C_37
                            x       y       z     vdW  Elec       q    Type
                         _______ _______ _______ _____ _____    ______ ____

>  <TORSDO>
F 7

$$$$
=
 OpenBabel11072412193D

 38 42  0  0  1  0  0  0  0  0999 V2000
  162.5390  204.8000  146.7430 C   0  0  0  0  0  2  0  0  0  0  0  0
  159.9100  202.6330  146.5540 C   0  0  0  0  0  2  0  0  0  0  0  0
  161.4300  205.3770  144.5280 C   0  0  1  0  0  3  0  0  0  0  0  0
  161.0790  204.8650  147.2240 C   0  0  1  0  0  3  0  0  0  0  0  0
  160.8820  203.2380  150.6000 N   0  0  0  0  0  2  0  0  0  0  0  0
  160.6260  205.4860  149.7380 C   0  0  2  0  0  3  0  0  0  0  0  0
  160.2940  204.3970  144.8050 C   0  0  0  0  0  2  0  0  0  0  0  0
  160.2920  204.9540  152.0940 O   0  0  0  0  0  0  0  0  0  0  0  0
  161.0920  203.2530  149.1940 C   0  0  0  0  0  0  0  0  0  0  0  0
  162.6980  204.8930  145.2210 C   0  0  0  0  0  2  0  0  0  0  0  0
  160.5830  204.5840  150.9260 C   0  0  0  0  0  0  0  0  0  0  0  0
  161.6500  205.4520  143.1530 O   0  0  0  0  0  1  0  0  0  0  0  0
  160.0650  204.1370  146.3030 C   0  0  1  0  0  3  0  0  0  0  0  0
  161.4290  201.9750  148.4620 C   0  0  0  0  0  2  0  0  0  0  0  0
  160.9590  204.4850  148.6730 C   0  0  0  0  0  0  0  0  0  0  0  0
  161.2350  201.9900  146.9440 C   0  0  1  0  0  3  0  0  0  0  0  0
  161.6900  208.9150  149.7180 C   0  0  1  0  0  3  0  0  0  0  0  0
  161.7060  206.5730  149.8460 C   0  0  1  0  0  3  0  0  0  0  0  0
  161.3980  207.6970  148.9680 N   0  0  0  0  0  2  0  0  0  0  0  0
  161.9100  207.1040  151.2510 C   0  0  0  0  0  2  0  0  0  0  0  0
  162.3270  208.5290  151.0370 C   0  0  0  0  0  2  0  0  0  0  0  0
  162.6270  209.8030  148.9130 C   0  0  0  0  0  2  0  0  0  0  0  0
  161.2960  211.7160  148.1020 C   0  0  0  0  0  3  0  0  0  0  0  0
  162.1850  211.2310  148.9690 C   0  0  0  0  0  3  0  0  0  0  0  0
  160.9040  213.1550  148.1670 C   0  0  0  0  0  2  0  0  0  0  0  0
  160.5230  213.7230  146.7880 C   0  0  0  0  0  2  0  0  0  0  0  0
  161.2160  213.1220  145.6370 N   0  0  0  0  0  0  0  0  0  0  0  0
  160.9520  212.2130  143.3670 C   0  0  0  0  0  0  0  0  0  0  0  0
  163.0480  213.4540  144.0440 C   0  0  0  0  0  0  0  0  0  0  0  0
  160.3450  211.4920  142.5320 O   0  0  0  0  0  0  0  0  0  0  0  0
  160.2600  212.6360  144.6300 C   0  0  0  0  0  2  0  0  0  0  0  0
  163.7860  214.4270  143.3970 F   0  0  0  0  0  0  0  0  0  0  0  0
  162.1280  214.1160  145.0650 C   0  0  0  0  0  2  0  0  0  0  0  0
  163.9100  212.5850  144.6900 F   0  0  0  0  0  0  0  0  0  0  0  0
  162.2600  212.7120  143.0640 N   0  0  0  0  0  2  0  0  0  0  0  0
  160.8100  200.3410  145.2790 O   0  0  0  0  0  0  0  0  0  0  0  0
  161.9310  199.5930  147.1360 O   0  0  0  0  0  1  0  0  0  0  0  0
  161.3140  200.6020  146.4030 C   0  0  0  0  0  0  0  0  0  0  0  0
  2 16  1  0  0  0  0
  3 12  1  6  0  0  0
  3  7  1  0  0  0  0
  3 10  1  0  0  0  0
  4  1  1  6  0  0  0
  4 15  1  0  0  0  0
  5 11  1  0  0  0  0
  6 15  1  6  0  0  0
  6 18  1  0  0  0  0
  6 11  1  0  0  0  0
  9  5  1  0  0  0  0
 10  1  1  0  0  0  0
 11  8  2  0  0  0  0
 13  7  1  6  0  0  0
 13  2  1  0  0  0  0
 13  4  1  0  0  0  0
 14  9  1  0  0  0  0
 15  9  2  0  0  0  0
 16 38  1  1  0  0  0
 16 14  1  0  0  0  0
 17 22  1  6  0  0  0
 17 21  1  0  0  0  0
 18 20  1  1  0  0  0
 19 17  1  0  0  0  0
 19 18  1  0  0  0  0
 21 20  1  0  0  0  0
 22 24  1  0  0  0  0
 23 25  1  0  0  0  0
 23 24  2  0  0  0  0
 26 25  1  0  0  0  0
 27 26  1  0  0  0  0
 28 31  1  0  0  0  0
 29 34  1  0  0  0  0
 29 33  1  0  0  0  0
 30 28  2  0  0  0  0
 31 27  1  0  0  0  0
 32 29  1  0  0  0  0
 33 27  1  0  0  0  0
 35 28  1  0  0  0  0
 35 29  1  0  0  0  0
 36 38  2  0  0  0  0
 38 37  1  0  0  0  0
M  END
>  <MODEL>
8

>  <REMARK>
 VINA RESULT:      -6.7      5.484     10.316
  Name = 
  7 active torsions:
  status: ('A' for Active; 'I' for Inactive)
    1  A    between atoms: N_2  and  C_21
    2  A    between atoms: C_4  and  C_5
    3  A    between atoms: C_5  and  C_30
    4  A    between atoms: C_9  and  C_10
    5  A    between atoms: C_10  and  C_21
    6  A    between atoms: C_13  and  C_19
    7  A    between atoms: C_36  and  C_37
                            x       y       z     vdW  Elec       q    Type
                         _______ _______ _______ _____ _____    ______ ____

>  <TORSDO>
F 7

$$$$
=
 OpenBabel11072412193D

 38 42  0  0  1  0  0  0  0  0999 V2000
  160.1110  204.2050  149.0710 C   0  0  0  0  0  2  0  0  0  0  0  0
  162.2590  204.3270  146.4230 C   0  0  0  0  0  2  0  0  0  0  0  0
  161.3170  201.9670  149.1600 C   0  0  1  0  0  3  0  0  0  0  0  0
  161.5530  204.7120  148.9030 C   0  0  1  0  0  3  0  0  0  0  0  0
  161.4160  208.2530  147.6700 N   0  0  0  0  0  0  0  0  0  0  0  0
  162.1150  207.1510  149.7080 C   0  0  2  0  0  3  0  0  0  0  0  0
  162.2360  202.3810  148.0150 C   0  0  0  0  0  2  0  0  0  0  0  0
  162.3310  209.5590  149.3960 O   0  0  0  0  0  0  0  0  0  0  0  0
  161.2170  206.8500  147.5630 C   0  0  0  0  0  0  0  0  0  0  0  0
  159.9770  202.6790  149.0180 C   0  0  0  0  0  2  0  0  0  0  0  0
  161.9750  208.4340  148.9590 C   0  0  0  0  0  0  0  0  0  0  0  0
  161.1200  200.5880  149.1180 O   0  0  0  0  0  1  0  0  0  0  0  0
  162.4050  203.9040  147.8900 C   0  0  1  0  0  3  0  0  0  0  0  0
  160.6350  206.2580  146.3010 C   0  0  0  0  0  2  0  0  0  0  0  0
  161.5930  206.1970  148.6770 C   0  0  1  0  0  3  0  0  0  0  0  0
  160.8320  204.7530  146.1020 C   0  0  1  0  0  3  0  0  0  0  0  0
  161.7750  207.1050  153.2830 C   0  0  1  0  0  3  0  0  0  0  0  0
  161.2710  207.1090  150.9920 C   0  0  1  0  0  3  0  0  0  0  0  0
  161.9610  206.3630  152.0400 N   0  0  0  0  0  2  0  0  0  0  0  0
  160.9070  208.4760  151.5370 C   0  0  0  0  0  2  0  0  0  0  0  0
  160.8300  208.2590  153.0200 C   0  0  0  0  0  2  0  0  0  0  0  0
  161.2070  206.1840  154.3530 C   0  0  0  0  0  2  0  0  0  0  0  0
  160.9410  207.7290  156.2580 C   0  0  0  0  0  3  0  0  0  0  0  0
  160.3770  206.9540  155.3310 C   0  0  0  0  0  3  0  0  0  0  0  0
  160.0830  208.4560  157.2390 C   0  0  0  0  0  2  0  0  0  0  0  0
  160.2390  209.9840  157.1390 C   0  0  0  0  0  2  0  0  0  0  0  0
  159.3580  210.6530  156.1680 N   0  0  0  0  0  0  0  0  0  0  0  0
  157.7030  212.4410  155.8370 C   0  0  0  0  0  0  0  0  0  0  0  0
  159.3170  211.7960  154.0010 C   0  0  0  0  0  0  0  0  0  0  0  0
  156.6790  213.0770  156.2020 O   0  0  0  0  0  0  0  0  0  0  0  0
  158.4570  211.6080  156.8320 C   0  0  0  0  0  2  0  0  0  0  0  0
  160.0830  212.5620  153.1420 F   0  0  0  0  0  0  0  0  0  0  0  0
  160.1860  211.3180  155.1610 C   0  0  0  0  0  2  0  0  0  0  0  0
  158.8190  210.7030  153.3130 F   0  0  0  0  0  0  0  0  0  0  0  0
  158.2040  212.5970  154.5040 N   0  0  0  0  0  2  0  0  0  0  0  0
  160.8910  205.0710  143.7430 O   0  0  0  0  0  0  0  0  0  0  0  0
  159.6950  203.2480  144.4560 O   0  0  0  0  0  1  0  0  0  0  0  0
  160.4810  204.3690  144.7040 C   0  0  0  0  0  0  0  0  0  0  0  0
  3 12  1  6  0  0  0
  4  1  1  6  0  0  0
  5 11  1  0  0  0  0
  6 11  1  6  0  0  0
  6 18  1  0  0  0  0
  7  3  1  0  0  0  0
  9  5  2  0  0  0  0
 10  1  1  0  0  0  0
 10  3  1  0  0  0  0
 11  8  2  0  0  0  0
 13  2  1  6  0  0  0
 13  7  1  0  0  0  0
 13  4  1  0  0  0  0
 14  9  1  0  0  0  0
 15  9  1  6  0  0  0
 15  4  1  0  0  0  0
 15  6  1  0  0  0  0
 16 38  1  6  0  0  0
 16 14  1  0  0  0  0
 16  2  1  0  0  0  0
 17 22  1  1  0  0  0
 18 20  1  1  0  0  0
 18 19  1  0  0  0  0
 19 17  1  0  0  0  0
 20 21  1  0  0  0  0
 21 17  1  0  0  0  0
 22 24  1  0  0  0  0
 23 25  1  0  0  0  0
 24 23  2  0  0  0  0
 26 25  1  0  0  0  0
 27 31  1  0  0  0  0
 27 26  1  0  0  0  0
 28 30  2  0  0  0  0
 28 31  1  0  0  0  0
 29 35  1  0  0  0  0
 29 33  1  0  0  0  0
 32 29  1  0  0  0  0
 33 27  1  0  0  0  0
 34 29  1  0  0  0  0
 35 28  1  0  0  0  0
 36 38  2  0  0  0  0
 37 38  1  0  0  0  0
M  END
>  <MODEL>
9

>  <REMARK>
 VINA RESULT:      -6.6      3.366     10.432
  Name = 
  7 active torsions:
  status: ('A' for Active; 'I' for Inactive)
    1  A    between atoms: N_2  and  C_21
    2  A    between atoms: C_4  and  C_5
    3  A    between atoms: C_5  and  C_30
    4  A    between atoms: C_9  and  C_10
    5  A    between atoms: C_10  and  C_21
    6  A    between atoms: C_13  and  C_19
    7  A    between atoms: C_36  and  C_37
                            x       y       z     vdW  Elec       q    Type
                         _______ _______ _______ _____ _____    ______ ____

>  <TORSDO>
F 7

$$$$
