=
 OpenBabel11072414243D

 26 30  0  0  1  0  0  0  0  0999 V2000
  160.9720  206.6810  150.1680 C   0  0  0  0  0  0  0  0  0  0  0  0
  161.2400  201.9710  151.3390 C   0  0  0  0  0  3  0  0  0  0  0  0
  160.7230  203.9520  149.4700 C   0  0  0  0  0  0  0  0  0  0  0  0
  161.8320  205.6860  150.9110 C   0  0  0  0  0  2  0  0  0  0  0  0
  161.3760  204.2800  150.6660 C   0  0  0  0  0  0  0  0  0  0  0  0
  160.4640  205.0200  148.4450 C   0  0  1  0  0  3  0  0  0  0  0  0
  160.6040  201.6730  150.1730 N   0  0  0  0  0  0  0  0  0  0  0  0
  160.8320  208.0200  150.6530 N   0  0  0  0  0  2  0  0  0  0  0  0
  160.3620  206.3450  149.0670 N   0  0  0  0  0  0  0  0  0  0  0  0
  160.3420  202.6280  149.2390 C   0  0  0  0  0  3  0  0  0  0  0  0
  161.6430  203.2820  151.6050 C   0  0  0  0  0  3  0  0  0  0  0  0
  160.4510  211.8580  154.2100 O   0  0  0  0  0  0  0  0  0  0  0  0
  160.7220  209.4210  154.1130 C   0  0  1  0  0  3  0  0  0  0  0  0
  160.4790  210.7570  153.4180 C   0  0  2  0  0  0  0  0  0  0  0  0
  160.8770  210.9840  151.9690 C   0  0  0  0  0  2  0  0  0  0  0  0
  160.6640  208.2950  153.0770 C   0  0  0  0  0  2  0  0  0  0  0  0
  161.5360  208.5260  151.8230 C   0  0  2  0  0  3  0  0  0  0  0  0
  159.2270  211.3680  153.7680 N   0  0  0  0  0  2  0  0  0  0  0  0
  161.9670  209.9870  151.5940 C   0  0  0  0  0  2  0  0  0  0  0  0
  162.0640  209.4150  154.8270 C   0  0  0  0  0  1  0  0  0  0  0  0
  163.5650  204.6400  146.0700 S   0  0  0  0  0  0  0  0  0  0  0  0
  160.1780  206.4160  145.8180 N   0  0  0  0  0  1  0  0  0  0  0  0
  161.5180  205.0180  147.3740 C   0  0  0  0  0  0  0  0  0  0  0  0
  162.7380  204.3620  147.5070 C   0  0  0  0  0  3  0  0  0  0  0  0
  161.3510  205.6770  146.1450 C   0  0  0  0  0  0  0  0  0  0  0  0
  162.4210  205.5730  145.2690 C   0  0  0  0  0  3  0  0  0  0  0  0
  1  8  1  0  0  0  0
  1  4  1  0  0  0  0
  2 11  1  0  0  0  0
  3  5  1  0  0  0  0
  5  4  1  0  0  0  0
  5 11  2  0  0  0  0
  6 23  1  6  0  0  0
  6  9  1  0  0  0  0
  6  3  1  0  0  0  0
  7  2  2  0  0  0  0
  9  1  2  0  0  0  0
 10  3  2  0  0  0  0
 10  7  1  0  0  0  0
 13 20  1  6  0  0  0
 14 15  1  6  0  0  0
 14 18  1  0  0  0  0
 14 13  1  0  0  0  0
 14 12  1  0  0  0  0
 16 13  1  0  0  0  0
 17  8  1  6  0  0  0
 17 16  1  0  0  0  0
 18 12  1  0  0  0  0
 19 17  1  0  0  0  0
 19 15  1  0  0  0  0
 21 24  1  0  0  0  0
 22 25  1  0  0  0  0
 23 24  2  0  0  0  0
 25 23  1  0  0  0  0
 26 21  1  0  0  0  0
 26 25  2  0  0  0  0
M  END
>  <MODEL>
1

>  <REMARK>
 VINA RESULT:      -7.3      0.000      0.000
  Name = 
  2 active torsions:
  status: ('A' for Active; 'I' for Inactive)
    1  A    between atoms: C_6  and  C_17
    2  A    between atoms: C_14  and  N_21
                            x       y       z     vdW  Elec       q    Type
                         _______ _______ _______ _____ _____    ______ ____

>  <TORSDO>
F 2

$$$$
=
 OpenBabel11072414243D

 26 30  0  0  1  0  0  0  0  0999 V2000
  161.1600  208.5000  151.2930 C   0  0  0  0  0  0  0  0  0  0  0  0
  161.5570  208.1280  156.1230 C   0  0  0  0  0  3  0  0  0  0  0  0
  161.5190  209.6900  153.8340 C   0  0  0  0  0  0  0  0  0  0  0  0
  160.5550  207.8010  152.4870 C   0  0  0  0  0  2  0  0  0  0  0  0
  161.0820  208.3590  153.7740 C   0  0  0  0  0  0  0  0  0  0  0  0
  161.4760  210.5460  152.5980 C   0  0  1  0  0  3  0  0  0  0  0  0
  161.9810  209.4220  156.1610 N   0  0  0  0  0  0  0  0  0  0  0  0
  161.2670  207.8250  150.0370 N   0  0  0  0  0  2  0  0  0  0  0  0
  161.5740  209.7320  151.3810 N   0  0  0  0  0  0  0  0  0  0  0  0
  161.9690  210.2080  155.0500 C   0  0  0  0  0  3  0  0  0  0  0  0
  161.0940  207.5740  154.9280 C   0  0  0  0  0  3  0  0  0  0  0  0
  161.6350  203.9560  146.5120 O   0  0  0  0  0  0  0  0  0  0  0  0
  161.8680  204.3090  148.9300 C   0  0  1  0  0  3  0  0  0  0  0  0
  161.6590  204.8600  147.5220 C   0  0  2  0  0  0  0  0  0  0  0  0
  160.9020  206.1560  147.2800 C   0  0  0  0  0  2  0  0  0  0  0  0
  161.9220  205.4720  149.9240 C   0  0  0  0  0  2  0  0  0  0  0  0
  160.7590  206.4800  149.8040 C   0  0  2  0  0  3  0  0  0  0  0  0
  162.8010  204.6980  146.6660 N   0  0  0  0  0  2  0  0  0  0  0  0
  159.9890  206.4250  148.4700 C   0  0  0  0  0  2  0  0  0  0  0  0
  160.7560  203.3430  149.3060 C   0  0  0  0  0  1  0  0  0  0  0  0
  158.0870  212.4650  153.0790 S   0  0  0  0  0  0  0  0  0  0  0  0
  160.8810  212.5430  150.4570 N   0  0  0  0  0  1  0  0  0  0  0  0
  160.2400  211.3990  152.5670 C   0  0  0  0  0  0  0  0  0  0  0  0
  159.2460  211.3370  153.5390 C   0  0  0  0  0  3  0  0  0  0  0  0
  159.9920  212.3360  151.5510 C   0  0  0  0  0  0  0  0  0  0  0  0
  158.8050  213.0420  151.6740 C   0  0  0  0  0  3  0  0  0  0  0  0
  1  9  2  0  0  0  0
  1  4  1  0  0  0  0
  2  7  1  0  0  0  0
  3 10  1  0  0  0  0
  4  5  1  0  0  0  0
  5  3  2  0  0  0  0
  5 11  1  0  0  0  0
  6 23  1  6  0  0  0
  6  3  1  0  0  0  0
  8  1  1  0  0  0  0
  9  6  1  0  0  0  0
 10  7  2  0  0  0  0
 11  2  2  0  0  0  0
 12 18  1  0  0  0  0
 12 14  1  0  0  0  0
 13 20  1  1  0  0  0
 13 16  1  0  0  0  0
 14 15  1  6  0  0  0
 14 13  1  0  0  0  0
 15 19  1  0  0  0  0
 17 16  1  0  0  0  0
 17  8  1  6  0  0  0
 18 14  1  0  0  0  0
 19 17  1  0  0  0  0
 21 24  1  0  0  0  0
 22 25  1  0  0  0  0
 23 24  2  0  0  0  0
 25 26  2  0  0  0  0
 25 23  1  0  0  0  0
 26 21  1  0  0  0  0
M  END
>  <MODEL>
2

>  <REMARK>
 VINA RESULT:      -6.8      3.687      7.644
  Name = 
  2 active torsions:
  status: ('A' for Active; 'I' for Inactive)
    1  A    between atoms: C_6  and  C_17
    2  A    between atoms: C_14  and  N_21
                            x       y       z     vdW  Elec       q    Type
                         _______ _______ _______ _____ _____    ______ ____

>  <TORSDO>
F 2

$$$$
=
 OpenBabel11072414243D

 26 30  0  0  1  0  0  0  0  0999 V2000
  160.8290  207.9650  152.6530 C   0  0  0  0  0  0  0  0  0  0  0  0
  160.2500  212.5950  151.2920 C   0  0  0  0  0  3  0  0  0  0  0  0
  160.2110  210.6550  153.2720 C   0  0  0  0  0  0  0  0  0  0  0  0
  161.4560  209.0430  151.8000 C   0  0  0  0  0  2  0  0  0  0  0  0
  160.8060  210.3720  152.0340 C   0  0  0  0  0  0  0  0  0  0  0  0
  160.2100  209.6120  154.3540 C   0  0  1  0  0  3  0  0  0  0  0  0
  159.6750  212.8500  152.5000 N   0  0  0  0  0  0  0  0  0  0  0  0
  160.8630  206.5980  152.2320 N   0  0  0  0  0  2  0  0  0  0  0  0
  160.2680  208.2580  153.7920 N   0  0  0  0  0  0  0  0  0  0  0  0
  159.6460  211.9140  153.4870 C   0  0  0  0  0  3  0  0  0  0  0  0
  160.8320  211.3510  151.0390 C   0  0  0  0  0  3  0  0  0  0  0  0
  161.1800  202.3570  149.1600 O   0  0  0  0  0  0  0  0  0  0  0  0
  160.7490  204.7670  148.9800 C   0  0  1  0  0  3  0  0  0  0  0  0
  160.9840  203.5210  149.8280 C   0  0  2  0  0  0  0  0  0  0  0  0
  161.6000  203.6080  151.2150 C   0  0  0  0  0  2  0  0  0  0  0  0
  160.4940  205.9640  149.9000 C   0  0  0  0  0  2  0  0  0  0  0  0
  161.5380  206.1490  151.0230 C   0  0  2  0  0  3  0  0  0  0  0  0
  159.9270  202.5520  149.7330 N   0  0  0  0  0  2  0  0  0  0  0  0
  162.3950  204.9040  151.3230 C   0  0  0  0  0  2  0  0  0  0  0  0
  161.9370  205.0400  148.0730 C   0  0  0  0  0  1  0  0  0  0  0  0
  163.3240  210.6830  156.4890 S   0  0  0  0  0  0  0  0  0  0  0  0
  160.6510  207.9540  156.8000 N   0  0  0  0  0  1  0  0  0  0  0  0
  161.3360  209.8310  155.3240 C   0  0  0  0  0  0  0  0  0  0  0  0
  162.2900  210.8330  155.1730 C   0  0  0  0  0  3  0  0  0  0  0  0
  161.5120  209.0390  156.4710 C   0  0  0  0  0  0  0  0  0  0  0  0
  162.6010  209.3770  157.2610 C   0  0  0  0  0  3  0  0  0  0  0  0
  1  9  2  0  0  0  0
  2  7  1  0  0  0  0
  3 10  1  0  0  0  0
  3  6  1  0  0  0  0
  4  5  1  0  0  0  0
  4  1  1  0  0  0  0
  5  3  2  0  0  0  0
  6 23  1  1  0  0  0
  7 10  2  0  0  0  0
  8  1  1  0  0  0  0
  9  6  1  0  0  0  0
 11  2  2  0  0  0  0
 11  5  1  0  0  0  0
 12 18  1  0  0  0  0
 12 14  1  0  0  0  0
 13 20  1  1  0  0  0
 13 14  1  0  0  0  0
 13 16  1  0  0  0  0
 14 15  1  1  0  0  0
 15 19  1  0  0  0  0
 16 17  1  0  0  0  0
 17 19  1  0  0  0  0
 17  8  1  1  0  0  0
 18 14  1  0  0  0  0
 21 26  1  0  0  0  0
 23 25  1  0  0  0  0
 24 23  2  0  0  0  0
 24 21  1  0  0  0  0
 25 22  1  0  0  0  0
 25 26  2  0  0  0  0
M  END
>  <MODEL>
3

>  <REMARK>
 VINA RESULT:      -6.3      3.605      8.426
  Name = 
  2 active torsions:
  status: ('A' for Active; 'I' for Inactive)
    1  A    between atoms: C_6  and  C_17
    2  A    between atoms: C_14  and  N_21
                            x       y       z     vdW  Elec       q    Type
                         _______ _______ _______ _____ _____    ______ ____

>  <TORSDO>
F 2

$$$$
=
 OpenBabel11072414243D

 26 30  0  0  1  0  0  0  0  0999 V2000
  160.7200  208.7320  152.7210 C   0  0  0  0  0  0  0  0  0  0  0  0
  159.8290  213.2560  151.1820 C   0  0  0  0  0  3  0  0  0  0  0  0
  159.9290  211.3980  153.2370 C   0  0  0  0  0  0  0  0  0  0  0  0
  161.2690  209.8130  151.8200 C   0  0  0  0  0  2  0  0  0  0  0  0
  160.5340  211.1060  152.0060 C   0  0  0  0  0  0  0  0  0  0  0  0
  160.0030  210.4010  154.3600 C   0  0  1  0  0  3  0  0  0  0  0  0
  159.2440  213.5200  152.3840 N   0  0  0  0  0  0  0  0  0  0  0  0
  160.8420  207.3540  152.3540 N   0  0  0  0  0  2  0  0  0  0  0  0
  160.1470  209.0320  153.8510 N   0  0  0  0  0  0  0  0  0  0  0  0
  159.2830  212.6240  153.4070 C   0  0  0  0  0  3  0  0  0  0  0  0
  160.4900  212.0430  150.9740 C   0  0  0  0  0  3  0  0  0  0  0  0
  161.4000  203.0310  149.4340 O   0  0  0  0  0  0  0  0  0  0  0  0
  160.8250  205.4030  149.1700 C   0  0  1  0  0  3  0  0  0  0  0  0
  161.1380  204.2050  150.0610 C   0  0  2  0  0  0  0  0  0  0  0  0
  161.7520  204.3780  151.4410 C   0  0  0  0  0  2  0  0  0  0  0  0
  160.5030  206.6150  150.0480 C   0  0  0  0  0  2  0  0  0  0  0  0
  161.5380  206.9030  151.1570 C   0  0  2  0  0  3  0  0  0  0  0  0
  160.1400  203.1720  150.0070 N   0  0  0  0  0  2  0  0  0  0  0  0
  162.4690  205.7220  151.4970 C   0  0  0  0  0  2  0  0  0  0  0  0
  161.9920  205.7130  148.2470 C   0  0  0  0  0  1  0  0  0  0  0  0
  163.3030  210.9490  156.4120 S   0  0  0  0  0  0  0  0  0  0  0  0
  159.6280  211.9190  156.9060 N   0  0  0  0  0  1  0  0  0  0  0  0
  161.1180  210.7320  155.3110 C   0  0  0  0  0  0  0  0  0  0  0  0
  162.4410  210.3580  155.0960 C   0  0  0  0  0  3  0  0  0  0  0  0
  160.9110  211.4550  156.4970 C   0  0  0  0  0  0  0  0  0  0  0  0
  162.0490  211.6760  157.2610 C   0  0  0  0  0  3  0  0  0  0  0  0
  1  9  2  0  0  0  0
  2  7  1  0  0  0  0
  3 10  1  0  0  0  0
  3  6  1  0  0  0  0
  4  5  1  0  0  0  0
  4  1  1  0  0  0  0
  5  3  2  0  0  0  0
  6 23  1  1  0  0  0
  7 10  2  0  0  0  0
  8  1  1  0  0  0  0
  9  6  1  0  0  0  0
 11  2  2  0  0  0  0
 11  5  1  0  0  0  0
 12 18  1  0  0  0  0
 12 14  1  0  0  0  0
 13 20  1  1  0  0  0
 13 16  1  0  0  0  0
 13 14  1  0  0  0  0
 14 15  1  1  0  0  0
 15 19  1  0  0  0  0
 16 17  1  0  0  0  0
 17 19  1  0  0  0  0
 17  8  1  1  0  0  0
 18 14  1  0  0  0  0
 21 26  1  0  0  0  0
 23 25  1  0  0  0  0
 24 23  2  0  0  0  0
 24 21  1  0  0  0  0
 25 22  1  0  0  0  0
 25 26  2  0  0  0  0
M  END
>  <MODEL>
4

>  <REMARK>
 VINA RESULT:      -6.3      3.604      8.650
  Name = 
  2 active torsions:
  status: ('A' for Active; 'I' for Inactive)
    1  A    between atoms: C_6  and  C_17
    2  A    between atoms: C_14  and  N_21
                            x       y       z     vdW  Elec       q    Type
                         _______ _______ _______ _____ _____    ______ ____

>  <TORSDO>
F 2

$$$$
=
 OpenBabel11072414243D

 26 30  0  0  1  0  0  0  0  0999 V2000
  161.6870  209.1680  152.4780 C   0  0  0  0  0  0  0  0  0  0  0  0
  160.1970  207.1310  156.6320 C   0  0  0  0  0  3  0  0  0  0  0  0
  160.8730  209.3920  155.1780 C   0  0  0  0  0  0  0  0  0  0  0  0
  160.7510  208.1130  153.0180 C   0  0  0  0  0  2  0  0  0  0  0  0
  160.6590  208.1760  154.5120 C   0  0  0  0  0  0  0  0  0  0  0  0
  161.2160  210.6240  154.3880 C   0  0  1  0  0  3  0  0  0  0  0  0
  160.4130  208.3190  157.2610 N   0  0  0  0  0  0  0  0  0  0  0  0
  162.3590  208.9680  151.2310 N   0  0  0  0  0  2  0  0  0  0  0  0
  161.8810  210.2810  153.1250 N   0  0  0  0  0  0  0  0  0  0  0  0
  160.7430  209.4420  156.5670 C   0  0  0  0  0  3  0  0  0  0  0  0
  160.3110  207.0390  155.2430 C   0  0  0  0  0  3  0  0  0  0  0  0
  161.5820  203.7980  151.6590 O   0  0  0  0  0  0  0  0  0  0  0  0
  160.5740  205.7550  150.5740 C   0  0  1  0  0  3  0  0  0  0  0  0
  161.6030  205.1470  151.5230 C   0  0  2  0  0  0  0  0  0  0  0  0
  162.9350  205.8260  151.7930 C   0  0  0  0  0  2  0  0  0  0  0  0
  160.7110  207.2800  150.5920 C   0  0  0  0  0  2  0  0  0  0  0  0
  162.1490  207.8020  150.3860 C   0  0  2  0  0  3  0  0  0  0  0  0
  161.0230  204.5450  152.6910 N   0  0  0  0  0  2  0  0  0  0  0  0
  163.2580  206.7590  150.6320 C   0  0  0  0  0  2  0  0  0  0  0  0
  160.7540  205.2230  149.1620 C   0  0  0  0  0  1  0  0  0  0  0  0
  157.9590  212.4500  153.1830 S   0  0  0  0  0  0  0  0  0  0  0  0
  160.3190  212.8420  156.1770 N   0  0  0  0  0  1  0  0  0  0  0  0
  159.9990  211.4660  154.1340 C   0  0  0  0  0  0  0  0  0  0  0  0
  159.1680  211.2930  153.0300 C   0  0  0  0  0  3  0  0  0  0  0  0
  159.5970  212.4970  154.9980 C   0  0  0  0  0  0  0  0  0  0  0  0
  158.4490  213.1760  154.6160 C   0  0  0  0  0  3  0  0  0  0  0  0
  1  4  1  0  0  0  0
  1  9  2  0  0  0  0
  2  7  1  0  0  0  0
  3 10  1  0  0  0  0
  4  5  1  0  0  0  0
  5  3  2  0  0  0  0
  5 11  1  0  0  0  0
  6 23  1  6  0  0  0
  6  3  1  0  0  0  0
  8  1  1  0  0  0  0
  9  6  1  0  0  0  0
 10  7  2  0  0  0  0
 11  2  2  0  0  0  0
 12 18  1  0  0  0  0
 13 20  1  6  0  0  0
 13 16  1  0  0  0  0
 13 14  1  0  0  0  0
 14 12  1  0  0  0  0
 14 15  1  1  0  0  0
 14 18  1  0  0  0  0
 17 16  1  0  0  0  0
 17 19  1  0  0  0  0
 17  8  1  1  0  0  0
 19 15  1  0  0  0  0
 21 26  1  0  0  0  0
 23 25  1  0  0  0  0
 24 21  1  0  0  0  0
 24 23  2  0  0  0  0
 25 22  1  0  0  0  0
 26 25  2  0  0  0  0
M  END
>  <MODEL>
5

>  <REMARK>
 VINA RESULT:      -6.2      3.794      7.730
  Name = 
  2 active torsions:
  status: ('A' for Active; 'I' for Inactive)
    1  A    between atoms: C_6  and  C_17
    2  A    between atoms: C_14  and  N_21
                            x       y       z     vdW  Elec       q    Type
                         _______ _______ _______ _____ _____    ______ ____

>  <TORSDO>
F 2

$$$$
=
 OpenBabel11072414243D

 26 30  0  0  1  0  0  0  0  0999 V2000
  161.2660  207.7740  152.2670 C   0  0  0  0  0  0  0  0  0  0  0  0
  160.5420  207.1070  157.0270 C   0  0  0  0  0  3  0  0  0  0  0  0
  161.2710  208.7550  154.9200 C   0  0  0  0  0  0  0  0  0  0  0  0
  160.3060  207.1450  153.2490 C   0  0  0  0  0  2  0  0  0  0  0  0
  160.6320  207.5340  154.6590 C   0  0  0  0  0  0  0  0  0  0  0  0
  161.6450  209.6600  153.7790 C   0  0  1  0  0  3  0  0  0  0  0  0
  161.1670  208.2950  157.2600 N   0  0  0  0  0  0  0  0  0  0  0  0
  161.5220  207.1500  151.0050 N   0  0  0  0  0  2  0  0  0  0  0  0
  161.8590  208.9010  152.5420 N   0  0  0  0  0  0  0  0  0  0  0  0
  161.5310  209.1210  156.2420 C   0  0  0  0  0  3  0  0  0  0  0  0
  160.2590  206.7070  155.7190 C   0  0  0  0  0  3  0  0  0  0  0  0
  161.4050  203.9200  146.8730 O   0  0  0  0  0  0  0  0  0  0  0  0
  161.6790  203.8260  149.3100 C   0  0  1  0  0  3  0  0  0  0  0  0
  161.5420  204.6300  148.0200 C   0  0  2  0  0  0  0  0  0  0  0  0
  160.9530  206.0310  148.0140 C   0  0  0  0  0  2  0  0  0  0  0  0
  161.8780  204.7880  150.4850 C   0  0  0  0  0  2  0  0  0  0  0  0
  160.8500  205.9370  150.5600 C   0  0  2  0  0  3  0  0  0  0  0  0
  162.6550  204.4760  147.1260 N   0  0  0  0  0  2  0  0  0  0  0  0
  160.0800  206.2050  149.2520 C   0  0  0  0  0  2  0  0  0  0  0  0
  160.4550  202.9550  149.5410 C   0  0  0  0  0  1  0  0  0  0  0  0
  158.8290  212.1530  152.6590 S   0  0  0  0  0  0  0  0  0  0  0  0
  161.0800  211.8380  155.7450 N   0  0  0  0  0  1  0  0  0  0  0  0
  160.6120  210.7310  153.5710 C   0  0  0  0  0  0  0  0  0  0  0  0
  159.8160  210.8120  152.4320 C   0  0  0  0  0  3  0  0  0  0  0  0
  160.3630  211.7380  154.5180 C   0  0  0  0  0  0  0  0  0  0  0  0
  159.3760  212.6470  154.1680 C   0  0  0  0  0  3  0  0  0  0  0  0
  1  9  2  0  0  0  0
  1  4  1  0  0  0  0
  2  7  1  0  0  0  0
  3 10  1  0  0  0  0
  4  5  1  0  0  0  0
  5  3  2  0  0  0  0
  5 11  1  0  0  0  0
  6 23  1  6  0  0  0
  6  3  1  0  0  0  0
  8  1  1  0  0  0  0
  9  6  1  0  0  0  0
 10  7  2  0  0  0  0
 11  2  2  0  0  0  0
 12 18  1  0  0  0  0
 12 14  1  0  0  0  0
 13 20  1  1  0  0  0
 13 16  1  0  0  0  0
 14 15  1  1  0  0  0
 14 13  1  0  0  0  0
 15 19  1  0  0  0  0
 16 17  1  0  0  0  0
 17  8  1  6  0  0  0
 18 14  1  0  0  0  0
 19 17  1  0  0  0  0
 21 26  1  0  0  0  0
 23 25  1  0  0  0  0
 24 21  1  0  0  0  0
 24 23  2  0  0  0  0
 25 22  1  0  0  0  0
 26 25  2  0  0  0  0
M  END
>  <MODEL>
6

>  <REMARK>
 VINA RESULT:      -6.0      3.609      7.842
  Name = 
  2 active torsions:
  status: ('A' for Active; 'I' for Inactive)
    1  A    between atoms: C_6  and  C_17
    2  A    between atoms: C_14  and  N_21
                            x       y       z     vdW  Elec       q    Type
                         _______ _______ _______ _____ _____    ______ ____

>  <TORSDO>
F 2

$$$$
=
 OpenBabel11072414243D

 26 30  0  0  1  0  0  0  0  0999 V2000
  161.9380  208.2660  149.9520 C   0  0  0  0  0  0  0  0  0  0  0  0
  161.0580  208.2680  154.7330 C   0  0  0  0  0  3  0  0  0  0  0  0
  161.8430  209.6110  152.4380 C   0  0  0  0  0  0  0  0  0  0  0  0
  160.9500  207.7690  150.9810 C   0  0  0  0  0  2  0  0  0  0  0  0
  161.2250  208.3570  152.3320 C   0  0  0  0  0  0  0  0  0  0  0  0
  162.2470  210.3510  151.1940 C   0  0  1  0  0  3  0  0  0  0  0  0
  161.6630  209.4850  154.8160 N   0  0  0  0  0  0  0  0  0  0  0  0
  162.2420  207.4730  148.8000 N   0  0  0  0  0  2  0  0  0  0  0  0
  162.5110  209.4280  150.0840 N   0  0  0  0  0  0  0  0  0  0  0  0
  162.0540  210.1640  153.7030 C   0  0  0  0  0  3  0  0  0  0  0  0
  160.8230  207.6830  153.4860 C   0  0  0  0  0  3  0  0  0  0  0  0
  160.6730  204.6240  144.6840 O   0  0  0  0  0  0  0  0  0  0  0  0
  162.0250  204.3810  146.7180 C   0  0  1  0  0  3  0  0  0  0  0  0
  161.2230  205.2500  145.7540 C   0  0  2  0  0  0  0  0  0  0  0  0
  160.5280  206.5200  146.2170 C   0  0  0  0  0  2  0  0  0  0  0  0
  162.6130  205.2630  147.8230 C   0  0  0  0  0  2  0  0  0  0  0  0
  161.5960  206.2010  148.5100 C   0  0  2  0  0  3  0  0  0  0  0  0
  161.8240  205.3710  144.4540 N   0  0  0  0  0  2  0  0  0  0  0  0
  160.2930  206.4330  147.7200 C   0  0  0  0  0  2  0  0  0  0  0  0
  161.1550  203.2900  147.3190 C   0  0  0  0  0  1  0  0  0  0  0  0
  159.2460  212.8390  150.7380 S   0  0  0  0  0  0  0  0  0  0  0  0
  162.3670  211.9740  148.6870 N   0  0  0  0  0  1  0  0  0  0  0  0
  161.2120  211.3680  150.8020 C   0  0  0  0  0  0  0  0  0  0  0  0
  160.0900  211.6500  151.5760 C   0  0  0  0  0  3  0  0  0  0  0  0
  161.3010  212.1220  149.6210 C   0  0  0  0  0  0  0  0  0  0  0  0
  160.2620  213.0170  149.4120 C   0  0  0  0  0  3  0  0  0  0  0  0
  1  9  2  0  0  0  0
  1  4  1  0  0  0  0
  2  7  1  0  0  0  0
  3 10  1  0  0  0  0
  4  5  1  0  0  0  0
  5  3  2  0  0  0  0
  5 11  1  0  0  0  0
  6 23  1  6  0  0  0
  6  3  1  0  0  0  0
  8  1  1  0  0  0  0
  9  6  1  0  0  0  0
 10  7  2  0  0  0  0
 11  2  2  0  0  0  0
 12 14  1  0  0  0  0
 13 20  1  1  0  0  0
 13 16  1  0  0  0  0
 14 15  1  1  0  0  0
 14 13  1  0  0  0  0
 15 19  1  0  0  0  0
 16 17  1  0  0  0  0
 17  8  1  6  0  0  0
 18 12  1  0  0  0  0
 18 14  1  0  0  0  0
 19 17  1  0  0  0  0
 21 24  1  0  0  0  0
 22 25  1  0  0  0  0
 23 24  2  0  0  0  0
 25 23  1  0  0  0  0
 26 25  2  0  0  0  0
 26 21  1  0  0  0  0
M  END
>  <MODEL>
7

>  <REMARK>
 VINA RESULT:      -5.8      3.885      7.491
  Name = 
  2 active torsions:
  status: ('A' for Active; 'I' for Inactive)
    1  A    between atoms: C_6  and  C_17
    2  A    between atoms: C_14  and  N_21
                            x       y       z     vdW  Elec       q    Type
                         _______ _______ _______ _____ _____    ______ ____

>  <TORSDO>
F 2

$$$$
=
 OpenBabel11072414243D

 26 30  0  0  1  0  0  0  0  0999 V2000
  159.6970  210.1510  153.3660 C   0  0  0  0  0  0  0  0  0  0  0  0
  159.2020  214.0770  150.5420 C   0  0  0  0  0  3  0  0  0  0  0  0
  158.5490  212.6840  152.8480 C   0  0  0  0  0  0  0  0  0  0  0  0
  160.4940  211.1250  152.5290 C   0  0  0  0  0  2  0  0  0  0  0  0
  159.6500  212.2780  152.0790 C   0  0  0  0  0  0  0  0  0  0  0  0
  158.2080  211.9450  154.1120 C   0  0  1  0  0  3  0  0  0  0  0  0
  158.1350  214.4530  151.2990 N   0  0  0  0  0  0  0  0  0  0  0  0
  160.0770  208.7740  153.4290 N   0  0  0  0  0  2  0  0  0  0  0  0
  158.6680  210.5520  154.0570 N   0  0  0  0  0  0  0  0  0  0  0  0
  157.7970  213.7870  152.4360 C   0  0  0  0  0  3  0  0  0  0  0  0
  159.9830  212.9830  150.9220 C   0  0  0  0  0  3  0  0  0  0  0  0
  161.8460  204.2530  151.4390 O   0  0  0  0  0  0  0  0  0  0  0  0
  161.5680  206.6020  150.7820 C   0  0  1  0  0  3  0  0  0  0  0  0
  161.3520  205.4690  151.7810 C   0  0  2  0  0  0  0  0  0  0  0  0
  161.2070  205.7380  153.2700 C   0  0  0  0  0  2  0  0  0  0  0  0
  160.8980  207.8740  151.3090 C   0  0  0  0  0  2  0  0  0  0  0  0
  161.2570  208.2370  152.7670 C   0  0  2  0  0  3  0  0  0  0  0  0
  160.4740  204.4380  151.3000 N   0  0  0  0  0  2  0  0  0  0  0  0
  161.8520  207.0800  153.5950 C   0  0  0  0  0  2  0  0  0  0  0  0
  163.0500  206.8430  150.5460 C   0  0  0  0  0  1  0  0  0  0  0  0
  160.2450  213.4770  157.0960 S   0  0  0  0  0  0  0  0  0  0  0  0
  156.6020  213.6960  155.9230 N   0  0  0  0  0  1  0  0  0  0  0  0
  158.7690  212.6400  155.3190 C   0  0  0  0  0  0  0  0  0  0  0  0
  160.1000  212.5310  155.7130 C   0  0  0  0  0  3  0  0  0  0  0  0
  157.9900  213.4650  156.1480 C   0  0  0  0  0  0  0  0  0  0  0  0
  158.6640  214.0310  157.2200 C   0  0  0  0  0  3  0  0  0  0  0  0
  1  8  1  0  0  0  0
  1  9  2  0  0  0  0
  2 11  2  0  0  0  0
  2  7  1  0  0  0  0
  3  6  1  0  0  0  0
  4  1  1  0  0  0  0
  5  4  1  0  0  0  0
  5  3  2  0  0  0  0
  6 23  1  1  0  0  0
  7 10  2  0  0  0  0
  9  6  1  0  0  0  0
 10  3  1  0  0  0  0
 11  5  1  0  0  0  0
 12 14  1  0  0  0  0
 13 20  1  1  0  0  0
 13 16  1  0  0  0  0
 13 14  1  0  0  0  0
 14 15  1  1  0  0  0
 15 19  1  0  0  0  0
 16 17  1  0  0  0  0
 17  8  1  1  0  0  0
 17 19  1  0  0  0  0
 18 12  1  0  0  0  0
 18 14  1  0  0  0  0
 21 26  1  0  0  0  0
 22 25  1  0  0  0  0
 23 24  2  0  0  0  0
 23 25  1  0  0  0  0
 24 21  1  0  0  0  0
 25 26  2  0  0  0  0
M  END
>  <MODEL>
8

>  <REMARK>
 VINA RESULT:      -4.8      4.348      9.229
  Name = 
  2 active torsions:
  status: ('A' for Active; 'I' for Inactive)
    1  A    between atoms: C_6  and  C_17
    2  A    between atoms: C_14  and  N_21
                            x       y       z     vdW  Elec       q    Type
                         _______ _______ _______ _____ _____    ______ ____

>  <TORSDO>
F 2

$$$$
=
 OpenBabel11072414243D

 26 30  0  0  1  0  0  0  0  0999 V2000
  161.4220  206.1070  150.4200 C   0  0  0  0  0  0  0  0  0  0  0  0
  160.8070  206.1990  145.5980 C   0  0  0  0  0  3  0  0  0  0  0  0
  161.5760  204.8460  147.8930 C   0  0  0  0  0  0  0  0  0  0  0  0
  160.4530  206.5570  149.3500 C   0  0  0  0  0  2  0  0  0  0  0  0
  160.8500  206.0400  148.0010 C   0  0  0  0  0  0  0  0  0  0  0  0
  161.9730  204.0990  149.1350 C   0  0  1  0  0  3  0  0  0  0  0  0
  161.5170  205.0400  145.5130 N   0  0  0  0  0  0  0  0  0  0  0  0
  161.5940  206.8810  151.6100 N   0  0  0  0  0  2  0  0  0  0  0  0
  162.0970  205.0020  150.2850 N   0  0  0  0  0  0  0  0  0  0  0  0
  161.9020  204.3570  146.6250 C   0  0  0  0  0  3  0  0  0  0  0  0
  160.4560  206.7190  146.8460 C   0  0  0  0  0  3  0  0  0  0  0  0
  161.5130  210.8450  155.0470 O   0  0  0  0  0  0  0  0  0  0  0  0
  161.5190  210.4760  152.6200 C   0  0  1  0  0  3  0  0  0  0  0  0
  161.6150  209.9370  154.0440 C   0  0  2  0  0  0  0  0  0  0  0  0
  161.2060  208.5130  154.3860 C   0  0  0  0  0  2  0  0  0  0  0  0
  161.7110  209.3240  151.6300 C   0  0  0  0  0  2  0  0  0  0  0  0
  160.8290  208.0850  151.9010 C   0  0  2  0  0  3  0  0  0  0  0  0
  162.7890  210.3770  154.7470 N   0  0  0  0  0  2  0  0  0  0  0  0
  160.2380  208.0090  153.3220 C   0  0  0  0  0  2  0  0  0  0  0  0
  160.1810  211.1570  152.3860 C   0  0  0  0  0  1  0  0  0  0  0  0
  159.3090  201.2210  149.2740 S   0  0  0  0  0  0  0  0  0  0  0  0
  161.5810  202.9190  151.8520 N   0  0  0  0  0  1  0  0  0  0  0  0
  161.0080  202.9870  149.4360 C   0  0  0  0  0  0  0  0  0  0  0  0
  160.1970  202.3990  148.4690 C   0  0  0  0  0  3  0  0  0  0  0  0
  160.8520  202.4470  150.7220 C   0  0  0  0  0  0  0  0  0  0  0  0
  159.9200  201.4250  150.8260 C   0  0  0  0  0  3  0  0  0  0  0  0
  1  8  1  0  0  0  0
  2 11  1  0  0  0  0
  3  5  1  0  0  0  0
  3  6  1  0  0  0  0
  4  1  1  0  0  0  0
  5  4  1  0  0  0  0
  6 23  1  1  0  0  0
  6  9  1  0  0  0  0
  7  2  2  0  0  0  0
  7 10  1  0  0  0  0
  9  1  2  0  0  0  0
 10  3  2  0  0  0  0
 11  5  2  0  0  0  0
 13 20  1  1  0  0  0
 13 14  1  0  0  0  0
 14 15  1  1  0  0  0
 14 18  1  0  0  0  0
 14 12  1  0  0  0  0
 16 17  1  0  0  0  0
 16 13  1  0  0  0  0
 17  8  1  1  0  0  0
 17 19  1  0  0  0  0
 18 12  1  0  0  0  0
 19 15  1  0  0  0  0
 21 26  1  0  0  0  0
 23 25  1  0  0  0  0
 24 21  1  0  0  0  0
 24 23  2  0  0  0  0
 25 26  2  0  0  0  0
 25 22  1  0  0  0  0
M  END
>  <MODEL>
9

>  <REMARK>
 VINA RESULT:      -4.7      1.931      4.046
  Name = 
  2 active torsions:
  status: ('A' for Active; 'I' for Inactive)
    1  A    between atoms: C_6  and  C_17
    2  A    between atoms: C_14  and  N_21
                            x       y       z     vdW  Elec       q    Type
                         _______ _______ _______ _____ _____    ______ ____

>  <TORSDO>
F 2

$$$$
