=
 OpenBabel11072412243D

 27 28  0  0  1  0  0  0  0  0999 V2000
  161.2040  204.3990  152.7670 O   0  0  0  0  0  1  0  0  0  0  0  0
  161.2140  205.5420  151.9750 C   0  0  0  0  0  0  0  0  0  0  0  0
  161.2650  206.8370  152.5480 C   0  0  0  0  0  0  0  0  0  0  0  0
  161.2370  207.7740  150.3000 C   0  0  0  0  0  3  0  0  0  0  0  0
  161.1720  205.3840  150.5900 C   0  0  0  0  0  3  0  0  0  0  0  0
  161.2880  207.9720  151.6880 C   0  0  0  0  0  0  0  0  0  0  0  0
  161.1720  206.4950  149.7530 C   0  0  0  0  0  0  0  0  0  0  0  0
  161.3670  209.3780  152.1680 C   0  0  0  0  0  0  0  0  0  0  0  0
  160.2040  210.0770  152.6210 N   0  0  0  0  0  2  0  0  0  0  0  0
  162.4870  209.9600  152.1980 O   0  0  0  0  0  0  0  0  0  0  0  0
  159.0390  212.1300  152.8370 N   0  0  0  0  0  1  0  0  0  0  0  0
  160.2560  211.4190  153.1800 C   0  0  1  0  0  3  0  0  0  0  0  0
  160.0850  212.8510  155.6600 O   0  0  0  0  0  1  0  0  0  0  0  0
  159.4350  210.3200  155.5430 O   0  0  0  0  0  1  0  0  0  0  0  0
  161.9860  210.8680  155.3980 O   0  0  0  0  0  0  0  0  0  0  0  0
  160.4120  211.3330  154.9900 P   0  0  0  0  0  0  0  0  0  0  0  0
  160.2130  206.9920  154.7070 O   0  0  0  0  0  0  0  0  0  0  0  0
  161.2660  207.0100  154.0180 C   0  0  0  0  0  3  0  0  0  0  0  0
  161.1500  206.3170  148.2770 C   0  0  0  0  0  2  0  0  0  0  0  0
  162.0020  205.2390  147.9130 O   0  0  0  0  0  0  0  0  0  0  0  0
  161.3260  204.2080  145.8430 C   0  0  0  0  0  3  0  0  0  0  0  0
  160.1300  200.7160  145.0170 C   0  0  0  0  0  1  0  0  0  0  0  0
  160.8660  203.1010  145.1250 C   0  0  0  0  0  3  0  0  0  0  0  0
  160.8330  201.7910  147.1590 C   0  0  0  0  0  3  0  0  0  0  0  0
  161.2930  202.8970  147.8790 C   0  0  0  0  0  3  0  0  0  0  0  0
  161.5420  204.1140  147.2220 C   0  0  0  0  0  0  0  0  0  0  0  0
  160.6200  201.8930  145.7820 C   0  0  0  0  0  0  0  0  0  0  0  0
  2  3  1  0  0  0  0
  2  1  1  0  0  0  0
  3 18  1  0  0  0  0
  4  6  1  0  0  0  0
  5  2  2  0  0  0  0
  6  8  1  0  0  0  0
  6  3  2  0  0  0  0
  7  4  2  0  0  0  0
  7  5  1  0  0  0  0
  8 10  2  0  0  0  0
  8  9  1  0  0  0  0
  9 12  1  0  0  0  0
 12 11  1  1  0  0  0
 12 16  1  0  0  0  0
 16 15  2  0  0  0  0
 16 14  1  0  0  0  0
 16 13  1  0  0  0  0
 18 17  2  0  0  0  0
 19  7  1  0  0  0  0
 20 19  1  0  0  0  0
 21 26  1  0  0  0  0
 22 27  1  0  0  0  0
 23 27  1  0  0  0  0
 23 21  2  0  0  0  0
 24 25  1  0  0  0  0
 26 25  2  0  0  0  0
 26 20  1  0  0  0  0
 27 24  2  0  0  0  0
M  END
>  <MODEL>
1

>  <REMARK>
 VINA RESULT:      -8.3      0.000      0.000
  Name = 
  7 active torsions:
  status: ('A' for Active; 'I' for Inactive)
    1  A    between atoms: C_1  and  C_22
    2  A    between atoms: N_5  and  C_24
    3  A    between atoms: C_6  and  C_26
    4  A    between atoms: C_6  and  O_27
    5  A    between atoms: C_14  and  C_21
    6  A    between atoms: P_20  and  C_24
    7  A    between atoms: C_23  and  O_27
                            x       y       z     vdW  Elec       q    Type
                         _______ _______ _______ _____ _____    ______ ____

>  <TORSDO>
F 7

$$$$
=
 OpenBabel11072412243D

 27 28  0  0  1  0  0  0  0  0999 V2000
  160.2740  206.8260  156.4140 O   0  0  0  0  0  1  0  0  0  0  0  0
  160.4860  207.4810  155.2060 C   0  0  0  0  0  0  0  0  0  0  0  0
  160.1650  208.8510  155.0430 C   0  0  0  0  0  0  0  0  0  0  0  0
  160.9550  208.7060  152.7430 C   0  0  0  0  0  3  0  0  0  0  0  0
  161.0270  206.7510  154.1480 C   0  0  0  0  0  3  0  0  0  0  0  0
  160.4170  209.4740  153.7870 C   0  0  0  0  0  0  0  0  0  0  0  0
  161.2500  207.3560  152.9160 C   0  0  0  0  0  0  0  0  0  0  0  0
  160.1470  210.9090  153.5000 C   0  0  0  0  0  0  0  0  0  0  0  0
  158.9920  211.3170  152.7610 N   0  0  0  0  0  2  0  0  0  0  0  0
  160.9410  211.7870  153.9380 O   0  0  0  0  0  0  0  0  0  0  0  0
  158.1190  212.8690  151.1980 N   0  0  0  0  0  1  0  0  0  0  0  0
  158.6490  212.7130  152.5390 C   0  0  1  0  0  3  0  0  0  0  0  0
  158.1310  214.1790  154.9500 O   0  0  0  0  0  1  0  0  0  0  0  0
  156.3320  214.0660  153.0540 O   0  0  0  0  0  0  0  0  0  0  0  0
  156.6810  211.8850  154.4510 O   0  0  0  0  0  1  0  0  0  0  0  0
  157.3970  213.2450  153.7460 P   0  0  0  0  0  0  0  0  0  0  0  0
  160.2210  210.3440  156.9290 O   0  0  0  0  0  0  0  0  0  0  0  0
  159.5510  209.6180  156.1490 C   0  0  0  0  0  3  0  0  0  0  0  0
  161.8490  206.5760  151.8000 C   0  0  0  0  0  2  0  0  0  0  0  0
  160.8170  206.0660  150.9660 O   0  0  0  0  0  0  0  0  0  0  0  0
  161.1110  204.7170  148.9920 C   0  0  0  0  0  3  0  0  0  0  0  0
  161.1040  200.9730  148.4490 C   0  0  0  0  0  1  0  0  0  0  0  0
  161.1830  203.4690  148.3660 C   0  0  0  0  0  3  0  0  0  0  0  0
  160.8010  202.3780  150.4920 C   0  0  0  0  0  3  0  0  0  0  0  0
  160.7280  203.6250  151.1190 C   0  0  0  0  0  3  0  0  0  0  0  0
  160.8840  204.8040  150.3700 C   0  0  0  0  0  0  0  0  0  0  0  0
  161.0280  202.3000  149.1160 C   0  0  0  0  0  0  0  0  0  0  0  0
  2  1  1  0  0  0  0
  3  2  1  0  0  0  0
  3 18  1  0  0  0  0
  4  7  2  0  0  0  0
  4  6  1  0  0  0  0
  5  2  2  0  0  0  0
  6  3  2  0  0  0  0
  7  5  1  0  0  0  0
  8  6  1  0  0  0  0
  8 10  2  0  0  0  0
  9  8  1  0  0  0  0
 12 11  1  6  0  0  0
 12  9  1  0  0  0  0
 12 16  1  0  0  0  0
 14 16  2  0  0  0  0
 16 15  1  0  0  0  0
 16 13  1  0  0  0  0
 18 17  2  0  0  0  0
 19  7  1  0  0  0  0
 20 19  1  0  0  0  0
 21 26  1  0  0  0  0
 22 27  1  0  0  0  0
 23 21  2  0  0  0  0
 23 27  1  0  0  0  0
 24 25  1  0  0  0  0
 26 20  1  0  0  0  0
 26 25  2  0  0  0  0
 27 24  2  0  0  0  0
M  END
>  <MODEL>
2

>  <REMARK>
 VINA RESULT:      -7.6      2.154      3.475
  Name = 
  7 active torsions:
  status: ('A' for Active; 'I' for Inactive)
    1  A    between atoms: C_1  and  C_22
    2  A    between atoms: N_5  and  C_24
    3  A    between atoms: C_6  and  C_26
    4  A    between atoms: C_6  and  O_27
    5  A    between atoms: C_14  and  C_21
    6  A    between atoms: P_20  and  C_24
    7  A    between atoms: C_23  and  O_27
                            x       y       z     vdW  Elec       q    Type
                         _______ _______ _______ _____ _____    ______ ____

>  <TORSDO>
F 7

$$$$
=
 OpenBabel11072412243D

 27 28  0  0  1  0  0  0  0  0999 V2000
  161.2540  205.5160  154.2250 O   0  0  0  0  0  1  0  0  0  0  0  0
  161.2000  206.6000  153.3580 C   0  0  0  0  0  0  0  0  0  0  0  0
  160.8610  207.8970  153.8170 C   0  0  0  0  0  0  0  0  0  0  0  0
  161.1220  208.7140  151.5360 C   0  0  0  0  0  3  0  0  0  0  0  0
  161.4880  206.3810  152.0100 C   0  0  0  0  0  3  0  0  0  0  0  0
  160.8340  208.9740  152.8850 C   0  0  0  0  0  0  0  0  0  0  0  0
  161.4380  207.4300  151.0990 C   0  0  0  0  0  0  0  0  0  0  0  0
  160.5190  210.3820  153.2490 C   0  0  0  0  0  0  0  0  0  0  0  0
  159.2300  210.9470  152.9910 N   0  0  0  0  0  2  0  0  0  0  0  0
  161.3980  211.0850  153.8190 O   0  0  0  0  0  0  0  0  0  0  0  0
  158.1100  212.9360  152.3500 N   0  0  0  0  0  1  0  0  0  0  0  0
  158.8580  212.2890  153.4120 C   0  0  1  0  0  3  0  0  0  0  0  0
  158.6930  211.4580  156.1530 O   0  0  0  0  0  1  0  0  0  0  0  0
  157.4340  213.6020  155.3400 O   0  0  0  0  0  1  0  0  0  0  0  0
  156.4300  211.3120  154.5810 O   0  0  0  0  0  0  0  0  0  0  0  0
  157.8270  212.2070  154.9090 P   0  0  0  0  0  0  0  0  0  0  0  0
  161.3780  208.3270  156.1270 O   0  0  0  0  0  0  0  0  0  0  0  0
  160.5120  208.1260  155.2360 C   0  0  0  0  0  3  0  0  0  0  0  0
  161.7690  207.1920  149.6690 C   0  0  0  0  0  2  0  0  0  0  0  0
  160.7540  206.3980  149.0690 O   0  0  0  0  0  0  0  0  0  0  0  0
  161.3640  204.5340  147.6700 C   0  0  0  0  0  3  0  0  0  0  0  0
  161.3080  200.7970  148.2520 C   0  0  0  0  0  1  0  0  0  0  0  0
  161.5030  203.1590  147.4620 C   0  0  0  0  0  3  0  0  0  0  0  0
  160.6790  202.7340  149.6970 C   0  0  0  0  0  3  0  0  0  0  0  0
  160.5390  204.1100  149.9060 C   0  0  0  0  0  3  0  0  0  0  0  0
  160.8830  205.0180  148.8910 C   0  0  0  0  0  0  0  0  0  0  0  0
  161.1610  202.2600  148.4750 C   0  0  0  0  0  0  0  0  0  0  0  0
  2  3  1  0  0  0  0
  2  1  1  0  0  0  0
  3 18  1  0  0  0  0
  4  6  1  0  0  0  0
  5  2  2  0  0  0  0
  6  8  1  0  0  0  0
  6  3  2  0  0  0  0
  7  4  2  0  0  0  0
  7  5  1  0  0  0  0
  8 10  2  0  0  0  0
  9  8  1  0  0  0  0
  9 12  1  0  0  0  0
 12 11  1  6  0  0  0
 12 16  1  0  0  0  0
 15 16  2  0  0  0  0
 16 14  1  0  0  0  0
 16 13  1  0  0  0  0
 18 17  2  0  0  0  0
 19  7  1  0  0  0  0
 20 19  1  0  0  0  0
 21 26  1  0  0  0  0
 22 27  1  0  0  0  0
 23 21  2  0  0  0  0
 23 27  1  0  0  0  0
 24 25  1  0  0  0  0
 26 20  1  0  0  0  0
 26 25  2  0  0  0  0
 27 24  2  0  0  0  0
M  END
>  <MODEL>
3

>  <REMARK>
 VINA RESULT:      -7.6      1.680      2.395
  Name = 
  7 active torsions:
  status: ('A' for Active; 'I' for Inactive)
    1  A    between atoms: C_1  and  C_22
    2  A    between atoms: N_5  and  C_24
    3  A    between atoms: C_6  and  C_26
    4  A    between atoms: C_6  and  O_27
    5  A    between atoms: C_14  and  C_21
    6  A    between atoms: P_20  and  C_24
    7  A    between atoms: C_23  and  O_27
                            x       y       z     vdW  Elec       q    Type
                         _______ _______ _______ _____ _____    ______ ____

>  <TORSDO>
F 7

$$$$
=
 OpenBabel11072412243D

 27 28  0  0  1  0  0  0  0  0999 V2000
  161.9510  208.9610  149.9290 O   0  0  0  0  0  1  0  0  0  0  0  0
  161.6880  208.2520  151.0960 C   0  0  0  0  0  0  0  0  0  0  0  0
  161.4280  208.9150  152.3200 C   0  0  0  0  0  0  0  0  0  0  0  0
  161.1650  206.7370  153.3810 C   0  0  0  0  0  3  0  0  0  0  0  0
  161.6860  206.8580  151.0330 C   0  0  0  0  0  3  0  0  0  0  0  0
  161.1510  208.1370  153.4810 C   0  0  0  0  0  0  0  0  0  0  0  0
  161.4380  206.1010  152.1730 C   0  0  0  0  0  0  0  0  0  0  0  0
  160.8380  208.7160  154.8150 C   0  0  0  0  0  0  0  0  0  0  0  0
  161.5400  209.8580  155.3150 N   0  0  0  0  0  2  0  0  0  0  0  0
  159.9190  208.2040  155.5120 O   0  0  0  0  0  0  0  0  0  0  0  0
  162.4170  210.9730  157.2140 N   0  0  0  0  0  1  0  0  0  0  0  0
  161.2020  210.5050  156.5730 C   0  0  1  0  0  3  0  0  0  0  0  0
  160.5510  213.2130  157.2600 O   0  0  0  0  0  1  0  0  0  0  0  0
  160.1950  212.3420  154.8200 O   0  0  0  0  0  0  0  0  0  0  0  0
  158.5060  211.4770  156.6160 O   0  0  0  0  0  1  0  0  0  0  0  0
  160.1000  211.9200  156.2690 P   0  0  0  0  0  0  0  0  0  0  0  0
  160.5350  211.1250  151.9880 O   0  0  0  0  0  0  0  0  0  0  0  0
  161.4720  210.3920  152.4010 C   0  0  0  0  0  3  0  0  0  0  0  0
  161.4150  204.6170  152.0920 C   0  0  0  0  0  2  0  0  0  0  0  0
  160.4430  204.2040  151.1400 O   0  0  0  0  0  0  0  0  0  0  0  0
  160.7180  201.8950  150.5140 C   0  0  0  0  0  3  0  0  0  0  0  0
  161.5140  200.2380  147.2080 C   0  0  0  0  0  1  0  0  0  0  0  0
  160.9810  200.9140  149.5530 C   0  0  0  0  0  3  0  0  0  0  0  0
  161.2260  202.6300  147.8640 C   0  0  0  0  0  3  0  0  0  0  0  0
  160.9640  203.6120  148.8250 C   0  0  0  0  0  3  0  0  0  0  0  0
  160.7080  203.2480  150.1570 C   0  0  0  0  0  0  0  0  0  0  0  0
  161.2350  201.2820  148.2290 C   0  0  0  0  0  0  0  0  0  0  0  0
  1  2  1  0  0  0  0
  2  3  1  0  0  0  0
  3 18  1  0  0  0  0
  3  6  2  0  0  0  0
  4  6  1  0  0  0  0
  5  2  2  0  0  0  0
  5  7  1  0  0  0  0
  6  8  1  0  0  0  0
  7  4  2  0  0  0  0
  8  9  1  0  0  0  0
  8 10  2  0  0  0  0
  9 12  1  0  0  0  0
 12 11  1  6  0  0  0
 14 16  2  0  0  0  0
 16 12  1  0  0  0  0
 16 15  1  0  0  0  0
 16 13  1  0  0  0  0
 17 18  2  0  0  0  0
 19  7  1  0  0  0  0
 20 19  1  0  0  0  0
 22 27  1  0  0  0  0
 23 21  2  0  0  0  0
 24 27  2  0  0  0  0
 24 25  1  0  0  0  0
 25 26  2  0  0  0  0
 26 21  1  0  0  0  0
 26 20  1  0  0  0  0
 27 23  1  0  0  0  0
M  END
>  <MODEL>
4

>  <REMARK>
 VINA RESULT:      -7.6      2.047      3.443
  Name = 
  7 active torsions:
  status: ('A' for Active; 'I' for Inactive)
    1  A    between atoms: C_1  and  C_22
    2  A    between atoms: N_5  and  C_24
    3  A    between atoms: C_6  and  C_26
    4  A    between atoms: C_6  and  O_27
    5  A    between atoms: C_14  and  C_21
    6  A    between atoms: P_20  and  C_24
    7  A    between atoms: C_23  and  O_27
                            x       y       z     vdW  Elec       q    Type
                         _______ _______ _______ _____ _____    ______ ____

>  <TORSDO>
F 7

$$$$
=
 OpenBabel11072412243D

 27 28  0  0  1  0  0  0  0  0999 V2000
  160.3640  200.9300  150.7610 O   0  0  0  0  0  1  0  0  0  0  0  0
  160.6650  202.2860  150.7080 C   0  0  0  0  0  0  0  0  0  0  0  0
  160.8440  202.9550  149.4720 C   0  0  0  0  0  0  0  0  0  0  0  0
  161.2620  205.0120  150.7080 C   0  0  0  0  0  3  0  0  0  0  0  0
  160.7900  202.9800  151.9110 C   0  0  0  0  0  3  0  0  0  0  0  0
  161.1370  204.3490  149.4780 C   0  0  0  0  0  0  0  0  0  0  0  0
  161.0990  204.3360  151.9140 C   0  0  0  0  0  0  0  0  0  0  0  0
  161.3200  205.1660  148.2480 C   0  0  0  0  0  0  0  0  0  0  0  0
  162.1100  204.6950  147.1520 N   0  0  0  0  0  2  0  0  0  0  0  0
  160.7480  206.2870  148.1590 O   0  0  0  0  0  0  0  0  0  0  0  0
  163.4710  205.0350  145.2410 N   0  0  0  0  0  1  0  0  0  0  0  0
  162.2380  205.4250  145.8990 C   0  0  1  0  0  3  0  0  0  0  0  0
  160.4870  203.3920  144.8850 O   0  0  0  0  0  1  0  0  0  0  0  0
  159.6160  205.8310  145.2520 O   0  0  0  0  0  1  0  0  0  0  0  0
  161.2190  205.4680  143.2210 O   0  0  0  0  0  0  0  0  0  0  0  0
  160.8310  205.0460  144.8120 P   0  0  0  0  0  0  0  0  0  0  0  0
  161.5470  201.2840  147.8900 O   0  0  0  0  0  0  0  0  0  0  0  0
  160.7550  202.2130  148.1950 C   0  0  0  0  0  3  0  0  0  0  0  0
  161.2070  205.0740  153.2010 C   0  0  0  0  0  2  0  0  0  0  0  0
  161.8910  206.3020  152.9920 O   0  0  0  0  0  0  0  0  0  0  0  0
  161.0370  208.4130  152.2030 C   0  0  0  0  0  3  0  0  0  0  0  0
  159.5350  211.3790  154.0060 C   0  0  0  0  0  1  0  0  0  0  0  0
  160.4590  209.6620  152.4440 C   0  0  0  0  0  3  0  0  0  0  0  0
  160.4210  209.1890  154.8170 C   0  0  0  0  0  3  0  0  0  0  0  0
  161.0000  207.9390  154.5770 C   0  0  0  0  0  3  0  0  0  0  0  0
  161.3110  207.5440  153.2650 C   0  0  0  0  0  0  0  0  0  0  0  0
  160.1510  210.0490  153.7500 C   0  0  0  0  0  0  0  0  0  0  0  0
  2  1  1  0  0  0  0
  2  5  1  0  0  0  0
  3  6  1  0  0  0  0
  3  2  2  0  0  0  0
  4  7  1  0  0  0  0
  5  7  2  0  0  0  0
  6  4  2  0  0  0  0
  7 19  1  0  0  0  0
  8  6  1  0  0  0  0
  9  8  1  0  0  0  0
 10  8  2  0  0  0  0
 12 11  1  6  0  0  0
 12  9  1  0  0  0  0
 15 16  2  0  0  0  0
 16 13  1  0  0  0  0
 16 14  1  0  0  0  0
 16 12  1  0  0  0  0
 17 18  2  0  0  0  0
 18  3  1  0  0  0  0
 20 19  1  0  0  0  0
 20 26  1  0  0  0  0
 21 23  2  0  0  0  0
 21 26  1  0  0  0  0
 23 27  1  0  0  0  0
 25 24  1  0  0  0  0
 26 25  2  0  0  0  0
 27 22  1  0  0  0  0
 27 24  2  0  0  0  0
M  END
>  <MODEL>
5

>  <REMARK>
 VINA RESULT:      -7.5      4.246      8.611
  Name = 
  7 active torsions:
  status: ('A' for Active; 'I' for Inactive)
    1  A    between atoms: C_1  and  C_22
    2  A    between atoms: N_5  and  C_24
    3  A    between atoms: C_6  and  C_26
    4  A    between atoms: C_6  and  O_27
    5  A    between atoms: C_14  and  C_21
    6  A    between atoms: P_20  and  C_24
    7  A    between atoms: C_23  and  O_27
                            x       y       z     vdW  Elec       q    Type
                         _______ _______ _______ _____ _____    ______ ____

>  <TORSDO>
F 7

$$$$
=
 OpenBabel11072412243D

 27 28  0  0  1  0  0  0  0  0999 V2000
  162.1450  209.1020  149.9290 O   0  0  0  0  0  1  0  0  0  0  0  0
  161.8290  208.3740  151.0700 C   0  0  0  0  0  0  0  0  0  0  0  0
  161.4840  209.0170  152.2840 C   0  0  0  0  0  0  0  0  0  0  0  0
  161.2050  206.8230  153.3040 C   0  0  0  0  0  3  0  0  0  0  0  0
  161.8600  206.9820  150.9920 C   0  0  0  0  0  3  0  0  0  0  0  0
  161.1560  208.2200  153.4180 C   0  0  0  0  0  0  0  0  0  0  0  0
  161.5610  206.2070  152.1080 C   0  0  0  0  0  0  0  0  0  0  0  0
  160.7540  208.7770  154.7380 C   0  0  0  0  0  0  0  0  0  0  0  0
  159.8530  209.8840  154.8360 N   0  0  0  0  0  2  0  0  0  0  0  0
  161.1970  208.2480  155.7940 O   0  0  0  0  0  0  0  0  0  0  0  0
  160.4460  211.0860  156.7910 N   0  0  0  0  0  1  0  0  0  0  0  0
  159.3670  210.3980  156.1080 C   0  0  1  0  0  3  0  0  0  0  0  0
  156.6080  210.7010  155.3860 O   0  0  0  0  0  1  0  0  0  0  0  0
  157.7210  212.3440  157.0890 O   0  0  0  0  0  1  0  0  0  0  0  0
  158.4110  212.6300  154.5850 O   0  0  0  0  0  0  0  0  0  0  0  0
  157.9960  211.5590  155.8270 P   0  0  0  0  0  0  0  0  0  0  0  0
  160.5570  211.2120  151.9410 O   0  0  0  0  0  0  0  0  0  0  0  0
  161.4920  210.4940  152.3830 C   0  0  0  0  0  3  0  0  0  0  0  0
  161.5740  204.7230  152.0100 C   0  0  0  0  0  2  0  0  0  0  0  0
  160.5680  204.2950  151.1010 O   0  0  0  0  0  0  0  0  0  0  0  0
  160.8310  201.9660  150.5430 C   0  0  0  0  0  3  0  0  0  0  0  0
  161.4740  200.1980  147.2620 C   0  0  0  0  0  1  0  0  0  0  0  0
  161.0530  200.9530  149.6050 C   0  0  0  0  0  3  0  0  0  0  0  0
  161.1990  202.6100  147.8470 C   0  0  0  0  0  3  0  0  0  0  0  0
  160.9780  203.6240  148.7850 C   0  0  0  0  0  3  0  0  0  0  0  0
  160.7920  203.3050  150.1400 C   0  0  0  0  0  0  0  0  0  0  0  0
  161.2370  201.2760  148.2580 C   0  0  0  0  0  0  0  0  0  0  0  0
  1  2  1  0  0  0  0
  2  3  1  0  0  0  0
  3 18  1  0  0  0  0
  3  6  2  0  0  0  0
  4  6  1  0  0  0  0
  5  2  2  0  0  0  0
  5  7  1  0  0  0  0
  6  8  1  0  0  0  0
  7  4  2  0  0  0  0
  8  9  1  0  0  0  0
  8 10  2  0  0  0  0
  9 12  1  0  0  0  0
 12 11  1  6  0  0  0
 13 16  1  0  0  0  0
 15 16  2  0  0  0  0
 16 12  1  0  0  0  0
 16 14  1  0  0  0  0
 17 18  2  0  0  0  0
 19  7  1  0  0  0  0
 20 19  1  0  0  0  0
 22 27  1  0  0  0  0
 23 21  2  0  0  0  0
 24 27  2  0  0  0  0
 24 25  1  0  0  0  0
 25 26  2  0  0  0  0
 26 21  1  0  0  0  0
 26 20  1  0  0  0  0
 27 23  1  0  0  0  0
M  END
>  <MODEL>
6

>  <REMARK>
 VINA RESULT:      -7.4      2.073      3.465
  Name = 
  7 active torsions:
  status: ('A' for Active; 'I' for Inactive)
    1  A    between atoms: C_1  and  C_22
    2  A    between atoms: N_5  and  C_24
    3  A    between atoms: C_6  and  C_26
    4  A    between atoms: C_6  and  O_27
    5  A    between atoms: C_14  and  C_21
    6  A    between atoms: P_20  and  C_24
    7  A    between atoms: C_23  and  O_27
                            x       y       z     vdW  Elec       q    Type
                         _______ _______ _______ _____ _____    ______ ____

>  <TORSDO>
F 7

$$$$
=
 OpenBabel11072412243D

 27 28  0  0  1  0  0  0  0  0999 V2000
  160.3680  206.6100  156.2620 O   0  0  0  0  0  1  0  0  0  0  0  0
  160.5480  207.3000  155.0690 C   0  0  0  0  0  0  0  0  0  0  0  0
  160.2560  208.6820  154.9630 C   0  0  0  0  0  0  0  0  0  0  0  0
  160.9500  208.5950  152.6290 C   0  0  0  0  0  3  0  0  0  0  0  0
  161.0280  206.5930  153.9660 C   0  0  0  0  0  3  0  0  0  0  0  0
  160.4730  209.3400  153.7190 C   0  0  0  0  0  0  0  0  0  0  0  0
  161.2180  207.2340  152.7460 C   0  0  0  0  0  0  0  0  0  0  0  0
  160.2290  210.7900  153.4900 C   0  0  0  0  0  0  0  0  0  0  0  0
  159.0850  211.2470  152.7620 N   0  0  0  0  0  2  0  0  0  0  0  0
  161.0330  211.6360  153.9690 O   0  0  0  0  0  0  0  0  0  0  0  0
  158.2060  212.8690  151.2740 N   0  0  0  0  0  1  0  0  0  0  0  0
  158.7660  212.6570  152.5950 C   0  0  1  0  0  3  0  0  0  0  0  0
  156.5630  214.3860  153.2170 O   0  0  0  0  0  0  0  0  0  0  0  0
  156.7050  211.9920  154.2610 O   0  0  0  0  0  1  0  0  0  0  0  0
  158.3710  213.7680  155.2080 O   0  0  0  0  0  1  0  0  0  0  0  0
  157.5560  213.1730  153.8510 P   0  0  0  0  0  0  0  0  0  0  0  0
  160.4260  209.8650  157.0520 O   0  0  0  0  0  0  0  0  0  0  0  0
  159.7050  209.4250  156.1180 C   0  0  0  0  0  3  0  0  0  0  0  0
  161.7510  206.4780  151.5820 C   0  0  0  0  0  2  0  0  0  0  0  0
  160.7000  206.2090  150.6640 O   0  0  0  0  0  0  0  0  0  0  0  0
  161.0500  204.1930  149.3930 C   0  0  0  0  0  3  0  0  0  0  0  0
  161.5810  203.5780  145.6990 C   0  0  0  0  0  1  0  0  0  0  0  0
  161.2670  203.5390  148.1770 C   0  0  0  0  0  3  0  0  0  0  0  0
  161.2160  205.6640  147.0220 C   0  0  0  0  0  3  0  0  0  0  0  0
  161.0000  206.3200  148.2380 C   0  0  0  0  0  3  0  0  0  0  0  0
  160.9150  205.5850  149.4320 C   0  0  0  0  0  0  0  0  0  0  0  0
  161.3500  204.2750  146.9920 C   0  0  0  0  0  0  0  0  0  0  0  0
  2  1  1  0  0  0  0
  3  2  1  0  0  0  0
  3 18  1  0  0  0  0
  4  7  2  0  0  0  0
  4  6  1  0  0  0  0
  5  2  2  0  0  0  0
  6  3  2  0  0  0  0
  7  5  1  0  0  0  0
  8  6  1  0  0  0  0
  8 10  2  0  0  0  0
  9  8  1  0  0  0  0
 12 11  1  6  0  0  0
 12  9  1  0  0  0  0
 12 16  1  0  0  0  0
 13 16  2  0  0  0  0
 16 14  1  0  0  0  0
 16 15  1  0  0  0  0
 18 17  2  0  0  0  0
 19  7  1  0  0  0  0
 20 19  1  0  0  0  0
 21 26  1  0  0  0  0
 22 27  1  0  0  0  0
 23 21  2  0  0  0  0
 24 25  1  0  0  0  0
 25 26  2  0  0  0  0
 26 20  1  0  0  0  0
 27 24  2  0  0  0  0
 27 23  1  0  0  0  0
M  END
>  <MODEL>
7

>  <REMARK>
 VINA RESULT:      -7.2      2.001      3.278
  Name = 
  7 active torsions:
  status: ('A' for Active; 'I' for Inactive)
    1  A    between atoms: C_1  and  C_22
    2  A    between atoms: N_5  and  C_24
    3  A    between atoms: C_6  and  C_26
    4  A    between atoms: C_6  and  O_27
    5  A    between atoms: C_14  and  C_21
    6  A    between atoms: P_20  and  C_24
    7  A    between atoms: C_23  and  O_27
                            x       y       z     vdW  Elec       q    Type
                         _______ _______ _______ _____ _____    ______ ____

>  <TORSDO>
F 7

$$$$
=
 OpenBabel11072412243D

 27 28  0  0  1  0  0  0  0  0999 V2000
  160.9250  208.8640  156.4480 O   0  0  0  0  0  1  0  0  0  0  0  0
  160.8280  208.9520  155.0640 C   0  0  0  0  0  0  0  0  0  0  0  0
  160.2610  210.0880  154.4340 C   0  0  0  0  0  0  0  0  0  0  0  0
  160.6830  209.0360  152.2780 C   0  0  0  0  0  3  0  0  0  0  0  0
  161.3050  207.8860  154.3010 C   0  0  0  0  0  3  0  0  0  0  0  0
  160.2000  210.1300  153.0120 C   0  0  0  0  0  0  0  0  0  0  0  0
  161.2220  207.9200  152.9130 C   0  0  0  0  0  0  0  0  0  0  0  0
  159.6530  211.2760  152.2360 C   0  0  0  0  0  0  0  0  0  0  0  0
  160.4640  211.9990  151.3050 N   0  0  0  0  0  2  0  0  0  0  0  0
  158.4440  211.6030  152.3850 O   0  0  0  0  0  0  0  0  0  0  0  0
  160.1210  214.3390  151.1370 N   0  0  0  0  0  1  0  0  0  0  0  0
  159.9410  213.0660  150.4650 C   0  0  1  0  0  3  0  0  0  0  0  0
  161.7620  211.6960  148.7220 O   0  0  0  0  0  1  0  0  0  0  0  0
  159.8340  213.1640  147.7370 O   0  0  0  0  0  0  0  0  0  0  0  0
  161.8330  214.4530  148.8180 O   0  0  0  0  0  1  0  0  0  0  0  0
  160.8260  213.0960  148.8760 P   0  0  0  0  0  0  0  0  0  0  0  0
  160.3580  212.2600  155.4660 O   0  0  0  0  0  0  0  0  0  0  0  0
  159.7150  211.2020  155.2410 C   0  0  0  0  0  3  0  0  0  0  0  0
  161.7540  206.7900  152.1060 C   0  0  0  0  0  2  0  0  0  0  0  0
  160.8340  206.4670  151.0720 O   0  0  0  0  0  0  0  0  0  0  0  0
  161.1440  205.2960  148.9890 C   0  0  0  0  0  3  0  0  0  0  0  0
  161.0670  201.6190  148.1060 C   0  0  0  0  0  1  0  0  0  0  0  0
  161.2030  204.1090  148.2540 C   0  0  0  0  0  3  0  0  0  0  0  0
  160.7470  202.8390  150.2620 C   0  0  0  0  0  3  0  0  0  0  0  0
  160.6880  204.0250  150.9990 C   0  0  0  0  0  3  0  0  0  0  0  0
  160.8870  205.2630  150.3640 C   0  0  0  0  0  0  0  0  0  0  0  0
  161.0050  202.8810  148.8900 C   0  0  0  0  0  0  0  0  0  0  0  0
  2  1  1  0  0  0  0
  3  2  1  0  0  0  0
  3 18  1  0  0  0  0
  4  7  2  0  0  0  0
  4  6  1  0  0  0  0
  5  2  2  0  0  0  0
  6  3  2  0  0  0  0
  7  5  1  0  0  0  0
  8 10  2  0  0  0  0
  8  6  1  0  0  0  0
  9  8  1  0  0  0  0
 12 11  1  1  0  0  0
 12  9  1  0  0  0  0
 13 16  1  0  0  0  0
 14 16  2  0  0  0  0
 15 16  1  0  0  0  0
 16 12  1  0  0  0  0
 18 17  2  0  0  0  0
 19  7  1  0  0  0  0
 20 19  1  0  0  0  0
 21 26  1  0  0  0  0
 22 27  1  0  0  0  0
 23 27  1  0  0  0  0
 23 21  2  0  0  0  0
 24 25  1  0  0  0  0
 26 25  2  0  0  0  0
 26 20  1  0  0  0  0
 27 24  2  0  0  0  0
M  END
>  <MODEL>
8

>  <REMARK>
 VINA RESULT:      -7.1      2.768      4.471
  Name = 
  7 active torsions:
  status: ('A' for Active; 'I' for Inactive)
    1  A    between atoms: C_1  and  C_22
    2  A    between atoms: N_5  and  C_24
    3  A    between atoms: C_6  and  C_26
    4  A    between atoms: C_6  and  O_27
    5  A    between atoms: C_14  and  C_21
    6  A    between atoms: P_20  and  C_24
    7  A    between atoms: C_23  and  O_27
                            x       y       z     vdW  Elec       q    Type
                         _______ _______ _______ _____ _____    ______ ____

>  <TORSDO>
F 7

$$$$
=
 OpenBabel11072412243D

 27 28  0  0  1  0  0  0  0  0999 V2000
  161.1800  205.5100  153.6070 O   0  0  0  0  0  1  0  0  0  0  0  0
  161.2630  206.7560  152.9970 C   0  0  0  0  0  0  0  0  0  0  0  0
  161.0160  207.9490  153.7190 C   0  0  0  0  0  0  0  0  0  0  0  0
  161.4590  209.2100  151.6820 C   0  0  0  0  0  3  0  0  0  0  0  0
  161.5960  206.8060  151.6430 C   0  0  0  0  0  3  0  0  0  0  0  0
  161.1280  209.2000  153.0460 C   0  0  0  0  0  0  0  0  0  0  0  0
  161.6830  208.0270  150.9830 C   0  0  0  0  0  0  0  0  0  0  0  0
  160.9200  210.5190  153.7010 C   0  0  0  0  0  0  0  0  0  0  0  0
  159.7510  211.3020  153.4420 N   0  0  0  0  0  2  0  0  0  0  0  0
  161.7800  210.9470  154.5200 O   0  0  0  0  0  0  0  0  0  0  0  0
  158.8960  213.4990  153.1920 N   0  0  0  0  0  1  0  0  0  0  0  0
  159.4700  212.5540  154.1310 C   0  0  1  0  0  3  0  0  0  0  0  0
  158.9590  212.8210  156.9410 O   0  0  0  0  0  1  0  0  0  0  0  0
  157.0030  213.0020  155.2140 O   0  0  0  0  0  0  0  0  0  0  0  0
  157.9760  210.6100  155.6150 O   0  0  0  0  0  1  0  0  0  0  0  0
  158.2950  212.2660  155.4880 P   0  0  0  0  0  0  0  0  0  0  0  0
  159.8060  207.0510  155.5960 O   0  0  0  0  0  0  0  0  0  0  0  0
  160.6200  207.8990  155.1440 C   0  0  0  0  0  3  0  0  0  0  0  0
  162.0610  208.0730  149.5460 C   0  0  0  0  0  2  0  0  0  0  0  0
  160.9930  207.5710  148.7540 O   0  0  0  0  0  0  0  0  0  0  0  0
  160.9760  206.4290  146.6330 C   0  0  0  0  0  3  0  0  0  0  0  0
  161.3580  202.7810  145.7090 C   0  0  0  0  0  1  0  0  0  0  0  0
  161.0650  205.2560  145.8780 C   0  0  0  0  0  3  0  0  0  0  0  0
  161.3760  203.9720  147.9050 C   0  0  0  0  0  3  0  0  0  0  0  0
  161.2870  205.1440  148.6610 C   0  0  0  0  0  3  0  0  0  0  0  0
  161.0860  206.3820  148.0270 C   0  0  0  0  0  0  0  0  0  0  0  0
  161.2640  204.0280  146.5140 C   0  0  0  0  0  0  0  0  0  0  0  0
  2  1  1  0  0  0  0
  2  3  1  0  0  0  0
  3 18  1  0  0  0  0
  4  6  1  0  0  0  0
  5  2  2  0  0  0  0
  6  8  1  0  0  0  0
  6  3  2  0  0  0  0
  7  5  1  0  0  0  0
  7  4  2  0  0  0  0
  8 10  2  0  0  0  0
  9  8  1  0  0  0  0
  9 12  1  0  0  0  0
 12 11  1  6  0  0  0
 12 16  1  0  0  0  0
 14 16  2  0  0  0  0
 16 15  1  0  0  0  0
 16 13  1  0  0  0  0
 18 17  2  0  0  0  0
 19  7  1  0  0  0  0
 20 19  1  0  0  0  0
 21 26  1  0  0  0  0
 22 27  1  0  0  0  0
 23 27  1  0  0  0  0
 23 21  2  0  0  0  0
 24 25  1  0  0  0  0
 26 25  2  0  0  0  0
 26 20  1  0  0  0  0
 27 24  2  0  0  0  0
M  END
>  <MODEL>
9

>  <REMARK>
 VINA RESULT:      -7.0      1.477      2.227
  Name = 
  7 active torsions:
  status: ('A' for Active; 'I' for Inactive)
    1  A    between atoms: C_1  and  C_22
    2  A    between atoms: N_5  and  C_24
    3  A    between atoms: C_6  and  C_26
    4  A    between atoms: C_6  and  O_27
    5  A    between atoms: C_14  and  C_21
    6  A    between atoms: P_20  and  C_24
    7  A    between atoms: C_23  and  O_27
                            x       y       z     vdW  Elec       q    Type
                         _______ _______ _______ _____ _____    ______ ____

>  <TORSDO>
F 7

$$$$
