=
 OpenBabel11072410193D

 33 38  0  0  1  0  0  0  0  0999 V2000
  161.3360  207.7710  152.9950 C   0  0  0  0  0  0  0  0  0  0  0  0
  161.3580  206.6970  150.8130 C   0  0  0  0  0  0  0  0  0  0  0  0
  161.6840  209.1210  151.0280 C   0  0  0  0  0  0  0  0  0  0  0  0
  161.8970  210.3690  150.4410 C   0  0  0  0  0  3  0  0  0  0  0  0
  161.2160  207.5440  154.4620 C   0  0  2  0  0  3  0  0  0  0  0  0
  161.6710  208.1220  148.8250 C   0  0  0  0  0  3  0  0  0  0  0  0
  161.5690  209.0200  152.4140 C   0  0  0  0  0  3  0  0  0  0  0  0
  160.7070  206.1150  154.6520 C   0  0  0  0  0  2  0  0  0  0  0  0
  161.2550  206.6310  152.2190 C   0  0  0  0  0  0  0  0  0  0  0  0
  161.9930  210.4640  149.0530 C   0  0  0  0  0  3  0  0  0  0  0  0
  161.5740  207.9650  150.2160 C   0  0  0  0  0  0  0  0  0  0  0  0
  161.0940  205.1250  153.1650 S   0  0  0  0  0  0  0  0  0  0  0  0
  161.8770  209.3510  148.2810 N   0  0  0  0  0  0  0  0  0  0  0  0
  162.0950  211.3170  156.7510 C   0  0  0  0  0  2  0  0  0  0  0  0
  158.8860  211.5120  154.9970 C   0  0  1  0  0  3  0  0  0  0  0  0
  159.0840  208.1920  155.3320 O   0  0  0  0  0  0  0  0  0  0  0  0
  157.0190  212.0630  156.4200 F   0  0  0  0  0  0  0  0  0  0  0  0
  159.8940  210.8950  155.9650 C   0  0  1  0  0  3  0  0  0  0  0  0
  158.4360  214.4510  157.2610 O   0  0  0  0  0  0  0  0  0  0  0  0
  162.1250  210.0530  155.8920 C   0  0  0  0  0  2  0  0  0  0  0  0
  158.0160  210.5520  154.4800 O   0  0  0  0  0  1  0  0  0  0  0  0
  158.9270  213.4270  156.7200 C   0  0  0  0  0  0  0  0  0  0  0  0
  158.0880  212.6200  155.7380 C   0  0  1  0  0  3  0  0  0  0  0  0
  160.7470  209.8330  155.4570 N   0  0  0  0  0  0  0  0  0  0  0  0
  160.2470  212.9950  157.0880 N   0  0  0  0  0  2  0  0  0  0  0  0
  160.2810  208.5240  155.1070 C   0  0  0  0  0  0  0  0  0  0  0  0
  160.8630  212.0030  156.2290 C   0  0  1  0  0  3  0  0  0  0  0  0
  161.5500  205.5010  148.6240 C   0  0  0  0  0  3  0  0  0  0  0  0
  161.4540  204.3410  147.8510 C   0  0  0  0  0  3  0  0  0  0  0  0
  161.2560  205.4660  149.9950 C   0  0  0  0  0  0  0  0  0  0  0  0
  161.0630  203.1370  148.4450 C   0  0  0  0  0  3  0  0  0  0  0  0
  160.7690  203.0940  149.8100 C   0  0  0  0  0  3  0  0  0  0  0  0
  160.8650  204.2540  150.5830 C   0  0  0  0  0  3  0  0  0  0  0  0
  1  5  1  0  0  0  0
  2  9  1  0  0  0  0
  3  7  2  0  0  0  0
  4  3  1  0  0  0  0
  5  8  1  0  0  0  0
  5 26  1  6  0  0  0
  6 11  1  0  0  0  0
  7  1  1  0  0  0  0
  9  1  2  0  0  0  0
  9 12  1  0  0  0  0
 10  4  2  0  0  0  0
 11  2  2  0  0  0  0
 11  3  1  0  0  0  0
 12  8  1  0  0  0  0
 13  6  2  0  0  0  0
 13 10  1  0  0  0  0
 15 21  1  1  0  0  0
 15 23  1  0  0  0  0
 15 18  1  0  0  0  0
 18 24  1  6  0  0  0
 18 27  1  0  0  0  0
 20 14  1  0  0  0  0
 22 25  1  0  0  0  0
 22 19  2  0  0  0  0
 23 17  1  1  0  0  0
 23 22  1  0  0  0  0
 24 20  1  0  0  0  0
 26 16  2  0  0  0  0
 26 24  1  0  0  0  0
 27 14  1  1  0  0  0
 27 25  1  0  0  0  0
 28 30  1  0  0  0  0
 29 31  1  0  0  0  0
 29 28  2  0  0  0  0
 30 33  2  0  0  0  0
 30  2  1  0  0  0  0
 31 32  2  0  0  0  0
 32 33  1  0  0  0  0
M  END
>  <MODEL>
1

>  <REMARK>
 VINA RESULT:      -8.7      0.000      0.000
  Name = 
  2 active torsions:
  status: ('A' for Active; 'I' for Inactive)
    1  A    between atoms: C_4  and  C_18
    2  A    between atoms: C_11  and  C_30
                            x       y       z     vdW  Elec       q    Type
                         _______ _______ _______ _____ _____    ______ ____

>  <TORSDO>
F 2

$$$$
=
 OpenBabel11072410193D

 33 38  0  0  1  0  0  0  0  0999 V2000
  161.2780  208.0220  152.1140 C   0  0  0  0  0  0  0  0  0  0  0  0
  160.4360  209.7270  153.6300 C   0  0  0  0  0  0  0  0  0  0  0  0
  160.7520  207.4130  154.3870 C   0  0  0  0  0  0  0  0  0  0  0  0
  160.6720  206.4480  155.3910 C   0  0  0  0  0  3  0  0  0  0  0  0
  161.7740  207.7570  150.7350 C   0  0  2  0  0  3  0  0  0  0  0  0
  159.8680  209.0500  155.9330 C   0  0  0  0  0  3  0  0  0  0  0  0
  161.2180  207.0560  153.1210 C   0  0  0  0  0  3  0  0  0  0  0  0
  161.4280  208.9850  149.8930 C   0  0  0  0  0  2  0  0  0  0  0  0
  160.9180  209.3320  152.3650 C   0  0  0  0  0  0  0  0  0  0  0  0
  160.1900  206.8080  156.6490 C   0  0  0  0  0  3  0  0  0  0  0  0
  160.3520  208.7460  154.6510 C   0  0  0  0  0  0  0  0  0  0  0  0
  161.2010  210.4330  150.9870 S   0  0  0  0  0  0  0  0  0  0  0  0
  159.8000  208.0880  156.8910 N   0  0  0  0  0  0  0  0  0  0  0  0
  162.0850  206.0740  146.5740 C   0  0  0  0  0  2  0  0  0  0  0  0
  161.6130  203.4370  149.0720 C   0  0  1  0  0  3  0  0  0  0  0  0
  160.1860  205.9690  150.7250 O   0  0  0  0  0  0  0  0  0  0  0  0
  159.7370  201.9880  148.6310 F   0  0  0  0  0  0  0  0  0  0  0  0
  161.2420  204.7240  148.3370 C   0  0  1  0  0  3  0  0  0  0  0  0
  160.8630  201.4180  146.0180 O   0  0  0  0  0  0  0  0  0  0  0  0
  162.2320  206.8470  147.8850 C   0  0  0  0  0  2  0  0  0  0  0  0
  161.1190  203.4300  150.3770 O   0  0  0  0  0  1  0  0  0  0  0  0
  161.1340  202.3930  146.7660 C   0  0  0  0  0  0  0  0  0  0  0  0
  161.0550  202.2240  148.2780 C   0  0  1  0  0  3  0  0  0  0  0  0
  161.6790  205.9800  148.9240 N   0  0  0  0  0  0  0  0  0  0  0  0
  161.4470  203.6680  146.1840 N   0  0  0  0  0  2  0  0  0  0  0  0
  161.1580  206.5250  150.1430 C   0  0  0  0  0  0  0  0  0  0  0  0
  162.0320  204.6550  147.0690 C   0  0  1  0  0  3  0  0  0  0  0  0
  159.2910  211.8360  152.9250 C   0  0  0  0  0  3  0  0  0  0  0  0
  158.9180  213.1640  153.1580 C   0  0  0  0  0  3  0  0  0  0  0  0
  160.0420  211.1330  153.8780 C   0  0  0  0  0  0  0  0  0  0  0  0
  159.2940  213.7960  154.3470 C   0  0  0  0  0  3  0  0  0  0  0  0
  160.0420  213.1010  155.3010 C   0  0  0  0  0  3  0  0  0  0  0  0
  160.4150  211.7750  155.0680 C   0  0  0  0  0  3  0  0  0  0  0  0
  1  9  2  0  0  0  0
  1  7  1  0  0  0  0
  2 30  1  0  0  0  0
  2 11  2  0  0  0  0
  3 11  1  0  0  0  0
  3  4  1  0  0  0  0
  4 10  2  0  0  0  0
  5 26  1  6  0  0  0
  5  1  1  0  0  0  0
  6 13  2  0  0  0  0
  7  3  2  0  0  0  0
  8  5  1  0  0  0  0
  8 12  1  0  0  0  0
  9  2  1  0  0  0  0
 10 13  1  0  0  0  0
 11  6  1  0  0  0  0
 12  9  1  0  0  0  0
 14 20  1  0  0  0  0
 15 21  1  1  0  0  0
 18 24  1  1  0  0  0
 18 15  1  0  0  0  0
 19 22  2  0  0  0  0
 20 24  1  0  0  0  0
 22 23  1  0  0  0  0
 23 17  1  6  0  0  0
 23 15  1  0  0  0  0
 24 26  1  0  0  0  0
 25 22  1  0  0  0  0
 25 27  1  0  0  0  0
 26 16  2  0  0  0  0
 27 14  1  6  0  0  0
 27 18  1  0  0  0  0
 28 29  2  0  0  0  0
 28 30  1  0  0  0  0
 29 31  1  0  0  0  0
 30 33  2  0  0  0  0
 31 32  2  0  0  0  0
 33 32  1  0  0  0  0
M  END
>  <MODEL>
2

>  <REMARK>
 VINA RESULT:      -8.3      3.980      9.213
  Name = 
  2 active torsions:
  status: ('A' for Active; 'I' for Inactive)
    1  A    between atoms: C_4  and  C_18
    2  A    between atoms: C_11  and  C_30
                            x       y       z     vdW  Elec       q    Type
                         _______ _______ _______ _____ _____    ______ ____

>  <TORSDO>
F 2

$$$$
=
 OpenBabel11072410193D

 33 38  0  0  1  0  0  0  0  0999 V2000
  161.4080  207.3660  152.1170 C   0  0  0  0  0  0  0  0  0  0  0  0
  161.3250  205.4280  150.6490 C   0  0  0  0  0  0  0  0  0  0  0  0
  161.7030  207.6790  149.7440 C   0  0  0  0  0  0  0  0  0  0  0  0
  161.9160  208.5240  148.6550 C   0  0  0  0  0  3  0  0  0  0  0  0
  161.3410  207.8250  153.5310 C   0  0  2  0  0  3  0  0  0  0  0  0
  161.5860  205.8010  148.2250 C   0  0  0  0  0  3  0  0  0  0  0  0
  161.6410  208.2140  151.0310 C   0  0  0  0  0  3  0  0  0  0  0  0
  160.8140  206.6510  154.3570 C   0  0  0  0  0  2  0  0  0  0  0  0
  161.2760  206.0030  151.9370 C   0  0  0  0  0  0  0  0  0  0  0  0
  161.9600  207.9840  147.3690 C   0  0  0  0  0  3  0  0  0  0  0  0
  161.5400  206.2870  149.5410 C   0  0  0  0  0  0  0  0  0  0  0  0
  161.1240  205.0870  153.4620 S   0  0  0  0  0  0  0  0  0  0  0  0
  161.7940  206.6480  147.1820 N   0  0  0  0  0  0  0  0  0  0  0  0
  160.0050  209.9620  157.2590 C   0  0  0  0  0  2  0  0  0  0  0  0
  160.2260  212.2370  154.3980 C   0  0  1  0  0  3  0  0  0  0  0  0
  159.7060  209.3810  152.7400 O   0  0  0  0  0  0  0  0  0  0  0  0
  158.1990  213.4650  153.9570 F   0  0  0  0  0  0  0  0  0  0  0  0
  159.7310  210.9960  155.1390 C   0  0  1  0  0  3  0  0  0  0  0  0
  158.2680  214.4490  156.6860 O   0  0  0  0  0  0  0  0  0  0  0  0
  160.6740  209.0810  156.2040 C   0  0  0  0  0  2  0  0  0  0  0  0
  160.2310  212.0430  153.0160 O   0  0  0  0  0  1  0  0  0  0  0  0
  158.8710  213.4450  156.2250 C   0  0  0  0  0  0  0  0  0  0  0  0
  159.3200  213.4430  154.7690 C   0  0  1  0  0  3  0  0  0  0  0  0
  160.4550  209.7550  154.9250 N   0  0  0  0  0  0  0  0  0  0  0  0
  159.0650  212.2900  157.0560 N   0  0  0  0  0  2  0  0  0  0  0  0
  160.4500  209.0210  153.6930 C   0  0  0  0  0  0  0  0  0  0  0  0
  160.0100  211.3020  156.5760 C   0  0  1  0  0  3  0  0  0  0  0  0
  161.5780  203.0840  151.4830 C   0  0  0  0  0  3  0  0  0  0  0  0
  161.4300  201.7040  151.3180 C   0  0  0  0  0  3  0  0  0  0  0  0
  161.1680  203.9660  150.4730 C   0  0  0  0  0  0  0  0  0  0  0  0
  160.8690  201.1970  150.1420 C   0  0  0  0  0  3  0  0  0  0  0  0
  160.4560  202.0710  149.1320 C   0  0  0  0  0  3  0  0  0  0  0  0
  160.6050  203.4500  149.2960 C   0  0  0  0  0  3  0  0  0  0  0  0
  1  5  1  0  0  0  0
  2  9  2  0  0  0  0
  3  7  1  0  0  0  0
  4  3  2  0  0  0  0
  5 26  1  6  0  0  0
  5  8  1  0  0  0  0
  6 11  2  0  0  0  0
  7  1  2  0  0  0  0
  9  1  1  0  0  0  0
  9 12  1  0  0  0  0
 10  4  1  0  0  0  0
 11  3  1  0  0  0  0
 11  2  1  0  0  0  0
 12  8  1  0  0  0  0
 13 10  2  0  0  0  0
 13  6  1  0  0  0  0
 15 21  1  6  0  0  0
 15 23  1  0  0  0  0
 15 18  1  0  0  0  0
 16 26  2  0  0  0  0
 18 24  1  6  0  0  0
 18 27  1  0  0  0  0
 20 14  1  0  0  0  0
 22 19  2  0  0  0  0
 22 25  1  0  0  0  0
 23 17  1  6  0  0  0
 23 22  1  0  0  0  0
 24 20  1  0  0  0  0
 26 24  1  0  0  0  0
 27 25  1  0  0  0  0
 27 14  1  1  0  0  0
 29 28  1  0  0  0  0
 30  2  1  0  0  0  0
 30 28  2  0  0  0  0
 31 29  2  0  0  0  0
 32 33  2  0  0  0  0
 32 31  1  0  0  0  0
 33 30  1  0  0  0  0
M  END
>  <MODEL>
3

>  <REMARK>
 VINA RESULT:      -8.2      1.473      2.059
  Name = 
  2 active torsions:
  status: ('A' for Active; 'I' for Inactive)
    1  A    between atoms: C_4  and  C_18
    2  A    between atoms: C_11  and  C_30
                            x       y       z     vdW  Elec       q    Type
                         _______ _______ _______ _____ _____    ______ ____

>  <TORSDO>
F 2

$$$$
=
 OpenBabel11072410193D

 33 38  0  0  1  0  0  0  0  0999 V2000
  161.4080  207.9310  151.1580 C   0  0  0  0  0  0  0  0  0  0  0  0
  160.6280  209.8010  152.5040 C   0  0  0  0  0  0  0  0  0  0  0  0
  160.8640  207.5590  153.4780 C   0  0  0  0  0  0  0  0  0  0  0  0
  160.7510  206.6970  154.5690 C   0  0  0  0  0  3  0  0  0  0  0  0
  161.8930  207.5190  149.8130 C   0  0  2  0  0  3  0  0  0  0  0  0
  160.0400  209.3660  154.8590 C   0  0  0  0  0  3  0  0  0  0  0  0
  161.3150  207.0680  152.2530 C   0  0  0  0  0  3  0  0  0  0  0  0
  161.5890  208.6730  148.8560 C   0  0  0  0  0  2  0  0  0  0  0  0
  161.0960  209.2710  151.2830 C   0  0  0  0  0  0  0  0  0  0  0  0
  160.2830  207.1920  155.7860 C   0  0  0  0  0  3  0  0  0  0  0  0
  160.5120  208.9250  153.6140 C   0  0  0  0  0  0  0  0  0  0  0  0
  161.4150  210.2250  149.8070 S   0  0  0  0  0  0  0  0  0  0  0  0
  159.9390  208.5020  155.9050 N   0  0  0  0  0  0  0  0  0  0  0  0
  162.0300  205.5120  145.7880 C   0  0  0  0  0  2  0  0  0  0  0  0
  161.5910  203.0880  148.4980 C   0  0  1  0  0  3  0  0  0  0  0  0
  160.2710  205.7710  149.9930 O   0  0  0  0  0  0  0  0  0  0  0  0
  159.6730  201.6510  148.2320 F   0  0  0  0  0  0  0  0  0  0  0  0
  161.2200  204.3220  147.6770 C   0  0  1  0  0  3  0  0  0  0  0  0
  160.6980  200.8550  145.6370 O   0  0  0  0  0  0  0  0  0  0  0  0
  162.2360  206.3810  147.0280 C   0  0  0  0  0  2  0  0  0  0  0  0
  161.1420  203.1920  149.8150 O   0  0  0  0  0  1  0  0  0  0  0  0
  161.0140  201.8790  146.2980 C   0  0  0  0  0  0  0  0  0  0  0  0
  160.9820  201.8290  147.8190 C   0  0  1  0  0  3  0  0  0  0  0  0
  161.7020  205.6090  148.1500 N   0  0  0  0  0  0  0  0  0  0  0  0
  161.3320  203.0980  145.6080 N   0  0  0  0  0  2  0  0  0  0  0  0
  161.2330  206.2590  149.3380 C   0  0  0  0  0  0  0  0  0  0  0  0
  161.9660  204.1370  146.3940 C   0  0  1  0  0  3  0  0  0  0  0  0
  160.0100  211.8030  153.8700 C   0  0  0  0  0  3  0  0  0  0  0  0
  159.6860  213.1590  153.9770 C   0  0  0  0  0  3  0  0  0  0  0  0
  160.2850  211.2370  152.6170 C   0  0  0  0  0  0  0  0  0  0  0  0
  159.6360  213.9580  152.8300 C   0  0  0  0  0  3  0  0  0  0  0  0
  159.9100  213.4010  151.5780 C   0  0  0  0  0  3  0  0  0  0  0  0
  160.2340  212.0460  151.4710 C   0  0  0  0  0  3  0  0  0  0  0  0
  1  9  2  0  0  0  0
  1  7  1  0  0  0  0
  2 30  1  0  0  0  0
  2 11  2  0  0  0  0
  3 11  1  0  0  0  0
  3  4  1  0  0  0  0
  4 10  2  0  0  0  0
  5 26  1  6  0  0  0
  5  1  1  0  0  0  0
  6 13  2  0  0  0  0
  7  3  2  0  0  0  0
  8 12  1  0  0  0  0
  8  5  1  0  0  0  0
  9  2  1  0  0  0  0
 10 13  1  0  0  0  0
 11  6  1  0  0  0  0
 12  9  1  0  0  0  0
 14 20  1  0  0  0  0
 15 21  1  1  0  0  0
 18 24  1  1  0  0  0
 18 15  1  0  0  0  0
 19 22  2  0  0  0  0
 20 24  1  0  0  0  0
 22 23  1  0  0  0  0
 23 17  1  6  0  0  0
 23 15  1  0  0  0  0
 24 26  1  0  0  0  0
 25 22  1  0  0  0  0
 25 27  1  0  0  0  0
 26 16  2  0  0  0  0
 27 14  1  6  0  0  0
 27 18  1  0  0  0  0
 28 29  1  0  0  0  0
 30 28  2  0  0  0  0
 31 29  2  0  0  0  0
 32 31  1  0  0  0  0
 33 32  2  0  0  0  0
 33 30  1  0  0  0  0
M  END
>  <MODEL>
4

>  <REMARK>
 VINA RESULT:      -7.9      4.289      9.423
  Name = 
  2 active torsions:
  status: ('A' for Active; 'I' for Inactive)
    1  A    between atoms: C_4  and  C_18
    2  A    between atoms: C_11  and  C_30
                            x       y       z     vdW  Elec       q    Type
                         _______ _______ _______ _____ _____    ______ ____

>  <TORSDO>
F 2

$$$$
=
 OpenBabel11072410193D

 33 38  0  0  1  0  0  0  0  0999 V2000
  161.6290  209.2730  153.4060 C   0  0  0  0  0  0  0  0  0  0  0  0
  161.4800  207.5880  151.6580 C   0  0  0  0  0  0  0  0  0  0  0  0
  161.9950  209.9260  151.1140 C   0  0  0  0  0  0  0  0  0  0  0  0
  162.2770  210.9140  150.1700 C   0  0  0  0  0  3  0  0  0  0  0  0
  161.5530  209.5150  154.8730 C   0  0  2  0  0  3  0  0  0  0  0  0
  161.8160  208.3090  149.3240 C   0  0  0  0  0  3  0  0  0  0  0  0
  161.9310  210.2620  152.4660 C   0  0  0  0  0  3  0  0  0  0  0  0
  160.9470  208.2590  155.5010 C   0  0  0  0  0  2  0  0  0  0  0  0
  161.4310  207.9620  153.0180 C   0  0  0  0  0  0  0  0  0  0  0  0
  162.3220  210.5740  148.8180 C   0  0  0  0  0  3  0  0  0  0  0  0
  161.7650  208.5910  150.6970 C   0  0  0  0  0  0  0  0  0  0  0  0
  161.1960  206.8350  154.3830 S   0  0  0  0  0  0  0  0  0  0  0  0
  162.0910  209.2930  148.4260 N   0  0  0  0  0  0  0  0  0  0  0  0
  158.2110  211.4510  152.5650 C   0  0  0  0  0  2  0  0  0  0  0  0
  157.7930  211.8850  156.1780 C   0  0  1  0  0  3  0  0  0  0  0  0
  161.1160  211.5280  156.0870 O   0  0  0  0  0  0  0  0  0  0  0  0
  157.5400  214.1800  156.8710 F   0  0  0  0  0  0  0  0  0  0  0  0
  158.5430  212.0000  154.8520 C   0  0  1  0  0  3  0  0  0  0  0  0
  155.2990  214.4260  155.0450 O   0  0  0  0  0  0  0  0  0  0  0  0
  159.3070  210.5440  153.1230 C   0  0  0  0  0  2  0  0  0  0  0  0
  158.6700  211.8110  157.2610 O   0  0  0  0  0  1  0  0  0  0  0  0
  156.2030  213.5510  155.0250 C   0  0  0  0  0  0  0  0  0  0  0  0
  156.8490  213.1090  156.3310 C   0  0  1  0  0  3  0  0  0  0  0  0
  159.4820  210.9410  154.5200 N   0  0  0  0  0  0  0  0  0  0  0  0
  156.6600  213.0330  153.7660 N   0  0  0  0  0  2  0  0  0  0  0  0
  160.7220  210.7190  155.2030 C   0  0  0  0  0  0  0  0  0  0  0  0
  157.4740  211.8350  153.8190 C   0  0  1  0  0  3  0  0  0  0  0  0
  160.4910  205.8830  150.1180 C   0  0  0  0  0  3  0  0  0  0  0  0
  160.2750  204.5550  149.7390 C   0  0  0  0  0  3  0  0  0  0  0  0
  161.2510  206.1800  151.2580 C   0  0  0  0  0  0  0  0  0  0  0  0
  160.8190  203.5150  150.5000 C   0  0  0  0  0  3  0  0  0  0  0  0
  161.5780  203.8040  151.6370 C   0  0  0  0  0  3  0  0  0  0  0  0
  161.7930  205.1310  152.0160 C   0  0  0  0  0  3  0  0  0  0  0  0
  1  5  1  0  0  0  0
  2  9  2  0  0  0  0
  3  7  1  0  0  0  0
  4  3  2  0  0  0  0
  5 26  1  6  0  0  0
  5  8  1  0  0  0  0
  6 11  2  0  0  0  0
  7  1  2  0  0  0  0
  9  1  1  0  0  0  0
  9 12  1  0  0  0  0
 10  4  1  0  0  0  0
 11  3  1  0  0  0  0
 11  2  1  0  0  0  0
 12  8  1  0  0  0  0
 13 10  2  0  0  0  0
 13  6  1  0  0  0  0
 14 20  1  0  0  0  0
 15 23  1  0  0  0  0
 15 21  1  1  0  0  0
 18 24  1  1  0  0  0
 18 15  1  0  0  0  0
 20 24  1  0  0  0  0
 22 19  2  0  0  0  0
 22 23  1  0  0  0  0
 23 17  1  6  0  0  0
 24 26  1  0  0  0  0
 25 27  1  0  0  0  0
 25 22  1  0  0  0  0
 26 16  2  0  0  0  0
 27 14  1  6  0  0  0
 27 18  1  0  0  0  0
 28 30  1  0  0  0  0
 29 28  2  0  0  0  0
 29 31  1  0  0  0  0
 30  2  1  0  0  0  0
 30 33  2  0  0  0  0
 31 32  2  0  0  0  0
 32 33  1  0  0  0  0
M  END
>  <MODEL>
5

>  <REMARK>
 VINA RESULT:      -7.4      1.841      2.528
  Name = 
  2 active torsions:
  status: ('A' for Active; 'I' for Inactive)
    1  A    between atoms: C_4  and  C_18
    2  A    between atoms: C_11  and  C_30
                            x       y       z     vdW  Elec       q    Type
                         _______ _______ _______ _____ _____    ______ ____

>  <TORSDO>
F 2

$$$$
=
 OpenBabel11072410193D

 33 38  0  0  1  0  0  0  0  0999 V2000
  161.4750  208.3810  152.7960 C   0  0  0  0  0  0  0  0  0  0  0  0
  161.6380  207.5810  150.5040 C   0  0  0  0  0  0  0  0  0  0  0  0
  161.7760  209.9790  151.0150 C   0  0  0  0  0  0  0  0  0  0  0  0
  161.9110  211.3000  150.5880 C   0  0  0  0  0  3  0  0  0  0  0  0
  161.3300  207.9720  154.2200 C   0  0  2  0  0  3  0  0  0  0  0  0
  161.9000  209.2530  148.7110 C   0  0  0  0  0  3  0  0  0  0  0  0
  161.6300  209.7040  152.3750 C   0  0  0  0  0  3  0  0  0  0  0  0
  160.9240  206.4980  154.2220 C   0  0  0  0  0  2  0  0  0  0  0  0
  161.5010  207.3400  151.8880 C   0  0  0  0  0  0  0  0  0  0  0  0
  162.0400  211.5680  149.2250 C   0  0  0  0  0  3  0  0  0  0  0  0
  161.7750  208.9240  150.0690 C   0  0  0  0  0  0  0  0  0  0  0  0
  161.4260  205.7240  152.6440 S   0  0  0  0  0  0  0  0  0  0  0  0
  162.0290  210.5510  148.3240 N   0  0  0  0  0  0  0  0  0  0  0  0
  161.7810  211.8650  156.4300 C   0  0  0  0  0  2  0  0  0  0  0  0
  158.4490  211.5250  154.9500 C   0  0  1  0  0  3  0  0  0  0  0  0
  159.2010  208.2830  155.2650 O   0  0  0  0  0  0  0  0  0  0  0  0
  156.6400  211.7890  156.5230 F   0  0  0  0  0  0  0  0  0  0  0  0
  159.6180  211.0880  155.8300 C   0  0  1  0  0  3  0  0  0  0  0  0
  157.7220  214.3830  157.2440 O   0  0  0  0  0  0  0  0  0  0  0  0
  161.9420  210.6110  155.5710 C   0  0  0  0  0  2  0  0  0  0  0  0
  157.7030  210.4320  154.5060 O   0  0  0  0  0  1  0  0  0  0  0  0
  158.3250  213.4430  156.6640 C   0  0  0  0  0  0  0  0  0  0  0  0
  157.5470  212.5010  155.7550 C   0  0  1  0  0  3  0  0  0  0  0  0
  160.5850  210.1690  155.2520 N   0  0  0  0  0  0  0  0  0  0  0  0
  159.7220  213.2320  156.9200 N   0  0  0  0  0  2  0  0  0  0  0  0
  160.3070  208.7980  154.9410 C   0  0  0  0  0  0  0  0  0  0  0  0
  160.4160  212.3400  156.0130 C   0  0  1  0  0  3  0  0  0  0  0  0
  160.7710  205.3740  149.7090 C   0  0  0  0  0  3  0  0  0  0  0  0
  160.7820  204.3090  148.8020 C   0  0  0  0  0  3  0  0  0  0  0  0
  161.6510  206.4540  149.5440 C   0  0  0  0  0  0  0  0  0  0  0  0
  161.6720  204.3190  147.7240 C   0  0  0  0  0  3  0  0  0  0  0  0
  162.5510  205.3930  147.5530 C   0  0  0  0  0  3  0  0  0  0  0  0
  162.5400  206.4560  148.4590 C   0  0  0  0  0  3  0  0  0  0  0  0
  1  5  1  0  0  0  0
  2  9  1  0  0  0  0
  3  7  2  0  0  0  0
  4  3  1  0  0  0  0
  5  8  1  0  0  0  0
  5 26  1  6  0  0  0
  6 11  1  0  0  0  0
  7  1  1  0  0  0  0
  9 12  1  0  0  0  0
  9  1  2  0  0  0  0
 10  4  2  0  0  0  0
 11  2  2  0  0  0  0
 11  3  1  0  0  0  0
 12  8  1  0  0  0  0
 13  6  2  0  0  0  0
 13 10  1  0  0  0  0
 15 21  1  1  0  0  0
 15 23  1  0  0  0  0
 15 18  1  0  0  0  0
 18 24  1  6  0  0  0
 18 27  1  0  0  0  0
 20 14  1  0  0  0  0
 22 25  1  0  0  0  0
 22 19  2  0  0  0  0
 23 17  1  1  0  0  0
 23 22  1  0  0  0  0
 24 20  1  0  0  0  0
 26 24  1  0  0  0  0
 26 16  2  0  0  0  0
 27 14  1  1  0  0  0
 27 25  1  0  0  0  0
 29 28  2  0  0  0  0
 30 28  1  0  0  0  0
 30  2  1  0  0  0  0
 31 29  1  0  0  0  0
 32 31  2  0  0  0  0
 32 33  1  0  0  0  0
 33 30  2  0  0  0  0
M  END
>  <MODEL>
6

>  <REMARK>
 VINA RESULT:      -7.4      0.808      1.192
  Name = 
  2 active torsions:
  status: ('A' for Active; 'I' for Inactive)
    1  A    between atoms: C_4  and  C_18
    2  A    between atoms: C_11  and  C_30
                            x       y       z     vdW  Elec       q    Type
                         _______ _______ _______ _____ _____    ______ ____

>  <TORSDO>
F 2

$$$$
=
 OpenBabel11072410193D

 33 38  0  0  1  0  0  0  0  0999 V2000
  160.9570  206.9270  150.0400 C   0  0  0  0  0  0  0  0  0  0  0  0
  161.5340  205.1550  148.4770 C   0  0  0  0  0  0  0  0  0  0  0  0
  160.7350  204.6300  150.7390 C   0  0  0  0  0  0  0  0  0  0  0  0
  160.4080  203.6920  151.7180 C   0  0  0  0  0  3  0  0  0  0  0  0
  160.8450  208.4000  150.2220 C   0  0  2  0  0  3  0  0  0  0  0  0
  161.3360  202.8210  149.2490 C   0  0  0  0  0  3  0  0  0  0  0  0
  160.6090  205.9910  151.0170 C   0  0  0  0  0  3  0  0  0  0  0  0
  161.5640  209.0520  149.0400 C   0  0  0  0  0  2  0  0  0  0  0  0
  161.3870  206.5230  148.7910 C   0  0  0  0  0  0  0  0  0  0  0  0
  160.5530  202.3330  151.4380 C   0  0  0  0  0  3  0  0  0  0  0  0
  161.2030  204.2000  149.4720 C   0  0  0  0  0  0  0  0  0  0  0  0
  161.6450  207.8700  147.6470 S   0  0  0  0  0  0  0  0  0  0  0  0
  161.0110  201.9290  150.2230 N   0  0  0  0  0  0  0  0  0  0  0  0
  160.0850  212.1280  152.6260 C   0  0  0  0  0  2  0  0  0  0  0  0
  161.0400  209.3090  154.7600 C   0  0  1  0  0  3  0  0  0  0  0  0
  162.5200  208.3290  151.9270 O   0  0  0  0  0  0  0  0  0  0  0  0
  162.9240  209.7550  156.1970 F   0  0  0  0  0  0  0  0  0  0  0  0
  161.2340  210.2970  153.6110 C   0  0  1  0  0  3  0  0  0  0  0  0
  161.4960  212.0480  157.2600 O   0  0  0  0  0  0  0  0  0  0  0  0
  160.0680  210.9610  151.6380 C   0  0  0  0  0  2  0  0  0  0  0  0
  161.7010  208.1040  154.5190 O   0  0  0  0  0  1  0  0  0  0  0  0
  161.2690  211.4460  156.1790 C   0  0  0  0  0  0  0  0  0  0  0  0
  161.5580  209.9540  156.0740 C   0  0  1  0  0  3  0  0  0  0  0  0
  160.8040  209.8770  152.2870 N   0  0  0  0  0  0  0  0  0  0  0  0
  160.8070  212.1870  155.0380 N   0  0  0  0  0  2  0  0  0  0  0  0
  161.4490  208.8550  151.5170 C   0  0  0  0  0  0  0  0  0  0  0  0
  160.2870  211.4100  153.9320 C   0  0  1  0  0  3  0  0  0  0  0  0
  163.3820  204.7130  146.8500 C   0  0  0  0  0  3  0  0  0  0  0  0
  163.8320  204.3210  145.5860 C   0  0  0  0  0  3  0  0  0  0  0  0
  162.0100  204.7390  147.1370 C   0  0  0  0  0  0  0  0  0  0  0  0
  162.9120  203.9510  144.6010 C   0  0  0  0  0  3  0  0  0  0  0  0
  161.5420  203.9730  144.8800 C   0  0  0  0  0  3  0  0  0  0  0  0
  161.0930  204.3660  146.1440 C   0  0  0  0  0  3  0  0  0  0  0  0
  1  5  1  0  0  0  0
  1  7  1  0  0  0  0
  2  9  1  0  0  0  0
  2 11  2  0  0  0  0
  3  7  2  0  0  0  0
  3  4  1  0  0  0  0
  5 26  1  1  0  0  0
  6 11  1  0  0  0  0
  6 13  2  0  0  0  0
  8  5  1  0  0  0  0
  9  1  2  0  0  0  0
 10  4  2  0  0  0  0
 11  3  1  0  0  0  0
 12  9  1  0  0  0  0
 12  8  1  0  0  0  0
 13 10  1  0  0  0  0
 15 21  1  6  0  0  0
 15 23  1  0  0  0  0
 18 24  1  6  0  0  0
 18 27  1  0  0  0  0
 18 15  1  0  0  0  0
 20 24  1  0  0  0  0
 20 14  1  0  0  0  0
 22 19  2  0  0  0  0
 23 22  1  0  0  0  0
 23 17  1  6  0  0  0
 25 22  1  0  0  0  0
 26 16  2  0  0  0  0
 26 24  1  0  0  0  0
 27 14  1  6  0  0  0
 27 25  1  0  0  0  0
 28 30  1  0  0  0  0
 29 28  2  0  0  0  0
 30  2  1  0  0  0  0
 31 32  2  0  0  0  0
 31 29  1  0  0  0  0
 32 33  1  0  0  0  0
 33 30  2  0  0  0  0
M  END
>  <MODEL>
7

>  <REMARK>
 VINA RESULT:      -7.1      2.884      4.612
  Name = 
  2 active torsions:
  status: ('A' for Active; 'I' for Inactive)
    1  A    between atoms: C_4  and  C_18
    2  A    between atoms: C_11  and  C_30
                            x       y       z     vdW  Elec       q    Type
                         _______ _______ _______ _____ _____    ______ ____

>  <TORSDO>
F 2

$$$$
=
 OpenBabel11072410193D

 33 38  0  0  1  0  0  0  0  0999 V2000
  160.6820  205.7280  149.9950 C   0  0  0  0  0  0  0  0  0  0  0  0
  161.3050  204.5270  147.9720 C   0  0  0  0  0  0  0  0  0  0  0  0
  160.7690  203.3180  150.0410 C   0  0  0  0  0  0  0  0  0  0  0  0
  160.6310  202.1180  150.7390 C   0  0  0  0  0  3  0  0  0  0  0  0
  160.4310  207.0720  150.5830 C   0  0  2  0  0  3  0  0  0  0  0  0
  161.4250  202.0660  148.0780 C   0  0  0  0  0  3  0  0  0  0  0  0
  160.5240  204.5280  150.6920 C   0  0  0  0  0  3  0  0  0  0  0  0
  160.9690  208.1020  149.5890 C   0  0  0  0  0  2  0  0  0  0  0  0
  161.0410  205.7310  148.6610 C   0  0  0  0  0  0  0  0  0  0  0  0
  160.8940  200.9140  150.0860 C   0  0  0  0  0  3  0  0  0  0  0  0
  161.1660  203.3070  148.6810 C   0  0  0  0  0  0  0  0  0  0  0  0
  161.0530  207.3570  147.9220 S   0  0  0  0  0  0  0  0  0  0  0  0
  161.2840  200.9120  148.7840 N   0  0  0  0  0  0  0  0  0  0  0  0
  162.3120  210.7020  152.4620 C   0  0  0  0  0  2  0  0  0  0  0  0
  160.9040  208.4470  154.9810 C   0  0  1  0  0  3  0  0  0  0  0  0
  161.4730  206.2150  152.5580 O   0  0  0  0  0  0  0  0  0  0  0  0
  162.4720  207.7700  156.6830 F   0  0  0  0  0  0  0  0  0  0  0  0
  161.8030  208.8060  153.7990 C   0  0  1  0  0  3  0  0  0  0  0  0
  162.9670  210.5710  157.2610 O   0  0  0  0  0  0  0  0  0  0  0  0
  161.5560  209.6930  151.5980 C   0  0  0  0  0  2  0  0  0  0  0  0
  160.5600  207.0950  154.9730 O   0  0  0  0  0  1  0  0  0  0  0  0
  162.4580  210.0890  156.2160 C   0  0  0  0  0  0  0  0  0  0  0  0
  161.6380  208.8080  156.3020 C   0  0  1  0  0  3  0  0  0  0  0  0
  161.2900  208.5450  152.4640 N   0  0  0  0  0  0  0  0  0  0  0  0
  162.7140  210.7150  154.9490 N   0  0  0  0  0  2  0  0  0  0  0  0
  161.0950  207.2350  151.9180 C   0  0  0  0  0  0  0  0  0  0  0  0
  161.8740  210.3000  153.8430 C   0  0  1  0  0  3  0  0  0  0  0  0
  163.0510  204.4260  146.1850 C   0  0  0  0  0  3  0  0  0  0  0  0
  163.4270  204.4460  144.8390 C   0  0  0  0  0  3  0  0  0  0  0  0
  161.7020  204.5500  146.5460 C   0  0  0  0  0  0  0  0  0  0  0  0
  162.4550  204.5910  143.8440 C   0  0  0  0  0  3  0  0  0  0  0  0
  161.1080  204.7140  144.1970 C   0  0  0  0  0  3  0  0  0  0  0  0
  160.7330  204.6940  145.5420 C   0  0  0  0  0  3  0  0  0  0  0  0
  1  5  1  0  0  0  0
  1  7  1  0  0  0  0
  2  9  1  0  0  0  0
  2 11  2  0  0  0  0
  3  7  2  0  0  0  0
  3  4  1  0  0  0  0
  5 26  1  1  0  0  0
  6 11  1  0  0  0  0
  6 13  2  0  0  0  0
  8  5  1  0  0  0  0
  9  1  2  0  0  0  0
 10  4  2  0  0  0  0
 11  3  1  0  0  0  0
 12  9  1  0  0  0  0
 12  8  1  0  0  0  0
 13 10  1  0  0  0  0
 15 21  1  1  0  0  0
 15 23  1  0  0  0  0
 18 24  1  6  0  0  0
 18 27  1  0  0  0  0
 18 15  1  0  0  0  0
 20 14  1  0  0  0  0
 20 24  1  0  0  0  0
 22 23  1  0  0  0  0
 22 19  2  0  0  0  0
 23 17  1  6  0  0  0
 25 22  1  0  0  0  0
 26 24  1  0  0  0  0
 26 16  2  0  0  0  0
 27 14  1  6  0  0  0
 27 25  1  0  0  0  0
 28 30  1  0  0  0  0
 29 28  2  0  0  0  0
 30  2  1  0  0  0  0
 31 32  2  0  0  0  0
 31 29  1  0  0  0  0
 32 33  1  0  0  0  0
 33 30  2  0  0  0  0
M  END
>  <MODEL>
8

>  <REMARK>
 VINA RESULT:      -7.0      2.987      5.159
  Name = 
  2 active torsions:
  status: ('A' for Active; 'I' for Inactive)
    1  A    between atoms: C_4  and  C_18
    2  A    between atoms: C_11  and  C_30
                            x       y       z     vdW  Elec       q    Type
                         _______ _______ _______ _____ _____    ______ ____

>  <TORSDO>
F 2

$$$$
