=
 OpenBabel11072409523D

 64 70  0  0  1  0  0  0  0  0999 V2000
  160.6700  211.1510  150.5950 C   0  0  0  0  0  0  0  0  0  0  0  0
  161.3050  209.9930  150.2770 C   0  0  0  0  0  0  0  0  0  0  0  0
  161.2430  208.6780  150.9940 C   0  0  0  0  0  0  0  0  0  0  0  0
  161.0730  206.1600  150.7440 C   0  0  0  0  0  3  0  0  0  0  0  0
  162.0040  210.1520  149.0770 O   0  0  0  0  0  0  0  0  0  0  0  0
  161.7470  210.2430  153.3050 S   0  0  0  0  0  0  0  0  0  0  0  0
  159.7910  211.4220  151.7630 C   0  0  0  0  0  0  0  0  0  0  0  0
  161.2920  208.6290  152.5370 C   0  0  2  0  0  3  0  0  0  0  0  0
  161.8000  211.4310  148.5130 C   0  0  1  0  0  3  0  0  0  0  0  0
  162.3310  206.3380  152.8830 C   0  0  0  0  0  0  0  0  0  0  0  0
  160.8550  212.1370  149.4820 C   0  0  0  0  0  2  0  0  0  0  0  0
  162.2510  207.6370  153.1420 C   0  0  0  0  0  3  0  0  0  0  0  0
  163.1370  205.5680  153.7300 O   0  0  0  0  0  1  0  0  0  0  0  0
  161.5630  205.5940  151.8620 C   0  0  0  0  0  0  0  0  0  0  0  0
  160.1510  211.0270  152.9750 C   0  0  0  0  0  3  0  0  0  0  0  0
  161.0700  207.5480  150.2220 C   0  0  0  0  0  0  0  0  0  0  0  0
  161.4370  203.8560  151.9660 Cl  0  0  0  0  0  0  0  0  0  0  0  0
  160.6430  207.6420  148.7330 C   0  0  1  0  0  3  0  0  0  0  0  0
  161.7280  208.0910  147.9550 O   0  0  0  0  0  1  0  0  0  0  0  0
  160.0850  206.3250  148.1060 C   0  0  0  0  0  2  0  0  0  0  0  0
  160.5290  206.2210  146.7830 O   0  0  0  0  0  1  0  0  0  0  0  0
  158.5170  212.2340  151.6030 C   0  0  2  0  0  3  0  0  0  0  0  0
  158.5360  212.8180  150.3540 O   0  0  0  0  0  1  0  0  0  0  0  0
  159.5620  213.9470  152.9530 O   0  0  0  0  0  0  0  0  0  0  0  0
  156.7740  214.2000  154.3830 C   0  0  0  0  0  1  0  0  0  0  0  0
  158.3580  213.2540  152.7340 C   0  0  2  0  0  3  0  0  0  0  0  0
  159.6890  213.9830  154.3540 C   0  0  0  0  0  2  0  0  0  0  0  0
  158.7990  213.0730  154.9730 O   0  0  0  0  0  0  0  0  0  0  0  0
  157.7200  213.0190  154.0970 C   0  0  1  0  0  0  0  0  0  0  0  0
  156.8390  211.7650  154.3170 C   0  0  1  0  0  3  0  0  0  0  0  0
  157.6000  210.5810  154.4230 O   0  0  0  0  0  1  0  0  0  0  0  0
  155.6500  212.7130  156.2330 F   0  0  0  0  0  0  0  0  0  0  0  0
  155.5200  211.8150  155.1720 C   0  0  0  0  0  3  0  0  0  0  0  0
  155.2010  210.5600  155.6630 F   0  0  0  0  0  0  0  0  0  0  0  0
  163.1190  212.2530  148.2730 C   0  0  1  0  0  0  0  0  0  0  0  0
  163.9220  212.3210  149.4210 F   0  0  0  0  0  0  0  0  0  0  0  0
  165.3460  211.8360  147.3290 F   0  0  0  0  0  0  0  0  0  0  0  0
  163.9950  211.5480  147.2290 C   0  0  0  0  0  2  0  0  0  0  0  0
  162.7820  213.5590  147.8170 O   0  0  0  0  0  0  0  0  0  0  0  0
  160.6560  214.3500  145.0100 C   0  0  0  0  0  2  0  0  0  0  0  0
  163.3890  213.9490  145.6010 O   0  0  0  0  0  0  0  0  0  0  0  0
  160.6610  212.7070  143.0340 C   0  0  2  0  0  3  0  0  0  0  0  0
  161.1170  214.2880  146.2660 C   0  0  0  0  0  2  0  0  0  0  0  0
  163.6920  214.4530  143.3830 O   0  0  0  0  0  1  0  0  0  0  0  0
  161.4530  213.5630  144.0090 C   0  0  1  0  0  0  0  0  0  0  0  0
  162.3800  213.4870  146.4800 C   0  0  2  0  0  3  0  0  0  0  0  0
  163.0120  213.6090  144.2760 C   0  0  2  0  0  3  0  0  0  0  0  0
  161.1590  212.2020  144.2330 O   0  0  0  0  0  0  0  0  0  0  0  0
  162.4020  210.1680  137.9210 O   0  0  0  0  0  0  0  0  0  0  0  0
  161.3690  210.3340  140.0110 N   0  0  0  0  0  2  0  0  0  0  0  0
  161.8010  213.2200  140.9060 O   0  0  0  0  0  0  0  0  0  0  0  0
  162.1640  210.8900  138.9480 C   0  0  0  0  0  0  0  0  0  0  0  0
  160.5980  211.1190  141.0110 C   0  0  1  0  0  3  0  0  0  0  0  0
  162.9400  212.8150  140.2170 C   0  0  0  0  0  2  0  0  0  0  0  0
  162.4940  212.3610  138.8430 C   0  0  1  0  0  3  0  0  0  0  0  0
  161.4580  212.1780  141.7790 C   0  0  2  0  0  3  0  0  0  0  0  0
  163.4740  212.6310  137.8880 F   0  0  0  0  0  0  0  0  0  0  0  0
  159.3920  211.7440  140.3010 C   0  0  0  0  0  2  0  0  0  0  0  0
  159.0060  210.9570  139.0590 C   0  0  0  0  0  2  0  0  0  0  0  0
  157.5980  211.3490  138.6830 C   0  0  0  0  0  2  0  0  0  0  0  0
  157.0100  213.3200  137.1500 C   0  0  0  0  0  1  0  0  0  0  0  0
  157.4630  212.8710  138.5350 C   0  0  1  0  0  3  0  0  0  0  0  0
  155.6120  212.2270  139.6040 C   0  0  0  0  0  1  0  0  0  0  0  0
  156.5010  213.2990  139.4630 O   0  0  0  0  0  0  0  0  0  0  0  0
  1  7  1  0  0  0  0
  2  1  2  0  0  0  0
  2  3  1  0  0  0  0
  3  8  1  0  0  0  0
  4 14  2  0  0  0  0
  5  2  1  0  0  0  0
  7 15  2  0  0  0  0
  8 12  1  6  0  0  0
  8  6  1  0  0  0  0
  9 35  1  1  0  0  0
  9  5  1  0  0  0  0
  9 11  1  0  0  0  0
 10 12  2  0  0  0  0
 10 13  1  0  0  0  0
 11  1  1  0  0  0  0
 14 17  1  0  0  0  0
 14 10  1  0  0  0  0
 15  6  1  0  0  0  0
 16  4  1  0  0  0  0
 16  3  2  0  0  0  0
 18 19  1  6  0  0  0
 18 16  1  0  0  0  0
 20 18  1  0  0  0  0
 21 20  1  0  0  0  0
 22 23  1  6  0  0  0
 22  7  1  0  0  0  0
 24 27  1  0  0  0  0
 26 22  1  1  0  0  0
 26 24  1  0  0  0  0
 26 29  1  0  0  0  0
 27 28  1  0  0  0  0
 29 30  1  0  0  0  0
 29 25  1  1  0  0  0
 29 28  1  0  0  0  0
 30 31  1  1  0  0  0
 30 33  1  0  0  0  0
 33 34  1  0  0  0  0
 33 32  1  0  0  0  0
 35 36  1  1  0  0  0
 38 37  1  0  0  0  0
 38 35  1  0  0  0  0
 39 35  1  0  0  0  0
 40 43  1  0  0  0  0
 41 46  1  0  0  0  0
 42 45  1  0  0  0  0
 42 48  1  1  0  0  0
 43 46  1  0  0  0  0
 45 48  1  0  0  0  0
 45 47  1  0  0  0  0
 45 40  1  1  0  0  0
 46 39  1  1  0  0  0
 47 44  1  6  0  0  0
 47 41  1  0  0  0  0
 49 52  2  0  0  0  0
 50 53  1  0  0  0  0
 52 50  1  0  0  0  0
 53 58  1  6  0  0  0
 53 56  1  0  0  0  0
 54 51  1  0  0  0  0
 55 57  1  6  0  0  0
 55 52  1  0  0  0  0
 55 54  1  0  0  0  0
 56 51  1  6  0  0  0
 56 42  1  0  0  0  0
 59 58  1  0  0  0  0
 60 59  1  0  0  0  0
 62 61  1  6  0  0  0
 62 60  1  0  0  0  0
 62 64  1  0  0  0  0
 64 63  1  0  0  0  0
M  END
>  <MODEL>
1

>  <REMARK>
 VINA RESULT:      -0.6      0.000      0.000
  Name = 
  16 active torsions:
  status: ('A' for Active; 'I' for Inactive)
    1  A    between atoms: C_8  and  C_57
    2  A    between atoms: C_8  and  C_58
    3  A    between atoms: C_12  and  C_31
    4  A    between atoms: C_12  and  O_42
    5  A    between atoms: O_16  and  C_38
    6  A    between atoms: O_16  and  C_41
    7  A    between atoms: C_17  and  C_49
    8  A    between atoms: C_19  and  C_24
    9  A    between atoms: C_19  and  C_55
   10  A    between atoms: C_20  and  C_46
   11  A    between atoms: C_26  and  C_38
   12  A    between atoms: C_29  and  C_60
   13  A    between atoms: C_30  and  C_46
   14  A    between atoms: C_31  and  C_54
   15  A    between atoms: C_34  and  C_38
   16  A    between atoms: C_54  and  C_60
                            x       y       z     vdW  Elec       q    Type
                         _______ _______ _______ _____ _____    ______ ____

>  <TORSDO>
F 16

$$$$
