=
 OpenBabel11072413123D

 34 36  0  0  1  0  0  0  0  0999 V2000
  160.2680  206.3780  148.7160 O   0  0  0  0  0  0  0  0  0  0  0  0
  161.4420  206.7530  148.4500 C   0  0  0  0  0  0  0  0  0  0  0  0
  162.2500  207.3320  149.4310 O   0  0  0  0  0  0  0  0  0  0  0  0
  161.9310  208.5740  150.0470 C   0  0  0  0  0  2  0  0  0  0  0  0
  161.1570  206.8770  153.3410 C   0  0  0  0  0  3  0  0  0  0  0  0
  161.5780  208.3680  151.4810 C   0  0  0  0  0  0  0  0  0  0  0  0
  161.2820  209.4650  152.2950 C   0  0  0  0  0  3  0  0  0  0  0  0
  160.9330  209.2810  153.6380 C   0  0  0  0  0  0  0  0  0  0  0  0
  161.5110  207.0730  152.0040 C   0  0  0  0  0  3  0  0  0  0  0  0
  160.8680  207.9770  154.1540 C   0  0  0  0  0  3  0  0  0  0  0  0
  160.6240  210.4140  154.4080 O   0  0  0  0  0  0  0  0  0  0  0  0
  155.6770  212.8490  154.4670 O   0  0  0  0  0  0  0  0  0  0  0  0
  159.0170  212.1070  153.4570 C   0  0  0  0  0  3  0  0  0  0  0  0
  156.8270  212.3360  154.4900 C   0  0  0  0  0  0  0  0  0  0  0  0
  159.3920  211.0830  154.4560 C   0  0  0  0  0  0  0  0  0  0  0  0
  157.5070  213.7090  152.4180 C   0  0  0  0  0  1  0  0  0  0  0  0
  157.8220  212.6950  153.4620 C   0  0  0  0  0  0  0  0  0  0  0  0
  158.5300  210.7380  155.4180 C   0  0  0  0  0  3  0  0  0  0  0  0
  157.1770  211.3770  155.5920 C   0  0  0  0  0  2  0  0  0  0  0  0
  161.9600  206.6120  147.0590 C   0  0  0  0  0  2  0  0  0  0  0  0
  160.2850  206.2910  145.2550 C   0  0  0  0  0  1  0  0  0  0  0  0
  161.1500  205.5800  146.2850 C   0  0  1  0  0  3  0  0  0  0  0  0
  163.4160  204.8670  145.9020 O   0  0  0  0  0  1  0  0  0  0  0  0
  162.0800  204.5780  145.5970 C   0  0  1  0  0  3  0  0  0  0  0  0
  160.6410  202.6760  145.2900 O   0  0  0  0  0  1  0  0  0  0  0  0
  161.7510  203.1400  146.0020 C   0  0  2  0  0  3  0  0  0  0  0  0
  161.4860  203.0630  147.4990 C   0  0  0  0  0  2  0  0  0  0  0  0
  160.7020  201.8070  147.8590 C   0  0  0  0  0  2  0  0  0  0  0  0
  160.2240  201.8720  149.2320 N   0  0  0  0  0  0  0  0  0  0  0  0
  161.2910  201.6880  151.3700 C   0  0  0  0  0  2  0  0  0  0  0  0
  161.0990  201.0220  150.0260 C   0  0  0  0  0  2  0  0  0  0  0  0
  160.8760  203.1250  151.1690 C   0  0  1  0  0  3  0  0  0  0  0  0
  161.9600  203.9680  151.4050 O   0  0  0  0  0  1  0  0  0  0  0  0
  160.4630  203.2250  149.7180 C   0  0  0  0  0  2  0  0  0  0  0  0
  2  1  2  0  0  0  0
  2  3  1  0  0  0  0
  3  4  1  0  0  0  0
  4  6  1  0  0  0  0
  5 10  1  0  0  0  0
  6  9  1  0  0  0  0
  6  7  2  0  0  0  0
  7  8  1  0  0  0  0
  8 10  2  0  0  0  0
  8 11  1  0  0  0  0
  9  5  2  0  0  0  0
 11 15  1  0  0  0  0
 12 14  2  0  0  0  0
 13 17  2  0  0  0  0
 13 15  1  0  0  0  0
 14 19  1  0  0  0  0
 15 18  2  0  0  0  0
 16 17  1  0  0  0  0
 17 14  1  0  0  0  0
 18 19  1  0  0  0  0
 20  2  1  0  0  0  0
 22 21  1  6  0  0  0
 22 20  1  0  0  0  0
 24 23  1  1  0  0  0
 24 26  1  0  0  0  0
 24 22  1  0  0  0  0
 26 25  1  6  0  0  0
 26 27  1  0  0  0  0
 27 28  1  0  0  0  0
 28 29  1  0  0  0  0
 29 34  1  0  0  0  0
 29 31  1  0  0  0  0
 31 30  1  0  0  0  0
 32 30  1  0  0  0  0
 32 33  1  6  0  0  0
 34 32  1  0  0  0  0
M  END
>  <MODEL>
1

>  <REMARK>
 VINA RESULT:      -7.9      0.000      0.000
  Name = 
  12 active torsions:
  status: ('A' for Active; 'I' for Inactive)
    1  A    between atoms: C_1  and  O_12
    2  A    between atoms: C_1  and  C_14
    3  A    between atoms: N_3  and  C_21
    4  A    between atoms: C_4  and  C_21
    5  A    between atoms: C_4  and  C_24
    6  A    between atoms: C_7  and  O_12
    7  A    between atoms: C_7  and  C_13
    8  A    between atoms: O_8  and  C_19
    9  A    between atoms: O_8  and  C_25
   10  A    between atoms: C_13  and  C_32
   11  A    between atoms: C_23  and  C_24
   12  A    between atoms: C_23  and  C_32
                            x       y       z     vdW  Elec       q    Type
                         _______ _______ _______ _____ _____    ______ ____

>  <TORSDO>
F 12

$$$$
=
 OpenBabel11072413123D

 34 36  0  0  1  0  0  0  0  0999 V2000
  162.1690  208.8690  148.5290 O   0  0  0  0  0  0  0  0  0  0  0  0
  161.7410  207.8190  149.0790 C   0  0  0  0  0  0  0  0  0  0  0  0
  162.0760  207.5120  150.4000 O   0  0  0  0  0  0  0  0  0  0  0  0
  161.2750  206.6650  151.2140 C   0  0  0  0  0  2  0  0  0  0  0  0
  160.7690  206.9780  154.9520 C   0  0  0  0  0  3  0  0  0  0  0  0
  161.1010  207.2580  152.5700 C   0  0  0  0  0  0  0  0  0  0  0  0
  161.0510  208.6460  152.7280 C   0  0  0  0  0  3  0  0  0  0  0  0
  160.8710  209.2130  153.9960 C   0  0  0  0  0  0  0  0  0  0  0  0
  160.9550  206.4240  153.6830 C   0  0  0  0  0  3  0  0  0  0  0  0
  160.7250  208.3670  155.1070 C   0  0  0  0  0  3  0  0  0  0  0  0
  160.8060  210.6110  154.0980 O   0  0  0  0  0  0  0  0  0  0  0  0
  156.7940  214.0450  152.5110 O   0  0  0  0  0  0  0  0  0  0  0  0
  158.4680  211.5100  154.3820 C   0  0  0  0  0  3  0  0  0  0  0  0
  157.6870  213.2190  152.8370 C   0  0  0  0  0  0  0  0  0  0  0  0
  159.7580  211.4350  153.6610 C   0  0  0  0  0  0  0  0  0  0  0  0
  156.2280  212.3730  154.7850 C   0  0  0  0  0  1  0  0  0  0  0  0
  157.4970  212.3410  154.0070 C   0  0  0  0  0  0  0  0  0  0  0  0
  159.9700  212.1980  152.5840 C   0  0  0  0  0  3  0  0  0  0  0  0
  158.9330  213.1240  152.0030 C   0  0  0  0  0  2  0  0  0  0  0  0
  160.8970  206.8720  148.2960 C   0  0  0  0  0  2  0  0  0  0  0  0
  162.9040  205.8220  147.2780 C   0  0  0  0  0  1  0  0  0  0  0  0
  161.5770  206.5050  146.9820 C   0  0  1  0  0  3  0  0  0  0  0  0
  159.9100  206.3350  145.2560 O   0  0  0  0  0  1  0  0  0  0  0  0
  160.6780  205.5850  146.1550 C   0  0  1  0  0  3  0  0  0  0  0  0
  161.4240  204.7700  144.0180 O   0  0  0  0  0  1  0  0  0  0  0  0
  161.4950  204.5380  145.3960 C   0  0  2  0  0  3  0  0  0  0  0  0
  160.9890  203.1390  145.7200 C   0  0  0  0  0  2  0  0  0  0  0  0
  161.6860  202.5680  146.9480 C   0  0  0  0  0  2  0  0  0  0  0  0
  160.7200  202.2520  147.9900 N   0  0  0  0  0  0  0  0  0  0  0  0
  160.8710  201.1460  150.1110 C   0  0  0  0  0  2  0  0  0  0  0  0
  161.1770  201.0300  148.6340 C   0  0  0  0  0  2  0  0  0  0  0  0
  160.6400  202.6170  150.3570 C   0  0  1  0  0  3  0  0  0  0  0  0
  161.5910  203.1020  151.2520 O   0  0  0  0  0  1  0  0  0  0  0  0
  160.8230  203.2840  149.0130 C   0  0  0  0  0  2  0  0  0  0  0  0
  1  2  2  0  0  0  0
  2  3  1  0  0  0  0
  3  4  1  0  0  0  0
  4  6  1  0  0  0  0
  5 10  1  0  0  0  0
  6  7  2  0  0  0  0
  6  9  1  0  0  0  0
  7  8  1  0  0  0  0
  8 11  1  0  0  0  0
  8 10  2  0  0  0  0
  9  5  2  0  0  0  0
 12 14  2  0  0  0  0
 14 17  1  0  0  0  0
 15 11  1  0  0  0  0
 15 13  1  0  0  0  0
 17 13  2  0  0  0  0
 17 16  1  0  0  0  0
 18 15  2  0  0  0  0
 19 18  1  0  0  0  0
 19 14  1  0  0  0  0
 20  2  1  0  0  0  0
 22 21  1  1  0  0  0
 22 20  1  0  0  0  0
 24 23  1  6  0  0  0
 24 22  1  0  0  0  0
 26 25  1  6  0  0  0
 26 27  1  0  0  0  0
 26 24  1  0  0  0  0
 27 28  1  0  0  0  0
 28 29  1  0  0  0  0
 29 31  1  0  0  0  0
 29 34  1  0  0  0  0
 30 32  1  0  0  0  0
 31 30  1  0  0  0  0
 32 33  1  1  0  0  0
 34 32  1  0  0  0  0
M  END
>  <MODEL>
2

>  <REMARK>
 VINA RESULT:      -7.6      1.273      2.029
  Name = 
  12 active torsions:
  status: ('A' for Active; 'I' for Inactive)
    1  A    between atoms: C_1  and  O_12
    2  A    between atoms: C_1  and  C_14
    3  A    between atoms: N_3  and  C_21
    4  A    between atoms: C_4  and  C_21
    5  A    between atoms: C_4  and  C_24
    6  A    between atoms: C_7  and  O_12
    7  A    between atoms: C_7  and  C_13
    8  A    between atoms: O_8  and  C_19
    9  A    between atoms: O_8  and  C_25
   10  A    between atoms: C_13  and  C_32
   11  A    between atoms: C_23  and  C_24
   12  A    between atoms: C_23  and  C_32
                            x       y       z     vdW  Elec       q    Type
                         _______ _______ _______ _____ _____    ______ ____

>  <TORSDO>
F 12

$$$$
=
 OpenBabel11072413123D

 34 36  0  0  1  0  0  0  0  0999 V2000
  160.3960  201.7440  145.2490 O   0  0  0  0  0  0  0  0  0  0  0  0
  160.9670  202.5860  145.9940 C   0  0  0  0  0  0  0  0  0  0  0  0
  161.3100  202.2640  147.3090 O   0  0  0  0  0  0  0  0  0  0  0  0
  160.3340  201.9880  148.3070 C   0  0  0  0  0  2  0  0  0  0  0  0
  161.3160  202.3740  151.9420 C   0  0  0  0  0  3  0  0  0  0  0  0
  160.7270  202.6060  149.6050 C   0  0  0  0  0  0  0  0  0  0  0  0
  160.8220  203.9960  149.7210 C   0  0  0  0  0  3  0  0  0  0  0  0
  161.1740  204.5870  150.9400 C   0  0  0  0  0  0  0  0  0  0  0  0
  160.9690  201.7950  150.7190 C   0  0  0  0  0  3  0  0  0  0  0  0
  161.4150  203.7640  152.0520 C   0  0  0  0  0  3  0  0  0  0  0  0
  161.2340  205.9870  151.0090 O   0  0  0  0  0  0  0  0  0  0  0  0
  160.4930  209.0410  155.5410 O   0  0  0  0  0  0  0  0  0  0  0  0
  160.9870  208.2480  152.0980 C   0  0  0  0  0  3  0  0  0  0  0  0
  160.7210  208.3490  154.5140 C   0  0  0  0  0  0  0  0  0  0  0  0
  161.1100  206.7740  152.1640 C   0  0  0  0  0  0  0  0  0  0  0  0
  160.6750  210.4670  153.0480 C   0  0  0  0  0  1  0  0  0  0  0  0
  160.8030  208.9910  153.1880 C   0  0  0  0  0  0  0  0  0  0  0  0
  161.0610  206.1500  153.3450 C   0  0  0  0  0  3  0  0  0  0  0  0
  160.9350  206.8690  154.6630 C   0  0  0  0  0  2  0  0  0  0  0  0
  161.2440  203.9560  145.4770 C   0  0  0  0  0  2  0  0  0  0  0  0
  163.6020  204.5220  146.0090 C   0  0  0  0  0  1  0  0  0  0  0  0
  162.1540  204.7190  146.4320 C   0  0  1  0  0  3  0  0  0  0  0  0
  160.5860  206.4180  145.7650 O   0  0  0  0  0  1  0  0  0  0  0  0
  161.7980  206.2060  146.4340 C   0  0  1  0  0  3  0  0  0  0  0  0
  160.3760  206.9740  148.2160 O   0  0  0  0  0  1  0  0  0  0  0  0
  161.7110  206.7590  147.8580 C   0  0  2  0  0  3  0  0  0  0  0  0
  162.5010  208.0560  147.9680 C   0  0  0  0  0  2  0  0  0  0  0  0
  161.7820  209.0700  148.8490 C   0  0  0  0  0  2  0  0  0  0  0  0
  162.2050  210.4250  148.5280 N   0  0  0  0  0  0  0  0  0  0  0  0
  161.0450  212.4030  147.8320 C   0  0  0  0  0  2  0  0  0  0  0  0
  161.2700  210.9360  147.5380 C   0  0  0  0  0  2  0  0  0  0  0  0
  161.5180  212.6040  149.2510 C   0  0  1  0  0  3  0  0  0  0  0  0
  160.4560  213.0220  150.0500 O   0  0  0  0  0  1  0  0  0  0  0  0
  161.9940  211.2450  149.7130 C   0  0  0  0  0  2  0  0  0  0  0  0
  1  2  2  0  0  0  0
  2  3  1  0  0  0  0
  3  4  1  0  0  0  0
  4  6  1  0  0  0  0
  5 10  1  0  0  0  0
  6  7  2  0  0  0  0
  6  9  1  0  0  0  0
  7  8  1  0  0  0  0
  8 11  1  0  0  0  0
  8 10  2  0  0  0  0
  9  5  2  0  0  0  0
 11 15  1  0  0  0  0
 13 15  1  0  0  0  0
 13 17  2  0  0  0  0
 14 19  1  0  0  0  0
 14 12  2  0  0  0  0
 15 18  2  0  0  0  0
 16 17  1  0  0  0  0
 17 14  1  0  0  0  0
 18 19  1  0  0  0  0
 20  2  1  0  0  0  0
 20 22  1  0  0  0  0
 22 21  1  6  0  0  0
 22 24  1  0  0  0  0
 24 23  1  1  0  0  0
 24 26  1  0  0  0  0
 26 27  1  0  0  0  0
 26 25  1  6  0  0  0
 27 28  1  0  0  0  0
 29 28  1  0  0  0  0
 29 34  1  0  0  0  0
 30 32  1  0  0  0  0
 31 30  1  0  0  0  0
 31 29  1  0  0  0  0
 32 34  1  0  0  0  0
 32 33  1  1  0  0  0
M  END
>  <MODEL>
3

>  <REMARK>
 VINA RESULT:      -7.5      2.735      6.174
  Name = 
  12 active torsions:
  status: ('A' for Active; 'I' for Inactive)
    1  A    between atoms: C_1  and  O_12
    2  A    between atoms: C_1  and  C_14
    3  A    between atoms: N_3  and  C_21
    4  A    between atoms: C_4  and  C_21
    5  A    between atoms: C_4  and  C_24
    6  A    between atoms: C_7  and  O_12
    7  A    between atoms: C_7  and  C_13
    8  A    between atoms: O_8  and  C_19
    9  A    between atoms: O_8  and  C_25
   10  A    between atoms: C_13  and  C_32
   11  A    between atoms: C_23  and  C_24
   12  A    between atoms: C_23  and  C_32
                            x       y       z     vdW  Elec       q    Type
                         _______ _______ _______ _____ _____    ______ ____

>  <TORSDO>
F 12

$$$$
=
 OpenBabel11072413123D

 34 36  0  0  1  0  0  0  0  0999 V2000
  161.5590  203.2660  151.3290 O   0  0  0  0  0  0  0  0  0  0  0  0
  161.0490  204.0380  150.4720 C   0  0  0  0  0  0  0  0  0  0  0  0
  160.5930  205.3080  150.8320 O   0  0  0  0  0  0  0  0  0  0  0  0
  161.4700  206.4150  150.9980 C   0  0  0  0  0  2  0  0  0  0  0  0
  160.7670  206.8900  154.6870 C   0  0  0  0  0  3  0  0  0  0  0  0
  161.2420  207.0660  152.3200 C   0  0  0  0  0  0  0  0  0  0  0  0
  161.2360  208.4600  152.4240 C   0  0  0  0  0  3  0  0  0  0  0  0
  161.0060  209.0810  153.6580 C   0  0  0  0  0  0  0  0  0  0  0  0
  161.0030  206.2810  153.4520 C   0  0  0  0  0  3  0  0  0  0  0  0
  160.7660  208.2840  154.7890 C   0  0  0  0  0  3  0  0  0  0  0  0
  160.9880  210.4830  153.7060 O   0  0  0  0  0  0  0  0  0  0  0  0
  156.8640  213.9560  152.5480 O   0  0  0  0  0  0  0  0  0  0  0  0
  158.6730  211.3570  154.1900 C   0  0  0  0  0  3  0  0  0  0  0  0
  157.7800  213.1230  152.7760 C   0  0  0  0  0  0  0  0  0  0  0  0
  159.9100  211.3190  153.3780 C   0  0  0  0  0  0  0  0  0  0  0  0
  156.4650  212.1900  154.7850 C   0  0  0  0  0  1  0  0  0  0  0  0
  157.6760  212.1970  153.9190 C   0  0  0  0  0  0  0  0  0  0  0  0
  160.0430  212.1270  152.3210 C   0  0  0  0  0  3  0  0  0  0  0  0
  158.9650  213.0700  151.8530 C   0  0  0  0  0  2  0  0  0  0  0  0
  160.8950  203.5730  149.0650 C   0  0  0  0  0  2  0  0  0  0  0  0
  159.5380  201.4980  149.1940 C   0  0  0  0  0  1  0  0  0  0  0  0
  160.9400  202.0520  148.9920 C   0  0  1  0  0  3  0  0  0  0  0  0
  161.4440  200.2030  147.5370 O   0  0  0  0  0  1  0  0  0  0  0  0
  161.5030  201.5980  147.6430 C   0  0  1  0  0  3  0  0  0  0  0  0
  160.2880  201.2610  145.5950 O   0  0  0  0  0  1  0  0  0  0  0  0
  160.7510  202.2430  146.4780 C   0  0  2  0  0  3  0  0  0  0  0  0
  161.6560  203.2240  145.7460 C   0  0  0  0  0  2  0  0  0  0  0  0
  160.8610  204.1120  144.7980 C   0  0  0  0  0  2  0  0  0  0  0  0
  161.0720  205.5180  145.1080 N   0  0  0  0  0  0  0  0  0  0  0  0
  160.7350  206.8520  147.0710 C   0  0  0  0  0  2  0  0  0  0  0  0
  160.0820  205.8840  146.1090 C   0  0  0  0  0  2  0  0  0  0  0  0
  162.2200  206.6870  146.8570 C   0  0  1  0  0  3  0  0  0  0  0  0
  162.8200  206.2390  148.0330 O   0  0  0  0  0  1  0  0  0  0  0  0
  162.3580  205.6320  145.7840 C   0  0  0  0  0  2  0  0  0  0  0  0
  2  3  1  0  0  0  0
  2  1  2  0  0  0  0
  3  4  1  0  0  0  0
  4  6  1  0  0  0  0
  5 10  1  0  0  0  0
  6  7  2  0  0  0  0
  6  9  1  0  0  0  0
  7  8  1  0  0  0  0
  8 11  1  0  0  0  0
  8 10  2  0  0  0  0
  9  5  2  0  0  0  0
 12 14  2  0  0  0  0
 14 17  1  0  0  0  0
 15 11  1  0  0  0  0
 15 13  1  0  0  0  0
 17 13  2  0  0  0  0
 17 16  1  0  0  0  0
 18 15  2  0  0  0  0
 19 18  1  0  0  0  0
 19 14  1  0  0  0  0
 20  2  1  0  0  0  0
 22 20  1  0  0  0  0
 22 21  1  6  0  0  0
 24 23  1  6  0  0  0
 24 22  1  0  0  0  0
 26 25  1  6  0  0  0
 26 24  1  0  0  0  0
 27 26  1  0  0  0  0
 28 29  1  0  0  0  0
 28 27  1  0  0  0  0
 29 34  1  0  0  0  0
 29 31  1  0  0  0  0
 31 30  1  0  0  0  0
 32 30  1  0  0  0  0
 32 33  1  1  0  0  0
 34 32  1  0  0  0  0
M  END
>  <MODEL>
4

>  <REMARK>
 VINA RESULT:      -7.4      1.642      3.596
  Name = 
  12 active torsions:
  status: ('A' for Active; 'I' for Inactive)
    1  A    between atoms: C_1  and  O_12
    2  A    between atoms: C_1  and  C_14
    3  A    between atoms: N_3  and  C_21
    4  A    between atoms: C_4  and  C_21
    5  A    between atoms: C_4  and  C_24
    6  A    between atoms: C_7  and  O_12
    7  A    between atoms: C_7  and  C_13
    8  A    between atoms: O_8  and  C_19
    9  A    between atoms: O_8  and  C_25
   10  A    between atoms: C_13  and  C_32
   11  A    between atoms: C_23  and  C_24
   12  A    between atoms: C_23  and  C_32
                            x       y       z     vdW  Elec       q    Type
                         _______ _______ _______ _____ _____    ______ ____

>  <TORSDO>
F 12

$$$$
=
 OpenBabel11072413123D

 34 36  0  0  1  0  0  0  0  0999 V2000
  160.2230  206.2640  148.4280 O   0  0  0  0  0  0  0  0  0  0  0  0
  160.6230  205.8920  149.5650 C   0  0  0  0  0  0  0  0  0  0  0  0
  161.6040  206.6120  150.2510 O   0  0  0  0  0  0  0  0  0  0  0  0
  161.4290  207.9730  150.6280 C   0  0  0  0  0  2  0  0  0  0  0  0
  160.9820  207.0280  154.2660 C   0  0  0  0  0  3  0  0  0  0  0  0
  161.1950  208.0800  152.0960 C   0  0  0  0  0  0  0  0  0  0  0  0
  160.9120  209.3220  152.6730 C   0  0  0  0  0  3  0  0  0  0  0  0
  160.6730  209.4310  154.0480 C   0  0  0  0  0  0  0  0  0  0  0  0
  161.2240  206.9320  152.8930 C   0  0  0  0  0  3  0  0  0  0  0  0
  160.7050  208.2720  154.8400 C   0  0  0  0  0  3  0  0  0  0  0  0
  160.3730  210.6970  154.5740 O   0  0  0  0  0  0  0  0  0  0  0  0
  155.4210  213.0940  154.2050 O   0  0  0  0  0  0  0  0  0  0  0  0
  158.8400  212.3750  153.4840 C   0  0  0  0  0  3  0  0  0  0  0  0
  156.5680  212.5900  154.3270 C   0  0  0  0  0  0  0  0  0  0  0  0
  159.1360  211.3560  154.5160 C   0  0  0  0  0  0  0  0  0  0  0  0
  157.4110  213.9620  152.3150 C   0  0  0  0  0  1  0  0  0  0  0  0
  157.6440  212.9540  153.3860 C   0  0  0  0  0  0  0  0  0  0  0  0
  158.1990  211.0070  155.4020 C   0  0  0  0  0  3  0  0  0  0  0  0
  156.8300  211.6360  155.4580 C   0  0  0  0  0  2  0  0  0  0  0  0
  160.0690  204.6470  150.1680 C   0  0  0  0  0  2  0  0  0  0  0  0
  160.8410  203.5280  152.2450 C   0  0  0  0  0  1  0  0  0  0  0  0
  161.1790  203.8090  150.7880 C   0  0  1  0  0  3  0  0  0  0  0  0
  160.9130  201.4180  150.7960 O   0  0  0  0  0  1  0  0  0  0  0  0
  161.3520  202.4970  150.0200 C   0  0  1  0  0  3  0  0  0  0  0  0
  159.7140  201.4430  148.6090 O   0  0  0  0  0  1  0  0  0  0  0  0
  160.5970  202.5240  148.6900 C   0  0  2  0  0  3  0  0  0  0  0  0
  161.5790  202.4880  147.5270 C   0  0  0  0  0  2  0  0  0  0  0  0
  160.8530  202.4250  146.1890 C   0  0  0  0  0  2  0  0  0  0  0  0
  161.4570  203.3380  145.2300 N   0  0  0  0  0  0  0  0  0  0  0  0
  161.0400  205.6190  144.6220 C   0  0  0  0  0  2  0  0  0  0  0  0
  160.4110  204.2540  144.8020 C   0  0  0  0  0  2  0  0  0  0  0  0
  162.3480  205.5590  145.3730 C   0  0  1  0  0  3  0  0  0  0  0  0
  162.3440  206.4940  146.4060 O   0  0  0  0  0  1  0  0  0  0  0  0
  162.4160  204.1640  145.9520 C   0  0  0  0  0  2  0  0  0  0  0  0
  1  2  2  0  0  0  0
  2 20  1  0  0  0  0
  2  3  1  0  0  0  0
  3  4  1  0  0  0  0
  4  6  1  0  0  0  0
  5 10  1  0  0  0  0
  6  7  2  0  0  0  0
  6  9  1  0  0  0  0
  7  8  1  0  0  0  0
  8 11  1  0  0  0  0
  8 10  2  0  0  0  0
  9  5  2  0  0  0  0
 12 14  2  0  0  0  0
 13 15  1  0  0  0  0
 14 19  1  0  0  0  0
 15 11  1  0  0  0  0
 15 18  2  0  0  0  0
 16 17  1  0  0  0  0
 17 13  2  0  0  0  0
 17 14  1  0  0  0  0
 18 19  1  0  0  0  0
 20 22  1  0  0  0  0
 22 21  1  1  0  0  0
 24 22  1  0  0  0  0
 24 23  1  1  0  0  0
 26 25  1  1  0  0  0
 26 24  1  0  0  0  0
 27 26  1  0  0  0  0
 28 27  1  0  0  0  0
 29 34  1  0  0  0  0
 29 28  1  0  0  0  0
 30 31  1  0  0  0  0
 30 32  1  0  0  0  0
 31 29  1  0  0  0  0
 32 34  1  0  0  0  0
 32 33  1  1  0  0  0
M  END
>  <MODEL>
5

>  <REMARK>
 VINA RESULT:      -7.4      1.461      3.477
  Name = 
  12 active torsions:
  status: ('A' for Active; 'I' for Inactive)
    1  A    between atoms: C_1  and  O_12
    2  A    between atoms: C_1  and  C_14
    3  A    between atoms: N_3  and  C_21
    4  A    between atoms: C_4  and  C_21
    5  A    between atoms: C_4  and  C_24
    6  A    between atoms: C_7  and  O_12
    7  A    between atoms: C_7  and  C_13
    8  A    between atoms: O_8  and  C_19
    9  A    between atoms: O_8  and  C_25
   10  A    between atoms: C_13  and  C_32
   11  A    between atoms: C_23  and  C_24
   12  A    between atoms: C_23  and  C_32
                            x       y       z     vdW  Elec       q    Type
                         _______ _______ _______ _____ _____    ______ ____

>  <TORSDO>
F 12

$$$$
=
 OpenBabel11072413123D

 34 36  0  0  1  0  0  0  0  0999 V2000
  162.3450  209.5140  151.6440 O   0  0  0  0  0  0  0  0  0  0  0  0
  161.3010  208.9530  152.0710 C   0  0  0  0  0  0  0  0  0  0  0  0
  160.5170  209.5520  153.0600 O   0  0  0  0  0  0  0  0  0  0  0  0
  160.8160  210.8350  153.5970 C   0  0  0  0  0  2  0  0  0  0  0  0
  157.7060  212.9840  153.3850 C   0  0  0  0  0  3  0  0  0  0  0  0
  159.8250  211.8420  153.1210 C   0  0  0  0  0  0  0  0  0  0  0  0
  160.0550  212.5490  151.9360 C   0  0  0  0  0  3  0  0  0  0  0  0
  159.1230  213.4840  151.4720 C   0  0  0  0  0  0  0  0  0  0  0  0
  158.6460  212.0570  153.8420 C   0  0  0  0  0  3  0  0  0  0  0  0
  157.9430  213.6920  152.2040 C   0  0  0  0  0  3  0  0  0  0  0  0
  159.3910  214.1520  150.2670 O   0  0  0  0  0  0  0  0  0  0  0  0
  159.8220  212.1090  145.1630 O   0  0  0  0  0  0  0  0  0  0  0  0
  158.3000  213.2640  148.1750 C   0  0  0  0  0  3  0  0  0  0  0  0
  159.7240  212.5190  146.3490 C   0  0  0  0  0  0  0  0  0  0  0  0
  159.4930  213.5720  148.9930 C   0  0  0  0  0  0  0  0  0  0  0  0
  157.1530  212.5000  146.1680 C   0  0  0  0  0  1  0  0  0  0  0  0
  158.3970  212.7750  146.9400 C   0  0  0  0  0  0  0  0  0  0  0  0
  160.7170  213.3390  148.5080 C   0  0  0  0  0  3  0  0  0  0  0  0
  160.9730  212.7170  147.1600 C   0  0  0  0  0  2  0  0  0  0  0  0
  160.9190  207.6130  151.5430 C   0  0  0  0  0  2  0  0  0  0  0  0
  161.2760  206.0380  153.4290 C   0  0  0  0  0  1  0  0  0  0  0  0
  161.8340  206.5310  152.1020 C   0  0  1  0  0  3  0  0  0  0  0  0
  162.3270  204.1980  151.7830 O   0  0  0  0  0  1  0  0  0  0  0  0
  161.9580  205.3710  151.1130 C   0  0  1  0  0  3  0  0  0  0  0  0
  160.0370  203.9640  150.7720 O   0  0  0  0  0  1  0  0  0  0  0  0
  160.6520  205.1460  150.3480 C   0  0  2  0  0  3  0  0  0  0  0  0
  160.9230  205.0910  148.8510 C   0  0  0  0  0  2  0  0  0  0  0  0
  160.6520  206.4350  148.1870 C   0  0  0  0  0  2  0  0  0  0  0  0
  161.3810  206.5480  146.9320 N   0  0  0  0  0  0  0  0  0  0  0  0
  162.5740  204.9860  145.5610 C   0  0  0  0  0  2  0  0  0  0  0  0
  162.4310  205.5420  146.9610 C   0  0  0  0  0  2  0  0  0  0  0  0
  161.3030  205.3730  144.8450 C   0  0  1  0  0  3  0  0  0  0  0  0
  160.6140  204.2270  144.4530 O   0  0  0  0  0  1  0  0  0  0  0  0
  160.4830  206.1330  145.8630 C   0  0  0  0  0  2  0  0  0  0  0  0
  1  2  2  0  0  0  0
  2  3  1  0  0  0  0
  3  4  1  0  0  0  0
  5  9  1  0  0  0  0
  6  4  1  0  0  0  0
  6  9  2  0  0  0  0
  7  6  1  0  0  0  0
  8  7  2  0  0  0  0
  8 10  1  0  0  0  0
 10  5  2  0  0  0  0
 11  8  1  0  0  0  0
 12 14  2  0  0  0  0
 13 15  1  0  0  0  0
 14 17  1  0  0  0  0
 14 19  1  0  0  0  0
 15 11  1  0  0  0  0
 16 17  1  0  0  0  0
 17 13  2  0  0  0  0
 18 15  2  0  0  0  0
 19 18  1  0  0  0  0
 20  2  1  0  0  0  0
 20 22  1  0  0  0  0
 22 21  1  1  0  0  0
 24 23  1  1  0  0  0
 24 22  1  0  0  0  0
 26 25  1  1  0  0  0
 26 24  1  0  0  0  0
 27 26  1  0  0  0  0
 28 27  1  0  0  0  0
 29 31  1  0  0  0  0
 29 28  1  0  0  0  0
 30 31  1  0  0  0  0
 32 33  1  1  0  0  0
 32 30  1  0  0  0  0
 32 34  1  0  0  0  0
 34 29  1  0  0  0  0
M  END
>  <MODEL>
6

>  <REMARK>
 VINA RESULT:      -7.3      3.204      6.124
  Name = 
  12 active torsions:
  status: ('A' for Active; 'I' for Inactive)
    1  A    between atoms: C_1  and  O_12
    2  A    between atoms: C_1  and  C_14
    3  A    between atoms: N_3  and  C_21
    4  A    between atoms: C_4  and  C_21
    5  A    between atoms: C_4  and  C_24
    6  A    between atoms: C_7  and  O_12
    7  A    between atoms: C_7  and  C_13
    8  A    between atoms: O_8  and  C_19
    9  A    between atoms: O_8  and  C_25
   10  A    between atoms: C_13  and  C_32
   11  A    between atoms: C_23  and  C_24
   12  A    between atoms: C_23  and  C_32
                            x       y       z     vdW  Elec       q    Type
                         _______ _______ _______ _____ _____    ______ ____

>  <TORSDO>
F 12

$$$$
=
 OpenBabel11072413123D

 34 36  0  0  1  0  0  0  0  0999 V2000
  162.5430  207.4210  150.9260 O   0  0  0  0  0  0  0  0  0  0  0  0
  161.8230  206.7080  151.6770 C   0  0  0  0  0  0  0  0  0  0  0  0
  160.9250  207.2910  152.5740 O   0  0  0  0  0  0  0  0  0  0  0  0
  160.8200  206.8720  153.9290 C   0  0  0  0  0  2  0  0  0  0  0  0
  161.6340  208.8630  157.0440 C   0  0  0  0  0  3  0  0  0  0  0  0
  161.0540  208.0210  154.8490 C   0  0  0  0  0  0  0  0  0  0  0  0
  160.8590  209.3310  154.4000 C   0  0  0  0  0  3  0  0  0  0  0  0
  161.0600  210.4160  155.2620 C   0  0  0  0  0  0  0  0  0  0  0  0
  161.4360  207.7880  156.1740 C   0  0  0  0  0  3  0  0  0  0  0  0
  161.4440  210.1710  156.5900 C   0  0  0  0  0  3  0  0  0  0  0  0
  160.8310  211.7100  154.7680 O   0  0  0  0  0  0  0  0  0  0  0  0
  156.1900  213.8950  152.7430 O   0  0  0  0  0  0  0  0  0  0  0  0
  158.4220  212.3850  155.0810 C   0  0  0  0  0  3  0  0  0  0  0  0
  157.2300  213.3420  153.1890 C   0  0  0  0  0  0  0  0  0  0  0  0
  159.6280  212.2050  154.2430 C   0  0  0  0  0  0  0  0  0  0  0  0
  156.1280  213.0800  155.5030 C   0  0  0  0  0  1  0  0  0  0  0  0
  157.3000  212.9170  154.6000 C   0  0  0  0  0  0  0  0  0  0  0  0
  159.6070  212.5590  152.9540 C   0  0  0  0  0  3  0  0  0  0  0  0
  158.3840  213.0990  152.2590 C   0  0  0  0  0  2  0  0  0  0  0  0
  161.9620  205.2250  151.6340 C   0  0  0  0  0  2  0  0  0  0  0  0
  160.6130  205.4890  149.5660 C   0  0  0  0  0  1  0  0  0  0  0  0
  160.8630  204.6060  150.7800 C   0  0  1  0  0  3  0  0  0  0  0  0
  161.0380  202.2810  151.3740 O   0  0  0  0  0  1  0  0  0  0  0  0
  161.2600  203.1960  150.3380 C   0  0  1  0  0  3  0  0  0  0  0  0
  159.6350  201.7010  149.3850 O   0  0  0  0  0  1  0  0  0  0  0  0
  160.4940  202.7640  149.0870 C   0  0  2  0  0  3  0  0  0  0  0  0
  161.4660  202.3630  147.9870 C   0  0  0  0  0  2  0  0  0  0  0  0
  160.8020  202.4070  146.6160 C   0  0  0  0  0  2  0  0  0  0  0  0
  161.5790  203.2200  145.6920 N   0  0  0  0  0  0  0  0  0  0  0  0
  161.2140  205.3430  144.6400 C   0  0  0  0  0  2  0  0  0  0  0  0
  160.6280  203.9690  144.8850 C   0  0  0  0  0  2  0  0  0  0  0  0
  162.2960  205.5070  145.6790 C   0  0  1  0  0  3  0  0  0  0  0  0
  161.9910  206.5790  146.5150 O   0  0  0  0  0  1  0  0  0  0  0  0
  162.2880  204.2230  146.4770 C   0  0  0  0  0  2  0  0  0  0  0  0
  1  2  2  0  0  0  0
  2  3  1  0  0  0  0
  3  4  1  0  0  0  0
  4  6  1  0  0  0  0
  6  9  1  0  0  0  0
  7  6  2  0  0  0  0
  7  8  1  0  0  0  0
  8 10  2  0  0  0  0
  9  5  2  0  0  0  0
 10  5  1  0  0  0  0
 11  8  1  0  0  0  0
 12 14  2  0  0  0  0
 14 17  1  0  0  0  0
 15 11  1  0  0  0  0
 15 13  1  0  0  0  0
 17 13  2  0  0  0  0
 17 16  1  0  0  0  0
 18 15  2  0  0  0  0
 19 18  1  0  0  0  0
 19 14  1  0  0  0  0
 20  2  1  0  0  0  0
 22 21  1  6  0  0  0
 22 20  1  0  0  0  0
 24 22  1  0  0  0  0
 24 23  1  1  0  0  0
 26 25  1  1  0  0  0
 26 24  1  0  0  0  0
 27 26  1  0  0  0  0
 28 27  1  0  0  0  0
 29 34  1  0  0  0  0
 29 28  1  0  0  0  0
 30 31  1  0  0  0  0
 30 32  1  0  0  0  0
 31 29  1  0  0  0  0
 32 34  1  0  0  0  0
 32 33  1  1  0  0  0
M  END
>  <MODEL>
7

>  <REMARK>
 VINA RESULT:      -7.1      1.873      3.947
  Name = 
  12 active torsions:
  status: ('A' for Active; 'I' for Inactive)
    1  A    between atoms: C_1  and  O_12
    2  A    between atoms: C_1  and  C_14
    3  A    between atoms: N_3  and  C_21
    4  A    between atoms: C_4  and  C_21
    5  A    between atoms: C_4  and  C_24
    6  A    between atoms: C_7  and  O_12
    7  A    between atoms: C_7  and  C_13
    8  A    between atoms: O_8  and  C_19
    9  A    between atoms: O_8  and  C_25
   10  A    between atoms: C_13  and  C_32
   11  A    between atoms: C_23  and  C_24
   12  A    between atoms: C_23  and  C_32
                            x       y       z     vdW  Elec       q    Type
                         _______ _______ _______ _____ _____    ______ ____

>  <TORSDO>
F 12

$$$$
=
 OpenBabel11072413123D

 34 36  0  0  1  0  0  0  0  0999 V2000
  161.1360  205.5410  153.8920 O   0  0  0  0  0  0  0  0  0  0  0  0
  161.0640  206.8000  153.9320 C   0  0  0  0  0  0  0  0  0  0  0  0
  160.5280  207.5220  152.8630 O   0  0  0  0  0  0  0  0  0  0  0  0
  161.0760  208.7600  152.4270 C   0  0  0  0  0  2  0  0  0  0  0  0
  162.2810  209.7550  148.9800 C   0  0  0  0  0  3  0  0  0  0  0  0
  161.4450  208.6860  150.9850 C   0  0  0  0  0  0  0  0  0  0  0  0
  161.2500  207.5010  150.2700 C   0  0  0  0  0  3  0  0  0  0  0  0
  161.5770  207.4270  148.9110 C   0  0  0  0  0  0  0  0  0  0  0  0
  161.9570  209.8150  150.3370 C   0  0  0  0  0  3  0  0  0  0  0  0
  162.0900  208.5660  148.2690 C   0  0  0  0  0  3  0  0  0  0  0  0
  161.3430  206.2200  148.2330 O   0  0  0  0  0  0  0  0  0  0  0  0
  160.7620  201.2660  150.5840 O   0  0  0  0  0  0  0  0  0  0  0  0
  161.2090  203.7110  148.0250 C   0  0  0  0  0  3  0  0  0  0  0  0
  160.8350  202.3990  150.0390 C   0  0  0  0  0  0  0  0  0  0  0  0
  161.1320  204.9610  148.8140 C   0  0  0  0  0  0  0  0  0  0  0  0
  161.1770  201.2950  147.7360 C   0  0  0  0  0  1  0  0  0  0  0  0
  161.0750  202.5110  148.5880 C   0  0  0  0  0  0  0  0  0  0  0  0
  160.8980  204.9100  150.1290 C   0  0  0  0  0  3  0  0  0  0  0  0
  160.6490  203.6280  150.8810 C   0  0  0  0  0  2  0  0  0  0  0  0
  161.5950  207.5280  155.1190 C   0  0  0  0  0  2  0  0  0  0  0  0
  160.0750  206.9540  156.9970 C   0  0  0  0  0  1  0  0  0  0  0  0
  160.4550  208.0340  155.9950 C   0  0  1  0  0  3  0  0  0  0  0  0
  162.2350  209.2790  157.0290 O   0  0  0  0  0  1  0  0  0  0  0  0
  160.8700  209.3130  156.7240 C   0  0  1  0  0  3  0  0  0  0  0  0
  160.3210  211.6550  156.7300 O   0  0  0  0  0  1  0  0  0  0  0  0
  160.5520  210.5580  155.8940 C   0  0  2  0  0  3  0  0  0  0  0  0
  159.3380  210.3060  155.0100 C   0  0  0  0  0  2  0  0  0  0  0  0
  158.2000  211.2610  155.3450 C   0  0  0  0  0  2  0  0  0  0  0  0
  157.7180  211.9310  154.1460 N   0  0  0  0  0  0  0  0  0  0  0  0
  158.4520  213.8470  152.9080 C   0  0  0  0  0  2  0  0  0  0  0  0
  158.0650  213.3370  154.2790 C   0  0  0  0  0  2  0  0  0  0  0  0
  158.7410  212.6120  152.0890 C   0  0  1  0  0  3  0  0  0  0  0  0
  160.0710  212.6200  151.6750 O   0  0  0  0  0  1  0  0  0  0  0  0
  158.5090  211.4460  153.0230 C   0  0  0  0  0  2  0  0  0  0  0  0
  1  2  2  0  0  0  0
  2 20  1  0  0  0  0
  3  2  1  0  0  0  0
  4  3  1  0  0  0  0
  5  9  1  0  0  0  0
  6  4  1  0  0  0  0
  7  6  1  0  0  0  0
  8  7  2  0  0  0  0
  9  6  2  0  0  0  0
 10  8  1  0  0  0  0
 10  5  2  0  0  0  0
 11 15  1  0  0  0  0
 11  8  1  0  0  0  0
 13 17  2  0  0  0  0
 13 15  1  0  0  0  0
 14 12  2  0  0  0  0
 14 19  1  0  0  0  0
 15 18  2  0  0  0  0
 16 17  1  0  0  0  0
 17 14  1  0  0  0  0
 18 19  1  0  0  0  0
 20 22  1  0  0  0  0
 22 24  1  0  0  0  0
 22 21  1  1  0  0  0
 24 23  1  6  0  0  0
 26 24  1  0  0  0  0
 26 25  1  1  0  0  0
 27 28  1  0  0  0  0
 27 26  1  0  0  0  0
 29 31  1  0  0  0  0
 29 28  1  0  0  0  0
 30 31  1  0  0  0  0
 32 33  1  1  0  0  0
 32 30  1  0  0  0  0
 32 34  1  0  0  0  0
 34 29  1  0  0  0  0
M  END
>  <MODEL>
8

>  <REMARK>
 VINA RESULT:      -7.0      2.850      9.665
  Name = 
  12 active torsions:
  status: ('A' for Active; 'I' for Inactive)
    1  A    between atoms: C_1  and  O_12
    2  A    between atoms: C_1  and  C_14
    3  A    between atoms: N_3  and  C_21
    4  A    between atoms: C_4  and  C_21
    5  A    between atoms: C_4  and  C_24
    6  A    between atoms: C_7  and  O_12
    7  A    between atoms: C_7  and  C_13
    8  A    between atoms: O_8  and  C_19
    9  A    between atoms: O_8  and  C_25
   10  A    between atoms: C_13  and  C_32
   11  A    between atoms: C_23  and  C_24
   12  A    between atoms: C_23  and  C_32
                            x       y       z     vdW  Elec       q    Type
                         _______ _______ _______ _____ _____    ______ ____

>  <TORSDO>
F 12

$$$$
=
 OpenBabel11072413123D

 34 36  0  0  1  0  0  0  0  0999 V2000
  161.8980  210.0910  153.1160 O   0  0  0  0  0  0  0  0  0  0  0  0
  161.8330  209.7170  151.9130 C   0  0  0  0  0  0  0  0  0  0  0  0
  162.3670  210.5010  150.8880 O   0  0  0  0  0  0  0  0  0  0  0  0
  161.9250  210.4000  149.5400 C   0  0  0  0  0  2  0  0  0  0  0  0
  160.9940  214.0430  149.1050 C   0  0  0  0  0  3  0  0  0  0  0  0
  161.7700  211.7560  148.9400 C   0  0  0  0  0  0  0  0  0  0  0  0
  162.2010  211.9980  147.6320 C   0  0  0  0  0  3  0  0  0  0  0  0
  162.0430  213.2630  147.0530 C   0  0  0  0  0  0  0  0  0  0  0  0
  161.1610  212.7780  149.6740 C   0  0  0  0  0  3  0  0  0  0  0  0
  161.4310  214.2830  147.7990 C   0  0  0  0  0  3  0  0  0  0  0  0
  162.4740  213.4490  145.7300 O   0  0  0  0  0  0  0  0  0  0  0  0
  159.9200  211.5130  141.2430 O   0  0  0  0  0  0  0  0  0  0  0  0
  162.5410  212.7900  143.2980 C   0  0  0  0  0  3  0  0  0  0  0  0
  160.4890  212.0100  142.2490 C   0  0  0  0  0  0  0  0  0  0  0  0
  161.8170  213.0180  144.5680 C   0  0  0  0  0  0  0  0  0  0  0  0
  162.7250  212.1000  140.9710 C   0  0  0  0  0  1  0  0  0  0  0  0
  161.9320  212.3170  142.2120 C   0  0  0  0  0  0  0  0  0  0  0  0
  160.5050  212.7720  144.6450 C   0  0  0  0  0  3  0  0  0  0  0  0
  159.6750  212.3100  143.4760 C   0  0  0  0  0  2  0  0  0  0  0  0
  161.1400  208.4410  151.5780 C   0  0  0  0  0  2  0  0  0  0  0  0
  160.8210  206.8680  153.4730 C   0  0  0  0  0  1  0  0  0  0  0  0
  161.7560  207.2770  152.3440 C   0  0  1  0  0  3  0  0  0  0  0  0
  162.6080  205.0400  152.1050 O   0  0  0  0  0  1  0  0  0  0  0  0
  162.0070  206.0940  151.4070 C   0  0  1  0  0  3  0  0  0  0  0  0
  160.4130  204.3100  151.1610 O   0  0  0  0  0  1  0  0  0  0  0  0
  160.7110  205.6140  150.7520 C   0  0  2  0  0  3  0  0  0  0  0  0
  160.8340  205.6740  149.2360 C   0  0  0  0  0  2  0  0  0  0  0  0
  161.2680  204.3320  148.6600 C   0  0  0  0  0  2  0  0  0  0  0  0
  161.9340  204.5100  147.3790 N   0  0  0  0  0  0  0  0  0  0  0  0
  161.2800  204.1370  145.1030 C   0  0  0  0  0  2  0  0  0  0  0  0
  161.3890  203.5080  146.4760 C   0  0  0  0  0  2  0  0  0  0  0  0
  161.3560  205.6260  145.3380 C   0  0  1  0  0  3  0  0  0  0  0  0
  160.1750  206.2320  144.9160 O   0  0  0  0  0  1  0  0  0  0  0  0
  161.5050  205.7910  146.8340 C   0  0  0  0  0  2  0  0  0  0  0  0
  2  1  2  0  0  0  0
  3  2  1  0  0  0  0
  4  3  1  0  0  0  0
  5  9  1  0  0  0  0
  6  4  1  0  0  0  0
  6  9  2  0  0  0  0
  7  6  1  0  0  0  0
  8  7  2  0  0  0  0
  8 10  1  0  0  0  0
 10  5  2  0  0  0  0
 11  8  1  0  0  0  0
 12 14  2  0  0  0  0
 13 15  1  0  0  0  0
 14 19  1  0  0  0  0
 15 18  2  0  0  0  0
 15 11  1  0  0  0  0
 16 17  1  0  0  0  0
 17 14  1  0  0  0  0
 17 13  2  0  0  0  0
 19 18  1  0  0  0  0
 20  2  1  0  0  0  0
 20 22  1  0  0  0  0
 22 21  1  1  0  0  0
 24 23  1  1  0  0  0
 24 22  1  0  0  0  0
 26 25  1  6  0  0  0
 26 24  1  0  0  0  0
 27 26  1  0  0  0  0
 28 27  1  0  0  0  0
 29 28  1  0  0  0  0
 30 32  1  0  0  0  0
 30 31  1  0  0  0  0
 31 29  1  0  0  0  0
 32 33  1  1  0  0  0
 32 34  1  0  0  0  0
 34 29  1  0  0  0  0
M  END
>  <MODEL>
9

>  <REMARK>
 VINA RESULT:      -6.9      4.410      7.852
  Name = 
  12 active torsions:
  status: ('A' for Active; 'I' for Inactive)
    1  A    between atoms: C_1  and  O_12
    2  A    between atoms: C_1  and  C_14
    3  A    between atoms: N_3  and  C_21
    4  A    between atoms: C_4  and  C_21
    5  A    between atoms: C_4  and  C_24
    6  A    between atoms: C_7  and  O_12
    7  A    between atoms: C_7  and  C_13
    8  A    between atoms: O_8  and  C_19
    9  A    between atoms: O_8  and  C_25
   10  A    between atoms: C_13  and  C_32
   11  A    between atoms: C_23  and  C_24
   12  A    between atoms: C_23  and  C_32
                            x       y       z     vdW  Elec       q    Type
                         _______ _______ _______ _____ _____    ______ ____

>  <TORSDO>
F 12

$$$$
