=
 OpenBabel11072410473D

 38 40  0  0  1  0  0  0  0  0999 V2000
  160.8050  208.7860  152.9870 C   0  0  1  0  0  3  0  0  0  0  0  0
  162.2430  208.0260  150.4580 C   0  0  2  0  0  3  0  0  0  0  0  0
  161.0440  209.7940  151.8450 C   0  0  0  0  0  2  0  0  0  0  0  0
  161.2850  207.3620  152.6750 C   0  0  0  0  0  2  0  0  0  0  0  0
  161.2700  207.0850  151.1770 C   0  0  0  0  0  2  0  0  0  0  0  0
  162.2890  209.4530  151.0250 C   0  0  0  0  0  2  0  0  0  0  0  0
  162.0420  208.0170  148.9720 C   0  0  0  0  0  0  0  0  0  0  0  0
  162.5300  208.9610  148.2990 O   0  0  0  0  0  0  0  0  0  0  0  0
  161.3210  207.0200  148.3060 O   0  0  0  0  0  0  0  0  0  0  0  0
  161.7290  206.4490  147.0710 C   0  0  0  0  0  2  0  0  0  0  0  0
  160.5440  206.3360  146.1240 C   0  0  0  0  0  2  0  0  0  0  0  0
  160.7460  205.2190  145.1090 C   0  0  1  0  0  3  0  0  0  0  0  0
  161.3460  205.7350  143.9590 O   0  0  0  0  0  1  0  0  0  0  0  0
  161.5980  204.0960  145.6950 C   0  0  2  0  0  3  0  0  0  0  0  0
  162.8180  203.9950  145.0200 O   0  0  0  0  0  1  0  0  0  0  0  0
  160.8510  202.7710  145.6340 C   0  0  0  0  0  2  0  0  0  0  0  0
  161.1890  201.1600  148.8850 C   0  0  0  0  0  0  0  0  0  0  0  0
  160.8470  203.6010  150.0880 C   0  0  0  0  0  3  0  0  0  0  0  0
  160.9450  203.5360  148.6890 C   0  0  0  0  0  3  0  0  0  0  0  0
  160.9230  202.4150  150.8520 C   0  0  0  0  0  3  0  0  0  0  0  0
  161.0890  201.2040  150.2380 N   0  0  0  0  0  0  0  0  0  0  0  0
  161.3220  199.9920  148.0940 N   0  0  0  0  0  0  0  0  0  0  0  0
  161.3230  200.4580  146.6960 C   0  0  0  0  0  3  0  0  0  0  0  0
  161.2280  201.9230  146.7540 N   0  0  0  0  0  0  0  0  0  0  0  0
  161.1230  202.2760  148.1200 C   0  0  0  0  0  0  0  0  0  0  0  0
  161.9270  210.5440  154.1810 O   0  0  0  0  0  1  0  0  0  0  0  0
  161.3800  209.2660  154.3220 C   0  0  1  0  0  3  0  0  0  0  0  0
  160.3200  209.2340  155.4430 C   0  0  1  0  0  3  0  0  0  0  0  0
  162.0730  208.7470  157.1490 O   0  0  0  0  0  0  0  0  0  0  0  0
  160.8090  208.4800  156.6410 C   0  0  0  0  0  0  0  0  0  0  0  0
  160.0920  207.5960  157.1820 O   0  0  0  0  0  1  0  0  0  0  0  0
  160.3010  210.9800  157.2590 C   0  0  0  0  0  1  0  0  0  0  0  0
  159.8050  210.6150  155.8710 C   0  0  2  0  0  3  0  0  0  0  0  0
  158.3490  210.6870  155.8170 N   0  0  0  0  0  2  0  0  0  0  0  0
  157.9160  211.8490  154.5760 P   0  0  0  0  0  0  0  0  0  0  0  0
  156.2360  212.0430  154.5600 O   0  0  0  0  0  1  0  0  0  0  0  0
  158.4270  211.2900  153.0630 O   0  0  0  0  0  0  0  0  0  0  0  0
  158.5690  213.1800  154.8720 O   0  0  0  0  0  1  0  0  0  0  0  0
  1 27  1  1  0  0  0
  2  7  1  6  0  0  0
  2  6  1  0  0  0  0
  2  5  1  0  0  0  0
  3  1  1  0  0  0  0
  4  1  1  0  0  0  0
  5  4  1  0  0  0  0
  6  3  1  0  0  0  0
  8  7  2  0  0  0  0
  9  7  1  0  0  0  0
 10  9  1  0  0  0  0
 11 10  1  0  0  0  0
 12 13  1  6  0  0  0
 12 14  1  0  0  0  0
 12 11  1  0  0  0  0
 14 15  1  6  0  0  0
 16 14  1  0  0  0  0
 16 24  1  0  0  0  0
 17 21  2  0  0  0  0
 18 20  2  0  0  0  0
 19 18  1  0  0  0  0
 21 20  1  0  0  0  0
 22 17  1  0  0  0  0
 23 24  1  0  0  0  0
 23 22  2  0  0  0  0
 24 25  1  0  0  0  0
 25 19  2  0  0  0  0
 25 17  1  0  0  0  0
 27 26  1  6  0  0  0
 27 28  1  0  0  0  0
 28 33  1  0  0  0  0
 28 30  1  1  0  0  0
 30 29  2  0  0  0  0
 30 31  1  0  0  0  0
 33 32  1  1  0  0  0
 34 33  1  0  0  0  0
 35 38  1  0  0  0  0
 35 34  1  0  0  0  0
 36 35  1  0  0  0  0
 37 35  2  0  0  0  0
M  END
>  <MODEL>
1

>  <REMARK>
 VINA RESULT:      -7.8      0.000      0.000
  Name = 
  14 active torsions:
  status: ('A' for Active; 'I' for Inactive)
    1  A    between atoms: C_1  and  C_3
    2  A    between atoms: C_1  and  C_37
    3  A    between atoms: C_3  and  C_32
    4  A    between atoms: C_4  and  C_29
    5  A    between atoms: C_5  and  C_15
    6  A    between atoms: P_8  and  N_21
    7  A    between atoms: C_13  and  C_24
    8  A    between atoms: C_15  and  O_19
    9  A    between atoms: C_16  and  N_30
   10  A    between atoms: C_16  and  C_32
   11  A    between atoms: O_19  and  C_37
   12  A    between atoms: N_21  and  C_27
   13  A    between atoms: C_24  and  C_27
   14  A    between atoms: C_24  and  C_29
                            x       y       z     vdW  Elec       q    Type
                         _______ _______ _______ _____ _____    ______ ____

>  <TORSDO>
F 14

$$$$
=
 OpenBabel11072410473D

 38 40  0  0  1  0  0  0  0  0999 V2000
  160.9340  208.7690  154.7710 C   0  0  1  0  0  3  0  0  0  0  0  0
  161.0060  207.5440  152.0260 C   0  0  2  0  0  3  0  0  0  0  0  0
  161.3820  207.3130  154.5340 C   0  0  0  0  0  2  0  0  0  0  0  0
  160.6200  209.5450  153.4830 C   0  0  0  0  0  2  0  0  0  0  0  0
  161.4070  208.9980  152.2980 C   0  0  0  0  0  2  0  0  0  0  0  0
  160.7390  206.7070  153.2870 C   0  0  0  0  0  2  0  0  0  0  0  0
  161.9570  206.8620  151.0890 C   0  0  0  0  0  0  0  0  0  0  0  0
  163.1040  206.5690  151.5130 O   0  0  0  0  0  0  0  0  0  0  0  0
  161.6330  206.5560  149.7620 O   0  0  0  0  0  0  0  0  0  0  0  0
  161.3410  207.5390  148.7790 C   0  0  0  0  0  2  0  0  0  0  0  0
  161.9020  207.1180  147.4290 C   0  0  0  0  0  2  0  0  0  0  0  0
  161.0130  206.0800  146.7560 C   0  0  1  0  0  3  0  0  0  0  0  0
  160.4190  206.6380  145.6230 O   0  0  0  0  0  1  0  0  0  0  0  0
  161.8140  204.8360  146.3800 C   0  0  2  0  0  3  0  0  0  0  0  0
  162.6410  205.0930  145.2830 O   0  0  0  0  0  1  0  0  0  0  0  0
  160.8810  203.6730  146.0760 C   0  0  0  0  0  2  0  0  0  0  0  0
  161.0800  201.2400  148.7820 C   0  0  0  0  0  0  0  0  0  0  0  0
  160.8740  203.2900  150.5910 C   0  0  0  0  0  3  0  0  0  0  0  0
  160.9840  203.5930  149.2240 C   0  0  0  0  0  3  0  0  0  0  0  0
  160.8670  201.9420  151.0110 C   0  0  0  0  0  3  0  0  0  0  0  0
  160.9660  200.9300  150.0980 N   0  0  0  0  0  0  0  0  0  0  0  0
  161.1500  200.3170  147.7080 N   0  0  0  0  0  0  0  0  0  0  0  0
  161.1970  201.1360  146.4840 C   0  0  0  0  0  3  0  0  0  0  0  0
  161.1920  202.5360  146.9290 N   0  0  0  0  0  0  0  0  0  0  0  0
  161.0910  202.5210  148.3400 C   0  0  0  0  0  0  0  0  0  0  0  0
  159.6910  207.7140  156.5350 O   0  0  0  0  0  1  0  0  0  0  0  0
  159.7680  208.8720  155.7570 C   0  0  1  0  0  3  0  0  0  0  0  0
  159.8790  210.1310  156.6410 C   0  0  1  0  0  3  0  0  0  0  0  0
  162.2620  209.5710  157.1200 O   0  0  0  0  0  1  0  0  0  0  0  0
  161.3060  210.5390  156.8420 C   0  0  0  0  0  0  0  0  0  0  0  0
  161.6450  211.7500  156.7760 O   0  0  0  0  0  0  0  0  0  0  0  0
  158.2130  211.9180  157.2600 C   0  0  0  0  0  1  0  0  0  0  0  0
  159.0600  211.3320  156.1440 C   0  0  2  0  0  3  0  0  0  0  0  0
  158.2220  210.9770  155.0040 N   0  0  0  0  0  2  0  0  0  0  0  0
  158.0100  212.4190  154.0260 P   0  0  0  0  0  0  0  0  0  0  0  0
  158.3420  212.0460  152.4100 O   0  0  0  0  0  0  0  0  0  0  0  0
  159.0690  213.6290  154.5500 O   0  0  0  0  0  1  0  0  0  0  0  0
  156.5840  212.9080  154.1430 O   0  0  0  0  0  1  0  0  0  0  0  0
  1 27  1  1  0  0  0
  2  7  1  1  0  0  0
  2  5  1  0  0  0  0
  2  6  1  0  0  0  0
  3  1  1  0  0  0  0
  4  1  1  0  0  0  0
  5  4  1  0  0  0  0
  6  3  1  0  0  0  0
  7  8  2  0  0  0  0
  9  7  1  0  0  0  0
 10  9  1  0  0  0  0
 11 10  1  0  0  0  0
 12 13  1  6  0  0  0
 12 11  1  0  0  0  0
 14 15  1  6  0  0  0
 14 12  1  0  0  0  0
 16 14  1  0  0  0  0
 16 24  1  0  0  0  0
 17 21  2  0  0  0  0
 18 20  2  0  0  0  0
 19 18  1  0  0  0  0
 21 20  1  0  0  0  0
 22 17  1  0  0  0  0
 23 24  1  0  0  0  0
 23 22  2  0  0  0  0
 24 25  1  0  0  0  0
 25 17  1  0  0  0  0
 25 19  2  0  0  0  0
 27 26  1  1  0  0  0
 27 28  1  0  0  0  0
 28 30  1  6  0  0  0
 30 29  1  0  0  0  0
 31 30  2  0  0  0  0
 33 28  1  0  0  0  0
 33 32  1  1  0  0  0
 34 33  1  0  0  0  0
 35 38  1  0  0  0  0
 35 37  1  0  0  0  0
 35 34  1  0  0  0  0
 36 35  2  0  0  0  0
M  END
>  <MODEL>
2

>  <REMARK>
 VINA RESULT:      -6.9      1.245      2.139
  Name = 
  14 active torsions:
  status: ('A' for Active; 'I' for Inactive)
    1  A    between atoms: C_1  and  C_3
    2  A    between atoms: C_1  and  C_37
    3  A    between atoms: C_3  and  C_32
    4  A    between atoms: C_4  and  C_29
    5  A    between atoms: C_5  and  C_15
    6  A    between atoms: P_8  and  N_21
    7  A    between atoms: C_13  and  C_24
    8  A    between atoms: C_15  and  O_19
    9  A    between atoms: C_16  and  N_30
   10  A    between atoms: C_16  and  C_32
   11  A    between atoms: O_19  and  C_37
   12  A    between atoms: N_21  and  C_27
   13  A    between atoms: C_24  and  C_27
   14  A    between atoms: C_24  and  C_29
                            x       y       z     vdW  Elec       q    Type
                         _______ _______ _______ _____ _____    ______ ____

>  <TORSDO>
F 14

$$$$
=
 OpenBabel11072410473D

 38 40  0  0  1  0  0  0  0  0999 V2000
  160.4060  209.6660  154.5160 C   0  0  1  0  0  3  0  0  0  0  0  0
  160.9390  207.9460  152.1080 C   0  0  2  0  0  3  0  0  0  0  0  0
  161.2470  208.3770  154.6000 C   0  0  0  0  0  2  0  0  0  0  0  0
  159.9500  210.0250  153.0950 C   0  0  0  0  0  2  0  0  0  0  0  0
  160.9110  209.4760  152.0470 C   0  0  0  0  0  2  0  0  0  0  0  0
  160.8550  207.3610  153.5270 C   0  0  0  0  0  2  0  0  0  0  0  0
  162.0840  207.3700  151.3300 C   0  0  0  0  0  0  0  0  0  0  0  0
  162.3870  207.9040  150.2320 O   0  0  0  0  0  0  0  0  0  0  0  0
  162.8150  206.2570  151.7600 O   0  0  0  0  0  0  0  0  0  0  0  0
  162.2220  205.0080  152.0890 C   0  0  0  0  0  2  0  0  0  0  0  0
  161.4610  204.4540  150.8950 C   0  0  0  0  0  2  0  0  0  0  0  0
  161.2820  202.9450  151.0000 C   0  0  1  0  0  3  0  0  0  0  0  0
  160.5630  202.6400  152.1570 O   0  0  0  0  0  1  0  0  0  0  0  0
  160.5690  202.3920  149.7680 C   0  0  2  0  0  3  0  0  0  0  0  0
  159.8020  201.2720  150.1010 O   0  0  0  0  0  1  0  0  0  0  0  0
  161.5760  202.0370  148.6830 C   0  0  0  0  0  2  0  0  0  0  0  0
  161.1240  203.5920  145.4190 C   0  0  0  0  0  0  0  0  0  0  0  0
  162.2590  205.8890  146.3960 C   0  0  0  0  0  3  0  0  0  0  0  0
  162.0080  204.8220  147.2750 C   0  0  0  0  0  3  0  0  0  0  0  0
  161.9290  205.7630  145.0290 C   0  0  0  0  0  3  0  0  0  0  0  0
  161.3670  204.6100  144.5540 N   0  0  0  0  0  0  0  0  0  0  0  0
  160.5880  202.3230  145.0860 N   0  0  0  0  0  0  0  0  0  0  0  0
  160.5790  201.5550  146.3430 C   0  0  0  0  0  3  0  0  0  0  0  0
  161.0880  202.4630  147.3800 N   0  0  0  0  0  0  0  0  0  0  0  0
  161.4260  203.6770  146.7370 C   0  0  0  0  0  0  0  0  0  0  0  0
  159.2210  208.4790  156.2370 O   0  0  0  0  0  1  0  0  0  0  0  0
  159.2120  209.6500  155.4740 C   0  0  1  0  0  3  0  0  0  0  0  0
  159.1870  210.9020  156.3740 C   0  0  1  0  0  3  0  0  0  0  0  0
  161.5890  211.1580  156.9960 O   0  0  0  0  0  1  0  0  0  0  0  0
  160.4840  211.6490  156.3140 C   0  0  0  0  0  0  0  0  0  0  0  0
  160.5790  212.7240  155.6640 O   0  0  0  0  0  0  0  0  0  0  0  0
  157.0150  211.8460  157.2350 C   0  0  0  0  0  1  0  0  0  0  0  0
  158.0210  211.8630  156.0980 C   0  0  2  0  0  3  0  0  0  0  0  0
  157.3630  211.5590  154.8320 N   0  0  0  0  0  2  0  0  0  0  0  0
  157.0210  213.0800  154.0270 P   0  0  0  0  0  0  0  0  0  0  0  0
  155.3500  213.2330  153.8160 O   0  0  0  0  0  1  0  0  0  0  0  0
  157.7800  213.1140  152.5160 O   0  0  0  0  0  0  0  0  0  0  0  0
  157.5240  214.2280  154.8730 O   0  0  0  0  0  1  0  0  0  0  0  0
  1  3  1  0  0  0  0
  1 27  1  1  0  0  0
  2  7  1  1  0  0  0
  2  6  1  0  0  0  0
  4  1  1  0  0  0  0
  5  2  1  0  0  0  0
  5  4  1  0  0  0  0
  6  3  1  0  0  0  0
  7  9  1  0  0  0  0
  8  7  2  0  0  0  0
  9 10  1  0  0  0  0
 11 12  1  0  0  0  0
 11 10  1  0  0  0  0
 12 13  1  1  0  0  0
 14 15  1  1  0  0  0
 14 12  1  0  0  0  0
 16 14  1  0  0  0  0
 17 25  1  0  0  0  0
 18 19  1  0  0  0  0
 20 18  2  0  0  0  0
 21 20  1  0  0  0  0
 21 17  2  0  0  0  0
 22 17  1  0  0  0  0
 22 23  2  0  0  0  0
 23 24  1  0  0  0  0
 24 16  1  0  0  0  0
 25 19  2  0  0  0  0
 25 24  1  0  0  0  0
 27 26  1  1  0  0  0
 27 28  1  0  0  0  0
 28 30  1  6  0  0  0
 30 29  1  0  0  0  0
 31 30  2  0  0  0  0
 33 28  1  0  0  0  0
 33 32  1  1  0  0  0
 34 33  1  0  0  0  0
 35 34  1  0  0  0  0
 35 38  1  0  0  0  0
 36 35  1  0  0  0  0
 37 35  2  0  0  0  0
M  END
>  <MODEL>
3

>  <REMARK>
 VINA RESULT:      -6.8      2.196      3.889
  Name = 
  14 active torsions:
  status: ('A' for Active; 'I' for Inactive)
    1  A    between atoms: C_1  and  C_3
    2  A    between atoms: C_1  and  C_37
    3  A    between atoms: C_3  and  C_32
    4  A    between atoms: C_4  and  C_29
    5  A    between atoms: C_5  and  C_15
    6  A    between atoms: P_8  and  N_21
    7  A    between atoms: C_13  and  C_24
    8  A    between atoms: C_15  and  O_19
    9  A    between atoms: C_16  and  N_30
   10  A    between atoms: C_16  and  C_32
   11  A    between atoms: O_19  and  C_37
   12  A    between atoms: N_21  and  C_27
   13  A    between atoms: C_24  and  C_27
   14  A    between atoms: C_24  and  C_29
                            x       y       z     vdW  Elec       q    Type
                         _______ _______ _______ _____ _____    ______ ____

>  <TORSDO>
F 14

$$$$
=
 OpenBabel11072410473D

 38 40  0  0  1  0  0  0  0  0999 V2000
  161.7590  210.3180  153.1610 C   0  0  1  0  0  3  0  0  0  0  0  0
  161.2340  208.4000  150.9060 C   0  0  2  0  0  3  0  0  0  0  0  0
  161.2790  208.8740  153.4080 C   0  0  0  0  0  2  0  0  0  0  0  0
  162.0230  210.6470  151.6850 C   0  0  0  0  0  2  0  0  0  0  0  0
  162.3970  209.3980  150.8950 C   0  0  0  0  0  2  0  0  0  0  0  0
  160.4660  208.3280  152.2350 C   0  0  0  0  0  2  0  0  0  0  0  0
  161.6500  207.0430  150.4220 C   0  0  0  0  0  0  0  0  0  0  0  0
  162.2650  206.2890  151.2180 O   0  0  0  0  0  0  0  0  0  0  0  0
  161.4010  206.5880  149.1220 O   0  0  0  0  0  0  0  0  0  0  0  0
  162.2960  206.7870  148.0370 C   0  0  0  0  0  2  0  0  0  0  0  0
  161.6350  206.3850  146.7270 C   0  0  0  0  0  2  0  0  0  0  0  0
  162.5590  205.5210  145.8790 C   0  0  1  0  0  3  0  0  0  0  0  0
  163.4610  204.8500  146.7070 O   0  0  0  0  0  1  0  0  0  0  0  0
  161.7610  204.5240  145.0430 C   0  0  2  0  0  3  0  0  0  0  0  0
  161.2940  205.1240  143.8690 O   0  0  0  0  0  1  0  0  0  0  0  0
  160.5960  203.9640  145.8470 C   0  0  0  0  0  2  0  0  0  0  0  0
  161.0530  201.2350  148.2180 C   0  0  0  0  0  0  0  0  0  0  0  0
  160.9720  203.0530  150.2690 C   0  0  0  0  0  3  0  0  0  0  0  0
  160.9640  203.5170  148.9440 C   0  0  0  0  0  3  0  0  0  0  0  0
  161.0190  201.6650  150.5260 C   0  0  0  0  0  3  0  0  0  0  0  0
  161.0550  200.7700  149.4930 N   0  0  0  0  0  0  0  0  0  0  0  0
  161.0460  200.4470  147.0400 N   0  0  0  0  0  0  0  0  0  0  0  0
  160.9790  201.4050  145.9230 C   0  0  0  0  0  3  0  0  0  0  0  0
  160.9930  202.7430  146.5310 N   0  0  0  0  0  0  0  0  0  0  0  0
  161.0110  202.5590  147.9330 C   0  0  0  0  0  0  0  0  0  0  0  0
  159.9640  211.8780  152.8140 O   0  0  0  0  0  1  0  0  0  0  0  0
  160.8280  211.3610  153.7840 C   0  0  1  0  0  3  0  0  0  0  0  0
  160.0420  210.7810  154.9780 C   0  0  1  0  0  3  0  0  0  0  0  0
  162.1390  211.0980  156.2920 O   0  0  0  0  0  0  0  0  0  0  0  0
  160.9530  210.4000  156.1040 C   0  0  0  0  0  0  0  0  0  0  0  0
  160.6630  209.4440  156.8720 O   0  0  0  0  0  1  0  0  0  0  0  0
  159.4460  212.6800  156.5250 C   0  0  0  0  0  1  0  0  0  0  0  0
  158.9190  211.6890  155.5020 C   0  0  2  0  0  3  0  0  0  0  0  0
  157.8200  210.9130  156.0650 N   0  0  0  0  0  2  0  0  0  0  0  0
  156.3290  211.4960  155.3450 P   0  0  0  0  0  0  0  0  0  0  0  0
  155.5630  212.5440  156.4290 O   0  0  0  0  0  1  0  0  0  0  0  0
  155.3050  210.1920  155.0110 O   0  0  0  0  0  1  0  0  0  0  0  0
  156.6380  212.2390  154.0660 O   0  0  0  0  0  0  0  0  0  0  0  0
  1  3  1  0  0  0  0
  1 27  1  6  0  0  0
  2  7  1  1  0  0  0
  2  6  1  0  0  0  0
  4  1  1  0  0  0  0
  5  2  1  0  0  0  0
  5  4  1  0  0  0  0
  6  3  1  0  0  0  0
  7  8  2  0  0  0  0
  9  7  1  0  0  0  0
 10  9  1  0  0  0  0
 11 10  1  0  0  0  0
 12 13  1  1  0  0  0
 12 11  1  0  0  0  0
 14 15  1  6  0  0  0
 14 16  1  0  0  0  0
 14 12  1  0  0  0  0
 16 24  1  0  0  0  0
 17 21  2  0  0  0  0
 18 20  2  0  0  0  0
 19 18  1  0  0  0  0
 21 20  1  0  0  0  0
 22 17  1  0  0  0  0
 23 24  1  0  0  0  0
 23 22  2  0  0  0  0
 24 25  1  0  0  0  0
 25 17  1  0  0  0  0
 25 19  2  0  0  0  0
 27 26  1  6  0  0  0
 27 28  1  0  0  0  0
 28 33  1  0  0  0  0
 28 30  1  1  0  0  0
 30 29  2  0  0  0  0
 30 31  1  0  0  0  0
 33 34  1  0  0  0  0
 33 32  1  1  0  0  0
 35 34  1  0  0  0  0
 35 36  1  0  0  0  0
 37 35  1  0  0  0  0
 38 35  2  0  0  0  0
M  END
>  <MODEL>
4

>  <REMARK>
 VINA RESULT:      -6.8      1.372      1.982
  Name = 
  14 active torsions:
  status: ('A' for Active; 'I' for Inactive)
    1  A    between atoms: C_1  and  C_3
    2  A    between atoms: C_1  and  C_37
    3  A    between atoms: C_3  and  C_32
    4  A    between atoms: C_4  and  C_29
    5  A    between atoms: C_5  and  C_15
    6  A    between atoms: P_8  and  N_21
    7  A    between atoms: C_13  and  C_24
    8  A    between atoms: C_15  and  O_19
    9  A    between atoms: C_16  and  N_30
   10  A    between atoms: C_16  and  C_32
   11  A    between atoms: O_19  and  C_37
   12  A    between atoms: N_21  and  C_27
   13  A    between atoms: C_24  and  C_27
   14  A    between atoms: C_24  and  C_29
                            x       y       z     vdW  Elec       q    Type
                         _______ _______ _______ _____ _____    ______ ____

>  <TORSDO>
F 14

$$$$
=
 OpenBabel11072410473D

 38 40  0  0  1  0  0  0  0  0999 V2000
  160.7250  206.8470  148.8030 C   0  0  1  0  0  3  0  0  0  0  0  0
  161.7390  206.5630  151.6190 C   0  0  2  0  0  3  0  0  0  0  0  0
  160.4570  205.5850  149.6470 C   0  0  0  0  0  2  0  0  0  0  0  0
  161.4690  207.9580  149.5560 C   0  0  0  0  0  2  0  0  0  0  0  0
  161.2080  207.8850  151.0560 C   0  0  0  0  0  2  0  0  0  0  0  0
  161.5450  205.3510  150.6950 C   0  0  0  0  0  2  0  0  0  0  0  0
  161.2370  206.2980  153.0070 C   0  0  0  0  0  0  0  0  0  0  0  0
  161.1700  205.1050  153.3990 O   0  0  0  0  0  0  0  0  0  0  0  0
  160.8230  207.3150  153.8750 O   0  0  0  0  0  0  0  0  0  0  0  0
  160.6600  207.1340  155.2750 C   0  0  0  0  0  2  0  0  0  0  0  0
  159.8390  208.2710  155.8620 C   0  0  0  0  0  2  0  0  0  0  0  0
  160.6990  209.2000  156.7090 C   0  0  1  0  0  3  0  0  0  0  0  0
  161.9120  208.5740  157.0040 O   0  0  0  0  0  1  0  0  0  0  0  0
  160.9450  210.5240  155.9900 C   0  0  2  0  0  3  0  0  0  0  0  0
  161.8640  211.3080  156.6950 O   0  0  0  0  0  1  0  0  0  0  0  0
  159.6380  211.2830  155.8060 C   0  0  0  0  0  2  0  0  0  0  0  0
  158.7060  212.8460  152.6490 C   0  0  0  0  0  0  0  0  0  0  0  0
  156.3380  213.6370  153.7820 C   0  0  0  0  0  3  0  0  0  0  0  0
  157.2020  212.8050  154.5130 C   0  0  0  0  0  3  0  0  0  0  0  0
  156.7010  214.0550  152.4830 C   0  0  0  0  0  3  0  0  0  0  0  0
  157.8870  213.6560  151.9320 N   0  0  0  0  0  0  0  0  0  0  0  0
  159.9820  212.3770  152.2450 N   0  0  0  0  0  0  0  0  0  0  0  0
  160.4960  211.5950  153.3840 C   0  0  0  0  0  3  0  0  0  0  0  0
  159.4390  211.6190  154.4050 N   0  0  0  0  0  0  0  0  0  0  0  0
  158.3920  212.4230  153.8970 C   0  0  0  0  0  0  0  0  0  0  0  0
  162.8110  206.4390  147.6810 O   0  0  0  0  0  1  0  0  0  0  0  0
  161.4310  206.5300  147.4820 C   0  0  1  0  0  3  0  0  0  0  0  0
  160.8760  205.2450  146.8340 C   0  0  1  0  0  3  0  0  0  0  0  0
  160.3590  204.3750  144.5540 O   0  0  0  0  0  0  0  0  0  0  0  0
  160.5100  205.4660  145.3980 C   0  0  0  0  0  0  0  0  0  0  0  0
  160.3540  206.6320  144.9460 O   0  0  0  0  0  1  0  0  0  0  0  0
  163.0250  204.1710  146.0740 C   0  0  0  0  0  1  0  0  0  0  0  0
  161.7970  204.0220  146.9540 C   0  0  2  0  0  3  0  0  0  0  0  0
  161.0920  202.7850  146.6370 N   0  0  0  0  0  2  0  0  0  0  0  0
  160.9840  201.8380  148.1110 P   0  0  0  0  0  0  0  0  0  0  0  0
  161.9370  202.5630  149.3060 O   0  0  0  0  0  1  0  0  0  0  0  0
  161.5440  200.2670  147.8260 O   0  0  0  0  0  0  0  0  0  0  0  0
  159.5480  201.7880  148.5800 O   0  0  0  0  0  1  0  0  0  0  0  0
  1 27  1  6  0  0  0
  1  4  1  0  0  0  0
  1  3  1  0  0  0  0
  2  7  1  1  0  0  0
  3  6  1  0  0  0  0
  4  5  1  0  0  0  0
  5  2  1  0  0  0  0
  6  2  1  0  0  0  0
  7  8  2  0  0  0  0
  7  9  1  0  0  0  0
  9 10  1  0  0  0  0
 10 11  1  0  0  0  0
 11 12  1  0  0  0  0
 12 13  1  6  0  0  0
 14 15  1  1  0  0  0
 14 12  1  0  0  0  0
 16 14  1  0  0  0  0
 17 25  1  0  0  0  0
 18 19  1  0  0  0  0
 20 18  2  0  0  0  0
 21 20  1  0  0  0  0
 21 17  2  0  0  0  0
 22 17  1  0  0  0  0
 22 23  2  0  0  0  0
 23 24  1  0  0  0  0
 24 16  1  0  0  0  0
 25 24  1  0  0  0  0
 25 19  2  0  0  0  0
 27 26  1  1  0  0  0
 28 30  1  6  0  0  0
 28 33  1  0  0  0  0
 28 27  1  0  0  0  0
 29 30  2  0  0  0  0
 31 30  1  0  0  0  0
 33 32  1  6  0  0  0
 34 33  1  0  0  0  0
 34 35  1  0  0  0  0
 35 38  1  0  0  0  0
 35 36  1  0  0  0  0
 37 35  2  0  0  0  0
M  END
>  <MODEL>
5

>  <REMARK>
 VINA RESULT:      -6.6      3.442     10.682
  Name = 
  14 active torsions:
  status: ('A' for Active; 'I' for Inactive)
    1  A    between atoms: C_1  and  C_3
    2  A    between atoms: C_1  and  C_37
    3  A    between atoms: C_3  and  C_32
    4  A    between atoms: C_4  and  C_29
    5  A    between atoms: C_5  and  C_15
    6  A    between atoms: P_8  and  N_21
    7  A    between atoms: C_13  and  C_24
    8  A    between atoms: C_15  and  O_19
    9  A    between atoms: C_16  and  N_30
   10  A    between atoms: C_16  and  C_32
   11  A    between atoms: O_19  and  C_37
   12  A    between atoms: N_21  and  C_27
   13  A    between atoms: C_24  and  C_27
   14  A    between atoms: C_24  and  C_29
                            x       y       z     vdW  Elec       q    Type
                         _______ _______ _______ _____ _____    ______ ____

>  <TORSDO>
F 14

$$$$
=
 OpenBabel11072410473D

 38 40  0  0  1  0  0  0  0  0999 V2000
  160.4080  209.7830  153.2300 C   0  0  1  0  0  3  0  0  0  0  0  0
  161.9270  208.1290  151.2310 C   0  0  2  0  0  3  0  0  0  0  0  0
  160.4880  210.1680  151.7400 C   0  0  0  0  0  2  0  0  0  0  0  0
  161.0930  208.4510  153.5710 C   0  0  0  0  0  2  0  0  0  0  0  0
  161.1100  207.5120  152.3710 C   0  0  0  0  0  2  0  0  0  0  0  0
  161.7640  209.6490  151.0770 C   0  0  0  0  0  2  0  0  0  0  0  0
  161.7210  207.4070  149.9330 C   0  0  0  0  0  0  0  0  0  0  0  0
  162.6020  207.5170  149.0430 O   0  0  0  0  0  0  0  0  0  0  0  0
  160.5850  206.6350  149.6620 O   0  0  0  0  0  0  0  0  0  0  0  0
  160.6030  205.2170  149.5740 C   0  0  0  0  0  2  0  0  0  0  0  0
  160.8430  204.6070  150.9470 C   0  0  0  0  0  2  0  0  0  0  0  0
  161.2150  203.1340  150.8430 C   0  0  1  0  0  3  0  0  0  0  0  0
  160.8490  202.4760  152.0190 O   0  0  0  0  0  1  0  0  0  0  0  0
  160.5420  202.4830  149.6380 C   0  0  2  0  0  3  0  0  0  0  0  0
  159.8760  201.3120  150.0140 O   0  0  0  0  0  1  0  0  0  0  0  0
  161.5660  202.1810  148.5530 C   0  0  0  0  0  2  0  0  0  0  0  0
  160.9720  203.4380  145.1840 C   0  0  0  0  0  0  0  0  0  0  0  0
  162.1710  205.7990  145.8930 C   0  0  0  0  0  3  0  0  0  0  0  0
  161.9530  204.8210  146.8770 C   0  0  0  0  0  3  0  0  0  0  0  0
  161.7750  205.5530  144.5600 C   0  0  0  0  0  3  0  0  0  0  0  0
  161.1820  204.3690  144.2200 N   0  0  0  0  0  0  0  0  0  0  0  0
  160.4110  202.1490  144.9950 N   0  0  0  0  0  0  0  0  0  0  0  0
  160.4550  201.5000  146.3160 C   0  0  0  0  0  3  0  0  0  0  0  0
  161.0200  202.4920  147.2400 N   0  0  0  0  0  0  0  0  0  0  0  0
  161.3360  203.6380  146.4730 C   0  0  0  0  0  0  0  0  0  0  0  0
  160.4940  212.1420  153.6790 O   0  0  0  0  0  1  0  0  0  0  0  0
  160.9140  210.8960  154.1520 C   0  0  1  0  0  3  0  0  0  0  0  0
  160.4660  210.6740  155.6110 C   0  0  1  0  0  3  0  0  0  0  0  0
  162.7770  211.0830  156.4570 O   0  0  0  0  0  0  0  0  0  0  0  0
  161.6220  210.3130  156.4930 C   0  0  0  0  0  0  0  0  0  0  0  0
  161.5640  209.3100  157.2530 O   0  0  0  0  0  1  0  0  0  0  0  0
  160.5280  212.5790  157.2610 C   0  0  0  0  0  1  0  0  0  0  0  0
  159.6910  211.8490  156.2250 C   0  0  2  0  0  3  0  0  0  0  0  0
  158.4280  211.4130  156.8090 N   0  0  0  0  0  2  0  0  0  0  0  0
  157.1520  212.4060  156.1270 P   0  0  0  0  0  0  0  0  0  0  0  0
  157.3480  212.4860  154.4490 O   0  0  0  0  0  0  0  0  0  0  0  0
  157.2320  213.9680  156.7730 O   0  0  0  0  0  1  0  0  0  0  0  0
  155.8050  211.7950  156.4440 O   0  0  0  0  0  1  0  0  0  0  0  0
  1  4  1  0  0  0  0
  1 27  1  1  0  0  0
  2  7  1  6  0  0  0
  2  5  1  0  0  0  0
  3  1  1  0  0  0  0
  5  4  1  0  0  0  0
  6  2  1  0  0  0  0
  6  3  1  0  0  0  0
  8  7  2  0  0  0  0
  9  7  1  0  0  0  0
 10  9  1  0  0  0  0
 10 11  1  0  0  0  0
 12 11  1  0  0  0  0
 12 13  1  1  0  0  0
 14 15  1  1  0  0  0
 14 12  1  0  0  0  0
 16 14  1  0  0  0  0
 17 25  1  0  0  0  0
 18 19  1  0  0  0  0
 20 18  2  0  0  0  0
 21 20  1  0  0  0  0
 21 17  2  0  0  0  0
 22 17  1  0  0  0  0
 22 23  2  0  0  0  0
 23 24  1  0  0  0  0
 24 16  1  0  0  0  0
 25 19  2  0  0  0  0
 25 24  1  0  0  0  0
 27 26  1  6  0  0  0
 27 28  1  0  0  0  0
 28 33  1  0  0  0  0
 28 30  1  1  0  0  0
 29 30  2  0  0  0  0
 30 31  1  0  0  0  0
 33 34  1  0  0  0  0
 33 32  1  1  0  0  0
 35 38  1  0  0  0  0
 35 37  1  0  0  0  0
 35 34  1  0  0  0  0
 36 35  2  0  0  0  0
M  END
>  <MODEL>
6

>  <REMARK>
 VINA RESULT:      -6.5      2.005      3.514
  Name = 
  14 active torsions:
  status: ('A' for Active; 'I' for Inactive)
    1  A    between atoms: C_1  and  C_3
    2  A    between atoms: C_1  and  C_37
    3  A    between atoms: C_3  and  C_32
    4  A    between atoms: C_4  and  C_29
    5  A    between atoms: C_5  and  C_15
    6  A    between atoms: P_8  and  N_21
    7  A    between atoms: C_13  and  C_24
    8  A    between atoms: C_15  and  O_19
    9  A    between atoms: C_16  and  N_30
   10  A    between atoms: C_16  and  C_32
   11  A    between atoms: O_19  and  C_37
   12  A    between atoms: N_21  and  C_27
   13  A    between atoms: C_24  and  C_27
   14  A    between atoms: C_24  and  C_29
                            x       y       z     vdW  Elec       q    Type
                         _______ _______ _______ _____ _____    ______ ____

>  <TORSDO>
F 14

$$$$
=
 OpenBabel11072410473D

 38 40  0  0  1  0  0  0  0  0999 V2000
  160.6730  206.7300  148.8790 C   0  0  1  0  0  3  0  0  0  0  0  0
  161.8270  206.2350  151.6110 C   0  0  2  0  0  3  0  0  0  0  0  0
  160.4590  205.4010  149.6310 C   0  0  0  0  0  2  0  0  0  0  0  0
  161.4430  207.7880  149.6830 C   0  0  0  0  0  2  0  0  0  0  0  0
  161.2560  207.5910  151.1830 C   0  0  0  0  0  2  0  0  0  0  0  0
  161.5990  205.0980  150.6020 C   0  0  0  0  0  2  0  0  0  0  0  0
  161.3970  205.8530  152.9960 C   0  0  0  0  0  0  0  0  0  0  0  0
  160.8310  204.7410  153.1590 O   0  0  0  0  0  0  0  0  0  0  0  0
  161.5780  206.6840  154.1070 O   0  0  0  0  0  0  0  0  0  0  0  0
  160.5190  207.0990  154.9580 C   0  0  0  0  0  2  0  0  0  0  0  0
  160.9030  208.3720  155.6960 C   0  0  0  0  0  2  0  0  0  0  0  0
  159.8190  209.4350  155.5740 C   0  0  1  0  0  3  0  0  0  0  0  0
  159.6960  210.1170  156.7860 O   0  0  0  0  0  1  0  0  0  0  0  0
  160.1360  210.4120  154.4440 C   0  0  2  0  0  3  0  0  0  0  0  0
  161.3240  210.0550  153.7990 O   0  0  0  0  0  1  0  0  0  0  0  0
  160.2330  211.8330  154.9780 C   0  0  0  0  0  2  0  0  0  0  0  0
  157.5550  213.3770  153.0470 C   0  0  0  0  0  0  0  0  0  0  0  0
  159.1770  213.3380  150.8370 C   0  0  0  0  0  3  0  0  0  0  0  0
  159.7040  212.9440  152.0780 C   0  0  0  0  0  3  0  0  0  0  0  0
  157.8280  213.7430  150.7440 C   0  0  0  0  0  3  0  0  0  0  0  0
  157.0290  213.7540  151.8540 N   0  0  0  0  0  0  0  0  0  0  0  0
  156.8590  213.2920  154.2790 N   0  0  0  0  0  0  0  0  0  0  0  0
  157.8380  212.7780  155.2530 C   0  0  0  0  0  3  0  0  0  0  0  0
  159.1020  212.6260  154.5190 N   0  0  0  0  0  0  0  0  0  0  0  0
  158.8460  212.9840  153.1750 C   0  0  0  0  0  0  0  0  0  0  0  0
  162.7080  206.5690  147.6120 O   0  0  0  0  0  1  0  0  0  0  0  0
  161.3150  206.5300  147.5040 C   0  0  1  0  0  3  0  0  0  0  0  0
  160.8440  205.2200  146.8410 C   0  0  1  0  0  3  0  0  0  0  0  0
  160.4370  204.3190  144.5510 O   0  0  0  0  0  0  0  0  0  0  0  0
  160.5260  205.4200  145.3910 C   0  0  0  0  0  0  0  0  0  0  0  0
  160.3540  206.5780  144.9240 O   0  0  0  0  0  1  0  0  0  0  0  0
  163.0970  204.2720  146.2240 C   0  0  0  0  0  1  0  0  0  0  0  0
  161.8140  204.0400  147.0030 C   0  0  2  0  0  3  0  0  0  0  0  0
  161.1980  202.7790  146.6030 N   0  0  0  0  0  2  0  0  0  0  0  0
  161.0750  201.7670  148.0310 P   0  0  0  0  0  0  0  0  0  0  0  0
  161.5810  200.2000  147.6450 O   0  0  0  0  0  0  0  0  0  0  0  0
  159.4700  201.7200  148.5650 O   0  0  0  0  0  1  0  0  0  0  0  0
  161.9570  202.3200  149.1260 O   0  0  0  0  0  1  0  0  0  0  0  0
  1 27  1  6  0  0  0
  1  3  1  0  0  0  0
  1  4  1  0  0  0  0
  2  7  1  1  0  0  0
  3  6  1  0  0  0  0
  4  5  1  0  0  0  0
  5  2  1  0  0  0  0
  6  2  1  0  0  0  0
  7  8  2  0  0  0  0
  7  9  1  0  0  0  0
  9 10  1  0  0  0  0
 10 11  1  0  0  0  0
 12 11  1  0  0  0  0
 12 13  1  1  0  0  0
 14 15  1  1  0  0  0
 14 16  1  0  0  0  0
 14 12  1  0  0  0  0
 17 25  1  0  0  0  0
 17 22  1  0  0  0  0
 18 19  1  0  0  0  0
 19 25  2  0  0  0  0
 20 18  2  0  0  0  0
 20 21  1  0  0  0  0
 21 17  2  0  0  0  0
 22 23  2  0  0  0  0
 24 16  1  0  0  0  0
 24 23  1  0  0  0  0
 25 24  1  0  0  0  0
 27 26  1  1  0  0  0
 28 30  1  6  0  0  0
 28 33  1  0  0  0  0
 28 27  1  0  0  0  0
 29 30  2  0  0  0  0
 31 30  1  0  0  0  0
 33 32  1  6  0  0  0
 34 33  1  0  0  0  0
 34 35  1  0  0  0  0
 35 37  1  0  0  0  0
 35 38  1  0  0  0  0
 36 35  2  0  0  0  0
M  END
>  <MODEL>
7

>  <REMARK>
 VINA RESULT:      -6.4      3.467     10.667
  Name = 
  14 active torsions:
  status: ('A' for Active; 'I' for Inactive)
    1  A    between atoms: C_1  and  C_3
    2  A    between atoms: C_1  and  C_37
    3  A    between atoms: C_3  and  C_32
    4  A    between atoms: C_4  and  C_29
    5  A    between atoms: C_5  and  C_15
    6  A    between atoms: P_8  and  N_21
    7  A    between atoms: C_13  and  C_24
    8  A    between atoms: C_15  and  O_19
    9  A    between atoms: C_16  and  N_30
   10  A    between atoms: C_16  and  C_32
   11  A    between atoms: O_19  and  C_37
   12  A    between atoms: N_21  and  C_27
   13  A    between atoms: C_24  and  C_27
   14  A    between atoms: C_24  and  C_29
                            x       y       z     vdW  Elec       q    Type
                         _______ _______ _______ _____ _____    ______ ____

>  <TORSDO>
F 14

$$$$
=
 OpenBabel11072410473D

 38 40  0  0  1  0  0  0  0  0999 V2000
  160.6490  208.5210  153.7410 C   0  0  1  0  0  3  0  0  0  0  0  0
  161.6860  206.1450  152.2170 C   0  0  2  0  0  3  0  0  0  0  0  0
  160.7570  208.5170  152.2030 C   0  0  0  0  0  2  0  0  0  0  0  0
  161.0320  207.1870  154.3990 C   0  0  0  0  0  2  0  0  0  0  0  0
  160.7950  206.0140  153.4570 C   0  0  0  0  0  2  0  0  0  0  0  0
  161.8600  207.5840  151.7050 C   0  0  0  0  0  2  0  0  0  0  0  0
  161.2760  205.2050  151.1240 C   0  0  0  0  0  0  0  0  0  0  0  0
  161.5890  205.4930  149.9400 O   0  0  0  0  0  0  0  0  0  0  0  0
  160.5460  204.0340  151.3600 O   0  0  0  0  0  0  0  0  0  0  0  0
  161.1010  202.8690  151.9530 C   0  0  0  0  0  2  0  0  0  0  0  0
  161.9760  202.1320  150.9510 C   0  0  0  0  0  2  0  0  0  0  0  0
  161.1680  201.1330  150.1340 C   0  0  1  0  0  3  0  0  0  0  0  0
  160.2140  200.5250  150.9530 O   0  0  0  0  0  1  0  0  0  0  0  0
  160.4930  201.8150  148.9470 C   0  0  2  0  0  3  0  0  0  0  0  0
  159.1110  201.6010  148.9720 O   0  0  0  0  0  1  0  0  0  0  0  0
  161.0810  201.3110  147.6370 C   0  0  0  0  0  2  0  0  0  0  0  0
  160.8930  203.7700  144.9550 C   0  0  0  0  0  0  0  0  0  0  0  0
  162.4590  205.4590  146.4430 C   0  0  0  0  0  3  0  0  0  0  0  0
  162.0200  204.2530  147.0140 C   0  0  0  0  0  3  0  0  0  0  0  0
  162.0920  205.7810  145.1180 C   0  0  0  0  0  3  0  0  0  0  0  0
  161.3150  204.9280  144.3860 N   0  0  0  0  0  0  0  0  0  0  0  0
  160.1200  202.7620  144.3260 N   0  0  0  0  0  0  0  0  0  0  0  0
  159.9800  201.6890  145.3250 C   0  0  0  0  0  3  0  0  0  0  0  0
  160.6670  202.1640  146.5330 N   0  0  0  0  0  0  0  0  0  0  0  0
  161.2220  203.4280  146.2230 C   0  0  0  0  0  0  0  0  0  0  0  0
  161.3750  210.8040  153.5570 O   0  0  0  0  0  1  0  0  0  0  0  0
  161.4240  209.6760  154.3810 C   0  0  1  0  0  3  0  0  0  0  0  0
  160.9020  209.9960  155.7970 C   0  0  1  0  0  3  0  0  0  0  0  0
  162.8410  209.4250  157.2580 O   0  0  0  0  0  1  0  0  0  0  0  0
  162.0140  210.3990  156.7150 C   0  0  0  0  0  0  0  0  0  0  0  0
  162.1980  211.6100  157.0120 O   0  0  0  0  0  0  0  0  0  0  0  0
  159.2710  211.2470  157.2550 C   0  0  0  0  0  1  0  0  0  0  0  0
  159.7840  211.0490  155.8400 C   0  0  2  0  0  3  0  0  0  0  0  0
  158.6860  210.7040  154.9440 N   0  0  0  0  0  2  0  0  0  0  0  0
  158.2270  212.1580  154.0750 P   0  0  0  0  0  0  0  0  0  0  0  0
  158.2560  211.8410  152.4130 O   0  0  0  0  0  0  0  0  0  0  0  0
  159.3160  213.4040  154.4250 O   0  0  0  0  0  1  0  0  0  0  0  0
  156.8320  212.5750  154.4800 O   0  0  0  0  0  1  0  0  0  0  0  0
  1 27  1  1  0  0  0
  1  4  1  0  0  0  0
  2  7  1  6  0  0  0
  2  5  1  0  0  0  0
  3  1  1  0  0  0  0
  5  4  1  0  0  0  0
  6  3  1  0  0  0  0
  6  2  1  0  0  0  0
  7  9  1  0  0  0  0
  8  7  2  0  0  0  0
  9 10  1  0  0  0  0
 11 10  1  0  0  0  0
 12 11  1  0  0  0  0
 12 13  1  1  0  0  0
 14 15  1  6  0  0  0
 14 12  1  0  0  0  0
 16 14  1  0  0  0  0
 17 25  1  0  0  0  0
 18 19  1  0  0  0  0
 20 18  2  0  0  0  0
 21 17  2  0  0  0  0
 21 20  1  0  0  0  0
 22 17  1  0  0  0  0
 22 23  2  0  0  0  0
 23 24  1  0  0  0  0
 24 16  1  0  0  0  0
 25 24  1  0  0  0  0
 25 19  2  0  0  0  0
 27 26  1  6  0  0  0
 27 28  1  0  0  0  0
 28 33  1  0  0  0  0
 28 30  1  1  0  0  0
 30 31  2  0  0  0  0
 30 29  1  0  0  0  0
 33 32  1  1  0  0  0
 34 33  1  0  0  0  0
 35 37  1  0  0  0  0
 35 38  1  0  0  0  0
 35 34  1  0  0  0  0
 36 35  2  0  0  0  0
M  END
>  <MODEL>
8

>  <REMARK>
 VINA RESULT:      -6.3      2.184      3.815
  Name = 
  14 active torsions:
  status: ('A' for Active; 'I' for Inactive)
    1  A    between atoms: C_1  and  C_3
    2  A    between atoms: C_1  and  C_37
    3  A    between atoms: C_3  and  C_32
    4  A    between atoms: C_4  and  C_29
    5  A    between atoms: C_5  and  C_15
    6  A    between atoms: P_8  and  N_21
    7  A    between atoms: C_13  and  C_24
    8  A    between atoms: C_15  and  O_19
    9  A    between atoms: C_16  and  N_30
   10  A    between atoms: C_16  and  C_32
   11  A    between atoms: O_19  and  C_37
   12  A    between atoms: N_21  and  C_27
   13  A    between atoms: C_24  and  C_27
   14  A    between atoms: C_24  and  C_29
                            x       y       z     vdW  Elec       q    Type
                         _______ _______ _______ _____ _____    ______ ____

>  <TORSDO>
F 14

$$$$
=
 OpenBabel11072410473D

 38 40  0  0  1  0  0  0  0  0999 V2000
  160.8270  206.4790  151.1870 C   0  0  1  0  0  3  0  0  0  0  0  0
  161.3880  208.0360  153.6970 C   0  0  2  0  0  3  0  0  0  0  0  0
  160.6100  205.8780  152.5910 C   0  0  0  0  0  2  0  0  0  0  0  0
  161.2630  207.9510  151.1970 C   0  0  0  0  0  2  0  0  0  0  0  0
  160.7690  208.6690  152.4460 C   0  0  0  0  0  2  0  0  0  0  0  0
  161.5310  206.5070  153.6360 C   0  0  0  0  0  2  0  0  0  0  0  0
  160.7060  208.4870  154.9550 C   0  0  0  0  0  0  0  0  0  0  0  0
  160.2460  207.6100  155.7310 O   0  0  0  0  0  0  0  0  0  0  0  0
  160.5420  209.8350  155.2910 O   0  0  0  0  0  0  0  0  0  0  0  0
  159.7070  210.2840  156.3500 C   0  0  0  0  0  2  0  0  0  0  0  0
  158.4790  210.9870  155.7930 C   0  0  0  0  0  2  0  0  0  0  0  0
  158.7590  212.4580  155.5140 C   0  0  1  0  0  3  0  0  0  0  0  0
  160.0230  212.7940  156.0030 O   0  0  0  0  0  1  0  0  0  0  0  0
  158.6680  212.7580  154.0200 C   0  0  2  0  0  3  0  0  0  0  0  0
  159.8330  212.3530  153.3620 O   0  0  0  0  0  1  0  0  0  0  0  0
  158.4210  214.2420  153.7880 C   0  0  0  0  0  2  0  0  0  0  0  0
  155.4340  214.2420  151.7010 C   0  0  0  0  0  0  0  0  0  0  0  0
  157.0350  214.2590  149.4750 C   0  0  0  0  0  3  0  0  0  0  0  0
  157.6260  214.3790  150.7430 C   0  0  0  0  0  3  0  0  0  0  0  0
  155.6330  214.1280  149.3640 C   0  0  0  0  0  3  0  0  0  0  0  0
  154.8470  214.1170  150.4830 N   0  0  0  0  0  0  0  0  0  0  0  0
  154.7740  214.2090  152.9550 N   0  0  0  0  0  0  0  0  0  0  0  0
  155.8390  214.3180  153.9670 C   0  0  0  0  0  3  0  0  0  0  0  0
  157.0980  214.4530  153.2200 N   0  0  0  0  0  0  0  0  0  0  0  0
  156.7750  214.3710  151.8460 C   0  0  0  0  0  0  0  0  0  0  0  0
  162.1500  204.4800  151.0150 O   0  0  0  0  0  1  0  0  0  0  0  0
  161.7810  205.6420  150.3320 C   0  0  1  0  0  3  0  0  0  0  0  0
  161.1690  205.3090  148.9560 C   0  0  1  0  0  3  0  0  0  0  0  0
  162.6980  207.0060  147.9540 O   0  0  0  0  0  1  0  0  0  0  0  0
  161.4590  206.3800  147.9500 C   0  0  0  0  0  0  0  0  0  0  0  0
  160.5860  206.7290  147.1110 O   0  0  0  0  0  0  0  0  0  0  0  0
  162.4430  204.0930  147.1530 C   0  0  0  0  0  1  0  0  0  0  0  0
  161.5780  203.9400  148.3910 C   0  0  2  0  0  3  0  0  0  0  0  0
  160.4150  203.1100  148.0990 N   0  0  0  0  0  2  0  0  0  0  0  0
  160.6070  201.5950  148.9640 P   0  0  0  0  0  0  0  0  0  0  0  0
  161.5530  201.8600  150.3420 O   0  0  0  0  0  1  0  0  0  0  0  0
  161.3730  200.4600  147.9710 O   0  0  0  0  0  0  0  0  0  0  0  0
  159.2520  201.0710  149.3820 O   0  0  0  0  0  1  0  0  0  0  0  0
  1 27  1  1  0  0  0
  1  4  1  0  0  0  0
  1  3  1  0  0  0  0
  2  7  1  1  0  0  0
  3  6  1  0  0  0  0
  4  5  1  0  0  0  0
  5  2  1  0  0  0  0
  6  2  1  0  0  0  0
  7  9  1  0  0  0  0
  7  8  2  0  0  0  0
  9 10  1  0  0  0  0
 11 10  1  0  0  0  0
 12 11  1  0  0  0  0
 12 13  1  6  0  0  0
 14 15  1  6  0  0  0
 14 12  1  0  0  0  0
 16 14  1  0  0  0  0
 17 25  1  0  0  0  0
 17 22  1  0  0  0  0
 18 19  1  0  0  0  0
 19 25  2  0  0  0  0
 20 18  2  0  0  0  0
 20 21  1  0  0  0  0
 21 17  2  0  0  0  0
 22 23  2  0  0  0  0
 24 16  1  0  0  0  0
 24 23  1  0  0  0  0
 25 24  1  0  0  0  0
 27 26  1  1  0  0  0
 28 30  1  6  0  0  0
 28 27  1  0  0  0  0
 30 29  1  0  0  0  0
 31 30  2  0  0  0  0
 33 32  1  6  0  0  0
 33 28  1  0  0  0  0
 34 33  1  0  0  0  0
 34 35  1  0  0  0  0
 35 38  1  0  0  0  0
 35 36  1  0  0  0  0
 37 35  2  0  0  0  0
M  END
>  <MODEL>
9

>  <REMARK>
 VINA RESULT:      -6.0      4.255     10.881
  Name = 
  14 active torsions:
  status: ('A' for Active; 'I' for Inactive)
    1  A    between atoms: C_1  and  C_3
    2  A    between atoms: C_1  and  C_37
    3  A    between atoms: C_3  and  C_32
    4  A    between atoms: C_4  and  C_29
    5  A    between atoms: C_5  and  C_15
    6  A    between atoms: P_8  and  N_21
    7  A    between atoms: C_13  and  C_24
    8  A    between atoms: C_15  and  O_19
    9  A    between atoms: C_16  and  N_30
   10  A    between atoms: C_16  and  C_32
   11  A    between atoms: O_19  and  C_37
   12  A    between atoms: N_21  and  C_27
   13  A    between atoms: C_24  and  C_27
   14  A    between atoms: C_24  and  C_29
                            x       y       z     vdW  Elec       q    Type
                         _______ _______ _______ _____ _____    ______ ____

>  <TORSDO>
F 14

$$$$
