=
 OpenBabel11072413273D

 41 46  0  0  1  0  0  0  0  0999 V2000
  161.6910  210.8400  150.4730 C   0  0  1  0  0  3  0  0  0  0  0  0
  161.9640  209.3640  148.5660 C   0  0  0  0  0  3  0  0  0  0  0  0
  160.1700  212.0070  152.0740 C   0  0  0  0  0  0  0  0  0  0  0  0
  158.8860  212.4280  153.9150 C   0  0  0  0  0  0  0  0  0  0  0  0
  159.4240  211.1160  154.0430 N   0  0  0  0  0  0  0  0  0  0  0  0
  158.1080  212.9390  154.7640 O   0  0  0  0  0  0  0  0  0  0  0  0
  160.7210  209.6900  152.4190 N   0  0  0  0  0  0  0  0  0  0  0  0
  161.3520  209.5980  151.2860 C   0  0  0  0  0  0  0  0  0  0  0  0
  162.1420  208.2070  149.4690 C   0  0  0  0  0  3  0  0  0  0  0  0
  161.8220  208.2940  150.7640 C   0  0  0  0  0  0  0  0  0  0  0  0
  161.6970  210.5500  149.0350 N   0  0  0  0  0  0  0  0  0  0  0  0
  160.1740  210.9370  152.8530 C   0  0  0  0  0  0  0  0  0  0  0  0
  160.8330  211.9930  150.7990 N   0  0  0  0  0  0  0  0  0  0  0  0
  159.3290  213.1100  152.6570 C   0  0  2  0  0  3  0  0  0  0  0  0
  158.8570  210.0470  154.8580 C   0  0  0  0  0  3  0  0  0  0  0  0
  159.9560  209.3470  155.6370 C   0  0  0  0  0  2  0  0  0  0  0  0
  159.0690  210.3610  156.3270 C   0  0  0  0  0  2  0  0  0  0  0  0
  161.9690  207.1630  151.5780 O   0  0  0  0  0  0  0  0  0  0  0  0
  161.6300  205.8590  151.1950 C   0  0  0  0  0  0  0  0  0  0  0  0
  160.9010  204.3270  149.4620 C   0  0  0  0  0  3  0  0  0  0  0  0
  161.2790  203.5110  151.7070 C   0  0  0  0  0  3  0  0  0  0  0  0
  160.9190  203.2660  150.3750 C   0  0  0  0  0  0  0  0  0  0  0  0
  161.6270  204.8010  152.1160 C   0  0  0  0  0  3  0  0  0  0  0  0
  161.2500  205.6180  149.8710 C   0  0  0  0  0  3  0  0  0  0  0  0
  160.5570  201.9080  149.9380 C   0  0  0  0  0  0  0  0  0  0  0  0
  161.2650  200.9200  150.2700 O   0  0  0  0  0  1  0  0  0  0  0  0
  159.4270  201.7020  149.1540 O   0  0  0  0  0  0  0  0  0  0  0  0
  160.9200  213.2170  150.0070 C   0  0  0  0  0  2  0  0  0  0  0  0
  158.3900  213.7150  146.0590 C   0  0  0  0  0  1  0  0  0  0  0  0
  160.5300  212.5940  146.3700 N   0  0  0  0  0  0  0  0  0  0  0  0
  160.4490  212.9840  148.6060 C   0  0  0  0  0  0  0  0  0  0  0  0
  159.1930  212.8500  148.2290 C   0  0  0  0  0  0  0  0  0  0  0  0
  158.0980  212.9310  149.0810 O   0  0  0  0  0  1  0  0  0  0  0  0
  159.1220  212.5850  146.7610 C   0  0  1  0  0  3  0  0  0  0  0  0
  162.7430  212.8880  147.3520 C   0  0  0  0  0  1  0  0  0  0  0  0
  161.2590  212.8130  147.4130 C   0  0  0  0  0  0  0  0  0  0  0  0
  158.1120  213.3710  151.7780 C   0  0  0  0  0  2  0  0  0  0  0  0
  157.2280  214.4530  152.3770 C   0  0  0  0  0  2  0  0  0  0  0  0
  154.9520  213.7950  153.1570 O   0  0  0  0  0  1  0  0  0  0  0  0
  155.3350  214.2460  150.9410 O   0  0  0  0  0  0  0  0  0  0  0  0
  155.7890  214.1700  152.1130 C   0  0  0  0  0  0  0  0  0  0  0  0
  1 11  1  6  0  0  0
  1 13  1  0  0  0  0
  1  8  1  0  0  0  0
  2 11  2  0  0  0  0
  2  9  1  0  0  0  0
  3 14  1  0  0  0  0
  3 12  2  0  0  0  0
  4  5  1  0  0  0  0
  4  6  2  0  0  0  0
  5 15  1  0  0  0  0
  7 12  1  0  0  0  0
  8  7  2  0  0  0  0
  9 10  2  0  0  0  0
 10  8  1  0  0  0  0
 10 18  1  0  0  0  0
 12  5  1  0  0  0  0
 13  3  1  0  0  0  0
 14 37  1  6  0  0  0
 14  4  1  0  0  0  0
 15 16  1  0  0  0  0
 15 17  1  0  0  0  0
 16 17  1  0  0  0  0
 19 18  1  0  0  0  0
 19 23  1  0  0  0  0
 20 24  1  0  0  0  0
 20 22  2  0  0  0  0
 21 23  2  0  0  0  0
 22 21  1  0  0  0  0
 24 19  2  0  0  0  0
 25 26  1  0  0  0  0
 25 22  1  0  0  0  0
 27 25  2  0  0  0  0
 28 13  1  0  0  0  0
 30 34  1  0  0  0  0
 30 36  2  0  0  0  0
 31 28  1  0  0  0  0
 32 31  2  0  0  0  0
 32 33  1  0  0  0  0
 34 29  1  6  0  0  0
 34 32  1  0  0  0  0
 35 36  1  0  0  0  0
 36 31  1  0  0  0  0
 37 38  1  0  0  0  0
 40 41  2  0  0  0  0
 41 38  1  0  0  0  0
 41 39  1  0  0  0  0
M  END
>  <MODEL>
1

>  <REMARK>
 VINA RESULT:      -6.7      0.000      0.000
  Name = 
  9 active torsions:
  status: ('A' for Active; 'I' for Inactive)
    1  A    between atoms: O_4  and  C_6
    2  A    between atoms: O_4  and  C_23
    3  A    between atoms: N_8  and  C_18
    4  A    between atoms: C_16  and  C_21
    5  A    between atoms: C_16  and  N_33
    6  A    between atoms: C_20  and  C_32
    7  A    between atoms: C_24  and  C_27
    8  A    between atoms: C_27  and  C_36
    9  A    between atoms: C_36  and  C_37
                            x       y       z     vdW  Elec       q    Type
                         _______ _______ _______ _____ _____    ______ ____

>  <TORSDO>
F 9

$$$$
=
 OpenBabel11072413273D

 41 46  0  0  1  0  0  0  0  0999 V2000
  161.8510  211.1870  149.3220 C   0  0  1  0  0  3  0  0  0  0  0  0
  163.6020  212.0710  147.8950 C   0  0  0  0  0  3  0  0  0  0  0  0
  160.7530  211.1120  151.5650 C   0  0  0  0  0  0  0  0  0  0  0  0
  159.3580  211.6110  153.3020 C   0  0  0  0  0  0  0  0  0  0  0  0
  159.0840  212.5210  152.2420 N   0  0  0  0  0  0  0  0  0  0  0  0
  158.7680  211.6520  154.4150 O   0  0  0  0  0  0  0  0  0  0  0  0
  160.2690  212.9220  150.0540 N   0  0  0  0  0  0  0  0  0  0  0  0
  161.1730  212.5440  149.1990 C   0  0  0  0  0  0  0  0  0  0  0  0
  162.6890  213.1260  147.4040 C   0  0  0  0  0  3  0  0  0  0  0  0
  161.5410  213.3850  148.0370 C   0  0  0  0  0  0  0  0  0  0  0  0
  163.2260  211.2300  148.8160 N   0  0  0  0  0  0  0  0  0  0  0  0
  160.0080  212.1540  151.2310 C   0  0  0  0  0  0  0  0  0  0  0  0
  161.7820  210.6300  150.6860 N   0  0  0  0  0  0  0  0  0  0  0  0
  160.4330  210.6280  152.9530 C   0  0  2  0  0  3  0  0  0  0  0  0
  158.4690  213.8350  152.3950 C   0  0  0  0  0  3  0  0  0  0  0  0
  157.3090  213.9820  151.4280 C   0  0  0  0  0  2  0  0  0  0  0  0
  157.0430  213.6750  152.8850 C   0  0  0  0  0  2  0  0  0  0  0  0
  160.7220  214.4190  147.5630 O   0  0  0  0  0  0  0  0  0  0  0  0
  160.0520  214.4020  146.3340 C   0  0  0  0  0  0  0  0  0  0  0  0
  160.1560  214.4430  143.9110 C   0  0  0  0  0  3  0  0  0  0  0  0
  158.0080  214.3610  145.0210 C   0  0  0  0  0  3  0  0  0  0  0  0
  158.7590  214.3910  143.8370 C   0  0  0  0  0  0  0  0  0  0  0  0
  158.6510  214.3720  146.2620 C   0  0  0  0  0  3  0  0  0  0  0  0
  160.7980  214.4530  145.1530 C   0  0  0  0  0  3  0  0  0  0  0  0
  158.0880  214.3730  142.5280 C   0  0  0  0  0  0  0  0  0  0  0  0
  156.8320  214.4530  142.4520 O   0  0  0  0  0  1  0  0  0  0  0  0
  158.8340  214.2700  141.3590 O   0  0  0  0  0  0  0  0  0  0  0  0
  162.5130  209.4090  151.0150 C   0  0  0  0  0  2  0  0  0  0  0  0
  161.4380  205.4830  148.6370 C   0  0  0  0  0  1  0  0  0  0  0  0
  160.5090  206.2990  150.7340 N   0  0  0  0  0  0  0  0  0  0  0  0
  161.7510  208.1950  150.5870 C   0  0  0  0  0  0  0  0  0  0  0  0
  161.4920  207.8490  149.3410 C   0  0  0  0  0  0  0  0  0  0  0  0
  161.9140  208.5530  148.2200 O   0  0  0  0  0  1  0  0  0  0  0  0
  160.6700  206.6030  149.3140 C   0  0  1  0  0  3  0  0  0  0  0  0
  161.1430  207.1780  152.9200 C   0  0  0  0  0  1  0  0  0  0  0  0
  161.1140  207.2010  151.4330 C   0  0  0  0  0  0  0  0  0  0  0  0
  161.6250  210.8460  153.8770 C   0  0  0  0  0  2  0  0  0  0  0  0
  161.5820  209.8880  155.0580 C   0  0  0  0  0  2  0  0  0  0  0  0
  160.9430  211.2150  157.0720 O   0  0  0  0  0  1  0  0  0  0  0  0
  163.1320  210.6390  156.7060 O   0  0  0  0  0  0  0  0  0  0  0  0
  161.9340  210.5900  156.3250 C   0  0  0  0  0  0  0  0  0  0  0  0
  1 11  1  1  0  0  0
  1 13  1  0  0  0  0
  2 11  2  0  0  0  0
  3 14  1  0  0  0  0
  4  6  2  0  0  0  0
  5 15  1  0  0  0  0
  5  4  1  0  0  0  0
  7 12  1  0  0  0  0
  8  1  1  0  0  0  0
  8  7  2  0  0  0  0
  9  2  1  0  0  0  0
  9 10  2  0  0  0  0
 10  8  1  0  0  0  0
 12  3  2  0  0  0  0
 12  5  1  0  0  0  0
 13 28  1  0  0  0  0
 13  3  1  0  0  0  0
 14  4  1  0  0  0  0
 14 37  1  1  0  0  0
 15 17  1  0  0  0  0
 16 15  1  0  0  0  0
 16 17  1  0  0  0  0
 18 10  1  0  0  0  0
 19 18  1  0  0  0  0
 20 24  1  0  0  0  0
 21 23  2  0  0  0  0
 22 20  2  0  0  0  0
 22 21  1  0  0  0  0
 23 19  1  0  0  0  0
 24 19  2  0  0  0  0
 25 22  1  0  0  0  0
 26 25  1  0  0  0  0
 27 25  2  0  0  0  0
 30 36  2  0  0  0  0
 31 28  1  0  0  0  0
 31 36  1  0  0  0  0
 32 31  2  0  0  0  0
 33 32  1  0  0  0  0
 34 29  1  6  0  0  0
 34 32  1  0  0  0  0
 34 30  1  0  0  0  0
 36 35  1  0  0  0  0
 37 38  1  0  0  0  0
 38 41  1  0  0  0  0
 41 40  2  0  0  0  0
 41 39  1  0  0  0  0
M  END
>  <MODEL>
2

>  <REMARK>
 VINA RESULT:      -6.3      2.776      7.845
  Name = 
  9 active torsions:
  status: ('A' for Active; 'I' for Inactive)
    1  A    between atoms: O_4  and  C_6
    2  A    between atoms: O_4  and  C_23
    3  A    between atoms: N_8  and  C_18
    4  A    between atoms: C_16  and  C_21
    5  A    between atoms: C_16  and  N_33
    6  A    between atoms: C_20  and  C_32
    7  A    between atoms: C_24  and  C_27
    8  A    between atoms: C_27  and  C_36
    9  A    between atoms: C_36  and  C_37
                            x       y       z     vdW  Elec       q    Type
                         _______ _______ _______ _____ _____    ______ ____

>  <TORSDO>
F 9

$$$$
=
 OpenBabel11072413273D

 41 46  0  0  1  0  0  0  0  0999 V2000
  162.1210  209.1610  150.2020 C   0  0  1  0  0  3  0  0  0  0  0  0
  161.5290  208.4850  147.9480 C   0  0  0  0  0  3  0  0  0  0  0  0
  161.4130  210.0780  152.4150 C   0  0  0  0  0  0  0  0  0  0  0  0
  160.6650  210.1780  154.5700 C   0  0  0  0  0  0  0  0  0  0  0  0
  160.6610  208.8130  154.1650 N   0  0  0  0  0  0  0  0  0  0  0  0
  160.2730  210.5620  155.7050 O   0  0  0  0  0  0  0  0  0  0  0  0
  161.0600  207.7510  151.9150 N   0  0  0  0  0  0  0  0  0  0  0  0
  161.4410  207.8850  150.6790 C   0  0  0  0  0  0  0  0  0  0  0  0
  161.3660  207.0850  148.3950 C   0  0  0  0  0  3  0  0  0  0  0  0
  161.2890  206.7880  149.6970 C   0  0  0  0  0  0  0  0  0  0  0  0
  161.8140  209.4330  148.7940 N   0  0  0  0  0  0  0  0  0  0  0  0
  161.1090  208.8560  152.8200 C   0  0  0  0  0  0  0  0  0  0  0  0
  161.8350  210.3230  151.0640 N   0  0  0  0  0  0  0  0  0  0  0  0
  161.1590  211.0950  153.4940 C   0  0  2  0  0  3  0  0  0  0  0  0
  159.8410  207.7610  154.7550 C   0  0  0  0  0  3  0  0  0  0  0  0
  160.7000  206.5540  155.0820 C   0  0  0  0  0  2  0  0  0  0  0  0
  160.2890  207.5070  156.1820 C   0  0  0  0  0  2  0  0  0  0  0  0
  161.0940  205.4530  150.0790 O   0  0  0  0  0  0  0  0  0  0  0  0
  161.0600  204.3700  149.1920 C   0  0  0  0  0  0  0  0  0  0  0  0
  160.5320  202.0390  148.7810 C   0  0  0  0  0  3  0  0  0  0  0  0
  161.4960  203.3820  147.0160 C   0  0  0  0  0  3  0  0  0  0  0  0
  160.9870  202.1550  147.4620 C   0  0  0  0  0  0  0  0  0  0  0  0
  161.5380  204.4820  147.8780 C   0  0  0  0  0  3  0  0  0  0  0  0
  160.5720  203.1390  149.6420 C   0  0  0  0  0  3  0  0  0  0  0  0
  160.9360  200.9960  146.5580 C   0  0  0  0  0  0  0  0  0  0  0  0
  160.3560  201.0810  145.4420 O   0  0  0  0  0  0  0  0  0  0  0  0
  161.5290  199.7920  146.9250 O   0  0  0  0  0  1  0  0  0  0  0  0
  162.2810  211.6560  150.6670 C   0  0  0  0  0  2  0  0  0  0  0  0
  159.5920  214.2290  147.7730 C   0  0  0  0  0  1  0  0  0  0  0  0
  161.2920  212.5790  147.2110 N   0  0  0  0  0  0  0  0  0  0  0  0
  161.6010  212.0980  149.4090 C   0  0  0  0  0  0  0  0  0  0  0  0
  160.3300  212.4340  149.3000 C   0  0  0  0  0  0  0  0  0  0  0  0
  159.4240  212.4570  150.3530 O   0  0  0  0  0  1  0  0  0  0  0  0
  160.0090  212.7730  147.8810 C   0  0  1  0  0  3  0  0  0  0  0  0
  163.5850  211.9150  147.7140 C   0  0  0  0  0  1  0  0  0  0  0  0
  162.1710  212.1960  148.0770 C   0  0  0  0  0  0  0  0  0  0  0  0
  160.0310  212.0340  153.0820 C   0  0  0  0  0  2  0  0  0  0  0  0
  158.6860  211.3270  153.1420 C   0  0  0  0  0  2  0  0  0  0  0  0
  157.5170  213.5120  153.4380 O   0  0  0  0  0  0  0  0  0  0  0  0
  156.9580  211.7090  154.7410 O   0  0  0  0  0  1  0  0  0  0  0  0
  157.6660  212.1830  153.8150 C   0  0  0  0  0  0  0  0  0  0  0  0
  1 11  1  6  0  0  0
  1  8  1  0  0  0  0
  1 13  1  0  0  0  0
  2  9  1  0  0  0  0
  2 11  2  0  0  0  0
  3 12  2  0  0  0  0
  3 14  1  0  0  0  0
  4  6  2  0  0  0  0
  5  4  1  0  0  0  0
  5 15  1  0  0  0  0
  7 12  1  0  0  0  0
  8  7  2  0  0  0  0
  9 10  2  0  0  0  0
 10 18  1  0  0  0  0
 10  8  1  0  0  0  0
 12  5  1  0  0  0  0
 13  3  1  0  0  0  0
 14 37  1  6  0  0  0
 14  4  1  0  0  0  0
 15 16  1  0  0  0  0
 15 17  1  0  0  0  0
 16 17  1  0  0  0  0
 19 24  1  0  0  0  0
 19 18  1  0  0  0  0
 20 24  2  0  0  0  0
 21 22  2  0  0  0  0
 21 23  1  0  0  0  0
 22 20  1  0  0  0  0
 23 19  2  0  0  0  0
 25 27  1  0  0  0  0
 25 22  1  0  0  0  0
 26 25  2  0  0  0  0
 28 13  1  0  0  0  0
 30 34  1  0  0  0  0
 30 36  2  0  0  0  0
 31 28  1  0  0  0  0
 32 31  2  0  0  0  0
 32 33  1  0  0  0  0
 34 29  1  1  0  0  0
 34 32  1  0  0  0  0
 35 36  1  0  0  0  0
 36 31  1  0  0  0  0
 37 38  1  0  0  0  0
 38 41  1  0  0  0  0
 39 41  2  0  0  0  0
 41 40  1  0  0  0  0
M  END
>  <MODEL>
3

>  <REMARK>
 VINA RESULT:      -6.1      1.927      2.721
  Name = 
  9 active torsions:
  status: ('A' for Active; 'I' for Inactive)
    1  A    between atoms: O_4  and  C_6
    2  A    between atoms: O_4  and  C_23
    3  A    between atoms: N_8  and  C_18
    4  A    between atoms: C_16  and  C_21
    5  A    between atoms: C_16  and  N_33
    6  A    between atoms: C_20  and  C_32
    7  A    between atoms: C_24  and  C_27
    8  A    between atoms: C_27  and  C_36
    9  A    between atoms: C_36  and  C_37
                            x       y       z     vdW  Elec       q    Type
                         _______ _______ _______ _____ _____    ______ ____

>  <TORSDO>
F 9

$$$$
=
 OpenBabel11072413273D

 41 46  0  0  1  0  0  0  0  0999 V2000
  161.5820  210.7370  149.9810 C   0  0  1  0  0  3  0  0  0  0  0  0
  163.0920  211.9830  148.5490 C   0  0  0  0  0  3  0  0  0  0  0  0
  160.8510  210.1070  152.2860 C   0  0  0  0  0  0  0  0  0  0  0  0
  159.7520  210.1440  154.2870 C   0  0  0  0  0  0  0  0  0  0  0  0
  159.3210  211.2680  153.5270 N   0  0  0  0  0  0  0  0  0  0  0  0
  159.3460  209.9060  155.4560 O   0  0  0  0  0  0  0  0  0  0  0  0
  160.1490  212.2050  151.3380 N   0  0  0  0  0  0  0  0  0  0  0  0
  160.9030  212.0650  150.2880 C   0  0  0  0  0  0  0  0  0  0  0  0
  162.1220  213.0960  148.4680 C   0  0  0  0  0  3  0  0  0  0  0  0
  161.0900  213.1650  149.3150 C   0  0  0  0  0  0  0  0  0  0  0  0
  162.8600  210.9390  149.2930 N   0  0  0  0  0  0  0  0  0  0  0  0
  160.0710  211.1760  152.3270 C   0  0  0  0  0  0  0  0  0  0  0  0
  161.7250  209.8750  151.1690 N   0  0  0  0  0  0  0  0  0  0  0  0
  160.7510  209.3030  153.5530 C   0  0  2  0  0  3  0  0  0  0  0  0
  158.7480  212.4910  154.0790 C   0  0  0  0  0  3  0  0  0  0  0  0
  157.2340  212.4040  154.0760 C   0  0  0  0  0  2  0  0  0  0  0  0
  158.0000  212.1700  155.3590 C   0  0  0  0  0  2  0  0  0  0  0  0
  160.2140  214.2560  149.2310 O   0  0  0  0  0  0  0  0  0  0  0  0
  158.8660  214.2230  149.6060 C   0  0  0  0  0  0  0  0  0  0  0  0
  156.5400  213.9650  148.9700 C   0  0  0  0  0  3  0  0  0  0  0  0
  157.1120  214.4150  151.2760 C   0  0  0  0  0  3  0  0  0  0  0  0
  156.1410  214.1670  150.2960 C   0  0  0  0  0  0  0  0  0  0  0  0
  158.4660  214.4490  150.9320 C   0  0  0  0  0  3  0  0  0  0  0  0
  157.8940  213.9980  148.6260 C   0  0  0  0  0  3  0  0  0  0  0  0
  154.7140  214.1250  150.6540 C   0  0  0  0  0  0  0  0  0  0  0  0
  153.8290  214.2010  149.7600 O   0  0  0  0  0  0  0  0  0  0  0  0
  154.3280  214.0000  151.9840 O   0  0  0  0  0  1  0  0  0  0  0  0
  162.4890  208.6330  151.0840 C   0  0  0  0  0  2  0  0  0  0  0  0
  161.1180  205.2440  148.1080 C   0  0  0  0  0  1  0  0  0  0  0  0
  160.3810  205.6590  150.3910 N   0  0  0  0  0  0  0  0  0  0  0  0
  161.6610  207.5320  150.5000 C   0  0  0  0  0  0  0  0  0  0  0  0
  161.2940  207.4320  149.2370 C   0  0  0  0  0  0  0  0  0  0  0  0
  161.6460  208.3310  148.2380 O   0  0  0  0  0  1  0  0  0  0  0  0
  160.4370  206.2240  149.0450 C   0  0  1  0  0  3  0  0  0  0  0  0
  161.2110  206.0990  152.6420 C   0  0  0  0  0  1  0  0  0  0  0  0
  161.0650  206.4040  151.1940 C   0  0  0  0  0  0  0  0  0  0  0  0
  162.0750  209.3330  154.3060 C   0  0  0  0  0  2  0  0  0  0  0  0
  162.3230  210.7030  154.9180 C   0  0  0  0  0  2  0  0  0  0  0  0
  161.9420  209.9320  157.2600 O   0  0  0  0  0  1  0  0  0  0  0  0
  163.8480  211.0820  156.7120 O   0  0  0  0  0  0  0  0  0  0  0  0
  162.7560  210.5790  156.3400 C   0  0  0  0  0  0  0  0  0  0  0  0
  1 11  1  1  0  0  0
  1  8  1  0  0  0  0
  1 13  1  0  0  0  0
  2 11  2  0  0  0  0
  3 12  2  0  0  0  0
  3 14  1  0  0  0  0
  4  6  2  0  0  0  0
  5 15  1  0  0  0  0
  5  4  1  0  0  0  0
  7 12  1  0  0  0  0
  8  7  2  0  0  0  0
  9  2  1  0  0  0  0
  9 10  2  0  0  0  0
 10  8  1  0  0  0  0
 12  5  1  0  0  0  0
 13  3  1  0  0  0  0
 14  4  1  0  0  0  0
 14 37  1  1  0  0  0
 15 17  1  0  0  0  0
 16 15  1  0  0  0  0
 16 17  1  0  0  0  0
 18 10  1  0  0  0  0
 18 19  1  0  0  0  0
 19 23  1  0  0  0  0
 20 22  2  0  0  0  0
 22 25  1  0  0  0  0
 22 21  1  0  0  0  0
 23 21  2  0  0  0  0
 24 20  1  0  0  0  0
 24 19  2  0  0  0  0
 25 27  1  0  0  0  0
 26 25  2  0  0  0  0
 28 13  1  0  0  0  0
 30 36  2  0  0  0  0
 31 28  1  0  0  0  0
 31 36  1  0  0  0  0
 32 31  2  0  0  0  0
 33 32  1  0  0  0  0
 34 29  1  6  0  0  0
 34 32  1  0  0  0  0
 34 30  1  0  0  0  0
 36 35  1  0  0  0  0
 37 38  1  0  0  0  0
 38 41  1  0  0  0  0
 41 40  2  0  0  0  0
 41 39  1  0  0  0  0
M  END
>  <MODEL>
4

>  <REMARK>
 VINA RESULT:      -5.9      2.477      7.468
  Name = 
  9 active torsions:
  status: ('A' for Active; 'I' for Inactive)
    1  A    between atoms: O_4  and  C_6
    2  A    between atoms: O_4  and  C_23
    3  A    between atoms: N_8  and  C_18
    4  A    between atoms: C_16  and  C_21
    5  A    between atoms: C_16  and  N_33
    6  A    between atoms: C_20  and  C_32
    7  A    between atoms: C_24  and  C_27
    8  A    between atoms: C_27  and  C_36
    9  A    between atoms: C_36  and  C_37
                            x       y       z     vdW  Elec       q    Type
                         _______ _______ _______ _____ _____    ______ ____

>  <TORSDO>
F 9

$$$$
=
 OpenBabel11072413273D

 41 46  0  0  1  0  0  0  0  0999 V2000
  160.7840  207.9950  149.0300 C   0  0  1  0  0  3  0  0  0  0  0  0
  162.1880  209.8180  148.2610 C   0  0  0  0  0  3  0  0  0  0  0  0
  160.5760  205.6100  149.7420 C   0  0  0  0  0  0  0  0  0  0  0  0
  160.5250  203.7480  151.0640 C   0  0  0  0  0  0  0  0  0  0  0  0
  160.8340  204.8670  151.8890 N   0  0  0  0  0  0  0  0  0  0  0  0
  160.4560  202.5680  151.5000 O   0  0  0  0  0  0  0  0  0  0  0  0
  161.3600  207.2620  151.3060 N   0  0  0  0  0  0  0  0  0  0  0  0
  161.4110  208.1960  150.4030 C   0  0  0  0  0  0  0  0  0  0  0  0
  162.3590  210.2930  149.6510 C   0  0  0  0  0  3  0  0  0  0  0  0
  162.0220  209.5150  150.6840 C   0  0  0  0  0  0  0  0  0  0  0  0
  161.5180  208.7330  147.9970 N   0  0  0  0  0  0  0  0  0  0  0  0
  160.8710  205.9580  150.9840 C   0  0  0  0  0  0  0  0  0  0  0  0
  160.6140  206.5740  148.6770 N   0  0  0  0  0  0  0  0  0  0  0  0
  160.3200  204.1310  149.6300 C   0  0  2  0  0  3  0  0  0  0  0  0
  161.5250  204.8040  153.1720 C   0  0  0  0  0  3  0  0  0  0  0  0
  162.1190  206.1580  153.5110 C   0  0  0  0  0  2  0  0  0  0  0  0
  160.8320  205.7130  154.1690 C   0  0  0  0  0  2  0  0  0  0  0  0
  162.2360  209.9860  151.9870 O   0  0  0  0  0  0  0  0  0  0  0  0
  161.2180  210.2900  152.8990 C   0  0  0  0  0  0  0  0  0  0  0  0
  160.1990  209.9300  155.0700 C   0  0  0  0  0  3  0  0  0  0  0  0
  159.1840  211.4710  153.5070 C   0  0  0  0  0  3  0  0  0  0  0  0
  159.1860  210.8450  154.7610 C   0  0  0  0  0  0  0  0  0  0  0  0
  160.1910  211.1900  152.5790 C   0  0  0  0  0  3  0  0  0  0  0  0
  161.2070  209.6500  154.1430 C   0  0  0  0  0  3  0  0  0  0  0  0
  158.1320  211.1410  155.7440 C   0  0  0  0  0  0  0  0  0  0  0  0
  158.4310  211.4520  156.9280 O   0  0  0  0  0  1  0  0  0  0  0  0
  156.7920  211.0830  155.3740 O   0  0  0  0  0  0  0  0  0  0  0  0
  160.1720  206.2000  147.3360 C   0  0  0  0  0  2  0  0  0  0  0  0
  164.2060  203.9530  146.3860 C   0  0  0  0  0  1  0  0  0  0  0  0
  162.3860  204.5270  144.8730 N   0  0  0  0  0  0  0  0  0  0  0  0
  161.2990  205.6200  146.5410 C   0  0  0  0  0  0  0  0  0  0  0  0
  162.5820  205.7650  146.8060 C   0  0  0  0  0  0  0  0  0  0  0  0
  163.0910  206.4650  147.8930 O   0  0  0  0  0  1  0  0  0  0  0  0
  163.4030  205.0810  145.7630 C   0  0  1  0  0  3  0  0  0  0  0  0
  159.9600  204.4230  144.6380 C   0  0  0  0  0  1  0  0  0  0  0  0
  161.2150  204.8410  145.3180 C   0  0  0  0  0  0  0  0  0  0  0  0
  161.3970  203.4700  148.7790 C   0  0  0  0  0  2  0  0  0  0  0  0
  160.7950  202.4240  147.8540 C   0  0  0  0  0  2  0  0  0  0  0  0
  161.5810  200.1230  147.2960 O   0  0  0  0  0  0  0  0  0  0  0  0
  161.2060  200.7250  149.4760 O   0  0  0  0  0  1  0  0  0  0  0  0
  161.2120  201.0520  148.2610 C   0  0  0  0  0  0  0  0  0  0  0  0
  1 11  1  6  0  0  0
  1  8  1  0  0  0  0
  2  9  1  0  0  0  0
  3 12  2  0  0  0  0
  4  6  2  0  0  0  0
  4  5  1  0  0  0  0
  5 15  1  0  0  0  0
  8 10  1  0  0  0  0
  8  7  2  0  0  0  0
  9 10  2  0  0  0  0
 10 18  1  0  0  0  0
 11  2  2  0  0  0  0
 12  7  1  0  0  0  0
 12  5  1  0  0  0  0
 13  1  1  0  0  0  0
 13  3  1  0  0  0  0
 14 37  1  6  0  0  0
 14  3  1  0  0  0  0
 14  4  1  0  0  0  0
 15 16  1  0  0  0  0
 15 17  1  0  0  0  0
 16 17  1  0  0  0  0
 18 19  1  0  0  0  0
 19 24  1  0  0  0  0
 21 22  2  0  0  0  0
 22 20  1  0  0  0  0
 22 25  1  0  0  0  0
 23 19  2  0  0  0  0
 23 21  1  0  0  0  0
 24 20  2  0  0  0  0
 25 26  1  0  0  0  0
 27 25  2  0  0  0  0
 28 13  1  0  0  0  0
 30 36  2  0  0  0  0
 30 34  1  0  0  0  0
 31 32  2  0  0  0  0
 31 28  1  0  0  0  0
 32 33  1  0  0  0  0
 34 29  1  1  0  0  0
 34 32  1  0  0  0  0
 35 36  1  0  0  0  0
 36 31  1  0  0  0  0
 38 41  1  0  0  0  0
 38 37  1  0  0  0  0
 39 41  2  0  0  0  0
 41 40  1  0  0  0  0
M  END
>  <MODEL>
5

>  <REMARK>
 VINA RESULT:      -5.2      2.946      8.544
  Name = 
  9 active torsions:
  status: ('A' for Active; 'I' for Inactive)
    1  A    between atoms: O_4  and  C_6
    2  A    between atoms: O_4  and  C_23
    3  A    between atoms: N_8  and  C_18
    4  A    between atoms: C_16  and  C_21
    5  A    between atoms: C_16  and  N_33
    6  A    between atoms: C_20  and  C_32
    7  A    between atoms: C_24  and  C_27
    8  A    between atoms: C_27  and  C_36
    9  A    between atoms: C_36  and  C_37
                            x       y       z     vdW  Elec       q    Type
                         _______ _______ _______ _____ _____    ______ ____

>  <TORSDO>
F 9

$$$$
=
 OpenBabel11072413273D

 41 46  0  0  1  0  0  0  0  0999 V2000
  162.2360  210.0770  151.4010 C   0  0  1  0  0  3  0  0  0  0  0  0
  161.5950  211.6940  149.7090 C   0  0  0  0  0  3  0  0  0  0  0  0
  161.5620  208.3280  153.0520 C   0  0  0  0  0  0  0  0  0  0  0  0
  161.0470  206.2920  153.9510 C   0  0  0  0  0  0  0  0  0  0  0  0
  161.3420  206.1030  152.5710 N   0  0  0  0  0  0  0  0  0  0  0  0
  160.6960  205.3550  154.7160 O   0  0  0  0  0  0  0  0  0  0  0  0
  161.7530  207.7630  150.7200 N   0  0  0  0  0  0  0  0  0  0  0  0
  161.9530  208.9980  150.3640 C   0  0  0  0  0  0  0  0  0  0  0  0
  161.8360  210.6970  148.6440 C   0  0  0  0  0  3  0  0  0  0  0  0
  161.9760  209.4010  148.9400 C   0  0  0  0  0  0  0  0  0  0  0  0
  161.7210  211.3800  150.9670 N   0  0  0  0  0  0  0  0  0  0  0  0
  161.6190  207.4110  152.0990 C   0  0  0  0  0  0  0  0  0  0  0  0
  161.7620  209.7180  152.7500 N   0  0  0  0  0  0  0  0  0  0  0  0
  161.1780  207.7230  154.3750 C   0  0  2  0  0  3  0  0  0  0  0  0
  160.8810  204.9850  151.7560 C   0  0  0  0  0  3  0  0  0  0  0  0
  161.9770  203.9410  151.6360 C   0  0  0  0  0  2  0  0  0  0  0  0
  160.8310  203.7260  152.6000 C   0  0  0  0  0  2  0  0  0  0  0  0
  162.1650  208.4820  147.8980 O   0  0  0  0  0  0  0  0  0  0  0  0
  161.8330  207.1240  147.9670 C   0  0  0  0  0  0  0  0  0  0  0  0
  162.3210  204.8330  147.3380 C   0  0  0  0  0  3  0  0  0  0  0  0
  160.3900  205.3170  148.7120 C   0  0  0  0  0  3  0  0  0  0  0  0
  161.2030  204.3850  148.0520 C   0  0  0  0  0  0  0  0  0  0  0  0
  160.7000  206.6790  148.6640 C   0  0  0  0  0  3  0  0  0  0  0  0
  162.6320  206.1950  147.2920 C   0  0  0  0  0  3  0  0  0  0  0  0
  160.8850  202.9500  148.1040 C   0  0  0  0  0  0  0  0  0  0  0  0
  161.3230  202.1660  147.2190 O   0  0  0  0  0  0  0  0  0  0  0  0
  160.0980  202.4420  149.1320 O   0  0  0  0  0  1  0  0  0  0  0  0
  161.8140  210.7000  153.8290 C   0  0  0  0  0  2  0  0  0  0  0  0
  157.1230  210.8210  154.2930 C   0  0  0  0  0  1  0  0  0  0  0  0
  158.7890  212.3300  155.2320 N   0  0  0  0  0  0  0  0  0  0  0  0
  160.4490  211.2330  154.1370 C   0  0  0  0  0  0  0  0  0  0  0  0
  159.3890  211.1270  153.3600 C   0  0  0  0  0  0  0  0  0  0  0  0
  159.3690  210.4750  152.1340 O   0  0  0  0  0  1  0  0  0  0  0  0
  158.2230  211.8210  153.9850 C   0  0  1  0  0  3  0  0  0  0  0  0
  160.9000  212.3610  156.4540 C   0  0  0  0  0  1  0  0  0  0  0  0
  160.0350  211.9970  155.3000 C   0  0  0  0  0  0  0  0  0  0  0  0
  159.8130  208.2380  154.8160 C   0  0  0  0  0  2  0  0  0  0  0  0
  159.7590  208.4150  156.3260 C   0  0  0  0  0  2  0  0  0  0  0  0
  161.9120  209.4230  157.0840 O   0  0  0  0  0  0  0  0  0  0  0  0
  161.5610  207.1630  157.2610 O   0  0  0  0  0  1  0  0  0  0  0  0
  161.1190  208.2930  156.9240 C   0  0  0  0  0  0  0  0  0  0  0  0
  1  8  1  6  0  0  0
  1 13  1  0  0  0  0
  2 11  2  0  0  0  0
  3 14  1  0  0  0  0
  4 14  1  0  0  0  0
  4  6  2  0  0  0  0
  5  4  1  0  0  0  0
  7 12  1  0  0  0  0
  8  7  2  0  0  0  0
  9 10  2  0  0  0  0
  9  2  1  0  0  0  0
 10  8  1  0  0  0  0
 11  1  1  0  0  0  0
 12  5  1  0  0  0  0
 12  3  2  0  0  0  0
 13  3  1  0  0  0  0
 13 28  1  0  0  0  0
 14 37  1  6  0  0  0
 15  5  1  0  0  0  0
 15 17  1  0  0  0  0
 16 15  1  0  0  0  0
 16 17  1  0  0  0  0
 18 19  1  0  0  0  0
 18 10  1  0  0  0  0
 19 23  1  0  0  0  0
 20 22  2  0  0  0  0
 22 25  1  0  0  0  0
 22 21  1  0  0  0  0
 23 21  2  0  0  0  0
 24 20  1  0  0  0  0
 24 19  2  0  0  0  0
 25 27  1  0  0  0  0
 26 25  2  0  0  0  0
 28 31  1  0  0  0  0
 30 36  2  0  0  0  0
 31 36  1  0  0  0  0
 32 34  1  0  0  0  0
 32 31  2  0  0  0  0
 33 32  1  0  0  0  0
 34 29  1  1  0  0  0
 34 30  1  0  0  0  0
 36 35  1  0  0  0  0
 37 38  1  0  0  0  0
 38 41  1  0  0  0  0
 41 39  2  0  0  0  0
 41 40  1  0  0  0  0
M  END
>  <MODEL>
6

>  <REMARK>
 VINA RESULT:      -4.7      2.672      5.746
  Name = 
  9 active torsions:
  status: ('A' for Active; 'I' for Inactive)
    1  A    between atoms: O_4  and  C_6
    2  A    between atoms: O_4  and  C_23
    3  A    between atoms: N_8  and  C_18
    4  A    between atoms: C_16  and  C_21
    5  A    between atoms: C_16  and  N_33
    6  A    between atoms: C_20  and  C_32
    7  A    between atoms: C_24  and  C_27
    8  A    between atoms: C_27  and  C_36
    9  A    between atoms: C_36  and  C_37
                            x       y       z     vdW  Elec       q    Type
                         _______ _______ _______ _____ _____    ______ ____

>  <TORSDO>
F 9

$$$$
=
 OpenBabel11072413273D

 41 46  0  0  1  0  0  0  0  0999 V2000
  160.4540  208.4200  152.5410 C   0  0  1  0  0  3  0  0  0  0  0  0
  161.9650  206.6270  153.1670 C   0  0  0  0  0  3  0  0  0  0  0  0
  159.9970  210.8690  152.3700 C   0  0  0  0  0  0  0  0  0  0  0  0
  159.8950  212.9930  151.5360 C   0  0  0  0  0  0  0  0  0  0  0  0
  160.5360  212.1690  150.5680 N   0  0  0  0  0  0  0  0  0  0  0  0
  159.7170  214.2310  151.3800 O   0  0  0  0  0  0  0  0  0  0  0  0
  161.3280  209.7800  150.6870 N   0  0  0  0  0  0  0  0  0  0  0  0
  161.3570  208.6540  151.3370 C   0  0  0  0  0  0  0  0  0  0  0  0
  162.4750  206.5530  151.7810 C   0  0  0  0  0  3  0  0  0  0  0  0
  162.2200  207.5310  150.9060 C   0  0  0  0  0  0  0  0  0  0  0  0
  161.0870  207.5250  153.5150 N   0  0  0  0  0  0  0  0  0  0  0  0
  160.5780  210.8910  151.1810 C   0  0  0  0  0  0  0  0  0  0  0  0
  159.9880  209.6720  153.1640 N   0  0  0  0  0  0  0  0  0  0  0  0
  159.4840  212.2300  152.7580 C   0  0  2  0  0  3  0  0  0  0  0  0
  161.4410  212.6410  149.5250 C   0  0  0  0  0  3  0  0  0  0  0  0
  160.9370  212.2030  148.1620 C   0  0  0  0  0  2  0  0  0  0  0  0
  160.7140  213.6250  148.6280 C   0  0  0  0  0  2  0  0  0  0  0  0
  162.7540  207.4420  149.6130 O   0  0  0  0  0  0  0  0  0  0  0  0
  162.3360  206.5250  148.6420 C   0  0  0  0  0  0  0  0  0  0  0  0
  162.2440  205.8680  146.3090 C   0  0  0  0  0  3  0  0  0  0  0  0
  161.1640  204.5010  147.9870 C   0  0  0  0  0  3  0  0  0  0  0  0
  161.5020  204.7290  146.6460 C   0  0  0  0  0  0  0  0  0  0  0  0
  161.5730  205.3960  148.9780 C   0  0  0  0  0  3  0  0  0  0  0  0
  162.6540  206.7630  147.3010 C   0  0  0  0  0  3  0  0  0  0  0  0
  161.0790  203.7860  145.5990 C   0  0  0  0  0  0  0  0  0  0  0  0
  160.5980  204.2100  144.5140 O   0  0  0  0  0  0  0  0  0  0  0  0
  161.2070  202.4150  145.7960 O   0  0  0  0  0  1  0  0  0  0  0  0
  159.2410  209.6320  154.4180 C   0  0  0  0  0  2  0  0  0  0  0  0
  161.4500  206.3680  157.0060 C   0  0  0  0  0  1  0  0  0  0  0  0
  161.7540  208.7840  157.0130 N   0  0  0  0  0  0  0  0  0  0  0  0
  160.0660  209.0360  155.5160 C   0  0  0  0  0  0  0  0  0  0  0  0
  159.7440  207.9750  156.2310 C   0  0  0  0  0  0  0  0  0  0  0  0
  158.5880  207.2240  156.0550 O   0  0  0  0  0  1  0  0  0  0  0  0
  160.7930  207.7120  157.2600 C   0  0  1  0  0  3  0  0  0  0  0  0
  162.0870  210.6960  155.5360 C   0  0  0  0  0  1  0  0  0  0  0  0
  161.3310  209.5190  156.0390 C   0  0  0  0  0  0  0  0  0  0  0  0
  160.2540  212.7630  153.9600 C   0  0  0  0  0  2  0  0  0  0  0  0
  159.3280  213.4940  154.9200 C   0  0  0  0  0  2  0  0  0  0  0  0
  158.7580  212.0540  156.8760 O   0  0  0  0  0  0  0  0  0  0  0  0
  160.4600  213.5840  157.0180 O   0  0  0  0  0  1  0  0  0  0  0  0
  159.5580  213.0460  156.3240 C   0  0  0  0  0  0  0  0  0  0  0  0
  1  8  1  6  0  0  0
  1 13  1  0  0  0  0
  1 11  1  0  0  0  0
  2 11  2  0  0  0  0
  3 14  1  0  0  0  0
  3 13  1  0  0  0  0
  4 14  1  0  0  0  0
  5 12  1  0  0  0  0
  5  4  1  0  0  0  0
  6  4  2  0  0  0  0
  7 12  1  0  0  0  0
  7  8  2  0  0  0  0
  9  2  1  0  0  0  0
 10  8  1  0  0  0  0
 10  9  2  0  0  0  0
 12  3  2  0  0  0  0
 13 28  1  0  0  0  0
 14 37  1  1  0  0  0
 15  5  1  0  0  0  0
 16 17  1  0  0  0  0
 16 15  1  0  0  0  0
 17 15  1  0  0  0  0
 18 10  1  0  0  0  0
 19 23  1  0  0  0  0
 19 18  1  0  0  0  0
 20 22  2  0  0  0  0
 20 24  1  0  0  0  0
 21 23  2  0  0  0  0
 22 21  1  0  0  0  0
 24 19  2  0  0  0  0
 25 27  1  0  0  0  0
 25 22  1  0  0  0  0
 26 25  2  0  0  0  0
 28 31  1  0  0  0  0
 30 34  1  0  0  0  0
 31 36  1  0  0  0  0
 31 32  2  0  0  0  0
 32 34  1  0  0  0  0
 33 32  1  0  0  0  0
 34 29  1  6  0  0  0
 35 36  1  0  0  0  0
 36 30  2  0  0  0  0
 37 38  1  0  0  0  0
 38 41  1  0  0  0  0
 41 39  2  0  0  0  0
 41 40  1  0  0  0  0
M  END
>  <MODEL>
7

>  <REMARK>
 VINA RESULT:      -4.6      2.455      6.050
  Name = 
  9 active torsions:
  status: ('A' for Active; 'I' for Inactive)
    1  A    between atoms: O_4  and  C_6
    2  A    between atoms: O_4  and  C_23
    3  A    between atoms: N_8  and  C_18
    4  A    between atoms: C_16  and  C_21
    5  A    between atoms: C_16  and  N_33
    6  A    between atoms: C_20  and  C_32
    7  A    between atoms: C_24  and  C_27
    8  A    between atoms: C_27  and  C_36
    9  A    between atoms: C_36  and  C_37
                            x       y       z     vdW  Elec       q    Type
                         _______ _______ _______ _____ _____    ______ ____

>  <TORSDO>
F 9

$$$$
=
 OpenBabel11072413273D

 41 46  0  0  1  0  0  0  0  0999 V2000
  161.7730  210.8970  150.6050 C   0  0  1  0  0  3  0  0  0  0  0  0
  161.1850  210.4330  148.2980 C   0  0  0  0  0  3  0  0  0  0  0  0
  161.1100  210.9490  153.0130 C   0  0  0  0  0  0  0  0  0  0  0  0
  160.7730  210.2900  155.1730 C   0  0  0  0  0  0  0  0  0  0  0  0
  161.3240  209.1890  154.4580 N   0  0  0  0  0  0  0  0  0  0  0  0
  160.4470  210.2280  156.3890 O   0  0  0  0  0  0  0  0  0  0  0  0
  161.7780  208.8710  151.9990 N   0  0  0  0  0  0  0  0  0  0  0  0
  161.8420  209.3900  150.8090 C   0  0  0  0  0  0  0  0  0  0  0  0
  161.7560  209.0740  148.4100 C   0  0  0  0  0  3  0  0  0  0  0  0
  162.0430  208.5500  149.6060 C   0  0  0  0  0  0  0  0  0  0  0  0
  161.1430  211.2340  149.3240 N   0  0  0  0  0  0  0  0  0  0  0  0
  161.4690  209.6810  153.1350 C   0  0  0  0  0  0  0  0  0  0  0  0
  161.1390  211.6030  151.7340 N   0  0  0  0  0  0  0  0  0  0  0  0
  160.6060  211.5070  154.3160 C   0  0  2  0  0  3  0  0  0  0  0  0
  161.1880  207.7860  154.8320 C   0  0  0  0  0  3  0  0  0  0  0  0
  160.6580  207.6750  156.2500 C   0  0  0  0  0  2  0  0  0  0  0  0
  159.7260  207.4640  155.0770 C   0  0  0  0  0  2  0  0  0  0  0  0
  162.5470  207.2440  149.6730 O   0  0  0  0  0  0  0  0  0  0  0  0
  162.2100  206.2170  148.7830 C   0  0  0  0  0  0  0  0  0  0  0  0
  161.0950  204.1010  148.3790 C   0  0  0  0  0  3  0  0  0  0  0  0
  162.3110  205.1790  146.5880 C   0  0  0  0  0  3  0  0  0  0  0  0
  161.5220  204.1150  147.0460 C   0  0  0  0  0  0  0  0  0  0  0  0
  162.6580  206.2210  147.4530 C   0  0  0  0  0  3  0  0  0  0  0  0
  161.4410  205.1430  149.2440 C   0  0  0  0  0  3  0  0  0  0  0  0
  161.1490  203.0190  146.1390 C   0  0  0  0  0  0  0  0  0  0  0  0
  161.0700  203.2170  144.8960 O   0  0  0  0  0  0  0  0  0  0  0  0
  160.8810  201.7510  146.6430 O   0  0  0  0  0  1  0  0  0  0  0  0
  160.8530  213.0320  151.6370 C   0  0  0  0  0  2  0  0  0  0  0  0
  156.7580  214.4420  149.7740 C   0  0  0  0  0  1  0  0  0  0  0  0
  158.8580  213.9460  148.6450 N   0  0  0  0  0  0  0  0  0  0  0  0
  159.8010  213.3000  150.6070 C   0  0  0  0  0  0  0  0  0  0  0  0
  158.5230  212.9940  150.7160 C   0  0  0  0  0  0  0  0  0  0  0  0
  157.9450  212.3920  151.8270 O   0  0  0  0  0  1  0  0  0  0  0  0
  157.7950  213.3760  149.4690 C   0  0  1  0  0  3  0  0  0  0  0  0
  161.2540  214.3980  148.7290 C   0  0  0  0  0  1  0  0  0  0  0  0
  159.9740  213.8920  149.2920 C   0  0  0  0  0  0  0  0  0  0  0  0
  159.1220  211.8410  154.2110 C   0  0  0  0  0  2  0  0  0  0  0  0
  158.7260  212.8920  155.2360 C   0  0  0  0  0  2  0  0  0  0  0  0
  156.6990  211.8510  156.2530 O   0  0  0  0  0  1  0  0  0  0  0  0
  156.5150  213.7460  154.9750 O   0  0  0  0  0  0  0  0  0  0  0  0
  157.2560  212.8650  155.4830 C   0  0  0  0  0  0  0  0  0  0  0  0
  1 11  1  6  0  0  0
  1  8  1  0  0  0  0
  1 13  1  0  0  0  0
  2  9  1  0  0  0  0
  2 11  2  0  0  0  0
  3 12  2  0  0  0  0
  3 14  1  0  0  0  0
  4  6  2  0  0  0  0
  5 15  1  0  0  0  0
  5  4  1  0  0  0  0
  7 12  1  0  0  0  0
  8  7  2  0  0  0  0
  9 10  2  0  0  0  0
 10 18  1  0  0  0  0
 10  8  1  0  0  0  0
 12  5  1  0  0  0  0
 13  3  1  0  0  0  0
 14 37  1  6  0  0  0
 14  4  1  0  0  0  0
 15 17  1  0  0  0  0
 15 16  1  0  0  0  0
 17 16  1  0  0  0  0
 19 24  1  0  0  0  0
 19 18  1  0  0  0  0
 20 24  2  0  0  0  0
 21 22  2  0  0  0  0
 21 23  1  0  0  0  0
 22 20  1  0  0  0  0
 23 19  2  0  0  0  0
 25 27  1  0  0  0  0
 25 22  1  0  0  0  0
 26 25  2  0  0  0  0
 28 13  1  0  0  0  0
 30 36  2  0  0  0  0
 30 34  1  0  0  0  0
 31 32  2  0  0  0  0
 31 28  1  0  0  0  0
 32 33  1  0  0  0  0
 34 29  1  1  0  0  0
 34 32  1  0  0  0  0
 35 36  1  0  0  0  0
 36 31  1  0  0  0  0
 37 38  1  0  0  0  0
 38 41  1  0  0  0  0
 40 41  2  0  0  0  0
 41 39  1  0  0  0  0
M  END
>  <MODEL>
8

>  <REMARK>
 VINA RESULT:      -4.1      2.102      2.966
  Name = 
  9 active torsions:
  status: ('A' for Active; 'I' for Inactive)
    1  A    between atoms: O_4  and  C_6
    2  A    between atoms: O_4  and  C_23
    3  A    between atoms: N_8  and  C_18
    4  A    between atoms: C_16  and  C_21
    5  A    between atoms: C_16  and  N_33
    6  A    between atoms: C_20  and  C_32
    7  A    between atoms: C_24  and  C_27
    8  A    between atoms: C_27  and  C_36
    9  A    between atoms: C_36  and  C_37
                            x       y       z     vdW  Elec       q    Type
                         _______ _______ _______ _____ _____    ______ ____

>  <TORSDO>
F 9

$$$$
=
 OpenBabel11072413273D

 41 46  0  0  1  0  0  0  0  0999 V2000
  161.8800  208.9110  152.7090 C   0  0  1  0  0  3  0  0  0  0  0  0
  160.6160  207.7830  154.4450 C   0  0  0  0  0  3  0  0  0  0  0  0
  162.0110  209.7450  150.3580 C   0  0  0  0  0  0  0  0  0  0  0  0
  161.8350  211.1210  148.5430 C   0  0  0  0  0  0  0  0  0  0  0  0
  161.3150  211.8130  149.6730 N   0  0  0  0  0  0  0  0  0  0  0  0
  161.8490  211.6080  147.3810 O   0  0  0  0  0  0  0  0  0  0  0  0
  160.8470  211.0350  152.0230 N   0  0  0  0  0  0  0  0  0  0  0  0
  160.9630  210.1060  152.9260 C   0  0  0  0  0  0  0  0  0  0  0  0
  160.1300  209.0820  154.9560 C   0  0  0  0  0  3  0  0  0  0  0  0
  160.2590  210.1950  154.2250 C   0  0  0  0  0  0  0  0  0  0  0  0
  161.3650  207.7140  153.3820 N   0  0  0  0  0  0  0  0  0  0  0  0
  161.4400  210.8790  150.7320 C   0  0  0  0  0  0  0  0  0  0  0  0
  162.1720  208.6600  151.2850 N   0  0  0  0  0  0  0  0  0  0  0  0
  162.3360  209.7520  148.8890 C   0  0  2  0  0  3  0  0  0  0  0  0
  160.3630  212.9170  149.6200 C   0  0  0  0  0  3  0  0  0  0  0  0
  160.8230  214.0440  150.5270 C   0  0  0  0  0  2  0  0  0  0  0  0
  161.0370  214.1430  149.0320 C   0  0  0  0  0  2  0  0  0  0  0  0
  159.7490  211.4000  154.7280 O   0  0  0  0  0  0  0  0  0  0  0  0
  158.5750  212.0150  154.2770 C   0  0  0  0  0  0  0  0  0  0  0  0
  157.5140  213.8050  153.0310 C   0  0  0  0  0  3  0  0  0  0  0  0
  156.1520  212.1630  154.1690 C   0  0  0  0  0  3  0  0  0  0  0  0
  156.2500  213.3050  153.3620 C   0  0  0  0  0  0  0  0  0  0  0  0
  157.3080  211.5250  154.6290 C   0  0  0  0  0  3  0  0  0  0  0  0
  158.6700  213.1670  153.4900 C   0  0  0  0  0  3  0  0  0  0  0  0
  155.0370  213.9760  152.8710 C   0  0  0  0  0  0  0  0  0  0  0  0
  154.1970  214.4530  153.6810 O   0  0  0  0  0  1  0  0  0  0  0  0
  154.8040  214.0940  151.5040 O   0  0  0  0  0  0  0  0  0  0  0  0
  162.9100  207.4640  150.8890 C   0  0  0  0  0  2  0  0  0  0  0  0
  160.8150  203.8940  153.1460 C   0  0  0  0  0  1  0  0  0  0  0  0
  160.3760  204.7530  150.9100 N   0  0  0  0  0  0  0  0  0  0  0  0
  162.0900  206.2310  151.1040 C   0  0  0  0  0  0  0  0  0  0  0  0
  162.4500  205.1820  151.8180 C   0  0  0  0  0  0  0  0  0  0  0  0
  163.6500  205.0700  152.5090 O   0  0  0  0  0  1  0  0  0  0  0  0
  161.3890  204.1330  151.7610 C   0  0  1  0  0  3  0  0  0  0  0  0
  159.9790  206.8180  149.6750 C   0  0  0  0  0  1  0  0  0  0  0  0
  160.7850  205.9230  150.5470 C   0  0  0  0  0  0  0  0  0  0  0  0
  161.4940  208.7140  148.1560 C   0  0  0  0  0  2  0  0  0  0  0  0
  162.3740  207.6470  147.5220 C   0  0  0  0  0  2  0  0  0  0  0  0
  161.9350  205.2070  147.2480 O   0  0  0  0  0  1  0  0  0  0  0  0
  160.5170  206.7520  146.3220 O   0  0  0  0  0  0  0  0  0  0  0  0
  161.5490  206.5190  147.0030 C   0  0  0  0  0  0  0  0  0  0  0  0
  1  8  1  6  0  0  0
  1 11  1  0  0  0  0
  2  9  1  0  0  0  0
  3 12  2  0  0  0  0
  3 13  1  0  0  0  0
  4 14  1  0  0  0  0
  4  5  1  0  0  0  0
  5 12  1  0  0  0  0
  6  4  2  0  0  0  0
  7  8  2  0  0  0  0
  8 10  1  0  0  0  0
 10 18  1  0  0  0  0
 10  9  2  0  0  0  0
 11  2  2  0  0  0  0
 12  7  1  0  0  0  0
 13  1  1  0  0  0  0
 14 37  1  6  0  0  0
 14  3  1  0  0  0  0
 15  5  1  0  0  0  0
 15 16  1  0  0  0  0
 17 15  1  0  0  0  0
 17 16  1  0  0  0  0
 19 23  1  0  0  0  0
 19 18  1  0  0  0  0
 20 22  2  0  0  0  0
 20 24  1  0  0  0  0
 21 23  2  0  0  0  0
 22 21  1  0  0  0  0
 24 19  2  0  0  0  0
 25 22  1  0  0  0  0
 25 26  1  0  0  0  0
 27 25  2  0  0  0  0
 28 31  1  0  0  0  0
 28 13  1  0  0  0  0
 30 34  1  0  0  0  0
 31 32  2  0  0  0  0
 32 33  1  0  0  0  0
 34 32  1  0  0  0  0
 34 29  1  1  0  0  0
 35 36  1  0  0  0  0
 36 30  2  0  0  0  0
 36 31  1  0  0  0  0
 38 37  1  0  0  0  0
 40 41  2  0  0  0  0
 41 39  1  0  0  0  0
 41 38  1  0  0  0  0
M  END
>  <MODEL>
9

>  <REMARK>
 VINA RESULT:      -3.7      2.158      8.458
  Name = 
  9 active torsions:
  status: ('A' for Active; 'I' for Inactive)
    1  A    between atoms: O_4  and  C_6
    2  A    between atoms: O_4  and  C_23
    3  A    between atoms: N_8  and  C_18
    4  A    between atoms: C_16  and  C_21
    5  A    between atoms: C_16  and  N_33
    6  A    between atoms: C_20  and  C_32
    7  A    between atoms: C_24  and  C_27
    8  A    between atoms: C_27  and  C_36
    9  A    between atoms: C_36  and  C_37
                            x       y       z     vdW  Elec       q    Type
                         _______ _______ _______ _____ _____    ______ ____

>  <TORSDO>
F 9

$$$$
