=
 OpenBabel11072414253D

 26 29  0  0  1  0  0  0  0  0999 V2000
  162.2840  206.0380  146.3890 C   0  0  0  0  0  2  0  0  0  0  0  0
  162.3100  209.5410  151.3210 C   0  0  1  0  0  3  0  0  0  0  0  0
  161.5720  209.5630  152.4170 C   0  0  0  0  0  0  0  0  0  0  0  0
  160.0780  206.1230  149.0600 C   0  0  0  0  0  2  0  0  0  0  0  0
  161.4530  205.8970  151.8230 C   0  0  0  0  0  2  0  0  0  0  0  0
  162.6160  204.6830  147.0120 C   0  0  0  0  0  2  0  0  0  0  0  0
  161.8530  208.3730  149.4500 C   0  0  1  0  0  3  0  0  0  0  0  0
  162.4780  208.1780  150.8250 C   0  0  2  0  0  3  0  0  0  0  0  0
  160.2790  206.3490  147.6820 O   0  0  0  0  0  0  0  0  0  0  0  0
  162.0910  209.7170  149.0580 O   0  0  0  0  0  0  0  0  0  0  0  0
  161.1040  202.5880  149.2020 O   0  0  0  0  0  0  0  0  0  0  0  0
  161.5330  206.9470  147.3570 C   0  0  1  0  0  3  0  0  0  0  0  0
  161.6430  207.3890  151.7990 C   0  0  2  0  0  3  0  0  0  0  0  0
  162.0660  210.4030  150.2340 N   0  0  0  0  0  2  0  0  0  0  0  0
  161.1940  208.2040  152.7440 C   0  0  0  0  0  0  0  0  0  0  0  0
  162.4860  207.3940  148.4820 C   0  0  0  0  0  2  0  0  0  0  0  0
  161.0570  210.7090  153.0120 O   0  0  0  0  0  1  0  0  0  0  0  0
  161.0680  203.7080  148.7120 C   0  0  0  0  0  0  0  0  0  0  0  0
  160.7720  204.8720  149.6310 C   0  0  1  0  0  3  0  0  0  0  0  0
  161.3460  203.8740  147.2370 C   0  0  2  0  0  3  0  0  0  0  0  0
  160.4350  207.8190  153.8430 O   0  0  0  0  0  1  0  0  0  0  0  0
  161.9410  205.2020  150.5540 C   0  0  0  0  0  2  0  0  0  0  0  0
  161.4590  202.6350  146.5990 O   0  0  0  0  0  0  0  0  0  0  0  0
  160.7910  202.7970  145.3820 C   0  0  0  0  0  2  0  0  0  0  0  0
  160.6960  200.5680  145.7180 O   0  0  0  0  0  1  0  0  0  0  0  0
  160.0930  201.5720  145.0380 N   0  0  0  0  0  2  0  0  0  0  0  0
  1  6  1  0  0  0  0
  1 12  1  0  0  0  0
  2 14  1  6  0  0  0
  2  3  1  0  0  0  0
  3 15  2  0  0  0  0
  3 17  1  0  0  0  0
  4 19  1  0  0  0  0
  6 20  1  0  0  0  0
  7 16  1  6  0  0  0
  7  8  1  0  0  0  0
  8  2  1  0  0  0  0
  8 13  1  0  0  0  0
  9  4  1  0  0  0  0
 10  7  1  0  0  0  0
 10 14  1  0  0  0  0
 12  9  1  0  0  0  0
 12 16  1  0  0  0  0
 13  5  1  0  0  0  0
 13 15  1  0  0  0  0
 15 21  1  0  0  0  0
 18 11  2  0  0  0  0
 18 19  1  0  0  0  0
 19 22  1  0  0  0  0
 20 18  1  0  0  0  0
 22  5  1  0  0  0  0
 23 20  1  0  0  0  0
 24 23  1  0  0  0  0
 26 24  1  0  0  0  0
 26 25  1  0  0  0  0
M  END
>  <MODEL>
1

>  <REMARK>
 VINA RESULT:      -9.3      0.000      0.000
  Name = 
  3 active torsions:
  status: ('A' for Active; 'I' for Inactive)
    1  A    between atoms: N_6  and  C_13
    2  A    between atoms: O_12  and  C_13
    3  A    between atoms: O_12  and  C_24
                            x       y       z     vdW  Elec       q    Type
                         _______ _______ _______ _____ _____    ______ ____

>  <TORSDO>
F 3

$$$$
=
 OpenBabel11072414253D

 26 29  0  0  1  0  0  0  0  0999 V2000
  161.6210  205.8680  151.8060 C   0  0  0  0  0  2  0  0  0  0  0  0
  161.3200  202.2790  146.9450 C   0  0  1  0  0  3  0  0  0  0  0  0
  160.8550  202.4550  145.7210 C   0  0  0  0  0  0  0  0  0  0  0  0
  160.1070  206.4140  148.7380 C   0  0  0  0  0  2  0  0  0  0  0  0
  161.9810  205.9450  146.3190 C   0  0  0  0  0  2  0  0  0  0  0  0
  162.5440  206.9670  151.2810 C   0  0  0  0  0  2  0  0  0  0  0  0
  160.9690  203.6530  148.6950 C   0  0  1  0  0  3  0  0  0  0  0  0
  161.8770  203.5180  147.4810 C   0  0  2  0  0  3  0  0  0  0  0  0
  159.9380  206.2210  150.1250 O   0  0  0  0  0  0  0  0  0  0  0  0
  160.6140  202.3430  149.1130 O   0  0  0  0  0  0  0  0  0  0  0  0
  162.3680  209.3190  148.8500 O   0  0  0  0  0  0  0  0  0  0  0  0
  160.7930  205.2320  150.6940 C   0  0  1  0  0  3  0  0  0  0  0  0
  161.5990  204.4910  146.3650 C   0  0  2  0  0  3  0  0  0  0  0  0
  160.5690  201.6380  147.9490 N   0  0  0  0  0  2  0  0  0  0  0  0
  161.0760  203.8340  145.3390 C   0  0  0  0  0  0  0  0  0  0  0  0
  161.7150  204.3980  149.7840 C   0  0  0  0  0  2  0  0  0  0  0  0
  160.0820  201.5380  145.0200 O   0  0  0  0  0  1  0  0  0  0  0  0
  161.8280  208.3240  149.3100 C   0  0  0  0  0  0  0  0  0  0  0  0
  161.3100  207.2890  148.3360 C   0  0  1  0  0  3  0  0  0  0  0  0
  161.7310  208.1640  150.8090 C   0  0  2  0  0  3  0  0  0  0  0  0
  160.7420  204.3950  144.1120 O   0  0  0  0  0  1  0  0  0  0  0  0
  162.4320  206.4980  147.6700 C   0  0  0  0  0  2  0  0  0  0  0  0
  162.1650  209.3170  151.4700 O   0  0  0  0  0  0  0  0  0  0  0  0
  161.0810  209.7030  152.2630 C   0  0  0  0  0  2  0  0  0  0  0  0
  160.8070  208.5380  154.1760 O   0  0  0  0  0  1  0  0  0  0  0  0
  161.4450  209.6180  153.6660 N   0  0  0  0  0  2  0  0  0  0  0  0
  2  3  1  6  0  0  0
  2  8  1  0  0  0  0
  2 14  1  0  0  0  0
  4  9  1  0  0  0  0
  5 13  1  0  0  0  0
  5 22  1  0  0  0  0
  6  1  1  0  0  0  0
  7 10  1  0  0  0  0
  7 16  1  1  0  0  0
  8  7  1  0  0  0  0
  9 12  1  0  0  0  0
 11 18  2  0  0  0  0
 12  1  1  0  0  0  0
 13  8  1  0  0  0  0
 14 10  1  0  0  0  0
 15  3  2  0  0  0  0
 15 13  1  0  0  0  0
 16 12  1  0  0  0  0
 17  3  1  0  0  0  0
 18 20  1  0  0  0  0
 19  4  1  0  0  0  0
 19 18  1  0  0  0  0
 20  6  1  0  0  0  0
 20 23  1  0  0  0  0
 21 15  1  0  0  0  0
 22 19  1  0  0  0  0
 23 24  1  0  0  0  0
 24 26  1  0  0  0  0
 26 25  1  0  0  0  0
M  END
>  <MODEL>
2

>  <REMARK>
 VINA RESULT:      -9.1      1.505      7.360
  Name = 
  3 active torsions:
  status: ('A' for Active; 'I' for Inactive)
    1  A    between atoms: N_6  and  C_13
    2  A    between atoms: O_12  and  C_13
    3  A    between atoms: O_12  and  C_24
                            x       y       z     vdW  Elec       q    Type
                         _______ _______ _______ _____ _____    ______ ____

>  <TORSDO>
F 3

$$$$
=
 OpenBabel11072414253D

 26 29  0  0  1  0  0  0  0  0999 V2000
  161.5550  209.3200  151.3410 C   0  0  0  0  0  2  0  0  0  0  0  0
  161.1840  205.2010  146.9260 C   0  0  1  0  0  3  0  0  0  0  0  0
  161.5290  203.9270  146.8490 C   0  0  0  0  0  0  0  0  0  0  0  0
  162.7700  206.0770  151.2280 C   0  0  0  0  0  2  0  0  0  0  0  0
  160.6380  203.9710  150.4560 C   0  0  0  0  0  2  0  0  0  0  0  0
  160.6360  208.6880  152.3860 C   0  0  0  0  0  2  0  0  0  0  0  0
  161.7790  206.6260  148.5670 C   0  0  1  0  0  3  0  0  0  0  0  0
  160.7450  205.5470  148.2750 C   0  0  2  0  0  3  0  0  0  0  0  0
  163.0720  207.4540  151.2770 O   0  0  0  0  0  0  0  0  0  0  0  0
  162.1120  207.2440  147.3320 O   0  0  0  0  0  0  0  0  0  0  0  0
  160.6720  205.8580  154.2470 O   0  0  0  0  0  0  0  0  0  0  0  0
  162.2330  208.2730  150.4640 C   0  0  1  0  0  3  0  0  0  0  0  0
  160.9520  204.2490  149.0120 C   0  0  2  0  0  3  0  0  0  0  0  0
  162.0040  206.2320  146.4280 N   0  0  0  0  0  2  0  0  0  0  0  0
  161.3360  203.3190  148.1480 C   0  0  0  0  0  0  0  0  0  0  0  0
  161.1840  207.6230  149.5420 C   0  0  0  0  0  2  0  0  0  0  0  0
  162.1820  203.3400  145.7720 O   0  0  0  0  0  1  0  0  0  0  0  0
  161.2090  206.4420  153.3170 C   0  0  0  0  0  0  0  0  0  0  0  0
  161.5750  205.6330  152.0930 C   0  0  1  0  0  3  0  0  0  0  0  0
  161.4520  207.9290  153.4240 C   0  0  2  0  0  3  0  0  0  0  0  0
  161.5680  201.9840  148.4570 O   0  0  0  0  0  1  0  0  0  0  0  0
  160.3540  205.2310  151.2700 C   0  0  0  0  0  2  0  0  0  0  0  0
  161.1430  208.4030  154.7020 O   0  0  0  0  0  0  0  0  0  0  0  0
  161.5550  209.7380  154.6980 C   0  0  0  0  0  2  0  0  0  0  0  0
  163.2210  210.7830  155.8040 O   0  0  0  0  0  1  0  0  0  0  0  0
  162.0710  210.0970  156.0060 N   0  0  0  0  0  2  0  0  0  0  0  0
  1  6  1  0  0  0  0
  2 14  1  1  0  0  0
  2  8  1  0  0  0  0
  3  2  1  0  0  0  0
  3 15  2  0  0  0  0
  4  9  1  0  0  0  0
  4 19  1  0  0  0  0
  5 22  1  0  0  0  0
  6 20  1  0  0  0  0
  7 16  1  1  0  0  0
  8  7  1  0  0  0  0
  8 13  1  0  0  0  0
 10  7  1  0  0  0  0
 12  9  1  0  0  0  0
 12  1  1  0  0  0  0
 13  5  1  0  0  0  0
 14 10  1  0  0  0  0
 15 21  1  0  0  0  0
 15 13  1  0  0  0  0
 16 12  1  0  0  0  0
 17  3  1  0  0  0  0
 18 20  1  0  0  0  0
 18 11  2  0  0  0  0
 19 18  1  0  0  0  0
 20 23  1  0  0  0  0
 22 19  1  0  0  0  0
 24 23  1  0  0  0  0
 24 26  1  0  0  0  0
 25 26  1  0  0  0  0
M  END
>  <MODEL>
3

>  <REMARK>
 VINA RESULT:      -8.0      2.139      7.105
  Name = 
  3 active torsions:
  status: ('A' for Active; 'I' for Inactive)
    1  A    between atoms: N_6  and  C_13
    2  A    between atoms: O_12  and  C_13
    3  A    between atoms: O_12  and  C_24
                            x       y       z     vdW  Elec       q    Type
                         _______ _______ _______ _____ _____    ______ ____

>  <TORSDO>
F 3

$$$$
