=
 OpenBabel11072415253D

 25 28  0  0  1  0  0  0  0  0999 V2000
  160.9180  203.3930  148.8740 C   0  0  0  0  0  3  0  0  0  0  0  0
  161.2950  205.4990  150.0310 C   0  0  0  0  0  0  0  0  0  0  0  0
  161.9830  206.8380  147.5740 C   0  0  0  0  0  2  0  0  0  0  0  0
  160.8670  203.4610  151.2890 C   0  0  0  0  0  3  0  0  0  0  0  0
  161.6290  206.9750  150.0330 C   0  0  1  0  0  3  0  0  0  0  0  0
  160.7440  202.7450  150.0980 C   0  0  0  0  0  0  0  0  0  0  0  0
  161.1450  204.8290  151.2550 C   0  0  0  0  0  3  0  0  0  0  0  0
  161.3200  207.6270  148.6870 C   0  0  0  0  0  2  0  0  0  0  0  0
  161.3620  205.4460  147.4760 C   0  0  2  0  0  3  0  0  0  0  0  0
  161.2280  204.7610  148.8230 C   0  0  0  0  0  0  0  0  0  0  0  0
  160.4510  201.3890  150.1300 O   0  0  0  0  0  1  0  0  0  0  0  0
  163.3940  204.6820  146.4560 O   0  0  0  0  0  0  0  0  0  0  0  0
  161.4430  203.7730  145.5850 N   0  0  0  0  0  1  0  0  0  0  0  0
  162.1360  204.6240  146.4910 C   0  0  0  0  0  0  0  0  0  0  0  0
  161.4550  208.5940  151.7920 C   0  0  0  0  0  3  0  0  0  0  0  0
  160.8980  207.6640  151.0880 N   0  0  0  0  0  0  0  0  0  0  0  0
  160.1380  210.5200  152.5060 C   0  0  0  0  0  3  0  0  0  0  0  0
  160.6730  208.8790  154.2200 C   0  0  0  0  0  0  0  0  0  0  0  0
  159.4080  210.8830  154.7790 C   0  0  0  0  0  3  0  0  0  0  0  0
  160.0100  209.6840  155.1610 C   0  0  0  0  0  3  0  0  0  0  0  0
  159.4680  211.2990  153.4500 C   0  0  0  0  0  3  0  0  0  0  0  0
  160.7520  209.3160  152.8700 C   0  0  0  0  0  0  0  0  0  0  0  0
  160.5070  206.5320  154.3740 O   0  0  0  0  0  0  0  0  0  0  0  0
  160.5130  206.9820  155.6360 O   0  0  0  0  0  0  0  0  0  0  0  0
  161.3100  207.6060  154.6990 C   0  0  0  0  0  3  0  0  0  0  0  0
  1  6  1  0  0  0  0
  2  5  1  0  0  0  0
  2  7  2  0  0  0  0
  3  8  1  0  0  0  0
  5 16  1  1  0  0  0
  6 11  1  0  0  0  0
  6  4  2  0  0  0  0
  7  4  1  0  0  0  0
  8  5  1  0  0  0  0
  9 14  1  6  0  0  0
  9  3  1  0  0  0  0
  9 10  1  0  0  0  0
 10  1  2  0  0  0  0
 10  2  1  0  0  0  0
 12 14  2  0  0  0  0
 13 14  1  0  0  0  0
 15 22  1  0  0  0  0
 16 15  2  0  0  0  0
 17 22  2  0  0  0  0
 17 21  1  0  0  0  0
 18 25  1  0  0  0  0
 18 20  2  0  0  0  0
 19 20  1  0  0  0  0
 21 19  2  0  0  0  0
 22 18  1  0  0  0  0
 23 25  1  0  0  0  0
 23 24  1  0  0  0  0
 25 24  1  0  0  0  0
M  END
>  <MODEL>
1

>  <REMARK>
 VINA RESULT:      -9.5      0.000      0.000
  Name = 
  4 active torsions:
  status: ('A' for Active; 'I' for Inactive)
    1  A    between atoms: C_3  and  C_16
    2  A    between atoms: C_11  and  C_24
    3  A    between atoms: N_13  and  C_15
    4  A    between atoms: C_19  and  C_22
                            x       y       z     vdW  Elec       q    Type
                         _______ _______ _______ _____ _____    ______ ____

>  <TORSDO>
F 4

$$$$
=
 OpenBabel11072415253D

 25 28  0  0  1  0  0  0  0  0999 V2000
  160.8910  203.1720  148.7190 C   0  0  0  0  0  3  0  0  0  0  0  0
  161.3240  205.0910  150.1500 C   0  0  0  0  0  0  0  0  0  0  0  0
  161.7730  206.8060  147.8780 C   0  0  0  0  0  2  0  0  0  0  0  0
  161.0460  202.8740  151.1120 C   0  0  0  0  0  3  0  0  0  0  0  0
  161.6280  206.5600  150.3500 C   0  0  1  0  0  3  0  0  0  0  0  0
  160.8360  202.3420  149.8400 C   0  0  0  0  0  0  0  0  0  0  0  0
  161.2930  204.2390  151.2650 C   0  0  0  0  0  3  0  0  0  0  0  0
  161.1920  207.3970  149.1490 C   0  0  0  0  0  2  0  0  0  0  0  0
  161.1740  205.4250  147.6200 C   0  0  2  0  0  3  0  0  0  0  0  0
  161.1690  204.5420  148.8530 C   0  0  0  0  0  0  0  0  0  0  0  0
  160.5740  200.9880  149.6880 O   0  0  0  0  0  1  0  0  0  0  0  0
  163.1350  204.7660  146.4070 O   0  0  0  0  0  0  0  0  0  0  0  0
  161.1150  204.2010  145.4110 N   0  0  0  0  0  1  0  0  0  0  0  0
  161.8770  204.7870  146.4610 C   0  0  0  0  0  0  0  0  0  0  0  0
  161.6660  207.4400  152.5790 C   0  0  0  0  0  3  0  0  0  0  0  0
  160.9770  207.0580  151.5540 N   0  0  0  0  0  0  0  0  0  0  0  0
  160.5330  206.9840  154.6920 C   0  0  0  0  0  3  0  0  0  0  0  0
  160.9340  209.3230  154.1610 C   0  0  0  0  0  0  0  0  0  0  0  0
  159.7710  208.7030  156.2070 C   0  0  0  0  0  3  0  0  0  0  0  0
  160.2800  209.6800  155.3520 C   0  0  0  0  0  3  0  0  0  0  0  0
  159.9020  207.3540  155.8800 C   0  0  0  0  0  3  0  0  0  0  0  0
  161.0470  207.9500  153.8180 C   0  0  0  0  0  0  0  0  0  0  0  0
  160.4930  211.4130  153.1620 O   0  0  0  0  0  0  0  0  0  0  0  0
  160.6660  210.5530  152.1490 O   0  0  0  0  0  0  0  0  0  0  0  0
  161.4480  210.4250  153.2780 C   0  0  0  0  0  3  0  0  0  0  0  0
  1 10  2  0  0  0  0
  1  6  1  0  0  0  0
  2  5  1  0  0  0  0
  2  7  2  0  0  0  0
  3  8  1  0  0  0  0
  4  7  1  0  0  0  0
  5 16  1  1  0  0  0
  6  4  2  0  0  0  0
  8  5  1  0  0  0  0
  9 14  1  6  0  0  0
  9  3  1  0  0  0  0
  9 10  1  0  0  0  0
 10  2  1  0  0  0  0
 11  6  1  0  0  0  0
 12 14  2  0  0  0  0
 13 14  1  0  0  0  0
 15 22  1  0  0  0  0
 16 15  2  0  0  0  0
 17 21  1  0  0  0  0
 18 20  2  0  0  0  0
 20 19  1  0  0  0  0
 21 19  2  0  0  0  0
 22 18  1  0  0  0  0
 22 17  2  0  0  0  0
 23 25  1  0  0  0  0
 24 23  1  0  0  0  0
 24 25  1  0  0  0  0
 25 18  1  0  0  0  0
M  END
>  <MODEL>
2

>  <REMARK>
 VINA RESULT:      -9.4      1.603      2.144
  Name = 
  4 active torsions:
  status: ('A' for Active; 'I' for Inactive)
    1  A    between atoms: C_3  and  C_16
    2  A    between atoms: C_11  and  C_24
    3  A    between atoms: N_13  and  C_15
    4  A    between atoms: C_19  and  C_22
                            x       y       z     vdW  Elec       q    Type
                         _______ _______ _______ _____ _____    ______ ____

>  <TORSDO>
F 4

$$$$
=
 OpenBabel11072415253D

 25 28  0  0  1  0  0  0  0  0999 V2000
  160.8760  209.7540  152.2800 C   0  0  0  0  0  3  0  0  0  0  0  0
  161.8490  207.5380  152.0400 C   0  0  0  0  0  0  0  0  0  0  0  0
  161.0410  206.7880  154.7030 C   0  0  0  0  0  2  0  0  0  0  0  0
  162.1930  209.2280  150.3240 C   0  0  0  0  0  3  0  0  0  0  0  0
  162.1340  206.1460  152.5610 C   0  0  1  0  0  3  0  0  0  0  0  0
  161.4180  210.1310  151.0510 C   0  0  0  0  0  0  0  0  0  0  0  0
  162.4110  207.9400  150.8180 C   0  0  0  0  0  3  0  0  0  0  0  0
  161.1230  205.7220  153.6260 C   0  0  0  0  0  2  0  0  0  0  0  0
  160.4660  208.0790  154.1210 C   0  0  2  0  0  3  0  0  0  0  0  0
  161.1100  208.4730  152.8060 C   0  0  0  0  0  0  0  0  0  0  0  0
  161.1880  211.4060  150.5520 O   0  0  0  0  0  1  0  0  0  0  0  0
  161.6530  209.4780  155.6660 O   0  0  0  0  0  0  0  0  0  0  0  0
  159.3650  209.8510  155.5440 N   0  0  0  0  0  1  0  0  0  0  0  0
  160.5480  209.1660  155.1480 C   0  0  0  0  0  0  0  0  0  0  0  0
  161.0170  204.7370  150.9750 C   0  0  0  0  0  3  0  0  0  0  0  0
  162.1260  205.1800  151.4710 N   0  0  0  0  0  0  0  0  0  0  0  0
  160.6640  202.4390  150.2330 C   0  0  0  0  0  3  0  0  0  0  0  0
  161.2030  204.0640  148.5060 C   0  0  0  0  0  0  0  0  0  0  0  0
  160.8700  201.7210  147.9370 C   0  0  0  0  0  3  0  0  0  0  0  0
  161.1660  203.0300  147.5570 C   0  0  0  0  0  3  0  0  0  0  0  0
  160.6140  201.4260  149.2750 C   0  0  0  0  0  3  0  0  0  0  0  0
  160.9640  203.7590  149.8720 C   0  0  0  0  0  0  0  0  0  0  0  0
  160.3820  206.1850  147.8800 O   0  0  0  0  0  0  0  0  0  0  0  0
  160.9870  205.6910  146.7920 O   0  0  0  0  0  0  0  0  0  0  0  0
  161.5400  205.4500  148.0320 C   0  0  0  0  0  3  0  0  0  0  0  0
  1 10  1  0  0  0  0
  2  5  1  0  0  0  0
  2 10  2  0  0  0  0
  4  7  2  0  0  0  0
  4  6  1  0  0  0  0
  5 16  1  6  0  0  0
  5  8  1  0  0  0  0
  6  1  2  0  0  0  0
  7  2  1  0  0  0  0
  8  3  1  0  0  0  0
  9  3  1  0  0  0  0
  9 14  1  1  0  0  0
 10  9  1  0  0  0  0
 11  6  1  0  0  0  0
 14 13  1  0  0  0  0
 14 12  2  0  0  0  0
 15 16  2  0  0  0  0
 18 22  2  0  0  0  0
 19 21  1  0  0  0  0
 20 19  2  0  0  0  0
 20 18  1  0  0  0  0
 21 17  2  0  0  0  0
 22 17  1  0  0  0  0
 22 15  1  0  0  0  0
 23 25  1  0  0  0  0
 24 23  1  0  0  0  0
 24 25  1  0  0  0  0
 25 18  1  0  0  0  0
M  END
>  <MODEL>
3

>  <REMARK>
 VINA RESULT:      -9.2      2.313      7.739
  Name = 
  4 active torsions:
  status: ('A' for Active; 'I' for Inactive)
    1  A    between atoms: C_3  and  C_16
    2  A    between atoms: C_11  and  C_24
    3  A    between atoms: N_13  and  C_15
    4  A    between atoms: C_19  and  C_22
                            x       y       z     vdW  Elec       q    Type
                         _______ _______ _______ _____ _____    ______ ____

>  <TORSDO>
F 4

$$$$
=
 OpenBabel11072415253D

 25 28  0  0  1  0  0  0  0  0999 V2000
  160.6230  203.8360  149.0610 C   0  0  0  0  0  3  0  0  0  0  0  0
  161.5730  205.2180  150.8230 C   0  0  0  0  0  0  0  0  0  0  0  0
  161.8130  207.4800  149.0530 C   0  0  0  0  0  2  0  0  0  0  0  0
  161.1840  202.8460  151.1930 C   0  0  0  0  0  3  0  0  0  0  0  0
  162.1040  206.5380  151.3380 C   0  0  1  0  0  3  0  0  0  0  0  0
  160.6680  202.7230  149.9030 C   0  0  0  0  0  0  0  0  0  0  0  0
  161.6370  204.0850  151.6480 C   0  0  0  0  0  3  0  0  0  0  0  0
  161.5660  207.7190  150.5310 C   0  0  0  0  0  2  0  0  0  0  0  0
  160.9950  206.2830  148.5720 C   0  0  2  0  0  3  0  0  0  0  0  0
  161.1030  205.0830  149.4930 C   0  0  0  0  0  0  0  0  0  0  0  0
  160.2020  201.4950  149.4550 O   0  0  0  0  0  1  0  0  0  0  0  0
  162.5030  205.4650  146.8960 O   0  0  0  0  0  0  0  0  0  0  0  0
  160.4510  206.2090  146.1070 N   0  0  0  0  0  1  0  0  0  0  0  0
  161.3740  205.9570  147.1600 C   0  0  0  0  0  0  0  0  0  0  0  0
  161.0990  207.7460  153.1480 C   0  0  0  0  0  3  0  0  0  0  0  0
  161.7640  206.7140  152.7440 N   0  0  0  0  0  0  0  0  0  0  0  0
  160.3260  206.8290  155.2740 C   0  0  0  0  0  3  0  0  0  0  0  0
  160.7620  209.2210  155.2210 C   0  0  0  0  0  0  0  0  0  0  0  0
  159.9390  208.1600  157.2510 C   0  0  0  0  0  3  0  0  0  0  0  0
  160.3460  209.3010  156.5600 C   0  0  0  0  0  3  0  0  0  0  0  0
  159.9330  206.9230  156.6090 C   0  0  0  0  0  3  0  0  0  0  0  0
  160.7350  207.9630  154.5610 C   0  0  0  0  0  0  0  0  0  0  0  0
  162.5220  210.7160  154.7430 O   0  0  0  0  0  0  0  0  0  0  0  0
  161.6250  211.4200  155.4460 O   0  0  0  0  0  0  0  0  0  0  0  0
  161.1780  210.4900  154.5310 C   0  0  0  0  0  3  0  0  0  0  0  0
  1 10  2  0  0  0  0
  1  6  1  0  0  0  0
  2  5  1  0  0  0  0
  2  7  2  0  0  0  0
  3  8  1  0  0  0  0
  4  7  1  0  0  0  0
  5 16  1  1  0  0  0
  6  4  2  0  0  0  0
  8  5  1  0  0  0  0
  9 14  1  6  0  0  0
  9  3  1  0  0  0  0
  9 10  1  0  0  0  0
 10  2  1  0  0  0  0
 11  6  1  0  0  0  0
 12 14  2  0  0  0  0
 13 14  1  0  0  0  0
 15 22  1  0  0  0  0
 16 15  2  0  0  0  0
 17 21  1  0  0  0  0
 18 20  2  0  0  0  0
 20 19  1  0  0  0  0
 21 19  2  0  0  0  0
 22 18  1  0  0  0  0
 22 17  2  0  0  0  0
 23 24  1  0  0  0  0
 25 23  1  0  0  0  0
 25 18  1  0  0  0  0
 25 24  1  0  0  0  0
M  END
>  <MODEL>
4

>  <REMARK>
 VINA RESULT:      -9.1      1.842      2.499
  Name = 
  4 active torsions:
  status: ('A' for Active; 'I' for Inactive)
    1  A    between atoms: C_3  and  C_16
    2  A    between atoms: C_11  and  C_24
    3  A    between atoms: N_13  and  C_15
    4  A    between atoms: C_19  and  C_22
                            x       y       z     vdW  Elec       q    Type
                         _______ _______ _______ _____ _____    ______ ____

>  <TORSDO>
F 4

$$$$
=
 OpenBabel11072415253D

 25 28  0  0  1  0  0  0  0  0999 V2000
  161.3460  204.1220  147.7900 C   0  0  0  0  0  3  0  0  0  0  0  0
  160.9030  205.0910  149.9770 C   0  0  0  0  0  0  0  0  0  0  0  0
  160.8390  202.4920  151.2230 C   0  0  0  0  0  2  0  0  0  0  0  0
  160.9050  206.4900  147.9870 C   0  0  0  0  0  3  0  0  0  0  0  0
  160.6900  204.9650  151.4700 C   0  0  1  0  0  3  0  0  0  0  0  0
  161.2140  205.3800  147.2010 C   0  0  0  0  0  0  0  0  0  0  0  0
  160.7460  206.3450  149.3670 C   0  0  0  0  0  3  0  0  0  0  0  0
  161.3180  203.6880  152.0260 C   0  0  0  0  0  2  0  0  0  0  0  0
  161.3570  202.5820  149.7880 C   0  0  2  0  0  3  0  0  0  0  0  0
  161.1590  203.9540  149.1720 C   0  0  0  0  0  0  0  0  0  0  0  0
  161.3890  205.5270  145.8320 O   0  0  0  0  0  1  0  0  0  0  0  0
  159.4890  201.3660  148.9030 O   0  0  0  0  0  0  0  0  0  0  0  0
  161.5780  200.5850  148.2590 N   0  0  0  0  0  1  0  0  0  0  0  0
  160.7410  201.4910  148.9680 C   0  0  0  0  0  0  0  0  0  0  0  0
  160.5200  206.8130  152.9870 C   0  0  0  0  0  3  0  0  0  0  0  0
  161.2390  206.1200  152.1650 N   0  0  0  0  0  0  0  0  0  0  0  0
  161.1940  207.8440  155.0940 C   0  0  0  0  0  3  0  0  0  0  0  0
  161.3640  209.2340  153.1050 C   0  0  0  0  0  0  0  0  0  0  0  0
  161.9500  210.1290  155.2910 C   0  0  0  0  0  3  0  0  0  0  0  0
  161.8040  210.2930  153.9140 C   0  0  0  0  0  3  0  0  0  0  0  0
  161.6490  208.9020  155.8810 C   0  0  0  0  0  3  0  0  0  0  0  0
  161.0370  207.9910  153.7100 C   0  0  0  0  0  0  0  0  0  0  0  0
  162.3310  209.0110  150.9660 O   0  0  0  0  0  0  0  0  0  0  0  0
  162.2060  210.3280  151.1750 O   0  0  0  0  0  0  0  0  0  0  0  0
  161.2170  209.4810  151.6300 C   0  0  0  0  0  3  0  0  0  0  0  0
  1 10  1  0  0  0  0
  2  5  1  0  0  0  0
  3  8  1  0  0  0  0
  4  7  2  0  0  0  0
  5  8  1  0  0  0  0
  5 16  1  1  0  0  0
  6  1  2  0  0  0  0
  6  4  1  0  0  0  0
  7  2  1  0  0  0  0
  9 14  1  6  0  0  0
  9  3  1  0  0  0  0
 10  9  1  0  0  0  0
 10  2  2  0  0  0  0
 11  6  1  0  0  0  0
 12 14  2  0  0  0  0
 13 14  1  0  0  0  0
 15 22  1  0  0  0  0
 16 15  2  0  0  0  0
 17 21  1  0  0  0  0
 18 22  1  0  0  0  0
 18 20  2  0  0  0  0
 19 21  2  0  0  0  0
 20 19  1  0  0  0  0
 22 17  2  0  0  0  0
 23 24  1  0  0  0  0
 23 25  1  0  0  0  0
 24 25  1  0  0  0  0
 25 18  1  0  0  0  0
M  END
>  <MODEL>
5

>  <REMARK>
 VINA RESULT:      -8.9      2.118      3.766
  Name = 
  4 active torsions:
  status: ('A' for Active; 'I' for Inactive)
    1  A    between atoms: C_3  and  C_16
    2  A    between atoms: C_11  and  C_24
    3  A    between atoms: N_13  and  C_15
    4  A    between atoms: C_19  and  C_22
                            x       y       z     vdW  Elec       q    Type
                         _______ _______ _______ _____ _____    ______ ____

>  <TORSDO>
F 4

$$$$
=
 OpenBabel11072415253D

 25 28  0  0  1  0  0  0  0  0999 V2000
  161.4280  204.0430  147.6330 C   0  0  0  0  0  3  0  0  0  0  0  0
  160.8870  205.1700  149.7200 C   0  0  0  0  0  0  0  0  0  0  0  0
  160.7620  202.6700  151.1500 C   0  0  0  0  0  2  0  0  0  0  0  0
  160.9820  206.4180  147.6350 C   0  0  0  0  0  3  0  0  0  0  0  0
  160.6050  205.1530  151.2070 C   0  0  1  0  0  3  0  0  0  0  0  0
  161.3260  205.2540  146.9470 C   0  0  0  0  0  0  0  0  0  0  0  0
  160.7600  206.3750  149.0120 C   0  0  0  0  0  3  0  0  0  0  0  0
  161.2060  203.9220  151.8840 C   0  0  0  0  0  2  0  0  0  0  0  0
  161.3460  202.6550  149.7380 C   0  0  2  0  0  3  0  0  0  0  0  0
  161.1790  203.9760  149.0140 C   0  0  0  0  0  0  0  0  0  0  0  0
  161.5630  205.3000  145.5810 O   0  0  0  0  0  1  0  0  0  0  0  0
  159.5210  201.3280  148.9260 O   0  0  0  0  0  0  0  0  0  0  0  0
  161.6330  200.6020  148.2960 N   0  0  0  0  0  1  0  0  0  0  0  0
  160.7670  201.5040  148.9730 C   0  0  0  0  0  0  0  0  0  0  0  0
  160.5380  206.8820  152.8670 C   0  0  0  0  0  3  0  0  0  0  0  0
  161.1240  206.3580  151.8390 N   0  0  0  0  0  0  0  0  0  0  0  0
  161.4480  209.1400  152.6960 C   0  0  0  0  0  3  0  0  0  0  0  0
  161.1100  208.2760  154.9440 C   0  0  0  0  0  0  0  0  0  0  0  0
  162.0570  210.4920  154.6020 C   0  0  0  0  0  3  0  0  0  0  0  0
  161.6400  209.4710  155.4560 C   0  0  0  0  0  3  0  0  0  0  0  0
  161.9560  210.3280  153.2210 C   0  0  0  0  0  3  0  0  0  0  0  0
  161.0290  208.1010  153.5360 C   0  0  0  0  0  0  0  0  0  0  0  0
  159.3310  207.2880  156.1360 O   0  0  0  0  0  0  0  0  0  0  0  0
  160.1670  207.7740  157.0630 O   0  0  0  0  0  0  0  0  0  0  0  0
  160.6920  207.2110  155.9180 C   0  0  0  0  0  3  0  0  0  0  0  0
  1 10  1  0  0  0  0
  2  5  1  0  0  0  0
  3  8  1  0  0  0  0
  4  7  2  0  0  0  0
  5 16  1  1  0  0  0
  5  8  1  0  0  0  0
  6  1  2  0  0  0  0
  6  4  1  0  0  0  0
  7  2  1  0  0  0  0
  9 14  1  6  0  0  0
  9  3  1  0  0  0  0
 10  2  2  0  0  0  0
 10  9  1  0  0  0  0
 11  6  1  0  0  0  0
 12 14  2  0  0  0  0
 13 14  1  0  0  0  0
 15 22  1  0  0  0  0
 16 15  2  0  0  0  0
 17 21  2  0  0  0  0
 17 22  1  0  0  0  0
 18 20  1  0  0  0  0
 18 25  1  0  0  0  0
 19 20  2  0  0  0  0
 21 19  1  0  0  0  0
 22 18  2  0  0  0  0
 23 24  1  0  0  0  0
 25 23  1  0  0  0  0
 25 24  1  0  0  0  0
M  END
>  <MODEL>
6

>  <REMARK>
 VINA RESULT:      -8.7      1.642      3.284
  Name = 
  4 active torsions:
  status: ('A' for Active; 'I' for Inactive)
    1  A    between atoms: C_3  and  C_16
    2  A    between atoms: C_11  and  C_24
    3  A    between atoms: N_13  and  C_15
    4  A    between atoms: C_19  and  C_22
                            x       y       z     vdW  Elec       q    Type
                         _______ _______ _______ _____ _____    ______ ____

>  <TORSDO>
F 4

$$$$
=
 OpenBabel11072415253D

 25 28  0  0  1  0  0  0  0  0999 V2000
  160.6900  209.3720  152.8500 C   0  0  0  0  0  3  0  0  0  0  0  0
  161.8200  207.4050  151.9700 C   0  0  0  0  0  0  0  0  0  0  0  0
  161.1410  205.8530  154.3030 C   0  0  0  0  0  2  0  0  0  0  0  0
  161.9910  209.5410  150.8200 C   0  0  0  0  0  3  0  0  0  0  0  0
  162.2210  205.9490  152.0630 C   0  0  1  0  0  3  0  0  0  0  0  0
  161.1700  210.1310  151.7810 C   0  0  0  0  0  0  0  0  0  0  0  0
  162.3170  208.1870  150.9170 C   0  0  0  0  0  3  0  0  0  0  0  0
  161.2740  205.1560  152.9620 C   0  0  0  0  0  2  0  0  0  0  0  0
  160.4560  207.2070  154.1240 C   0  0  2  0  0  3  0  0  0  0  0  0
  161.0330  208.0160  152.9790 C   0  0  0  0  0  0  0  0  0  0  0  0
  160.8310  211.4730  151.6770 O   0  0  0  0  0  1  0  0  0  0  0  0
  159.4130  208.2190  156.0320 O   0  0  0  0  0  0  0  0  0  0  0  0
  161.7300  208.3650  155.9720 N   0  0  0  0  0  1  0  0  0  0  0  0
  160.4830  207.9530  155.4230 C   0  0  0  0  0  0  0  0  0  0  0  0
  161.2130  204.7710  150.2350 C   0  0  0  0  0  3  0  0  0  0  0  0
  162.2570  205.3430  150.7390 N   0  0  0  0  0  0  0  0  0  0  0  0
  161.5820  204.9680  147.8310 C   0  0  0  0  0  3  0  0  0  0  0  0
  160.8400  202.7970  148.6380 C   0  0  0  0  0  0  0  0  0  0  0  0
  161.2050  203.1720  146.2610 C   0  0  0  0  0  3  0  0  0  0  0  0
  160.8310  202.3350  147.3120 C   0  0  0  0  0  3  0  0  0  0  0  0
  161.5850  204.4880  146.5210 C   0  0  0  0  0  3  0  0  0  0  0  0
  161.2060  204.1450  148.8990 C   0  0  0  0  0  0  0  0  0  0  0  0
  161.5270  201.3510  150.3690 O   0  0  0  0  0  0  0  0  0  0  0  0
  160.8940  200.5780  149.4770 O   0  0  0  0  0  0  0  0  0  0  0  0
  160.4150  201.8480  149.7220 C   0  0  0  0  0  3  0  0  0  0  0  0
  1 10  1  0  0  0  0
  2  5  1  0  0  0  0
  2 10  2  0  0  0  0
  4  7  2  0  0  0  0
  4  6  1  0  0  0  0
  5 16  1  6  0  0  0
  5  8  1  0  0  0  0
  6  1  2  0  0  0  0
  7  2  1  0  0  0  0
  8  3  1  0  0  0  0
  9  3  1  0  0  0  0
  9 14  1  1  0  0  0
 10  9  1  0  0  0  0
 11  6  1  0  0  0  0
 14 13  1  0  0  0  0
 14 12  2  0  0  0  0
 15 16  2  0  0  0  0
 17 22  1  0  0  0  0
 18 22  2  0  0  0  0
 18 25  1  0  0  0  0
 19 21  1  0  0  0  0
 19 20  2  0  0  0  0
 20 18  1  0  0  0  0
 21 17  2  0  0  0  0
 22 15  1  0  0  0  0
 24 25  1  0  0  0  0
 24 23  1  0  0  0  0
 25 23  1  0  0  0  0
M  END
>  <MODEL>
7

>  <REMARK>
 VINA RESULT:      -8.5      2.199      7.720
  Name = 
  4 active torsions:
  status: ('A' for Active; 'I' for Inactive)
    1  A    between atoms: C_3  and  C_16
    2  A    between atoms: C_11  and  C_24
    3  A    between atoms: N_13  and  C_15
    4  A    between atoms: C_19  and  C_22
                            x       y       z     vdW  Elec       q    Type
                         _______ _______ _______ _____ _____    ______ ____

>  <TORSDO>
F 4

$$$$
=
 OpenBabel11072415253D

 25 28  0  0  1  0  0  0  0  0999 V2000
  160.7550  209.1120  152.7130 C   0  0  0  0  0  3  0  0  0  0  0  0
  161.7110  207.1530  151.6320 C   0  0  0  0  0  0  0  0  0  0  0  0
  161.0480  205.4710  153.8770 C   0  0  0  0  0  2  0  0  0  0  0  0
  161.9640  209.3570  150.6350 C   0  0  0  0  0  3  0  0  0  0  0  0
  162.0220  205.6730  151.5960 C   0  0  1  0  0  3  0  0  0  0  0  0
  161.2300  209.9200  151.6790 C   0  0  0  0  0  0  0  0  0  0  0  0
  162.2060  207.9830  150.6150 C   0  0  0  0  0  3  0  0  0  0  0  0
  161.0700  204.8720  152.4830 C   0  0  0  0  0  2  0  0  0  0  0  0
  160.4440  206.8740  153.8350 C   0  0  2  0  0  3  0  0  0  0  0  0
  161.0160  207.7320  152.7230 C   0  0  0  0  0  0  0  0  0  0  0  0
  160.9750  211.2840  151.6920 O   0  0  0  0  0  1  0  0  0  0  0  0
  161.5750  208.2420  155.4470 O   0  0  0  0  0  0  0  0  0  0  0  0
  159.5820  207.2970  156.1710 N   0  0  0  0  0  1  0  0  0  0  0  0
  160.5820  207.5150  155.1820 C   0  0  0  0  0  0  0  0  0  0  0  0
  161.3080  204.0860  149.9470 C   0  0  0  0  0  3  0  0  0  0  0  0
  161.9540  205.1690  150.2310 N   0  0  0  0  0  0  0  0  0  0  0  0
  160.8020  202.2070  148.4740 C   0  0  0  0  0  3  0  0  0  0  0  0
  161.5220  204.2650  147.3960 C   0  0  0  0  0  0  0  0  0  0  0  0
  161.0270  202.2840  146.0710 C   0  0  0  0  0  3  0  0  0  0  0  0
  161.4360  203.6150  146.1540 C   0  0  0  0  0  3  0  0  0  0  0  0
  160.7060  201.5810  147.2310 C   0  0  0  0  0  3  0  0  0  0  0  0
  161.2150  203.5410  148.5790 C   0  0  0  0  0  0  0  0  0  0  0  0
  160.9770  206.5130  146.9410 O   0  0  0  0  0  0  0  0  0  0  0  0
  162.0110  206.2180  146.1410 O   0  0  0  0  0  0  0  0  0  0  0  0
  161.9810  205.6950  147.4170 C   0  0  0  0  0  3  0  0  0  0  0  0
  1 10  1  0  0  0  0
  2 10  2  0  0  0  0
  4  6  1  0  0  0  0
  5 16  1  6  0  0  0
  5  2  1  0  0  0  0
  5  8  1  0  0  0  0
  6 11  1  0  0  0  0
  6  1  2  0  0  0  0
  7  4  2  0  0  0  0
  7  2  1  0  0  0  0
  8  3  1  0  0  0  0
  9  3  1  0  0  0  0
  9 14  1  1  0  0  0
 10  9  1  0  0  0  0
 14 12  2  0  0  0  0
 14 13  1  0  0  0  0
 15 16  2  0  0  0  0
 17 22  1  0  0  0  0
 18 25  1  0  0  0  0
 18 22  2  0  0  0  0
 19 20  2  0  0  0  0
 19 21  1  0  0  0  0
 20 18  1  0  0  0  0
 21 17  2  0  0  0  0
 22 15  1  0  0  0  0
 23 25  1  0  0  0  0
 24 23  1  0  0  0  0
 24 25  1  0  0  0  0
M  END
>  <MODEL>
8

>  <REMARK>
 VINA RESULT:      -8.4      2.266      7.884
  Name = 
  4 active torsions:
  status: ('A' for Active; 'I' for Inactive)
    1  A    between atoms: C_3  and  C_16
    2  A    between atoms: C_11  and  C_24
    3  A    between atoms: N_13  and  C_15
    4  A    between atoms: C_19  and  C_22
                            x       y       z     vdW  Elec       q    Type
                         _______ _______ _______ _____ _____    ______ ____

>  <TORSDO>
F 4

$$$$
=
 OpenBabel11072415253D

 25 28  0  0  1  0  0  0  0  0999 V2000
  160.8210  204.7050  149.5490 C   0  0  0  0  0  3  0  0  0  0  0  0
  161.7540  206.6100  150.7400 C   0  0  0  0  0  0  0  0  0  0  0  0
  161.9250  208.1640  148.3190 C   0  0  0  0  0  2  0  0  0  0  0  0
  161.4260  204.4860  151.8790 C   0  0  0  0  0  3  0  0  0  0  0  0
  162.2600  208.0360  150.7820 C   0  0  1  0  0  3  0  0  0  0  0  0
  160.9010  203.9340  150.7100 C   0  0  0  0  0  0  0  0  0  0  0  0
  161.8540  205.8140  151.8920 C   0  0  0  0  0  3  0  0  0  0  0  0
  161.6860  208.8730  149.6390 C   0  0  0  0  0  2  0  0  0  0  0  0
  161.1300  206.8600  148.2730 C   0  0  2  0  0  3  0  0  0  0  0  0
  161.2760  206.0340  149.5370 C   0  0  0  0  0  0  0  0  0  0  0  0
  160.4590  202.6180  150.7000 O   0  0  0  0  0  1  0  0  0  0  0  0
  160.6970  205.9910  146.0800 O   0  0  0  0  0  0  0  0  0  0  0  0
  162.7830  205.4740  146.9600 N   0  0  0  0  0  1  0  0  0  0  0  0
  161.5040  206.0930  147.0420 C   0  0  0  0  0  0  0  0  0  0  0  0
  161.6490  209.9190  152.1330 C   0  0  0  0  0  3  0  0  0  0  0  0
  161.9290  208.6590  152.0560 N   0  0  0  0  0  0  0  0  0  0  0  0
  162.0930  210.2450  154.5110 C   0  0  0  0  0  3  0  0  0  0  0  0
  160.2590  211.5320  153.5650 C   0  0  0  0  0  0  0  0  0  0  0  0
  160.7980  211.7050  155.9320 C   0  0  0  0  0  3  0  0  0  0  0  0
  160.0090  212.0650  154.8400 C   0  0  0  0  0  3  0  0  0  0  0  0
  161.8440  210.7980  155.7670 C   0  0  0  0  0  3  0  0  0  0  0  0
  161.3100  210.5900  153.4020 C   0  0  0  0  0  0  0  0  0  0  0  0
  159.8700  213.0890  151.8380 O   0  0  0  0  0  0  0  0  0  0  0  0
  158.8270  213.2000  152.6720 O   0  0  0  0  0  0  0  0  0  0  0  0
  159.3640  211.9520  152.4330 C   0  0  0  0  0  3  0  0  0  0  0  0
  1  6  1  0  0  0  0
  2  5  1  0  0  0  0
  2  7  2  0  0  0  0
  3  8  1  0  0  0  0
  4  7  1  0  0  0  0
  5 16  1  1  0  0  0
  6  4  2  0  0  0  0
  8  5  1  0  0  0  0
  9 14  1  6  0  0  0
  9  3  1  0  0  0  0
  9 10  1  0  0  0  0
 10  1  2  0  0  0  0
 10  2  1  0  0  0  0
 11  6  1  0  0  0  0
 12 14  2  0  0  0  0
 13 14  1  0  0  0  0
 15 22  1  0  0  0  0
 16 15  2  0  0  0  0
 17 21  1  0  0  0  0
 18 20  2  0  0  0  0
 20 19  1  0  0  0  0
 21 19  2  0  0  0  0
 22 18  1  0  0  0  0
 22 17  2  0  0  0  0
 23 25  1  0  0  0  0
 23 24  1  0  0  0  0
 25 24  1  0  0  0  0
 25 18  1  0  0  0  0
M  END
>  <MODEL>
9

>  <REMARK>
 VINA RESULT:      -8.0      2.473      2.921
  Name = 
  4 active torsions:
  status: ('A' for Active; 'I' for Inactive)
    1  A    between atoms: C_3  and  C_16
    2  A    between atoms: C_11  and  C_24
    3  A    between atoms: N_13  and  C_15
    4  A    between atoms: C_19  and  C_22
                            x       y       z     vdW  Elec       q    Type
                         _______ _______ _______ _____ _____    ______ ____

>  <TORSDO>
F 4

$$$$
