=
 OpenBabel11072410483D

 38 43  0  0  1  0  0  0  0  0999 V2000
  159.9340  210.8910  154.0690 O   0  0  0  0  0  0  0  0  0  0  0  0
  158.9630  211.9320  154.1770 C   0  0  1  0  0  0  0  0  0  0  0  0
  160.4010  211.3370  151.8120 N   0  0  0  0  0  0  0  0  0  0  0  0
  157.6430  211.3930  153.8940 N   0  0  0  0  0  1  0  0  0  0  0  0
  159.4600  212.4570  151.7960 C   0  0  1  0  0  3  0  0  0  0  0  0
  160.5820  210.5940  152.8630 C   0  0  0  0  0  0  0  0  0  0  0  0
  158.9770  212.4420  155.4740 O   0  0  0  0  0  1  0  0  0  0  0  0
  159.2850  213.0520  153.1920 C   0  0  0  0  0  2  0  0  0  0  0  0
  159.9410  213.5350  150.8290 C   0  0  0  0  0  2  0  0  0  0  0  0
  159.0590  213.6490  149.5760 C   0  0  1  0  0  3  0  0  0  0  0  0
  156.8990  214.4260  148.6280 C   0  0  0  0  0  2  0  0  0  0  0  0
  157.7860  214.4470  149.8580 C   0  0  0  0  0  3  0  0  0  0  0  0
  156.5790  213.5290  149.8020 C   0  0  0  0  0  2  0  0  0  0  0  0
  159.8520  214.2260  148.3920 C   0  0  2  0  0  3  0  0  0  0  0  0
  159.3410  213.7790  147.1690 O   0  0  0  0  0  1  0  0  0  0  0  0
  161.3420  213.8930  148.4860 C   0  0  0  0  0  2  0  0  0  0  0  0
  162.8540  213.0020  146.8200 O   0  0  0  0  0  0  0  0  0  0  0  0
  163.0900  212.2960  148.0120 C   0  0  2  0  0  3  0  0  0  0  0  0
  161.9050  211.4340  148.3740 C   0  0  0  0  0  2  0  0  0  0  0  0
  161.7220  212.7160  147.6000 C   0  0  1  0  0  0  0  0  0  0  0  0
  161.5140  209.4360  152.7900 C   0  0  0  0  0  2  0  0  0  0  0  0
  160.7550  208.1980  152.3460 C   0  0  0  0  0  2  0  0  0  0  0  0
  161.7770  207.2260  150.2990 C   0  0  0  0  0  2  0  0  0  0  0  0
  160.9760  205.1280  150.8780 C   0  0  0  0  0  0  0  0  0  0  0  0
  161.2720  205.8910  149.8440 C   0  0  0  0  0  0  0  0  0  0  0  0
  161.7180  207.1420  151.8290 C   0  0  2  0  0  3  0  0  0  0  0  0
  161.1180  205.2000  153.4200 C   0  0  0  0  0  1  0  0  0  0  0  0
  161.2080  205.8040  152.1010 N   0  0  0  0  0  0  0  0  0  0  0  0
  161.7060  206.5640  147.4830 C   0  0  0  0  0  2  0  0  0  0  0  0
  160.1190  205.3790  144.9540 O   0  0  0  0  0  0  0  0  0  0  0  0
  162.0690  206.1220  146.0610 C   0  0  0  0  0  2  0  0  0  0  0  0
  161.1780  203.2450  147.2420 C   0  0  0  0  0  2  0  0  0  0  0  0
  161.9370  204.1170  148.2410 C   0  0  0  0  0  2  0  0  0  0  0  0
  161.2080  205.4470  148.4170 C   0  0  1  0  0  3  0  0  0  0  0  0
  161.4700  203.6300  145.7920 C   0  0  0  0  0  2  0  0  0  0  0  0
  161.1490  205.0690  145.5310 C   0  0  0  0  0  0  0  0  0  0  0  0
  160.5490  203.6990  150.7920 C   0  0  0  0  0  2  0  0  0  0  0  0
  161.5040  202.8860  151.4050 O   0  0  0  0  0  1  0  0  0  0  0  0
  1  2  1  0  0  0  0
  2  4  1  6  0  0  0
  2  7  1  0  0  0  0
  3  6  2  0  0  0  0
  5  9  1  6  0  0  0
  5  3  1  0  0  0  0
  5  8  1  0  0  0  0
  6  1  1  0  0  0  0
  8  2  1  0  0  0  0
 10 12  1  0  0  0  0
 10  9  1  1  0  0  0
 11 13  1  0  0  0  0
 11 12  1  0  0  0  0
 13 12  1  0  0  0  0
 14 15  1  6  0  0  0
 14 16  1  0  0  0  0
 14 10  1  0  0  0  0
 17 20  1  0  0  0  0
 17 18  1  0  0  0  0
 18 19  1  6  0  0  0
 20 18  1  0  0  0  0
 20 19  1  0  0  0  0
 20 16  1  1  0  0  0
 21  6  1  0  0  0  0
 22 21  1  0  0  0  0
 23 26  1  0  0  0  0
 24 28  1  0  0  0  0
 25 23  1  0  0  0  0
 25 24  2  0  0  0  0
 26 28  1  0  0  0  0
 26 22  1  6  0  0  0
 28 27  1  0  0  0  0
 29 34  1  0  0  0  0
 30 36  2  0  0  0  0
 31 29  1  0  0  0  0
 32 33  1  0  0  0  0
 33 34  1  0  0  0  0
 34 25  1  1  0  0  0
 35 32  1  0  0  0  0
 36 35  1  0  0  0  0
 36 31  1  0  0  0  0
 37 24  1  0  0  0  0
 37 38  1  0  0  0  0
M  END
>  <MODEL>
1

>  <REMARK>
 VINA RESULT:      -7.9      0.000      0.000
  Name = 
  11 active torsions:
  status: ('A' for Active; 'I' for Inactive)
    1  A    between atoms: C_4  and  C_14
    2  A    between atoms: C_4  and  C_35
    3  A    between atoms: C_10  and  C_24
    4  A    between atoms: C_10  and  C_30
    5  A    between atoms: C_14  and  C_17
    6  A    between atoms: C_15  and  C_25
    7  A    between atoms: C_16  and  C_17
    8  A    between atoms: C_17  and  C_22
    9  A    between atoms: C_18  and  C_20
   10  A    between atoms: C_22  and  C_28
   11  A    between atoms: C_30  and  C_32
                            x       y       z     vdW  Elec       q    Type
                         _______ _______ _______ _____ _____    ______ ____

>  <TORSDO>
F 11

$$$$
=
 OpenBabel11072410483D

 38 43  0  0  1  0  0  0  0  0999 V2000
  161.4260  208.7710  155.2140 O   0  0  0  0  0  0  0  0  0  0  0  0
  161.1570  210.0310  155.8300 C   0  0  1  0  0  0  0  0  0  0  0  0
  160.3540  209.3400  153.2050 N   0  0  0  0  0  0  0  0  0  0  0  0
  159.9130  209.9470  156.5790 N   0  0  0  0  0  1  0  0  0  0  0  0
  160.0450  210.6810  153.7010 C   0  0  1  0  0  3  0  0  0  0  0  0
  160.9600  208.4500  153.9320 C   0  0  0  0  0  0  0  0  0  0  0  0
  162.1940  210.3450  156.7060 O   0  0  0  0  0  1  0  0  0  0  0  0
  161.0470  211.1200  154.7670 C   0  0  0  0  0  2  0  0  0  0  0  0
  160.0420  211.6810  152.5500 C   0  0  0  0  0  2  0  0  0  0  0  0
  158.6870  212.3850  152.3730 C   0  0  1  0  0  3  0  0  0  0  0  0
  156.9730  213.8480  153.4170 C   0  0  0  0  0  2  0  0  0  0  0  0
  158.2000  212.9980  153.6860 C   0  0  0  0  0  3  0  0  0  0  0  0
  156.8170  212.4710  154.0190 C   0  0  0  0  0  2  0  0  0  0  0  0
  158.7450  213.4200  151.2380 C   0  0  2  0  0  3  0  0  0  0  0  0
  157.8510  213.1010  150.2100 O   0  0  0  0  0  1  0  0  0  0  0  0
  160.1580  213.5670  150.6710 C   0  0  0  0  0  2  0  0  0  0  0  0
  160.1550  214.4490  148.4170 O   0  0  0  0  0  0  0  0  0  0  0  0
  161.4390  213.9300  148.6560 C   0  0  2  0  0  3  0  0  0  0  0  0
  161.3990  212.4280  148.7910 C   0  0  0  0  0  2  0  0  0  0  0  0
  160.2110  213.2710  149.1800 C   0  0  1  0  0  0  0  0  0  0  0  0
  161.1920  207.0860  153.3820 C   0  0  0  0  0  2  0  0  0  0  0  0
  160.9400  207.0920  151.8850 C   0  0  0  0  0  2  0  0  0  0  0  0
  161.9590  206.4450  149.7110 C   0  0  0  0  0  2  0  0  0  0  0  0
  160.9580  204.3580  149.8470 C   0  0  0  0  0  0  0  0  0  0  0  0
  161.3600  205.2770  148.9910 C   0  0  0  0  0  0  0  0  0  0  0  0
  161.8300  206.0720  151.1940 C   0  0  2  0  0  3  0  0  0  0  0  0
  161.0010  203.9220  152.3550 C   0  0  0  0  0  1  0  0  0  0  0  0
  161.1960  204.7600  151.1840 N   0  0  0  0  0  0  0  0  0  0  0  0
  160.2740  206.0810  146.8960 C   0  0  0  0  0  2  0  0  0  0  0  0
  159.9600  204.3060  144.2370 O   0  0  0  0  0  0  0  0  0  0  0  0
  160.3990  206.3210  145.3870 C   0  0  0  0  0  2  0  0  0  0  0  0
  162.8930  204.2950  145.7560 C   0  0  0  0  0  2  0  0  0  0  0  0
  162.7170  205.2770  146.9120 C   0  0  0  0  0  2  0  0  0  0  0  0
  161.3170  205.1260  147.5030 C   0  0  1  0  0  3  0  0  0  0  0  0
  162.2600  204.8000  144.4600 C   0  0  0  0  0  2  0  0  0  0  0  0
  160.8030  205.0930  144.6380 C   0  0  0  0  0  0  0  0  0  0  0  0
  160.4140  203.0180  149.4710 C   0  0  0  0  0  2  0  0  0  0  0  0
  161.4660  202.1180  149.2940 O   0  0  0  0  0  1  0  0  0  0  0  0
  1  2  1  0  0  0  0
  2  4  1  1  0  0  0
  2  7  1  0  0  0  0
  3  5  1  0  0  0  0
  3  6  2  0  0  0  0
  5  9  1  6  0  0  0
  5  8  1  0  0  0  0
  6  1  1  0  0  0  0
  8  2  1  0  0  0  0
 10  9  1  1  0  0  0
 10 12  1  0  0  0  0
 11 12  1  0  0  0  0
 11 13  1  0  0  0  0
 12 13  1  0  0  0  0
 14 15  1  6  0  0  0
 14 10  1  0  0  0  0
 16 14  1  0  0  0  0
 17 18  1  0  0  0  0
 17 20  1  0  0  0  0
 18 19  1  6  0  0  0
 18 20  1  0  0  0  0
 19 20  1  0  0  0  0
 20 16  1  1  0  0  0
 21  6  1  0  0  0  0
 22 21  1  0  0  0  0
 23 26  1  0  0  0  0
 24 28  1  0  0  0  0
 25 23  1  0  0  0  0
 25 24  2  0  0  0  0
 26 22  1  1  0  0  0
 28 26  1  0  0  0  0
 28 27  1  0  0  0  0
 29 34  1  0  0  0  0
 30 36  2  0  0  0  0
 31 29  1  0  0  0  0
 32 33  1  0  0  0  0
 33 34  1  0  0  0  0
 34 25  1  1  0  0  0
 35 36  1  0  0  0  0
 35 32  1  0  0  0  0
 36 31  1  0  0  0  0
 37 24  1  0  0  0  0
 38 37  1  0  0  0  0
M  END
>  <MODEL>
2

>  <REMARK>
 VINA RESULT:      -7.8      1.839      2.584
  Name = 
  11 active torsions:
  status: ('A' for Active; 'I' for Inactive)
    1  A    between atoms: C_4  and  C_14
    2  A    between atoms: C_4  and  C_35
    3  A    between atoms: C_10  and  C_24
    4  A    between atoms: C_10  and  C_30
    5  A    between atoms: C_14  and  C_17
    6  A    between atoms: C_15  and  C_25
    7  A    between atoms: C_16  and  C_17
    8  A    between atoms: C_17  and  C_22
    9  A    between atoms: C_18  and  C_20
   10  A    between atoms: C_22  and  C_28
   11  A    between atoms: C_30  and  C_32
                            x       y       z     vdW  Elec       q    Type
                         _______ _______ _______ _____ _____    ______ ____

>  <TORSDO>
F 11

$$$$
=
 OpenBabel11072410483D

 38 43  0  0  1  0  0  0  0  0999 V2000
  160.8110  206.6270  154.9750 O   0  0  0  0  0  0  0  0  0  0  0  0
  160.1760  207.2970  156.0640 C   0  0  1  0  0  0  0  0  0  0  0  0
  161.0890  208.5890  153.7160 N   0  0  0  0  0  0  0  0  0  0  0  0
  158.7350  207.2680  155.8750 N   0  0  0  0  0  1  0  0  0  0  0  0
  160.4880  209.4020  154.7730 C   0  0  1  0  0  3  0  0  0  0  0  0
  161.1970  207.2970  153.8060 C   0  0  0  0  0  0  0  0  0  0  0  0
  160.4910  206.6430  157.2530 O   0  0  0  0  0  1  0  0  0  0  0  0
  160.6580  208.7430  156.1400 C   0  0  0  0  0  2  0  0  0  0  0  0
  161.1120  210.7930  154.7870 C   0  0  0  0  0  2  0  0  0  0  0  0
  160.0900  211.9100  154.5220 C   0  0  1  0  0  3  0  0  0  0  0  0
  158.4490  212.7380  152.8510 C   0  0  0  0  0  2  0  0  0  0  0  0
  159.0720  211.4960  153.4590 C   0  0  0  0  0  3  0  0  0  0  0  0
  159.5210  211.9860  152.0960 C   0  0  0  0  0  2  0  0  0  0  0  0
  159.4130  212.3610  155.8270 C   0  0  2  0  0  3  0  0  0  0  0  0
  160.2930  212.2810  156.9110 O   0  0  0  0  0  1  0  0  0  0  0  0
  158.1480  211.5540  156.1230 C   0  0  0  0  0  2  0  0  0  0  0  0
  156.8160  213.5630  155.9000 O   0  0  0  0  0  0  0  0  0  0  0  0
  155.9640  212.4730  155.6560 C   0  0  2  0  0  3  0  0  0  0  0  0
  155.7510  211.6610  156.9100 C   0  0  0  0  0  2  0  0  0  0  0  0
  157.0350  212.4220  156.6890 C   0  0  1  0  0  0  0  0  0  0  0  0
  161.7680  206.5270  152.6670 C   0  0  0  0  0  2  0  0  0  0  0  0
  162.0010  207.4560  151.4900 C   0  0  0  0  0  2  0  0  0  0  0  0
  160.8070  205.6020  150.3420 C   0  0  0  0  0  2  0  0  0  0  0  0
  161.8080  206.1830  148.3320 C   0  0  0  0  0  0  0  0  0  0  0  0
  161.3410  205.1560  149.0150 C   0  0  0  0  0  0  0  0  0  0  0  0
  161.0540  207.1160  150.3500 C   0  0  2  0  0  3  0  0  0  0  0  0
  161.9660  208.7160  148.5430 C   0  0  0  0  0  1  0  0  0  0  0  0
  161.6800  207.3900  149.0630 N   0  0  0  0  0  0  0  0  0  0  0  0
  160.6180  202.8280  149.5390 C   0  0  0  0  0  2  0  0  0  0  0  0
  161.9590  200.1990  148.2690 O   0  0  0  0  0  0  0  0  0  0  0  0
  160.1170  201.4810  149.0040 C   0  0  0  0  0  2  0  0  0  0  0  0
  161.2510  202.7020  146.2320 C   0  0  0  0  0  2  0  0  0  0  0  0
  160.5740  203.7330  147.1310 C   0  0  0  0  0  2  0  0  0  0  0  0
  161.2630  203.7560  148.4940 C   0  0  1  0  0  3  0  0  0  0  0  0
  160.7840  201.2770  146.5240 C   0  0  0  0  0  2  0  0  0  0  0  0
  161.0140  200.9050  147.9560 C   0  0  0  0  0  0  0  0  0  0  0  0
  162.3150  206.1170  146.9280 C   0  0  0  0  0  2  0  0  0  0  0  0
  161.2770  206.4070  146.0410 O   0  0  0  0  0  1  0  0  0  0  0  0
  1  2  1  0  0  0  0
  2  4  1  6  0  0  0
  2  8  1  0  0  0  0
  2  7  1  0  0  0  0
  3  6  2  0  0  0  0
  3  5  1  0  0  0  0
  5  9  1  1  0  0  0
  5  8  1  0  0  0  0
  6  1  1  0  0  0  0
 10  9  1  1  0  0  0
 10 14  1  0  0  0  0
 11 12  1  0  0  0  0
 12 10  1  0  0  0  0
 13 11  1  0  0  0  0
 13 12  1  0  0  0  0
 14 16  1  0  0  0  0
 14 15  1  1  0  0  0
 17 20  1  0  0  0  0
 18 17  1  0  0  0  0
 18 20  1  0  0  0  0
 18 19  1  1  0  0  0
 20 16  1  6  0  0  0
 20 19  1  0  0  0  0
 21  6  1  0  0  0  0
 22 21  1  0  0  0  0
 23 26  1  0  0  0  0
 24 25  2  0  0  0  0
 24 28  1  0  0  0  0
 25 23  1  0  0  0  0
 26 22  1  1  0  0  0
 27 28  1  0  0  0  0
 28 26  1  0  0  0  0
 31 29  1  0  0  0  0
 32 35  1  0  0  0  0
 32 33  1  0  0  0  0
 33 34  1  0  0  0  0
 34 25  1  1  0  0  0
 34 29  1  0  0  0  0
 35 36  1  0  0  0  0
 36 30  2  0  0  0  0
 36 31  1  0  0  0  0
 37 24  1  0  0  0  0
 38 37  1  0  0  0  0
M  END
>  <MODEL>
3

>  <REMARK>
 VINA RESULT:      -7.7      3.042      5.720
  Name = 
  11 active torsions:
  status: ('A' for Active; 'I' for Inactive)
    1  A    between atoms: C_4  and  C_14
    2  A    between atoms: C_4  and  C_35
    3  A    between atoms: C_10  and  C_24
    4  A    between atoms: C_10  and  C_30
    5  A    between atoms: C_14  and  C_17
    6  A    between atoms: C_15  and  C_25
    7  A    between atoms: C_16  and  C_17
    8  A    between atoms: C_17  and  C_22
    9  A    between atoms: C_18  and  C_20
   10  A    between atoms: C_22  and  C_28
   11  A    between atoms: C_30  and  C_32
                            x       y       z     vdW  Elec       q    Type
                         _______ _______ _______ _____ _____    ______ ____

>  <TORSDO>
F 11

$$$$
=
 OpenBabel11072410483D

 38 43  0  0  1  0  0  0  0  0999 V2000
  162.4000  206.9880  147.0980 O   0  0  0  0  0  0  0  0  0  0  0  0
  161.7350  205.8410  146.5700 C   0  0  1  0  0  0  0  0  0  0  0  0
  161.2000  206.9580  149.1150 N   0  0  0  0  0  0  0  0  0  0  0  0
  160.5870  206.2660  145.7850 N   0  0  0  0  0  1  0  0  0  0  0  0
  160.4700  205.7560  148.7120 C   0  0  1  0  0  3  0  0  0  0  0  0
  162.0650  207.5420  148.3410 C   0  0  0  0  0  0  0  0  0  0  0  0
  162.6130  205.1380  145.7470 O   0  0  0  0  0  1  0  0  0  0  0  0
  161.2750  204.9330  147.7070 C   0  0  0  0  0  2  0  0  0  0  0  0
  160.1400  204.9050  149.9330 C   0  0  0  0  0  2  0  0  0  0  0  0
  161.0430  203.6680  150.0600 C   0  0  1  0  0  3  0  0  0  0  0  0
  161.9900  205.2040  151.7670 C   0  0  0  0  0  2  0  0  0  0  0  0
  161.9610  203.7680  151.2780 C   0  0  0  0  0  3  0  0  0  0  0  0
  161.1570  204.1760  152.4980 C   0  0  0  0  0  2  0  0  0  0  0  0
  160.2120  202.3740  150.0680 C   0  0  2  0  0  3  0  0  0  0  0  0
  160.8400  201.3680  150.8090 O   0  0  0  0  0  1  0  0  0  0  0  0
  159.9220  201.8730  148.6520 C   0  0  0  0  0  2  0  0  0  0  0  0
  161.5790  200.2320  148.0050 O   0  0  0  0  0  0  0  0  0  0  0  0
  160.8470  200.5590  146.8500 C   0  0  2  0  0  3  0  0  0  0  0  0
  161.1110  201.9830  146.4270 C   0  0  0  0  0  2  0  0  0  0  0  0
  161.1970  201.5780  147.8780 C   0  0  1  0  0  0  0  0  0  0  0  0
  162.7290  208.7940  148.7950 C   0  0  0  0  0  2  0  0  0  0  0  0
  161.6780  209.8440  149.1060 C   0  0  0  0  0  2  0  0  0  0  0  0
  162.1010  209.5130  151.5330 C   0  0  0  0  0  2  0  0  0  0  0  0
  160.3770  210.9780  152.0480 C   0  0  0  0  0  0  0  0  0  0  0  0
  161.0100  209.9050  152.4820 C   0  0  0  0  0  0  0  0  0  0  0  0
  162.0050  210.5540  150.4100 C   0  0  2  0  0  3  0  0  0  0  0  0
  160.5320  212.6550  150.1370 C   0  0  0  0  0  1  0  0  0  0  0  0
  160.9070  211.4230  150.8110 N   0  0  0  0  0  0  0  0  0  0  0  0
  160.9130  207.7100  153.6610 C   0  0  0  0  0  2  0  0  0  0  0  0
  159.0490  207.1190  156.2100 O   0  0  0  0  0  0  0  0  0  0  0  0
  161.0600  206.9480  154.9830 C   0  0  0  0  0  2  0  0  0  0  0  0
  160.7730  209.9370  156.1860 C   0  0  0  0  0  2  0  0  0  0  0  0
  161.5870  209.8640  154.8960 C   0  0  0  0  0  2  0  0  0  0  0  0
  160.7400  209.2350  153.7920 C   0  0  1  0  0  3  0  0  0  0  0  0
  160.7410  208.6030  156.9310 C   0  0  0  0  0  2  0  0  0  0  0  0
  160.1990  207.5050  156.0700 C   0  0  0  0  0  0  0  0  0  0  0  0
  159.3080  211.7020  152.7980 C   0  0  0  0  0  2  0  0  0  0  0  0
  159.8910  212.6020  153.6930 O   0  0  0  0  0  1  0  0  0  0  0  0
  1  6  1  0  0  0  0
  2  7  1  6  0  0  0
  2  1  1  0  0  0  0
  2  8  1  0  0  0  0
  4  2  1  0  0  0  0
  5  3  1  0  0  0  0
  5  9  1  1  0  0  0
  6 21  1  0  0  0  0
  6  3  2  0  0  0  0
  8  5  1  0  0  0  0
 10  9  1  1  0  0  0
 10 14  1  0  0  0  0
 10 12  1  0  0  0  0
 11 13  1  0  0  0  0
 12 11  1  0  0  0  0
 12 13  1  0  0  0  0
 14 15  1  1  0  0  0
 16 14  1  0  0  0  0
 18 19  1  6  0  0  0
 18 20  1  0  0  0  0
 18 17  1  0  0  0  0
 19 20  1  0  0  0  0
 20 17  1  0  0  0  0
 20 16  1  1  0  0  0
 21 22  1  0  0  0  0
 23 25  1  0  0  0  0
 24 25  2  0  0  0  0
 24 37  1  0  0  0  0
 26 22  1  6  0  0  0
 26 28  1  0  0  0  0
 26 23  1  0  0  0  0
 27 28  1  0  0  0  0
 28 24  1  0  0  0  0
 29 34  1  0  0  0  0
 29 31  1  0  0  0  0
 31 36  1  0  0  0  0
 32 35  1  0  0  0  0
 33 32  1  0  0  0  0
 34 25  1  6  0  0  0
 34 33  1  0  0  0  0
 36 30  2  0  0  0  0
 36 35  1  0  0  0  0
 37 38  1  0  0  0  0
M  END
>  <MODEL>
4

>  <REMARK>
 VINA RESULT:      -7.4      2.545      9.368
  Name = 
  11 active torsions:
  status: ('A' for Active; 'I' for Inactive)
    1  A    between atoms: C_4  and  C_14
    2  A    between atoms: C_4  and  C_35
    3  A    between atoms: C_10  and  C_24
    4  A    between atoms: C_10  and  C_30
    5  A    between atoms: C_14  and  C_17
    6  A    between atoms: C_15  and  C_25
    7  A    between atoms: C_16  and  C_17
    8  A    between atoms: C_17  and  C_22
    9  A    between atoms: C_18  and  C_20
   10  A    between atoms: C_22  and  C_28
   11  A    between atoms: C_30  and  C_32
                            x       y       z     vdW  Elec       q    Type
                         _______ _______ _______ _____ _____    ______ ____

>  <TORSDO>
F 11

$$$$
=
 OpenBabel11072410483D

 38 43  0  0  1  0  0  0  0  0999 V2000
  162.0140  206.9070  146.3860 O   0  0  0  0  0  0  0  0  0  0  0  0
  161.4030  205.8280  145.6790 C   0  0  1  0  0  0  0  0  0  0  0  0
  161.8110  205.8670  148.4800 N   0  0  0  0  0  0  0  0  0  0  0  0
  159.9750  206.0760  145.5590 N   0  0  0  0  0  1  0  0  0  0  0  0
  161.2050  204.6800  147.8790 C   0  0  1  0  0  3  0  0  0  0  0  0
  162.1460  206.9110  147.7810 C   0  0  0  0  0  0  0  0  0  0  0  0
  161.9570  205.7400  144.4040 O   0  0  0  0  0  1  0  0  0  0  0  0
  161.6380  204.5170  146.4230 C   0  0  0  0  0  2  0  0  0  0  0  0
  161.5810  203.4350  148.6750 C   0  0  0  0  0  2  0  0  0  0  0  0
  160.5940  203.1330  149.8140 C   0  0  1  0  0  3  0  0  0  0  0  0
  160.0790  201.2190  148.3170 C   0  0  0  0  0  2  0  0  0  0  0  0
  160.1050  201.6860  149.7600 C   0  0  0  0  0  3  0  0  0  0  0  0
  161.2060  200.7880  149.2290 C   0  0  0  0  0  2  0  0  0  0  0  0
  161.2010  203.4880  151.1810 C   0  0  2  0  0  3  0  0  0  0  0  0
  160.8310  202.5600  152.1600 O   0  0  0  0  0  1  0  0  0  0  0  0
  160.8130  204.8990  151.6280 C   0  0  0  0  0  2  0  0  0  0  0  0
  162.6690  206.4230  151.9320 O   0  0  0  0  0  0  0  0  0  0  0  0
  161.5720  206.9630  152.6250 C   0  0  2  0  0  3  0  0  0  0  0  0
  161.2060  206.1050  153.8120 C   0  0  0  0  0  2  0  0  0  0  0  0
  161.8350  205.4980  152.5820 C   0  0  1  0  0  0  0  0  0  0  0  0
  162.7060  208.1060  148.4680 C   0  0  0  0  0  2  0  0  0  0  0  0
  161.6030  208.8200  149.2280 C   0  0  0  0  0  2  0  0  0  0  0  0
  161.6080  209.8090  151.5090 C   0  0  0  0  0  2  0  0  0  0  0  0
  160.9710  211.8610  150.6370 C   0  0  0  0  0  0  0  0  0  0  0  0
  160.8650  211.0940  151.7040 C   0  0  0  0  0  0  0  0  0  0  0  0
  162.1850  209.9270  150.0920 C   0  0  2  0  0  3  0  0  0  0  0  0
  162.1620  211.8620  148.3860 C   0  0  0  0  0  1  0  0  0  0  0  0
  161.7390  211.2330  149.6250 N   0  0  0  0  0  0  0  0  0  0  0  0
  158.6520  211.4550  152.7950 C   0  0  0  0  0  2  0  0  0  0  0  0
  158.1540  213.5070  155.2160 O   0  0  0  0  0  0  0  0  0  0  0  0
  157.8380  211.4530  154.0940 C   0  0  0  0  0  2  0  0  0  0  0  0
  160.8010  211.5390  155.3890 C   0  0  0  0  0  2  0  0  0  0  0  0
  160.6950  210.6630  154.1430 C   0  0  0  0  0  2  0  0  0  0  0  0
  160.1810  211.4970  152.9720 C   0  0  1  0  0  3  0  0  0  0  0  0
  159.4530  211.7330  156.0820 C   0  0  0  0  0  2  0  0  0  0  0  0
  158.4370  212.3220  155.1530 C   0  0  0  0  0  0  0  0  0  0  0  0
  160.4440  213.2550  150.5290 C   0  0  0  0  0  2  0  0  0  0  0  0
  159.2670  213.2540  149.7780 O   0  0  0  0  0  1  0  0  0  0  0  0
  1  6  1  0  0  0  0
  2  7  1  6  0  0  0
  2  1  1  0  0  0  0
  2  8  1  0  0  0  0
  4  2  1  0  0  0  0
  5  3  1  0  0  0  0
  5  9  1  1  0  0  0
  6 21  1  0  0  0  0
  6  3  2  0  0  0  0
  8  5  1  0  0  0  0
 10  9  1  6  0  0  0
 10 14  1  0  0  0  0
 11 13  1  0  0  0  0
 11 12  1  0  0  0  0
 12 10  1  0  0  0  0
 13 12  1  0  0  0  0
 14 16  1  0  0  0  0
 14 15  1  1  0  0  0
 17 20  1  0  0  0  0
 17 18  1  0  0  0  0
 18 19  1  1  0  0  0
 20 16  1  6  0  0  0
 20 18  1  0  0  0  0
 20 19  1  0  0  0  0
 21 22  1  0  0  0  0
 23 25  1  0  0  0  0
 24 25  2  0  0  0  0
 26 22  1  6  0  0  0
 26 23  1  0  0  0  0
 27 28  1  0  0  0  0
 28 26  1  0  0  0  0
 28 24  1  0  0  0  0
 29 34  1  0  0  0  0
 29 31  1  0  0  0  0
 31 36  1  0  0  0  0
 32 35  1  0  0  0  0
 33 32  1  0  0  0  0
 34 25  1  6  0  0  0
 34 33  1  0  0  0  0
 36 30  2  0  0  0  0
 36 35  1  0  0  0  0
 37 24  1  0  0  0  0
 38 37  1  0  0  0  0
M  END
>  <MODEL>
5

>  <REMARK>
 VINA RESULT:      -7.4      2.243      9.648
  Name = 
  11 active torsions:
  status: ('A' for Active; 'I' for Inactive)
    1  A    between atoms: C_4  and  C_14
    2  A    between atoms: C_4  and  C_35
    3  A    between atoms: C_10  and  C_24
    4  A    between atoms: C_10  and  C_30
    5  A    between atoms: C_14  and  C_17
    6  A    between atoms: C_15  and  C_25
    7  A    between atoms: C_16  and  C_17
    8  A    between atoms: C_17  and  C_22
    9  A    between atoms: C_18  and  C_20
   10  A    between atoms: C_22  and  C_28
   11  A    between atoms: C_30  and  C_32
                            x       y       z     vdW  Elec       q    Type
                         _______ _______ _______ _____ _____    ______ ____

>  <TORSDO>
F 11

$$$$
=
 OpenBabel11072410483D

 38 43  0  0  1  0  0  0  0  0999 V2000
  161.3030  207.7390  154.6610 O   0  0  0  0  0  0  0  0  0  0  0  0
  160.9910  208.3670  155.9040 C   0  0  1  0  0  0  0  0  0  0  0  0
  160.5900  209.5670  153.3720 N   0  0  0  0  0  0  0  0  0  0  0  0
  159.6410  208.0020  156.3040 N   0  0  0  0  0  1  0  0  0  0  0  0
  160.2610  210.3370  154.5710 C   0  0  1  0  0  3  0  0  0  0  0  0
  161.0360  208.3470  153.4270 C   0  0  0  0  0  0  0  0  0  0  0  0
  161.8860  207.9300  156.8780 O   0  0  0  0  0  1  0  0  0  0  0  0
  161.0970  209.8830  155.7660 C   0  0  0  0  0  2  0  0  0  0  0  0
  160.4820  211.8250  154.3190 C   0  0  0  0  0  2  0  0  0  0  0  0
  159.1710  212.6250  154.2750 C   0  0  1  0  0  3  0  0  0  0  0  0
  157.4540  213.2170  152.5810 C   0  0  0  0  0  2  0  0  0  0  0  0
  158.2110  212.0700  153.2230 C   0  0  0  0  0  3  0  0  0  0  0  0
  158.6080  212.5710  151.8470 C   0  0  0  0  0  2  0  0  0  0  0  0
  158.5230  212.7020  155.6670 C   0  0  2  0  0  3  0  0  0  0  0  0
  159.4880  212.8110  156.6740 O   0  0  0  0  0  1  0  0  0  0  0  0
  157.6170  211.5010  155.9420 C   0  0  0  0  0  2  0  0  0  0  0  0
  155.3420  210.6840  155.8190 O   0  0  0  0  0  0  0  0  0  0  0  0
  155.4390  211.4640  156.9840 C   0  0  2  0  0  3  0  0  0  0  0  0
  155.6500  212.9190  156.6460 C   0  0  0  0  0  2  0  0  0  0  0  0
  156.1480  211.8310  155.7270 C   0  0  1  0  0  0  0  0  0  0  0  0
  161.2970  207.6030  152.1640 C   0  0  0  0  0  2  0  0  0  0  0  0
  160.8700  206.1560  152.3290 C   0  0  0  0  0  2  0  0  0  0  0  0
  161.9500  205.8510  150.1100 C   0  0  0  0  0  2  0  0  0  0  0  0
  160.9080  203.7930  149.8700 C   0  0  0  0  0  0  0  0  0  0  0  0
  161.3560  204.8300  149.1900 C   0  0  0  0  0  0  0  0  0  0  0  0
  161.7640  205.2420  151.5070 C   0  0  2  0  0  3  0  0  0  0  0  0
  160.8580  202.9510  152.2730 C   0  0  0  0  0  1  0  0  0  0  0  0
  161.1080  203.9650  151.2630 N   0  0  0  0  0  0  0  0  0  0  0  0
  160.2040  205.8190  147.2120 C   0  0  0  0  0  2  0  0  0  0  0  0
  160.1880  204.4890  144.2880 O   0  0  0  0  0  0  0  0  0  0  0  0
  160.3220  206.3230  145.7690 C   0  0  0  0  0  2  0  0  0  0  0  0
  163.0670  204.6180  145.9030 C   0  0  0  0  0  2  0  0  0  0  0  0
  162.7360  205.3600  147.1960 C   0  0  0  0  0  2  0  0  0  0  0  0
  161.3600  204.9250  147.6970 C   0  0  1  0  0  3  0  0  0  0  0  0
  162.3930  205.2430  144.6820 C   0  0  0  0  0  2  0  0  0  0  0  0
  160.9060  205.3030  144.8460 C   0  0  0  0  0  0  0  0  0  0  0  0
  160.3530  202.5460  149.2630 C   0  0  0  0  0  2  0  0  0  0  0  0
  161.3800  201.6200  149.0730 O   0  0  0  0  0  1  0  0  0  0  0  0
  1  2  1  0  0  0  0
  2  4  1  1  0  0  0
  2  7  1  0  0  0  0
  3  6  2  0  0  0  0
  3  5  1  0  0  0  0
  5  9  1  6  0  0  0
  5  8  1  0  0  0  0
  6  1  1  0  0  0  0
  8  2  1  0  0  0  0
 10  9  1  1  0  0  0
 10 14  1  0  0  0  0
 11 12  1  0  0  0  0
 12 10  1  0  0  0  0
 13 11  1  0  0  0  0
 13 12  1  0  0  0  0
 14 16  1  0  0  0  0
 14 15  1  1  0  0  0
 17 18  1  0  0  0  0
 18 19  1  6  0  0  0
 20 17  1  0  0  0  0
 20 16  1  6  0  0  0
 20 19  1  0  0  0  0
 20 18  1  0  0  0  0
 21 22  1  0  0  0  0
 21  6  1  0  0  0  0
 23 26  1  0  0  0  0
 24 28  1  0  0  0  0
 25 24  2  0  0  0  0
 25 23  1  0  0  0  0
 26 22  1  1  0  0  0
 28 26  1  0  0  0  0
 28 27  1  0  0  0  0
 29 34  1  0  0  0  0
 30 36  2  0  0  0  0
 31 29  1  0  0  0  0
 32 33  1  0  0  0  0
 33 34  1  0  0  0  0
 34 25  1  1  0  0  0
 35 36  1  0  0  0  0
 35 32  1  0  0  0  0
 36 31  1  0  0  0  0
 37 24  1  0  0  0  0
 38 37  1  0  0  0  0
M  END
>  <MODEL>
6

>  <REMARK>
 VINA RESULT:      -7.3      3.313      5.097
  Name = 
  11 active torsions:
  status: ('A' for Active; 'I' for Inactive)
    1  A    between atoms: C_4  and  C_14
    2  A    between atoms: C_4  and  C_35
    3  A    between atoms: C_10  and  C_24
    4  A    between atoms: C_10  and  C_30
    5  A    between atoms: C_14  and  C_17
    6  A    between atoms: C_15  and  C_25
    7  A    between atoms: C_16  and  C_17
    8  A    between atoms: C_17  and  C_22
    9  A    between atoms: C_18  and  C_20
   10  A    between atoms: C_22  and  C_28
   11  A    between atoms: C_30  and  C_32
                            x       y       z     vdW  Elec       q    Type
                         _______ _______ _______ _____ _____    ______ ____

>  <TORSDO>
F 11

$$$$
=
 OpenBabel11072410483D

 38 43  0  0  1  0  0  0  0  0999 V2000
  161.5590  208.6920  154.4170 O   0  0  0  0  0  0  0  0  0  0  0  0
  160.9390  208.7990  155.6980 C   0  0  1  0  0  0  0  0  0  0  0  0
  160.3710  210.4990  153.5070 N   0  0  0  0  0  0  0  0  0  0  0  0
  159.7720  207.9330  155.7430 N   0  0  0  0  0  1  0  0  0  0  0  0
  159.6880  210.7440  154.7770 C   0  0  1  0  0  3  0  0  0  0  0  0
  161.2070  209.5190  153.3420 C   0  0  0  0  0  0  0  0  0  0  0  0
  161.8410  208.3980  156.6810 O   0  0  0  0  0  1  0  0  0  0  0  0
  160.5200  210.2430  155.9560 C   0  0  0  0  0  2  0  0  0  0  0  0
  159.3970  212.2310  154.9410 C   0  0  0  0  0  2  0  0  0  0  0  0
  157.9040  212.5670  154.8070 C   0  0  1  0  0  3  0  0  0  0  0  0
  155.7290  212.8210  155.9810 C   0  0  0  0  0  2  0  0  0  0  0  0
  157.2250  212.6580  156.1740 C   0  0  0  0  0  3  0  0  0  0  0  0
  156.2960  211.4740  156.3680 C   0  0  0  0  0  2  0  0  0  0  0  0
  157.6950  213.8420  153.9720 C   0  0  2  0  0  3  0  0  0  0  0  0
  156.6140  213.7060  153.0960 O   0  0  0  0  0  1  0  0  0  0  0  0
  158.9540  214.2240  153.1910 C   0  0  0  0  0  2  0  0  0  0  0  0
  159.9150  214.4420  150.9810 O   0  0  0  0  0  0  0  0  0  0  0  0
  159.8480  213.0680  151.2690 C   0  0  2  0  0  3  0  0  0  0  0  0
  158.4160  212.5980  151.3360 C   0  0  0  0  0  2  0  0  0  0  0  0
  158.7830  214.0170  151.6940 C   0  0  1  0  0  0  0  0  0  0  0  0
  161.8230  209.2960  152.0050 C   0  0  0  0  0  2  0  0  0  0  0  0
  161.0380  208.2350  151.2540 C   0  0  0  0  0  2  0  0  0  0  0  0
  161.9700  206.7620  149.4810 C   0  0  0  0  0  2  0  0  0  0  0  0
  161.0000  204.9120  150.4880 C   0  0  0  0  0  0  0  0  0  0  0  0
  161.3550  205.4060  149.3180 C   0  0  0  0  0  0  0  0  0  0  0  0
  161.9090  207.0170  150.9930 C   0  0  2  0  0  3  0  0  0  0  0  0
  161.1560  205.5210  152.9560 C   0  0  0  0  0  1  0  0  0  0  0  0
  161.2910  205.8160  151.5390 N   0  0  0  0  0  0  0  0  0  0  0  0
  162.0380  205.4040  146.9200 C   0  0  0  0  0  2  0  0  0  0  0  0
  160.3280  204.0480  144.5630 O   0  0  0  0  0  0  0  0  0  0  0  0
  162.3470  204.5770  145.6670 C   0  0  0  0  0  2  0  0  0  0  0  0
  160.7520  202.3200  147.3470 C   0  0  0  0  0  2  0  0  0  0  0  0
  161.6510  203.2080  148.2030 C   0  0  0  0  0  2  0  0  0  0  0  0
  161.2490  204.6700  148.0200 C   0  0  1  0  0  3  0  0  0  0  0  0
  161.1890  202.2860  145.8830 C   0  0  0  0  0  2  0  0  0  0  0  0
  161.2290  203.6600  145.2890 C   0  0  0  0  0  0  0  0  0  0  0  0
  160.4560  203.5380  150.7060 C   0  0  0  0  0  2  0  0  0  0  0  0
  161.2020  202.8890  151.6920 O   0  0  0  0  0  1  0  0  0  0  0  0
  1  2  1  0  0  0  0
  2  4  1  1  0  0  0
  2  8  1  0  0  0  0
  2  7  1  0  0  0  0
  3  5  1  0  0  0  0
  5  9  1  1  0  0  0
  5  8  1  0  0  0  0
  6  3  2  0  0  0  0
  6  1  1  0  0  0  0
 10  9  1  1  0  0  0
 10 12  1  0  0  0  0
 11 12  1  0  0  0  0
 11 13  1  0  0  0  0
 12 13  1  0  0  0  0
 14 15  1  6  0  0  0
 14 10  1  0  0  0  0
 16 14  1  0  0  0  0
 17 18  1  0  0  0  0
 17 20  1  0  0  0  0
 18 19  1  6  0  0  0
 18 20  1  0  0  0  0
 19 20  1  0  0  0  0
 20 16  1  1  0  0  0
 21  6  1  0  0  0  0
 22 21  1  0  0  0  0
 23 26  1  0  0  0  0
 24 37  1  0  0  0  0
 24 28  1  0  0  0  0
 25 23  1  0  0  0  0
 25 24  2  0  0  0  0
 26 22  1  6  0  0  0
 26 28  1  0  0  0  0
 28 27  1  0  0  0  0
 29 34  1  0  0  0  0
 30 36  2  0  0  0  0
 31 29  1  0  0  0  0
 32 33  1  0  0  0  0
 34 33  1  0  0  0  0
 34 25  1  1  0  0  0
 35 32  1  0  0  0  0
 36 31  1  0  0  0  0
 36 35  1  0  0  0  0
 37 38  1  0  0  0  0
M  END
>  <MODEL>
7

>  <REMARK>
 VINA RESULT:      -7.0      2.280      3.718
  Name = 
  11 active torsions:
  status: ('A' for Active; 'I' for Inactive)
    1  A    between atoms: C_4  and  C_14
    2  A    between atoms: C_4  and  C_35
    3  A    between atoms: C_10  and  C_24
    4  A    between atoms: C_10  and  C_30
    5  A    between atoms: C_14  and  C_17
    6  A    between atoms: C_15  and  C_25
    7  A    between atoms: C_16  and  C_17
    8  A    between atoms: C_17  and  C_22
    9  A    between atoms: C_18  and  C_20
   10  A    between atoms: C_22  and  C_28
   11  A    between atoms: C_30  and  C_32
                            x       y       z     vdW  Elec       q    Type
                         _______ _______ _______ _____ _____    ______ ____

>  <TORSDO>
F 11

$$$$
=
 OpenBabel11072410483D

 38 43  0  0  1  0  0  0  0  0999 V2000
  161.8790  208.9710  155.5280 O   0  0  0  0  0  0  0  0  0  0  0  0
  161.8520  210.3320  155.9560 C   0  0  1  0  0  0  0  0  0  0  0  0
  159.8500  209.1280  154.3580 N   0  0  0  0  0  0  0  0  0  0  0  0
  161.2150  210.4170  157.2600 N   0  0  0  0  0  1  0  0  0  0  0  0
  159.7170  210.5450  154.6950 C   0  0  1  0  0  3  0  0  0  0  0  0
  160.8380  208.3990  154.7850 C   0  0  0  0  0  0  0  0  0  0  0  0
  163.1580  210.8080  156.0580 O   0  0  0  0  0  1  0  0  0  0  0  0
  161.0830  211.1820  154.9490 C   0  0  0  0  0  2  0  0  0  0  0  0
  159.0000  211.2880  153.5730 C   0  0  0  0  0  2  0  0  0  0  0  0
  157.6680  211.9100  154.0250 C   0  0  1  0  0  3  0  0  0  0  0  0
  155.9700  212.0930  155.8270 C   0  0  0  0  0  2  0  0  0  0  0  0
  157.2610  211.4130  155.4110 C   0  0  0  0  0  3  0  0  0  0  0  0
  155.9420  210.6670  155.3250 C   0  0  0  0  0  2  0  0  0  0  0  0
  157.7220  213.4450  153.9520 C   0  0  2  0  0  3  0  0  0  0  0  0
  156.4650  213.9850  153.6610 O   0  0  0  0  0  1  0  0  0  0  0  0
  158.7480  213.9330  152.9280 C   0  0  0  0  0  2  0  0  0  0  0  0
  157.6270  214.3770  150.8300 O   0  0  0  0  0  0  0  0  0  0  0  0
  159.0090  214.4510  150.5840 C   0  0  2  0  0  3  0  0  0  0  0  0
  159.6580  213.0960  150.7270 C   0  0  0  0  0  2  0  0  0  0  0  0
  158.4260  213.4520  151.5220 C   0  0  1  0  0  0  0  0  0  0  0  0
  160.8790  206.9490  154.4500 C   0  0  0  0  0  2  0  0  0  0  0  0
  161.7400  206.7360  153.2180 C   0  0  0  0  0  2  0  0  0  0  0  0
  160.6570  205.2560  151.5390 C   0  0  0  0  0  2  0  0  0  0  0  0
  161.7830  206.3460  149.8300 C   0  0  0  0  0  0  0  0  0  0  0  0
  161.2870  205.1760  150.1830 C   0  0  0  0  0  0  0  0  0  0  0  0
  160.8790  206.7130  151.9660 C   0  0  2  0  0  3  0  0  0  0  0  0
  161.8860  208.7320  150.7140 C   0  0  0  0  0  1  0  0  0  0  0  0
  161.5870  207.3160  150.8440 N   0  0  0  0  0  0  0  0  0  0  0  0
  160.4330  202.8450  149.9540 C   0  0  0  0  0  2  0  0  0  0  0  0
  161.9100  200.5470  148.2630 O   0  0  0  0  0  0  0  0  0  0  0  0
  160.0000  201.7160  149.0110 C   0  0  0  0  0  2  0  0  0  0  0  0
  161.6140  203.5290  146.8730 C   0  0  0  0  0  2  0  0  0  0  0  0
  160.8170  204.3380  147.8940 C   0  0  0  0  0  2  0  0  0  0  0  0
  161.2670  203.9650  149.3050 C   0  0  1  0  0  3  0  0  0  0  0  0
  161.0720  202.1100  146.7020 C   0  0  0  0  0  2  0  0  0  0  0  0
  161.0470  201.3700  148.0030 C   0  0  0  0  0  0  0  0  0  0  0  0
  162.3850  206.6530  148.4980 C   0  0  0  0  0  2  0  0  0  0  0  0
  161.6800  207.6960  147.8940 O   0  0  0  0  0  1  0  0  0  0  0  0
  1  2  1  0  0  0  0
  2  7  1  1  0  0  0
  2  4  1  0  0  0  0
  3  5  1  0  0  0  0
  3  6  2  0  0  0  0
  5  9  1  6  0  0  0
  5  8  1  0  0  0  0
  6  1  1  0  0  0  0
  8  2  1  0  0  0  0
 10  9  1  1  0  0  0
 10 12  1  0  0  0  0
 12 11  1  0  0  0  0
 13 12  1  0  0  0  0
 13 11  1  0  0  0  0
 14 15  1  6  0  0  0
 14 10  1  0  0  0  0
 16 14  1  0  0  0  0
 17 20  1  0  0  0  0
 18 19  1  6  0  0  0
 18 17  1  0  0  0  0
 18 20  1  0  0  0  0
 19 20  1  0  0  0  0
 20 16  1  1  0  0  0
 21  6  1  0  0  0  0
 22 21  1  0  0  0  0
 23 26  1  0  0  0  0
 24 25  2  0  0  0  0
 24 28  1  0  0  0  0
 25 23  1  0  0  0  0
 26 22  1  1  0  0  0
 27 28  1  0  0  0  0
 28 26  1  0  0  0  0
 31 29  1  0  0  0  0
 32 33  1  0  0  0  0
 33 34  1  0  0  0  0
 34 29  1  0  0  0  0
 34 25  1  1  0  0  0
 35 32  1  0  0  0  0
 35 36  1  0  0  0  0
 36 30  2  0  0  0  0
 36 31  1  0  0  0  0
 37 24  1  0  0  0  0
 38 37  1  0  0  0  0
M  END
>  <MODEL>
8

>  <REMARK>
 VINA RESULT:      -7.0      2.537      4.397
  Name = 
  11 active torsions:
  status: ('A' for Active; 'I' for Inactive)
    1  A    between atoms: C_4  and  C_14
    2  A    between atoms: C_4  and  C_35
    3  A    between atoms: C_10  and  C_24
    4  A    between atoms: C_10  and  C_30
    5  A    between atoms: C_14  and  C_17
    6  A    between atoms: C_15  and  C_25
    7  A    between atoms: C_16  and  C_17
    8  A    between atoms: C_17  and  C_22
    9  A    between atoms: C_18  and  C_20
   10  A    between atoms: C_22  and  C_28
   11  A    between atoms: C_30  and  C_32
                            x       y       z     vdW  Elec       q    Type
                         _______ _______ _______ _____ _____    ______ ____

>  <TORSDO>
F 11

$$$$
=
 OpenBabel11072410483D

 38 43  0  0  1  0  0  0  0  0999 V2000
  161.2540  204.8070  152.6440 O   0  0  0  0  0  0  0  0  0  0  0  0
  160.9740  203.6960  151.7940 C   0  0  1  0  0  0  0  0  0  0  0  0
  161.5340  206.3100  150.8630 N   0  0  0  0  0  0  0  0  0  0  0  0
  162.2080  202.9820  151.5090 N   0  0  0  0  0  1  0  0  0  0  0  0
  161.2270  205.2690  149.8820 C   0  0  1  0  0  3  0  0  0  0  0  0
  161.5820  206.0730  152.1400 C   0  0  0  0  0  0  0  0  0  0  0  0
  160.0890  202.8340  152.4390 O   0  0  0  0  0  1  0  0  0  0  0  0
  160.3450  204.1800  150.4910 C   0  0  0  0  0  2  0  0  0  0  0  0
  160.5360  205.8780  148.6670 C   0  0  0  0  0  2  0  0  0  0  0  0
  160.9440  205.2040  147.3470 C   0  0  1  0  0  3  0  0  0  0  0  0
  161.3920  205.5200  144.9250 C   0  0  0  0  0  2  0  0  0  0  0  0
  161.2050  206.2350  146.2500 C   0  0  0  0  0  3  0  0  0  0  0  0
  160.0790  206.2030  145.2330 C   0  0  0  0  0  2  0  0  0  0  0  0
  162.1420  204.2620  147.5540 C   0  0  2  0  0  3  0  0  0  0  0  0
  163.3420  204.8760  147.1810 O   0  0  0  0  0  1  0  0  0  0  0  0
  161.9710  202.9470  146.7920 C   0  0  0  0  0  2  0  0  0  0  0  0
  160.2500  201.3070  146.3400 O   0  0  0  0  0  0  0  0  0  0  0  0
  161.2050  200.6870  147.1640 C   0  0  2  0  0  3  0  0  0  0  0  0
  161.2060  201.2980  148.5440 C   0  0  0  0  0  2  0  0  0  0  0  0
  160.8200  202.1150  147.3360 C   0  0  1  0  0  0  0  0  0  0  0  0
  161.9570  207.1670  153.0770 C   0  0  0  0  0  2  0  0  0  0  0  0
  160.7070  207.8970  153.5330 C   0  0  0  0  0  2  0  0  0  0  0  0
  160.0620  209.8870  154.8770 C   0  0  0  0  0  2  0  0  0  0  0  0
  159.6800  211.0930  152.9330 C   0  0  0  0  0  0  0  0  0  0  0  0
  159.2830  210.9630  154.1840 C   0  0  0  0  0  0  0  0  0  0  0  0
  161.0130  209.3630  153.7930 C   0  0  2  0  0  3  0  0  0  0  0  0
  161.4560  210.1450  151.3740 C   0  0  0  0  0  1  0  0  0  0  0  0
  160.7060  210.1680  152.6190 N   0  0  0  0  0  0  0  0  0  0  0  0
  156.9420  211.0770  155.0330 C   0  0  0  0  0  2  0  0  0  0  0  0
  155.2260  213.7870  155.2170 O   0  0  0  0  0  0  0  0  0  0  0  0
  155.9610  211.6970  156.0350 C   0  0  0  0  0  2  0  0  0  0  0  0
  158.3470  213.8660  156.2980 C   0  0  0  0  0  2  0  0  0  0  0  0
  158.8330  212.4280  156.1370 C   0  0  0  0  0  2  0  0  0  0  0  0
  158.2670  211.8380  154.8470 C   0  0  1  0  0  3  0  0  0  0  0  0
  156.9250  213.9430  156.8530 C   0  0  0  0  0  2  0  0  0  0  0  0
  155.9570  213.1910  155.9920 C   0  0  0  0  0  0  0  0  0  0  0  0
  159.1940  212.1420  151.9870 C   0  0  0  0  0  2  0  0  0  0  0  0
  159.9940  213.2810  152.0990 O   0  0  0  0  0  1  0  0  0  0  0  0
  2  4  1  6  0  0  0
  2  7  1  0  0  0  0
  2  1  1  0  0  0  0
  3  6  2  0  0  0  0
  5  9  1  6  0  0  0
  5  8  1  0  0  0  0
  5  3  1  0  0  0  0
  6  1  1  0  0  0  0
  6 21  1  0  0  0  0
  8  2  1  0  0  0  0
 10 14  1  0  0  0  0
 10  9  1  1  0  0  0
 11 13  1  0  0  0  0
 11 12  1  0  0  0  0
 12 10  1  0  0  0  0
 13 12  1  0  0  0  0
 14 15  1  6  0  0  0
 16 14  1  0  0  0  0
 17 18  1  0  0  0  0
 17 20  1  0  0  0  0
 18 20  1  0  0  0  0
 18 19  1  1  0  0  0
 20 16  1  6  0  0  0
 20 19  1  0  0  0  0
 21 22  1  0  0  0  0
 24 25  2  0  0  0  0
 25 23  1  0  0  0  0
 26 22  1  6  0  0  0
 26 23  1  0  0  0  0
 27 28  1  0  0  0  0
 28 24  1  0  0  0  0
 28 26  1  0  0  0  0
 29 31  1  0  0  0  0
 30 36  2  0  0  0  0
 32 35  1  0  0  0  0
 33 32  1  0  0  0  0
 34 25  1  1  0  0  0
 34 29  1  0  0  0  0
 34 33  1  0  0  0  0
 36 31  1  0  0  0  0
 36 35  1  0  0  0  0
 37 38  1  0  0  0  0
 37 24  1  0  0  0  0
M  END
>  <MODEL>
9

>  <REMARK>
 VINA RESULT:      -6.9      2.765      9.593
  Name = 
  11 active torsions:
  status: ('A' for Active; 'I' for Inactive)
    1  A    between atoms: C_4  and  C_14
    2  A    between atoms: C_4  and  C_35
    3  A    between atoms: C_10  and  C_24
    4  A    between atoms: C_10  and  C_30
    5  A    between atoms: C_14  and  C_17
    6  A    between atoms: C_15  and  C_25
    7  A    between atoms: C_16  and  C_17
    8  A    between atoms: C_17  and  C_22
    9  A    between atoms: C_18  and  C_20
   10  A    between atoms: C_22  and  C_28
   11  A    between atoms: C_30  and  C_32
                            x       y       z     vdW  Elec       q    Type
                         _______ _______ _______ _____ _____    ______ ____

>  <TORSDO>
F 11

$$$$
