=
 OpenBabel11072411213D

 42 45  0  0  1  0  0  0  0  0999 V2000
  160.7750  208.1580  152.0160 C   0  0  1  0  0  3  0  0  0  0  0  0
  160.9080  209.3060  154.2400 C   0  0  0  0  0  2  0  0  0  0  0  0
  160.6620  206.8810  152.8570 C   0  0  0  0  0  2  0  0  0  0  0  0
  161.5940  206.9350  154.0670 C   0  0  0  0  0  2  0  0  0  0  0  0
  161.2760  208.0680  154.9520 N   0  0  0  0  0  2  0  0  0  0  0  0
  161.3890  209.3330  152.7870 C   0  0  2  0  0  3  0  0  0  0  0  0
  161.5330  207.9000  150.7490 C   0  0  0  0  0  0  0  0  0  0  0  0
  161.7760  208.8510  149.9570 O   0  0  0  0  0  0  0  0  0  0  0  0
  163.0480  206.0800  150.8590 O   0  0  0  0  0  0  0  0  0  0  0  0
  161.9570  206.5340  150.4120 C   0  0  0  0  0  0  0  0  0  0  0  0
  161.0700  205.6570  149.5700 C   0  0  1  0  0  3  0  0  0  0  0  0
  161.3340  205.7700  148.0820 C   0  0  0  0  0  0  0  0  0  0  0  0
  160.5120  206.3700  145.7850 C   0  0  1  0  0  3  0  0  0  0  0  0
  162.7410  205.1240  146.1690 C   0  0  0  0  0  3  0  0  0  0  0  0
  159.3550  205.8810  145.1750 O   0  0  0  0  0  1  0  0  0  0  0  0
  162.5590  205.1850  147.4870 C   0  0  0  0  0  3  0  0  0  0  0  0
  160.3730  206.2600  147.2820 C   0  0  0  0  0  3  0  0  0  0  0  0
  161.8940  205.5450  144.0100 O   0  0  0  0  0  0  0  0  0  0  0  0
  161.7230  205.6530  145.2530 C   0  0  0  0  0  0  0  0  0  0  0  0
  160.7870  203.1910  149.2290 C   0  0  0  0  0  3  0  0  0  0  0  0
  161.0540  204.2500  150.1000 C   0  0  0  0  0  0  0  0  0  0  0  0
  161.2330  202.6920  151.9070 N   0  0  0  0  0  0  0  0  0  0  0  0
  160.9770  201.6510  151.0710 C   0  0  0  0  0  3  0  0  0  0  0  0
  160.7480  201.8840  149.7120 C   0  0  0  0  0  3  0  0  0  0  0  0
  161.2740  203.9740  151.4560 C   0  0  0  0  0  3  0  0  0  0  0  0
  161.0140  210.6490  152.1190 C   0  0  0  0  0  2  0  0  0  0  0  0
  160.4930  211.6490  153.1400 C   0  0  0  0  0  2  0  0  0  0  0  0
  158.9740  211.6020  153.2330 C   0  0  0  0  0  2  0  0  0  0  0  0
  158.0300  214.0960  156.0390 C   0  0  1  0  0  3  0  0  0  0  0  0
  156.8970  212.9600  153.7240 C   0  0  0  0  0  2  0  0  0  0  0  0
  158.4250  212.8830  153.8540 C   0  0  1  0  0  3  0  0  0  0  0  0
  158.6050  214.4520  157.2610 O   0  0  0  0  0  1  0  0  0  0  0  0
  158.9830  213.1960  155.2570 C   0  0  2  0  0  3  0  0  0  0  0  0
  156.6770  213.4090  156.2730 C   0  0  2  0  0  3  0  0  0  0  0  0
  156.1260  212.6870  155.0260 C   0  0  2  0  0  3  0  0  0  0  0  0
  159.2560  212.0300  155.9790 O   0  0  0  0  0  1  0  0  0  0  0  0
  155.8490  211.1990  155.2650 C   0  0  0  0  0  0  0  0  0  0  0  0
  154.8710  210.7620  154.3900 F   0  0  0  0  0  0  0  0  0  0  0  0
  156.9910  210.4450  155.0730 F   0  0  0  0  0  0  0  0  0  0  0  0
  155.4000  211.0080  156.5590 F   0  0  0  0  0  0  0  0  0  0  0  0
  154.5030  214.3600  156.0180 F   0  0  0  0  0  0  0  0  0  0  0  0
  155.6670  214.4330  156.7630 C   0  0  0  0  0  2  0  0  0  0  0  0
  1  7  1  6  0  0  0
  1  6  1  0  0  0  0
  1  3  1  0  0  0  0
  2  5  1  0  0  0  0
  3  4  1  0  0  0  0
  4  5  1  0  0  0  0
  6 26  1  6  0  0  0
  6  2  1  0  0  0  0
  8  7  2  0  0  0  0
 10  7  1  0  0  0  0
 10  9  2  0  0  0  0
 11 21  1  0  0  0  0
 11 10  1  1  0  0  0
 12 11  1  0  0  0  0
 13 15  1  6  0  0  0
 13 17  1  0  0  0  0
 14 16  2  0  0  0  0
 16 12  1  0  0  0  0
 17 12  2  0  0  0  0
 18 19  2  0  0  0  0
 19 13  1  0  0  0  0
 19 14  1  0  0  0  0
 20 24  2  0  0  0  0
 20 21  1  0  0  0  0
 21 25  2  0  0  0  0
 23 22  2  0  0  0  0
 24 23  1  0  0  0  0
 25 22  1  0  0  0  0
 26 27  1  0  0  0  0
 27 28  1  0  0  0  0
 29 34  1  0  0  0  0
 29 32  1  1  0  0  0
 30 31  1  0  0  0  0
 30 35  1  0  0  0  0
 31 28  1  1  0  0  0
 31 33  1  0  0  0  0
 33 36  1  1  0  0  0
 33 29  1  0  0  0  0
 34 42  1  6  0  0  0
 35 37  1  1  0  0  0
 35 34  1  0  0  0  0
 37 40  1  0  0  0  0
 38 37  1  0  0  0  0
 39 37  1  0  0  0  0
 41 42  1  0  0  0  0
M  END
>  <MODEL>
1

>  <REMARK>
 VINA RESULT:      -7.9      0.000      0.000
  Name = 
  11 active torsions:
  status: ('A' for Active; 'I' for Inactive)
    1  A    between atoms: C_2  and  C_14
    2  A    between atoms: C_5  and  C_17
    3  A    between atoms: C_5  and  C_37
    4  A    between atoms: C_6  and  C_15
    5  A    between atoms: C_7  and  C_36
    6  A    between atoms: C_10  and  C_14
    7  A    between atoms: C_14  and  C_22
    8  A    between atoms: C_15  and  C_22
    9  A    between atoms: C_17  and  C_41
   10  A    between atoms: C_18  and  C_35
   11  A    between atoms: C_20  and  C_41
                            x       y       z     vdW  Elec       q    Type
                         _______ _______ _______ _____ _____    ______ ____

>  <TORSDO>
F 11

$$$$
=
 OpenBabel11072411213D

 42 45  0  0  1  0  0  0  0  0999 V2000
  161.1630  208.2750  150.9620 C   0  0  1  0  0  3  0  0  0  0  0  0
  161.5450  210.5330  151.9820 C   0  0  0  0  0  2  0  0  0  0  0  0
  160.8570  207.8490  152.4030 C   0  0  0  0  0  2  0  0  0  0  0  0
  161.8150  208.5170  153.3890 C   0  0  0  0  0  2  0  0  0  0  0  0
  161.7160  209.9850  153.3390 N   0  0  0  0  0  2  0  0  0  0  0  0
  161.9860  209.5670  150.8800 C   0  0  2  0  0  3  0  0  0  0  0  0
  161.8340  207.1680  150.2070 C   0  0  0  0  0  0  0  0  0  0  0  0
  163.0330  206.8710  150.4620 O   0  0  0  0  0  0  0  0  0  0  0  0
  159.9610  206.8460  148.7900 O   0  0  0  0  0  0  0  0  0  0  0  0
  161.1080  206.4560  149.1460 C   0  0  0  0  0  0  0  0  0  0  0  0
  161.7510  205.2870  148.4500 C   0  0  1  0  0  3  0  0  0  0  0  0
  161.3300  203.9400  149.0020 C   0  0  0  0  0  0  0  0  0  0  0  0
  160.8840  202.4660  150.9870 C   0  0  1  0  0  3  0  0  0  0  0  0
  160.9780  201.5420  148.5780 C   0  0  0  0  0  3  0  0  0  0  0  0
  161.7720  202.2120  152.0340 O   0  0  0  0  0  1  0  0  0  0  0  0
  161.1860  202.7690  148.1050 C   0  0  0  0  0  3  0  0  0  0  0  0
  161.2460  203.7750  150.3320 C   0  0  0  0  0  3  0  0  0  0  0  0
  160.7180  200.1370  150.4530 O   0  0  0  0  0  0  0  0  0  0  0  0
  160.8710  201.3110  150.0240 C   0  0  0  0  0  0  0  0  0  0  0  0
  160.4780  206.0020  146.4140 C   0  0  0  0  0  3  0  0  0  0  0  0
  161.6260  205.4210  146.9570 C   0  0  0  0  0  0  0  0  0  0  0  0
  162.4710  205.0720  144.7460 N   0  0  0  0  0  0  0  0  0  0  0  0
  161.3600  205.6370  144.2030 C   0  0  0  0  0  3  0  0  0  0  0  0
  160.3400  206.1140  145.0310 C   0  0  0  0  0  3  0  0  0  0  0  0
  162.6240  204.9530  146.0920 C   0  0  0  0  0  3  0  0  0  0  0  0
  161.8230  210.2030  149.5060 C   0  0  0  0  0  2  0  0  0  0  0  0
  161.9870  211.7140  149.5830 C   0  0  0  0  0  2  0  0  0  0  0  0
  161.0650  212.4190  148.5980 C   0  0  0  0  0  2  0  0  0  0  0  0
  162.0010  213.0330  144.8930 C   0  0  1  0  0  3  0  0  0  0  0  0
  160.2350  211.4500  146.4130 C   0  0  0  0  0  2  0  0  0  0  0  0
  161.4280  212.0640  147.1590 C   0  0  1  0  0  3  0  0  0  0  0  0
  162.7710  213.9880  144.2280 O   0  0  0  0  0  1  0  0  0  0  0  0
  162.1740  213.1820  146.4020 C   0  0  2  0  0  3  0  0  0  0  0  0
  160.5280  213.1640  144.4830 C   0  0  2  0  0  3  0  0  0  0  0  0
  159.5590  212.3880  145.3990 C   0  0  2  0  0  3  0  0  0  0  0  0
  161.7640  214.4530  146.8170 O   0  0  0  0  0  1  0  0  0  0  0  0
  158.4790  213.2770  146.0230 C   0  0  0  0  0  0  0  0  0  0  0  0
  157.5270  213.5900  145.0700 F   0  0  0  0  0  0  0  0  0  0  0  0
  157.8600  212.6390  147.0800 F   0  0  0  0  0  0  0  0  0  0  0  0
  159.0470  214.4520  146.4810 F   0  0  0  0  0  0  0  0  0  0  0  0
  161.3870  211.8440  142.6890 F   0  0  0  0  0  0  0  0  0  0  0  0
  160.3590  212.7000  143.0450 C   0  0  0  0  0  2  0  0  0  0  0  0
  1  7  1  1  0  0  0
  1  3  1  0  0  0  0
  2  5  1  0  0  0  0
  3  4  1  0  0  0  0
  5  4  1  0  0  0  0
  6 26  1  6  0  0  0
  6  1  1  0  0  0  0
  6  2  1  0  0  0  0
  7  8  2  0  0  0  0
  9 10  2  0  0  0  0
 10  7  1  0  0  0  0
 11 12  1  0  0  0  0
 11 10  1  1  0  0  0
 12 17  2  0  0  0  0
 13 15  1  1  0  0  0
 14 19  1  0  0  0  0
 16 14  2  0  0  0  0
 16 12  1  0  0  0  0
 17 13  1  0  0  0  0
 19 18  2  0  0  0  0
 19 13  1  0  0  0  0
 20 21  1  0  0  0  0
 21 11  1  0  0  0  0
 22 25  1  0  0  0  0
 23 22  2  0  0  0  0
 23 24  1  0  0  0  0
 24 20  2  0  0  0  0
 25 21  2  0  0  0  0
 26 27  1  0  0  0  0
 28 27  1  0  0  0  0
 29 32  1  6  0  0  0
 29 33  1  0  0  0  0
 30 31  1  0  0  0  0
 31 28  1  1  0  0  0
 33 36  1  1  0  0  0
 33 31  1  0  0  0  0
 34 42  1  6  0  0  0
 34 29  1  0  0  0  0
 34 35  1  0  0  0  0
 35 37  1  1  0  0  0
 35 30  1  0  0  0  0
 37 40  1  0  0  0  0
 37 39  1  0  0  0  0
 38 37  1  0  0  0  0
 41 42  1  0  0  0  0
M  END
>  <MODEL>
2

>  <REMARK>
 VINA RESULT:      -7.8      4.981      7.439
  Name = 
  11 active torsions:
  status: ('A' for Active; 'I' for Inactive)
    1  A    between atoms: C_2  and  C_14
    2  A    between atoms: C_5  and  C_17
    3  A    between atoms: C_5  and  C_37
    4  A    between atoms: C_6  and  C_15
    5  A    between atoms: C_7  and  C_36
    6  A    between atoms: C_10  and  C_14
    7  A    between atoms: C_14  and  C_22
    8  A    between atoms: C_15  and  C_22
    9  A    between atoms: C_17  and  C_41
   10  A    between atoms: C_18  and  C_35
   11  A    between atoms: C_20  and  C_41
                            x       y       z     vdW  Elec       q    Type
                         _______ _______ _______ _____ _____    ______ ____

>  <TORSDO>
F 11

$$$$
=
 OpenBabel11072411213D

 42 45  0  0  1  0  0  0  0  0999 V2000
  161.2520  209.0510  153.7550 C   0  0  1  0  0  3  0  0  0  0  0  0
  160.9780  206.6560  154.4410 C   0  0  0  0  0  2  0  0  0  0  0  0
  160.8920  209.3470  155.2160 C   0  0  0  0  0  2  0  0  0  0  0  0
  159.7890  208.4140  155.7120 C   0  0  0  0  0  2  0  0  0  0  0  0
  160.1960  207.0000  155.6420 N   0  0  0  0  0  2  0  0  0  0  0  0
  160.8030  207.6570  153.2980 C   0  0  2  0  0  3  0  0  0  0  0  0
  160.7090  210.1100  152.8450 C   0  0  0  0  0  0  0  0  0  0  0  0
  160.8320  209.9880  151.5950 O   0  0  0  0  0  0  0  0  0  0  0  0
  160.6940  212.0290  154.2350 O   0  0  0  0  0  0  0  0  0  0  0  0
  160.0700  211.3070  153.4080 C   0  0  0  0  0  0  0  0  0  0  0  0
  158.6870  211.7000  152.9640 C   0  0  1  0  0  3  0  0  0  0  0  0
  157.7740  212.1110  154.1020 C   0  0  0  0  0  0  0  0  0  0  0  0
  156.2090  211.4560  155.9550 C   0  0  1  0  0  3  0  0  0  0  0  0
  156.4790  213.9040  155.1800 C   0  0  0  0  0  3  0  0  0  0  0  0
  155.0830  210.6400  155.8270 O   0  0  0  0  0  1  0  0  0  0  0  0
  157.4040  213.5330  154.2960 C   0  0  0  0  0  3  0  0  0  0  0  0
  157.1720  211.1600  154.8340 C   0  0  0  0  0  3  0  0  0  0  0  0
  154.8970  213.2700  156.8080 O   0  0  0  0  0  0  0  0  0  0  0  0
  155.7990  212.9030  156.0090 C   0  0  0  0  0  0  0  0  0  0  0  0
  157.6090  212.9160  151.0570 C   0  0  0  0  0  3  0  0  0  0  0  0
  158.7510  212.6800  151.8250 C   0  0  0  0  0  0  0  0  0  0  0  0
  159.9690  214.2120  150.4480 N   0  0  0  0  0  0  0  0  0  0  0  0
  158.8640  214.4530  149.6930 C   0  0  0  0  0  3  0  0  0  0  0  0
  157.6610  213.8070  149.9850 C   0  0  0  0  0  3  0  0  0  0  0  0
  159.9390  213.3470  151.4960 C   0  0  0  0  0  3  0  0  0  0  0  0
  161.6030  207.2260  152.0760 C   0  0  0  0  0  2  0  0  0  0  0  0
  160.8110  206.2460  151.2240 C   0  0  0  0  0  2  0  0  0  0  0  0
  161.1840  206.3660  149.7530 C   0  0  0  0  0  2  0  0  0  0  0  0
  160.5790  202.9370  148.0620 C   0  0  1  0  0  3  0  0  0  0  0  0
  160.4690  205.6790  147.4250 C   0  0  0  0  0  2  0  0  0  0  0  0
  160.4590  205.3160  148.9170 C   0  0  1  0  0  3  0  0  0  0  0  0
  160.8460  201.6150  148.4190 O   0  0  0  0  0  1  0  0  0  0  0  0
  160.8580  203.8620  149.2440 C   0  0  2  0  0  3  0  0  0  0  0  0
  161.4120  203.3320  146.8340 C   0  0  2  0  0  3  0  0  0  0  0  0
  161.4410  204.8510  146.5680 C   0  0  2  0  0  3  0  0  0  0  0  0
  162.1970  203.7670  149.6330 O   0  0  0  0  0  1  0  0  0  0  0  0
  162.8600  205.4280  146.5330 C   0  0  0  0  0  0  0  0  0  0  0  0
  162.9510  206.4910  147.4130 F   0  0  0  0  0  0  0  0  0  0  0  0
  163.7930  204.4730  146.8870 F   0  0  0  0  0  0  0  0  0  0  0  0
  163.1490  205.8840  145.2600 F   0  0  0  0  0  0  0  0  0  0  0  0
  160.3110  203.5030  144.7230 F   0  0  0  0  0  0  0  0  0  0  0  0
  160.8820  202.6050  145.6080 C   0  0  0  0  0  2  0  0  0  0  0  0
  1  7  1  6  0  0  0
  1  3  1  0  0  0  0
  2  5  1  0  0  0  0
  3  4  1  0  0  0  0
  5  4  1  0  0  0  0
  6 26  1  6  0  0  0
  6  1  1  0  0  0  0
  6  2  1  0  0  0  0
  7 10  1  0  0  0  0
  8  7  2  0  0  0  0
 10  9  2  0  0  0  0
 11 10  1  1  0  0  0
 11 12  1  0  0  0  0
 12 16  1  0  0  0  0
 12 17  2  0  0  0  0
 13 15  1  6  0  0  0
 13 19  1  0  0  0  0
 14 19  1  0  0  0  0
 16 14  2  0  0  0  0
 17 13  1  0  0  0  0
 19 18  2  0  0  0  0
 20 21  1  0  0  0  0
 21 11  1  0  0  0  0
 22 25  1  0  0  0  0
 23 24  1  0  0  0  0
 23 22  2  0  0  0  0
 24 20  2  0  0  0  0
 25 21  2  0  0  0  0
 27 26  1  0  0  0  0
 28 27  1  0  0  0  0
 29 32  1  1  0  0  0
 29 33  1  0  0  0  0
 30 31  1  0  0  0  0
 31 33  1  0  0  0  0
 31 28  1  1  0  0  0
 33 36  1  6  0  0  0
 34 42  1  6  0  0  0
 34 29  1  0  0  0  0
 35 37  1  1  0  0  0
 35 34  1  0  0  0  0
 35 30  1  0  0  0  0
 37 39  1  0  0  0  0
 37 38  1  0  0  0  0
 40 37  1  0  0  0  0
 41 42  1  0  0  0  0
M  END
>  <MODEL>
3

>  <REMARK>
 VINA RESULT:      -7.4      4.413     10.683
  Name = 
  11 active torsions:
  status: ('A' for Active; 'I' for Inactive)
    1  A    between atoms: C_2  and  C_14
    2  A    between atoms: C_5  and  C_17
    3  A    between atoms: C_5  and  C_37
    4  A    between atoms: C_6  and  C_15
    5  A    between atoms: C_7  and  C_36
    6  A    between atoms: C_10  and  C_14
    7  A    between atoms: C_14  and  C_22
    8  A    between atoms: C_15  and  C_22
    9  A    between atoms: C_17  and  C_41
   10  A    between atoms: C_18  and  C_35
   11  A    between atoms: C_20  and  C_41
                            x       y       z     vdW  Elec       q    Type
                         _______ _______ _______ _____ _____    ______ ____

>  <TORSDO>
F 11

$$$$
=
 OpenBabel11072411213D

 42 45  0  0  1  0  0  0  0  0999 V2000
  161.3520  208.9870  153.2070 C   0  0  1  0  0  3  0  0  0  0  0  0
  161.9310  206.7400  152.2600 C   0  0  0  0  0  2  0  0  0  0  0  0
  161.2160  208.2210  154.5290 C   0  0  0  0  0  2  0  0  0  0  0  0
  160.5550  206.8610  154.3110 C   0  0  0  0  0  2  0  0  0  0  0  0
  161.3350  206.0130  153.3950 N   0  0  0  0  0  2  0  0  0  0  0  0
  161.2500  208.0800  151.9750 C   0  0  2  0  0  3  0  0  0  0  0  0
  160.3550  210.1030  153.1310 C   0  0  0  0  0  0  0  0  0  0  0  0
  159.3620  210.0070  152.3580 O   0  0  0  0  0  0  0  0  0  0  0  0
  161.4740  211.3740  154.7900 O   0  0  0  0  0  0  0  0  0  0  0  0
  160.5550  211.3230  153.9250 C   0  0  0  0  0  0  0  0  0  0  0  0
  159.6920  212.5310  153.6780 C   0  0  1  0  0  3  0  0  0  0  0  0
  159.4000  212.7830  152.2120 C   0  0  0  0  0  0  0  0  0  0  0  0
  160.2410  213.3320  149.9090 C   0  0  1  0  0  3  0  0  0  0  0  0
  157.7260  213.3270  150.4930 C   0  0  0  0  0  3  0  0  0  0  0  0
  161.0350  214.4280  149.5670 O   0  0  0  0  0  1  0  0  0  0  0  0
  158.0050  212.9440  151.7380 C   0  0  0  0  0  3  0  0  0  0  0  0
  160.4210  213.0220  151.3730 C   0  0  0  0  0  3  0  0  0  0  0  0
  158.5220  213.9960  148.3780 O   0  0  0  0  0  0  0  0  0  0  0  0
  158.8070  213.5920  149.5370 C   0  0  0  0  0  0  0  0  0  0  0  0
  157.9200  211.2850  154.9370 C   0  0  0  0  0  3  0  0  0  0  0  0
  158.4780  212.5100  154.5650 C   0  0  0  0  0  0  0  0  0  0  0  0
  156.7650  213.6400  155.7950 N   0  0  0  0  0  0  0  0  0  0  0  0
  156.2120  212.4550  156.1670 C   0  0  0  0  0  3  0  0  0  0  0  0
  156.7820  211.2520  155.7420 C   0  0  0  0  0  3  0  0  0  0  0  0
  157.8730  213.6930  155.0090 C   0  0  0  0  0  3  0  0  0  0  0  0
  161.8840  208.7630  150.7700 C   0  0  0  0  0  2  0  0  0  0  0  0
  162.3620  207.7380  149.7520 C   0  0  0  0  0  2  0  0  0  0  0  0
  161.5200  207.7870  148.4840 C   0  0  0  0  0  2  0  0  0  0  0  0
  161.3080  205.0840  145.7220 C   0  0  1  0  0  3  0  0  0  0  0  0
  162.6930  205.5740  148.1250 C   0  0  0  0  0  2  0  0  0  0  0  0
  162.0270  206.7830  147.4530 C   0  0  1  0  0  3  0  0  0  0  0  0
  160.4390  204.8470  144.6550 O   0  0  0  0  0  1  0  0  0  0  0  0
  161.0070  206.4430  146.3470 C   0  0  2  0  0  3  0  0  0  0  0  0
  161.1930  203.9550  146.7560 C   0  0  2  0  0  3  0  0  0  0  0  0
  161.8530  204.2860  148.1110 C   0  0  2  0  0  3  0  0  0  0  0  0
  159.6930  206.4810  146.8240 O   0  0  0  0  0  1  0  0  0  0  0  0
  160.8850  204.1820  149.2930 C   0  0  0  0  0  0  0  0  0  0  0  0
  161.6010  204.0830  150.4720 F   0  0  0  0  0  0  0  0  0  0  0  0
  160.0620  205.2890  149.3610 F   0  0  0  0  0  0  0  0  0  0  0  0
  160.1010  203.0500  149.1580 F   0  0  0  0  0  0  0  0  0  0  0  0
  161.2650  201.5700  146.8120 F   0  0  0  0  0  0  0  0  0  0  0  0
  161.8000  202.6820  146.1860 C   0  0  0  0  0  2  0  0  0  0  0  0
  1  7  1  6  0  0  0
  1  3  1  0  0  0  0
  2  5  1  0  0  0  0
  4  3  1  0  0  0  0
  5  4  1  0  0  0  0
  6 26  1  6  0  0  0
  6  2  1  0  0  0  0
  6  1  1  0  0  0  0
  7 10  1  0  0  0  0
  8  7  2  0  0  0  0
 10  9  2  0  0  0  0
 11 10  1  6  0  0  0
 11 21  1  0  0  0  0
 12 11  1  0  0  0  0
 13 15  1  1  0  0  0
 13 17  1  0  0  0  0
 14 16  2  0  0  0  0
 16 12  1  0  0  0  0
 17 12  2  0  0  0  0
 18 19  2  0  0  0  0
 19 13  1  0  0  0  0
 19 14  1  0  0  0  0
 20 24  1  0  0  0  0
 21 20  2  0  0  0  0
 21 25  1  0  0  0  0
 22 23  1  0  0  0  0
 24 23  2  0  0  0  0
 25 22  2  0  0  0  0
 27 26  1  0  0  0  0
 28 27  1  0  0  0  0
 29 32  1  6  0  0  0
 29 33  1  0  0  0  0
 29 34  1  0  0  0  0
 31 30  1  0  0  0  0
 31 28  1  1  0  0  0
 33 36  1  1  0  0  0
 33 31  1  0  0  0  0
 34 42  1  6  0  0  0
 34 35  1  0  0  0  0
 35 30  1  0  0  0  0
 35 37  1  1  0  0  0
 37 39  1  0  0  0  0
 37 38  1  0  0  0  0
 40 37  1  0  0  0  0
 42 41  1  0  0  0  0
M  END
>  <MODEL>
4

>  <REMARK>
 VINA RESULT:      -7.4      3.984      9.787
  Name = 
  11 active torsions:
  status: ('A' for Active; 'I' for Inactive)
    1  A    between atoms: C_2  and  C_14
    2  A    between atoms: C_5  and  C_17
    3  A    between atoms: C_5  and  C_37
    4  A    between atoms: C_6  and  C_15
    5  A    between atoms: C_7  and  C_36
    6  A    between atoms: C_10  and  C_14
    7  A    between atoms: C_14  and  C_22
    8  A    between atoms: C_15  and  C_22
    9  A    between atoms: C_17  and  C_41
   10  A    between atoms: C_18  and  C_35
   11  A    between atoms: C_20  and  C_41
                            x       y       z     vdW  Elec       q    Type
                         _______ _______ _______ _____ _____    ______ ____

>  <TORSDO>
F 11

$$$$
=
 OpenBabel11072411213D

 42 45  0  0  1  0  0  0  0  0999 V2000
  161.4970  209.4770  153.5500 C   0  0  1  0  0  3  0  0  0  0  0  0
  161.1790  207.1920  154.5300 C   0  0  0  0  0  2  0  0  0  0  0  0
  161.0660  209.9620  154.9400 C   0  0  0  0  0  2  0  0  0  0  0  0
  159.9350  209.0980  155.4980 C   0  0  0  0  0  2  0  0  0  0  0  0
  160.3390  207.6890  155.6340 N   0  0  0  0  0  2  0  0  0  0  0  0
  161.0660  208.0350  153.2570 C   0  0  2  0  0  3  0  0  0  0  0  0
  161.0050  210.4070  152.4830 C   0  0  0  0  0  0  0  0  0  0  0  0
  161.6920  210.5860  151.4400 O   0  0  0  0  0  0  0  0  0  0  0  0
  158.6670  210.5080  152.8590 O   0  0  0  0  0  0  0  0  0  0  0  0
  159.7440  211.1390  152.6690 C   0  0  0  0  0  0  0  0  0  0  0  0
  159.7430  212.6430  152.6800 C   0  0  1  0  0  3  0  0  0  0  0  0
  159.3700  213.2630  151.3480 C   0  0  0  0  0  0  0  0  0  0  0  0
  157.6040  213.8390  149.6560 C   0  0  1  0  0  3  0  0  0  0  0  0
  160.1260  214.0650  149.1480 C   0  0  0  0  0  3  0  0  0  0  0  0
  156.6960  212.9470  149.0850 O   0  0  0  0  0  1  0  0  0  0  0  0
  160.4210  213.6710  150.3860 C   0  0  0  0  0  3  0  0  0  0  0  0
  158.0800  213.2910  150.9770 C   0  0  0  0  0  3  0  0  0  0  0  0
  158.4760  214.4530  147.5110 O   0  0  0  0  0  0  0  0  0  0  0  0
  158.7300  214.1200  148.6980 C   0  0  0  0  0  0  0  0  0  0  0  0
  159.4890  213.0240  155.1430 C   0  0  0  0  0  3  0  0  0  0  0  0
  158.9660  213.1670  153.8560 C   0  0  0  0  0  0  0  0  0  0  0  0
  157.0280  214.2220  154.7820 N   0  0  0  0  0  0  0  0  0  0  0  0
  157.5250  214.0910  156.0400 C   0  0  0  0  0  3  0  0  0  0  0  0
  158.7680  213.4880  156.2440 C   0  0  0  0  0  3  0  0  0  0  0  0
  157.7140  213.7750  153.6960 C   0  0  0  0  0  3  0  0  0  0  0  0
  161.9240  207.4500  152.1440 C   0  0  0  0  0  2  0  0  0  0  0  0
  161.1860  206.3360  151.4150 C   0  0  0  0  0  2  0  0  0  0  0  0
  161.1520  206.5880  149.9140 C   0  0  0  0  0  2  0  0  0  0  0  0
  160.6410  203.0300  148.4760 C   0  0  1  0  0  3  0  0  0  0  0  0
  160.3590  205.7160  147.6750 C   0  0  0  0  0  2  0  0  0  0  0  0
  160.4420  205.4510  149.1850 C   0  0  1  0  0  3  0  0  0  0  0  0
  160.9940  201.7480  148.9000 O   0  0  0  0  0  1  0  0  0  0  0  0
  160.9310  204.0430  149.5810 C   0  0  2  0  0  3  0  0  0  0  0  0
  161.3900  203.3840  147.1840 C   0  0  2  0  0  3  0  0  0  0  0  0
  161.3280  204.8820  146.8210 C   0  0  2  0  0  3  0  0  0  0  0  0
  162.2910  204.0380  149.9030 O   0  0  0  0  0  1  0  0  0  0  0  0
  162.7110  205.5240  146.6750 C   0  0  0  0  0  0  0  0  0  0  0  0
  162.8990  205.9290  145.3660 F   0  0  0  0  0  0  0  0  0  0  0  0
  162.8410  206.6190  147.5060 F   0  0  0  0  0  0  0  0  0  0  0  0
  163.6920  204.6010  146.9950 F   0  0  0  0  0  0  0  0  0  0  0  0
  160.7360  203.3210  144.8890 F   0  0  0  0  0  0  0  0  0  0  0  0
  160.8380  202.5530  146.0360 C   0  0  0  0  0  2  0  0  0  0  0  0
  1  7  1  6  0  0  0
  1  3  1  0  0  0  0
  2  5  1  0  0  0  0
  3  4  1  0  0  0  0
  4  5  1  0  0  0  0
  6 26  1  6  0  0  0
  6  1  1  0  0  0  0
  6  2  1  0  0  0  0
  7 10  1  0  0  0  0
  8  7  2  0  0  0  0
 10  9  2  0  0  0  0
 11 10  1  6  0  0  0
 11 21  1  0  0  0  0
 12 11  1  0  0  0  0
 13 15  1  6  0  0  0
 13 17  1  0  0  0  0
 14 16  2  0  0  0  0
 16 12  1  0  0  0  0
 17 12  2  0  0  0  0
 18 19  2  0  0  0  0
 19 14  1  0  0  0  0
 19 13  1  0  0  0  0
 20 24  1  0  0  0  0
 21 20  2  0  0  0  0
 22 23  1  0  0  0  0
 23 24  2  0  0  0  0
 25 21  1  0  0  0  0
 25 22  2  0  0  0  0
 27 26  1  0  0  0  0
 28 27  1  0  0  0  0
 29 32  1  1  0  0  0
 29 33  1  0  0  0  0
 30 31  1  0  0  0  0
 31 33  1  0  0  0  0
 31 28  1  1  0  0  0
 33 36  1  6  0  0  0
 34 42  1  6  0  0  0
 34 29  1  0  0  0  0
 35 37  1  1  0  0  0
 35 34  1  0  0  0  0
 35 30  1  0  0  0  0
 37 40  1  0  0  0  0
 37 39  1  0  0  0  0
 38 37  1  0  0  0  0
 41 42  1  0  0  0  0
M  END
>  <MODEL>
5

>  <REMARK>
 VINA RESULT:      -7.3      4.620     10.007
  Name = 
  11 active torsions:
  status: ('A' for Active; 'I' for Inactive)
    1  A    between atoms: C_2  and  C_14
    2  A    between atoms: C_5  and  C_17
    3  A    between atoms: C_5  and  C_37
    4  A    between atoms: C_6  and  C_15
    5  A    between atoms: C_7  and  C_36
    6  A    between atoms: C_10  and  C_14
    7  A    between atoms: C_14  and  C_22
    8  A    between atoms: C_15  and  C_22
    9  A    between atoms: C_17  and  C_41
   10  A    between atoms: C_18  and  C_35
   11  A    between atoms: C_20  and  C_41
                            x       y       z     vdW  Elec       q    Type
                         _______ _______ _______ _____ _____    ______ ____

>  <TORSDO>
F 11

$$$$
=
 OpenBabel11072411213D

 42 45  0  0  1  0  0  0  0  0999 V2000
  162.2170  211.6680  149.0150 C   0  0  1  0  0  3  0  0  0  0  0  0
  161.3120  214.0050  149.0370 C   0  0  0  0  0  2  0  0  0  0  0  0
  163.0880  212.1830  147.8630 C   0  0  0  0  0  2  0  0  0  0  0  0
  162.2960  213.1160  146.9490 C   0  0  0  0  0  2  0  0  0  0  0  0
  161.7920  214.2950  147.6740 N   0  0  0  0  0  2  0  0  0  0  0  0
  160.9720  212.5300  149.2580 C   0  0  2  0  0  3  0  0  0  0  0  0
  161.8380  210.2340  148.8010 C   0  0  0  0  0  0  0  0  0  0  0  0
  161.2060  209.9000  147.7610 O   0  0  0  0  0  0  0  0  0  0  0  0
  163.2410  209.3170  150.4770 O   0  0  0  0  0  0  0  0  0  0  0  0
  162.1670  209.2260  149.8170 C   0  0  0  0  0  0  0  0  0  0  0  0
  161.2030  208.1080  150.1070 C   0  0  1  0  0  3  0  0  0  0  0  0
  161.4430  206.8640  149.2760 C   0  0  0  0  0  0  0  0  0  0  0  0
  162.3360  205.8110  147.1760 C   0  0  1  0  0  3  0  0  0  0  0  0
  160.8790  204.5040  148.8600 C   0  0  0  0  0  3  0  0  0  0  0  0
  162.0080  206.1810  145.8710 O   0  0  0  0  0  1  0  0  0  0  0  0
  160.8220  205.5720  149.6550 C   0  0  0  0  0  3  0  0  0  0  0  0
  162.0880  206.9740  148.1030 C   0  0  0  0  0  3  0  0  0  0  0  0
  161.5840  203.5660  146.8170 O   0  0  0  0  0  0  0  0  0  0  0  0
  161.5790  204.5730  147.5720 C   0  0  0  0  0  0  0  0  0  0  0  0
  161.4140  206.6020  152.0990 C   0  0  0  0  0  3  0  0  0  0  0  0
  161.1000  207.8630  151.5870 C   0  0  0  0  0  0  0  0  0  0  0  0
  160.5680  208.6060  153.7990 N   0  0  0  0  0  0  0  0  0  0  0  0
  160.8720  207.3840  154.3120 C   0  0  0  0  0  3  0  0  0  0  0  0
  161.3020  206.3570  153.4670 C   0  0  0  0  0  3  0  0  0  0  0  0
  160.6690  208.8650  152.4680 C   0  0  0  0  0  3  0  0  0  0  0  0
  160.4460  212.3030  150.6690 C   0  0  0  0  0  2  0  0  0  0  0  0
  159.7480  213.5470  151.1970 C   0  0  0  0  0  2  0  0  0  0  0  0
  159.4460  213.4200  152.6840 C   0  0  0  0  0  2  0  0  0  0  0  0
  156.0280  212.8880  154.4210 C   0  0  1  0  0  3  0  0  0  0  0  0
  158.1360  211.3590  153.3470 C   0  0  0  0  0  2  0  0  0  0  0  0
  158.0570  212.8290  152.9110 C   0  0  1  0  0  3  0  0  0  0  0  0
  155.1350  213.7250  155.0910 O   0  0  0  0  0  1  0  0  0  0  0  0
  157.1230  213.7180  153.7570 C   0  0  2  0  0  3  0  0  0  0  0  0
  156.6190  211.8590  155.3950 C   0  0  2  0  0  3  0  0  0  0  0  0
  157.8490  211.1140  154.8380 C   0  0  2  0  0  3  0  0  0  0  0  0
  157.8300  214.4490  154.7160 O   0  0  0  0  0  1  0  0  0  0  0  0
  159.0910  211.2540  155.7240 C   0  0  0  0  0  0  0  0  0  0  0  0
  158.8900  212.2640  156.6470 F   0  0  0  0  0  0  0  0  0  0  0  0
  159.3560  210.0780  156.3980 F   0  0  0  0  0  0  0  0  0  0  0  0
  160.1870  211.5810  154.9460 F   0  0  0  0  0  0  0  0  0  0  0  0
  155.3000  209.9780  154.7460 F   0  0  0  0  0  0  0  0  0  0  0  0
  155.5440  210.8570  155.7870 C   0  0  0  0  0  2  0  0  0  0  0  0
  1  7  1  6  0  0  0
  1  6  1  0  0  0  0
  2  6  1  0  0  0  0
  3  1  1  0  0  0  0
  4  5  1  0  0  0  0
  4  3  1  0  0  0  0
  5  2  1  0  0  0  0
  6 26  1  1  0  0  0
  7 10  1  0  0  0  0
  8  7  2  0  0  0  0
 10  9  2  0  0  0  0
 11 10  1  1  0  0  0
 11 21  1  0  0  0  0
 12 16  1  0  0  0  0
 12 11  1  0  0  0  0
 13 15  1  6  0  0  0
 13 19  1  0  0  0  0
 13 17  1  0  0  0  0
 14 16  2  0  0  0  0
 17 12  2  0  0  0  0
 18 19  2  0  0  0  0
 19 14  1  0  0  0  0
 20 24  1  0  0  0  0
 21 20  2  0  0  0  0
 21 25  1  0  0  0  0
 22 23  1  0  0  0  0
 24 23  2  0  0  0  0
 25 22  2  0  0  0  0
 26 27  1  0  0  0  0
 27 28  1  0  0  0  0
 29 32  1  1  0  0  0
 29 34  1  0  0  0  0
 30 35  1  0  0  0  0
 31 28  1  1  0  0  0
 31 30  1  0  0  0  0
 31 33  1  0  0  0  0
 33 29  1  0  0  0  0
 33 36  1  1  0  0  0
 34 42  1  6  0  0  0
 35 34  1  0  0  0  0
 35 37  1  1  0  0  0
 37 39  1  0  0  0  0
 37 38  1  0  0  0  0
 40 37  1  0  0  0  0
 41 42  1  0  0  0  0
M  END
>  <MODEL>
6

>  <REMARK>
 VINA RESULT:      -7.2      2.798      4.325
  Name = 
  11 active torsions:
  status: ('A' for Active; 'I' for Inactive)
    1  A    between atoms: C_2  and  C_14
    2  A    between atoms: C_5  and  C_17
    3  A    between atoms: C_5  and  C_37
    4  A    between atoms: C_6  and  C_15
    5  A    between atoms: C_7  and  C_36
    6  A    between atoms: C_10  and  C_14
    7  A    between atoms: C_14  and  C_22
    8  A    between atoms: C_15  and  C_22
    9  A    between atoms: C_17  and  C_41
   10  A    between atoms: C_18  and  C_35
   11  A    between atoms: C_20  and  C_41
                            x       y       z     vdW  Elec       q    Type
                         _______ _______ _______ _____ _____    ______ ____

>  <TORSDO>
F 11

$$$$
=
 OpenBabel11072411213D

 42 45  0  0  1  0  0  0  0  0999 V2000
  160.2140  210.4750  154.6170 C   0  0  1  0  0  3  0  0  0  0  0  0
  161.0420  208.1760  154.0590 C   0  0  0  0  0  2  0  0  0  0  0  0
  160.2100  209.9540  156.0600 C   0  0  0  0  0  2  0  0  0  0  0  0
  159.7170  208.5090  156.1210 C   0  0  0  0  0  2  0  0  0  0  0  0
  160.5710  207.6050  155.3340 N   0  0  0  0  0  2  0  0  0  0  0  0
  160.1910  209.3520  153.5730 C   0  0  2  0  0  3  0  0  0  0  0  0
  159.0840  211.4330  154.3920 C   0  0  0  0  0  0  0  0  0  0  0  0
  157.9960  211.0190  153.9070 O   0  0  0  0  0  0  0  0  0  0  0  0
  160.0870  213.2230  155.5800 O   0  0  0  0  0  0  0  0  0  0  0  0
  159.2580  212.8600  154.6990 C   0  0  0  0  0  0  0  0  0  0  0  0
  158.4810  213.8940  153.9300 C   0  0  1  0  0  3  0  0  0  0  0  0
  158.5180  213.6940  152.4290 C   0  0  0  0  0  0  0  0  0  0  0  0
  159.8550  213.3240  150.3340 C   0  0  1  0  0  3  0  0  0  0  0  0
  157.3370  213.8950  150.2790 C   0  0  0  0  0  3  0  0  0  0  0  0
  160.9180  214.1130  149.8910 O   0  0  0  0  0  1  0  0  0  0  0  0
  157.3000  213.9020  151.6100 C   0  0  0  0  0  3  0  0  0  0  0  0
  159.6990  213.4860  151.8240 C   0  0  0  0  0  3  0  0  0  0  0  0
  158.6240  213.7040  148.3140 O   0  0  0  0  0  0  0  0  0  0  0  0
  158.6030  213.6640  149.5720 C   0  0  0  0  0  0  0  0  0  0  0  0
  156.9570  214.3140  155.8740 C   0  0  0  0  0  3  0  0  0  0  0  0
  157.1030  214.0640  154.5080 C   0  0  0  0  0  0  0  0  0  0  0  0
  154.7220  214.0910  154.2690 N   0  0  0  0  0  0  0  0  0  0  0  0
  154.5650  214.3370  155.5970 C   0  0  0  0  0  3  0  0  0  0  0  0
  155.6840  214.4530  156.4260 C   0  0  0  0  0  3  0  0  0  0  0  0
  155.9550  213.9510  153.7130 C   0  0  0  0  0  3  0  0  0  0  0  0
  160.7020  209.8710  152.2360 C   0  0  0  0  0  2  0  0  0  0  0  0
  161.8470  209.0130  151.7200 C   0  0  0  0  0  2  0  0  0  0  0  0
  161.5100  208.3980  150.3690 C   0  0  0  0  0  2  0  0  0  0  0  0
  161.2380  204.5760  150.9140 C   0  0  1  0  0  3  0  0  0  0  0  0
  160.1800  206.5710  149.2310 C   0  0  0  0  0  2  0  0  0  0  0  0
  160.8270  207.0440  150.5400 C   0  0  1  0  0  3  0  0  0  0  0  0
  161.9580  203.6450  151.6650 O   0  0  0  0  0  1  0  0  0  0  0  0
  161.6870  205.9910  151.2680 C   0  0  2  0  0  3  0  0  0  0  0  0
  161.4120  204.2920  149.4150 C   0  0  2  0  0  3  0  0  0  0  0  0
  160.9390  205.4460  148.5070 C   0  0  2  0  0  3  0  0  0  0  0  0
  163.0490  206.1530  150.9950 O   0  0  0  0  0  1  0  0  0  0  0  0
  162.0340  205.9610  147.5680 C   0  0  0  0  0  0  0  0  0  0  0  0
  161.4560  206.5320  146.4490 F   0  0  0  0  0  0  0  0  0  0  0  0
  162.8220  206.9070  148.1960 F   0  0  0  0  0  0  0  0  0  0  0  0
  162.8360  204.9100  147.1630 F   0  0  0  0  0  0  0  0  0  0  0  0
  161.0570  202.5720  147.7990 F   0  0  0  0  0  0  0  0  0  0  0  0
  160.6720  203.0150  149.0520 C   0  0  0  0  0  2  0  0  0  0  0  0
  1  7  1  1  0  0  0
  1  3  1  0  0  0  0
  2  5  1  0  0  0  0
  3  4  1  0  0  0  0
  5  4  1  0  0  0  0
  6 26  1  6  0  0  0
  6  2  1  0  0  0  0
  6  1  1  0  0  0  0
  7 10  1  0  0  0  0
  8  7  2  0  0  0  0
 10  9  2  0  0  0  0
 11 21  1  0  0  0  0
 11 10  1  1  0  0  0
 12 11  1  0  0  0  0
 13 15  1  6  0  0  0
 13 17  1  0  0  0  0
 14 16  2  0  0  0  0
 16 12  1  0  0  0  0
 17 12  2  0  0  0  0
 18 19  2  0  0  0  0
 19 14  1  0  0  0  0
 19 13  1  0  0  0  0
 20 24  1  0  0  0  0
 21 20  2  0  0  0  0
 22 23  1  0  0  0  0
 23 24  2  0  0  0  0
 25 22  2  0  0  0  0
 25 21  1  0  0  0  0
 27 26  1  0  0  0  0
 28 27  1  0  0  0  0
 29 33  1  0  0  0  0
 29 32  1  1  0  0  0
 30 31  1  0  0  0  0
 31 28  1  6  0  0  0
 31 33  1  0  0  0  0
 33 36  1  6  0  0  0
 34 42  1  6  0  0  0
 34 29  1  0  0  0  0
 35 37  1  1  0  0  0
 35 30  1  0  0  0  0
 35 34  1  0  0  0  0
 37 39  1  0  0  0  0
 38 37  1  0  0  0  0
 40 37  1  0  0  0  0
 41 42  1  0  0  0  0
M  END
>  <MODEL>
7

>  <REMARK>
 VINA RESULT:      -7.2      4.242      9.808
  Name = 
  11 active torsions:
  status: ('A' for Active; 'I' for Inactive)
    1  A    between atoms: C_2  and  C_14
    2  A    between atoms: C_5  and  C_17
    3  A    between atoms: C_5  and  C_37
    4  A    between atoms: C_6  and  C_15
    5  A    between atoms: C_7  and  C_36
    6  A    between atoms: C_10  and  C_14
    7  A    between atoms: C_14  and  C_22
    8  A    between atoms: C_15  and  C_22
    9  A    between atoms: C_17  and  C_41
   10  A    between atoms: C_18  and  C_35
   11  A    between atoms: C_20  and  C_41
                            x       y       z     vdW  Elec       q    Type
                         _______ _______ _______ _____ _____    ______ ____

>  <TORSDO>
F 11

$$$$
=
 OpenBabel11072411213D

 42 45  0  0  1  0  0  0  0  0999 V2000
  160.9440  209.3580  153.7760 C   0  0  1  0  0  3  0  0  0  0  0  0
  161.4370  206.9780  153.1610 C   0  0  0  0  0  2  0  0  0  0  0  0
  160.8520  208.8050  155.2040 C   0  0  0  0  0  2  0  0  0  0  0  0
  160.1550  207.4460  155.2240 C   0  0  0  0  0  2  0  0  0  0  0  0
  160.8770  206.4480  154.4170 N   0  0  0  0  0  2  0  0  0  0  0  0
  160.7700  208.2770  152.7020 C   0  0  2  0  0  3  0  0  0  0  0  0
  159.9670  210.4750  153.5710 C   0  0  0  0  0  0  0  0  0  0  0  0
  159.0250  210.3410  152.7420 O   0  0  0  0  0  0  0  0  0  0  0  0
  161.0180  211.8450  155.1950 O   0  0  0  0  0  0  0  0  0  0  0  0
  160.1290  211.7380  154.3050 C   0  0  0  0  0  0  0  0  0  0  0  0
  159.2640  212.9210  153.9640 C   0  0  1  0  0  3  0  0  0  0  0  0
  159.0140  213.0880  152.4790 C   0  0  0  0  0  0  0  0  0  0  0  0
  159.9300  213.3610  150.1550 C   0  0  1  0  0  3  0  0  0  0  0  0
  157.4240  213.6740  150.6940 C   0  0  0  0  0  3  0  0  0  0  0  0
  160.8420  214.3340  149.7430 O   0  0  0  0  0  1  0  0  0  0  0  0
  157.6500  213.3610  151.9690 C   0  0  0  0  0  3  0  0  0  0  0  0
  160.0630  213.1480  151.6410 C   0  0  0  0  0  3  0  0  0  0  0  0
  158.3070  214.0840  148.5480 O   0  0  0  0  0  0  0  0  0  0  0  0
  158.5360  213.7450  149.7390 C   0  0  0  0  0  0  0  0  0  0  0  0
  157.3330  211.7470  155.0440 C   0  0  0  0  0  3  0  0  0  0  0  0
  158.0240  212.9380  154.8150 C   0  0  0  0  0  0  0  0  0  0  0  0
  156.3930  214.1120  156.1140 N   0  0  0  0  0  0  0  0  0  0  0  0
  155.7110  212.9590  156.3480 C   0  0  0  0  0  3  0  0  0  0  0  0
  156.1700  211.7520  155.8150 C   0  0  0  0  0  3  0  0  0  0  0  0
  157.5280  214.1270  155.3650 C   0  0  0  0  0  3  0  0  0  0  0  0
  161.3630  208.7520  151.3830 C   0  0  0  0  0  2  0  0  0  0  0  0
  161.8550  207.5760  150.5520 C   0  0  0  0  0  2  0  0  0  0  0  0
  161.2040  207.5630  149.1760 C   0  0  0  0  0  2  0  0  0  0  0  0
  160.6650  203.7300  149.1590 C   0  0  1  0  0  3  0  0  0  0  0  0
  160.3830  205.9320  147.4240 C   0  0  0  0  0  2  0  0  0  0  0  0
  160.4810  206.2430  148.9250 C   0  0  1  0  0  3  0  0  0  0  0  0
  161.0180  202.6930  150.0230 O   0  0  0  0  0  1  0  0  0  0  0  0
  160.9700  205.0770  149.8080 C   0  0  2  0  0  3  0  0  0  0  0  0
  161.4010  203.5760  147.8200 C   0  0  2  0  0  3  0  0  0  0  0  0
  161.3400  204.8350  146.9300 C   0  0  2  0  0  3  0  0  0  0  0  0
  162.3340  205.1820  150.0970 O   0  0  0  0  0  1  0  0  0  0  0  0
  162.7230  205.3670  146.5450 C   0  0  0  0  0  0  0  0  0  0  0  0
  163.6410  204.3330  146.5680 F   0  0  0  0  0  0  0  0  0  0  0  0
  162.7070  205.9220  145.2800 F   0  0  0  0  0  0  0  0  0  0  0  0
  163.1240  206.3320  147.4510 F   0  0  0  0  0  0  0  0  0  0  0  0
  160.9680  202.5680  145.7000 F   0  0  0  0  0  0  0  0  0  0  0  0
  160.8330  202.3840  147.0650 C   0  0  0  0  0  2  0  0  0  0  0  0
  1  7  1  6  0  0  0
  1  3  1  0  0  0  0
  2  5  1  0  0  0  0
  3  4  1  0  0  0  0
  5  4  1  0  0  0  0
  6 26  1  6  0  0  0
  6  2  1  0  0  0  0
  6  1  1  0  0  0  0
  7 10  1  0  0  0  0
  8  7  2  0  0  0  0
 10  9  2  0  0  0  0
 11 10  1  6  0  0  0
 11 21  1  0  0  0  0
 12 11  1  0  0  0  0
 13 15  1  1  0  0  0
 13 17  1  0  0  0  0
 14 16  2  0  0  0  0
 16 12  1  0  0  0  0
 17 12  2  0  0  0  0
 18 19  2  0  0  0  0
 19 13  1  0  0  0  0
 19 14  1  0  0  0  0
 20 24  1  0  0  0  0
 21 20  2  0  0  0  0
 21 25  1  0  0  0  0
 22 23  1  0  0  0  0
 24 23  2  0  0  0  0
 25 22  2  0  0  0  0
 27 26  1  0  0  0  0
 28 27  1  0  0  0  0
 29 33  1  0  0  0  0
 29 32  1  1  0  0  0
 30 31  1  0  0  0  0
 31 28  1  6  0  0  0
 31 33  1  0  0  0  0
 33 36  1  6  0  0  0
 34 42  1  6  0  0  0
 34 29  1  0  0  0  0
 35 37  1  1  0  0  0
 35 30  1  0  0  0  0
 35 34  1  0  0  0  0
 37 38  1  0  0  0  0
 37 40  1  0  0  0  0
 39 37  1  0  0  0  0
 41 42  1  0  0  0  0
M  END
>  <MODEL>
8

>  <REMARK>
 VINA RESULT:      -7.2      4.461      9.988
  Name = 
  11 active torsions:
  status: ('A' for Active; 'I' for Inactive)
    1  A    between atoms: C_2  and  C_14
    2  A    between atoms: C_5  and  C_17
    3  A    between atoms: C_5  and  C_37
    4  A    between atoms: C_6  and  C_15
    5  A    between atoms: C_7  and  C_36
    6  A    between atoms: C_10  and  C_14
    7  A    between atoms: C_14  and  C_22
    8  A    between atoms: C_15  and  C_22
    9  A    between atoms: C_17  and  C_41
   10  A    between atoms: C_18  and  C_35
   11  A    between atoms: C_20  and  C_41
                            x       y       z     vdW  Elec       q    Type
                         _______ _______ _______ _____ _____    ______ ____

>  <TORSDO>
F 11

$$$$
=
 OpenBabel11072411213D

 42 45  0  0  1  0  0  0  0  0999 V2000
  160.6810  210.6380  154.6280 C   0  0  1  0  0  3  0  0  0  0  0  0
  161.4960  208.6740  155.9550 C   0  0  0  0  0  2  0  0  0  0  0  0
  160.3900  211.2480  156.0050 C   0  0  0  0  0  2  0  0  0  0  0  0
  159.8300  210.1980  156.9650 C   0  0  0  0  0  2  0  0  0  0  0  0
  160.7750  209.0880  157.1720 N   0  0  0  0  0  2  0  0  0  0  0  0
  160.8010  209.1100  154.6620 C   0  0  2  0  0  3  0  0  0  0  0  0
  159.6550  211.0690  153.6250 C   0  0  0  0  0  0  0  0  0  0  0  0
  158.4440  210.7550  153.7890 O   0  0  0  0  0  0  0  0  0  0  0  0
  160.7500  211.2610  151.5310 O   0  0  0  0  0  0  0  0  0  0  0  0
  160.0640  211.8220  152.4310 C   0  0  0  0  0  0  0  0  0  0  0  0
  159.6280  213.2510  152.2580 C   0  0  1  0  0  3  0  0  0  0  0  0
  159.3520  213.6360  150.8180 C   0  0  0  0  0  0  0  0  0  0  0  0
  157.7750  213.6820  148.8630 C   0  0  1  0  0  3  0  0  0  0  0  0
  160.2710  214.3030  148.6350 C   0  0  0  0  0  3  0  0  0  0  0  0
  157.1160  212.5800  148.3150 O   0  0  0  0  0  1  0  0  0  0  0  0
  160.4470  214.1140  149.9420 C   0  0  0  0  0  3  0  0  0  0  0  0
  158.1410  213.3860  150.2950 C   0  0  0  0  0  3  0  0  0  0  0  0
  158.8300  214.1930  146.7740 O   0  0  0  0  0  0  0  0  0  0  0  0
  158.9640  214.0510  148.0180 C   0  0  0  0  0  0  0  0  0  0  0  0
  158.8440  214.1310  154.4700 C   0  0  0  0  0  3  0  0  0  0  0  0
  158.5240  213.5920  153.2210 C   0  0  0  0  0  0  0  0  0  0  0  0
  156.2060  213.6590  153.8100 N   0  0  0  0  0  0  0  0  0  0  0  0
  156.5020  214.1860  155.0270 C   0  0  0  0  0  3  0  0  0  0  0  0
  157.8310  214.4320  155.3800 C   0  0  0  0  0  3  0  0  0  0  0  0
  157.1780  213.3580  152.9090 C   0  0  0  0  0  3  0  0  0  0  0  0
  161.5710  208.6190  153.4440 C   0  0  0  0  0  2  0  0  0  0  0  0
  160.6530  207.8870  152.4770 C   0  0  0  0  0  2  0  0  0  0  0  0
  161.0160  206.4120  152.3820 C   0  0  0  0  0  2  0  0  0  0  0  0
  161.0040  204.3560  149.1020 C   0  0  1  0  0  3  0  0  0  0  0  0
  160.1260  206.8570  150.0560 C   0  0  0  0  0  2  0  0  0  0  0  0
  160.4450  205.7890  151.1120 C   0  0  1  0  0  3  0  0  0  0  0  0
  161.6410  203.1870  148.6830 O   0  0  0  0  0  1  0  0  0  0  0  0
  161.2350  204.5680  150.5960 C   0  0  2  0  0  3  0  0  0  0  0  0
  161.5070  205.5530  148.2840 C   0  0  2  0  0  3  0  0  0  0  0  0
  161.1200  206.9210  148.8850 C   0  0  2  0  0  3  0  0  0  0  0  0
  162.6010  204.6820  150.8680 O   0  0  0  0  0  1  0  0  0  0  0  0
  162.3300  207.8180  149.1650 C   0  0  0  0  0  0  0  0  0  0  0  0
  161.9020  209.1060  149.4270 F   0  0  0  0  0  0  0  0  0  0  0  0
  163.0500  207.3560  150.2500 F   0  0  0  0  0  0  0  0  0  0  0  0
  163.1590  207.8460  148.0580 F   0  0  0  0  0  0  0  0  0  0  0  0
  160.4580  206.6640  146.4490 F   0  0  0  0  0  0  0  0  0  0  0  0
  160.9810  205.4500  146.8600 C   0  0  0  0  0  2  0  0  0  0  0  0
  1  7  1  6  0  0  0
  1  6  1  0  0  0  0
  1  3  1  0  0  0  0
  2  5  1  0  0  0  0
  3  4  1  0  0  0  0
  4  5  1  0  0  0  0
  6 26  1  6  0  0  0
  6  2  1  0  0  0  0
  7  8  2  0  0  0  0
  9 10  2  0  0  0  0
 10  7  1  0  0  0  0
 11 10  1  6  0  0  0
 11 21  1  0  0  0  0
 12 11  1  0  0  0  0
 13 15  1  6  0  0  0
 13 17  1  0  0  0  0
 14 16  2  0  0  0  0
 16 12  1  0  0  0  0
 17 12  2  0  0  0  0
 18 19  2  0  0  0  0
 19 14  1  0  0  0  0
 19 13  1  0  0  0  0
 20 24  1  0  0  0  0
 21 20  2  0  0  0  0
 22 23  1  0  0  0  0
 23 24  2  0  0  0  0
 25 21  1  0  0  0  0
 25 22  2  0  0  0  0
 27 26  1  0  0  0  0
 28 27  1  0  0  0  0
 29 32  1  6  0  0  0
 29 33  1  0  0  0  0
 30 31  1  0  0  0  0
 31 28  1  1  0  0  0
 33 36  1  6  0  0  0
 33 31  1  0  0  0  0
 34 42  1  6  0  0  0
 34 35  1  0  0  0  0
 34 29  1  0  0  0  0
 35 37  1  1  0  0  0
 35 30  1  0  0  0  0
 37 38  1  0  0  0  0
 37 39  1  0  0  0  0
 40 37  1  0  0  0  0
 41 42  1  0  0  0  0
M  END
>  <MODEL>
9

>  <REMARK>
 VINA RESULT:      -6.5      4.014      9.188
  Name = 
  11 active torsions:
  status: ('A' for Active; 'I' for Inactive)
    1  A    between atoms: C_2  and  C_14
    2  A    between atoms: C_5  and  C_17
    3  A    between atoms: C_5  and  C_37
    4  A    between atoms: C_6  and  C_15
    5  A    between atoms: C_7  and  C_36
    6  A    between atoms: C_10  and  C_14
    7  A    between atoms: C_14  and  C_22
    8  A    between atoms: C_15  and  C_22
    9  A    between atoms: C_17  and  C_41
   10  A    between atoms: C_18  and  C_35
   11  A    between atoms: C_20  and  C_41
                            x       y       z     vdW  Elec       q    Type
                         _______ _______ _______ _____ _____    ______ ____

>  <TORSDO>
F 11

$$$$
