=
 OpenBabel11072411173D

 28 29  0  0  1  0  0  0  0  0999 V2000
  162.3260  207.8470  150.8240 C   0  0  2  0  0  3  0  0  0  0  0  0
  160.6530  209.0390  152.2840 N   0  0  0  0  0  2  0  0  0  0  0  0
  162.6350  210.0850  151.6280 O   0  0  0  0  0  0  0  0  0  0  0  0
  161.9060  209.0550  151.6010 C   0  0  0  0  0  0  0  0  0  0  0  0
  160.4670  209.9440  154.5240 C   0  0  0  0  0  1  0  0  0  0  0  0
  160.1830  210.1790  153.0550 C   0  0  0  0  0  2  0  0  0  0  0  0
  161.8190  208.8560  148.6120 C   0  0  0  0  0  2  0  0  0  0  0  0
  162.4990  207.5230  148.3700 C   0  0  1  0  0  3  0  0  0  0  0  0
  161.5360  207.6840  149.5300 C   0  0  1  0  0  3  0  0  0  0  0  0
  161.7910  206.8010  147.2440 C   0  0  0  0  0  2  0  0  0  0  0  0
  162.6980  205.8440  146.6380 N   0  0  0  0  0  2  0  0  0  0  0  0
  162.3560  205.7790  145.2290 C   0  0  0  0  0  2  0  0  0  0  0  0
  160.3880  204.5020  144.3940 C   0  0  0  0  0  1  0  0  0  0  0  0
  160.8480  205.7860  145.0590 C   0  0  0  0  0  2  0  0  0  0  0  0
  162.2890  206.3320  151.8500 S   0  0  0  0  0  0  0  0  0  0  0  0
  161.2680  205.3560  150.6970 C   0  0  0  0  0  2  0  0  0  0  0  0
  161.3340  203.8800  151.0600 C   0  0  2  0  0  3  0  0  0  0  0  0
  161.0070  201.6390  149.9400 C   0  0  0  0  0  3  0  0  0  0  0  0
  161.1460  202.8410  147.4220 C   0  0  0  0  0  3  0  0  0  0  0  0
  161.2700  203.6210  148.5750 C   0  0  0  0  0  3  0  0  0  0  0  0
  160.8870  200.8600  148.7860 C   0  0  0  0  0  3  0  0  0  0  0  0
  161.2050  203.0240  149.8380 C   0  0  0  0  0  0  0  0  0  0  0  0
  160.9570  201.4560  147.5200 C   0  0  0  0  0  0  0  0  0  0  0  0
  160.1090  201.1040  145.2140 O   0  0  0  0  0  0  0  0  0  0  0  0
  161.4000  199.5130  146.2310 O   0  0  0  0  0  1  0  0  0  0  0  0
  160.8400  200.6390  146.3010 C   0  0  0  0  0  0  0  0  0  0  0  0
  160.5090  203.6230  153.1800 O   0  0  0  0  0  0  0  0  0  0  0  0
  160.2980  203.5530  152.0080 N   0  0  0  0  0  0  0  0  0  0  0  0
  1  4  1  1  0  0  0
  1 15  1  0  0  0  0
  2  6  1  0  0  0  0
  4  3  2  0  0  0  0
  4  2  1  0  0  0  0
  6  5  1  0  0  0  0
  7  9  1  0  0  0  0
  8 10  1  6  0  0  0
  8  7  1  0  0  0  0
  8  9  1  0  0  0  0
  9  1  1  1  0  0  0
 11 10  1  0  0  0  0
 12 11  1  0  0  0  0
 13 14  1  0  0  0  0
 14 12  1  0  0  0  0
 16 15  1  0  0  0  0
 17 16  1  6  0  0  0
 17 28  1  0  0  0  0
 19 23  2  0  0  0  0
 19 20  1  0  0  0  0
 20 22  2  0  0  0  0
 21 18  2  0  0  0  0
 22 18  1  0  0  0  0
 22 17  1  0  0  0  0
 23 21  1  0  0  0  0
 24 26  2  0  0  0  0
 25 26  1  0  0  0  0
 26 23  1  0  0  0  0
 28 27  2  0  0  0  0
M  END
>  <MODEL>
1

>  <REMARK>
 VINA RESULT:      -6.9      0.000      0.000
  Name = 
  13 active torsions:
  status: ('A' for Active; 'I' for Inactive)
    1  A    between atoms: C_1  and  C_18
    2  A    between atoms: C_1  and  N_22
    3  A    between atoms: C_2  and  N_22
    4  A    between atoms: C_2  and  C_27
    5  A    between atoms: C_3  and  C_6
    6  A    between atoms: C_3  and  S_20
    7  A    between atoms: N_4  and  C_23
    8  A    between atoms: C_6  and  N_19
    9  A    between atoms: C_6  and  C_21
   10  A    between atoms: C_13  and  C_15
   11  A    between atoms: C_13  and  S_20
   12  A    between atoms: C_13  and  C_24
   13  A    between atoms: C_26  and  C_28
                            x       y       z     vdW  Elec       q    Type
                         _______ _______ _______ _____ _____    ______ ____

>  <TORSDO>
F 13

$$$$
=
 OpenBabel11072411173D

 28 29  0  0  1  0  0  0  0  0999 V2000
  160.9630  208.8280  153.2450 C   0  0  2  0  0  3  0  0  0  0  0  0
  161.9070  209.8210  155.3610 N   0  0  0  0  0  2  0  0  0  0  0  0
  159.6270  209.9640  154.8800 O   0  0  0  0  0  0  0  0  0  0  0  0
  160.7750  209.5780  154.5270 C   0  0  0  0  0  0  0  0  0  0  0  0
  163.1800  210.8620  157.1400 C   0  0  0  0  0  1  0  0  0  0  0  0
  161.7950  210.5400  156.6200 C   0  0  0  0  0  2  0  0  0  0  0  0
  160.7960  206.6390  154.4050 C   0  0  0  0  0  2  0  0  0  0  0  0
  160.7330  206.3800  152.9130 C   0  0  1  0  0  3  0  0  0  0  0  0
  161.6310  207.4750  153.4570 C   0  0  1  0  0  3  0  0  0  0  0  0
  161.5800  205.1710  152.5820 C   0  0  0  0  0  2  0  0  0  0  0  0
  160.7240  204.0100  152.4270 N   0  0  0  0  0  2  0  0  0  0  0  0
  161.4680  203.0460  151.6350 C   0  0  0  0  0  2  0  0  0  0  0  0
  161.1160  201.1060  150.1150 C   0  0  0  0  0  1  0  0  0  0  0  0
  160.5710  202.4470  150.5680 C   0  0  0  0  0  2  0  0  0  0  0  0
  161.8310  209.8370  151.9890 S   0  0  0  0  0  0  0  0  0  0  0  0
  162.2520  208.4420  150.8940 C   0  0  0  0  0  2  0  0  0  0  0  0
  161.6030  208.6320  149.5310 C   0  0  2  0  0  3  0  0  0  0  0  0
  160.7920  206.2590  149.2160 C   0  0  0  0  0  3  0  0  0  0  0  0
  162.2920  206.0240  146.8700 C   0  0  0  0  0  3  0  0  0  0  0  0
  162.3150  207.2180  147.5960 C   0  0  0  0  0  3  0  0  0  0  0  0
  160.7740  205.0640  148.4910 C   0  0  0  0  0  3  0  0  0  0  0  0
  161.5690  207.3400  148.7730 C   0  0  0  0  0  0  0  0  0  0  0  0
  161.5250  204.9390  147.3140 C   0  0  0  0  0  0  0  0  0  0  0  0
  161.1060  202.4980  147.1570 O   0  0  0  0  0  1  0  0  0  0  0  0
  161.8800  203.6610  145.3460 O   0  0  0  0  0  0  0  0  0  0  0  0
  161.5160  203.6800  146.5520 C   0  0  0  0  0  0  0  0  0  0  0  0
  161.7630  210.6400  148.4450 O   0  0  0  0  0  0  0  0  0  0  0  0
  162.3120  209.6330  148.7760 N   0  0  0  0  0  0  0  0  0  0  0  0
  1 15  1  6  0  0  0
  1  4  1  0  0  0  0
  2  6  1  0  0  0  0
  4  3  2  0  0  0  0
  4  2  1  0  0  0  0
  6  5  1  0  0  0  0
  8 10  1  1  0  0  0
  8  9  1  0  0  0  0
  8  7  1  0  0  0  0
  9  1  1  6  0  0  0
  9  7  1  0  0  0  0
 11 10  1  0  0  0  0
 12 11  1  0  0  0  0
 13 14  1  0  0  0  0
 14 12  1  0  0  0  0
 16 15  1  0  0  0  0
 17 16  1  1  0  0  0
 19 23  2  0  0  0  0
 19 20  1  0  0  0  0
 20 22  2  0  0  0  0
 21 18  2  0  0  0  0
 22 18  1  0  0  0  0
 22 17  1  0  0  0  0
 23 21  1  0  0  0  0
 25 26  2  0  0  0  0
 26 24  1  0  0  0  0
 26 23  1  0  0  0  0
 27 28  2  0  0  0  0
 28 17  1  0  0  0  0
M  END
>  <MODEL>
2

>  <REMARK>
 VINA RESULT:      -6.6      2.382      4.908
  Name = 
  13 active torsions:
  status: ('A' for Active; 'I' for Inactive)
    1  A    between atoms: C_1  and  C_18
    2  A    between atoms: C_1  and  N_22
    3  A    between atoms: C_2  and  N_22
    4  A    between atoms: C_2  and  C_27
    5  A    between atoms: C_3  and  C_6
    6  A    between atoms: C_3  and  S_20
    7  A    between atoms: N_4  and  C_23
    8  A    between atoms: C_6  and  N_19
    9  A    between atoms: C_6  and  C_21
   10  A    between atoms: C_13  and  C_15
   11  A    between atoms: C_13  and  S_20
   12  A    between atoms: C_13  and  C_24
   13  A    between atoms: C_26  and  C_28
                            x       y       z     vdW  Elec       q    Type
                         _______ _______ _______ _____ _____    ______ ____

>  <TORSDO>
F 13

$$$$
=
 OpenBabel11072411173D

 28 29  0  0  1  0  0  0  0  0999 V2000
  161.6140  208.9780  150.8620 C   0  0  2  0  0  3  0  0  0  0  0  0
  162.0450  211.0130  149.4380 N   0  0  0  0  0  2  0  0  0  0  0  0
  162.2320  208.8620  148.5480 O   0  0  0  0  0  0  0  0  0  0  0  0
  161.9920  209.5910  149.5500 C   0  0  0  0  0  0  0  0  0  0  0  0
  162.1570  213.1620  148.3260 C   0  0  0  0  0  1  0  0  0  0  0  0
  162.4020  211.6730  148.1930 C   0  0  0  0  0  2  0  0  0  0  0  0
  160.5090  210.6820  152.2910 C   0  0  0  0  0  2  0  0  0  0  0  0
  160.9070  209.5200  153.1780 C   0  0  1  0  0  3  0  0  0  0  0  0
  161.8040  209.9400  152.0290 C   0  0  1  0  0  3  0  0  0  0  0  0
  161.4840  210.0560  154.4700 C   0  0  0  0  0  2  0  0  0  0  0  0
  161.5210  208.9940  155.4590 N   0  0  0  0  0  2  0  0  0  0  0  0
  160.1780  208.8810  156.0000 C   0  0  0  0  0  2  0  0  0  0  0  0
  160.3630  206.6220  154.9690 C   0  0  0  0  0  1  0  0  0  0  0  0
  159.7890  207.4200  156.1250 C   0  0  0  0  0  2  0  0  0  0  0  0
  162.4670  207.3830  151.1380 S   0  0  0  0  0  0  0  0  0  0  0  0
  161.1390  206.3440  150.4460 C   0  0  0  0  0  2  0  0  0  0  0  0
  161.3910  204.8800  150.7770 C   0  0  2  0  0  3  0  0  0  0  0  0
  161.5790  204.5030  148.2860 C   0  0  0  0  0  3  0  0  0  0  0  0
  160.6040  201.9000  148.5740 C   0  0  0  0  0  3  0  0  0  0  0  0
  160.7520  202.7180  149.6980 C   0  0  0  0  0  3  0  0  0  0  0  0
  161.4270  203.6850  147.1630 C   0  0  0  0  0  3  0  0  0  0  0  0
  161.2350  204.0230  149.5580 C   0  0  0  0  0  0  0  0  0  0  0  0
  160.9370  202.3790  147.3000 C   0  0  0  0  0  0  0  0  0  0  0  0
  161.1140  200.1710  146.1800 O   0  0  0  0  0  1  0  0  0  0  0  0
  160.3050  201.9860  145.0460 O   0  0  0  0  0  0  0  0  0  0  0  0
  160.7670  201.5160  146.1200 C   0  0  0  0  0  0  0  0  0  0  0  0
  160.9180  204.0040  152.8380 O   0  0  0  0  0  0  0  0  0  0  0  0
  160.4910  204.4410  151.8130 N   0  0  0  0  0  0  0  0  0  0  0  0
  1  4  1  6  0  0  0
  1 15  1  0  0  0  0
  2  4  1  0  0  0  0
  3  4  2  0  0  0  0
  6  5  1  0  0  0  0
  6  2  1  0  0  0  0
  7  8  1  0  0  0  0
  8 10  1  1  0  0  0
  9  1  1  6  0  0  0
  9  7  1  0  0  0  0
  9  8  1  0  0  0  0
 10 11  1  0  0  0  0
 11 12  1  0  0  0  0
 12 14  1  0  0  0  0
 13 14  1  0  0  0  0
 16 15  1  0  0  0  0
 17 16  1  6  0  0  0
 17 28  1  0  0  0  0
 18 22  1  0  0  0  0
 19 20  1  0  0  0  0
 21 23  1  0  0  0  0
 21 18  2  0  0  0  0
 22 20  2  0  0  0  0
 22 17  1  0  0  0  0
 23 19  2  0  0  0  0
 25 26  2  0  0  0  0
 26 24  1  0  0  0  0
 26 23  1  0  0  0  0
 28 27  2  0  0  0  0
M  END
>  <MODEL>
3

>  <REMARK>
 VINA RESULT:      -6.4      2.031      5.157
  Name = 
  13 active torsions:
  status: ('A' for Active; 'I' for Inactive)
    1  A    between atoms: C_1  and  C_18
    2  A    between atoms: C_1  and  N_22
    3  A    between atoms: C_2  and  N_22
    4  A    between atoms: C_2  and  C_27
    5  A    between atoms: C_3  and  C_6
    6  A    between atoms: C_3  and  S_20
    7  A    between atoms: N_4  and  C_23
    8  A    between atoms: C_6  and  N_19
    9  A    between atoms: C_6  and  C_21
   10  A    between atoms: C_13  and  C_15
   11  A    between atoms: C_13  and  S_20
   12  A    between atoms: C_13  and  C_24
   13  A    between atoms: C_26  and  C_28
                            x       y       z     vdW  Elec       q    Type
                         _______ _______ _______ _____ _____    ______ ____

>  <TORSDO>
F 13

$$$$
=
 OpenBabel11072411173D

 28 29  0  0  1  0  0  0  0  0999 V2000
  161.0430  208.7530  153.0970 C   0  0  2  0  0  3  0  0  0  0  0  0
  159.6710  210.3020  154.5370 N   0  0  0  0  0  2  0  0  0  0  0  0
  161.7590  209.5350  155.2480 O   0  0  0  0  0  0  0  0  0  0  0  0
  160.8610  209.5330  154.3620 C   0  0  0  0  0  0  0  0  0  0  0  0
  160.0020  212.4750  155.5550 C   0  0  0  0  0  1  0  0  0  0  0  0
  159.4320  211.0840  155.7390 C   0  0  0  0  0  2  0  0  0  0  0  0
  160.7830  206.5900  154.2890 C   0  0  0  0  0  2  0  0  0  0  0  0
  160.7410  206.3090  152.8000 C   0  0  1  0  0  3  0  0  0  0  0  0
  161.6630  207.3830  153.3440 C   0  0  1  0  0  3  0  0  0  0  0  0
  161.5560  205.0680  152.5060 C   0  0  0  0  0  2  0  0  0  0  0  0
  160.6770  203.9150  152.4530 N   0  0  0  0  0  2  0  0  0  0  0  0
  161.4200  202.8540  151.7970 C   0  0  0  0  0  2  0  0  0  0  0  0
  161.2190  201.0090  150.1370 C   0  0  0  0  0  1  0  0  0  0  0  0
  160.6360  202.3270  150.6090 C   0  0  0  0  0  2  0  0  0  0  0  0
  161.9620  209.7090  151.8360 S   0  0  0  0  0  0  0  0  0  0  0  0
  162.3110  208.2880  150.7490 C   0  0  0  0  0  2  0  0  0  0  0  0
  161.6480  208.4890  149.3950 C   0  0  2  0  0  3  0  0  0  0  0  0
  162.2270  207.0950  147.3680 C   0  0  0  0  0  3  0  0  0  0  0  0
  160.9190  204.8870  148.4740 C   0  0  0  0  0  3  0  0  0  0  0  0
  160.9610  206.0960  149.1740 C   0  0  0  0  0  3  0  0  0  0  0  0
  162.1820  205.8860  146.6680 C   0  0  0  0  0  3  0  0  0  0  0  0
  161.6110  207.2050  148.6240 C   0  0  0  0  0  0  0  0  0  0  0  0
  161.5260  204.7750  147.2160 C   0  0  0  0  0  0  0  0  0  0  0  0
  161.0550  202.3400  147.1200 O   0  0  0  0  0  1  0  0  0  0  0  0
  161.7890  203.4540  145.2620 O   0  0  0  0  0  0  0  0  0  0  0  0
  161.4670  203.5030  146.4790 C   0  0  0  0  0  0  0  0  0  0  0  0
  161.8640  210.5800  148.4890 O   0  0  0  0  0  0  0  0  0  0  0  0
  162.3480  209.5000  148.6430 N   0  0  0  0  0  0  0  0  0  0  0  0
  1 15  1  6  0  0  0
  1  4  1  0  0  0  0
  2  6  1  0  0  0  0
  4  2  1  0  0  0  0
  4  3  2  0  0  0  0
  5  6  1  0  0  0  0
  8 10  1  1  0  0  0
  8  9  1  0  0  0  0
  8  7  1  0  0  0  0
  9  1  1  6  0  0  0
  9  7  1  0  0  0  0
 11 10  1  0  0  0  0
 12 11  1  0  0  0  0
 13 14  1  0  0  0  0
 14 12  1  0  0  0  0
 16 15  1  0  0  0  0
 17 16  1  1  0  0  0
 18 22  1  0  0  0  0
 19 20  1  0  0  0  0
 21 23  1  0  0  0  0
 21 18  2  0  0  0  0
 22 20  2  0  0  0  0
 22 17  1  0  0  0  0
 23 19  2  0  0  0  0
 25 26  2  0  0  0  0
 26 24  1  0  0  0  0
 26 23  1  0  0  0  0
 27 28  2  0  0  0  0
 28 17  1  0  0  0  0
M  END
>  <MODEL>
4

>  <REMARK>
 VINA RESULT:      -6.4      2.295      4.844
  Name = 
  13 active torsions:
  status: ('A' for Active; 'I' for Inactive)
    1  A    between atoms: C_1  and  C_18
    2  A    between atoms: C_1  and  N_22
    3  A    between atoms: C_2  and  N_22
    4  A    between atoms: C_2  and  C_27
    5  A    between atoms: C_3  and  C_6
    6  A    between atoms: C_3  and  S_20
    7  A    between atoms: N_4  and  C_23
    8  A    between atoms: C_6  and  N_19
    9  A    between atoms: C_6  and  C_21
   10  A    between atoms: C_13  and  C_15
   11  A    between atoms: C_13  and  S_20
   12  A    between atoms: C_13  and  C_24
   13  A    between atoms: C_26  and  C_28
                            x       y       z     vdW  Elec       q    Type
                         _______ _______ _______ _____ _____    ______ ____

>  <TORSDO>
F 13

$$$$
=
 OpenBabel11072411173D

 28 29  0  0  1  0  0  0  0  0999 V2000
  161.5130  207.5180  153.6040 C   0  0  2  0  0  3  0  0  0  0  0  0
  161.2560  209.0580  155.5820 N   0  0  0  0  0  2  0  0  0  0  0  0
  159.7540  207.3070  155.2200 O   0  0  0  0  0  0  0  0  0  0  0  0
  160.7730  207.9430  154.8330 C   0  0  0  0  0  0  0  0  0  0  0  0
  159.5960  210.6080  156.4250 C   0  0  0  0  0  1  0  0  0  0  0  0
  160.5870  209.5220  156.7870 C   0  0  0  0  0  2  0  0  0  0  0  0
  160.9150  209.7010  152.5810 C   0  0  0  0  0  2  0  0  0  0  0  0
  162.0710  209.1180  151.7920 C   0  0  1  0  0  3  0  0  0  0  0  0
  160.9940  208.2060  152.3460 C   0  0  1  0  0  3  0  0  0  0  0  0
  161.8200  209.3300  150.3150 C   0  0  0  0  0  2  0  0  0  0  0  0
  161.9470  210.7410  150.0000 N   0  0  0  0  0  2  0  0  0  0  0  0
  162.2250  210.8270  148.5770 C   0  0  0  0  0  2  0  0  0  0  0  0
  160.9270  212.8900  149.0850 C   0  0  0  0  0  1  0  0  0  0  0  0
  161.7340  212.1560  148.0320 C   0  0  0  0  0  2  0  0  0  0  0  0
  161.5500  205.6970  153.4290 S   0  0  0  0  0  0  0  0  0  0  0  0
  160.7610  205.6560  151.7860 C   0  0  0  0  0  2  0  0  0  0  0  0
  161.3150  204.4990  150.9670 C   0  0  2  0  0  3  0  0  0  0  0  0
  160.7410  206.0170  149.0310 C   0  0  0  0  0  3  0  0  0  0  0  0
  161.3690  203.9900  147.2130 C   0  0  0  0  0  3  0  0  0  0  0  0
  161.4890  203.7580  148.5860 C   0  0  0  0  0  3  0  0  0  0  0  0
  160.6180  206.2470  147.6570 C   0  0  0  0  0  3  0  0  0  0  0  0
  161.1730  204.7680  149.5000 C   0  0  0  0  0  0  0  0  0  0  0  0
  160.9290  205.2340  146.7400 C   0  0  0  0  0  0  0  0  0  0  0  0
  161.1850  204.4880  144.3870 O   0  0  0  0  0  0  0  0  0  0  0  0
  160.3200  206.5510  144.8630 O   0  0  0  0  0  1  0  0  0  0  0  0
  160.7930  205.4660  145.2930 C   0  0  0  0  0  0  0  0  0  0  0  0
  161.2650  202.3340  151.7080 O   0  0  0  0  0  0  0  0  0  0  0  0
  160.6420  203.2740  151.3160 N   0  0  0  0  0  0  0  0  0  0  0  0
  1 15  1  6  0  0  0
  1  4  1  0  0  0  0
  2  6  1  0  0  0  0
  4  3  2  0  0  0  0
  4  2  1  0  0  0  0
  5  6  1  0  0  0  0
  8 10  1  6  0  0  0
  8  9  1  0  0  0  0
  8  7  1  0  0  0  0
  9  7  1  0  0  0  0
  9  1  1  1  0  0  0
 11 10  1  0  0  0  0
 12 11  1  0  0  0  0
 14 12  1  0  0  0  0
 14 13  1  0  0  0  0
 16 15  1  0  0  0  0
 17 28  1  0  0  0  0
 17 16  1  1  0  0  0
 18 22  1  0  0  0  0
 19 20  1  0  0  0  0
 20 22  2  0  0  0  0
 21 18  2  0  0  0  0
 22 17  1  0  0  0  0
 23 19  2  0  0  0  0
 23 21  1  0  0  0  0
 24 26  2  0  0  0  0
 25 26  1  0  0  0  0
 26 23  1  0  0  0  0
 28 27  2  0  0  0  0
M  END
>  <MODEL>
5

>  <REMARK>
 VINA RESULT:      -6.2      2.585      4.322
  Name = 
  13 active torsions:
  status: ('A' for Active; 'I' for Inactive)
    1  A    between atoms: C_1  and  C_18
    2  A    between atoms: C_1  and  N_22
    3  A    between atoms: C_2  and  N_22
    4  A    between atoms: C_2  and  C_27
    5  A    between atoms: C_3  and  C_6
    6  A    between atoms: C_3  and  S_20
    7  A    between atoms: N_4  and  C_23
    8  A    between atoms: C_6  and  N_19
    9  A    between atoms: C_6  and  C_21
   10  A    between atoms: C_13  and  C_15
   11  A    between atoms: C_13  and  S_20
   12  A    between atoms: C_13  and  C_24
   13  A    between atoms: C_26  and  C_28
                            x       y       z     vdW  Elec       q    Type
                         _______ _______ _______ _____ _____    ______ ____

>  <TORSDO>
F 13

$$$$
=
 OpenBabel11072411173D

 28 29  0  0  1  0  0  0  0  0999 V2000
  161.3610  210.7620  153.2530 C   0  0  2  0  0  3  0  0  0  0  0  0
  160.7550  208.9480  154.8950 N   0  0  0  0  0  2  0  0  0  0  0  0
  162.4590  210.4740  155.3660 O   0  0  0  0  0  0  0  0  0  0  0  0
  161.5790  210.0640  154.5590 C   0  0  0  0  0  0  0  0  0  0  0  0
  159.7970  207.2110  156.2840 C   0  0  0  0  0  1  0  0  0  0  0  0
  160.9110  208.2270  156.1470 C   0  0  0  0  0  2  0  0  0  0  0  0
  159.3230  211.9790  153.9820 C   0  0  0  0  0  2  0  0  0  0  0  0
  159.6810  212.4630  152.5910 C   0  0  1  0  0  3  0  0  0  0  0  0
  159.8850  211.0070  152.9640 C   0  0  1  0  0  3  0  0  0  0  0  0
  158.4180  212.5840  151.7670 C   0  0  0  0  0  2  0  0  0  0  0  0
  158.5540  213.6870  150.8340 N   0  0  0  0  0  2  0  0  0  0  0  0
  159.9650  213.7860  150.5080 C   0  0  0  0  0  2  0  0  0  0  0  0
  161.4120  212.5770  148.8820 C   0  0  0  0  0  1  0  0  0  0  0  0
  160.1850  213.4530  149.0440 C   0  0  0  0  0  2  0  0  0  0  0  0
  162.2010  209.9010  151.8740 S   0  0  0  0  0  0  0  0  0  0  0  0
  160.9510  208.5860  151.6930 C   0  0  0  0  0  2  0  0  0  0  0  0
  161.6260  207.2230  151.6520 C   0  0  2  0  0  3  0  0  0  0  0  0
  162.2050  207.4400  149.2020 C   0  0  0  0  0  3  0  0  0  0  0  0
  161.1820  204.8880  148.7020 C   0  0  0  0  0  3  0  0  0  0  0  0
  161.1540  205.4090  149.9990 C   0  0  0  0  0  3  0  0  0  0  0  0
  162.2290  206.9180  147.9050 C   0  0  0  0  0  3  0  0  0  0  0  0
  161.6610  206.6870  150.2540 C   0  0  0  0  0  0  0  0  0  0  0  0
  161.7170  205.6390  147.6470 C   0  0  0  0  0  0  0  0  0  0  0  0
  161.2560  203.8060  146.0400 O   0  0  0  0  0  1  0  0  0  0  0  0
  162.1750  205.7740  145.3230 O   0  0  0  0  0  0  0  0  0  0  0  0
  161.7320  205.0890  146.2820 C   0  0  0  0  0  0  0  0  0  0  0  0
  161.4960  205.8390  153.4700 O   0  0  0  0  0  0  0  0  0  0  0  0
  160.9390  206.3010  152.5210 N   0  0  0  0  0  0  0  0  0  0  0  0
  1 15  1  6  0  0  0
  1  4  1  0  0  0  0
  2  6  1  0  0  0  0
  4  2  1  0  0  0  0
  4  3  2  0  0  0  0
  6  5  1  0  0  0  0
  8 10  1  6  0  0  0
  8  9  1  0  0  0  0
  8  7  1  0  0  0  0
  9  1  1  1  0  0  0
  9  7  1  0  0  0  0
 11 10  1  0  0  0  0
 12 11  1  0  0  0  0
 13 14  1  0  0  0  0
 14 12  1  0  0  0  0
 16 15  1  0  0  0  0
 17 16  1  6  0  0  0
 17 28  1  0  0  0  0
 18 22  1  0  0  0  0
 19 20  1  0  0  0  0
 20 22  2  0  0  0  0
 21 18  2  0  0  0  0
 22 17  1  0  0  0  0
 23 21  1  0  0  0  0
 23 19  2  0  0  0  0
 24 26  1  0  0  0  0
 25 26  2  0  0  0  0
 26 23  1  0  0  0  0
 28 27  2  0  0  0  0
M  END
>  <MODEL>
6

>  <REMARK>
 VINA RESULT:      -6.0      2.811      5.513
  Name = 
  13 active torsions:
  status: ('A' for Active; 'I' for Inactive)
    1  A    between atoms: C_1  and  C_18
    2  A    between atoms: C_1  and  N_22
    3  A    between atoms: C_2  and  N_22
    4  A    between atoms: C_2  and  C_27
    5  A    between atoms: C_3  and  C_6
    6  A    between atoms: C_3  and  S_20
    7  A    between atoms: N_4  and  C_23
    8  A    between atoms: C_6  and  N_19
    9  A    between atoms: C_6  and  C_21
   10  A    between atoms: C_13  and  C_15
   11  A    between atoms: C_13  and  S_20
   12  A    between atoms: C_13  and  C_24
   13  A    between atoms: C_26  and  C_28
                            x       y       z     vdW  Elec       q    Type
                         _______ _______ _______ _____ _____    ______ ____

>  <TORSDO>
F 13

$$$$
=
 OpenBabel11072411173D

 28 29  0  0  1  0  0  0  0  0999 V2000
  161.5670  208.4950  151.0270 C   0  0  2  0  0  3  0  0  0  0  0  0
  161.9990  210.6840  149.8540 N   0  0  0  0  0  2  0  0  0  0  0  0
  162.1730  208.6540  148.7130 O   0  0  0  0  0  0  0  0  0  0  0  0
  161.9410  209.2590  149.7960 C   0  0  0  0  0  0  0  0  0  0  0  0
  161.3100  212.5670  148.4950 C   0  0  0  0  0  1  0  0  0  0  0  0
  162.3530  211.4870  148.6950 C   0  0  0  0  0  2  0  0  0  0  0  0
  160.3500  210.0640  152.5190 C   0  0  0  0  0  2  0  0  0  0  0  0
  160.6840  208.8230  153.3220 C   0  0  1  0  0  3  0  0  0  0  0  0
  161.6640  209.3450  152.2900 C   0  0  1  0  0  3  0  0  0  0  0  0
  161.1580  209.2350  154.6990 C   0  0  0  0  0  2  0  0  0  0  0  0
  160.0180  209.6260  155.5060 N   0  0  0  0  0  2  0  0  0  0  0  0
  160.4500  210.7460  156.3230 C   0  0  0  0  0  2  0  0  0  0  0  0
  159.1040  212.6820  155.5220 C   0  0  0  0  0  1  0  0  0  0  0  0
  160.4680  212.0180  155.4950 C   0  0  0  0  0  2  0  0  0  0  0  0
  162.5120  206.9350  151.1720 S   0  0  0  0  0  0  0  0  0  0  0  0
  161.0550  205.8400  151.1800 C   0  0  0  0  0  2  0  0  0  0  0  0
  161.4010  204.5020  150.5420 C   0  0  2  0  0  3  0  0  0  0  0  0
  160.8580  205.7530  148.4150 C   0  0  0  0  0  3  0  0  0  0  0  0
  161.4430  203.4830  146.8940 C   0  0  0  0  0  3  0  0  0  0  0  0
  161.5590  203.4380  148.2860 C   0  0  0  0  0  3  0  0  0  0  0  0
  160.7400  205.7940  147.0220 C   0  0  0  0  0  3  0  0  0  0  0  0
  161.2640  204.5700  149.0520 C   0  0  0  0  0  0  0  0  0  0  0  0
  161.0300  204.6590  146.2530 C   0  0  0  0  0  0  0  0  0  0  0  0
  160.0220  203.8280  144.1430 O   0  0  0  0  0  1  0  0  0  0  0  0
  161.5750  205.5070  144.1050 O   0  0  0  0  0  0  0  0  0  0  0  0
  160.8980  204.6940  144.7880 C   0  0  0  0  0  0  0  0  0  0  0  0
  160.8660  202.8800  152.0650 O   0  0  0  0  0  0  0  0  0  0  0  0
  160.5550  203.4630  151.0720 N   0  0  0  0  0  0  0  0  0  0  0  0
  1  4  1  6  0  0  0
  1 15  1  0  0  0  0
  3  4  2  0  0  0  0
  4  2  1  0  0  0  0
  5  6  1  0  0  0  0
  6  2  1  0  0  0  0
  7  8  1  0  0  0  0
  8 10  1  1  0  0  0
  9  1  1  6  0  0  0
  9  7  1  0  0  0  0
  9  8  1  0  0  0  0
 10 11  1  0  0  0  0
 11 12  1  0  0  0  0
 14 13  1  0  0  0  0
 14 12  1  0  0  0  0
 15 16  1  0  0  0  0
 17 28  1  0  0  0  0
 17 16  1  1  0  0  0
 18 22  1  0  0  0  0
 19 20  1  0  0  0  0
 20 22  2  0  0  0  0
 21 18  2  0  0  0  0
 22 17  1  0  0  0  0
 23 19  2  0  0  0  0
 23 21  1  0  0  0  0
 24 26  1  0  0  0  0
 25 26  2  0  0  0  0
 26 23  1  0  0  0  0
 28 27  2  0  0  0  0
M  END
>  <MODEL>
7

>  <REMARK>
 VINA RESULT:      -6.0      2.239      5.802
  Name = 
  13 active torsions:
  status: ('A' for Active; 'I' for Inactive)
    1  A    between atoms: C_1  and  C_18
    2  A    between atoms: C_1  and  N_22
    3  A    between atoms: C_2  and  N_22
    4  A    between atoms: C_2  and  C_27
    5  A    between atoms: C_3  and  C_6
    6  A    between atoms: C_3  and  S_20
    7  A    between atoms: N_4  and  C_23
    8  A    between atoms: C_6  and  N_19
    9  A    between atoms: C_6  and  C_21
   10  A    between atoms: C_13  and  C_15
   11  A    between atoms: C_13  and  S_20
   12  A    between atoms: C_13  and  C_24
   13  A    between atoms: C_26  and  C_28
                            x       y       z     vdW  Elec       q    Type
                         _______ _______ _______ _____ _____    ______ ____

>  <TORSDO>
F 13

$$$$
=
 OpenBabel11072411173D

 28 29  0  0  1  0  0  0  0  0999 V2000
  160.6820  210.5040  152.8010 C   0  0  2  0  0  3  0  0  0  0  0  0
  160.4810  212.5690  151.3700 N   0  0  0  0  0  2  0  0  0  0  0  0
  158.6030  211.6240  152.3870 O   0  0  0  0  0  0  0  0  0  0  0  0
  159.8470  211.5780  152.1770 C   0  0  0  0  0  0  0  0  0  0  0  0
  160.2630  213.8720  149.3390 C   0  0  0  0  0  1  0  0  0  0  0  0
  159.7290  213.6410  150.7370 C   0  0  0  0  0  2  0  0  0  0  0  0
  160.2790  211.7070  154.9360 C   0  0  0  0  0  2  0  0  0  0  0  0
  160.5850  210.2600  155.2680 C   0  0  1  0  0  3  0  0  0  0  0  0
  161.3040  210.9440  154.1210 C   0  0  1  0  0  3  0  0  0  0  0  0
  161.5100  210.2100  156.4640 C   0  0  0  0  0  2  0  0  0  0  0  0
  161.2050  209.0350  157.2600 N   0  0  0  0  0  2  0  0  0  0  0  0
  160.0130  208.4390  156.6850 C   0  0  0  0  0  2  0  0  0  0  0  0
  160.5720  206.8040  154.8920 C   0  0  0  0  0  1  0  0  0  0  0  0
  160.2660  206.9760  156.3670 C   0  0  0  0  0  2  0  0  0  0  0  0
  161.9320  209.8520  151.6330 S   0  0  0  0  0  0  0  0  0  0  0  0
  161.1890  208.1940  151.4790 C   0  0  0  0  0  2  0  0  0  0  0  0
  161.1230  207.7840  150.0160 C   0  0  2  0  0  3  0  0  0  0  0  0
  160.9100  205.4710  151.0110 C   0  0  0  0  0  3  0  0  0  0  0  0
  161.0460  204.3280  148.4650 C   0  0  0  0  0  3  0  0  0  0  0  0
  161.1160  205.7160  148.6110 C   0  0  0  0  0  3  0  0  0  0  0  0
  160.8430  204.0820  150.8630 C   0  0  0  0  0  3  0  0  0  0  0  0
  161.0520  206.2930  149.8830 C   0  0  0  0  0  0  0  0  0  0  0  0
  160.9120  203.5020  149.5890 C   0  0  0  0  0  0  0  0  0  0  0  0
  161.2170  201.4530  148.2220 O   0  0  0  0  0  0  0  0  0  0  0  0
  160.4690  201.3090  150.3790 O   0  0  0  0  0  1  0  0  0  0  0  0
  160.8520  202.0410  149.4280 C   0  0  0  0  0  0  0  0  0  0  0  0
  162.1220  208.9320  148.3070 O   0  0  0  0  0  0  0  0  0  0  0  0
  162.2680  208.2920  149.3030 N   0  0  0  0  0  0  0  0  0  0  0  0
  1 15  1  6  0  0  0
  2  4  1  0  0  0  0
  4  3  2  0  0  0  0
  4  1  1  0  0  0  0
  5  6  1  0  0  0  0
  6  2  1  0  0  0  0
  7  8  1  0  0  0  0
  8 10  1  1  0  0  0
  9  1  1  6  0  0  0
  9  7  1  0  0  0  0
  9  8  1  0  0  0  0
 10 11  1  0  0  0  0
 12 11  1  0  0  0  0
 13 14  1  0  0  0  0
 14 12  1  0  0  0  0
 16 15  1  0  0  0  0
 17 16  1  1  0  0  0
 19 20  2  0  0  0  0
 19 23  1  0  0  0  0
 20 22  1  0  0  0  0
 21 18  1  0  0  0  0
 22 17  1  0  0  0  0
 22 18  2  0  0  0  0
 23 21  2  0  0  0  0
 24 26  2  0  0  0  0
 26 23  1  0  0  0  0
 26 25  1  0  0  0  0
 27 28  2  0  0  0  0
 28 17  1  0  0  0  0
M  END
>  <MODEL>
8

>  <REMARK>
 VINA RESULT:      -5.9      2.758      6.255
  Name = 
  13 active torsions:
  status: ('A' for Active; 'I' for Inactive)
    1  A    between atoms: C_1  and  C_18
    2  A    between atoms: C_1  and  N_22
    3  A    between atoms: C_2  and  N_22
    4  A    between atoms: C_2  and  C_27
    5  A    between atoms: C_3  and  C_6
    6  A    between atoms: C_3  and  S_20
    7  A    between atoms: N_4  and  C_23
    8  A    between atoms: C_6  and  N_19
    9  A    between atoms: C_6  and  C_21
   10  A    between atoms: C_13  and  C_15
   11  A    between atoms: C_13  and  S_20
   12  A    between atoms: C_13  and  C_24
   13  A    between atoms: C_26  and  C_28
                            x       y       z     vdW  Elec       q    Type
                         _______ _______ _______ _____ _____    ______ ____

>  <TORSDO>
F 13

$$$$
=
 OpenBabel11072411173D

 28 29  0  0  1  0  0  0  0  0999 V2000
  161.2350  210.7100  153.2910 C   0  0  2  0  0  3  0  0  0  0  0  0
  160.0480  209.2430  154.9620 N   0  0  0  0  0  2  0  0  0  0  0  0
  162.2320  209.9770  155.3460 O   0  0  0  0  0  0  0  0  0  0  0  0
  161.2250  209.9570  154.5850 C   0  0  0  0  0  0  0  0  0  0  0  0
  160.3630  207.0540  155.9510 C   0  0  0  0  0  1  0  0  0  0  0  0
  159.9700  208.4940  156.2060 C   0  0  0  0  0  2  0  0  0  0  0  0
  159.1350  211.9720  153.6940 C   0  0  0  0  0  2  0  0  0  0  0  0
  159.7220  212.4540  152.3830 C   0  0  1  0  0  3  0  0  0  0  0  0
  159.8300  210.9920  152.7720 C   0  0  1  0  0  3  0  0  0  0  0  0
  158.6110  212.6090  151.3680 C   0  0  0  0  0  2  0  0  0  0  0  0
  158.9550  213.6640  150.4330 N   0  0  0  0  0  2  0  0  0  0  0  0
  160.3550  213.4820  150.0950 C   0  0  0  0  0  2  0  0  0  0  0  0
  161.8530  212.6220  148.3010 C   0  0  0  0  0  1  0  0  0  0  0  0
  160.5030  213.2450  148.6030 C   0  0  0  0  0  2  0  0  0  0  0  0
  162.2840  209.8890  152.0360 S   0  0  0  0  0  0  0  0  0  0  0  0
  161.2780  208.3730  151.9220 C   0  0  0  0  0  2  0  0  0  0  0  0
  161.1890  207.9110  150.4750 C   0  0  2  0  0  3  0  0  0  0  0  0
  161.0850  205.6310  151.5570 C   0  0  0  0  0  3  0  0  0  0  0  0
  160.8290  204.4180  149.0530 C   0  0  0  0  0  3  0  0  0  0  0  0
  160.9420  205.8080  149.1460 C   0  0  0  0  0  3  0  0  0  0  0  0
  160.9750  204.2400  151.4610 C   0  0  0  0  0  3  0  0  0  0  0  0
  161.0750  206.4200  150.3970 C   0  0  0  0  0  0  0  0  0  0  0  0
  160.8470  203.6260  150.2080 C   0  0  0  0  0  0  0  0  0  0  0  0
  159.7160  201.5880  149.3560 O   0  0  0  0  0  0  0  0  0  0  0  0
  161.5730  201.4160  150.6810 O   0  0  0  0  0  1  0  0  0  0  0  0
  160.7400  202.1620  150.1010 C   0  0  0  0  0  0  0  0  0  0  0  0
  162.2100  208.8840  148.6720 O   0  0  0  0  0  0  0  0  0  0  0  0
  162.3420  208.3610  149.7360 N   0  0  0  0  0  0  0  0  0  0  0  0
  1 15  1  6  0  0  0
  1  4  1  0  0  0  0
  2  6  1  0  0  0  0
  4  2  1  0  0  0  0
  4  3  2  0  0  0  0
  5  6  1  0  0  0  0
  8 10  1  6  0  0  0
  8  9  1  0  0  0  0
  8  7  1  0  0  0  0
  9  1  1  1  0  0  0
  9  7  1  0  0  0  0
 11 10  1  0  0  0  0
 12 11  1  0  0  0  0
 13 14  1  0  0  0  0
 14 12  1  0  0  0  0
 16 15  1  0  0  0  0
 17 16  1  1  0  0  0
 19 20  2  0  0  0  0
 19 23  1  0  0  0  0
 20 22  1  0  0  0  0
 21 18  1  0  0  0  0
 22 17  1  0  0  0  0
 22 18  2  0  0  0  0
 23 21  2  0  0  0  0
 24 26  2  0  0  0  0
 26 23  1  0  0  0  0
 26 25  1  0  0  0  0
 27 28  2  0  0  0  0
 28 17  1  0  0  0  0
M  END
>  <MODEL>
9

>  <REMARK>
 VINA RESULT:      -5.9      2.920      5.435
  Name = 
  13 active torsions:
  status: ('A' for Active; 'I' for Inactive)
    1  A    between atoms: C_1  and  C_18
    2  A    between atoms: C_1  and  N_22
    3  A    between atoms: C_2  and  N_22
    4  A    between atoms: C_2  and  C_27
    5  A    between atoms: C_3  and  C_6
    6  A    between atoms: C_3  and  S_20
    7  A    between atoms: N_4  and  C_23
    8  A    between atoms: C_6  and  N_19
    9  A    between atoms: C_6  and  C_21
   10  A    between atoms: C_13  and  C_15
   11  A    between atoms: C_13  and  S_20
   12  A    between atoms: C_13  and  C_24
   13  A    between atoms: C_26  and  C_28
                            x       y       z     vdW  Elec       q    Type
                         _______ _______ _______ _____ _____    ______ ____

>  <TORSDO>
F 13

$$$$
