=
 OpenBabel11072414533D

 47 50  0  0  1  0  0  0  0  0999 V2000
  161.0770  207.2830  154.3640 C   0  0  0  0  0  0  0  0  0  0  0  0
  161.0470  206.8990  155.5920 N   0  0  0  0  0  2  0  0  0  0  0  0
  161.4620  206.3410  153.3570 N   0  0  0  0  0  2  0  0  0  0  0  0
  160.0750  209.0280  152.9890 C   0  0  0  0  0  3  0  0  0  0  0  0
  160.8060  208.7020  154.0520 C   0  0  0  0  0  0  0  0  0  0  0  0
  161.3720  209.7320  154.8650 N   0  0  0  0  0  2  0  0  0  0  0  0
  159.4050  212.6360  153.8060 C   0  0  0  0  0  0  0  0  0  0  0  0
  161.2860  211.1430  154.4860 C   0  0  0  0  0  2  0  0  0  0  0  0
  159.6920  213.4000  154.7710 O   0  0  0  0  0  0  0  0  0  0  0  0
  160.0880  211.3790  153.6820 N   0  0  0  0  0  0  0  0  0  0  0  0
  159.8150  210.4540  152.5870 C   0  0  0  0  0  2  0  0  0  0  0  0
  158.2900  213.0370  152.8600 C   0  0  2  0  0  3  0  0  0  0  0  0
  160.0000  213.9370  151.2020 C   0  0  0  0  0  3  0  0  0  0  0  0
  157.8110  213.2490  150.4200 C   0  0  0  0  0  3  0  0  0  0  0  0
  158.1770  213.5870  149.1150 C   0  0  0  0  0  3  0  0  0  0  0  0
  159.4560  214.0920  148.8530 C   0  0  0  0  0  3  0  0  0  0  0  0
  160.3650  214.2670  149.8960 C   0  0  0  0  0  3  0  0  0  0  0  0
  158.7210  213.4130  151.4670 C   0  0  0  0  0  0  0  0  0  0  0  0
  157.4000  214.0470  153.4350 N   0  0  0  0  0  2  0  0  0  0  0  0
  156.1530  213.5160  153.5720 O   0  0  0  0  0  0  0  0  0  0  0  0
  155.8440  213.5030  155.2450 P   0  0  0  0  0  0  0  0  0  0  0  0
  154.4810  214.1090  155.4940 O   0  0  0  0  0  0  0  0  0  0  0  0
  157.0160  214.4450  156.0430 O   0  0  0  0  0  1  0  0  0  0  0  0
  155.8770  211.9170  155.8670 O   0  0  0  0  0  1  0  0  0  0  0  0
  161.3900  206.6050  151.9270 C   0  0  2  0  0  3  0  0  0  0  0  0
  161.1990  205.4090  149.7920 C   0  0  0  0  0  3  0  0  0  0  0  0
  160.9840  205.3900  151.1150 C   0  0  0  0  0  0  0  0  0  0  0  0
  162.7100  207.1480  151.4010 C   0  0  0  0  0  2  0  0  0  0  0  0
  162.4940  207.5750  149.9650 C   0  0  0  0  0  2  0  0  0  0  0  0
  161.9240  206.4870  149.1600 N   0  0  0  0  0  0  0  0  0  0  0  0
  162.1870  206.4830  147.7090 C   0  0  1  0  0  3  0  0  0  0  0  0
  163.0560  205.3000  147.2640 C   0  0  0  0  0  1  0  0  0  0  0  0
  159.7740  206.3560  147.7690 O   0  0  0  0  0  1  0  0  0  0  0  0
  160.8740  206.5390  146.9190 C   0  0  2  0  0  3  0  0  0  0  0  0
  160.8470  205.5050  145.8030 C   0  0  0  0  0  2  0  0  0  0  0  0
  160.2580  206.0610  144.6470 O   0  0  0  0  0  1  0  0  0  0  0  0
  160.2340  204.2510  151.6850 C   0  0  0  0  0  3  0  0  0  0  0  0
  160.5090  202.9630  151.4430 C   0  0  0  0  0  3  0  0  0  0  0  0
  161.5910  202.5030  150.5100 C   0  0  0  0  0  2  0  0  0  0  0  0
  161.0680  201.6790  149.4970 O   0  0  0  0  0  0  0  0  0  0  0  0
  161.0450  202.4770  148.3490 C   0  0  0  0  0  2  0  0  0  0  0  0
  161.4110  200.1660  147.3900 C   0  0  0  0  0  2  0  0  0  0  0  0
  159.9880  201.8360  146.2070 C   0  0  0  0  0  2  0  0  0  0  0  0
  161.2260  201.6570  147.0780 C   0  0  0  0  0  3  0  0  0  0  0  0
  161.5660  199.3760  146.0930 C   0  0  0  0  0  2  0  0  0  0  0  0
  160.3230  199.5520  145.2210 C   0  0  0  0  0  2  0  0  0  0  0  0
  160.1070  201.0320  144.9150 C   0  0  0  0  0  2  0  0  0  0  0  0
  1  2  2  0  0  0  0
  3  1  1  0  0  0  0
  4  5  2  0  0  0  0
  5  1  1  0  0  0  0
  5  6  1  0  0  0  0
  7  9  2  0  0  0  0
  8  6  1  0  0  0  0
 10  7  1  0  0  0  0
 10  8  1  0  0  0  0
 11  4  1  0  0  0  0
 11 10  1  0  0  0  0
 12 19  1  1  0  0  0
 12  7  1  0  0  0  0
 13 18  1  0  0  0  0
 14 18  2  0  0  0  0
 15 14  1  0  0  0  0
 16 15  2  0  0  0  0
 16 17  1  0  0  0  0
 17 13  2  0  0  0  0
 18 12  1  0  0  0  0
 19 20  1  0  0  0  0
 20 21  1  0  0  0  0
 21 22  2  0  0  0  0
 21 24  1  0  0  0  0
 21 23  1  0  0  0  0
 25  3  1  1  0  0  0
 26 27  2  0  0  0  0
 27 37  1  0  0  0  0
 27 25  1  0  0  0  0
 28 25  1  0  0  0  0
 29 28  1  0  0  0  0
 30 26  1  0  0  0  0
 30 29  1  0  0  0  0
 31 32  1  6  0  0  0
 31 30  1  0  0  0  0
 34 31  1  0  0  0  0
 34 33  1  1  0  0  0
 35 34  1  0  0  0  0
 36 35  1  0  0  0  0
 38 37  2  0  0  0  0
 39 38  1  0  0  0  0
 40 39  1  0  0  0  0
 41 40  1  0  0  0  0
 43 44  1  0  0  0  0
 44 42  1  0  0  0  0
 44 41  1  0  0  0  0
 45 42  1  0  0  0  0
 46 45  1  0  0  0  0
 47 46  1  0  0  0  0
 47 43  1  0  0  0  0
M  END
>  <MODEL>
1

>  <REMARK>
 VINA RESULT:      -5.9      0.000      0.000
  Name = 
  15 active torsions:
  status: ('A' for Active; 'I' for Inactive)
    1  A    between atoms: C_3  and  N_40
    2  A    between atoms: C_3  and  C_46
    3  A    between atoms: C_4  and  O_15
    4  A    between atoms: C_4  and  C_22
    5  A    between atoms: C_6  and  C_19
    6  A    between atoms: C_8  and  N_25
    7  A    between atoms: O_12  and  P_18
    8  A    between atoms: O_12  and  N_42
    9  A    between atoms: C_14  and  C_28
   10  A    between atoms: O_15  and  C_45
   11  A    between atoms: C_16  and  C_46
   12  A    between atoms: C_24  and  C_30
   13  A    between atoms: C_30  and  C_37
   14  A    between atoms: C_30  and  N_42
   15  A    between atoms: C_45  and  C_47
                            x       y       z     vdW  Elec       q    Type
                         _______ _______ _______ _____ _____    ______ ____

>  <TORSDO>
F 15

$$$$
=
 OpenBabel11072414533D

 47 50  0  0  1  0  0  0  0  0999 V2000
  160.4780  208.2850  154.6830 C   0  0  0  0  0  0  0  0  0  0  0  0
  160.4050  207.3860  155.6030 N   0  0  0  0  0  2  0  0  0  0  0  0
  159.8600  209.5560  154.9140 N   0  0  0  0  0  2  0  0  0  0  0  0
  161.3040  206.6650  153.0600 C   0  0  0  0  0  3  0  0  0  0  0  0
  161.1100  207.9390  153.3940 C   0  0  0  0  0  0  0  0  0  0  0  0
  161.5610  208.9760  152.5190 N   0  0  0  0  0  2  0  0  0  0  0  0
  162.0740  207.1110  149.4080 C   0  0  0  0  0  0  0  0  0  0  0  0
  162.3560  208.6820  151.3270 C   0  0  0  0  0  2  0  0  0  0  0  0
  162.1230  208.0980  148.6200 O   0  0  0  0  0  0  0  0  0  0  0  0
  162.0410  207.3460  150.8240 N   0  0  0  0  0  0  0  0  0  0  0  0
  161.9950  206.2530  151.7900 C   0  0  0  0  0  2  0  0  0  0  0  0
  161.9690  205.7140  148.8260 C   0  0  2  0  0  3  0  0  0  0  0  0
  160.5590  206.0830  146.7390 C   0  0  0  0  0  3  0  0  0  0  0  0
  162.7670  205.1040  146.5420 C   0  0  0  0  0  3  0  0  0  0  0  0
  162.6010  205.0200  145.1580 C   0  0  0  0  0  3  0  0  0  0  0  0
  161.4180  205.4760  144.5640 C   0  0  0  0  0  3  0  0  0  0  0  0
  160.3990  206.0060  145.3550 C   0  0  0  0  0  3  0  0  0  0  0  0
  161.7540  205.6420  147.3380 C   0  0  0  0  0  0  0  0  0  0  0  0
  161.0110  204.8750  149.5470 N   0  0  0  0  0  2  0  0  0  0  0  0
  161.2380  203.5690  149.2330 O   0  0  0  0  0  0  0  0  0  0  0  0
  160.7690  202.6820  150.6070 P   0  0  0  0  0  0  0  0  0  0  0  0
  161.9960  202.0410  151.2170 O   0  0  0  0  0  1  0  0  0  0  0  0
  159.6820  201.4560  150.1460 O   0  0  0  0  0  0  0  0  0  0  0  0
  160.0260  203.6870  151.7660 O   0  0  0  0  0  1  0  0  0  0  0  0
  159.9990  210.7000  154.0230 C   0  0  2  0  0  3  0  0  0  0  0  0
  159.8050  213.1460  154.0460 C   0  0  0  0  0  3  0  0  0  0  0  0
  160.0130  212.0280  154.7560 C   0  0  0  0  0  0  0  0  0  0  0  0
  158.9020  210.7130  152.9700 C   0  0  0  0  0  2  0  0  0  0  0  0
  159.2270  211.8090  151.9780 C   0  0  0  0  0  2  0  0  0  0  0  0
  159.4360  213.0980  152.6500 N   0  0  0  0  0  0  0  0  0  0  0  0
  159.1740  214.3320  151.8870 C   0  0  1  0  0  3  0  0  0  0  0  0
  160.0440  214.4530  150.6310 C   0  0  0  0  0  1  0  0  0  0  0  0
  156.9100  213.6670  152.4120 O   0  0  0  0  0  1  0  0  0  0  0  0
  157.6830  214.4530  151.5470 C   0  0  2  0  0  3  0  0  0  0  0  0
  157.4050  214.0640  150.1020 C   0  0  0  0  0  2  0  0  0  0  0  0
  156.0120  213.9860  149.8850 O   0  0  0  0  0  1  0  0  0  0  0  0
  160.3860  212.1620  156.1790 C   0  0  0  0  0  3  0  0  0  0  0  0
  159.9820  213.1550  156.9800 C   0  0  0  0  0  3  0  0  0  0  0  0
  159.1300  214.3030  156.5210 C   0  0  0  0  0  2  0  0  0  0  0  0
  157.8090  214.1690  156.9840 O   0  0  0  0  0  0  0  0  0  0  0  0
  157.0160  214.1460  155.8310 C   0  0  0  0  0  2  0  0  0  0  0  0
  156.6590  211.6430  155.8130 C   0  0  0  0  0  2  0  0  0  0  0  0
  155.1890  213.1400  157.1590 C   0  0  0  0  0  2  0  0  0  0  0  0
  155.9900  213.0220  155.8670 C   0  0  0  0  0  3  0  0  0  0  0  0
  155.6010  210.5440  155.8740 C   0  0  0  0  0  2  0  0  0  0  0  0
  154.8010  210.6590  157.1710 C   0  0  0  0  0  2  0  0  0  0  0  0
  154.1410  212.0330  157.2560 C   0  0  0  0  0  2  0  0  0  0  0  0
  1  3  1  0  0  0  0
  1  2  2  0  0  0  0
  4  5  2  0  0  0  0
  5  1  1  0  0  0  0
  6  5  1  0  0  0  0
  7 10  1  0  0  0  0
  8  6  1  0  0  0  0
  9  7  2  0  0  0  0
 10  8  1  0  0  0  0
 10 11  1  0  0  0  0
 11  4  1  0  0  0  0
 12  7  1  1  0  0  0
 12 19  1  0  0  0  0
 13 18  1  0  0  0  0
 14 18  2  0  0  0  0
 15 14  1  0  0  0  0
 16 15  2  0  0  0  0
 16 17  1  0  0  0  0
 17 13  2  0  0  0  0
 18 12  1  0  0  0  0
 20 19  1  0  0  0  0
 20 21  1  0  0  0  0
 21 22  1  0  0  0  0
 21 24  1  0  0  0  0
 23 21  2  0  0  0  0
 25 27  1  0  0  0  0
 25  3  1  1  0  0  0
 26 27  2  0  0  0  0
 27 37  1  0  0  0  0
 28 25  1  0  0  0  0
 29 30  1  0  0  0  0
 29 28  1  0  0  0  0
 30 26  1  0  0  0  0
 31 32  1  6  0  0  0
 31 30  1  0  0  0  0
 34 31  1  0  0  0  0
 34 33  1  1  0  0  0
 35 34  1  0  0  0  0
 36 35  1  0  0  0  0
 37 38  2  0  0  0  0
 39 38  1  0  0  0  0
 39 40  1  0  0  0  0
 41 44  1  0  0  0  0
 41 40  1  0  0  0  0
 42 44  1  0  0  0  0
 42 45  1  0  0  0  0
 43 47  1  0  0  0  0
 44 43  1  0  0  0  0
 45 46  1  0  0  0  0
 46 47  1  0  0  0  0
M  END
>  <MODEL>
2

>  <REMARK>
 VINA RESULT:      -5.8      3.203     10.439
  Name = 
  15 active torsions:
  status: ('A' for Active; 'I' for Inactive)
    1  A    between atoms: C_3  and  N_40
    2  A    between atoms: C_3  and  C_46
    3  A    between atoms: C_4  and  O_15
    4  A    between atoms: C_4  and  C_22
    5  A    between atoms: C_6  and  C_19
    6  A    between atoms: C_8  and  N_25
    7  A    between atoms: O_12  and  P_18
    8  A    between atoms: O_12  and  N_42
    9  A    between atoms: C_14  and  C_28
   10  A    between atoms: O_15  and  C_45
   11  A    between atoms: C_16  and  C_46
   12  A    between atoms: C_24  and  C_30
   13  A    between atoms: C_30  and  C_37
   14  A    between atoms: C_30  and  N_42
   15  A    between atoms: C_45  and  C_47
                            x       y       z     vdW  Elec       q    Type
                         _______ _______ _______ _____ _____    ______ ____

>  <TORSDO>
F 15

$$$$
=
 OpenBabel11072414533D

 47 50  0  0  1  0  0  0  0  0999 V2000
  160.9190  207.4970  153.7890 C   0  0  0  0  0  0  0  0  0  0  0  0
  160.7810  207.1630  155.0250 N   0  0  0  0  0  2  0  0  0  0  0  0
  161.2170  206.4770  152.8300 N   0  0  0  0  0  2  0  0  0  0  0  0
  161.0230  209.3060  152.1590 C   0  0  0  0  0  3  0  0  0  0  0  0
  160.8590  208.9270  153.4240 C   0  0  0  0  0  0  0  0  0  0  0  0
  160.6740  209.9160  154.4400 N   0  0  0  0  0  2  0  0  0  0  0  0
  159.7970  212.8490  152.4280 C   0  0  0  0  0  0  0  0  0  0  0  0
  160.7960  211.3450  154.1510 C   0  0  0  0  0  2  0  0  0  0  0  0
  159.3180  213.5590  153.3570 O   0  0  0  0  0  0  0  0  0  0  0  0
  160.4470  211.6110  152.7570 N   0  0  0  0  0  0  0  0  0  0  0  0
  161.0320  210.7480  151.7360 C   0  0  0  0  0  2  0  0  0  0  0  0
  159.5960  213.2900  150.9910 C   0  0  2  0  0  3  0  0  0  0  0  0
  157.2000  213.9880  151.4950 C   0  0  0  0  0  3  0  0  0  0  0  0
  157.8070  213.2990  149.2510 C   0  0  0  0  0  3  0  0  0  0  0  0
  156.4930  213.5190  148.8330 C   0  0  0  0  0  3  0  0  0  0  0  0
  155.5350  213.9820  149.7440 C   0  0  0  0  0  3  0  0  0  0  0  0
  155.8890  214.2140  151.0720 C   0  0  0  0  0  3  0  0  0  0  0  0
  158.1700  213.5390  150.5780 C   0  0  0  0  0  0  0  0  0  0  0  0
  160.2860  212.4220  150.0350 N   0  0  0  0  0  2  0  0  0  0  0  0
  161.2020  213.1580  149.3450 O   0  0  0  0  0  0  0  0  0  0  0  0
  161.5980  212.2260  147.9780 P   0  0  0  0  0  0  0  0  0  0  0  0
  160.3620  212.0660  147.1220 O   0  0  0  0  0  1  0  0  0  0  0  0
  162.1210  210.6850  148.4770 O   0  0  0  0  0  1  0  0  0  0  0  0
  162.8260  212.9680  147.0590 O   0  0  0  0  0  0  0  0  0  0  0  0
  161.2460  206.6990  151.3910 C   0  0  2  0  0  3  0  0  0  0  0  0
  161.0470  205.4570  149.2830 C   0  0  0  0  0  3  0  0  0  0  0  0
  160.7620  205.5030  150.5920 C   0  0  0  0  0  0  0  0  0  0  0  0
  162.6410  207.0880  150.9240 C   0  0  0  0  0  2  0  0  0  0  0  0
  162.5450  207.4870  149.4670 C   0  0  0  0  0  2  0  0  0  0  0  0
  161.9100  206.4350  148.6620 N   0  0  0  0  0  0  0  0  0  0  0  0
  162.2470  206.3550  147.2290 C   0  0  1  0  0  3  0  0  0  0  0  0
  162.9980  205.0700  146.8630 C   0  0  0  0  0  1  0  0  0  0  0  0
  159.8380  206.5480  147.1630 O   0  0  0  0  0  1  0  0  0  0  0  0
  160.9910  206.5320  146.3660 C   0  0  2  0  0  3  0  0  0  0  0  0
  160.8790  205.4430  145.3100 C   0  0  0  0  0  2  0  0  0  0  0  0
  161.2270  205.9620  144.0440 O   0  0  0  0  0  1  0  0  0  0  0  0
  159.8720  204.4660  151.1520 C   0  0  0  0  0  3  0  0  0  0  0  0
  160.2050  203.1770  151.2980 C   0  0  0  0  0  3  0  0  0  0  0  0
  161.5200  202.6010  150.8600 C   0  0  0  0  0  2  0  0  0  0  0  0
  161.3330  201.5670  149.9250 O   0  0  0  0  0  0  0  0  0  0  0  0
  161.3360  202.1970  148.6760 C   0  0  0  0  0  2  0  0  0  0  0  0
  160.5910  202.0640  146.2630 C   0  0  0  0  0  2  0  0  0  0  0  0
  161.6940  200.1250  147.3740 C   0  0  0  0  0  2  0  0  0  0  0  0
  160.7530  201.3060  147.5860 C   0  0  0  0  0  3  0  0  0  0  0  0
  160.0270  201.1340  145.1920 C   0  0  0  0  0  2  0  0  0  0  0  0
  160.9720  199.9520  144.9760 C   0  0  0  0  0  2  0  0  0  0  0  0
  161.1650  199.1930  146.2860 C   0  0  0  0  0  2  0  0  0  0  0  0
  1  2  2  0  0  0  0
  3  1  1  0  0  0  0
  4  5  2  0  0  0  0
  5  1  1  0  0  0  0
  5  6  1  0  0  0  0
  7 10  1  0  0  0  0
  7  9  2  0  0  0  0
  8  6  1  0  0  0  0
 10  8  1  0  0  0  0
 11  4  1  0  0  0  0
 11 10  1  0  0  0  0
 12 19  1  6  0  0  0
 12  7  1  0  0  0  0
 14 18  1  0  0  0  0
 15 14  2  0  0  0  0
 15 16  1  0  0  0  0
 16 17  2  0  0  0  0
 17 13  1  0  0  0  0
 18 12  1  0  0  0  0
 18 13  2  0  0  0  0
 20 19  1  0  0  0  0
 21 23  1  0  0  0  0
 21 20  1  0  0  0  0
 22 21  1  0  0  0  0
 24 21  2  0  0  0  0
 25  3  1  1  0  0  0
 26 27  2  0  0  0  0
 27 37  1  0  0  0  0
 27 25  1  0  0  0  0
 28 25  1  0  0  0  0
 29 28  1  0  0  0  0
 30 26  1  0  0  0  0
 30 29  1  0  0  0  0
 31 32  1  1  0  0  0
 31 30  1  0  0  0  0
 34 33  1  1  0  0  0
 34 31  1  0  0  0  0
 35 34  1  0  0  0  0
 36 35  1  0  0  0  0
 37 38  2  0  0  0  0
 39 38  1  0  0  0  0
 40 39  1  0  0  0  0
 41 40  1  0  0  0  0
 42 44  1  0  0  0  0
 43 44  1  0  0  0  0
 44 41  1  0  0  0  0
 45 42  1  0  0  0  0
 46 45  1  0  0  0  0
 46 47  1  0  0  0  0
 47 43  1  0  0  0  0
M  END
>  <MODEL>
3

>  <REMARK>
 VINA RESULT:      -5.8      2.452      3.535
  Name = 
  15 active torsions:
  status: ('A' for Active; 'I' for Inactive)
    1  A    between atoms: C_3  and  N_40
    2  A    between atoms: C_3  and  C_46
    3  A    between atoms: C_4  and  O_15
    4  A    between atoms: C_4  and  C_22
    5  A    between atoms: C_6  and  C_19
    6  A    between atoms: C_8  and  N_25
    7  A    between atoms: O_12  and  P_18
    8  A    between atoms: O_12  and  N_42
    9  A    between atoms: C_14  and  C_28
   10  A    between atoms: O_15  and  C_45
   11  A    between atoms: C_16  and  C_46
   12  A    between atoms: C_24  and  C_30
   13  A    between atoms: C_30  and  C_37
   14  A    between atoms: C_30  and  N_42
   15  A    between atoms: C_45  and  C_47
                            x       y       z     vdW  Elec       q    Type
                         _______ _______ _______ _____ _____    ______ ____

>  <TORSDO>
F 15

$$$$
=
 OpenBabel11072414533D

 47 50  0  0  1  0  0  0  0  0999 V2000
  161.2280  212.7080  149.4480 C   0  0  0  0  0  0  0  0  0  0  0  0
  161.8060  213.4560  148.5730 N   0  0  0  0  0  2  0  0  0  0  0  0
  160.3850  213.3230  150.4290 N   0  0  0  0  0  2  0  0  0  0  0  0
  161.9560  210.6770  150.5810 C   0  0  0  0  0  3  0  0  0  0  0  0
  161.5300  211.2630  149.4640 C   0  0  0  0  0  0  0  0  0  0  0  0
  161.4140  210.4960  148.2630 N   0  0  0  0  0  2  0  0  0  0  0  0
  161.4910  207.0810  149.5890 C   0  0  0  0  0  0  0  0  0  0  0  0
  161.8810  209.1110  148.1900 C   0  0  0  0  0  2  0  0  0  0  0  0
  161.0450  206.4880  148.5670 O   0  0  0  0  0  0  0  0  0  0  0  0
  161.8060  208.4800  149.5060 N   0  0  0  0  0  0  0  0  0  0  0  0
  162.3360  209.2240  150.6440 C   0  0  0  0  0  2  0  0  0  0  0  0
  161.6030  206.3130  150.8910 C   0  0  2  0  0  3  0  0  0  0  0  0
  161.1000  204.1970  149.5670 C   0  0  0  0  0  3  0  0  0  0  0  0
  161.3260  204.0840  151.9780 C   0  0  0  0  0  3  0  0  0  0  0  0
  161.0870  202.7080  151.9300 C   0  0  0  0  0  3  0  0  0  0  0  0
  160.8630  202.0760  150.7010 C   0  0  0  0  0  3  0  0  0  0  0  0
  160.8690  202.8210  149.5220 C   0  0  0  0  0  3  0  0  0  0  0  0
  161.3430  204.8330  150.8000 C   0  0  0  0  0  0  0  0  0  0  0  0
  160.8330  206.9250  151.9740 N   0  0  0  0  0  2  0  0  0  0  0  0
  161.2780  206.4410  153.1680 O   0  0  0  0  0  0  0  0  0  0  0  0
  161.0520  207.7050  154.2850 P   0  0  0  0  0  0  0  0  0  0  0  0
  161.5730  208.9890  153.6800 O   0  0  0  0  0  0  0  0  0  0  0  0
  161.9310  207.3710  155.7030 O   0  0  0  0  0  1  0  0  0  0  0  0
  159.4040  207.8960  154.6750 O   0  0  0  0  0  1  0  0  0  0  0  0
  159.5600  212.5790  151.3710 C   0  0  2  0  0  3  0  0  0  0  0  0
  157.6850  212.9200  152.9180 C   0  0  0  0  0  3  0  0  0  0  0  0
  158.3330  213.3470  151.8250 C   0  0  0  0  0  0  0  0  0  0  0  0
  160.3670  212.1480  152.5860 C   0  0  0  0  0  2  0  0  0  0  0  0
  159.4980  211.2260  153.4140 C   0  0  0  0  0  2  0  0  0  0  0  0
  158.2060  211.8480  153.7350 N   0  0  0  0  0  0  0  0  0  0  0  0
  157.5050  211.4080  154.9550 C   0  0  1  0  0  3  0  0  0  0  0  0
  158.4630  211.0660  156.1030 C   0  0  0  0  0  1  0  0  0  0  0  0
  157.0890  213.5890  155.9110 O   0  0  0  0  0  1  0  0  0  0  0  0
  156.4640  212.4480  155.3880 C   0  0  2  0  0  3  0  0  0  0  0  0
  155.4890  211.8750  156.4050 C   0  0  0  0  0  2  0  0  0  0  0  0
  154.9360  210.6720  155.9160 O   0  0  0  0  0  1  0  0  0  0  0  0
  157.7350  214.4490  151.0440 C   0  0  0  0  0  3  0  0  0  0  0  0
  157.0700  214.2900  149.8920 C   0  0  0  0  0  3  0  0  0  0  0  0
  156.8900  212.9650  149.2100 C   0  0  0  0  0  2  0  0  0  0  0  0
  156.8840  213.1140  147.8110 O   0  0  0  0  0  0  0  0  0  0  0  0
  158.2170  212.9460  147.4190 C   0  0  0  0  0  2  0  0  0  0  0  0
  158.2740  214.2850  145.2740 C   0  0  0  0  0  2  0  0  0  0  0  0
  159.7200  212.2770  145.5720 C   0  0  0  0  0  2  0  0  0  0  0  0
  158.3630  212.8900  145.9040 C   0  0  0  0  0  3  0  0  0  0  0  0
  158.4480  214.1900  143.7610 C   0  0  0  0  0  2  0  0  0  0  0  0
  159.8100  213.5800  143.4280 C   0  0  0  0  0  2  0  0  0  0  0  0
  159.9290  212.1960  144.0620 C   0  0  0  0  0  2  0  0  0  0  0  0
  1  5  1  0  0  0  0
  1  3  1  0  0  0  0
  2  1  2  0  0  0  0
  4 11  1  0  0  0  0
  5  4  2  0  0  0  0
  6  5  1  0  0  0  0
  8  6  1  0  0  0  0
  8 10  1  0  0  0  0
  9  7  2  0  0  0  0
 10  7  1  0  0  0  0
 10 11  1  0  0  0  0
 12  7  1  6  0  0  0
 12 19  1  0  0  0  0
 13 18  1  0  0  0  0
 15 14  1  0  0  0  0
 16 15  2  0  0  0  0
 17 13  2  0  0  0  0
 17 16  1  0  0  0  0
 18 12  1  0  0  0  0
 18 14  2  0  0  0  0
 19 20  1  0  0  0  0
 20 21  1  0  0  0  0
 21 24  1  0  0  0  0
 21 23  1  0  0  0  0
 22 21  2  0  0  0  0
 25  3  1  6  0  0  0
 25 27  1  0  0  0  0
 25 28  1  0  0  0  0
 26 30  1  0  0  0  0
 27 26  2  0  0  0  0
 28 29  1  0  0  0  0
 29 30  1  0  0  0  0
 30 31  1  0  0  0  0
 31 34  1  0  0  0  0
 31 32  1  1  0  0  0
 34 33  1  1  0  0  0
 34 35  1  0  0  0  0
 36 35  1  0  0  0  0
 37 27  1  0  0  0  0
 38 37  2  0  0  0  0
 39 38  1  0  0  0  0
 40 39  1  0  0  0  0
 41 40  1  0  0  0  0
 42 44  1  0  0  0  0
 43 44  1  0  0  0  0
 44 41  1  0  0  0  0
 45 42  1  0  0  0  0
 46 45  1  0  0  0  0
 46 47  1  0  0  0  0
 47 43  1  0  0  0  0
M  END
>  <MODEL>
4

>  <REMARK>
 VINA RESULT:      -5.5      3.357      9.775
  Name = 
  15 active torsions:
  status: ('A' for Active; 'I' for Inactive)
    1  A    between atoms: C_3  and  N_40
    2  A    between atoms: C_3  and  C_46
    3  A    between atoms: C_4  and  O_15
    4  A    between atoms: C_4  and  C_22
    5  A    between atoms: C_6  and  C_19
    6  A    between atoms: C_8  and  N_25
    7  A    between atoms: O_12  and  P_18
    8  A    between atoms: O_12  and  N_42
    9  A    between atoms: C_14  and  C_28
   10  A    between atoms: O_15  and  C_45
   11  A    between atoms: C_16  and  C_46
   12  A    between atoms: C_24  and  C_30
   13  A    between atoms: C_30  and  C_37
   14  A    between atoms: C_30  and  N_42
   15  A    between atoms: C_45  and  C_47
                            x       y       z     vdW  Elec       q    Type
                         _______ _______ _______ _____ _____    ______ ____

>  <TORSDO>
F 15

$$$$
=
 OpenBabel11072414533D

 47 50  0  0  1  0  0  0  0  0999 V2000
  160.9520  207.7060  155.4800 C   0  0  0  0  0  0  0  0  0  0  0  0
  161.0950  207.2160  156.6630 N   0  0  0  0  0  2  0  0  0  0  0  0
  161.2290  206.8700  154.3510 N   0  0  0  0  0  2  0  0  0  0  0  0
  159.4290  209.4880  154.8130 C   0  0  0  0  0  3  0  0  0  0  0  0
  160.6000  209.1330  155.3360 C   0  0  0  0  0  0  0  0  0  0  0  0
  161.5410  210.1410  155.7120 N   0  0  0  0  0  2  0  0  0  0  0  0
  159.4020  213.1140  155.8040 C   0  0  0  0  0  0  0  0  0  0  0  0
  161.3110  211.5550  155.4130 C   0  0  0  0  0  2  0  0  0  0  0  0
  160.1770  213.8650  156.4600 O   0  0  0  0  0  0  0  0  0  0  0  0
  159.8780  211.8350  155.3570 N   0  0  0  0  0  0  0  0  0  0  0  0
  159.0400  210.9220  154.5850 C   0  0  0  0  0  2  0  0  0  0  0  0
  157.9680  213.5560  155.5810 C   0  0  2  0  0  3  0  0  0  0  0  0
  156.4750  212.1560  157.0950 C   0  0  0  0  0  3  0  0  0  0  0  0
  156.3900  211.8390  154.6930 C   0  0  0  0  0  3  0  0  0  0  0  0
  155.4140  210.8540  154.8630 C   0  0  0  0  0  3  0  0  0  0  0  0
  154.9630  210.5270  156.1470 C   0  0  0  0  0  3  0  0  0  0  0  0
  155.4940  211.1770  157.2600 C   0  0  0  0  0  3  0  0  0  0  0  0
  156.9180  212.5000  155.8040 C   0  0  0  0  0  0  0  0  0  0  0  0
  157.7820  214.2330  154.2970 N   0  0  0  0  0  2  0  0  0  0  0  0
  158.9570  214.2120  153.6070 O   0  0  0  0  0  0  0  0  0  0  0  0
  158.5370  213.8180  152.0060 P   0  0  0  0  0  0  0  0  0  0  0  0
  157.1710  214.3930  151.7040 O   0  0  0  0  0  1  0  0  0  0  0  0
  158.4690  212.1260  151.8390 O   0  0  0  0  0  1  0  0  0  0  0  0
  159.6690  214.4480  150.8980 O   0  0  0  0  0  0  0  0  0  0  0  0
  160.9620  207.2540  152.9720 C   0  0  2  0  0  3  0  0  0  0  0  0
  160.7340  206.2520  150.7430 C   0  0  0  0  0  3  0  0  0  0  0  0
  160.6680  206.0700  152.0690 C   0  0  0  0  0  0  0  0  0  0  0  0
  162.1150  208.0590  152.3920 C   0  0  0  0  0  2  0  0  0  0  0  0
  161.6800  208.5790  151.0390 C   0  0  0  0  0  2  0  0  0  0  0  0
  161.2060  207.4920  150.1720 N   0  0  0  0  0  0  0  0  0  0  0  0
  161.3090  207.6710  148.7120 C   0  0  1  0  0  3  0  0  0  0  0  0
  162.2380  208.8240  148.3150 C   0  0  0  0  0  1  0  0  0  0  0  0
  163.1180  206.2950  147.8890 O   0  0  0  0  0  1  0  0  0  0  0  0
  161.7250  206.3600  148.0330 C   0  0  2  0  0  3  0  0  0  0  0  0
  161.0530  206.1920  146.6790 C   0  0  0  0  0  2  0  0  0  0  0  0
  161.9910  205.7250  145.7320 O   0  0  0  0  0  1  0  0  0  0  0  0
  160.1750  204.7720  152.5740 C   0  0  0  0  0  3  0  0  0  0  0  0
  160.7510  203.5900  152.3220 C   0  0  0  0  0  3  0  0  0  0  0  0
  161.9560  203.4210  151.4420 C   0  0  0  0  0  2  0  0  0  0  0  0
  161.8270  202.2840  150.6240 O   0  0  0  0  0  0  0  0  0  0  0  0
  160.9540  202.6650  149.5990 C   0  0  0  0  0  2  0  0  0  0  0  0
  161.0490  200.5660  148.1920 C   0  0  0  0  0  2  0  0  0  0  0  0
  160.5750  202.7840  147.1580 C   0  0  0  0  0  2  0  0  0  0  0  0
  161.3540  202.0670  148.2560 C   0  0  0  0  0  3  0  0  0  0  0  0
  161.4420  200.0100  146.8260 C   0  0  0  0  0  2  0  0  0  0  0  0
  160.6580  200.7240  145.7260 C   0  0  0  0  0  2  0  0  0  0  0  0
  160.9300  202.2250  145.7830 C   0  0  0  0  0  2  0  0  0  0  0  0
  1  2  2  0  0  0  0
  3  1  1  0  0  0  0
  4  5  2  0  0  0  0
  5  1  1  0  0  0  0
  5  6  1  0  0  0  0
  7  9  2  0  0  0  0
  8  6  1  0  0  0  0
 10  8  1  0  0  0  0
 10  7  1  0  0  0  0
 11  4  1  0  0  0  0
 11 10  1  0  0  0  0
 12 19  1  6  0  0  0
 12 18  1  0  0  0  0
 12  7  1  0  0  0  0
 13 17  1  0  0  0  0
 14 15  2  0  0  0  0
 14 18  1  0  0  0  0
 15 16  1  0  0  0  0
 16 17  2  0  0  0  0
 18 13  2  0  0  0  0
 20 19  1  0  0  0  0
 21 20  1  0  0  0  0
 22 21  1  0  0  0  0
 23 21  1  0  0  0  0
 24 21  2  0  0  0  0
 25  3  1  1  0  0  0
 26 27  2  0  0  0  0
 27 37  1  0  0  0  0
 27 25  1  0  0  0  0
 28 25  1  0  0  0  0
 29 28  1  0  0  0  0
 30 26  1  0  0  0  0
 30 29  1  0  0  0  0
 31 32  1  1  0  0  0
 31 30  1  0  0  0  0
 34 33  1  6  0  0  0
 34 31  1  0  0  0  0
 35 34  1  0  0  0  0
 36 35  1  0  0  0  0
 38 37  2  0  0  0  0
 39 38  1  0  0  0  0
 40 39  1  0  0  0  0
 41 40  1  0  0  0  0
 42 44  1  0  0  0  0
 43 44  1  0  0  0  0
 44 41  1  0  0  0  0
 45 42  1  0  0  0  0
 46 47  1  0  0  0  0
 46 45  1  0  0  0  0
 47 43  1  0  0  0  0
M  END
>  <MODEL>
5

>  <REMARK>
 VINA RESULT:      -5.5      2.609      3.385
  Name = 
  15 active torsions:
  status: ('A' for Active; 'I' for Inactive)
    1  A    between atoms: C_3  and  N_40
    2  A    between atoms: C_3  and  C_46
    3  A    between atoms: C_4  and  O_15
    4  A    between atoms: C_4  and  C_22
    5  A    between atoms: C_6  and  C_19
    6  A    between atoms: C_8  and  N_25
    7  A    between atoms: O_12  and  P_18
    8  A    between atoms: O_12  and  N_42
    9  A    between atoms: C_14  and  C_28
   10  A    between atoms: O_15  and  C_45
   11  A    between atoms: C_16  and  C_46
   12  A    between atoms: C_24  and  C_30
   13  A    between atoms: C_30  and  C_37
   14  A    between atoms: C_30  and  N_42
   15  A    between atoms: C_45  and  C_47
                            x       y       z     vdW  Elec       q    Type
                         _______ _______ _______ _____ _____    ______ ____

>  <TORSDO>
F 15

$$$$
=
 OpenBabel11072414533D

 47 50  0  0  1  0  0  0  0  0999 V2000
  162.2150  207.0470  152.1480 C   0  0  0  0  0  0  0  0  0  0  0  0
  162.6420  205.8820  152.4910 N   0  0  0  0  0  2  0  0  0  0  0  0
  162.4760  207.5120  150.8190 N   0  0  0  0  0  2  0  0  0  0  0  0
  161.9320  209.1640  153.3230 C   0  0  0  0  0  3  0  0  0  0  0  0
  161.5600  207.8960  153.1640 C   0  0  0  0  0  0  0  0  0  0  0  0
  160.5540  207.3420  154.0160 N   0  0  0  0  0  2  0  0  0  0  0  0
  159.0550  210.3770  155.4170 C   0  0  0  0  0  0  0  0  0  0  0  0
  160.0160  208.0890  155.1530 C   0  0  0  0  0  2  0  0  0  0  0  0
  157.9930  209.8570  155.8600 O   0  0  0  0  0  0  0  0  0  0  0  0
  160.0880  209.5250  154.8960 N   0  0  0  0  0  0  0  0  0  0  0  0
  161.3440  210.0580  154.3790 C   0  0  0  0  0  2  0  0  0  0  0  0
  159.1700  211.8890  155.3760 C   0  0  2  0  0  3  0  0  0  0  0  0
  157.9720  213.6460  156.7760 C   0  0  0  0  0  3  0  0  0  0  0  0
  156.7220  212.3300  155.1700 C   0  0  0  0  0  3  0  0  0  0  0  0
  155.5570  213.0130  155.5250 C   0  0  0  0  0  3  0  0  0  0  0  0
  155.6010  214.0180  156.4990 C   0  0  0  0  0  3  0  0  0  0  0  0
  156.8070  214.3320  157.1230 C   0  0  0  0  0  3  0  0  0  0  0  0
  157.9350  212.6470  155.7850 C   0  0  0  0  0  0  0  0  0  0  0  0
  159.7020  212.3790  154.1040 N   0  0  0  0  0  2  0  0  0  0  0  0
  159.2750  213.6570  153.9050 O   0  0  0  0  0  0  0  0  0  0  0  0
  158.6760  213.6940  152.3120 P   0  0  0  0  0  0  0  0  0  0  0  0
  157.3690  214.4530  152.3000 O   0  0  0  0  0  1  0  0  0  0  0  0
  158.3910  212.1030  151.7790 O   0  0  0  0  0  1  0  0  0  0  0  0
  159.7770  214.4530  151.2570 O   0  0  0  0  0  0  0  0  0  0  0  0
  161.9200  208.7390  150.2640 C   0  0  2  0  0  3  0  0  0  0  0  0
  162.1330  210.1860  148.2930 C   0  0  0  0  0  3  0  0  0  0  0  0
  162.2980  208.9610  148.8110 C   0  0  0  0  0  0  0  0  0  0  0  0
  162.3330  209.9500  151.0860 C   0  0  0  0  0  2  0  0  0  0  0  0
  161.5650  211.1450  150.5650 C   0  0  0  0  0  2  0  0  0  0  0  0
  161.7440  211.3090  149.1160 N   0  0  0  0  0  0  0  0  0  0  0  0
  161.6000  212.6600  148.5440 C   0  0  1  0  0  3  0  0  0  0  0  0
  162.9020  213.1930  147.9360 C   0  0  0  0  0  1  0  0  0  0  0  0
  160.6940  213.6670  146.5420 O   0  0  0  0  0  1  0  0  0  0  0  0
  160.4520  212.7000  147.5270 C   0  0  2  0  0  3  0  0  0  0  0  0
  159.1150  212.9680  148.2020 C   0  0  0  0  0  2  0  0  0  0  0  0
  158.7710  214.3300  148.0630 O   0  0  0  0  0  1  0  0  0  0  0  0
  162.6980  207.8660  147.9040 C   0  0  0  0  0  3  0  0  0  0  0  0
  161.9070  206.8460  147.5490 C   0  0  0  0  0  3  0  0  0  0  0  0
  160.5140  206.6500  148.0730 C   0  0  0  0  0  2  0  0  0  0  0  0
  160.3120  205.3220  148.4880 O   0  0  0  0  0  0  0  0  0  0  0  0
  161.5730  204.7200  148.4210 C   0  0  0  0  0  2  0  0  0  0  0  0
  160.8590  203.3130  150.3960 C   0  0  0  0  0  2  0  0  0  0  0  0
  160.8680  202.3730  148.0880 C   0  0  0  0  0  2  0  0  0  0  0  0
  161.5770  203.3290  149.0420 C   0  0  0  0  0  3  0  0  0  0  0  0
  160.8630  201.9000  150.9740 C   0  0  0  0  0  2  0  0  0  0  0  0
  160.1480  200.9430  150.0210 C   0  0  0  0  0  2  0  0  0  0  0  0
  160.8350  200.9580  148.6570 C   0  0  0  0  0  2  0  0  0  0  0  0
  1  2  2  0  0  0  0
  1  5  1  0  0  0  0
  3  1  1  0  0  0  0
  4 11  1  0  0  0  0
  5  4  2  0  0  0  0
  5  6  1  0  0  0  0
  6  8  1  0  0  0  0
  7  9  2  0  0  0  0
 10  8  1  0  0  0  0
 10  7  1  0  0  0  0
 11 10  1  0  0  0  0
 12 19  1  6  0  0  0
 12  7  1  0  0  0  0
 12 18  1  0  0  0  0
 13 17  1  0  0  0  0
 14 15  2  0  0  0  0
 14 18  1  0  0  0  0
 15 16  1  0  0  0  0
 16 17  2  0  0  0  0
 18 13  2  0  0  0  0
 20 19  1  0  0  0  0
 21 20  1  0  0  0  0
 22 21  1  0  0  0  0
 23 21  1  0  0  0  0
 24 21  2  0  0  0  0
 25  3  1  1  0  0  0
 25 28  1  0  0  0  0
 26 27  2  0  0  0  0
 26 30  1  0  0  0  0
 27 25  1  0  0  0  0
 29 28  1  0  0  0  0
 30 29  1  0  0  0  0
 31 32  1  6  0  0  0
 31 30  1  0  0  0  0
 34 33  1  6  0  0  0
 34 35  1  0  0  0  0
 34 31  1  0  0  0  0
 36 35  1  0  0  0  0
 37 27  1  0  0  0  0
 38 37  2  0  0  0  0
 38 39  1  0  0  0  0
 39 40  1  0  0  0  0
 41 40  1  0  0  0  0
 41 44  1  0  0  0  0
 42 45  1  0  0  0  0
 43 47  1  0  0  0  0
 43 44  1  0  0  0  0
 44 42  1  0  0  0  0
 46 45  1  0  0  0  0
 47 46  1  0  0  0  0
M  END
>  <MODEL>
6

>  <REMARK>
 VINA RESULT:      -4.8      2.752      4.918
  Name = 
  15 active torsions:
  status: ('A' for Active; 'I' for Inactive)
    1  A    between atoms: C_3  and  N_40
    2  A    between atoms: C_3  and  C_46
    3  A    between atoms: C_4  and  O_15
    4  A    between atoms: C_4  and  C_22
    5  A    between atoms: C_6  and  C_19
    6  A    between atoms: C_8  and  N_25
    7  A    between atoms: O_12  and  P_18
    8  A    between atoms: O_12  and  N_42
    9  A    between atoms: C_14  and  C_28
   10  A    between atoms: O_15  and  C_45
   11  A    between atoms: C_16  and  C_46
   12  A    between atoms: C_24  and  C_30
   13  A    between atoms: C_30  and  C_37
   14  A    between atoms: C_30  and  N_42
   15  A    between atoms: C_45  and  C_47
                            x       y       z     vdW  Elec       q    Type
                         _______ _______ _______ _____ _____    ______ ____

>  <TORSDO>
F 15

$$$$
=
 OpenBabel11072414533D

 47 50  0  0  1  0  0  0  0  0999 V2000
  160.5380  207.7390  154.1710 C   0  0  0  0  0  0  0  0  0  0  0  0
  160.6860  206.9470  155.1750 N   0  0  0  0  0  2  0  0  0  0  0  0
  159.7410  208.9180  154.3360 N   0  0  0  0  0  2  0  0  0  0  0  0
  161.3140  206.0730  152.5710 C   0  0  0  0  0  3  0  0  0  0  0  0
  161.1140  207.3550  152.8660 C   0  0  0  0  0  0  0  0  0  0  0  0
  161.5060  208.3650  151.9340 N   0  0  0  0  0  2  0  0  0  0  0  0
  161.9020  206.3930  148.8720 C   0  0  0  0  0  0  0  0  0  0  0  0
  162.2490  208.0390  150.7160 C   0  0  0  0  0  2  0  0  0  0  0  0
  161.8980  207.3500  148.0470 O   0  0  0  0  0  0  0  0  0  0  0  0
  161.9330  206.6800  150.2780 N   0  0  0  0  0  0  0  0  0  0  0  0
  161.9510  205.6240  151.2850 C   0  0  0  0  0  2  0  0  0  0  0  0
  161.7940  204.9740  148.3480 C   0  0  2  0  0  3  0  0  0  0  0  0
  162.2060  205.7560  145.9600 C   0  0  0  0  0  3  0  0  0  0  0  0
  160.8530  203.7860  146.3650 C   0  0  0  0  0  3  0  0  0  0  0  0
  160.6750  203.6320  144.9890 C   0  0  0  0  0  3  0  0  0  0  0  0
  161.2680  204.5340  144.0980 C   0  0  0  0  0  3  0  0  0  0  0  0
  162.0320  205.5950  144.5840 C   0  0  0  0  0  3  0  0  0  0  0  0
  161.6250  204.8410  146.8580 C   0  0  0  0  0  0  0  0  0  0  0  0
  160.8010  204.1810  149.0720 N   0  0  0  0  0  2  0  0  0  0  0  0
  161.4370  203.2020  149.7740 O   0  0  0  0  0  0  0  0  0  0  0  0
  160.7340  201.7410  149.2570 P   0  0  0  0  0  0  0  0  0  0  0  0
  159.2520  201.9600  149.0480 O   0  0  0  0  0  1  0  0  0  0  0  0
  160.9480  200.5540  150.4570 O   0  0  0  0  0  1  0  0  0  0  0  0
  161.4330  201.2010  147.8000 O   0  0  0  0  0  0  0  0  0  0  0  0
  159.6220  209.9650  153.3300 C   0  0  2  0  0  3  0  0  0  0  0  0
  160.4710  212.2140  152.8360 C   0  0  0  0  0  3  0  0  0  0  0  0
  160.6700  211.0520  153.4740 C   0  0  0  0  0  0  0  0  0  0  0  0
  158.2360  210.5910  153.3510 C   0  0  0  0  0  2  0  0  0  0  0  0
  158.1330  211.5220  152.1630 C   0  0  0  0  0  2  0  0  0  0  0  0
  159.2340  212.4930  152.1430 N   0  0  0  0  0  0  0  0  0  0  0  0
  159.0100  213.7880  151.4740 C   0  0  1  0  0  3  0  0  0  0  0  0
  160.2990  214.4060  150.9210 C   0  0  0  0  0  1  0  0  0  0  0  0
  158.4460  214.0630  149.1390 O   0  0  0  0  0  1  0  0  0  0  0  0
  157.9410  213.6560  150.3820 C   0  0  2  0  0  3  0  0  0  0  0  0
  156.6910  214.4530  150.7220 C   0  0  0  0  0  2  0  0  0  0  0  0
  155.6730  214.1750  149.7830 O   0  0  0  0  0  1  0  0  0  0  0  0
  161.9620  210.8440  154.1600 C   0  0  0  0  0  3  0  0  0  0  0  0
  162.1530  210.9820  155.4780 C   0  0  0  0  0  3  0  0  0  0  0  0
  161.0820  211.4230  156.4340 C   0  0  0  0  0  2  0  0  0  0  0  0
  161.2760  212.7580  156.8280 O   0  0  0  0  0  0  0  0  0  0  0  0
  160.0210  213.2000  157.2610 C   0  0  0  0  0  2  0  0  0  0  0  0
  157.7300  212.1880  156.9180 C   0  0  0  0  0  2  0  0  0  0  0  0
  158.4570  214.1860  155.6180 C   0  0  0  0  0  2  0  0  0  0  0  0
  158.9250  212.8810  156.2530 C   0  0  0  0  0  3  0  0  0  0  0  0
  156.6450  211.9060  155.8830 C   0  0  0  0  0  2  0  0  0  0  0  0
  156.1720  213.2140  155.2500 C   0  0  0  0  0  2  0  0  0  0  0  0
  157.3510  213.9320  154.5980 C   0  0  0  0  0  2  0  0  0  0  0  0
  1  3  1  0  0  0  0
  1  2  2  0  0  0  0
  4  5  2  0  0  0  0
  5  1  1  0  0  0  0
  6  5  1  0  0  0  0
  7 10  1  0  0  0  0
  8  6  1  0  0  0  0
  9  7  2  0  0  0  0
 10  8  1  0  0  0  0
 10 11  1  0  0  0  0
 11  4  1  0  0  0  0
 12  7  1  1  0  0  0
 12 19  1  0  0  0  0
 13 18  1  0  0  0  0
 14 18  2  0  0  0  0
 15 14  1  0  0  0  0
 16 17  1  0  0  0  0
 16 15  2  0  0  0  0
 17 13  2  0  0  0  0
 18 12  1  0  0  0  0
 19 20  1  0  0  0  0
 21 20  1  0  0  0  0
 21 23  1  0  0  0  0
 22 21  1  0  0  0  0
 24 21  2  0  0  0  0
 25 28  1  0  0  0  0
 25 27  1  0  0  0  0
 25  3  1  1  0  0  0
 26 27  2  0  0  0  0
 27 37  1  0  0  0  0
 29 28  1  0  0  0  0
 30 29  1  0  0  0  0
 30 26  1  0  0  0  0
 31 32  1  6  0  0  0
 31 30  1  0  0  0  0
 34 33  1  6  0  0  0
 34 35  1  0  0  0  0
 34 31  1  0  0  0  0
 36 35  1  0  0  0  0
 37 38  2  0  0  0  0
 38 39  1  0  0  0  0
 39 40  1  0  0  0  0
 40 41  1  0  0  0  0
 43 44  1  0  0  0  0
 44 42  1  0  0  0  0
 44 41  1  0  0  0  0
 45 42  1  0  0  0  0
 46 45  1  0  0  0  0
 47 46  1  0  0  0  0
 47 43  1  0  0  0  0
M  END
>  <MODEL>
7

>  <REMARK>
 VINA RESULT:      -4.3      3.207     10.467
  Name = 
  15 active torsions:
  status: ('A' for Active; 'I' for Inactive)
    1  A    between atoms: C_3  and  N_40
    2  A    between atoms: C_3  and  C_46
    3  A    between atoms: C_4  and  O_15
    4  A    between atoms: C_4  and  C_22
    5  A    between atoms: C_6  and  C_19
    6  A    between atoms: C_8  and  N_25
    7  A    between atoms: O_12  and  P_18
    8  A    between atoms: O_12  and  N_42
    9  A    between atoms: C_14  and  C_28
   10  A    between atoms: O_15  and  C_45
   11  A    between atoms: C_16  and  C_46
   12  A    between atoms: C_24  and  C_30
   13  A    between atoms: C_30  and  C_37
   14  A    between atoms: C_30  and  N_42
   15  A    between atoms: C_45  and  C_47
                            x       y       z     vdW  Elec       q    Type
                         _______ _______ _______ _____ _____    ______ ____

>  <TORSDO>
F 15

$$$$
=
 OpenBabel11072414533D

 47 50  0  0  1  0  0  0  0  0999 V2000
  161.1860  207.6530  154.8060 C   0  0  0  0  0  0  0  0  0  0  0  0
  161.8230  206.8410  155.5770 N   0  0  0  0  0  2  0  0  0  0  0  0
  160.3810  208.6770  155.4010 N   0  0  0  0  0  2  0  0  0  0  0  0
  162.1940  206.6900  152.8070 C   0  0  0  0  0  3  0  0  0  0  0  0
  161.2350  207.4390  153.3450 C   0  0  0  0  0  0  0  0  0  0  0  0
  160.2770  208.0790  152.4980 N   0  0  0  0  0  2  0  0  0  0  0  0
  160.7330  206.2170  149.3760 C   0  0  0  0  0  0  0  0  0  0  0  0
  160.4000  208.0470  151.0400 C   0  0  0  0  0  2  0  0  0  0  0  0
  159.6620  206.5700  148.8060 O   0  0  0  0  0  0  0  0  0  0  0  0
  161.1020  206.8370  150.6180 N   0  0  0  0  0  0  0  0  0  0  0  0
  162.3300  206.4850  151.3240 C   0  0  0  0  0  2  0  0  0  0  0  0
  161.5490  205.0930  148.7690 C   0  0  2  0  0  3  0  0  0  0  0  0
  160.6760  205.5820  146.4280 C   0  0  0  0  0  3  0  0  0  0  0  0
  162.9180  204.7070  146.7190 C   0  0  0  0  0  3  0  0  0  0  0  0
  163.1020  204.7350  145.3340 C   0  0  0  0  0  3  0  0  0  0  0  0
  162.0770  205.1940  144.4980 C   0  0  0  0  0  3  0  0  0  0  0  0
  160.8660  205.6160  145.0460 C   0  0  0  0  0  3  0  0  0  0  0  0
  161.7110  205.1380  147.2730 C   0  0  0  0  0  0  0  0  0  0  0  0
  161.1100  203.7720  149.2200 N   0  0  0  0  0  2  0  0  0  0  0  0
  161.6280  202.8220  148.3920 O   0  0  0  0  0  0  0  0  0  0  0  0
  160.8950  201.3600  148.8610 P   0  0  0  0  0  0  0  0  0  0  0  0
  159.3930  201.5370  148.8330 O   0  0  0  0  0  1  0  0  0  0  0  0
  161.3720  200.9720  150.4470 O   0  0  0  0  0  1  0  0  0  0  0  0
  161.3300  200.0880  147.8140 O   0  0  0  0  0  0  0  0  0  0  0  0
  159.7380  209.7440  154.6470 C   0  0  2  0  0  3  0  0  0  0  0  0
  160.2320  211.9600  153.7140 C   0  0  0  0  0  3  0  0  0  0  0  0
  160.7160  210.7800  154.1260 C   0  0  0  0  0  0  0  0  0  0  0  0
  158.6650  210.4340  155.4770 C   0  0  0  0  0  2  0  0  0  0  0  0
  157.9210  211.3880  154.5690 C   0  0  0  0  0  2  0  0  0  0  0  0
  158.8400  212.3080  153.8860 N   0  0  0  0  0  0  0  0  0  0  0  0
  158.3240  213.6220  153.4620 C   0  0  1  0  0  3  0  0  0  0  0  0
  159.0670  214.1930  152.2480 C   0  0  0  0  0  1  0  0  0  0  0  0
  156.5130  213.9000  151.8840 O   0  0  0  0  0  1  0  0  0  0  0  0
  156.8120  213.5550  153.2090 C   0  0  2  0  0  3  0  0  0  0  0  0
  156.0440  214.4530  154.1670 C   0  0  0  0  0  2  0  0  0  0  0  0
  155.2480  213.6680  155.0290 O   0  0  0  0  0  1  0  0  0  0  0  0
  162.1510  210.5010  153.9150 C   0  0  0  0  0  3  0  0  0  0  0  0
  162.7390  210.4070  152.7150 C   0  0  0  0  0  3  0  0  0  0  0  0
  161.9990  210.5210  151.4140 C   0  0  0  0  0  2  0  0  0  0  0  0
  162.8520  210.9620  150.3860 O   0  0  0  0  0  0  0  0  0  0  0  0
  162.1170  210.8040  149.2060 C   0  0  0  0  0  2  0  0  0  0  0  0
  163.0200  212.8270  147.9860 C   0  0  0  0  0  2  0  0  0  0  0  0
  160.7740  211.8940  147.4380 C   0  0  0  0  0  2  0  0  0  0  0  0
  161.7750  212.1410  148.5620 C   0  0  0  0  0  3  0  0  0  0  0  0
  162.6340  214.1500  147.3310 C   0  0  0  0  0  2  0  0  0  0  0  0
  161.6350  213.9020  146.2010 C   0  0  0  0  0  2  0  0  0  0  0  0
  160.3930  213.2010  146.7480 C   0  0  0  0  0  2  0  0  0  0  0  0
  1  3  1  0  0  0  0
  1  2  2  0  0  0  0
  4  5  2  0  0  0  0
  5  1  1  0  0  0  0
  6  5  1  0  0  0  0
  7 10  1  0  0  0  0
  8  6  1  0  0  0  0
  9  7  2  0  0  0  0
 10  8  1  0  0  0  0
 10 11  1  0  0  0  0
 11  4  1  0  0  0  0
 12 19  1  6  0  0  0
 12  7  1  0  0  0  0
 13 18  1  0  0  0  0
 14 18  2  0  0  0  0
 15 14  1  0  0  0  0
 16 17  1  0  0  0  0
 16 15  2  0  0  0  0
 17 13  2  0  0  0  0
 18 12  1  0  0  0  0
 20 21  1  0  0  0  0
 20 19  1  0  0  0  0
 21 23  1  0  0  0  0
 22 21  1  0  0  0  0
 24 21  2  0  0  0  0
 25  3  1  1  0  0  0
 25 28  1  0  0  0  0
 26 30  1  0  0  0  0
 26 27  2  0  0  0  0
 27 25  1  0  0  0  0
 29 28  1  0  0  0  0
 30 29  1  0  0  0  0
 31 32  1  6  0  0  0
 31 30  1  0  0  0  0
 34 33  1  6  0  0  0
 34 31  1  0  0  0  0
 34 35  1  0  0  0  0
 35 36  1  0  0  0  0
 37 27  1  0  0  0  0
 38 37  2  0  0  0  0
 39 38  1  0  0  0  0
 40 39  1  0  0  0  0
 41 40  1  0  0  0  0
 42 44  1  0  0  0  0
 43 44  1  0  0  0  0
 44 41  1  0  0  0  0
 45 42  1  0  0  0  0
 46 47  1  0  0  0  0
 46 45  1  0  0  0  0
 47 43  1  0  0  0  0
M  END
>  <MODEL>
8

>  <REMARK>
 VINA RESULT:      -4.2      3.322      9.822
  Name = 
  15 active torsions:
  status: ('A' for Active; 'I' for Inactive)
    1  A    between atoms: C_3  and  N_40
    2  A    between atoms: C_3  and  C_46
    3  A    between atoms: C_4  and  O_15
    4  A    between atoms: C_4  and  C_22
    5  A    between atoms: C_6  and  C_19
    6  A    between atoms: C_8  and  N_25
    7  A    between atoms: O_12  and  P_18
    8  A    between atoms: O_12  and  N_42
    9  A    between atoms: C_14  and  C_28
   10  A    between atoms: O_15  and  C_45
   11  A    between atoms: C_16  and  C_46
   12  A    between atoms: C_24  and  C_30
   13  A    between atoms: C_30  and  C_37
   14  A    between atoms: C_30  and  N_42
   15  A    between atoms: C_45  and  C_47
                            x       y       z     vdW  Elec       q    Type
                         _______ _______ _______ _____ _____    ______ ____

>  <TORSDO>
F 15

$$$$
=
 OpenBabel11072414533D

 47 50  0  0  1  0  0  0  0  0999 V2000
  161.8310  212.2160  149.2770 C   0  0  0  0  0  0  0  0  0  0  0  0
  162.6010  212.8520  148.4630 N   0  0  0  0  0  2  0  0  0  0  0  0
  160.9520  212.9690  150.1210 N   0  0  0  0  0  2  0  0  0  0  0  0
  161.7390  210.1330  150.5380 C   0  0  0  0  0  3  0  0  0  0  0  0
  161.9530  210.7480  149.3770 C   0  0  0  0  0  0  0  0  0  0  0  0
  162.3500  209.9850  148.2350 N   0  0  0  0  0  2  0  0  0  0  0  0
  161.4680  206.5930  149.3020 C   0  0  0  0  0  0  0  0  0  0  0  0
  162.6640  208.5590  148.3360 C   0  0  0  0  0  2  0  0  0  0  0  0
  161.5070  206.0390  148.1670 O   0  0  0  0  0  0  0  0  0  0  0  0
  161.9130  207.9520  149.4330 N   0  0  0  0  0  0  0  0  0  0  0  0
  161.9060  208.6490  150.7150 C   0  0  0  0  0  2  0  0  0  0  0  0
  160.8750  205.8290  150.4700 C   0  0  2  0  0  3  0  0  0  0  0  0
  162.0410  205.8200  152.7330 C   0  0  0  0  0  3  0  0  0  0  0  0
  160.4450  207.5670  152.2080 C   0  0  0  0  0  3  0  0  0  0  0  0
  160.6640  208.1370  153.4650 C   0  0  0  0  0  3  0  0  0  0  0  0
  161.5760  207.5530  154.3520 C   0  0  0  0  0  3  0  0  0  0  0  0
  162.2630  206.3960  153.9850 C   0  0  0  0  0  3  0  0  0  0  0  0
  161.1370  206.4140  151.8320 C   0  0  0  0  0  0  0  0  0  0  0  0
  161.1960  204.4020  150.4290 N   0  0  0  0  0  2  0  0  0  0  0  0
  160.0550  203.6940  150.2000 O   0  0  0  0  0  0  0  0  0  0  0  0
  160.5520  202.2720  149.4080 P   0  0  0  0  0  0  0  0  0  0  0  0
  159.3270  201.4730  149.0260 O   0  0  0  0  0  1  0  0  0  0  0  0
  161.5060  201.3410  150.4660 O   0  0  0  0  0  1  0  0  0  0  0  0
  161.4500  202.6290  148.0050 O   0  0  0  0  0  0  0  0  0  0  0  0
  159.9310  212.3690  150.9700 C   0  0  2  0  0  3  0  0  0  0  0  0
  157.8630  212.9690  152.1480 C   0  0  0  0  0  3  0  0  0  0  0  0
  158.7090  213.2510  151.1470 C   0  0  0  0  0  0  0  0  0  0  0  0
  160.4960  212.0050  152.3340 C   0  0  0  0  0  2  0  0  0  0  0  0
  159.4370  211.2200  153.0780 C   0  0  0  0  0  2  0  0  0  0  0  0
  158.1620  211.9480  153.1250 N   0  0  0  0  0  0  0  0  0  0  0  0
  157.2420  211.6690  154.2440 C   0  0  1  0  0  3  0  0  0  0  0  0
  157.9200  210.9310  155.4040 C   0  0  0  0  0  1  0  0  0  0  0  0
  156.8810  213.2180  156.0640 O   0  0  0  0  0  1  0  0  0  0  0  0
  156.5650  212.9590  154.7230 C   0  0  2  0  0  3  0  0  0  0  0  0
  155.0550  212.8980  154.5470 C   0  0  0  0  0  2  0  0  0  0  0  0
  154.7020  213.3570  153.2590 O   0  0  0  0  0  1  0  0  0  0  0  0
  158.3310  214.3090  150.1880 C   0  0  0  0  0  3  0  0  0  0  0  0
  157.6130  214.1060  149.0770 C   0  0  0  0  0  3  0  0  0  0  0  0
  157.1370  212.7550  148.6270 C   0  0  0  0  0  2  0  0  0  0  0  0
  157.2900  212.6030  147.2370 O   0  0  0  0  0  0  0  0  0  0  0  0
  157.5020  213.8960  146.7470 C   0  0  0  0  0  2  0  0  0  0  0  0
  159.9990  213.9810  146.3580 C   0  0  0  0  0  2  0  0  0  0  0  0
  158.5070  212.6870  144.8380 C   0  0  0  0  0  2  0  0  0  0  0  0
  158.6120  213.9370  145.7050 C   0  0  0  0  0  3  0  0  0  0  0  0
  161.0840  213.9970  145.2840 C   0  0  0  0  0  2  0  0  0  0  0  0
  160.9810  212.7430  144.4180 C   0  0  0  0  0  2  0  0  0  0  0  0
  159.6000  212.6670  143.7720 C   0  0  0  0  0  2  0  0  0  0  0  0
  1  5  1  0  0  0  0
  1  3  1  0  0  0  0
  2  1  2  0  0  0  0
  4 11  1  0  0  0  0
  5  4  2  0  0  0  0
  6  8  1  0  0  0  0
  6  5  1  0  0  0  0
  7 10  1  0  0  0  0
  8 10  1  0  0  0  0
  9  7  2  0  0  0  0
 10 11  1  0  0  0  0
 12  7  1  6  0  0  0
 12 18  1  0  0  0  0
 13 17  1  0  0  0  0
 14 15  2  0  0  0  0
 15 16  1  0  0  0  0
 17 16  2  0  0  0  0
 18 14  1  0  0  0  0
 18 13  2  0  0  0  0
 19 12  1  0  0  0  0
 20 19  1  0  0  0  0
 21 20  1  0  0  0  0
 21 23  1  0  0  0  0
 22 21  1  0  0  0  0
 24 21  2  0  0  0  0
 25  3  1  6  0  0  0
 25 27  1  0  0  0  0
 25 28  1  0  0  0  0
 26 30  1  0  0  0  0
 27 26  2  0  0  0  0
 28 29  1  0  0  0  0
 29 30  1  0  0  0  0
 30 31  1  0  0  0  0
 31 34  1  0  0  0  0
 31 32  1  1  0  0  0
 34 33  1  1  0  0  0
 35 34  1  0  0  0  0
 36 35  1  0  0  0  0
 37 27  1  0  0  0  0
 38 37  2  0  0  0  0
 39 38  1  0  0  0  0
 40 39  1  0  0  0  0
 41 40  1  0  0  0  0
 43 44  1  0  0  0  0
 44 42  1  0  0  0  0
 44 41  1  0  0  0  0
 45 42  1  0  0  0  0
 46 45  1  0  0  0  0
 47 46  1  0  0  0  0
 47 43  1  0  0  0  0
M  END
>  <MODEL>
9

>  <REMARK>
 VINA RESULT:      -3.7      3.821     10.076
  Name = 
  15 active torsions:
  status: ('A' for Active; 'I' for Inactive)
    1  A    between atoms: C_3  and  N_40
    2  A    between atoms: C_3  and  C_46
    3  A    between atoms: C_4  and  O_15
    4  A    between atoms: C_4  and  C_22
    5  A    between atoms: C_6  and  C_19
    6  A    between atoms: C_8  and  N_25
    7  A    between atoms: O_12  and  P_18
    8  A    between atoms: O_12  and  N_42
    9  A    between atoms: C_14  and  C_28
   10  A    between atoms: O_15  and  C_45
   11  A    between atoms: C_16  and  C_46
   12  A    between atoms: C_24  and  C_30
   13  A    between atoms: C_30  and  C_37
   14  A    between atoms: C_30  and  N_42
   15  A    between atoms: C_45  and  C_47
                            x       y       z     vdW  Elec       q    Type
                         _______ _______ _______ _____ _____    ______ ____

>  <TORSDO>
F 15

$$$$
