=
 OpenBabel11072414003D

 29 32  0  0  1  0  0  0  0  0999 V2000
  162.0210  209.9480  149.5070 C   0  0  0  0  0  3  0  0  0  0  0  0
  161.9770  204.3130  152.0110 C   0  0  0  0  0  1  0  0  0  0  0  0
  160.7530  201.9720  148.9120 C   0  0  0  0  0  2  0  0  0  0  0  0
  160.3300  204.0310  150.1570 C   0  0  0  0  0  2  0  0  0  0  0  0
  161.6540  207.6290  149.2130 C   0  0  0  0  0  0  0  0  0  0  0  0
  161.4720  205.3910  147.9160 C   0  0  0  0  0  0  0  0  0  0  0  0
  160.8370  206.2340  151.1010 O   0  0  0  0  0  0  0  0  0  0  0  0
  161.2550  208.6300  151.3960 C   0  0  0  0  0  0  0  0  0  0  0  0
  161.6150  203.3790  146.4950 C   0  0  0  0  0  1  0  0  0  0  0  0
  162.0180  208.8420  148.7240 N   0  0  0  0  0  0  0  0  0  0  0  0
  161.6400  209.8600  150.8430 C   0  0  0  0  0  3  0  0  0  0  0  0
  161.2540  204.0260  147.7480 N   0  0  0  0  0  0  0  0  0  0  0  0
  161.3930  204.9560  150.7700 C   0  0  1  0  0  3  0  0  0  0  0  0
  161.2640  207.4770  150.5710 C   0  0  0  0  0  0  0  0  0  0  0  0
  161.6020  206.5020  148.3430 C   0  0  0  0  0  0  0  0  0  0  0  0
  160.8300  203.2980  148.9230 C   0  0  0  0  0  0  0  0  0  0  0  0
  160.7980  209.7810  153.6100 C   0  0  0  0  0  2  0  0  0  0  0  0
  159.5830  206.9610  155.7740 C   0  0  0  0  0  1  0  0  0  0  0  0
  160.6600  207.3560  153.5430 C   0  0  2  0  0  3  0  0  0  0  0  0
  161.8310  207.0890  154.4780 C   0  0  0  0  0  2  0  0  0  0  0  0
  160.8740  208.5820  152.7890 N   0  0  0  0  0  0  0  0  0  0  0  0
  160.5370  209.3110  155.0340 C   0  0  1  0  0  3  0  0  0  0  0  0
  160.5830  207.7830  154.9880 C   0  0  2  0  0  0  0  0  0  0  0  0
  161.5810  209.8790  155.9960 C   0  0  1  0  0  3  0  0  0  0  0  0
  162.4940  210.6710  155.2960 O   0  0  0  0  0  1  0  0  0  0  0  0
  160.9070  210.7240  157.0760 C   0  0  0  0  0  2  0  0  0  0  0  0
  160.0800  213.0480  156.5530 C   0  0  0  0  0  1  0  0  0  0  0  0
  158.5850  211.3220  157.2590 O   0  0  0  0  0  1  0  0  0  0  0  0
  159.7540  211.5650  156.5350 C   0  0  2  0  0  3  0  0  0  0  0  0
  1 11  1  0  0  0  0
  3 16  2  0  0  0  0
  4 13  1  0  0  0  0
  5 14  2  0  0  0  0
  6 15  3  0  0  0  0
  8 21  1  0  0  0  0
  9 12  1  0  0  0  0
 10  5  1  0  0  0  0
 10  1  2  0  0  0  0
 11  8  2  0  0  0  0
 12  6  1  0  0  0  0
 12 16  1  0  0  0  0
 13  7  1  0  0  0  0
 13  2  1  1  0  0  0
 14  7  1  0  0  0  0
 14  8  1  0  0  0  0
 15  5  1  0  0  0  0
 16  4  1  0  0  0  0
 17 22  1  0  0  0  0
 19 20  1  1  0  0  0
 19 23  1  0  0  0  0
 20 23  1  0  0  0  0
 21 19  1  0  0  0  0
 21 17  1  0  0  0  0
 22 24  1  1  0  0  0
 23 22  1  0  0  0  0
 23 18  1  1  0  0  0
 24 25  1  6  0  0  0
 24 26  1  0  0  0  0
 29 27  1  1  0  0  0
 29 26  1  0  0  0  0
 29 28  1  0  0  0  0
M  END
>  <MODEL>
1

>  <REMARK>
 VINA RESULT:      -8.0      0.000      0.000
  Name = 
  4 active torsions:
  status: ('A' for Active; 'I' for Inactive)
    1  A    between atoms: C_7  and  C_24
    2  A    between atoms: C_7  and  C_29
    3  A    between atoms: C_13  and  N_21
    4  A    between atoms: C_14  and  C_29
                            x       y       z     vdW  Elec       q    Type
                         _______ _______ _______ _____ _____    ______ ____

>  <TORSDO>
F 4

$$$$
=
 OpenBabel11072414003D

 29 32  0  0  1  0  0  0  0  0999 V2000
  162.2290  210.8720  149.3100 C   0  0  0  0  0  3  0  0  0  0  0  0
  161.9210  205.4790  152.2840 C   0  0  0  0  0  1  0  0  0  0  0  0
  160.8860  202.8860  149.3200 C   0  0  0  0  0  2  0  0  0  0  0  0
  160.4070  205.0500  150.3480 C   0  0  0  0  0  2  0  0  0  0  0  0
  161.8490  208.5390  149.1920 C   0  0  0  0  0  0  0  0  0  0  0  0
  161.7260  206.1980  148.0860 C   0  0  0  0  0  0  0  0  0  0  0  0
  160.8790  207.3230  151.1310 O   0  0  0  0  0  0  0  0  0  0  0  0
  161.3110  209.7310  151.2460 C   0  0  0  0  0  0  0  0  0  0  0  0
  161.9390  204.0670  146.8590 C   0  0  0  0  0  1  0  0  0  0  0  0
  162.2650  209.7010  148.6270 N   0  0  0  0  0  0  0  0  0  0  0  0
  161.7530  210.9050  150.6180 C   0  0  0  0  0  3  0  0  0  0  0  0
  161.5000  204.8250  148.0210 N   0  0  0  0  0  0  0  0  0  0  0  0
  161.4370  206.0160  150.9530 C   0  0  1  0  0  3  0  0  0  0  0  0
  161.3610  208.5100  150.5270 C   0  0  0  0  0  0  0  0  0  0  0  0
  161.8410  207.3400  148.4220 C   0  0  0  0  0  0  0  0  0  0  0  0
  160.9820  204.2070  149.2220 C   0  0  0  0  0  0  0  0  0  0  0  0
  159.5960  210.4980  152.9510 C   0  0  0  0  0  2  0  0  0  0  0  0
  160.8370  208.9330  156.1330 C   0  0  0  0  0  1  0  0  0  0  0  0
  161.5700  209.3410  153.7690 C   0  0  2  0  0  3  0  0  0  0  0  0
  162.1510  210.5140  154.5450 C   0  0  0  0  0  2  0  0  0  0  0  0
  160.8310  209.8090  152.6060 N   0  0  0  0  0  0  0  0  0  0  0  0
  159.5210  210.5100  154.4710 C   0  0  1  0  0  3  0  0  0  0  0  0
  160.8310  209.8940  154.9630 C   0  0  2  0  0  0  0  0  0  0  0  0
  159.3350  211.9350  154.9970 C   0  0  1  0  0  3  0  0  0  0  0  0
  159.3580  212.8420  153.9340 O   0  0  0  0  0  1  0  0  0  0  0  0
  158.0030  212.0610  155.7360 C   0  0  0  0  0  2  0  0  0  0  0  0
  155.9400  213.1960  154.8360 C   0  0  0  0  0  1  0  0  0  0  0  0
  156.0280  210.8260  155.1370 O   0  0  0  0  0  1  0  0  0  0  0  0
  156.7980  211.9430  154.8070 C   0  0  2  0  0  3  0  0  0  0  0  0
  1 11  1  0  0  0  0
  4 13  1  0  0  0  0
  5 14  2  0  0  0  0
  6 15  3  0  0  0  0
  8 21  1  0  0  0  0
  9 12  1  0  0  0  0
 10  5  1  0  0  0  0
 10  1  2  0  0  0  0
 11  8  2  0  0  0  0
 12  6  1  0  0  0  0
 12 16  1  0  0  0  0
 13  7  1  0  0  0  0
 13  2  1  1  0  0  0
 14  7  1  0  0  0  0
 14  8  1  0  0  0  0
 15  5  1  0  0  0  0
 16  3  2  0  0  0  0
 16  4  1  0  0  0  0
 17 22  1  0  0  0  0
 19 20  1  6  0  0  0
 19 23  1  0  0  0  0
 20 23  1  0  0  0  0
 21 17  1  0  0  0  0
 21 19  1  0  0  0  0
 22 23  1  0  0  0  0
 22 24  1  1  0  0  0
 23 18  1  1  0  0  0
 24 25  1  6  0  0  0
 24 26  1  0  0  0  0
 29 27  1  1  0  0  0
 29 28  1  0  0  0  0
 29 26  1  0  0  0  0
M  END
>  <MODEL>
2

>  <REMARK>
 VINA RESULT:      -7.9      1.756      2.128
  Name = 
  4 active torsions:
  status: ('A' for Active; 'I' for Inactive)
    1  A    between atoms: C_7  and  C_24
    2  A    between atoms: C_7  and  C_29
    3  A    between atoms: C_13  and  N_21
    4  A    between atoms: C_14  and  C_29
                            x       y       z     vdW  Elec       q    Type
                         _______ _______ _______ _____ _____    ______ ____

>  <TORSDO>
F 4

$$$$
=
 OpenBabel11072414003D

 29 32  0  0  1  0  0  0  0  0999 V2000
  162.2390  208.6730  148.4440 C   0  0  0  0  0  3  0  0  0  0  0  0
  161.7560  203.7250  152.0910 C   0  0  0  0  0  1  0  0  0  0  0  0
  160.4820  200.8410  149.5140 C   0  0  0  0  0  2  0  0  0  0  0  0
  160.1530  203.1400  150.2690 C   0  0  0  0  0  2  0  0  0  0  0  0
  161.7340  206.3690  148.6360 C   0  0  0  0  0  0  0  0  0  0  0  0
  161.4490  203.9180  147.8420 C   0  0  0  0  0  0  0  0  0  0  0  0
  160.7710  205.4640  150.7420 O   0  0  0  0  0  0  0  0  0  0  0  0
  161.3320  207.8390  150.5350 C   0  0  0  0  0  0  0  0  0  0  0  0
  161.5070  201.6410  146.8920 C   0  0  0  0  0  1  0  0  0  0  0  0
  162.1890  207.4250  147.9160 N   0  0  0  0  0  0  0  0  0  0  0  0
  161.8120  208.8980  149.7500 C   0  0  0  0  0  3  0  0  0  0  0  0
  161.1490  202.5620  147.9600 N   0  0  0  0  0  0  0  0  0  0  0  0
  161.2540  204.1150  150.7160 C   0  0  1  0  0  3  0  0  0  0  0  0
  161.2920  206.5370  149.9770 C   0  0  0  0  0  0  0  0  0  0  0  0
  161.6360  205.0850  148.0270 C   0  0  0  0  0  0  0  0  0  0  0  0
  160.6420  202.1310  149.2440 C   0  0  0  0  0  0  0  0  0  0  0  0
  160.5900  209.4630  152.3380 C   0  0  0  0  0  2  0  0  0  0  0  0
  159.7860  207.1900  155.2190 C   0  0  0  0  0  1  0  0  0  0  0  0
  160.8730  207.1310  152.9580 C   0  0  2  0  0  3  0  0  0  0  0  0
  162.0320  207.3470  153.9220 C   0  0  0  0  0  2  0  0  0  0  0  0
  160.9060  208.1150  151.8880 N   0  0  0  0  0  0  0  0  0  0  0  0
  160.3520  209.3700  153.8390 C   0  0  1  0  0  3  0  0  0  0  0  0
  160.6620  207.9240  154.2250 C   0  0  2  0  0  0  0  0  0  0  0  0
  161.2420  210.3590  154.5940 C   0  0  1  0  0  3  0  0  0  0  0  0
  162.3770  210.6550  153.8350 O   0  0  0  0  0  1  0  0  0  0  0  0
  160.4790  211.6520  154.8800 C   0  0  0  0  0  2  0  0  0  0  0  0
  158.5790  212.7070  156.1590 C   0  0  0  0  0  1  0  0  0  0  0  0
  160.2480  211.3980  157.2610 O   0  0  0  0  0  1  0  0  0  0  0  0
  159.5300  211.5260  156.0700 C   0  0  2  0  0  3  0  0  0  0  0  0
  1 11  1  0  0  0  0
  4 13  1  0  0  0  0
  5 14  2  0  0  0  0
  6 12  1  0  0  0  0
  6 15  3  0  0  0  0
  8 21  1  0  0  0  0
  9 12  1  0  0  0  0
 10  1  2  0  0  0  0
 10  5  1  0  0  0  0
 11  8  2  0  0  0  0
 12 16  1  0  0  0  0
 13  7  1  0  0  0  0
 13  2  1  1  0  0  0
 14  8  1  0  0  0  0
 14  7  1  0  0  0  0
 15  5  1  0  0  0  0
 16  3  2  0  0  0  0
 16  4  1  0  0  0  0
 17 22  1  0  0  0  0
 19 20  1  1  0  0  0
 19 23  1  0  0  0  0
 20 23  1  0  0  0  0
 21 17  1  0  0  0  0
 21 19  1  0  0  0  0
 22 23  1  0  0  0  0
 22 24  1  1  0  0  0
 23 18  1  1  0  0  0
 24 25  1  6  0  0  0
 24 26  1  0  0  0  0
 26 29  1  0  0  0  0
 29 27  1  1  0  0  0
 29 28  1  0  0  0  0
M  END
>  <MODEL>
3

>  <REMARK>
 VINA RESULT:      -7.4      1.129      1.310
  Name = 
  4 active torsions:
  status: ('A' for Active; 'I' for Inactive)
    1  A    between atoms: C_7  and  C_24
    2  A    between atoms: C_7  and  C_29
    3  A    between atoms: C_13  and  N_21
    4  A    between atoms: C_14  and  C_29
                            x       y       z     vdW  Elec       q    Type
                         _______ _______ _______ _____ _____    ______ ____

>  <TORSDO>
F 4

$$$$
=
 OpenBabel11072414003D

 29 32  0  0  1  0  0  0  0  0999 V2000
  161.3230  207.5600  155.9360 C   0  0  0  0  0  3  0  0  0  0  0  0
  160.8400  211.6170  151.3170 C   0  0  0  0  0  1  0  0  0  0  0  0
  158.3700  214.4520  152.8790 C   0  0  0  0  0  2  0  0  0  0  0  0
  158.7260  212.0560  152.5690 C   0  0  0  0  0  2  0  0  0  0  0  0
  160.4320  209.6090  155.1550 C   0  0  0  0  0  0  0  0  0  0  0  0
  159.4580  212.0050  155.3320 C   0  0  0  0  0  0  0  0  0  0  0  0
  159.9030  209.9140  152.7450 O   0  0  0  0  0  0  0  0  0  0  0  0
  160.8570  207.8130  153.5670 C   0  0  0  0  0  0  0  0  0  0  0  0
  158.7990  214.3420  155.7710 C   0  0  0  0  0  1  0  0  0  0  0  0
  160.8830  208.8220  156.1650 N   0  0  0  0  0  0  0  0  0  0  0  0
  161.3130  207.0390  154.6440 C   0  0  0  0  0  3  0  0  0  0  0  0
  158.9330  213.2090  154.8680 N   0  0  0  0  0  0  0  0  0  0  0  0
  160.0790  211.3280  152.5950 C   0  0  1  0  0  3  0  0  0  0  0  0
  160.4080  209.1340  153.8160 C   0  0  0  0  0  0  0  0  0  0  0  0
  159.9190  210.9060  155.4440 C   0  0  0  0  0  0  0  0  0  0  0  0
  158.7100  213.2990  153.4420 C   0  0  0  0  0  0  0  0  0  0  0  0
  160.4250  205.8740  151.9880 C   0  0  0  0  0  2  0  0  0  0  0  0
  161.2160  207.3540  148.6260 C   0  0  0  0  0  1  0  0  0  0  0  0
  161.4400  207.8820  151.0690 C   0  0  2  0  0  3  0  0  0  0  0  0
  162.7750  207.2500  150.7020 C   0  0  0  0  0  2  0  0  0  0  0  0
  160.8710  207.2370  152.2420 N   0  0  0  0  0  0  0  0  0  0  0  0
  160.7480  205.5820  150.5290 C   0  0  1  0  0  3  0  0  0  0  0  0
  161.5000  206.8080  150.0100 C   0  0  2  0  0  0  0  0  0  0  0  0
  161.5870  204.3090  150.4010 C   0  0  1  0  0  3  0  0  0  0  0  0
  161.9210  203.8290  151.6700 O   0  0  0  0  0  1  0  0  0  0  0  0
  160.8100  203.2330  149.6450 C   0  0  0  0  0  2  0  0  0  0  0  0
  161.5810  203.9640  147.3580 C   0  0  0  0  0  1  0  0  0  0  0  0
  160.8260  201.7330  147.7650 O   0  0  0  0  0  1  0  0  0  0  0  0
  161.4930  202.8130  148.3460 C   0  0  2  0  0  3  0  0  0  0  0  0
  1 10  1  0  0  0  0
  3 16  2  0  0  0  0
  4 13  1  0  0  0  0
  4 16  1  0  0  0  0
  5 15  1  0  0  0  0
  5 10  2  0  0  0  0
  6 15  3  0  0  0  0
  7 14  1  0  0  0  0
  8 14  2  0  0  0  0
  8 11  1  0  0  0  0
 11  1  2  0  0  0  0
 12  6  1  0  0  0  0
 12  9  1  0  0  0  0
 13  2  1  6  0  0  0
 13  7  1  0  0  0  0
 14  5  1  0  0  0  0
 16 12  1  0  0  0  0
 17 21  1  0  0  0  0
 19 20  1  1  0  0  0
 19 21  1  0  0  0  0
 21  8  1  0  0  0  0
 22 24  1  1  0  0  0
 22 17  1  0  0  0  0
 23 18  1  6  0  0  0
 23 22  1  0  0  0  0
 23 20  1  0  0  0  0
 23 19  1  0  0  0  0
 24 25  1  1  0  0  0
 26 24  1  0  0  0  0
 28 29  1  0  0  0  0
 29 27  1  6  0  0  0
 29 26  1  0  0  0  0
M  END
>  <MODEL>
4

>  <REMARK>
 VINA RESULT:      -7.2      2.390      8.518
  Name = 
  4 active torsions:
  status: ('A' for Active; 'I' for Inactive)
    1  A    between atoms: C_7  and  C_24
    2  A    between atoms: C_7  and  C_29
    3  A    between atoms: C_13  and  N_21
    4  A    between atoms: C_14  and  C_29
                            x       y       z     vdW  Elec       q    Type
                         _______ _______ _______ _____ _____    ______ ____

>  <TORSDO>
F 4

$$$$
=
 OpenBabel11072414003D

 29 32  0  0  1  0  0  0  0  0999 V2000
  161.9160  209.4720  148.7830 C   0  0  0  0  0  3  0  0  0  0  0  0
  162.6940  204.5200  152.3740 C   0  0  0  0  0  1  0  0  0  0  0  0
  160.7500  201.6030  150.3010 C   0  0  0  0  0  2  0  0  0  0  0  0
  160.6200  203.8960  151.1340 C   0  0  0  0  0  2  0  0  0  0  0  0
  161.5460  207.1570  149.1100 C   0  0  0  0  0  0  0  0  0  0  0  0
  161.0850  204.6980  148.4290 C   0  0  0  0  0  0  0  0  0  0  0  0
  161.3010  206.2340  151.4050 O   0  0  0  0  0  0  0  0  0  0  0  0
  161.7190  208.6210  151.0480 C   0  0  0  0  0  0  0  0  0  0  0  0
  160.8970  202.4220  147.4960 C   0  0  0  0  0  1  0  0  0  0  0  0
  161.7340  208.2220  148.2890 N   0  0  0  0  0  0  0  0  0  0  0  0
  161.9080  209.6890  150.1580 C   0  0  0  0  0  3  0  0  0  0  0  0
  160.8670  203.3370  148.6270 N   0  0  0  0  0  0  0  0  0  0  0  0
  161.7830  204.8960  151.2240 C   0  0  1  0  0  3  0  0  0  0  0  0
  161.5370  207.3170  150.5220 C   0  0  0  0  0  0  0  0  0  0  0  0
  161.2940  205.8700  148.5530 C   0  0  0  0  0  0  0  0  0  0  0  0
  160.7910  202.8970  150.0020 C   0  0  0  0  0  0  0  0  0  0  0  0
  161.1290  207.9740  153.4290 C   0  0  0  0  0  2  0  0  0  0  0  0
  162.7390  210.7010  155.4500 C   0  0  0  0  0  1  0  0  0  0  0  0
  162.1930  210.1290  153.0690 C   0  0  2  0  0  3  0  0  0  0  0  0
  161.0170  210.9810  153.5260 C   0  0  0  0  0  2  0  0  0  0  0  0
  161.7250  208.8890  152.4670 N   0  0  0  0  0  0  0  0  0  0  0  0
  161.1820  208.6740  154.7800 C   0  0  1  0  0  3  0  0  0  0  0  0
  161.7340  210.0740  154.5060 C   0  0  2  0  0  0  0  0  0  0  0  0
  159.7940  208.7300  155.4200 C   0  0  1  0  0  3  0  0  0  0  0  0
  159.3280  207.4350  155.6610 O   0  0  0  0  0  1  0  0  0  0  0  0
  159.8470  209.4990  156.7390 C   0  0  0  0  0  2  0  0  0  0  0  0
  157.9990  210.7450  155.5600 C   0  0  0  0  0  1  0  0  0  0  0  0
  159.7420  211.9020  156.7170 O   0  0  0  0  0  1  0  0  0  0  0  0
  158.9620  210.7430  156.7340 C   0  0  2  0  0  3  0  0  0  0  0  0
  1 11  1  0  0  0  0
  4 13  1  0  0  0  0
  5 14  2  0  0  0  0
  6 15  3  0  0  0  0
  6 12  1  0  0  0  0
  8 21  1  0  0  0  0
  9 12  1  0  0  0  0
 10  1  2  0  0  0  0
 10  5  1  0  0  0  0
 11  8  2  0  0  0  0
 12 16  1  0  0  0  0
 13  7  1  0  0  0  0
 13  2  1  1  0  0  0
 14  8  1  0  0  0  0
 14  7  1  0  0  0  0
 15  5  1  0  0  0  0
 16  3  2  0  0  0  0
 16  4  1  0  0  0  0
 17 22  1  0  0  0  0
 19 20  1  6  0  0  0
 19 23  1  0  0  0  0
 20 23  1  0  0  0  0
 21 19  1  0  0  0  0
 21 17  1  0  0  0  0
 22 24  1  6  0  0  0
 23 22  1  0  0  0  0
 23 18  1  1  0  0  0
 24 25  1  1  0  0  0
 24 26  1  0  0  0  0
 28 29  1  0  0  0  0
 29 27  1  6  0  0  0
 29 26  1  0  0  0  0
M  END
>  <MODEL>
5

>  <REMARK>
 VINA RESULT:      -7.1      1.362      2.025
  Name = 
  4 active torsions:
  status: ('A' for Active; 'I' for Inactive)
    1  A    between atoms: C_7  and  C_24
    2  A    between atoms: C_7  and  C_29
    3  A    between atoms: C_13  and  N_21
    4  A    between atoms: C_14  and  C_29
                            x       y       z     vdW  Elec       q    Type
                         _______ _______ _______ _____ _____    ______ ____

>  <TORSDO>
F 4

$$$$
=
 OpenBabel11072414003D

 29 32  0  0  1  0  0  0  0  0999 V2000
  162.3080  210.3350  148.5350 C   0  0  0  0  0  3  0  0  0  0  0  0
  162.3380  206.0720  152.9900 C   0  0  0  0  0  1  0  0  0  0  0  0
  160.7080  202.8350  151.1350 C   0  0  0  0  0  2  0  0  0  0  0  0
  160.4930  205.2350  151.5340 C   0  0  0  0  0  2  0  0  0  0  0  0
  161.8310  208.1090  149.1790 C   0  0  0  0  0  0  0  0  0  0  0  0
  161.4330  205.5670  148.8540 C   0  0  0  0  0  0  0  0  0  0  0  0
  161.1750  207.5890  151.5200 O   0  0  0  0  0  0  0  0  0  0  0  0
  161.7050  209.8820  150.8420 C   0  0  0  0  0  0  0  0  0  0  0  0
  161.3520  203.1640  148.3000 C   0  0  0  0  0  1  0  0  0  0  0  0
  162.1820  209.0190  148.2350 N   0  0  0  0  0  0  0  0  0  0  0  0
  162.0700  210.7840  149.8310 C   0  0  0  0  0  3  0  0  0  0  0  0
  161.1510  204.2580  149.2380 N   0  0  0  0  0  0  0  0  0  0  0  0
  161.6470  206.2430  151.6530 C   0  0  1  0  0  3  0  0  0  0  0  0
  161.5850  208.5070  150.5210 C   0  0  0  0  0  0  0  0  0  0  0  0
  161.6460  206.7440  148.8130 C   0  0  0  0  0  0  0  0  0  0  0  0
  160.8310  204.0590  150.6340 C   0  0  0  0  0  0  0  0  0  0  0  0
  162.3910  210.1180  153.2740 C   0  0  0  0  0  2  0  0  0  0  0  0
  159.7870  212.4510  154.6460 C   0  0  0  0  0  1  0  0  0  0  0  0
  160.2720  211.0930  152.5930 C   0  0  2  0  0  3  0  0  0  0  0  0
  159.3850  210.1870  153.4360 C   0  0  0  0  0  2  0  0  0  0  0  0
  161.4750  210.3890  152.1750 N   0  0  0  0  0  0  0  0  0  0  0  0
  161.7300  210.6650  154.5300 C   0  0  1  0  0  3  0  0  0  0  0  0
  160.3470  211.1550  154.0990 C   0  0  2  0  0  0  0  0  0  0  0  0
  161.6350  209.5860  155.6110 C   0  0  1  0  0  3  0  0  0  0  0  0
  161.0730  210.1220  156.7720 O   0  0  0  0  0  1  0  0  0  0  0  0
  160.7720  208.4210  155.1260 C   0  0  0  0  0  2  0  0  0  0  0  0
  160.7840  207.0790  157.2600 C   0  0  0  0  0  1  0  0  0  0  0  0
  158.9690  206.9410  155.7110 O   0  0  0  0  0  1  0  0  0  0  0  0
  159.9280  207.8080  156.2400 C   0  0  2  0  0  3  0  0  0  0  0  0
  1 11  1  0  0  0  0
  4 13  1  0  0  0  0
  5 14  2  0  0  0  0
  6 12  1  0  0  0  0
  7 13  1  0  0  0  0
  8 21  1  0  0  0  0
  9 12  1  0  0  0  0
 10  1  2  0  0  0  0
 10  5  1  0  0  0  0
 11  8  2  0  0  0  0
 12 16  1  0  0  0  0
 13  2  1  1  0  0  0
 14  8  1  0  0  0  0
 14  7  1  0  0  0  0
 15  6  3  0  0  0  0
 15  5  1  0  0  0  0
 16  3  2  0  0  0  0
 16  4  1  0  0  0  0
 17 22  1  0  0  0  0
 19 20  1  1  0  0  0
 19 23  1  0  0  0  0
 20 23  1  0  0  0  0
 21 19  1  0  0  0  0
 21 17  1  0  0  0  0
 22 24  1  1  0  0  0
 23 22  1  0  0  0  0
 23 18  1  1  0  0  0
 24 25  1  1  0  0  0
 26 24  1  0  0  0  0
 26 29  1  0  0  0  0
 28 29  1  0  0  0  0
 29 27  1  1  0  0  0
M  END
>  <MODEL>
6

>  <REMARK>
 VINA RESULT:      -6.8      1.584      2.674
  Name = 
  4 active torsions:
  status: ('A' for Active; 'I' for Inactive)
    1  A    between atoms: C_7  and  C_24
    2  A    between atoms: C_7  and  C_29
    3  A    between atoms: C_13  and  N_21
    4  A    between atoms: C_14  and  C_29
                            x       y       z     vdW  Elec       q    Type
                         _______ _______ _______ _____ _____    ______ ____

>  <TORSDO>
F 4

$$$$
=
 OpenBabel11072414003D

 29 32  0  0  1  0  0  0  0  0999 V2000
  161.5810  206.2010  154.5090 C   0  0  0  0  0  3  0  0  0  0  0  0
  161.2560  211.2500  150.9830 C   0  0  0  0  0  1  0  0  0  0  0  0
  159.0220  213.7810  153.2580 C   0  0  0  0  0  2  0  0  0  0  0  0
  159.2080  211.5080  152.3860 C   0  0  0  0  0  2  0  0  0  0  0  0
  160.8110  208.4250  154.2620 C   0  0  0  0  0  0  0  0  0  0  0  0
  160.0030  210.7670  155.0300 C   0  0  0  0  0  0  0  0  0  0  0  0
  160.2430  209.3180  152.0130 O   0  0  0  0  0  0  0  0  0  0  0  0
  161.0740  207.0300  152.2850 C   0  0  0  0  0  0  0  0  0  0  0  0
  159.5140  212.9700  156.0260 C   0  0  0  0  0  1  0  0  0  0  0  0
  161.2330  207.3980  155.0430 N   0  0  0  0  0  0  0  0  0  0  0  0
  161.5040  206.0000  153.1340 C   0  0  0  0  0  3  0  0  0  0  0  0
  159.5490  212.0750  154.8800 N   0  0  0  0  0  0  0  0  0  0  0  0
  160.5100  210.7150  152.1880 C   0  0  1  0  0  3  0  0  0  0  0  0
  160.7210  208.2810  152.8520 C   0  0  0  0  0  0  0  0  0  0  0  0
  160.3930  209.6470  154.8650 C   0  0  0  0  0  0  0  0  0  0  0  0
  159.2980  212.5100  153.5240 C   0  0  0  0  0  0  0  0  0  0  0  0
  160.5280  205.5220  150.3190 C   0  0  0  0  0  2  0  0  0  0  0  0
  161.2060  207.7380  147.3620 C   0  0  0  0  0  1  0  0  0  0  0  0
  161.5490  207.6760  149.8470 C   0  0  2  0  0  3  0  0  0  0  0  0
  162.8510  207.1300  149.2790 C   0  0  0  0  0  2  0  0  0  0  0  0
  161.0170  206.7810  150.8630 N   0  0  0  0  0  0  0  0  0  0  0  0
  160.7790  205.5760  148.8190 C   0  0  1  0  0  3  0  0  0  0  0  0
  161.5370  206.8800  148.5650 C   0  0  2  0  0  0  0  0  0  0  0  0
  161.5810  204.3580  148.3570 C   0  0  1  0  0  3  0  0  0  0  0  0
  161.4820  203.3340  149.3020 O   0  0  0  0  0  1  0  0  0  0  0  0
  161.0570  203.8530  147.0130 C   0  0  0  0  0  2  0  0  0  0  0  0
  163.3280  204.7030  146.3230 C   0  0  0  0  0  1  0  0  0  0  0  0
  161.3710  205.1960  145.0420 O   0  0  0  0  0  1  0  0  0  0  0  0
  161.9690  204.2230  145.8460 C   0  0  2  0  0  3  0  0  0  0  0  0
  1 10  1  0  0  0  0
  3 16  2  0  0  0  0
  4 16  1  0  0  0  0
  5 15  1  0  0  0  0
  5 10  2  0  0  0  0
  7 13  1  0  0  0  0
  7 14  1  0  0  0  0
  8 14  2  0  0  0  0
  8 11  1  0  0  0  0
 11  1  2  0  0  0  0
 12  6  1  0  0  0  0
 12  9  1  0  0  0  0
 13  2  1  6  0  0  0
 13  4  1  0  0  0  0
 14  5  1  0  0  0  0
 15  6  3  0  0  0  0
 16 12  1  0  0  0  0
 17 21  1  0  0  0  0
 19 20  1  1  0  0  0
 19 21  1  0  0  0  0
 21  8  1  0  0  0  0
 22 24  1  1  0  0  0
 22 17  1  0  0  0  0
 23 18  1  6  0  0  0
 23 22  1  0  0  0  0
 23 20  1  0  0  0  0
 23 19  1  0  0  0  0
 24 25  1  1  0  0  0
 26 24  1  0  0  0  0
 28 29  1  0  0  0  0
 29 27  1  1  0  0  0
 29 26  1  0  0  0  0
M  END
>  <MODEL>
7

>  <REMARK>
 VINA RESULT:      -6.8      2.301      8.584
  Name = 
  4 active torsions:
  status: ('A' for Active; 'I' for Inactive)
    1  A    between atoms: C_7  and  C_24
    2  A    between atoms: C_7  and  C_29
    3  A    between atoms: C_13  and  N_21
    4  A    between atoms: C_14  and  C_29
                            x       y       z     vdW  Elec       q    Type
                         _______ _______ _______ _____ _____    ______ ____

>  <TORSDO>
F 4

$$$$
=
 OpenBabel11072414003D

 29 32  0  0  1  0  0  0  0  0999 V2000
  160.5210  202.8200  152.4410 C   0  0  0  0  0  3  0  0  0  0  0  0
  160.3660  206.9180  147.8360 C   0  0  0  0  0  1  0  0  0  0  0  0
  161.6010  204.7150  144.6420 C   0  0  0  0  0  2  0  0  0  0  0  0
  162.0470  205.2870  146.9750 C   0  0  0  0  0  2  0  0  0  0  0  0
  160.8360  203.2550  150.1360 C   0  0  0  0  0  0  0  0  0  0  0  0
  160.9920  202.7060  147.6070 C   0  0  0  0  0  0  0  0  0  0  0  0
  161.5740  205.5020  149.3690 O   0  0  0  0  0  0  0  0  0  0  0  0
  161.2090  205.0420  151.7470 C   0  0  0  0  0  0  0  0  0  0  0  0
  160.8310  201.9600  145.2610 C   0  0  0  0  0  1  0  0  0  0  0  0
  160.5140  202.4100  151.1490 N   0  0  0  0  0  0  0  0  0  0  0  0
  160.8690  204.1310  152.7580 C   0  0  0  0  0  3  0  0  0  0  0  0
  161.1790  202.9670  146.2520 N   0  0  0  0  0  0  0  0  0  0  0  0
  160.9940  205.5580  148.0600 C   0  0  1  0  0  3  0  0  0  0  0  0
  161.1910  204.6060  150.3980 C   0  0  0  0  0  0  0  0  0  0  0  0
  160.8800  202.7710  148.7970 C   0  0  0  0  0  0  0  0  0  0  0  0
  161.5580  204.3200  145.9100 C   0  0  0  0  0  0  0  0  0  0  0  0
  161.6690  206.8080  153.5110 C   0  0  0  0  0  2  0  0  0  0  0  0
  162.7060  209.7780  151.4570 C   0  0  0  0  0  1  0  0  0  0  0  0
  161.6980  207.4970  151.1800 C   0  0  2  0  0  3  0  0  0  0  0  0
  160.4960  208.4270  151.2590 C   0  0  0  0  0  2  0  0  0  0  0  0
  161.5570  206.3940  152.1190 N   0  0  0  0  0  0  0  0  0  0  0  0
  161.8770  208.3150  153.4960 C   0  0  1  0  0  3  0  0  0  0  0  0
  161.7620  208.7420  152.0310 C   0  0  2  0  0  0  0  0  0  0  0  0
  160.8380  209.0180  154.3710 C   0  0  1  0  0  3  0  0  0  0  0  0
  160.5750  208.2500  155.5080 O   0  0  0  0  0  1  0  0  0  0  0  0
  161.3460  210.3940  154.8000 C   0  0  0  0  0  2  0  0  0  0  0  0
  158.9460  211.1660  154.8190 C   0  0  0  0  0  1  0  0  0  0  0  0
  160.4560  211.8320  153.0900 O   0  0  0  0  0  1  0  0  0  0  0  0
  160.3760  211.5190  154.4490 C   0  0  2  0  0  3  0  0  0  0  0  0
  1 11  1  0  0  0  0
  3 16  2  0  0  0  0
  4 13  1  0  0  0  0
  5 14  2  0  0  0  0
  5 10  1  0  0  0  0
  6 15  3  0  0  0  0
  7 14  1  0  0  0  0
  8 21  1  0  0  0  0
  8 11  2  0  0  0  0
  9 12  1  0  0  0  0
 10  1  2  0  0  0  0
 12  6  1  0  0  0  0
 13  2  1  6  0  0  0
 13  7  1  0  0  0  0
 14  8  1  0  0  0  0
 15  5  1  0  0  0  0
 16 12  1  0  0  0  0
 16  4  1  0  0  0  0
 19 20  1  6  0  0  0
 19 23  1  0  0  0  0
 19 21  1  0  0  0  0
 20 23  1  0  0  0  0
 21 17  1  0  0  0  0
 22 17  1  0  0  0  0
 22 24  1  1  0  0  0
 23 18  1  6  0  0  0
 23 22  1  0  0  0  0
 24 26  1  0  0  0  0
 24 25  1  1  0  0  0
 28 29  1  0  0  0  0
 29 26  1  0  0  0  0
 29 27  1  6  0  0  0
M  END
>  <MODEL>
8

>  <REMARK>
 VINA RESULT:      -6.6      1.909      3.946
  Name = 
  4 active torsions:
  status: ('A' for Active; 'I' for Inactive)
    1  A    between atoms: C_7  and  C_24
    2  A    between atoms: C_7  and  C_29
    3  A    between atoms: C_13  and  N_21
    4  A    between atoms: C_14  and  C_29
                            x       y       z     vdW  Elec       q    Type
                         _______ _______ _______ _____ _____    ______ ____

>  <TORSDO>
F 4

$$$$
=
 OpenBabel11072414003D

 29 32  0  0  1  0  0  0  0  0999 V2000
  161.1670  206.6520  155.3780 C   0  0  0  0  0  3  0  0  0  0  0  0
  161.9240  210.8420  150.9170 C   0  0  0  0  0  1  0  0  0  0  0  0
  159.4110  213.8320  152.0680 C   0  0  0  0  0  2  0  0  0  0  0  0
  159.6410  211.4220  151.7420 C   0  0  0  0  0  2  0  0  0  0  0  0
  160.6070  208.7850  154.5170 C   0  0  0  0  0  0  0  0  0  0  0  0
  159.7990  211.2470  154.5910 C   0  0  0  0  0  0  0  0  0  0  0  0
  160.5950  209.1880  152.0640 O   0  0  0  0  0  0  0  0  0  0  0  0
  161.2050  206.9980  152.9750 C   0  0  0  0  0  0  0  0  0  0  0  0
  159.2430  213.6190  154.9820 C   0  0  0  0  0  1  0  0  0  0  0  0
  160.7860  207.9400  155.5650 N   0  0  0  0  0  0  0  0  0  0  0  0
  161.3770  206.1650  154.0910 C   0  0  0  0  0  3  0  0  0  0  0  0
  159.4700  212.5000  154.0800 N   0  0  0  0  0  0  0  0  0  0  0  0
  160.9030  210.5860  152.0060 C   0  0  1  0  0  3  0  0  0  0  0  0
  160.8150  208.3450  153.1820 C   0  0  0  0  0  0  0  0  0  0  0  0
  160.1450  210.1120  154.7490 C   0  0  0  0  0  0  0  0  0  0  0  0
  159.5440  212.6420  152.6430 C   0  0  0  0  0  0  0  0  0  0  0  0
  162.1150  207.2150  150.6170 C   0  0  0  0  0  2  0  0  0  0  0  0
  161.5290  203.7910  149.1860 C   0  0  0  0  0  1  0  0  0  0  0  0
  160.9290  205.1730  151.1930 C   0  0  2  0  0  3  0  0  0  0  0  0
  159.7600  205.3760  150.2390 C   0  0  0  0  0  2  0  0  0  0  0  0
  161.4410  206.4530  151.6580 N   0  0  0  0  0  0  0  0  0  0  0  0
  162.0220  206.3810  149.3470 C   0  0  1  0  0  3  0  0  0  0  0  0
  161.1630  205.1670  149.7010 C   0  0  2  0  0  0  0  0  0  0  0  0
  161.4070  207.1940  148.2060 C   0  0  1  0  0  3  0  0  0  0  0  0
  161.7050  208.5490  148.3700 O   0  0  0  0  0  1  0  0  0  0  0  0
  161.9520  206.7190  146.8590 C   0  0  0  0  0  2  0  0  0  0  0  0
  161.7770  204.5980  145.5070 C   0  0  0  0  0  1  0  0  0  0  0  0
  160.2420  206.4040  145.1980 O   0  0  0  0  0  1  0  0  0  0  0  0
  161.0150  205.7420  146.1540 C   0  0  2  0  0  3  0  0  0  0  0  0
  1 10  1  0  0  0  0
  3 16  2  0  0  0  0
  4 13  1  0  0  0  0
  4 16  1  0  0  0  0
  5 15  1  0  0  0  0
  5 10  2  0  0  0  0
  6 15  3  0  0  0  0
  7 14  1  0  0  0  0
  8 14  2  0  0  0  0
  8 11  1  0  0  0  0
 11  1  2  0  0  0  0
 12  6  1  0  0  0  0
 12  9  1  0  0  0  0
 13  2  1  6  0  0  0
 13  7  1  0  0  0  0
 14  5  1  0  0  0  0
 16 12  1  0  0  0  0
 17 21  1  0  0  0  0
 19 20  1  6  0  0  0
 19 21  1  0  0  0  0
 21  8  1  0  0  0  0
 22 24  1  6  0  0  0
 22 23  1  0  0  0  0
 22 17  1  0  0  0  0
 23 18  1  6  0  0  0
 23 20  1  0  0  0  0
 23 19  1  0  0  0  0
 24 25  1  1  0  0  0
 26 24  1  0  0  0  0
 28 29  1  0  0  0  0
 29 27  1  6  0  0  0
 29 26  1  0  0  0  0
M  END
>  <MODEL>
9

>  <REMARK>
 VINA RESULT:      -6.3      2.368      8.194
  Name = 
  4 active torsions:
  status: ('A' for Active; 'I' for Inactive)
    1  A    between atoms: C_7  and  C_24
    2  A    between atoms: C_7  and  C_29
    3  A    between atoms: C_13  and  N_21
    4  A    between atoms: C_14  and  C_29
                            x       y       z     vdW  Elec       q    Type
                         _______ _______ _______ _____ _____    ______ ____

>  <TORSDO>
F 4

$$$$
