=
 OpenBabel11072413523D

 46 51  0  0  1  0  0  0  0  0999 V2000
  161.0850  206.5330  153.9390 C   0  0  1  0  0  3  0  0  0  0  0  0
  161.6340  207.9050  154.0000 C   0  0  1  0  0  3  0  0  0  0  0  0
  160.4620  207.6080  153.2740 O   0  0  0  0  0  0  0  0  0  0  0  0
  161.8560  205.7170  152.9140 C   0  0  0  0  0  2  0  0  0  0  0  0
  160.9550  204.7790  152.1060 C   0  0  2  0  0  3  0  0  0  0  0  0
  160.7080  203.5640  152.8690 N   0  0  0  0  0  1  0  0  0  0  0  0
  161.4810  204.4580  150.6810 C   0  0  2  0  0  3  0  0  0  0  0  0
  161.0280  206.6980  149.7580 O   0  0  0  0  0  0  0  0  0  0  0  0
  160.7990  205.3060  149.5890 C   0  0  1  0  0  3  0  0  0  0  0  0
  161.1910  206.1550  147.5030 C   0  0  0  0  0  0  0  0  0  0  0  0
  162.1870  206.3370  146.3890 C   0  0  0  0  0  2  0  0  0  0  0  0
  161.1840  204.8470  148.1900 C   0  0  0  0  0  2  0  0  0  0  0  0
  161.0260  207.2830  148.4760 C   0  0  0  0  0  2  0  0  0  0  0  0
  160.6820  206.2790  146.0930 C   0  0  0  0  0  2  0  0  0  0  0  0
  161.3740  202.6870  148.8720 C   0  0  0  0  0  2  0  0  0  0  0  0
  161.3140  202.9560  150.3640 C   0  0  2  0  0  3  0  0  0  0  0  0
  160.6080  201.4000  148.6540 C   0  0  1  0  0  3  0  0  0  0  0  0
  159.9600  202.4040  150.7760 C   0  0  0  0  0  2  0  0  0  0  0  0
  159.7280  201.2020  149.8770 C   0  0  0  0  0  2  0  0  0  0  0  0
  159.7790  201.5200  147.4620 N   0  0  0  0  0  2  0  0  0  0  0  0
  160.6160  201.2730  146.2940 C   0  0  0  0  0  0  0  0  0  0  0  0
  159.9360  201.5370  144.9750 C   0  0  0  0  0  2  0  0  0  0  0  0
  161.0480  202.4620  145.4730 C   0  0  0  0  0  2  0  0  0  0  0  0
  161.4480  200.1510  146.3020 O   0  0  0  0  0  1  0  0  0  0  0  0
  161.2610  208.5280  155.2640 N   0  0  0  0  0  2  0  0  0  0  0  0
  162.0390  210.6400  154.4680 O   0  0  0  0  0  1  0  0  0  0  0  0
  158.8200  209.7580  155.7300 O   0  0  0  0  0  0  0  0  0  0  0  0
  159.7300  210.4470  155.1890 C   0  0  0  0  0  0  0  0  0  0  0  0
  161.0490  209.8960  155.0290 N   0  0  0  0  0  0  0  0  0  0  0  0
  159.4030  211.8370  154.7380 C   0  0  1  0  0  3  0  0  0  0  0  0
  158.2920  211.8250  153.6890 C   0  0  0  0  0  2  0  0  0  0  0  0
  159.3130  213.3660  150.3780 N   0  0  0  0  0  0  0  0  0  0  0  0
  157.1380  213.3310  152.1540 N   0  0  0  0  0  2  0  0  0  0  0  0
  158.4410  213.0110  152.7380 C   0  0  2  0  0  3  0  0  0  0  0  0
  158.0420  213.9760  149.9950 C   0  0  0  0  0  2  0  0  0  0  0  0
  160.4580  212.0010  151.8930 O   0  0  0  0  0  0  0  0  0  0  0  0
  159.4520  212.7210  151.6550 C   0  0  0  0  0  0  0  0  0  0  0  0
  157.2880  214.4520  151.2320 C   0  0  0  0  0  2  0  0  0  0  0  0
  160.3720  213.2760  149.3800 C   0  0  0  0  0  2  0  0  0  0  0  0
  160.0030  214.0910  148.1480 C   0  0  0  0  0  2  0  0  0  0  0  0
  160.9720  213.8080  147.0450 C   0  0  0  0  0  3  0  0  0  0  0  0
  160.6500  213.1010  146.1040 O   0  0  0  0  0  0  0  0  0  0  0  0
  159.0310  212.6410  155.8530 O   0  0  0  0  0  0  0  0  0  0  0  0
  157.1930  211.9230  157.2180 O   0  0  0  0  0  0  0  0  0  0  0  0
  157.7170  212.7610  156.2580 N   0  0  0  0  0  0  0  0  0  0  0  0
  156.9850  213.6250  155.7320 O   0  0  0  0  0  0  0  0  0  0  0  0
  1  4  1  6  0  0  0
  1  2  1  0  0  0  0
  2 25  1  1  0  0  0
  3  1  1  0  0  0  0
  3  2  1  0  0  0  0
  5  6  1  1  0  0  0
  5  4  1  0  0  0  0
  7  5  1  1  0  0  0
  9  8  1  0  0  0  0
  9  7  1  1  0  0  0
 10 12  1  0  0  0  0
 10 13  1  0  0  0  0
 11 10  1  0  0  0  0
 12  9  1  0  0  0  0
 13  8  1  0  0  0  0
 14 11  1  0  0  0  0
 14 10  1  0  0  0  0
 15 16  1  0  0  0  0
 16  7  1  6  0  0  0
 16 18  1  0  0  0  0
 17 20  1  6  0  0  0
 17 15  1  0  0  0  0
 17 19  1  0  0  0  0
 19 18  1  0  0  0  0
 21 24  1  0  0  0  0
 21 20  1  0  0  0  0
 22 23  1  0  0  0  0
 22 21  1  0  0  0  0
 23 21  1  0  0  0  0
 26 29  1  0  0  0  0
 28 27  2  0  0  0  0
 29 28  1  0  0  0  0
 29 25  1  0  0  0  0
 30 31  1  6  0  0  0
 30 28  1  0  0  0  0
 30 43  1  0  0  0  0
 32 37  1  0  0  0  0
 33 34  1  0  0  0  0
 34 31  1  1  0  0  0
 35 32  1  0  0  0  0
 35 38  1  0  0  0  0
 37 36  2  0  0  0  0
 37 34  1  0  0  0  0
 38 33  1  0  0  0  0
 39 32  1  0  0  0  0
 40 39  1  0  0  0  0
 41 40  1  0  0  0  0
 42 41  2  0  0  0  0
 43 45  1  0  0  0  0
 45 44  2  0  0  0  0
 46 45  2  0  0  0  0
M  END
>  <MODEL>
1

>  <REMARK>
 VINA RESULT:      -6.4      0.000      0.000
  Name = 
  17 active torsions:
  status: ('A' for Active; 'I' for Inactive)
    1  A    between atoms: C_1  and  C_43
    2  A    between atoms: C_4  and  C_12
    3  A    between atoms: C_4  and  C_13
    4  A    between atoms: C_4  and  C_16
    5  A    between atoms: C_5  and  N_38
    6  A    between atoms: C_6  and  C_45
    7  A    between atoms: N_7  and  O_9
    8  A    between atoms: O_9  and  C_42
    9  A    between atoms: C_13  and  C_45
   10  A    between atoms: C_14  and  C_25
   11  A    between atoms: C_14  and  C_42
   12  A    between atoms: N_15  and  C_36
   13  A    between atoms: C_17  and  N_30
   14  A    between atoms: C_20  and  N_38
   15  A    between atoms: C_27  and  C_42
   16  A    between atoms: N_30  and  N_41
   17  A    between atoms: C_36  and  C_43
                            x       y       z     vdW  Elec       q    Type
                         _______ _______ _______ _____ _____    ______ ____

>  <TORSDO>
F 17

$$$$
=
 OpenBabel11072413523D

 46 51  0  0  1  0  0  0  0  0999 V2000
  162.2500  211.0100  148.0840 C   0  0  1  0  0  3  0  0  0  0  0  0
  161.6440  210.0260  149.0060 C   0  0  1  0  0  3  0  0  0  0  0  0
  161.0430  210.3540  147.7740 O   0  0  0  0  0  0  0  0  0  0  0  0
  161.9240  212.4200  148.5520 C   0  0  0  0  0  2  0  0  0  0  0  0
  162.1660  213.4730  147.4680 C   0  0  2  0  0  3  0  0  0  0  0  0
  163.1980  214.4000  147.9100 N   0  0  0  0  0  1  0  0  0  0  0  0
  160.8870  214.2250  147.0110 C   0  0  2  0  0  3  0  0  0  0  0  0
  158.8310  213.4150  148.1040 O   0  0  0  0  0  0  0  0  0  0  0  0
  159.8590  214.3970  148.1470 C   0  0  1  0  0  3  0  0  0  0  0  0
  159.4850  213.7570  150.3090 C   0  0  0  0  0  0  0  0  0  0  0  0
  159.9530  212.9180  151.4680 C   0  0  0  0  0  2  0  0  0  0  0  0
  160.5250  214.4420  149.5140 C   0  0  0  0  0  2  0  0  0  0  0  0
  158.4130  213.1870  149.4300 C   0  0  0  0  0  2  0  0  0  0  0  0
  159.1670  214.2150  151.7060 C   0  0  0  0  0  2  0  0  0  0  0  0
  161.2690  212.8670  144.9050 C   0  0  0  0  0  2  0  0  0  0  0  0
  160.2330  213.5070  145.8110 C   0  0  2  0  0  3  0  0  0  0  0  0
  160.6220  212.7720  143.5400 C   0  0  1  0  0  3  0  0  0  0  0  0
  159.4800  214.4500  144.8870 C   0  0  0  0  0  2  0  0  0  0  0  0
  159.4650  213.7570  143.5350 C   0  0  0  0  0  2  0  0  0  0  0  0
  161.5880  213.1380  142.5140 N   0  0  0  0  0  2  0  0  0  0  0  0
  161.2570  212.4140  141.2930 C   0  0  0  0  0  0  0  0  0  0  0  0
  161.2410  213.2680  140.0500 C   0  0  0  0  0  2  0  0  0  0  0  0
  162.3480  212.2320  140.2650 C   0  0  0  0  0  2  0  0  0  0  0  0
  160.2480  211.4520  141.3470 O   0  0  0  0  0  1  0  0  0  0  0  0
  162.3240  208.7440  148.8720 N   0  0  0  0  0  2  0  0  0  0  0  0
  162.8340  209.0080  151.1900 O   0  0  0  0  0  1  0  0  0  0  0  0
  161.7580  206.0890  149.4410 O   0  0  0  0  0  0  0  0  0  0  0  0
  162.0650  206.8430  150.4070 C   0  0  0  0  0  0  0  0  0  0  0  0
  162.4800  208.1980  150.1570 N   0  0  0  0  0  0  0  0  0  0  0  0
  162.0000  206.2890  151.7970 C   0  0  1  0  0  3  0  0  0  0  0  0
  160.7270  206.7480  152.5090 C   0  0  0  0  0  2  0  0  0  0  0  0
  160.2160  209.6280  154.9210 N   0  0  0  0  0  0  0  0  0  0  0  0
  160.5230  206.8370  154.9400 N   0  0  0  0  0  2  0  0  0  0  0  0
  161.0740  207.5300  153.7730 C   0  0  2  0  0  3  0  0  0  0  0  0
  160.0070  208.8740  156.1550 C   0  0  0  0  0  2  0  0  0  0  0  0
  160.5080  209.5570  152.6020 O   0  0  0  0  0  0  0  0  0  0  0  0
  160.5540  208.9450  153.7020 C   0  0  0  0  0  0  0  0  0  0  0  0
  160.8400  207.5970  156.1430 C   0  0  0  0  0  2  0  0  0  0  0  0
  159.9080  211.0530  154.9150 C   0  0  0  0  0  2  0  0  0  0  0  0
  158.4170  211.2700  155.1330 C   0  0  0  0  0  2  0  0  0  0  0  0
  158.1330  212.7300  155.2800 C   0  0  0  0  0  3  0  0  0  0  0  0
  157.0740  213.1970  154.8940 O   0  0  0  0  0  0  0  0  0  0  0  0
  162.0710  204.8680  151.7640 O   0  0  0  0  0  0  0  0  0  0  0  0
  160.2330  203.7330  150.7180 O   0  0  0  0  0  0  0  0  0  0  0  0
  160.9410  204.0800  151.8490 N   0  0  0  0  0  0  0  0  0  0  0  0
  160.5400  203.6940  152.9660 O   0  0  0  0  0  0  0  0  0  0  0  0
  1  4  1  1  0  0  0
  1  2  1  0  0  0  0
  2 25  1  6  0  0  0
  3  1  1  0  0  0  0
  3  2  1  0  0  0  0
  5  6  1  1  0  0  0
  5  4  1  0  0  0  0
  7  5  1  1  0  0  0
  8  9  1  0  0  0  0
  8 13  1  0  0  0  0
  9  7  1  6  0  0  0
  9 12  1  0  0  0  0
 10 11  1  0  0  0  0
 10 14  1  0  0  0  0
 11 14  1  0  0  0  0
 12 10  1  0  0  0  0
 13 10  1  0  0  0  0
 15 16  1  0  0  0  0
 16  7  1  1  0  0  0
 17 20  1  6  0  0  0
 17 15  1  0  0  0  0
 18 16  1  0  0  0  0
 19 17  1  0  0  0  0
 19 18  1  0  0  0  0
 21 24  1  0  0  0  0
 21 20  1  0  0  0  0
 22 23  1  0  0  0  0
 22 21  1  0  0  0  0
 23 21  1  0  0  0  0
 25 29  1  0  0  0  0
 27 28  2  0  0  0  0
 28 30  1  0  0  0  0
 29 28  1  0  0  0  0
 29 26  1  0  0  0  0
 30 31  1  6  0  0  0
 32 35  1  0  0  0  0
 33 38  1  0  0  0  0
 34 31  1  6  0  0  0
 34 33  1  0  0  0  0
 36 37  2  0  0  0  0
 37 34  1  0  0  0  0
 37 32  1  0  0  0  0
 38 35  1  0  0  0  0
 39 32  1  0  0  0  0
 39 40  1  0  0  0  0
 40 41  1  0  0  0  0
 42 41  2  0  0  0  0
 43 30  1  0  0  0  0
 43 45  1  0  0  0  0
 44 45  2  0  0  0  0
 45 46  2  0  0  0  0
M  END
>  <MODEL>
2

>  <REMARK>
 VINA RESULT:      -5.8      3.489      9.170
  Name = 
  17 active torsions:
  status: ('A' for Active; 'I' for Inactive)
    1  A    between atoms: C_1  and  C_43
    2  A    between atoms: C_4  and  C_12
    3  A    between atoms: C_4  and  C_13
    4  A    between atoms: C_4  and  C_16
    5  A    between atoms: C_5  and  N_38
    6  A    between atoms: C_6  and  C_45
    7  A    between atoms: N_7  and  O_9
    8  A    between atoms: O_9  and  C_42
    9  A    between atoms: C_13  and  C_45
   10  A    between atoms: C_14  and  C_25
   11  A    between atoms: C_14  and  C_42
   12  A    between atoms: N_15  and  C_36
   13  A    between atoms: C_17  and  N_30
   14  A    between atoms: C_20  and  N_38
   15  A    between atoms: C_27  and  C_42
   16  A    between atoms: N_30  and  N_41
   17  A    between atoms: C_36  and  C_43
                            x       y       z     vdW  Elec       q    Type
                         _______ _______ _______ _____ _____    ______ ____

>  <TORSDO>
F 17

$$$$
=
 OpenBabel11072413523D

 46 51  0  0  1  0  0  0  0  0999 V2000
  161.2630  205.8990  154.0210 C   0  0  1  0  0  3  0  0  0  0  0  0
  160.8860  205.7420  152.5990 C   0  0  1  0  0  3  0  0  0  0  0  0
  161.9620  206.5640  152.9950 O   0  0  0  0  0  0  0  0  0  0  0  0
  160.3300  206.8950  154.6920 C   0  0  0  0  0  2  0  0  0  0  0  0
  161.0240  208.2190  155.0270 C   0  0  2  0  0  3  0  0  0  0  0  0
  161.3210  208.2670  156.4510 N   0  0  0  0  0  1  0  0  0  0  0  0
  160.2460  209.4810  154.5660 C   0  0  2  0  0  3  0  0  0  0  0  0
  162.3750  210.1960  153.5500 O   0  0  0  0  0  0  0  0  0  0  0  0
  160.9600  210.2390  153.4280 C   0  0  1  0  0  3  0  0  0  0  0  0
  161.7810  209.9060  151.3210 C   0  0  0  0  0  0  0  0  0  0  0  0
  162.0520  208.9130  150.2230 C   0  0  0  0  0  2  0  0  0  0  0  0
  160.5070  209.7610  152.0570 C   0  0  0  0  0  2  0  0  0  0  0  0
  162.9100  210.2400  152.2470 C   0  0  0  0  0  2  0  0  0  0  0  0
  161.7880  210.3890  149.8970 C   0  0  0  0  0  2  0  0  0  0  0  0
  158.5940  211.0130  155.7270 C   0  0  0  0  0  2  0  0  0  0  0  0
  159.9960  210.4320  155.7570 C   0  0  2  0  0  3  0  0  0  0  0  0
  158.6720  212.3170  156.4910 C   0  0  1  0  0  3  0  0  0  0  0  0
  160.8950  211.6570  155.7440 C   0  0  0  0  0  2  0  0  0  0  0  0
  160.1390  212.7150  156.5280 C   0  0  0  0  0  2  0  0  0  0  0  0
  157.9010  213.3380  155.7960 N   0  0  0  0  0  2  0  0  0  0  0  0
  156.4850  213.0200  155.9380 C   0  0  0  0  0  0  0  0  0  0  0  0
  155.5560  214.0240  155.3040 C   0  0  0  0  0  2  0  0  0  0  0  0
  155.7230  212.6300  154.6950 C   0  0  0  0  0  2  0  0  0  0  0  0
  156.0410  212.5110  157.1590 O   0  0  0  0  0  1  0  0  0  0  0  0
  161.4160  204.4850  152.0860 N   0  0  0  0  0  2  0  0  0  0  0  0
  161.7490  205.5600  149.9790 O   0  0  0  0  0  1  0  0  0  0  0  0
  160.3990  202.3290  150.6690 O   0  0  0  0  0  0  0  0  0  0  0  0
  160.8500  203.3050  150.0070 C   0  0  0  0  0  0  0  0  0  0  0  0
  161.2830  204.4960  150.6880 N   0  0  0  0  0  0  0  0  0  0  0  0
  160.9070  203.1930  148.5150 C   0  0  1  0  0  3  0  0  0  0  0  0
  162.2400  203.7120  147.9770 C   0  0  0  0  0  2  0  0  0  0  0  0
  161.7720  205.3990  144.6140 N   0  0  0  0  0  0  0  0  0  0  0  0
  160.6150  205.3450  147.1720 N   0  0  0  0  0  2  0  0  0  0  0  0
  162.0210  204.9430  147.1010 C   0  0  2  0  0  3  0  0  0  0  0  0
  160.5020  206.0780  144.8610 C   0  0  0  0  0  2  0  0  0  0  0  0
  163.3890  203.9090  145.4100 O   0  0  0  0  0  0  0  0  0  0  0  0
  162.4260  204.6780  145.6720 C   0  0  0  0  0  0  0  0  0  0  0  0
  160.4050  206.5100  146.3200 C   0  0  0  0  0  2  0  0  0  0  0  0
  162.2700  205.3270  143.2470 C   0  0  0  0  0  2  0  0  0  0  0  0
  161.4460  206.2310  142.3390 C   0  0  0  0  0  2  0  0  0  0  0  0
  162.2210  206.5480  141.1000 C   0  0  0  0  0  3  0  0  0  0  0  0
  161.6630  207.0270  140.1260 O   0  0  0  0  0  0  0  0  0  0  0  0
  160.6980  201.8430  148.1150 O   0  0  0  0  0  0  0  0  0  0  0  0
  159.9850  202.2220  145.8540 O   0  0  0  0  0  0  0  0  0  0  0  0
  160.6720  201.4730  146.7850 N   0  0  0  0  0  0  0  0  0  0  0  0
  161.2600  200.4330  146.4220 O   0  0  0  0  0  0  0  0  0  0  0  0
  1  4  1  1  0  0  0
  2 25  1  6  0  0  0
  2  3  1  0  0  0  0
  2  1  1  0  0  0  0
  3  1  1  0  0  0  0
  4  5  1  0  0  0  0
  5  6  1  1  0  0  0
  7  5  1  1  0  0  0
  9  8  1  0  0  0  0
  9  7  1  1  0  0  0
 10 12  1  0  0  0  0
 10 13  1  0  0  0  0
 11 10  1  0  0  0  0
 12  9  1  0  0  0  0
 13  8  1  0  0  0  0
 14 11  1  0  0  0  0
 14 10  1  0  0  0  0
 15 16  1  0  0  0  0
 15 17  1  0  0  0  0
 16  7  1  6  0  0  0
 17 20  1  6  0  0  0
 17 19  1  0  0  0  0
 18 16  1  0  0  0  0
 18 19  1  0  0  0  0
 20 21  1  0  0  0  0
 21 24  1  0  0  0  0
 22 21  1  0  0  0  0
 23 22  1  0  0  0  0
 23 21  1  0  0  0  0
 26 29  1  0  0  0  0
 28 27  2  0  0  0  0
 28 29  1  0  0  0  0
 29 25  1  0  0  0  0
 30 31  1  1  0  0  0
 30 28  1  0  0  0  0
 32 35  1  0  0  0  0
 32 37  1  0  0  0  0
 34 33  1  0  0  0  0
 34 31  1  1  0  0  0
 35 38  1  0  0  0  0
 36 37  2  0  0  0  0
 37 34  1  0  0  0  0
 38 33  1  0  0  0  0
 39 32  1  0  0  0  0
 40 39  1  0  0  0  0
 41 40  1  0  0  0  0
 42 41  2  0  0  0  0
 43 30  1  0  0  0  0
 44 45  2  0  0  0  0
 45 43  1  0  0  0  0
 46 45  2  0  0  0  0
M  END
>  <MODEL>
3

>  <REMARK>
 VINA RESULT:      -5.8      2.812     10.213
  Name = 
  17 active torsions:
  status: ('A' for Active; 'I' for Inactive)
    1  A    between atoms: C_1  and  C_43
    2  A    between atoms: C_4  and  C_12
    3  A    between atoms: C_4  and  C_13
    4  A    between atoms: C_4  and  C_16
    5  A    between atoms: C_5  and  N_38
    6  A    between atoms: C_6  and  C_45
    7  A    between atoms: N_7  and  O_9
    8  A    between atoms: O_9  and  C_42
    9  A    between atoms: C_13  and  C_45
   10  A    between atoms: C_14  and  C_25
   11  A    between atoms: C_14  and  C_42
   12  A    between atoms: N_15  and  C_36
   13  A    between atoms: C_17  and  N_30
   14  A    between atoms: C_20  and  N_38
   15  A    between atoms: C_27  and  C_42
   16  A    between atoms: N_30  and  N_41
   17  A    between atoms: C_36  and  C_43
                            x       y       z     vdW  Elec       q    Type
                         _______ _______ _______ _____ _____    ______ ____

>  <TORSDO>
F 17

$$$$
=
 OpenBabel11072413523D

 46 51  0  0  1  0  0  0  0  0999 V2000
  161.3560  205.0440  152.0350 C   0  0  1  0  0  3  0  0  0  0  0  0
  160.7750  205.8470  153.1320 C   0  0  1  0  0  3  0  0  0  0  0  0
  161.2970  204.5570  153.3550 O   0  0  0  0  0  0  0  0  0  0  0  0
  160.2420  204.3910  151.2310 C   0  0  0  0  0  2  0  0  0  0  0  0
  160.7690  203.4100  150.1810 C   0  0  2  0  0  3  0  0  0  0  0  0
  161.4000  202.2780  150.8440 N   0  0  0  0  0  1  0  0  0  0  0  0
  161.7140  204.0500  149.1280 C   0  0  2  0  0  3  0  0  0  0  0  0
  160.1260  205.9110  149.4240 O   0  0  0  0  0  0  0  0  0  0  0  0
  161.2600  205.4580  148.6960 C   0  0  1  0  0  3  0  0  0  0  0  0
  161.6340  207.6630  149.1710 C   0  0  0  0  0  0  0  0  0  0  0  0
  162.3400  208.6540  150.0570 C   0  0  0  0  0  2  0  0  0  0  0  0
  162.3970  206.4660  148.7600 C   0  0  0  0  0  2  0  0  0  0  0  0
  160.2170  207.3150  149.5120 C   0  0  0  0  0  2  0  0  0  0  0  0
  161.9770  209.0160  148.6110 C   0  0  0  0  0  2  0  0  0  0  0  0
  161.8090  203.9320  146.5980 C   0  0  0  0  0  2  0  0  0  0  0  0
  161.8480  203.1370  147.8900 C   0  0  2  0  0  3  0  0  0  0  0  0
  161.3250  202.9690  145.5350 C   0  0  1  0  0  3  0  0  0  0  0  0
  160.6990  202.1530  147.7440 C   0  0  0  0  0  2  0  0  0  0  0  0
  160.6440  201.8210  146.2630 C   0  0  0  0  0  2  0  0  0  0  0  0
  160.3690  203.6400  144.6660 N   0  0  0  0  0  2  0  0  0  0  0  0
  160.7000  205.0590  144.6290 C   0  0  0  0  0  0  0  0  0  0  0  0
  162.1780  205.3540  144.6720 C   0  0  0  0  0  2  0  0  0  0  0  0
  161.3770  205.5930  143.3900 C   0  0  0  0  0  2  0  0  0  0  0  0
  159.9120  205.9420  145.3700 O   0  0  0  0  0  1  0  0  0  0  0  0
  161.7460  206.8340  153.5870 N   0  0  0  0  0  2  0  0  0  0  0  0
  160.1700  207.6780  155.1690 O   0  0  0  0  0  1  0  0  0  0  0  0
  162.1930  209.4670  152.8360 O   0  0  0  0  0  0  0  0  0  0  0  0
  161.3990  209.2570  153.7950 C   0  0  0  0  0  0  0  0  0  0  0  0
  161.0420  207.9100  154.1520 N   0  0  0  0  0  0  0  0  0  0  0  0
  160.8380  210.4350  154.5310 C   0  0  1  0  0  3  0  0  0  0  0  0
  159.3320  210.5580  154.3000 C   0  0  0  0  0  2  0  0  0  0  0  0
  158.0090  213.5660  152.4090 N   0  0  0  0  0  0  0  0  0  0  0  0
  157.6050  212.2000  154.8300 N   0  0  0  0  0  2  0  0  0  0  0  0
  158.9220  212.0260  154.2120 C   0  0  2  0  0  3  0  0  0  0  0  0
  156.8820  213.9150  153.2710 C   0  0  0  0  0  2  0  0  0  0  0  0
  159.7290  212.0520  151.9430 O   0  0  0  0  0  0  0  0  0  0  0  0
  158.9050  212.5050  152.7810 C   0  0  0  0  0  0  0  0  0  0  0  0
  157.2090  213.6000  154.7260 C   0  0  0  0  0  2  0  0  0  0  0  0
  158.1050  214.1950  151.0980 C   0  0  0  0  0  2  0  0  0  0  0  0
  157.4600  213.3080  150.0410 C   0  0  0  0  0  2  0  0  0  0  0  0
  158.0260  213.6290  148.6960 C   0  0  0  0  0  3  0  0  0  0  0  0
  157.4760  213.2310  147.6810 O   0  0  0  0  0  0  0  0  0  0  0  0
  161.1250  210.3290  155.9210 O   0  0  0  0  0  0  0  0  0  0  0  0
  163.4510  210.8920  156.0960 O   0  0  0  0  0  0  0  0  0  0  0  0
  162.3950  210.0540  156.3840 N   0  0  0  0  0  0  0  0  0  0  0  0
  162.5980  209.0200  157.0540 O   0  0  0  0  0  0  0  0  0  0  0  0
  1  4  1  6  0  0  0
  1  2  1  0  0  0  0
  1  3  1  0  0  0  0
  2  3  1  0  0  0  0
  2 25  1  1  0  0  0
  5  6  1  1  0  0  0
  5  4  1  0  0  0  0
  7  5  1  1  0  0  0
  8 13  1  0  0  0  0
  9 12  1  0  0  0  0
  9  7  1  1  0  0  0
  9  8  1  0  0  0  0
 10 13  1  0  0  0  0
 10 11  1  0  0  0  0
 12 10  1  0  0  0  0
 14 10  1  0  0  0  0
 14 11  1  0  0  0  0
 15 16  1  0  0  0  0
 16  7  1  1  0  0  0
 17 20  1  6  0  0  0
 17 19  1  0  0  0  0
 17 15  1  0  0  0  0
 18 16  1  0  0  0  0
 19 18  1  0  0  0  0
 21 20  1  0  0  0  0
 21 22  1  0  0  0  0
 21 24  1  0  0  0  0
 23 21  1  0  0  0  0
 23 22  1  0  0  0  0
 25 29  1  0  0  0  0
 27 28  2  0  0  0  0
 28 29  1  0  0  0  0
 28 30  1  0  0  0  0
 29 26  1  0  0  0  0
 30 31  1  1  0  0  0
 30 43  1  0  0  0  0
 32 37  1  0  0  0  0
 32 35  1  0  0  0  0
 34 31  1  6  0  0  0
 34 33  1  0  0  0  0
 35 38  1  0  0  0  0
 36 37  2  0  0  0  0
 37 34  1  0  0  0  0
 38 33  1  0  0  0  0
 39 32  1  0  0  0  0
 40 39  1  0  0  0  0
 41 40  1  0  0  0  0
 42 41  2  0  0  0  0
 43 45  1  0  0  0  0
 44 45  2  0  0  0  0
 45 46  2  0  0  0  0
M  END
>  <MODEL>
4

>  <REMARK>
 VINA RESULT:      -5.6      2.145      3.370
  Name = 
  17 active torsions:
  status: ('A' for Active; 'I' for Inactive)
    1  A    between atoms: C_1  and  C_43
    2  A    between atoms: C_4  and  C_12
    3  A    between atoms: C_4  and  C_13
    4  A    between atoms: C_4  and  C_16
    5  A    between atoms: C_5  and  N_38
    6  A    between atoms: C_6  and  C_45
    7  A    between atoms: N_7  and  O_9
    8  A    between atoms: O_9  and  C_42
    9  A    between atoms: C_13  and  C_45
   10  A    between atoms: C_14  and  C_25
   11  A    between atoms: C_14  and  C_42
   12  A    between atoms: N_15  and  C_36
   13  A    between atoms: C_17  and  N_30
   14  A    between atoms: C_20  and  N_38
   15  A    between atoms: C_27  and  C_42
   16  A    between atoms: N_30  and  N_41
   17  A    between atoms: C_36  and  C_43
                            x       y       z     vdW  Elec       q    Type
                         _______ _______ _______ _____ _____    ______ ____

>  <TORSDO>
F 17

$$$$
=
 OpenBabel11072413523D

 46 51  0  0  1  0  0  0  0  0999 V2000
  161.2600  204.5830  152.6020 C   0  0  1  0  0  3  0  0  0  0  0  0
  161.2130  206.0440  152.8240 C   0  0  1  0  0  3  0  0  0  0  0  0
  160.0700  205.3160  152.4340 O   0  0  0  0  0  0  0  0  0  0  0  0
  161.8430  204.2910  151.2280 C   0  0  0  0  0  2  0  0  0  0  0  0
  160.7680  204.1780  150.1430 C   0  0  2  0  0  3  0  0  0  0  0  0
  160.7250  202.8130  149.6390 N   0  0  0  0  0  1  0  0  0  0  0  0
  160.9180  205.2050  148.9870 C   0  0  2  0  0  3  0  0  0  0  0  0
  161.0790  203.2580  147.4830 O   0  0  0  0  0  0  0  0  0  0  0  0
  161.5320  204.5850  147.7160 C   0  0  1  0  0  3  0  0  0  0  0  0
  161.1550  204.4150  145.4680 C   0  0  0  0  0  0  0  0  0  0  0  0
  160.2200  204.7140  144.3260 C   0  0  0  0  0  2  0  0  0  0  0  0
  161.3180  205.4660  146.4940 C   0  0  0  0  0  2  0  0  0  0  0  0
  161.0770  203.0540  146.0890 C   0  0  0  0  0  2  0  0  0  0  0  0
  161.7320  204.5980  144.0910 C   0  0  0  0  0  2  0  0  0  0  0  0
  160.9550  207.7060  149.3910 C   0  0  0  0  0  2  0  0  0  0  0  0
  161.7570  206.4180  149.4410 C   0  0  2  0  0  3  0  0  0  0  0  0
  161.9700  208.8180  149.2330 C   0  0  1  0  0  3  0  0  0  0  0  0
  162.9440  206.6980  148.5350 C   0  0  0  0  0  2  0  0  0  0  0  0
  163.2460  208.1750  148.7160 C   0  0  0  0  0  2  0  0  0  0  0  0
  161.4810  209.7930  148.2690 N   0  0  0  0  0  2  0  0  0  0  0  0
  161.7150  211.1280  148.8060 C   0  0  0  0  0  0  0  0  0  0  0  0
  162.9080  211.8360  148.2140 C   0  0  0  0  0  2  0  0  0  0  0  0
  161.4880  212.3060  147.8900 C   0  0  0  0  0  2  0  0  0  0  0  0
  161.5450  211.3290  150.1770 O   0  0  0  0  0  1  0  0  0  0  0  0
  161.1310  206.3210  154.2530 N   0  0  0  0  0  2  0  0  0  0  0  0
  161.5220  208.5290  153.4320 O   0  0  0  0  0  1  0  0  0  0  0  0
  159.9490  207.5020  156.4670 O   0  0  0  0  0  0  0  0  0  0  0  0
  160.3480  208.2620  155.5400 C   0  0  0  0  0  0  0  0  0  0  0  0
  161.0700  207.7140  154.4230 N   0  0  0  0  0  0  0  0  0  0  0  0
  160.0630  209.7280  155.6430 C   0  0  1  0  0  3  0  0  0  0  0  0
  158.5710  210.0100  155.4640 C   0  0  0  0  0  2  0  0  0  0  0  0
  157.3820  213.0720  153.5700 N   0  0  0  0  0  0  0  0  0  0  0  0
  157.1140  211.8650  156.0920 N   0  0  0  0  0  2  0  0  0  0  0  0
  158.3210  211.5110  155.3420 C   0  0  2  0  0  3  0  0  0  0  0  0
  156.4100  213.5860  154.5310 C   0  0  0  0  0  2  0  0  0  0  0  0
  158.8550  211.3480  152.9990 O   0  0  0  0  0  0  0  0  0  0  0  0
  158.1900  211.9290  153.8970 C   0  0  0  0  0  0  0  0  0  0  0  0
  156.8680  213.2960  155.9570 C   0  0  0  0  0  2  0  0  0  0  0  0
  157.3940  213.6300  152.2240 C   0  0  0  0  0  2  0  0  0  0  0  0
  158.6590  214.4480  152.0050 C   0  0  0  0  0  2  0  0  0  0  0  0
  159.0220  214.4430  150.5540 C   0  0  0  0  0  3  0  0  0  0  0  0
  159.0350  213.3990  149.9230 O   0  0  0  0  0  0  0  0  0  0  0  0
  160.5210  210.2310  156.8940 O   0  0  0  0  0  0  0  0  0  0  0  0
  161.0660  212.5400  157.2610 O   0  0  0  0  0  0  0  0  0  0  0  0
  161.4510  211.2470  156.9730 N   0  0  0  0  0  0  0  0  0  0  0  0
  162.6560  211.0000  156.7610 O   0  0  0  0  0  0  0  0  0  0  0  0
  1  4  1  6  0  0  0
  1  2  1  0  0  0  0
  2 25  1  1  0  0  0
  3  1  1  0  0  0  0
  3  2  1  0  0  0  0
  5  6  1  6  0  0  0
  5  4  1  0  0  0  0
  7  5  1  1  0  0  0
  8  9  1  0  0  0  0
  9  7  1  1  0  0  0
 10 13  1  0  0  0  0
 10 12  1  0  0  0  0
 11 10  1  0  0  0  0
 12  9  1  0  0  0  0
 13  8  1  0  0  0  0
 14 11  1  0  0  0  0
 14 10  1  0  0  0  0
 15 16  1  0  0  0  0
 16  7  1  6  0  0  0
 17 20  1  6  0  0  0
 17 15  1  0  0  0  0
 18 19  1  0  0  0  0
 18 16  1  0  0  0  0
 19 17  1  0  0  0  0
 20 21  1  0  0  0  0
 21 24  1  0  0  0  0
 22 21  1  0  0  0  0
 23 22  1  0  0  0  0
 23 21  1  0  0  0  0
 25 29  1  0  0  0  0
 26 29  1  0  0  0  0
 28 30  1  0  0  0  0
 28 27  2  0  0  0  0
 29 28  1  0  0  0  0
 30 31  1  1  0  0  0
 30 43  1  0  0  0  0
 32 37  1  0  0  0  0
 32 35  1  0  0  0  0
 34 31  1  6  0  0  0
 34 33  1  0  0  0  0
 35 38  1  0  0  0  0
 36 37  2  0  0  0  0
 37 34  1  0  0  0  0
 38 33  1  0  0  0  0
 39 32  1  0  0  0  0
 40 39  1  0  0  0  0
 41 40  1  0  0  0  0
 42 41  2  0  0  0  0
 43 45  1  0  0  0  0
 45 44  2  0  0  0  0
 46 45  2  0  0  0  0
M  END
>  <MODEL>
5

>  <REMARK>
 VINA RESULT:      -5.6      2.128      4.979
  Name = 
  17 active torsions:
  status: ('A' for Active; 'I' for Inactive)
    1  A    between atoms: C_1  and  C_43
    2  A    between atoms: C_4  and  C_12
    3  A    between atoms: C_4  and  C_13
    4  A    between atoms: C_4  and  C_16
    5  A    between atoms: C_5  and  N_38
    6  A    between atoms: C_6  and  C_45
    7  A    between atoms: N_7  and  O_9
    8  A    between atoms: O_9  and  C_42
    9  A    between atoms: C_13  and  C_45
   10  A    between atoms: C_14  and  C_25
   11  A    between atoms: C_14  and  C_42
   12  A    between atoms: N_15  and  C_36
   13  A    between atoms: C_17  and  N_30
   14  A    between atoms: C_20  and  N_38
   15  A    between atoms: C_27  and  C_42
   16  A    between atoms: N_30  and  N_41
   17  A    between atoms: C_36  and  C_43
                            x       y       z     vdW  Elec       q    Type
                         _______ _______ _______ _____ _____    ______ ____

>  <TORSDO>
F 17

$$$$
=
 OpenBabel11072413523D

 46 51  0  0  1  0  0  0  0  0999 V2000
  160.5050  206.1700  153.2800 C   0  0  1  0  0  3  0  0  0  0  0  0
  160.7860  206.7750  154.6000 C   0  0  1  0  0  3  0  0  0  0  0  0
  161.2470  207.3610  153.4030 O   0  0  0  0  0  0  0  0  0  0  0  0
  161.4730  205.0250  153.0250 C   0  0  0  0  0  2  0  0  0  0  0  0
  162.1810  205.1410  151.6720 C   0  0  2  0  0  3  0  0  0  0  0  0
  163.4580  205.8170  151.8470 N   0  0  0  0  0  1  0  0  0  0  0  0
  161.3300  205.8140  150.5620 C   0  0  2  0  0  3  0  0  0  0  0  0
  161.7240  204.5540  148.4800 O   0  0  0  0  0  0  0  0  0  0  0  0
  160.7950  204.8040  149.5260 C   0  0  1  0  0  3  0  0  0  0  0  0
  160.7210  202.5560  149.1190 C   0  0  0  0  0  0  0  0  0  0  0  0
  161.1620  201.1860  149.5590 C   0  0  0  0  0  2  0  0  0  0  0  0
  160.3350  203.5100  150.1800 C   0  0  0  0  0  2  0  0  0  0  0  0
  161.5200  203.2290  148.0450 C   0  0  0  0  0  2  0  0  0  0  0  0
  159.8440  201.3770  148.7980 C   0  0  0  0  0  2  0  0  0  0  0  0
  161.6330  208.3060  150.2130 C   0  0  0  0  0  2  0  0  0  0  0  0
  162.1380  206.9200  149.8510 C   0  0  2  0  0  3  0  0  0  0  0  0
  162.0250  209.2020  149.0580 C   0  0  1  0  0  3  0  0  0  0  0  0
  162.0120  206.8750  148.3370 C   0  0  0  0  0  2  0  0  0  0  0  0
  162.2950  208.2930  147.8700 C   0  0  0  0  0  2  0  0  0  0  0  0
  160.9270  210.1080  148.7480 N   0  0  0  0  0  2  0  0  0  0  0  0
  161.4870  211.3350  148.1970 C   0  0  0  0  0  0  0  0  0  0  0  0
  161.9660  212.3200  149.2330 C   0  0  0  0  0  2  0  0  0  0  0  0
  162.9690  211.5680  148.3570 C   0  0  0  0  0  2  0  0  0  0  0  0
  160.8530  211.9160  147.0960 O   0  0  0  0  0  1  0  0  0  0  0  0
  159.6150  207.5090  155.0630 N   0  0  0  0  0  2  0  0  0  0  0  0
  159.6280  209.5720  153.8600 O   0  0  0  0  0  1  0  0  0  0  0  0
  160.5800  208.9320  157.2400 O   0  0  0  0  0  0  0  0  0  0  0  0
  160.3010  209.5800  156.1920 C   0  0  0  0  0  0  0  0  0  0  0  0
  159.9080  208.8810  154.9980 N   0  0  0  0  0  0  0  0  0  0  0  0
  160.4050  211.0740  156.2260 C   0  0  1  0  0  3  0  0  0  0  0  0
  159.3900  211.6710  157.1990 C   0  0  0  0  0  2  0  0  0  0  0  0
  157.4710  212.9390  154.1850 N   0  0  0  0  0  0  0  0  0  0  0  0
  157.4520  210.7960  156.0000 N   0  0  0  0  0  2  0  0  0  0  0  0
  158.0940  212.0250  156.4720 C   0  0  2  0  0  3  0  0  0  0  0  0
  156.5900  211.7950  153.9620 C   0  0  0  0  0  2  0  0  0  0  0  0
  159.2660  213.8290  155.3900 O   0  0  0  0  0  0  0  0  0  0  0  0
  158.3520  212.9650  155.3200 C   0  0  0  0  0  0  0  0  0  0  0  0
  156.2250  211.1390  155.2900 C   0  0  0  0  0  2  0  0  0  0  0  0
  157.5590  213.9620  153.1510 C   0  0  0  0  0  2  0  0  0  0  0  0
  158.4280  213.4730  152.0000 C   0  0  0  0  0  2  0  0  0  0  0  0
  157.7980  213.8440  150.6960 C   0  0  0  0  0  3  0  0  0  0  0  0
  156.8750  213.1850  150.2440 O   0  0  0  0  0  0  0  0  0  0  0  0
  161.7270  211.4670  156.5770 O   0  0  0  0  0  0  0  0  0  0  0  0
  162.7220  210.6870  154.5370 O   0  0  0  0  0  0  0  0  0  0  0  0
  162.8290  211.0350  155.8660 N   0  0  0  0  0  0  0  0  0  0  0  0
  163.9330  210.9360  156.4400 O   0  0  0  0  0  0  0  0  0  0  0  0
  1  4  1  1  0  0  0
  1  3  1  0  0  0  0
  1  2  1  0  0  0  0
  2 25  1  6  0  0  0
  3  2  1  0  0  0  0
  5  6  1  1  0  0  0
  5  4  1  0  0  0  0
  7  5  1  1  0  0  0
  8  9  1  0  0  0  0
  9 12  1  0  0  0  0
  9  7  1  1  0  0  0
 10 11  1  0  0  0  0
 10 12  1  0  0  0  0
 13  8  1  0  0  0  0
 13 10  1  0  0  0  0
 14 10  1  0  0  0  0
 14 11  1  0  0  0  0
 16 15  1  0  0  0  0
 16  7  1  1  0  0  0
 17 20  1  6  0  0  0
 17 15  1  0  0  0  0
 18 16  1  0  0  0  0
 19 18  1  0  0  0  0
 19 17  1  0  0  0  0
 21 23  1  0  0  0  0
 21 20  1  0  0  0  0
 21 22  1  0  0  0  0
 23 22  1  0  0  0  0
 24 21  1  0  0  0  0
 26 29  1  0  0  0  0
 28 30  1  0  0  0  0
 28 27  2  0  0  0  0
 29 25  1  0  0  0  0
 29 28  1  0  0  0  0
 30 43  1  0  0  0  0
 30 31  1  1  0  0  0
 32 37  1  0  0  0  0
 33 34  1  0  0  0  0
 34 31  1  6  0  0  0
 35 32  1  0  0  0  0
 35 38  1  0  0  0  0
 37 36  2  0  0  0  0
 37 34  1  0  0  0  0
 38 33  1  0  0  0  0
 39 32  1  0  0  0  0
 40 39  1  0  0  0  0
 41 40  1  0  0  0  0
 42 41  2  0  0  0  0
 44 45  2  0  0  0  0
 45 46  2  0  0  0  0
 45 43  1  0  0  0  0
M  END
>  <MODEL>
6

>  <REMARK>
 VINA RESULT:      -5.0      2.328      5.321
  Name = 
  17 active torsions:
  status: ('A' for Active; 'I' for Inactive)
    1  A    between atoms: C_1  and  C_43
    2  A    between atoms: C_4  and  C_12
    3  A    between atoms: C_4  and  C_13
    4  A    between atoms: C_4  and  C_16
    5  A    between atoms: C_5  and  N_38
    6  A    between atoms: C_6  and  C_45
    7  A    between atoms: N_7  and  O_9
    8  A    between atoms: O_9  and  C_42
    9  A    between atoms: C_13  and  C_45
   10  A    between atoms: C_14  and  C_25
   11  A    between atoms: C_14  and  C_42
   12  A    between atoms: N_15  and  C_36
   13  A    between atoms: C_17  and  N_30
   14  A    between atoms: C_20  and  N_38
   15  A    between atoms: C_27  and  C_42
   16  A    between atoms: N_30  and  N_41
   17  A    between atoms: C_36  and  C_43
                            x       y       z     vdW  Elec       q    Type
                         _______ _______ _______ _____ _____    ______ ____

>  <TORSDO>
F 17

$$$$
=
 OpenBabel11072413523D

 46 51  0  0  1  0  0  0  0  0999 V2000
  161.2080  204.2520  152.0190 C   0  0  1  0  0  3  0  0  0  0  0  0
  160.6180  204.9730  153.1680 C   0  0  1  0  0  3  0  0  0  0  0  0
  161.0980  203.6520  153.2880 O   0  0  0  0  0  0  0  0  0  0  0  0
  160.1010  203.7060  151.1310 C   0  0  0  0  0  2  0  0  0  0  0  0
  160.6350  202.8410  149.9860 C   0  0  2  0  0  3  0  0  0  0  0  0
  161.3680  201.7080  150.5330 N   0  0  0  0  0  1  0  0  0  0  0  0
  161.4850  203.6160  148.9430 C   0  0  2  0  0  3  0  0  0  0  0  0
  160.2890  205.6070  149.7700 O   0  0  0  0  0  0  0  0  0  0  0  0
  160.9220  205.0200  148.6410 C   0  0  1  0  0  3  0  0  0  0  0  0
  161.5440  207.2190  148.6600 C   0  0  0  0  0  0  0  0  0  0  0  0
  162.6190  208.2170  149.0020 C   0  0  0  0  0  2  0  0  0  0  0  0
  161.9810  205.9430  148.0570 C   0  0  0  0  0  2  0  0  0  0  0  0
  160.4550  207.0030  149.6650 C   0  0  0  0  0  2  0  0  0  0  0  0
  161.6190  208.4990  147.8730 C   0  0  0  0  0  2  0  0  0  0  0  0
  161.5810  203.7060  146.4120 C   0  0  0  0  0  2  0  0  0  0  0  0
  161.6130  202.8070  147.6350 C   0  0  2  0  0  3  0  0  0  0  0  0
  161.0900  202.8370  145.2740 C   0  0  1  0  0  3  0  0  0  0  0  0
  160.4570  201.8480  147.4080 C   0  0  0  0  0  2  0  0  0  0  0  0
  160.4000  201.6390  145.9050 C   0  0  0  0  0  2  0  0  0  0  0  0
  160.1400  203.5840  144.4620 N   0  0  0  0  0  2  0  0  0  0  0  0
  160.5080  204.9940  144.5060 C   0  0  0  0  0  0  0  0  0  0  0  0
  161.9930  205.2470  144.5750 C   0  0  0  0  0  2  0  0  0  0  0  0
  161.2090  205.5770  143.3030 C   0  0  0  0  0  2  0  0  0  0  0  0
  159.7390  205.8550  145.2900 O   0  0  0  0  0  1  0  0  0  0  0  0
  161.6020  205.8860  153.7340 N   0  0  0  0  0  2  0  0  0  0  0  0
  160.1380  207.3250  154.9540 O   0  0  0  0  0  1  0  0  0  0  0  0
  162.1840  208.0700  152.1260 O   0  0  0  0  0  0  0  0  0  0  0  0
  161.4130  208.2540  153.1090 C   0  0  0  0  0  0  0  0  0  0  0  0
  160.9860  207.1370  153.9070 N   0  0  0  0  0  0  0  0  0  0  0  0
  160.9520  209.6480  153.4060 C   0  0  1  0  0  3  0  0  0  0  0  0
  161.0730  209.9590  154.8980 C   0  0  0  0  0  2  0  0  0  0  0  0
  158.2170  212.3080  155.7320 N   0  0  0  0  0  0  0  0  0  0  0  0
  160.8220  211.7010  156.5890 N   0  0  0  0  0  2  0  0  0  0  0  0
  160.5070  211.3430  155.2040 C   0  0  2  0  0  3  0  0  0  0  0  0
  158.7450  212.9010  156.9590 C   0  0  0  0  0  2  0  0  0  0  0  0
  158.4910  210.7070  154.0500 O   0  0  0  0  0  0  0  0  0  0  0  0
  159.0170  211.3900  154.9690 C   0  0  0  0  0  0  0  0  0  0  0  0
  160.2630  213.0160  156.8830 C   0  0  0  0  0  2  0  0  0  0  0  0
  156.8170  212.5320  155.3960 C   0  0  0  0  0  2  0  0  0  0  0  0
  155.9160  211.8270  156.4010 C   0  0  0  0  0  2  0  0  0  0  0  0
  155.4410  210.5290  155.8320 C   0  0  0  0  0  3  0  0  0  0  0  0
  155.2050  210.4250  154.6380 O   0  0  0  0  0  0  0  0  0  0  0  0
  161.6970  210.5870  152.6370 O   0  0  0  0  0  0  0  0  0  0  0  0
  160.0390  212.0410  151.6900 O   0  0  0  0  0  0  0  0  0  0  0  0
  161.1490  211.2360  151.5490 N   0  0  0  0  0  0  0  0  0  0  0  0
  161.6500  211.0750  150.4170 O   0  0  0  0  0  0  0  0  0  0  0  0
  1  4  1  6  0  0  0
  1  2  1  0  0  0  0
  1  3  1  0  0  0  0
  2  3  1  0  0  0  0
  2 25  1  1  0  0  0
  5  6  1  1  0  0  0
  5  4  1  0  0  0  0
  7  5  1  1  0  0  0
  9  7  1  1  0  0  0
  9  8  1  0  0  0  0
 10 11  1  0  0  0  0
 10 13  1  0  0  0  0
 12  9  1  0  0  0  0
 12 10  1  0  0  0  0
 13  8  1  0  0  0  0
 14 10  1  0  0  0  0
 14 11  1  0  0  0  0
 15 16  1  0  0  0  0
 16  7  1  1  0  0  0
 17 20  1  6  0  0  0
 17 19  1  0  0  0  0
 17 15  1  0  0  0  0
 18 16  1  0  0  0  0
 19 18  1  0  0  0  0
 20 21  1  0  0  0  0
 21 22  1  0  0  0  0
 21 24  1  0  0  0  0
 23 21  1  0  0  0  0
 23 22  1  0  0  0  0
 25 29  1  0  0  0  0
 27 28  2  0  0  0  0
 28 30  1  0  0  0  0
 28 29  1  0  0  0  0
 29 26  1  0  0  0  0
 30 31  1  1  0  0  0
 32 35  1  0  0  0  0
 33 38  1  0  0  0  0
 34 31  1  1  0  0  0
 34 33  1  0  0  0  0
 36 37  2  0  0  0  0
 37 34  1  0  0  0  0
 37 32  1  0  0  0  0
 38 35  1  0  0  0  0
 39 32  1  0  0  0  0
 39 40  1  0  0  0  0
 41 40  1  0  0  0  0
 42 41  2  0  0  0  0
 43 30  1  0  0  0  0
 45 44  2  0  0  0  0
 45 43  1  0  0  0  0
 46 45  2  0  0  0  0
M  END
>  <MODEL>
7

>  <REMARK>
 VINA RESULT:      -4.7      2.783      4.806
  Name = 
  17 active torsions:
  status: ('A' for Active; 'I' for Inactive)
    1  A    between atoms: C_1  and  C_43
    2  A    between atoms: C_4  and  C_12
    3  A    between atoms: C_4  and  C_13
    4  A    between atoms: C_4  and  C_16
    5  A    between atoms: C_5  and  N_38
    6  A    between atoms: C_6  and  C_45
    7  A    between atoms: N_7  and  O_9
    8  A    between atoms: O_9  and  C_42
    9  A    between atoms: C_13  and  C_45
   10  A    between atoms: C_14  and  C_25
   11  A    between atoms: C_14  and  C_42
   12  A    between atoms: N_15  and  C_36
   13  A    between atoms: C_17  and  N_30
   14  A    between atoms: C_20  and  N_38
   15  A    between atoms: C_27  and  C_42
   16  A    between atoms: N_30  and  N_41
   17  A    between atoms: C_36  and  C_43
                            x       y       z     vdW  Elec       q    Type
                         _______ _______ _______ _____ _____    ______ ____

>  <TORSDO>
F 17

$$$$
=
 OpenBabel11072413523D

 46 51  0  0  1  0  0  0  0  0999 V2000
  161.2080  203.7670  151.1600 C   0  0  1  0  0  3  0  0  0  0  0  0
  160.6390  204.8160  152.0330 C   0  0  1  0  0  3  0  0  0  0  0  0
  160.8620  203.5040  152.5000 O   0  0  0  0  0  0  0  0  0  0  0  0
  160.1190  203.2000  150.2620 C   0  0  0  0  0  2  0  0  0  0  0  0
  160.6370  202.1030  149.3280 C   0  0  2  0  0  3  0  0  0  0  0  0
  162.0520  201.8760  149.5810 N   0  0  0  0  0  1  0  0  0  0  0  0
  160.3650  202.3670  147.8220 C   0  0  2  0  0  3  0  0  0  0  0  0
  159.7150  201.3350  145.6800 O   0  0  0  0  0  0  0  0  0  0  0  0
  160.0240  201.0800  147.0440 C   0  0  1  0  0  3  0  0  0  0  0  0
  161.0320  199.4240  145.8320 C   0  0  0  0  0  0  0  0  0  0  0  0
  162.3130  198.9110  145.2310 C   0  0  0  0  0  2  0  0  0  0  0  0
  161.1170  200.0300  147.1770 C   0  0  0  0  0  2  0  0  0  0  0  0
  160.1120  200.2020  144.9410 C   0  0  0  0  0  2  0  0  0  0  0  0
  161.2010  197.9400  145.6520 C   0  0  0  0  0  2  0  0  0  0  0  0
  161.7670  204.4750  147.7230 C   0  0  0  0  0  2  0  0  0  0  0  0
  161.5680  203.0770  147.1670 C   0  0  2  0  0  3  0  0  0  0  0  0
  162.4910  205.2490  146.6420 C   0  0  1  0  0  3  0  0  0  0  0  0
  161.3910  203.3040  145.6750 C   0  0  0  0  0  2  0  0  0  0  0  0
  162.2780  204.4910  145.3430 C   0  0  0  0  0  2  0  0  0  0  0  0
  161.9230  206.5860  146.5340 N   0  0  0  0  0  2  0  0  0  0  0  0
  161.5660  207.0420  147.8720 C   0  0  0  0  0  0  0  0  0  0  0  0
  162.7070  207.0350  148.8570 C   0  0  0  0  0  2  0  0  0  0  0  0
  162.1350  208.3580  148.3430 C   0  0  0  0  0  2  0  0  0  0  0  0
  160.3400  206.6370  148.4040 O   0  0  0  0  0  1  0  0  0  0  0  0
  161.7050  205.6790  152.5240 N   0  0  0  0  0  2  0  0  0  0  0  0
  160.4680  206.5130  154.3890 O   0  0  0  0  0  1  0  0  0  0  0  0
  161.9600  208.3120  151.6910 O   0  0  0  0  0  0  0  0  0  0  0  0
  161.3770  208.0990  152.7910 C   0  0  0  0  0  0  0  0  0  0  0  0
  161.1150  206.7500  153.2160 N   0  0  0  0  0  0  0  0  0  0  0  0
  160.9600  209.2750  153.6200 C   0  0  1  0  0  3  0  0  0  0  0  0
  159.7330  209.9600  153.0200 C   0  0  0  0  0  2  0  0  0  0  0  0
  159.6520  213.5120  151.6960 N   0  0  0  0  0  0  0  0  0  0  0  0
  158.5710  211.9680  153.7780 N   0  0  0  0  0  2  0  0  0  0  0  0
  159.8230  211.4740  153.2030 C   0  0  2  0  0  3  0  0  0  0  0  0
  158.6060  214.0640  152.5540 C   0  0  0  0  0  2  0  0  0  0  0  0
  160.8420  211.6150  151.0240 O   0  0  0  0  0  0  0  0  0  0  0  0
  160.1170  212.1670  151.8950 C   0  0  0  0  0  0  0  0  0  0  0  0
  158.6540  213.4160  153.9340 C   0  0  0  0  0  2  0  0  0  0  0  0
  160.0860  214.2870  150.5400 C   0  0  0  0  0  2  0  0  0  0  0  0
  159.0030  214.2840  149.4690 C   0  0  0  0  0  2  0  0  0  0  0  0
  159.4160  213.4050  148.3330 C   0  0  0  0  0  3  0  0  0  0  0  0
  159.3420  213.8050  147.1820 O   0  0  0  0  0  0  0  0  0  0  0  0
  160.7010  208.8650  154.9590 O   0  0  0  0  0  0  0  0  0  0  0  0
  161.4500  210.5320  156.5140 O   0  0  0  0  0  0  0  0  0  0  0  0
  161.5090  209.2510  156.0080 N   0  0  0  0  0  0  0  0  0  0  0  0
  162.3220  208.4370  156.4940 O   0  0  0  0  0  0  0  0  0  0  0  0
  1  4  1  6  0  0  0
  1  2  1  0  0  0  0
  1  3  1  0  0  0  0
  2  3  1  0  0  0  0
  2 25  1  1  0  0  0
  5  6  1  6  0  0  0
  5  4  1  0  0  0  0
  7  5  1  1  0  0  0
  8  9  1  0  0  0  0
  9 12  1  0  0  0  0
  9  7  1  6  0  0  0
 10 12  1  0  0  0  0
 11 14  1  0  0  0  0
 11 10  1  0  0  0  0
 13  8  1  0  0  0  0
 13 10  1  0  0  0  0
 14 10  1  0  0  0  0
 16 15  1  0  0  0  0
 16  7  1  1  0  0  0
 17 20  1  6  0  0  0
 17 15  1  0  0  0  0
 18 16  1  0  0  0  0
 19 18  1  0  0  0  0
 19 17  1  0  0  0  0
 20 21  1  0  0  0  0
 21 23  1  0  0  0  0
 21 24  1  0  0  0  0
 21 22  1  0  0  0  0
 23 22  1  0  0  0  0
 25 29  1  0  0  0  0
 27 28  2  0  0  0  0
 28 29  1  0  0  0  0
 28 30  1  0  0  0  0
 29 26  1  0  0  0  0
 30 31  1  6  0  0  0
 30 43  1  0  0  0  0
 32 37  1  0  0  0  0
 32 35  1  0  0  0  0
 33 38  1  0  0  0  0
 34 31  1  6  0  0  0
 34 33  1  0  0  0  0
 35 38  1  0  0  0  0
 36 37  2  0  0  0  0
 37 34  1  0  0  0  0
 39 32  1  0  0  0  0
 40 39  1  0  0  0  0
 41 40  1  0  0  0  0
 42 41  2  0  0  0  0
 43 45  1  0  0  0  0
 45 46  2  0  0  0  0
 45 44  2  0  0  0  0
M  END
>  <MODEL>
8

>  <REMARK>
 VINA RESULT:      -4.6      2.031      4.737
  Name = 
  17 active torsions:
  status: ('A' for Active; 'I' for Inactive)
    1  A    between atoms: C_1  and  C_43
    2  A    between atoms: C_4  and  C_12
    3  A    between atoms: C_4  and  C_13
    4  A    between atoms: C_4  and  C_16
    5  A    between atoms: C_5  and  N_38
    6  A    between atoms: C_6  and  C_45
    7  A    between atoms: N_7  and  O_9
    8  A    between atoms: O_9  and  C_42
    9  A    between atoms: C_13  and  C_45
   10  A    between atoms: C_14  and  C_25
   11  A    between atoms: C_14  and  C_42
   12  A    between atoms: N_15  and  C_36
   13  A    between atoms: C_17  and  N_30
   14  A    between atoms: C_20  and  N_38
   15  A    between atoms: C_27  and  C_42
   16  A    between atoms: N_30  and  N_41
   17  A    between atoms: C_36  and  C_43
                            x       y       z     vdW  Elec       q    Type
                         _______ _______ _______ _____ _____    ______ ____

>  <TORSDO>
F 17

$$$$
=
 OpenBabel11072413523D

 46 51  0  0  1  0  0  0  0  0999 V2000
  161.1790  203.1880  151.2590 C   0  0  1  0  0  3  0  0  0  0  0  0
  160.8090  204.6140  151.3920 C   0  0  1  0  0  3  0  0  0  0  0  0
  160.4980  203.6710  152.3940 O   0  0  0  0  0  0  0  0  0  0  0  0
  160.1770  202.4790  150.3630 C   0  0  0  0  0  2  0  0  0  0  0  0
  160.8490  201.6810  149.2420 C   0  0  2  0  0  3  0  0  0  0  0  0
  162.2930  201.7050  149.4240 N   0  0  0  0  0  1  0  0  0  0  0  0
  160.4500  202.1300  147.8100 C   0  0  2  0  0  3  0  0  0  0  0  0
  159.9860  201.3320  145.5250 O   0  0  0  0  0  0  0  0  0  0  0  0
  160.1090  200.9440  146.8860 C   0  0  1  0  0  3  0  0  0  0  0  0
  161.1270  199.3100  145.6530 C   0  0  0  0  0  0  0  0  0  0  0  0
  162.4280  198.7380  145.1580 C   0  0  0  0  0  2  0  0  0  0  0  0
  161.0950  199.7960  147.0480 C   0  0  0  0  0  2  0  0  0  0  0  0
  160.3820  200.2320  144.7370 C   0  0  0  0  0  2  0  0  0  0  0  0
  161.2040  197.8360  145.3610 C   0  0  0  0  0  2  0  0  0  0  0  0
  161.6090  204.3840  147.7720 C   0  0  0  0  0  2  0  0  0  0  0  0
  161.5670  202.9880  147.1780 C   0  0  2  0  0  3  0  0  0  0  0  0
  162.2410  205.2630  146.7150 C   0  0  1  0  0  3  0  0  0  0  0  0
  161.3630  203.2340  145.6920 C   0  0  0  0  0  2  0  0  0  0  0  0
  162.1120  204.5220  145.3950 C   0  0  0  0  0  2  0  0  0  0  0  0
  161.5270  206.5310  146.6420 N   0  0  0  0  0  2  0  0  0  0  0  0
  161.4090  207.0690  147.9910 C   0  0  0  0  0  0  0  0  0  0  0  0
  162.7060  207.1150  148.7580 C   0  0  0  0  0  2  0  0  0  0  0  0
  162.0460  208.4080  148.2740 C   0  0  0  0  0  2  0  0  0  0  0  0
  160.2990  206.7040  148.7550 O   0  0  0  0  0  1  0  0  0  0  0  0
  161.9700  205.3860  151.8140 N   0  0  0  0  0  2  0  0  0  0  0  0
  161.7890  205.7360  154.1690 O   0  0  0  0  0  1  0  0  0  0  0  0
  160.9780  207.9560  151.4950 O   0  0  0  0  0  0  0  0  0  0  0  0
  161.1830  207.5490  152.6730 C   0  0  0  0  0  0  0  0  0  0  0  0
  161.5870  206.1880  152.9020 N   0  0  0  0  0  0  0  0  0  0  0  0
  160.9830  208.5070  153.8070 C   0  0  1  0  0  3  0  0  0  0  0  0
  160.9330  209.9490  153.3030 C   0  0  0  0  0  2  0  0  0  0  0  0
  160.4530  212.3760  156.1760 N   0  0  0  0  0  0  0  0  0  0  0  0
  162.0000  210.1350  155.4900 N   0  0  0  0  0  2  0  0  0  0  0  0
  161.4640  210.9070  154.3670 C   0  0  2  0  0  3  0  0  0  0  0  0
  161.2980  211.7310  157.1780 C   0  0  0  0  0  2  0  0  0  0  0  0
  159.4970  212.2590  154.0450 O   0  0  0  0  0  0  0  0  0  0  0  0
  160.3880  211.8540  154.8380 C   0  0  0  0  0  0  0  0  0  0  0  0
  162.4900  211.0540  156.5120 C   0  0  0  0  0  2  0  0  0  0  0  0
  159.5570  213.4440  156.6010 C   0  0  0  0  0  2  0  0  0  0  0  0
  158.2470  212.8590  157.1110 C   0  0  0  0  0  2  0  0  0  0  0  0
  157.1400  213.1940  156.1640 C   0  0  0  0  0  3  0  0  0  0  0  0
  156.1460  212.4880  156.0980 O   0  0  0  0  0  0  0  0  0  0  0  0
  159.7950  208.1840  154.5200 O   0  0  0  0  0  0  0  0  0  0  0  0
  159.2230  209.1130  156.6580 O   0  0  0  0  0  0  0  0  0  0  0  0
  159.7710  208.1020  155.8980 N   0  0  0  0  0  0  0  0  0  0  0  0
  160.2730  207.1110  156.4670 O   0  0  0  0  0  0  0  0  0  0  0  0
  1  4  1  6  0  0  0
  1  2  1  0  0  0  0
  1  3  1  0  0  0  0
  2 25  1  1  0  0  0
  2  3  1  0  0  0  0
  5  6  1  6  0  0  0
  5  4  1  0  0  0  0
  7  5  1  1  0  0  0
  8  9  1  0  0  0  0
  9 12  1  0  0  0  0
  9  7  1  1  0  0  0
 10 12  1  0  0  0  0
 11 14  1  0  0  0  0
 11 10  1  0  0  0  0
 13  8  1  0  0  0  0
 13 10  1  0  0  0  0
 14 10  1  0  0  0  0
 16 15  1  0  0  0  0
 16  7  1  1  0  0  0
 17 20  1  6  0  0  0
 17 15  1  0  0  0  0
 18 16  1  0  0  0  0
 19 18  1  0  0  0  0
 19 17  1  0  0  0  0
 20 21  1  0  0  0  0
 21 23  1  0  0  0  0
 21 24  1  0  0  0  0
 21 22  1  0  0  0  0
 23 22  1  0  0  0  0
 25 29  1  0  0  0  0
 27 28  2  0  0  0  0
 28 29  1  0  0  0  0
 28 30  1  0  0  0  0
 29 26  1  0  0  0  0
 30 31  1  6  0  0  0
 30 43  1  0  0  0  0
 32 39  1  0  0  0  0
 32 35  1  0  0  0  0
 33 38  1  0  0  0  0
 34 31  1  6  0  0  0
 34 37  1  0  0  0  0
 34 33  1  0  0  0  0
 36 37  2  0  0  0  0
 37 32  1  0  0  0  0
 38 35  1  0  0  0  0
 39 40  1  0  0  0  0
 41 40  1  0  0  0  0
 42 41  2  0  0  0  0
 43 45  1  0  0  0  0
 45 46  2  0  0  0  0
 45 44  2  0  0  0  0
M  END
>  <MODEL>
9

>  <REMARK>
 VINA RESULT:      -4.6      2.896      5.965
  Name = 
  17 active torsions:
  status: ('A' for Active; 'I' for Inactive)
    1  A    between atoms: C_1  and  C_43
    2  A    between atoms: C_4  and  C_12
    3  A    between atoms: C_4  and  C_13
    4  A    between atoms: C_4  and  C_16
    5  A    between atoms: C_5  and  N_38
    6  A    between atoms: C_6  and  C_45
    7  A    between atoms: N_7  and  O_9
    8  A    between atoms: O_9  and  C_42
    9  A    between atoms: C_13  and  C_45
   10  A    between atoms: C_14  and  C_25
   11  A    between atoms: C_14  and  C_42
   12  A    between atoms: N_15  and  C_36
   13  A    between atoms: C_17  and  N_30
   14  A    between atoms: C_20  and  N_38
   15  A    between atoms: C_27  and  C_42
   16  A    between atoms: N_30  and  N_41
   17  A    between atoms: C_36  and  C_43
                            x       y       z     vdW  Elec       q    Type
                         _______ _______ _______ _____ _____    ______ ____

>  <TORSDO>
F 17

$$$$
