=
 OpenBabel11072411083D

 46 51  0  0  1  0  0  0  0  0999 V2000
  161.5200  208.4330  153.1440 N   0  0  1  0  0  0  0  0  0  0  0  0
  161.0860  208.0070  155.3300 N   0  0  0  0  0  2  0  0  0  0  0  0
  160.8350  207.2200  153.0840 N   0  0  0  0  0  2  0  0  0  0  0  0
  161.1200  209.4330  152.1780 C   0  0  1  0  0  3  0  0  0  0  0  0
  160.8010  206.8170  154.5060 C   0  0  0  0  0  2  0  0  0  0  0  0
  161.4680  210.3830  154.4050 C   0  0  0  0  0  2  0  0  0  0  0  0
  161.3810  210.7680  152.9190 C   0  0  2  0  0  3  0  0  0  0  0  0
  160.9340  208.9920  154.3010 C   0  0  1  0  0  3  0  0  0  0  0  0
  160.2760  211.6840  152.6850 N   0  0  0  0  0  0  0  0  0  0  0  0
  159.0330  212.2030  153.0810 C   0  0  0  0  0  0  0  0  0  0  0  0
  157.1680  213.5180  152.7260 C   0  0  0  0  0  3  0  0  0  0  0  0
  157.7380  213.9280  151.4430 C   0  0  0  0  0  3  0  0  0  0  0  0
  159.0200  213.4670  150.9770 C   0  0  0  0  0  0  0  0  0  0  0  0
  157.8460  212.6060  153.6110 C   0  0  0  0  0  0  0  0  0  0  0  0
  159.5740  212.5950  151.8780 C   0  0  0  0  0  0  0  0  0  0  0  0
  159.5930  213.8530  149.6720 C   0  0  0  0  0  0  0  0  0  0  0  0
  158.9000  213.7720  148.5230 C   0  0  0  0  0  3  0  0  0  0  0  0
  161.6940  214.4210  148.4730 C   0  0  0  0  0  1  0  0  0  0  0  0
  160.9230  214.2940  149.6610 O   0  0  0  0  0  0  0  0  0  0  0  0
  157.5110  213.2360  148.3920 C   0  0  0  0  0  2  0  0  0  0  0  0
  157.3600  212.4940  147.0730 C   0  0  0  0  0  2  0  0  0  0  0  0
  157.9140  213.3240  145.9260 C   0  0  0  0  0  2  0  0  0  0  0  0
  158.7780  212.4780  145.0020 C   0  0  0  0  0  2  0  0  0  0  0  0
  159.4090  213.2900  144.0580 O   0  0  0  0  0  0  0  0  0  0  0  0
  160.6150  213.6530  144.6580 C   0  0  0  0  0  1  0  0  0  0  0  0
  157.3670  212.1730  154.8470 O   0  0  0  0  0  0  0  0  0  0  0  0
  157.9130  211.0400  155.5060 C   0  0  0  0  0  1  0  0  0  0  0  0
  161.9400  209.3300  150.8920 C   0  0  0  0  0  2  0  0  0  0  0  0
  161.9810  207.9110  150.3360 C   0  0  0  0  0  2  0  0  0  0  0  0
  162.3240  207.9390  148.8600 C   0  0  0  0  0  2  0  0  0  0  0  0
  161.9910  206.7190  148.2700 O   0  0  0  0  0  0  0  0  0  0  0  0
  160.4420  206.4020  146.6090 O   0  0  0  0  0  0  0  0  0  0  0  0
  161.6160  205.8670  146.0410 C   0  0  1  0  0  3  0  0  0  0  0  0
  161.6430  207.0500  146.9540 C   0  0  2  0  0  3  0  0  0  0  0  0
  161.9360  204.5330  146.7150 C   0  0  0  0  0  2  0  0  0  0  0  0
  161.8740  203.3960  145.7020 C   0  0  0  0  0  2  0  0  0  0  0  0
  160.7900  202.3910  146.0650 C   0  0  0  0  0  2  0  0  0  0  0  0
  161.1830  201.6100  147.3080 C   0  0  0  0  0  2  0  0  0  0  0  0
  160.0870  201.6920  148.3620 C   0  0  0  0  0  2  0  0  0  0  0  0
  160.3760  203.8570  149.5760 C   0  0  0  0  0  3  0  0  0  0  0  0
  161.1000  201.8190  150.6700 C   0  0  0  0  0  0  0  0  0  0  0  0
  160.5360  202.4670  149.5600 C   0  0  0  0  0  0  0  0  0  0  0  0
  160.7790  204.6000  150.6890 C   0  0  0  0  0  3  0  0  0  0  0  0
  161.5030  202.5640  151.7830 C   0  0  0  0  0  3  0  0  0  0  0  0
  161.3430  203.9530  151.7930 C   0  0  0  0  0  3  0  0  0  0  0  0
  161.2620  200.4730  150.6760 F   0  0  0  0  0  0  0  0  0  0  0  0
  1  3  1  6  0  0  0
  1  8  1  0  0  0  0
  3  5  1  0  0  0  0
  4 28  1  6  0  0  0
  4  7  1  0  0  0  0
  4  1  1  0  0  0  0
  5  2  1  0  0  0  0
  7  9  1  1  0  0  0
  7  6  1  0  0  0  0
  8  6  1  1  0  0  0
  8  2  1  0  0  0  0
  9 10  1  0  0  0  0
 10 14  1  0  0  0  0
 11 14  2  0  0  0  0
 12 11  1  0  0  0  0
 13 12  2  0  0  0  0
 13 15  1  0  0  0  0
 14 26  1  0  0  0  0
 15  9  1  0  0  0  0
 15 10  2  0  0  0  0
 16 13  1  0  0  0  0
 17 16  2  0  0  0  0
 18 19  1  0  0  0  0
 19 16  1  0  0  0  0
 20 17  1  0  0  0  0
 21 20  1  0  0  0  0
 22 21  1  0  0  0  0
 23 22  1  0  0  0  0
 24 25  1  0  0  0  0
 24 23  1  0  0  0  0
 26 27  1  0  0  0  0
 29 28  1  0  0  0  0
 30 29  1  0  0  0  0
 31 30  1  0  0  0  0
 32 34  1  0  0  0  0
 33 32  1  0  0  0  0
 33 35  1  1  0  0  0
 33 34  1  0  0  0  0
 34 31  1  1  0  0  0
 36 37  1  0  0  0  0
 36 35  1  0  0  0  0
 37 38  1  0  0  0  0
 38 39  1  0  0  0  0
 39 42  1  0  0  0  0
 40 43  1  0  0  0  0
 41 46  1  0  0  0  0
 41 44  2  0  0  0  0
 42 40  2  0  0  0  0
 42 41  1  0  0  0  0
 43 45  2  0  0  0  0
 44 45  1  0  0  0  0
M  END
>  <MODEL>
1

>  <REMARK>
 VINA RESULT:      -7.4      0.000      0.000
  Name = 
  20 active torsions:
  status: ('A' for Active; 'I' for Inactive)
    1  A    between atoms: C_1  and  C_14
    2  A    between atoms: C_1  and  C_46
    3  A    between atoms: C_4  and  C_16
    4  A    between atoms: C_4  and  C_38
    5  A    between atoms: C_5  and  C_23
    6  A    between atoms: C_5  and  C_25
    7  A    between atoms: N_6  and  C_37
    8  A    between atoms: C_7  and  C_22
    9  A    between atoms: C_7  and  O_43
   10  A    between atoms: O_9  and  C_39
   11  A    between atoms: O_11  and  C_21
   12  A    between atoms: C_14  and  C_15
   13  A    between atoms: C_15  and  C_30
   14  A    between atoms: C_16  and  C_21
   15  A    between atoms: C_17  and  C_33
   16  A    between atoms: C_25  and  C_28
   17  A    between atoms: C_28  and  O_45
   18  A    between atoms: C_31  and  C_38
   19  A    between atoms: C_33  and  C_46
   20  A    between atoms: C_40  and  O_45
                            x       y       z     vdW  Elec       q    Type
                         _______ _______ _______ _____ _____    ______ ____

>  <TORSDO>
F 20

$$$$
=
 OpenBabel11072411083D

 46 51  0  0  1  0  0  0  0  0999 V2000
  161.2470  208.6860  153.9580 N   0  0  1  0  0  0  0  0  0  0  0  0
  161.6510  208.4390  156.1780 N   0  0  0  0  0  2  0  0  0  0  0  0
  160.4900  207.5600  154.2790 N   0  0  0  0  0  2  0  0  0  0  0  0
  160.5950  209.6690  153.1220 C   0  0  1  0  0  3  0  0  0  0  0  0
  160.9710  207.2450  155.6420 C   0  0  0  0  0  2  0  0  0  0  0  0
  161.8510  210.6980  154.9510 C   0  0  0  0  0  2  0  0  0  0  0  0
  161.2330  211.0050  153.5760 C   0  0  2  0  0  3  0  0  0  0  0  0
  161.2010  209.3750  155.1910 C   0  0  1  0  0  3  0  0  0  0  0  0
  160.2060  212.0280  153.6860 N   0  0  0  0  0  0  0  0  0  0  0  0
  159.4080  212.8560  154.4910 C   0  0  0  0  0  0  0  0  0  0  0  0
  157.6910  214.3730  154.7810 C   0  0  0  0  0  3  0  0  0  0  0  0
  157.4560  214.3370  153.3380 C   0  0  0  0  0  3  0  0  0  0  0  0
  158.2480  213.5400  152.4390 C   0  0  0  0  0  0  0  0  0  0  0  0
  158.7280  213.5970  155.4090 C   0  0  0  0  0  0  0  0  0  0  0  0
  159.1920  212.8280  153.1320 C   0  0  0  0  0  0  0  0  0  0  0  0
  158.0020  213.4750  150.9840 C   0  0  0  0  0  0  0  0  0  0  0  0
  158.9960  213.4950  150.0790 C   0  0  0  0  0  3  0  0  0  0  0  0
  156.0440  214.4470  149.8020 C   0  0  0  0  0  1  0  0  0  0  0  0
  156.6670  213.4180  150.5620 O   0  0  0  0  0  0  0  0  0  0  0  0
  160.4480  213.6440  150.4000 C   0  0  0  0  0  2  0  0  0  0  0  0
  161.1430  214.4490  149.3130 C   0  0  0  0  0  2  0  0  0  0  0  0
  161.1700  213.6730  148.0060 C   0  0  0  0  0  2  0  0  0  0  0  0
  162.4140  214.0070  147.1940 C   0  0  0  0  0  2  0  0  0  0  0  0
  162.3540  213.3840  145.9470 O   0  0  0  0  0  0  0  0  0  0  0  0
  161.0110  213.0370  145.7920 C   0  0  0  0  0  1  0  0  0  0  0  0
  159.0140  213.5820  156.7750 O   0  0  0  0  0  0  0  0  0  0  0  0
  160.3400  213.4480  157.2610 C   0  0  0  0  0  1  0  0  0  0  0  0
  160.8460  209.3970  151.6380 C   0  0  0  0  0  2  0  0  0  0  0  0
  161.5860  208.0850  151.4000 C   0  0  0  0  0  2  0  0  0  0  0  0
  160.6960  207.1140  150.6510 C   0  0  0  0  0  2  0  0  0  0  0  0
  161.4340  206.4500  149.6700 O   0  0  0  0  0  0  0  0  0  0  0  0
  161.5270  208.3660  148.4120 O   0  0  0  0  0  0  0  0  0  0  0  0
  162.2960  207.4610  147.6530 C   0  0  1  0  0  3  0  0  0  0  0  0
  162.2840  207.4340  149.1480 C   0  0  2  0  0  3  0  0  0  0  0  0
  161.3660  206.4480  146.9880 C   0  0  0  0  0  2  0  0  0  0  0  0
  162.0680  205.7660  145.8200 C   0  0  0  0  0  2  0  0  0  0  0  0
  161.0770  205.0250  144.9350 C   0  0  0  0  0  2  0  0  0  0  0  0
  160.9300  203.5830  145.3920 C   0  0  0  0  0  2  0  0  0  0  0  0
  162.0090  203.2280  146.4050 C   0  0  0  0  0  2  0  0  0  0  0  0
  161.1700  203.5630  148.7350 C   0  0  0  0  0  3  0  0  0  0  0  0
  161.0960  201.3300  147.7950 C   0  0  0  0  0  0  0  0  0  0  0  0
  161.4180  202.6900  147.6700 C   0  0  0  0  0  0  0  0  0  0  0  0
  160.6090  203.0830  149.9220 C   0  0  0  0  0  3  0  0  0  0  0  0
  160.5340  200.8520  148.9840 C   0  0  0  0  0  3  0  0  0  0  0  0
  160.2910  201.7280  150.0460 C   0  0  0  0  0  3  0  0  0  0  0  0
  161.3260  200.4680  146.7740 F   0  0  0  0  0  0  0  0  0  0  0  0
  1  3  1  1  0  0  0
  1  8  1  0  0  0  0
  3  5  1  0  0  0  0
  4 28  1  6  0  0  0
  4  7  1  0  0  0  0
  4  1  1  0  0  0  0
  5  2  1  0  0  0  0
  7  9  1  1  0  0  0
  7  6  1  0  0  0  0
  8  6  1  6  0  0  0
  8  2  1  0  0  0  0
  9 10  1  0  0  0  0
 10 14  1  0  0  0  0
 11 14  2  0  0  0  0
 12 11  1  0  0  0  0
 13 15  1  0  0  0  0
 13 12  2  0  0  0  0
 14 26  1  0  0  0  0
 15  9  1  0  0  0  0
 15 10  2  0  0  0  0
 16 13  1  0  0  0  0
 17 20  1  0  0  0  0
 17 16  2  0  0  0  0
 18 19  1  0  0  0  0
 19 16  1  0  0  0  0
 21 20  1  0  0  0  0
 22 21  1  0  0  0  0
 23 22  1  0  0  0  0
 24 23  1  0  0  0  0
 25 24  1  0  0  0  0
 26 27  1  0  0  0  0
 29 28  1  0  0  0  0
 30 29  1  0  0  0  0
 31 30  1  0  0  0  0
 32 34  1  0  0  0  0
 33 35  1  6  0  0  0
 33 32  1  0  0  0  0
 33 34  1  0  0  0  0
 34 31  1  6  0  0  0
 36 35  1  0  0  0  0
 37 38  1  0  0  0  0
 37 36  1  0  0  0  0
 38 39  1  0  0  0  0
 39 42  1  0  0  0  0
 40 43  1  0  0  0  0
 41 44  2  0  0  0  0
 42 41  1  0  0  0  0
 42 40  2  0  0  0  0
 43 45  2  0  0  0  0
 44 45  1  0  0  0  0
 46 41  1  0  0  0  0
M  END
>  <MODEL>
2

>  <REMARK>
 VINA RESULT:      -6.2      1.801      2.636
  Name = 
  20 active torsions:
  status: ('A' for Active; 'I' for Inactive)
    1  A    between atoms: C_1  and  C_14
    2  A    between atoms: C_1  and  C_46
    3  A    between atoms: C_4  and  C_16
    4  A    between atoms: C_4  and  C_38
    5  A    between atoms: C_5  and  C_23
    6  A    between atoms: C_5  and  C_25
    7  A    between atoms: N_6  and  C_37
    8  A    between atoms: C_7  and  C_22
    9  A    between atoms: C_7  and  O_43
   10  A    between atoms: O_9  and  C_39
   11  A    between atoms: O_11  and  C_21
   12  A    between atoms: C_14  and  C_15
   13  A    between atoms: C_15  and  C_30
   14  A    between atoms: C_16  and  C_21
   15  A    between atoms: C_17  and  C_33
   16  A    between atoms: C_25  and  C_28
   17  A    between atoms: C_28  and  O_45
   18  A    between atoms: C_31  and  C_38
   19  A    between atoms: C_33  and  C_46
   20  A    between atoms: C_40  and  O_45
                            x       y       z     vdW  Elec       q    Type
                         _______ _______ _______ _____ _____    ______ ____

>  <TORSDO>
F 20

$$$$
=
 OpenBabel11072411083D

 46 51  0  0  1  0  0  0  0  0999 V2000
  161.4610  208.3880  153.0120 N   0  0  1  0  0  0  0  0  0  0  0  0
  161.0650  207.9530  155.2040 N   0  0  0  0  0  2  0  0  0  0  0  0
  160.6590  207.2500  152.9530 N   0  0  0  0  0  2  0  0  0  0  0  0
  161.1270  209.4460  152.0840 C   0  0  1  0  0  3  0  0  0  0  0  0
  160.6370  206.8170  154.3670 C   0  0  0  0  0  2  0  0  0  0  0  0
  161.6440  210.3030  154.3160 C   0  0  0  0  0  2  0  0  0  0  0  0
  161.5430  210.7320  152.8420 C   0  0  2  0  0  3  0  0  0  0  0  0
  160.9730  208.9730  154.2030 C   0  0  1  0  0  3  0  0  0  0  0  0
  160.5250  211.7550  152.6690 N   0  0  0  0  0  0  0  0  0  0  0  0
  159.8000  212.6050  151.8200 C   0  0  0  0  0  0  0  0  0  0  0  0
  158.3040  214.3260  151.4530 C   0  0  0  0  0  3  0  0  0  0  0  0
  158.1380  214.4500  152.9010 C   0  0  0  0  0  3  0  0  0  0  0  0
  158.8200  213.5980  153.8390 C   0  0  0  0  0  0  0  0  0  0  0  0
  159.1790  213.3470  150.8620 C   0  0  0  0  0  0  0  0  0  0  0  0
  159.6370  212.7160  153.1820 C   0  0  0  0  0  0  0  0  0  0  0  0
  158.6810  213.7320  155.3030 C   0  0  0  0  0  0  0  0  0  0  0  0
  157.5230  214.0780  155.8930 C   0  0  0  0  0  3  0  0  0  0  0  0
  160.3290  214.4500  157.0190 C   0  0  0  0  0  1  0  0  0  0  0  0
  159.8260  213.5080  156.0790 O   0  0  0  0  0  0  0  0  0  0  0  0
  156.2620  214.4290  155.1730 C   0  0  0  0  0  2  0  0  0  0  0  0
  155.3920  213.1930  155.0100 C   0  0  0  0  0  2  0  0  0  0  0  0
  155.3680  212.3830  156.2960 C   0  0  0  0  0  2  0  0  0  0  0  0
  155.7520  210.9330  156.0400 C   0  0  0  0  0  2  0  0  0  0  0  0
  156.6380  210.8530  154.9650 O   0  0  0  0  0  0  0  0  0  0  0  0
  157.8270  210.3830  155.5250 C   0  0  0  0  0  1  0  0  0  0  0  0
  159.3850  213.1680  149.4940 O   0  0  0  0  0  0  0  0  0  0  0  0
  160.6200  212.6930  148.9790 C   0  0  0  0  0  1  0  0  0  0  0  0
  161.8880  209.2960  150.7660 C   0  0  0  0  0  2  0  0  0  0  0  0
  161.9130  207.8560  150.2660 C   0  0  0  0  0  2  0  0  0  0  0  0
  161.3240  207.7770  148.8720 C   0  0  0  0  0  2  0  0  0  0  0  0
  161.7580  206.6140  148.2360 O   0  0  0  0  0  0  0  0  0  0  0  0
  160.9600  206.5630  146.0860 O   0  0  0  0  0  0  0  0  0  0  0  0
  162.1740  205.8550  145.9810 C   0  0  1  0  0  3  0  0  0  0  0  0
  162.0070  207.0090  146.9150 C   0  0  2  0  0  3  0  0  0  0  0  0
  162.0110  204.4800  146.6280 C   0  0  0  0  0  2  0  0  0  0  0  0
  161.6060  203.4450  145.5870 C   0  0  0  0  0  2  0  0  0  0  0  0
  160.7480  202.3490  146.2010 C   0  0  0  0  0  2  0  0  0  0  0  0
  161.3830  201.8300  147.4810 C   0  0  0  0  0  2  0  0  0  0  0  0
  160.3320  201.6440  148.5660 C   0  0  0  0  0  2  0  0  0  0  0  0
  161.1830  201.6890  150.9150 C   0  0  0  0  0  3  0  0  0  0  0  0
  160.5550  203.7880  149.8780 C   0  0  0  0  0  0  0  0  0  0  0  0
  160.6910  202.3930  149.8110 C   0  0  0  0  0  0  0  0  0  0  0  0
  161.5330  202.3700  152.0850 C   0  0  0  0  0  3  0  0  0  0  0  0
  160.9070  204.4670  151.0490 C   0  0  0  0  0  3  0  0  0  0  0  0
  161.3950  203.7590  152.1510 C   0  0  0  0  0  3  0  0  0  0  0  0
  160.0830  204.4890  148.8180 F   0  0  0  0  0  0  0  0  0  0  0  0
  1  3  1  6  0  0  0
  1  8  1  0  0  0  0
  3  5  1  0  0  0  0
  4 28  1  6  0  0  0
  4  7  1  0  0  0  0
  4  1  1  0  0  0  0
  5  2  1  0  0  0  0
  7  9  1  1  0  0  0
  7  6  1  0  0  0  0
  8  6  1  1  0  0  0
  8  2  1  0  0  0  0
  9 15  1  0  0  0  0
 10  9  1  0  0  0  0
 10 15  1  0  0  0  0
 11 12  2  0  0  0  0
 12 13  1  0  0  0  0
 13 16  1  0  0  0  0
 14 11  1  0  0  0  0
 14 10  2  0  0  0  0
 15 13  2  0  0  0  0
 16 17  2  0  0  0  0
 16 19  1  0  0  0  0
 19 18  1  0  0  0  0
 20 17  1  0  0  0  0
 21 20  1  0  0  0  0
 21 22  1  0  0  0  0
 23 22  1  0  0  0  0
 24 25  1  0  0  0  0
 24 23  1  0  0  0  0
 26 14  1  0  0  0  0
 27 26  1  0  0  0  0
 29 28  1  0  0  0  0
 30 29  1  0  0  0  0
 31 30  1  0  0  0  0
 32 34  1  0  0  0  0
 33 32  1  0  0  0  0
 33 35  1  1  0  0  0
 33 34  1  0  0  0  0
 34 31  1  1  0  0  0
 36 37  1  0  0  0  0
 36 35  1  0  0  0  0
 37 38  1  0  0  0  0
 38 39  1  0  0  0  0
 39 42  1  0  0  0  0
 40 43  1  0  0  0  0
 41 44  2  0  0  0  0
 42 41  1  0  0  0  0
 42 40  2  0  0  0  0
 43 45  2  0  0  0  0
 44 45  1  0  0  0  0
 46 41  1  0  0  0  0
M  END
>  <MODEL>
3

>  <REMARK>
 VINA RESULT:      -6.1      1.837      4.670
  Name = 
  20 active torsions:
  status: ('A' for Active; 'I' for Inactive)
    1  A    between atoms: C_1  and  C_14
    2  A    between atoms: C_1  and  C_46
    3  A    between atoms: C_4  and  C_16
    4  A    between atoms: C_4  and  C_38
    5  A    between atoms: C_5  and  C_23
    6  A    between atoms: C_5  and  C_25
    7  A    between atoms: N_6  and  C_37
    8  A    between atoms: C_7  and  C_22
    9  A    between atoms: C_7  and  O_43
   10  A    between atoms: O_9  and  C_39
   11  A    between atoms: O_11  and  C_21
   12  A    between atoms: C_14  and  C_15
   13  A    between atoms: C_15  and  C_30
   14  A    between atoms: C_16  and  C_21
   15  A    between atoms: C_17  and  C_33
   16  A    between atoms: C_25  and  C_28
   17  A    between atoms: C_28  and  O_45
   18  A    between atoms: C_31  and  C_38
   19  A    between atoms: C_33  and  C_46
   20  A    between atoms: C_40  and  O_45
                            x       y       z     vdW  Elec       q    Type
                         _______ _______ _______ _____ _____    ______ ____

>  <TORSDO>
F 20

$$$$
=
 OpenBabel11072411083D

 46 51  0  0  1  0  0  0  0  0999 V2000
  160.0890  212.1910  151.4640 N   0  0  1  0  0  0  0  0  0  0  0  0
  158.2900  213.3210  152.2640 N   0  0  0  0  0  2  0  0  0  0  0  0
  160.5490  213.5060  151.4950 N   0  0  0  0  0  2  0  0  0  0  0  0
  161.0010  211.1900  151.9730 C   0  0  1  0  0  3  0  0  0  0  0  0
  159.3030  214.2610  151.7480 C   0  0  0  0  0  2  0  0  0  0  0  0
  158.7030  210.8180  152.7260 C   0  0  0  0  0  2  0  0  0  0  0  0
  160.0560  210.1070  152.5510 C   0  0  2  0  0  3  0  0  0  0  0  0
  159.1710  212.2240  152.5370 C   0  0  1  0  0  3  0  0  0  0  0  0
  160.5660  209.6400  153.8290 N   0  0  0  0  0  0  0  0  0  0  0  0
  160.9010  208.5750  154.6800 C   0  0  0  0  0  0  0  0  0  0  0  0
  161.5650  207.7330  156.7250 C   0  0  0  0  0  3  0  0  0  0  0  0
  161.6240  209.1020  157.2360 C   0  0  0  0  0  3  0  0  0  0  0  0
  161.3270  210.2510  156.4220 C   0  0  0  0  0  0  0  0  0  0  0  0
  161.1880  207.4360  155.3680 C   0  0  0  0  0  0  0  0  0  0  0  0
  160.9640  209.8640  155.1590 C   0  0  0  0  0  0  0  0  0  0  0  0
  161.3570  211.6350  156.9350 C   0  0  0  0  0  0  0  0  0  0  0  0
  160.2470  212.3820  157.0740 C   0  0  0  0  0  3  0  0  0  0  0  0
  163.8100  211.4090  157.2580 C   0  0  0  0  0  1  0  0  0  0  0  0
  162.6100  212.1730  157.2570 O   0  0  0  0  0  0  0  0  0  0  0  0
  158.8690  211.9550  156.6820 C   0  0  0  0  0  2  0  0  0  0  0  0
  158.1040  213.1320  156.0980 C   0  0  0  0  0  2  0  0  0  0  0  0
  156.6610  212.7450  155.8160 C   0  0  0  0  0  2  0  0  0  0  0  0
  156.5770  211.3700  155.1670 C   0  0  0  0  0  2  0  0  0  0  0  0
  155.8390  210.5030  155.9740 O   0  0  0  0  0  0  0  0  0  0  0  0
  154.8260  210.0260  155.1400 C   0  0  0  0  0  1  0  0  0  0  0  0
  161.1130  206.1600  154.8090 O   0  0  0  0  0  0  0  0  0  0  0  0
  161.1570  205.9530  153.4060 C   0  0  0  0  0  1  0  0  0  0  0  0
  161.8940  210.6300  150.8650 C   0  0  0  0  0  2  0  0  0  0  0  0
  161.3880  209.2970  150.3240 C   0  0  0  0  0  2  0  0  0  0  0  0
  162.4260  208.2150  150.5500 C   0  0  0  0  0  2  0  0  0  0  0  0
  162.0780  207.0650  149.8410 O   0  0  0  0  0  0  0  0  0  0  0  0
  160.3290  206.3180  148.5580 O   0  0  0  0  0  0  0  0  0  0  0  0
  161.1200  207.0170  147.6240 C   0  0  1  0  0  3  0  0  0  0  0  0
  160.9940  207.4600  149.0460 C   0  0  2  0  0  3  0  0  0  0  0  0
  162.3750  206.1990  147.3190 C   0  0  0  0  0  2  0  0  0  0  0  0
  162.3940  205.7790  145.8550 C   0  0  0  0  0  2  0  0  0  0  0  0
  162.4600  204.2650  145.7150 C   0  0  0  0  0  2  0  0  0  0  0  0
  161.0750  203.6570  145.8610 C   0  0  0  0  0  2  0  0  0  0  0  0
  161.1680  202.2240  146.3680 C   0  0  0  0  0  2  0  0  0  0  0  0
  160.8490  203.3390  148.5810 C   0  0  0  0  0  3  0  0  0  0  0  0
  161.2430  200.9480  148.5430 C   0  0  0  0  0  0  0  0  0  0  0  0
  161.0910  202.1650  147.8610 C   0  0  0  0  0  0  0  0  0  0  0  0
  160.7630  203.3040  149.9760 C   0  0  0  0  0  3  0  0  0  0  0  0
  161.1560  200.9160  149.9390 C   0  0  0  0  0  3  0  0  0  0  0  0
  160.9170  202.0920  150.6550 C   0  0  0  0  0  3  0  0  0  0  0  0
  161.4760  199.7980  147.8640 F   0  0  0  0  0  0  0  0  0  0  0  0
  1  3  1  1  0  0  0
  1  4  1  0  0  0  0
  1  8  1  0  0  0  0
  2  8  1  0  0  0  0
  3  5  1  0  0  0  0
  4 28  1  6  0  0  0
  4  7  1  0  0  0  0
  5  2  1  0  0  0  0
  7  6  1  1  0  0  0
  7  9  1  0  0  0  0
  8  6  1  6  0  0  0
  9 10  1  0  0  0  0
  9 15  1  0  0  0  0
 10 15  2  0  0  0  0
 10 14  1  0  0  0  0
 11 12  1  0  0  0  0
 13 16  1  0  0  0  0
 13 12  2  0  0  0  0
 14 11  2  0  0  0  0
 15 13  1  0  0  0  0
 16 17  2  0  0  0  0
 16 19  1  0  0  0  0
 19 18  1  0  0  0  0
 20 17  1  0  0  0  0
 21 20  1  0  0  0  0
 22 21  1  0  0  0  0
 23 22  1  0  0  0  0
 23 24  1  0  0  0  0
 25 24  1  0  0  0  0
 26 14  1  0  0  0  0
 27 26  1  0  0  0  0
 29 30  1  0  0  0  0
 29 28  1  0  0  0  0
 31 30  1  0  0  0  0
 32 34  1  0  0  0  0
 33 35  1  1  0  0  0
 33 32  1  0  0  0  0
 33 34  1  0  0  0  0
 34 31  1  1  0  0  0
 36 35  1  0  0  0  0
 37 36  1  0  0  0  0
 37 38  1  0  0  0  0
 38 39  1  0  0  0  0
 39 42  1  0  0  0  0
 40 43  1  0  0  0  0
 41 44  2  0  0  0  0
 42 41  1  0  0  0  0
 42 40  2  0  0  0  0
 43 45  2  0  0  0  0
 44 45  1  0  0  0  0
 46 41  1  0  0  0  0
M  END
>  <MODEL>
4

>  <REMARK>
 VINA RESULT:      -5.8      2.968      5.944
  Name = 
  20 active torsions:
  status: ('A' for Active; 'I' for Inactive)
    1  A    between atoms: C_1  and  C_14
    2  A    between atoms: C_1  and  C_46
    3  A    between atoms: C_4  and  C_16
    4  A    between atoms: C_4  and  C_38
    5  A    between atoms: C_5  and  C_23
    6  A    between atoms: C_5  and  C_25
    7  A    between atoms: N_6  and  C_37
    8  A    between atoms: C_7  and  C_22
    9  A    between atoms: C_7  and  O_43
   10  A    between atoms: O_9  and  C_39
   11  A    between atoms: O_11  and  C_21
   12  A    between atoms: C_14  and  C_15
   13  A    between atoms: C_15  and  C_30
   14  A    between atoms: C_16  and  C_21
   15  A    between atoms: C_17  and  C_33
   16  A    between atoms: C_25  and  C_28
   17  A    between atoms: C_28  and  O_45
   18  A    between atoms: C_31  and  C_38
   19  A    between atoms: C_33  and  C_46
   20  A    between atoms: C_40  and  O_45
                            x       y       z     vdW  Elec       q    Type
                         _______ _______ _______ _____ _____    ______ ____

>  <TORSDO>
F 20

$$$$
=
 OpenBabel11072411083D

 46 51  0  0  1  0  0  0  0  0999 V2000
  161.6640  207.9290  152.3370 N   0  0  1  0  0  0  0  0  0  0  0  0
  161.4680  207.0740  154.4300 N   0  0  0  0  0  2  0  0  0  0  0  0
  160.8110  206.8440  152.1400 N   0  0  0  0  0  2  0  0  0  0  0  0
  161.2860  209.1580  151.6750 C   0  0  1  0  0  3  0  0  0  0  0  0
  160.9100  206.1380  153.4360 C   0  0  0  0  0  2  0  0  0  0  0  0
  162.0570  209.5400  153.9640 C   0  0  0  0  0  2  0  0  0  0  0  0
  161.8300  210.2570  152.6220 C   0  0  2  0  0  3  0  0  0  0  0  0
  161.3220  208.2760  153.6630 C   0  0  1  0  0  3  0  0  0  0  0  0
  160.8450  211.3170  152.7610 N   0  0  0  0  0  0  0  0  0  0  0  0
  160.0550  212.3170  152.1720 C   0  0  0  0  0  0  0  0  0  0  0  0
  158.6040  214.1080  152.3040 C   0  0  0  0  0  3  0  0  0  0  0  0
  158.6310  213.9850  153.7610 C   0  0  0  0  0  3  0  0  0  0  0  0
  159.3900  212.9690  154.4430 C   0  0  0  0  0  0  0  0  0  0  0  0
  159.3500  213.2260  151.4450 C   0  0  0  0  0  0  0  0  0  0  0  0
  160.0750  212.1950  153.5430 C   0  0  0  0  0  0  0  0  0  0  0  0
  159.4460  212.8520  155.9140 C   0  0  0  0  0  0  0  0  0  0  0  0
  158.4030  213.1530  156.7060 C   0  0  0  0  0  3  0  0  0  0  0  0
  160.8370  211.1630  157.0920 C   0  0  0  0  0  1  0  0  0  0  0  0
  160.6590  212.4330  156.4770 O   0  0  0  0  0  0  0  0  0  0  0  0
  157.0920  213.6930  156.2340 C   0  0  0  0  0  2  0  0  0  0  0  0
  155.9730  212.7240  156.5780 C   0  0  0  0  0  2  0  0  0  0  0  0
  155.6610  211.8240  155.3930 C   0  0  0  0  0  2  0  0  0  0  0  0
  155.6970  212.6040  154.0860 C   0  0  0  0  0  2  0  0  0  0  0  0
  154.8430  213.7050  154.1600 O   0  0  0  0  0  0  0  0  0  0  0  0
  154.7870  214.1940  152.8540 C   0  0  0  0  0  1  0  0  0  0  0  0
  159.3700  213.2800  150.0510 O   0  0  0  0  0  0  0  0  0  0  0  0
  160.5770  213.1550  149.3140 C   0  0  0  0  0  1  0  0  0  0  0  0
  161.9050  209.2570  150.2800 C   0  0  0  0  0  2  0  0  0  0  0  0
  162.2010  207.8900  149.6730 C   0  0  0  0  0  2  0  0  0  0  0  0
  160.9760  207.3630  148.9530 C   0  0  0  0  0  2  0  0  0  0  0  0
  161.2170  207.3090  147.5800 O   0  0  0  0  0  0  0  0  0  0  0  0
  162.8760  206.5520  146.1890 O   0  0  0  0  0  0  0  0  0  0  0  0
  162.0440  205.4220  146.3200 C   0  0  1  0  0  3  0  0  0  0  0  0
  162.2590  206.3830  147.4430 C   0  0  2  0  0  3  0  0  0  0  0  0
  160.7610  205.6480  145.5220 C   0  0  0  0  0  2  0  0  0  0  0  0
  160.3240  204.3590  144.8370 C   0  0  0  0  0  2  0  0  0  0  0  0
  161.1590  203.1760  145.3020 C   0  0  0  0  0  2  0  0  0  0  0  0
  160.3200  202.2320  146.1480 C   0  0  0  0  0  2  0  0  0  0  0  0
  161.1920  201.4940  147.1550 C   0  0  0  0  0  2  0  0  0  0  0  0
  160.9260  203.4770  148.6520 C   0  0  0  0  0  3  0  0  0  0  0  0
  161.1090  201.2830  149.6670 C   0  0  0  0  0  0  0  0  0  0  0  0
  161.0780  202.0920  148.5210 C   0  0  0  0  0  0  0  0  0  0  0  0
  160.8080  204.0550  149.9190 C   0  0  0  0  0  3  0  0  0  0  0  0
  160.9900  201.8650  150.9340 C   0  0  0  0  0  3  0  0  0  0  0  0
  160.8410  203.2490  151.0600 C   0  0  0  0  0  3  0  0  0  0  0  0
  161.2540  199.9390  149.5630 F   0  0  0  0  0  0  0  0  0  0  0  0
  1  3  1  6  0  0  0
  1  8  1  0  0  0  0
  3  5  1  0  0  0  0
  4 28  1  6  0  0  0
  4  1  1  0  0  0  0
  4  7  1  0  0  0  0
  5  2  1  0  0  0  0
  7  9  1  1  0  0  0
  7  6  1  0  0  0  0
  8  6  1  1  0  0  0
  8  2  1  0  0  0  0
  9 15  1  0  0  0  0
 10  9  1  0  0  0  0
 10 15  1  0  0  0  0
 11 12  2  0  0  0  0
 12 13  1  0  0  0  0
 13 16  1  0  0  0  0
 14 10  2  0  0  0  0
 14 11  1  0  0  0  0
 15 13  2  0  0  0  0
 16 19  1  0  0  0  0
 16 17  2  0  0  0  0
 19 18  1  0  0  0  0
 20 21  1  0  0  0  0
 20 17  1  0  0  0  0
 22 21  1  0  0  0  0
 23 24  1  0  0  0  0
 23 22  1  0  0  0  0
 25 24  1  0  0  0  0
 26 14  1  0  0  0  0
 27 26  1  0  0  0  0
 29 28  1  0  0  0  0
 30 29  1  0  0  0  0
 31 30  1  0  0  0  0
 32 33  1  0  0  0  0
 32 34  1  0  0  0  0
 33 35  1  6  0  0  0
 33 34  1  0  0  0  0
 34 31  1  6  0  0  0
 36 37  1  0  0  0  0
 36 35  1  0  0  0  0
 37 38  1  0  0  0  0
 38 39  1  0  0  0  0
 39 42  1  0  0  0  0
 40 43  1  0  0  0  0
 41 44  2  0  0  0  0
 42 40  2  0  0  0  0
 42 41  1  0  0  0  0
 43 45  2  0  0  0  0
 44 45  1  0  0  0  0
 46 41  1  0  0  0  0
M  END
>  <MODEL>
5

>  <REMARK>
 VINA RESULT:      -5.5      2.017      4.587
  Name = 
  20 active torsions:
  status: ('A' for Active; 'I' for Inactive)
    1  A    between atoms: C_1  and  C_14
    2  A    between atoms: C_1  and  C_46
    3  A    between atoms: C_4  and  C_16
    4  A    between atoms: C_4  and  C_38
    5  A    between atoms: C_5  and  C_23
    6  A    between atoms: C_5  and  C_25
    7  A    between atoms: N_6  and  C_37
    8  A    between atoms: C_7  and  C_22
    9  A    between atoms: C_7  and  O_43
   10  A    between atoms: O_9  and  C_39
   11  A    between atoms: O_11  and  C_21
   12  A    between atoms: C_14  and  C_15
   13  A    between atoms: C_15  and  C_30
   14  A    between atoms: C_16  and  C_21
   15  A    between atoms: C_17  and  C_33
   16  A    between atoms: C_25  and  C_28
   17  A    between atoms: C_28  and  O_45
   18  A    between atoms: C_31  and  C_38
   19  A    between atoms: C_33  and  C_46
   20  A    between atoms: C_40  and  O_45
                            x       y       z     vdW  Elec       q    Type
                         _______ _______ _______ _____ _____    ______ ____

>  <TORSDO>
F 20

$$$$
=
 OpenBabel11072411083D

 46 51  0  0  1  0  0  0  0  0999 V2000
  161.7780  207.3080  147.5450 N   0  0  1  0  0  0  0  0  0  0  0  0
  162.4230  205.1690  147.1430 N   0  0  0  0  0  2  0  0  0  0  0  0
  160.6870  206.7900  146.8480 N   0  0  0  0  0  2  0  0  0  0  0  0
  161.4630  208.0980  148.7150 C   0  0  1  0  0  3  0  0  0  0  0  0
  161.2220  205.5020  146.3550 C   0  0  0  0  0  2  0  0  0  0  0  0
  163.3350  206.5720  149.1050 C   0  0  0  0  0  2  0  0  0  0  0  0
  162.6730  207.8490  149.6500 C   0  0  2  0  0  3  0  0  0  0  0  0
  162.2420  206.1360  148.1850 C   0  0  1  0  0  3  0  0  0  0  0  0
  162.2080  207.6500  151.0130 N   0  0  0  0  0  0  0  0  0  0  0  0
  161.6890  206.7970  152.0000 C   0  0  0  0  0  0  0  0  0  0  0  0
  160.8020  206.4090  154.0960 C   0  0  0  0  0  3  0  0  0  0  0  0
  160.9270  207.8380  154.3800 C   0  0  0  0  0  3  0  0  0  0  0  0
  161.4760  208.7750  153.4370 C   0  0  0  0  0  0  0  0  0  0  0  0
  161.2080  205.8380  152.8380 C   0  0  0  0  0  0  0  0  0  0  0  0
  161.8150  208.1400  152.2700 C   0  0  0  0  0  0  0  0  0  0  0  0
  161.5820  210.2240  153.7030 C   0  0  0  0  0  0  0  0  0  0  0  0
  160.6680  211.1100  153.2700 C   0  0  0  0  0  3  0  0  0  0  0  0
  162.7680  210.6890  155.8360 C   0  0  0  0  0  1  0  0  0  0  0  0
  162.7050  210.6650  154.4150 O   0  0  0  0  0  0  0  0  0  0  0  0
  159.4790  210.7770  152.4270 C   0  0  0  0  0  2  0  0  0  0  0  0
  158.4210  211.8590  152.5650 C   0  0  0  0  0  2  0  0  0  0  0  0
  158.3230  212.3310  154.0070 C   0  0  0  0  0  2  0  0  0  0  0  0
  157.4240  211.4140  154.8260 C   0  0  0  0  0  2  0  0  0  0  0  0
  156.1040  211.8650  154.7740 O   0  0  0  0  0  0  0  0  0  0  0  0
  156.1520  213.1530  155.3100 C   0  0  0  0  0  1  0  0  0  0  0  0
  161.1230  204.4880  152.4960 O   0  0  0  0  0  0  0  0  0  0  0  0
  160.8660  204.0680  151.1650 C   0  0  0  0  0  1  0  0  0  0  0  0
  161.3130  209.5790  148.3660 C   0  0  0  0  0  2  0  0  0  0  0  0
  162.3320  210.4560  149.0860 C   0  0  0  0  0  2  0  0  0  0  0  0
  162.1840  211.8990  148.6430 C   0  0  0  0  0  2  0  0  0  0  0  0
  161.3770  211.9680  147.5070 O   0  0  0  0  0  0  0  0  0  0  0  0
  161.1610  214.1720  146.9090 O   0  0  0  0  0  0  0  0  0  0  0  0
  161.0140  213.5020  145.6780 C   0  0  1  0  0  3  0  0  0  0  0  0
  161.9320  213.0050  146.7470 C   0  0  2  0  0  3  0  0  0  0  0  0
  159.6480  212.8170  145.6390 C   0  0  0  0  0  2  0  0  0  0  0  0
  159.1810  212.6400  144.2000 C   0  0  0  0  0  2  0  0  0  0  0  0
  160.3420  212.7550  143.2230 C   0  0  0  0  0  2  0  0  0  0  0  0
  160.4570  211.4940  142.3830 C   0  0  0  0  0  2  0  0  0  0  0  0
  161.0090  211.8170  141.0020 C   0  0  0  0  0  2  0  0  0  0  0  0
  159.5550  210.5600  139.4050 C   0  0  0  0  0  3  0  0  0  0  0  0
  161.8150  209.7640  139.7770 C   0  0  0  0  0  0  0  0  0  0  0  0
  160.7920  210.6870  140.0460 C   0  0  0  0  0  0  0  0  0  0  0  0
  159.3350  209.5160  138.5010 C   0  0  0  0  0  3  0  0  0  0  0  0
  161.5920  208.7210  138.8710 C   0  0  0  0  0  3  0  0  0  0  0  0
  160.3530  208.5970  138.2350 C   0  0  0  0  0  3  0  0  0  0  0  0
  163.0210  209.8700  140.3860 F   0  0  0  0  0  0  0  0  0  0  0  0
  1  3  1  6  0  0  0
  1  8  1  0  0  0  0
  1  4  1  0  0  0  0
  2  8  1  0  0  0  0
  4 28  1  6  0  0  0
  4  7  1  0  0  0  0
  5  3  1  0  0  0  0
  5  2  1  0  0  0  0
  7  6  1  6  0  0  0
  7  9  1  0  0  0  0
  8  6  1  6  0  0  0
  9 10  1  0  0  0  0
  9 15  1  0  0  0  0
 10 15  2  0  0  0  0
 10 14  1  0  0  0  0
 11 12  1  0  0  0  0
 13 16  1  0  0  0  0
 13 12  2  0  0  0  0
 14 11  2  0  0  0  0
 15 13  1  0  0  0  0
 16 19  1  0  0  0  0
 17 16  2  0  0  0  0
 19 18  1  0  0  0  0
 20 21  1  0  0  0  0
 20 17  1  0  0  0  0
 21 22  1  0  0  0  0
 22 23  1  0  0  0  0
 24 23  1  0  0  0  0
 24 25  1  0  0  0  0
 26 14  1  0  0  0  0
 27 26  1  0  0  0  0
 28 29  1  0  0  0  0
 30 29  1  0  0  0  0
 31 30  1  0  0  0  0
 33 35  1  1  0  0  0
 33 34  1  0  0  0  0
 33 32  1  0  0  0  0
 34 32  1  0  0  0  0
 34 31  1  1  0  0  0
 36 35  1  0  0  0  0
 37 36  1  0  0  0  0
 38 37  1  0  0  0  0
 39 38  1  0  0  0  0
 40 42  1  0  0  0  0
 41 42  2  0  0  0  0
 41 46  1  0  0  0  0
 42 39  1  0  0  0  0
 43 40  2  0  0  0  0
 44 41  1  0  0  0  0
 45 43  1  0  0  0  0
 45 44  2  0  0  0  0
M  END
>  <MODEL>
6

>  <REMARK>
 VINA RESULT:      -5.4      4.063      8.736
  Name = 
  20 active torsions:
  status: ('A' for Active; 'I' for Inactive)
    1  A    between atoms: C_1  and  C_14
    2  A    between atoms: C_1  and  C_46
    3  A    between atoms: C_4  and  C_16
    4  A    between atoms: C_4  and  C_38
    5  A    between atoms: C_5  and  C_23
    6  A    between atoms: C_5  and  C_25
    7  A    between atoms: N_6  and  C_37
    8  A    between atoms: C_7  and  C_22
    9  A    between atoms: C_7  and  O_43
   10  A    between atoms: O_9  and  C_39
   11  A    between atoms: O_11  and  C_21
   12  A    between atoms: C_14  and  C_15
   13  A    between atoms: C_15  and  C_30
   14  A    between atoms: C_16  and  C_21
   15  A    between atoms: C_17  and  C_33
   16  A    between atoms: C_25  and  C_28
   17  A    between atoms: C_28  and  O_45
   18  A    between atoms: C_31  and  C_38
   19  A    between atoms: C_33  and  C_46
   20  A    between atoms: C_40  and  O_45
                            x       y       z     vdW  Elec       q    Type
                         _______ _______ _______ _____ _____    ______ ____

>  <TORSDO>
F 20

$$$$
=
 OpenBabel11072411083D

 46 51  0  0  1  0  0  0  0  0999 V2000
  161.2960  206.3600  146.3570 N   0  0  1  0  0  0  0  0  0  0  0  0
  161.9490  204.6530  145.0110 N   0  0  0  0  0  2  0  0  0  0  0  0
  160.1960  206.2020  145.5150 N   0  0  0  0  0  2  0  0  0  0  0  0
  160.9980  206.5220  147.7630 C   0  0  1  0  0  3  0  0  0  0  0  0
  160.7310  205.2910  144.4800 C   0  0  0  0  0  2  0  0  0  0  0  0
  162.8880  205.0160  147.3840 C   0  0  0  0  0  2  0  0  0  0  0  0
  162.2270  205.8910  148.4640 C   0  0  2  0  0  3  0  0  0  0  0  0
  161.7810  205.0330  146.3820 C   0  0  1  0  0  3  0  0  0  0  0  0
  161.7900  205.0830  149.5900 N   0  0  0  0  0  0  0  0  0  0  0  0
  161.2950  203.8650  150.0820 C   0  0  0  0  0  0  0  0  0  0  0  0
  160.4520  202.5460  151.7800 C   0  0  0  0  0  3  0  0  0  0  0  0
  160.5740  203.6870  152.6870 C   0  0  0  0  0  3  0  0  0  0  0  0
  161.1000  204.9600  152.2700 C   0  0  0  0  0  0  0  0  0  0  0  0
  160.8350  202.6220  150.3940 C   0  0  0  0  0  0  0  0  0  0  0  0
  161.4190  204.9360  150.9380 C   0  0  0  0  0  0  0  0  0  0  0  0
  161.2030  206.1270  153.1700 C   0  0  0  0  0  0  0  0  0  0  0  0
  161.6070  207.3370  152.7460 C   0  0  0  0  0  3  0  0  0  0  0  0
  160.4060  206.9580  155.3720 C   0  0  0  0  0  1  0  0  0  0  0  0
  160.8860  205.9250  154.5200 O   0  0  0  0  0  0  0  0  0  0  0  0
  162.0570  207.6550  151.3560 C   0  0  0  0  0  2  0  0  0  0  0  0
  162.3380  209.1430  151.2260 C   0  0  0  0  0  2  0  0  0  0  0  0
  161.9610  209.8730  152.5050 C   0  0  0  0  0  2  0  0  0  0  0  0
  160.6100  210.5620  152.3680 C   0  0  0  0  0  2  0  0  0  0  0  0
  160.0380  210.7530  153.6270 O   0  0  0  0  0  0  0  0  0  0  0  0
  161.1230  210.7770  154.5050 C   0  0  0  0  0  1  0  0  0  0  0  0
  160.7500  201.5780  149.4730 O   0  0  0  0  0  0  0  0  0  0  0  0
  160.8770  201.8000  148.0770 C   0  0  0  0  0  1  0  0  0  0  0  0
  160.8300  207.9960  148.1340 C   0  0  0  0  0  2  0  0  0  0  0  0
  162.1100  208.7990  147.9360 C   0  0  0  0  0  2  0  0  0  0  0  0
  161.9920  210.1460  148.6210 C   0  0  0  0  0  2  0  0  0  0  0  0
  161.2510  211.0210  147.8270 O   0  0  0  0  0  0  0  0  0  0  0  0
  161.2010  213.0130  148.9620 O   0  0  0  0  0  0  0  0  0  0  0  0
  161.0060  213.4150  147.6250 C   0  0  1  0  0  3  0  0  0  0  0  0
  161.8830  212.2600  147.9870 C   0  0  2  0  0  3  0  0  0  0  0  0
  159.5930  213.0320  147.1870 C   0  0  0  0  0  2  0  0  0  0  0  0
  159.2040  213.7870  145.9220 C   0  0  0  0  0  2  0  0  0  0  0  0
  160.4260  214.1220  145.0800 C   0  0  0  0  0  2  0  0  0  0  0  0
  160.1200  213.9410  143.6020 C   0  0  0  0  0  2  0  0  0  0  0  0
  159.8560  212.4760  143.2830 C   0  0  0  0  0  2  0  0  0  0  0  0
  159.7440  211.7990  140.8810 C   0  0  0  0  0  3  0  0  0  0  0  0
  161.9220  211.9510  141.9340 C   0  0  0  0  0  0  0  0  0  0  0  0
  160.5250  212.0630  142.0110 C   0  0  0  0  0  0  0  0  0  0  0  0
  160.3490  211.4210  139.6790 C   0  0  0  0  0  3  0  0  0  0  0  0
  162.5260  211.5720  140.7300 C   0  0  0  0  0  3  0  0  0  0  0  0
  161.7410  211.3080  139.6040 C   0  0  0  0  0  3  0  0  0  0  0  0
  162.6970  212.2040  143.0170 F   0  0  0  0  0  0  0  0  0  0  0  0
  1  3  1  6  0  0  0
  1  8  1  0  0  0  0
  1  4  1  0  0  0  0
  2  8  1  0  0  0  0
  4 28  1  6  0  0  0
  4  7  1  0  0  0  0
  5  2  1  0  0  0  0
  5  3  1  0  0  0  0
  7  6  1  6  0  0  0
  7  9  1  0  0  0  0
  8  6  1  1  0  0  0
  9 10  1  0  0  0  0
  9 15  1  0  0  0  0
 10 14  2  0  0  0  0
 10 15  1  0  0  0  0
 11 12  2  0  0  0  0
 13 12  1  0  0  0  0
 13 16  1  0  0  0  0
 14 11  1  0  0  0  0
 15 13  2  0  0  0  0
 16 19  1  0  0  0  0
 17 16  2  0  0  0  0
 19 18  1  0  0  0  0
 20 17  1  0  0  0  0
 21 20  1  0  0  0  0
 21 22  1  0  0  0  0
 23 22  1  0  0  0  0
 23 24  1  0  0  0  0
 24 25  1  0  0  0  0
 26 14  1  0  0  0  0
 27 26  1  0  0  0  0
 29 28  1  0  0  0  0
 29 30  1  0  0  0  0
 31 30  1  0  0  0  0
 33 35  1  6  0  0  0
 33 34  1  0  0  0  0
 33 32  1  0  0  0  0
 34 31  1  6  0  0  0
 34 32  1  0  0  0  0
 36 35  1  0  0  0  0
 37 36  1  0  0  0  0
 38 37  1  0  0  0  0
 39 38  1  0  0  0  0
 40 42  1  0  0  0  0
 41 42  2  0  0  0  0
 41 46  1  0  0  0  0
 42 39  1  0  0  0  0
 43 40  2  0  0  0  0
 44 41  1  0  0  0  0
 45 43  1  0  0  0  0
 45 44  2  0  0  0  0
M  END
>  <MODEL>
7

>  <REMARK>
 VINA RESULT:      -5.1      3.824      9.738
  Name = 
  20 active torsions:
  status: ('A' for Active; 'I' for Inactive)
    1  A    between atoms: C_1  and  C_14
    2  A    between atoms: C_1  and  C_46
    3  A    between atoms: C_4  and  C_16
    4  A    between atoms: C_4  and  C_38
    5  A    between atoms: C_5  and  C_23
    6  A    between atoms: C_5  and  C_25
    7  A    between atoms: N_6  and  C_37
    8  A    between atoms: C_7  and  C_22
    9  A    between atoms: C_7  and  O_43
   10  A    between atoms: O_9  and  C_39
   11  A    between atoms: O_11  and  C_21
   12  A    between atoms: C_14  and  C_15
   13  A    between atoms: C_15  and  C_30
   14  A    between atoms: C_16  and  C_21
   15  A    between atoms: C_17  and  C_33
   16  A    between atoms: C_25  and  C_28
   17  A    between atoms: C_28  and  O_45
   18  A    between atoms: C_31  and  C_38
   19  A    between atoms: C_33  and  C_46
   20  A    between atoms: C_40  and  O_45
                            x       y       z     vdW  Elec       q    Type
                         _______ _______ _______ _____ _____    ______ ____

>  <TORSDO>
F 20

$$$$
=
 OpenBabel11072411083D

 46 51  0  0  1  0  0  0  0  0999 V2000
  161.7310  205.2070  150.1050 N   0  0  1  0  0  0  0  0  0  0  0  0
  161.2510  204.0190  151.9780 N   0  0  0  0  0  2  0  0  0  0  0  0
  160.5940  204.4950  149.7270 N   0  0  0  0  0  2  0  0  0  0  0  0
  161.7540  206.6050  149.7360 C   0  0  1  0  0  3  0  0  0  0  0  0
  160.4530  203.5300  150.8390 C   0  0  0  0  0  2  0  0  0  0  0  0
  162.5670  206.2360  152.0130 C   0  0  0  0  0  2  0  0  0  0  0  0
  162.5890  207.2600  150.8650 C   0  0  2  0  0  3  0  0  0  0  0  0
  161.4890  205.3450  151.4900 C   0  0  1  0  0  3  0  0  0  0  0  0
  161.9690  208.5090  151.2740 N   0  0  0  0  0  0  0  0  0  0  0  0
  161.6810  209.8580  151.0100 C   0  0  0  0  0  0  0  0  0  0  0  0
  160.8540  211.9230  151.6280 C   0  0  0  0  0  3  0  0  0  0  0  0
  160.5010  211.3580  152.9300 C   0  0  0  0  0  3  0  0  0  0  0  0
  160.7320  209.9790  153.2700 C   0  0  0  0  0  0  0  0  0  0  0  0
  161.4770  211.1380  150.5950 C   0  0  0  0  0  0  0  0  0  0  0  0
  161.3410  209.3240  152.2320 C   0  0  0  0  0  0  0  0  0  0  0  0
  160.4040  209.4050  154.5900 C   0  0  0  0  0  0  0  0  0  0  0  0
  160.4300  210.1290  155.7230 C   0  0  0  0  0  3  0  0  0  0  0  0
  160.0910  207.2760  155.8340 C   0  0  0  0  0  1  0  0  0  0  0  0
  160.0830  208.0410  154.6350 O   0  0  0  0  0  0  0  0  0  0  0  0
  160.8430  211.5620  155.8180 C   0  0  0  0  0  2  0  0  0  0  0  0
  160.0260  212.2710  156.8870 C   0  0  0  0  0  2  0  0  0  0  0  0
  159.4630  213.5770  156.3500 C   0  0  0  0  0  2  0  0  0  0  0  0
  158.5030  213.3290  155.1960 C   0  0  0  0  0  2  0  0  0  0  0  0
  157.4380  212.5320  155.6190 O   0  0  0  0  0  0  0  0  0  0  0  0
  156.7700  212.1860  154.4430 C   0  0  0  0  0  1  0  0  0  0  0  0
  161.8390  211.6050  149.3310 O   0  0  0  0  0  0  0  0  0  0  0  0
  162.1420  210.7200  148.2640 C   0  0  0  0  0  1  0  0  0  0  0  0
  162.3960  206.8130  148.3640 C   0  0  0  0  0  2  0  0  0  0  0  0
  161.7560  205.9510  147.2820 C   0  0  0  0  0  2  0  0  0  0  0  0
  162.8070  205.0880  146.6120 C   0  0  0  0  0  2  0  0  0  0  0  0
  162.6400  205.1230  145.2270 O   0  0  0  0  0  0  0  0  0  0  0  0
  160.7150  204.5280  144.1310 O   0  0  0  0  0  0  0  0  0  0  0  0
  160.9600  205.8260  143.6410 C   0  0  1  0  0  3  0  0  0  0  0  0
  161.2860  205.4330  145.0460 C   0  0  2  0  0  3  0  0  0  0  0  0
  162.1420  205.7830  142.6750 C   0  0  0  0  0  2  0  0  0  0  0  0
  161.8610  206.6440  141.4490 C   0  0  0  0  0  2  0  0  0  0  0  0
  162.7040  206.2050  140.2610 C   0  0  0  0  0  2  0  0  0  0  0  0
  162.2960  206.9650  139.0090 C   0  0  0  0  0  2  0  0  0  0  0  0
  161.2510  208.0220  139.3390 C   0  0  0  0  0  2  0  0  0  0  0  0
  162.0220  209.6200  137.5790 C   0  0  0  0  0  3  0  0  0  0  0  0
  161.7890  210.4330  139.8510 C   0  0  0  0  0  0  0  0  0  0  0  0
  161.7000  209.3860  138.9210 C   0  0  0  0  0  0  0  0  0  0  0  0
  162.4350  210.8890  137.1660 C   0  0  0  0  0  3  0  0  0  0  0  0
  162.2010  211.7030  139.4340 C   0  0  0  0  0  3  0  0  0  0  0  0
  162.5250  211.9310  138.0930 C   0  0  0  0  0  3  0  0  0  0  0  0
  161.4790  210.2280  141.1550 F   0  0  0  0  0  0  0  0  0  0  0  0
  1  3  1  6  0  0  0
  1  8  1  0  0  0  0
  3  5  1  0  0  0  0
  4 28  1  6  0  0  0
  4  1  1  0  0  0  0
  4  7  1  0  0  0  0
  5  2  1  0  0  0  0
  7  9  1  1  0  0  0
  7  6  1  0  0  0  0
  8  2  1  0  0  0  0
  8  6  1  1  0  0  0
  9 15  1  0  0  0  0
 10  9  1  0  0  0  0
 10 15  1  0  0  0  0
 11 12  2  0  0  0  0
 12 13  1  0  0  0  0
 13 16  1  0  0  0  0
 14 10  2  0  0  0  0
 14 11  1  0  0  0  0
 15 13  2  0  0  0  0
 16 19  1  0  0  0  0
 16 17  2  0  0  0  0
 17 20  1  0  0  0  0
 19 18  1  0  0  0  0
 20 21  1  0  0  0  0
 22 21  1  0  0  0  0
 23 24  1  0  0  0  0
 23 22  1  0  0  0  0
 25 24  1  0  0  0  0
 26 14  1  0  0  0  0
 27 26  1  0  0  0  0
 29 28  1  0  0  0  0
 30 29  1  0  0  0  0
 31 30  1  0  0  0  0
 32 34  1  0  0  0  0
 33 35  1  6  0  0  0
 33 32  1  0  0  0  0
 33 34  1  0  0  0  0
 34 31  1  6  0  0  0
 36 35  1  0  0  0  0
 37 36  1  0  0  0  0
 38 39  1  0  0  0  0
 38 37  1  0  0  0  0
 40 42  1  0  0  0  0
 41 46  1  0  0  0  0
 42 39  1  0  0  0  0
 42 41  2  0  0  0  0
 43 40  2  0  0  0  0
 43 45  1  0  0  0  0
 44 41  1  0  0  0  0
 45 44  2  0  0  0  0
M  END
>  <MODEL>
8

>  <REMARK>
 VINA RESULT:      -4.7      4.255      8.295
  Name = 
  20 active torsions:
  status: ('A' for Active; 'I' for Inactive)
    1  A    between atoms: C_1  and  C_14
    2  A    between atoms: C_1  and  C_46
    3  A    between atoms: C_4  and  C_16
    4  A    between atoms: C_4  and  C_38
    5  A    between atoms: C_5  and  C_23
    6  A    between atoms: C_5  and  C_25
    7  A    between atoms: N_6  and  C_37
    8  A    between atoms: C_7  and  C_22
    9  A    between atoms: C_7  and  O_43
   10  A    between atoms: O_9  and  C_39
   11  A    between atoms: O_11  and  C_21
   12  A    between atoms: C_14  and  C_15
   13  A    between atoms: C_15  and  C_30
   14  A    between atoms: C_16  and  C_21
   15  A    between atoms: C_17  and  C_33
   16  A    between atoms: C_25  and  C_28
   17  A    between atoms: C_28  and  O_45
   18  A    between atoms: C_31  and  C_38
   19  A    between atoms: C_33  and  C_46
   20  A    between atoms: C_40  and  O_45
                            x       y       z     vdW  Elec       q    Type
                         _______ _______ _______ _____ _____    ______ ____

>  <TORSDO>
F 20

$$$$
=
 OpenBabel11072411083D

 46 51  0  0  1  0  0  0  0  0999 V2000
  161.5660  206.9190  146.5730 N   0  0  1  0  0  0  0  0  0  0  0  0
  162.1070  204.8510  145.8110 N   0  0  0  0  0  2  0  0  0  0  0  0
  160.4540  206.5820  145.8030 N   0  0  0  0  0  2  0  0  0  0  0  0
  161.2860  207.5140  147.8620 C   0  0  1  0  0  3  0  0  0  0  0  0
  160.9270  205.3730  145.0960 C   0  0  0  0  0  2  0  0  0  0  0  0
  163.0780  205.8540  147.9790 C   0  0  0  0  0  2  0  0  0  0  0  0
  162.4770  207.0500  148.7360 C   0  0  2  0  0  3  0  0  0  0  0  0
  161.9690  205.6350  147.0030 C   0  0  1  0  0  3  0  0  0  0  0  0
  161.9970  206.6460  150.0470 N   0  0  0  0  0  0  0  0  0  0  0  0
  161.5780  206.9950  151.3410 C   0  0  0  0  0  0  0  0  0  0  0  0
  160.9460  206.4500  153.4940 C   0  0  0  0  0  3  0  0  0  0  0  0
  161.1110  205.0370  153.1530 C   0  0  0  0  0  3  0  0  0  0  0  0
  161.5070  204.5930  151.8420 C   0  0  0  0  0  0  0  0  0  0  0  0
  161.1850  207.5030  152.5410 C   0  0  0  0  0  0  0  0  0  0  0  0
  161.7250  205.6650  151.0170 C   0  0  0  0  0  0  0  0  0  0  0  0
  161.7020  203.1720  151.4950 C   0  0  0  0  0  0  0  0  0  0  0  0
  161.1950  202.6210  150.3770 C   0  0  0  0  0  3  0  0  0  0  0  0
  163.1160  201.1970  152.0230 C   0  0  0  0  0  1  0  0  0  0  0  0
  162.4280  202.3840  152.3990 O   0  0  0  0  0  0  0  0  0  0  0  0
  160.3320  203.3310  149.3850 C   0  0  0  0  0  2  0  0  0  0  0  0
  160.4690  202.6840  148.0160 C   0  0  0  0  0  2  0  0  0  0  0  0
  160.9770  201.2570  148.1480 C   0  0  0  0  0  2  0  0  0  0  0  0
  161.0910  200.5860  146.7860 C   0  0  0  0  0  2  0  0  0  0  0  0
  160.8300  201.5100  145.7720 O   0  0  0  0  0  0  0  0  0  0  0  0
  159.9800  200.8350  144.8940 C   0  0  0  0  0  1  0  0  0  0  0  0
  161.0460  208.8680  152.7920 O   0  0  0  0  0  0  0  0  0  0  0  0
  162.0050  209.8130  152.3440 C   0  0  0  0  0  1  0  0  0  0  0  0
  161.2100  209.0390  147.7710 C   0  0  0  0  0  2  0  0  0  0  0  0
  162.1540  209.7310  148.7480 C   0  0  0  0  0  2  0  0  0  0  0  0
  162.0320  211.2360  148.6140 C   0  0  0  0  0  2  0  0  0  0  0  0
  161.1440  211.5520  147.5860 O   0  0  0  0  0  0  0  0  0  0  0  0
  160.1680  213.6130  147.3420 O   0  0  0  0  0  0  0  0  0  0  0  0
  160.7230  213.3820  146.0670 C   0  0  1  0  0  3  0  0  0  0  0  0
  161.3850  212.9060  147.3190 C   0  0  2  0  0  3  0  0  0  0  0  0
  159.8910  212.3250  145.3420 C   0  0  0  0  0  2  0  0  0  0  0  0
  158.9720  212.9780  144.3180 C   0  0  0  0  0  2  0  0  0  0  0  0
  159.6390  213.0680  142.9540 C   0  0  0  0  0  2  0  0  0  0  0  0
  160.4840  211.8320  142.6930 C   0  0  0  0  0  2  0  0  0  0  0  0
  161.3020  211.9990  141.4190 C   0  0  0  0  0  2  0  0  0  0  0  0
  159.6160  210.9720  139.8860 C   0  0  0  0  0  3  0  0  0  0  0  0
  161.8610  210.0570  139.9080 C   0  0  0  0  0  0  0  0  0  0  0  0
  160.9220  210.9840  140.3870 C   0  0  0  0  0  0  0  0  0  0  0  0
  159.2430  210.0390  138.9150 C   0  0  0  0  0  3  0  0  0  0  0  0
  161.4850  209.1240  138.9360 C   0  0  0  0  0  3  0  0  0  0  0  0
  160.1780  209.1140  138.4400 C   0  0  0  0  0  3  0  0  0  0  0  0
  163.1320  210.0530  140.3790 F   0  0  0  0  0  0  0  0  0  0  0  0
  1  3  1  6  0  0  0
  1  8  1  0  0  0  0
  1  4  1  0  0  0  0
  2  8  1  0  0  0  0
  4 28  1  6  0  0  0
  4  7  1  0  0  0  0
  5  3  1  0  0  0  0
  5  2  1  0  0  0  0
  7  6  1  6  0  0  0
  7  9  1  0  0  0  0
  8  6  1  6  0  0  0
  9 15  1  0  0  0  0
  9 10  1  0  0  0  0
 10 14  1  0  0  0  0
 12 11  1  0  0  0  0
 13 12  2  0  0  0  0
 14 26  1  0  0  0  0
 14 11  2  0  0  0  0
 15 10  2  0  0  0  0
 15 13  1  0  0  0  0
 16 13  1  0  0  0  0
 16 19  1  0  0  0  0
 17 16  2  0  0  0  0
 18 19  1  0  0  0  0
 20 17  1  0  0  0  0
 21 22  1  0  0  0  0
 21 20  1  0  0  0  0
 23 22  1  0  0  0  0
 24 23  1  0  0  0  0
 25 24  1  0  0  0  0
 27 26  1  0  0  0  0
 28 29  1  0  0  0  0
 30 29  1  0  0  0  0
 31 30  1  0  0  0  0
 33 35  1  6  0  0  0
 33 34  1  0  0  0  0
 33 32  1  0  0  0  0
 34 32  1  0  0  0  0
 34 31  1  6  0  0  0
 36 35  1  0  0  0  0
 37 36  1  0  0  0  0
 38 37  1  0  0  0  0
 39 38  1  0  0  0  0
 40 42  1  0  0  0  0
 41 46  1  0  0  0  0
 41 42  2  0  0  0  0
 42 39  1  0  0  0  0
 43 40  2  0  0  0  0
 44 41  1  0  0  0  0
 45 43  1  0  0  0  0
 45 44  2  0  0  0  0
M  END
>  <MODEL>
9

>  <REMARK>
 VINA RESULT:      -4.6      4.183      9.795
  Name = 
  20 active torsions:
  status: ('A' for Active; 'I' for Inactive)
    1  A    between atoms: C_1  and  C_14
    2  A    between atoms: C_1  and  C_46
    3  A    between atoms: C_4  and  C_16
    4  A    between atoms: C_4  and  C_38
    5  A    between atoms: C_5  and  C_23
    6  A    between atoms: C_5  and  C_25
    7  A    between atoms: N_6  and  C_37
    8  A    between atoms: C_7  and  C_22
    9  A    between atoms: C_7  and  O_43
   10  A    between atoms: O_9  and  C_39
   11  A    between atoms: O_11  and  C_21
   12  A    between atoms: C_14  and  C_15
   13  A    between atoms: C_15  and  C_30
   14  A    between atoms: C_16  and  C_21
   15  A    between atoms: C_17  and  C_33
   16  A    between atoms: C_25  and  C_28
   17  A    between atoms: C_28  and  O_45
   18  A    between atoms: C_31  and  C_38
   19  A    between atoms: C_33  and  C_46
   20  A    between atoms: C_40  and  O_45
                            x       y       z     vdW  Elec       q    Type
                         _______ _______ _______ _____ _____    ______ ____

>  <TORSDO>
F 20

$$$$
