=
 OpenBabel11072412273D

 33 35  0  0  1  0  0  0  0  0999 V2000
  161.8670  206.3420  152.6160 C   0  0  0  0  0  2  0  0  0  0  0  0
  161.1750  204.9880  152.5960 C   0  0  0  0  0  2  0  0  0  0  0  0
  161.8580  204.0610  151.6090 C   0  0  0  0  0  2  0  0  0  0  0  0
  160.8840  202.9950  151.1550 C   0  0  0  0  0  2  0  0  0  0  0  0
  160.9110  201.7060  149.0520 C   0  0  0  0  0  1  0  0  0  0  0  0
  160.6820  203.0790  149.6530 C   0  0  2  0  0  3  0  0  0  0  0  0
  161.6030  203.9840  149.1110 O   0  0  0  0  0  0  0  0  0  0  0  0
  161.4650  207.0210  147.8410 N   0  0  0  0  0  2  0  0  0  0  0  0
  162.8750  203.9900  146.8610 O   0  0  0  0  0  1  0  0  0  0  0  0
  162.2730  206.3130  146.8680 C   0  0  0  0  0  2  0  0  0  0  0  0
  160.6990  206.0790  148.5570 C   0  0  0  0  0  0  0  0  0  0  0  0
  161.7740  204.8560  146.8490 C   0  0  2  0  0  0  0  0  0  0  0  0
  159.9090  206.4110  149.4780 O   0  0  0  0  0  0  0  0  0  0  0  0
  160.9070  204.6830  148.1170 C   0  0  1  0  0  3  0  0  0  0  0  0
  160.8870  203.1350  145.2100 C   0  0  0  0  0  1  0  0  0  0  0  0
  161.4070  205.4150  144.4010 C   0  0  0  0  0  1  0  0  0  0  0  0
  160.9180  204.6070  145.5940 C   0  0  0  0  0  3  0  0  0  0  0  0
  161.0740  207.3710  153.4160 C   0  0  0  0  0  2  0  0  0  0  0  0
  161.9140  209.7890  153.2610 C   0  0  0  0  0  2  0  0  0  0  0  0
  160.4020  209.9490  153.3690 C   0  0  1  0  0  3  0  0  0  0  0  0
  161.0020  208.7210  152.6950 C   0  0  2  0  0  0  0  0  0  0  0  0
  162.1540  208.8760  150.8590 O   0  0  0  0  0  1  0  0  0  0  0  0
  160.9170  208.7360  151.2940 O   0  0  0  0  0  0  0  0  0  0  0  0
  159.9530  209.6820  154.8000 C   0  0  0  0  0  2  0  0  0  0  0  0
  160.0380  210.9300  155.6260 C   0  0  0  0  0  0  0  0  0  0  0  0
  161.0080  211.0910  156.3490 O   0  0  0  0  0  0  0  0  0  0  0  0
  159.3030  213.1070  154.6850 C   0  0  0  0  0  2  0  0  0  0  0  0
  157.3080  211.3230  155.1350 S   0  0  0  0  0  0  0  0  0  0  0  0
  158.0130  213.8220  154.3720 C   0  0  0  0  0  2  0  0  0  0  0  0
  156.9930  212.7500  154.0520 C   0  0  2  0  0  3  0  0  0  0  0  0
  158.9480  211.9700  155.6210 C   0  0  1  0  0  3  0  0  0  0  0  0
  155.4520  213.7170  155.5960 O   0  0  0  0  0  1  0  0  0  0  0  0
  155.5860  213.2690  154.2820 C   0  0  0  0  0  2  0  0  0  0  0  0
  1 18  1  0  0  0  0
  2  1  1  0  0  0  0
  3  2  1  0  0  0  0
  4  3  1  0  0  0  0
  6  5  1  6  0  0  0
  6  4  1  0  0  0  0
  7  6  1  0  0  0  0
  8 11  1  0  0  0  0
 10  8  1  0  0  0  0
 11 13  2  0  0  0  0
 12  9  1  1  0  0  0
 12 10  1  0  0  0  0
 12 14  1  0  0  0  0
 14 11  1  0  0  0  0
 14  7  1  1  0  0  0
 15 17  1  0  0  0  0
 16 17  1  0  0  0  0
 17 12  1  0  0  0  0
 19 20  1  0  0  0  0
 20 24  1  1  0  0  0
 21 19  1  0  0  0  0
 21 20  1  0  0  0  0
 21 18  1  1  0  0  0
 22 23  1  0  0  0  0
 23 21  1  0  0  0  0
 24 25  1  0  0  0  0
 25 26  2  0  0  0  0
 27 31  1  0  0  0  0
 28 31  1  0  0  0  0
 29 27  1  0  0  0  0
 30 33  1  1  0  0  0
 30 29  1  0  0  0  0
 30 28  1  0  0  0  0
 31 25  1  6  0  0  0
 33 32  1  0  0  0  0
M  END
>  <MODEL>
1

>  <REMARK>
 VINA RESULT:      -6.7      0.000      0.000
  Name = 
  14 active torsions:
  status: ('A' for Active; 'I' for Inactive)
    1  A    between atoms: C_4  and  C_9
    2  A    between atoms: C_4  and  C_25
    3  A    between atoms: C_9  and  O_23
    4  A    between atoms: C_10  and  C_25
    5  A    between atoms: C_10  and  C_28
    6  A    between atoms: C_12  and  C_13
    7  A    between atoms: C_12  and  C_30
    8  A    between atoms: C_13  and  C_27
    9  A    between atoms: C_16  and  C_28
   10  A    between atoms: C_16  and  C_31
   11  A    between atoms: C_17  and  C_22
   12  A    between atoms: O_18  and  C_31
   13  A    between atoms: O_23  and  C_33
   14  A    between atoms: C_24  and  C_26
                            x       y       z     vdW  Elec       q    Type
                         _______ _______ _______ _____ _____    ______ ____

>  <TORSDO>
F 14

$$$$
=
 OpenBabel11072412273D

 33 35  0  0  1  0  0  0  0  0999 V2000
  160.4640  209.8660  154.4300 C   0  0  0  0  0  2  0  0  0  0  0  0
  161.0610  208.8790  153.4380 C   0  0  0  0  0  2  0  0  0  0  0  0
  160.8070  209.3410  152.0160 C   0  0  0  0  0  2  0  0  0  0  0  0
  162.1250  209.4720  151.2810 C   0  0  0  0  0  2  0  0  0  0  0  0
  161.9770  209.2240  148.8310 C   0  0  0  0  0  1  0  0  0  0  0  0
  162.1830  208.4780  150.1350 C   0  0  2  0  0  3  0  0  0  0  0  0
  161.1680  207.5270  150.2940 O   0  0  0  0  0  0  0  0  0  0  0  0
  160.8520  204.4220  151.3500 N   0  0  0  0  0  2  0  0  0  0  0  0
  160.0280  206.1410  148.4340 O   0  0  0  0  0  1  0  0  0  0  0  0
  160.2250  204.3720  150.0440 C   0  0  0  0  0  2  0  0  0  0  0  0
  161.7300  205.5240  151.3830 C   0  0  0  0  0  0  0  0  0  0  0  0
  160.9640  205.3890  149.1550 C   0  0  2  0  0  0  0  0  0  0  0  0
  162.4040  205.8190  152.4030 O   0  0  0  0  0  0  0  0  0  0  0  0
  161.7840  206.2820  150.1150 C   0  0  1  0  0  3  0  0  0  0  0  0
  162.1390  205.4450  146.9080 C   0  0  0  0  0  1  0  0  0  0  0  0
  161.3970  203.2710  147.8260 C   0  0  0  0  0  1  0  0  0  0  0  0
  161.9120  204.6560  148.1880 C   0  0  0  0  0  3  0  0  0  0  0  0
  160.8370  211.3050  154.0910 C   0  0  0  0  0  2  0  0  0  0  0  0
  158.3570  211.7800  153.6450 C   0  0  0  0  0  2  0  0  0  0  0  0
  159.0560  213.0140  153.0860 C   0  0  1  0  0  3  0  0  0  0  0  0
  159.6510  212.2590  154.2690 C   0  0  2  0  0  0  0  0  0  0  0  0
  160.5220  212.5600  156.2370 O   0  0  0  0  0  1  0  0  0  0  0  0
  159.4780  212.9000  155.5050 O   0  0  0  0  0  0  0  0  0  0  0  0
  159.7300  212.6730  151.7630 C   0  0  0  0  0  2  0  0  0  0  0  0
  159.2100  213.5460  150.6610 C   0  0  0  0  0  0  0  0  0  0  0  0
  158.1260  214.0890  150.8030 O   0  0  0  0  0  0  0  0  0  0  0  0
  161.1560  212.8110  149.3050 C   0  0  0  0  0  2  0  0  0  0  0  0
  158.9490  213.4780  147.8730 S   0  0  0  0  0  0  0  0  0  0  0  0
  161.5460  212.7190  147.8520 C   0  0  0  0  0  2  0  0  0  0  0  0
  160.2650  212.5110  147.0740 C   0  0  2  0  0  3  0  0  0  0  0  0
  159.9630  213.7430  149.3720 C   0  0  1  0  0  3  0  0  0  0  0  0
  161.7910  213.0140  145.3090 O   0  0  0  0  0  1  0  0  0  0  0  0
  160.4360  212.9650  145.6360 C   0  0  0  0  0  2  0  0  0  0  0  0
  2  1  1  0  0  0  0
  3  2  1  0  0  0  0
  4  3  1  0  0  0  0
  6  5  1  6  0  0  0
  6  7  1  0  0  0  0
  6  4  1  0  0  0  0
  8 11  1  0  0  0  0
 10  8  1  0  0  0  0
 11 13  2  0  0  0  0
 12  9  1  6  0  0  0
 12 10  1  0  0  0  0
 12 14  1  0  0  0  0
 14  7  1  1  0  0  0
 14 11  1  0  0  0  0
 15 17  1  0  0  0  0
 16 17  1  0  0  0  0
 17 12  1  0  0  0  0
 18  1  1  0  0  0  0
 19 21  1  0  0  0  0
 20 24  1  6  0  0  0
 20 19  1  0  0  0  0
 20 21  1  0  0  0  0
 21 18  1  6  0  0  0
 21 23  1  0  0  0  0
 23 22  1  0  0  0  0
 25 26  2  0  0  0  0
 25 24  1  0  0  0  0
 27 31  1  0  0  0  0
 28 31  1  0  0  0  0
 29 27  1  0  0  0  0
 30 33  1  6  0  0  0
 30 29  1  0  0  0  0
 30 28  1  0  0  0  0
 31 25  1  1  0  0  0
 32 33  1  0  0  0  0
M  END
>  <MODEL>
2

>  <REMARK>
 VINA RESULT:      -6.4      3.638      5.700
  Name = 
  14 active torsions:
  status: ('A' for Active; 'I' for Inactive)
    1  A    between atoms: C_4  and  C_9
    2  A    between atoms: C_4  and  C_25
    3  A    between atoms: C_9  and  O_23
    4  A    between atoms: C_10  and  C_25
    5  A    between atoms: C_10  and  C_28
    6  A    between atoms: C_12  and  C_13
    7  A    between atoms: C_12  and  C_30
    8  A    between atoms: C_13  and  C_27
    9  A    between atoms: C_16  and  C_28
   10  A    between atoms: C_16  and  C_31
   11  A    between atoms: C_17  and  C_22
   12  A    between atoms: O_18  and  C_31
   13  A    between atoms: O_23  and  C_33
   14  A    between atoms: C_24  and  C_26
                            x       y       z     vdW  Elec       q    Type
                         _______ _______ _______ _____ _____    ______ ____

>  <TORSDO>
F 14

$$$$
=
 OpenBabel11072412273D

 33 35  0  0  1  0  0  0  0  0999 V2000
  161.8340  206.4420  153.1530 C   0  0  0  0  0  2  0  0  0  0  0  0
  161.2060  205.0800  152.8980 C   0  0  0  0  0  2  0  0  0  0  0  0
  161.7690  204.4680  151.6300 C   0  0  0  0  0  2  0  0  0  0  0  0
  160.9590  203.2460  151.2520 C   0  0  0  0  0  2  0  0  0  0  0  0
  160.8350  201.8170  149.2460 C   0  0  0  0  0  1  0  0  0  0  0  0
  160.6960  203.2370  149.7570 C   0  0  2  0  0  3  0  0  0  0  0  0
  161.6330  204.0570  149.1170 O   0  0  0  0  0  0  0  0  0  0  0  0
  161.5000  207.0330  147.7090 N   0  0  0  0  0  2  0  0  0  0  0  0
  162.8750  203.9490  146.8530 O   0  0  0  0  0  1  0  0  0  0  0  0
  162.2900  206.2750  146.7600 C   0  0  0  0  0  2  0  0  0  0  0  0
  160.7370  206.1310  148.4780 C   0  0  0  0  0  0  0  0  0  0  0  0
  161.7810  204.8220  146.8150 C   0  0  2  0  0  0  0  0  0  0  0  0
  159.9620  206.5110  149.3920 O   0  0  0  0  0  0  0  0  0  0  0  0
  160.9290  204.7150  148.1010 C   0  0  1  0  0  3  0  0  0  0  0  0
  160.9020  203.0410  145.2380 C   0  0  0  0  0  1  0  0  0  0  0  0
  161.3530  205.3100  144.3610 C   0  0  0  0  0  1  0  0  0  0  0  0
  160.9070  204.5220  145.5830 C   0  0  0  0  0  3  0  0  0  0  0  0
  160.7880  207.4850  153.5360 C   0  0  0  0  0  2  0  0  0  0  0  0
  159.6710  208.6830  155.5080 C   0  0  0  0  0  2  0  0  0  0  0  0
  161.1420  209.0540  155.6610 C   0  0  1  0  0  3  0  0  0  0  0  0
  160.7410  207.7160  155.0500 C   0  0  2  0  0  0  0  0  0  0  0  0
  159.9640  206.7160  156.8160 O   0  0  0  0  0  1  0  0  0  0  0  0
  160.9150  206.6180  155.9070 O   0  0  0  0  0  0  0  0  0  0  0  0
  161.5250  210.0930  154.6150 C   0  0  0  0  0  2  0  0  0  0  0  0
  160.9380  211.4300  154.9540 C   0  0  0  0  0  0  0  0  0  0  0  0
  161.0580  211.8530  156.0930 O   0  0  0  0  0  0  0  0  0  0  0  0
  159.5630  211.3510  152.8880 C   0  0  0  0  0  2  0  0  0  0  0  0
  158.8330  213.2580  154.6770 S   0  0  0  0  0  0  0  0  0  0  0  0
  158.4600  212.1470  152.2380 C   0  0  0  0  0  2  0  0  0  0  0  0
  157.6710  212.7870  153.3600 C   0  0  2  0  0  3  0  0  0  0  0  0
  160.1720  212.2470  153.9480 C   0  0  1  0  0  3  0  0  0  0  0  0
  156.8380  213.9800  151.4690 O   0  0  0  0  0  1  0  0  0  0  0  0
  156.9360  214.0170  152.8590 C   0  0  0  0  0  2  0  0  0  0  0  0
  1 18  1  0  0  0  0
  2  1  1  0  0  0  0
  3  2  1  0  0  0  0
  4  3  1  0  0  0  0
  6  5  1  6  0  0  0
  6  4  1  0  0  0  0
  7  6  1  0  0  0  0
  8 11  1  0  0  0  0
 10 12  1  0  0  0  0
 10  8  1  0  0  0  0
 11 13  2  0  0  0  0
 12  9  1  1  0  0  0
 12 14  1  0  0  0  0
 14 11  1  0  0  0  0
 14  7  1  1  0  0  0
 15 17  1  0  0  0  0
 16 17  1  0  0  0  0
 17 12  1  0  0  0  0
 19 20  1  0  0  0  0
 20 24  1  6  0  0  0
 21 18  1  6  0  0  0
 21 19  1  0  0  0  0
 21 20  1  0  0  0  0
 21 23  1  0  0  0  0
 23 22  1  0  0  0  0
 24 25  1  0  0  0  0
 25 26  2  0  0  0  0
 27 31  1  0  0  0  0
 29 27  1  0  0  0  0
 29 30  1  0  0  0  0
 30 33  1  6  0  0  0
 30 28  1  0  0  0  0
 31 28  1  0  0  0  0
 31 25  1  1  0  0  0
 32 33  1  0  0  0  0
M  END
>  <MODEL>
3

>  <REMARK>
 VINA RESULT:      -6.4      1.678      2.132
  Name = 
  14 active torsions:
  status: ('A' for Active; 'I' for Inactive)
    1  A    between atoms: C_4  and  C_9
    2  A    between atoms: C_4  and  C_25
    3  A    between atoms: C_9  and  O_23
    4  A    between atoms: C_10  and  C_25
    5  A    between atoms: C_10  and  C_28
    6  A    between atoms: C_12  and  C_13
    7  A    between atoms: C_12  and  C_30
    8  A    between atoms: C_13  and  C_27
    9  A    between atoms: C_16  and  C_28
   10  A    between atoms: C_16  and  C_31
   11  A    between atoms: C_17  and  C_22
   12  A    between atoms: O_18  and  C_31
   13  A    between atoms: O_23  and  C_33
   14  A    between atoms: C_24  and  C_26
                            x       y       z     vdW  Elec       q    Type
                         _______ _______ _______ _____ _____    ______ ____

>  <TORSDO>
F 14

$$$$
=
 OpenBabel11072412273D

 33 35  0  0  1  0  0  0  0  0999 V2000
  161.7360  206.0500  151.6110 C   0  0  0  0  0  2  0  0  0  0  0  0
  161.8090  206.2090  153.1220 C   0  0  0  0  0  2  0  0  0  0  0  0
  160.8540  207.2920  153.5850 C   0  0  0  0  0  2  0  0  0  0  0  0
  160.5900  207.1360  155.0680 C   0  0  0  0  0  2  0  0  0  0  0  0
  160.7190  208.2590  157.2610 C   0  0  0  0  0  1  0  0  0  0  0  0
  160.6960  208.4820  155.7610 C   0  0  2  0  0  3  0  0  0  0  0  0
  159.5870  209.2660  155.4230 O   0  0  0  0  0  0  0  0  0  0  0  0
  160.3670  211.8810  153.5750 N   0  0  0  0  0  2  0  0  0  0  0  0
  157.5870  210.9030  155.4330 O   0  0  0  0  0  1  0  0  0  0  0  0
  159.0080  212.1810  153.9820 C   0  0  0  0  0  2  0  0  0  0  0  0
  160.9170  210.9640  154.4950 C   0  0  0  0  0  0  0  0  0  0  0  0
  158.8160  211.5710  155.3830 C   0  0  2  0  0  0  0  0  0  0  0  0
  162.0870  210.5170  154.3830 O   0  0  0  0  0  0  0  0  0  0  0  0
  159.9970  210.5950  155.5910 C   0  0  1  0  0  3  0  0  0  0  0  0
  157.5750  212.7400  157.2600 C   0  0  0  0  0  1  0  0  0  0  0  0
  159.1230  214.0480  155.8420 C   0  0  0  0  0  1  0  0  0  0  0  0
  158.8610  212.6790  156.4510 C   0  0  0  0  0  3  0  0  0  0  0  0
  162.6890  207.0010  150.8940 C   0  0  0  0  0  2  0  0  0  0  0  0
  160.7570  207.2890  149.2320 C   0  0  0  0  0  2  0  0  0  0  0  0
  161.9840  207.6780  148.4150 C   0  0  1  0  0  3  0  0  0  0  0  0
  161.9480  207.9230  149.9190 C   0  0  2  0  0  0  0  0  0  0  0  0
  162.5380  209.4850  151.3090 O   0  0  0  0  0  1  0  0  0  0  0  0
  161.7450  209.2640  150.2790 O   0  0  0  0  0  0  0  0  0  0  0  0
  162.7700  206.4310  148.0330 C   0  0  0  0  0  2  0  0  0  0  0  0
  162.1310  205.7350  146.8690 C   0  0  0  0  0  0  0  0  0  0  0  0
  162.3540  206.1500  145.7430 O   0  0  0  0  0  0  0  0  0  0  0  0
  161.5290  203.4630  146.0690 C   0  0  0  0  0  2  0  0  0  0  0  0
  161.2050  203.8620  148.7350 S   0  0  0  0  0  0  0  0  0  0  0  0
  160.9040  202.2050  146.6160 C   0  0  0  0  0  2  0  0  0  0  0  0
  161.2420  202.1610  148.0910 C   0  0  2  0  0  3  0  0  0  0  0  0
  161.1940  204.5700  147.0480 C   0  0  1  0  0  3  0  0  0  0  0  0
  160.7590  200.9370  150.0820 O   0  0  0  0  0  1  0  0  0  0  0  0
  160.2390  201.3050  148.8410 C   0  0  0  0  0  2  0  0  0  0  0  0
  1  2  1  0  0  0  0
  2  3  1  0  0  0  0
  3  4  1  0  0  0  0
  4  6  1  0  0  0  0
  6  5  1  1  0  0  0
  7  6  1  0  0  0  0
  8 10  1  0  0  0  0
  8 11  1  0  0  0  0
 10 12  1  0  0  0  0
 11 14  1  0  0  0  0
 12  9  1  1  0  0  0
 12 14  1  0  0  0  0
 12 17  1  0  0  0  0
 13 11  2  0  0  0  0
 14  7  1  6  0  0  0
 16 17  1  0  0  0  0
 17 15  1  0  0  0  0
 18  1  1  0  0  0  0
 19 21  1  0  0  0  0
 20 24  1  1  0  0  0
 20 19  1  0  0  0  0
 20 21  1  0  0  0  0
 21 23  1  0  0  0  0
 21 18  1  1  0  0  0
 23 22  1  0  0  0  0
 25 24  1  0  0  0  0
 26 25  2  0  0  0  0
 27 29  1  0  0  0  0
 27 31  1  0  0  0  0
 29 30  1  0  0  0  0
 30 28  1  0  0  0  0
 30 33  1  1  0  0  0
 31 25  1  1  0  0  0
 31 28  1  0  0  0  0
 33 32  1  0  0  0  0
M  END
>  <MODEL>
4

>  <REMARK>
 VINA RESULT:      -6.2      2.943      9.790
  Name = 
  14 active torsions:
  status: ('A' for Active; 'I' for Inactive)
    1  A    between atoms: C_4  and  C_9
    2  A    between atoms: C_4  and  C_25
    3  A    between atoms: C_9  and  O_23
    4  A    between atoms: C_10  and  C_25
    5  A    between atoms: C_10  and  C_28
    6  A    between atoms: C_12  and  C_13
    7  A    between atoms: C_12  and  C_30
    8  A    between atoms: C_13  and  C_27
    9  A    between atoms: C_16  and  C_28
   10  A    between atoms: C_16  and  C_31
   11  A    between atoms: C_17  and  C_22
   12  A    between atoms: O_18  and  C_31
   13  A    between atoms: O_23  and  C_33
   14  A    between atoms: C_24  and  C_26
                            x       y       z     vdW  Elec       q    Type
                         _______ _______ _______ _____ _____    ______ ____

>  <TORSDO>
F 14

$$$$
=
 OpenBabel11072412273D

 33 35  0  0  1  0  0  0  0  0999 V2000
  162.2790  207.7950  151.1660 C   0  0  0  0  0  2  0  0  0  0  0  0
  161.9500  209.2800  151.1310 C   0  0  0  0  0  2  0  0  0  0  0  0
  161.8760  209.8380  152.5390 C   0  0  0  0  0  2  0  0  0  0  0  0
  160.6940  210.7780  152.6510 C   0  0  0  0  0  2  0  0  0  0  0  0
  159.8600  210.1530  154.8870 C   0  0  0  0  0  1  0  0  0  0  0  0
  160.5370  211.2480  154.0860 C   0  0  2  0  0  3  0  0  0  0  0  0
  159.7450  212.4020  154.1110 O   0  0  0  0  0  0  0  0  0  0  0  0
  158.6130  214.4240  156.4530 N   0  0  0  0  0  2  0  0  0  0  0  0
  157.2180  212.7750  153.7210 O   0  0  0  0  0  1  0  0  0  0  0  0
  157.4330  214.1960  155.6420 C   0  0  0  0  0  2  0  0  0  0  0  0
  159.5130  213.3610  156.2420 C   0  0  0  0  0  0  0  0  0  0  0  0
  157.5470  212.7660  155.0820 C   0  0  2  0  0  0  0  0  0  0  0  0
  160.6330  213.3020  156.8130 O   0  0  0  0  0  0  0  0  0  0  0  0
  159.0140  212.3340  155.3040 C   0  0  1  0  0  3  0  0  0  0  0  0
  155.8490  210.8900  154.9140 C   0  0  0  0  0  1  0  0  0  0  0  0
  155.5970  212.5870  156.6970 C   0  0  0  0  0  1  0  0  0  0  0  0
  156.6030  211.8220  155.8490 C   0  0  0  0  0  3  0  0  0  0  0  0
  161.0400  206.9480  151.4380 C   0  0  0  0  0  2  0  0  0  0  0  0
  162.4580  204.8370  151.7730 C   0  0  0  0  0  2  0  0  0  0  0  0
  161.0280  204.3160  151.8580 C   0  0  1  0  0  3  0  0  0  0  0  0
  161.3630  205.7320  152.3130 C   0  0  2  0  0  0  0  0  0  0  0  0
  160.5500  206.8630  153.9810 O   0  0  0  0  0  1  0  0  0  0  0  0
  161.4000  205.8930  153.7070 O   0  0  0  0  0  0  0  0  0  0  0  0
  160.4110  204.2690  150.4660 C   0  0  0  0  0  2  0  0  0  0  0  0
  160.8250  203.0240  149.7420 C   0  0  0  0  0  0  0  0  0  0  0  0
  160.6400  201.9430  150.2790 O   0  0  0  0  0  0  0  0  0  0  0  0
  160.7990  202.1360  147.4240 C   0  0  0  0  0  2  0  0  0  0  0  0
  161.5520  204.7340  147.6460 S   0  0  0  0  0  0  0  0  0  0  0  0
  161.1970  202.5840  146.0410 C   0  0  0  0  0  2  0  0  0  0  0  0
  161.0560  204.0910  146.0190 C   0  0  2  0  0  3  0  0  0  0  0  0
  161.4960  203.0660  148.3950 C   0  0  1  0  0  3  0  0  0  0  0  0
  161.2370  205.6840  144.2520 O   0  0  0  0  0  1  0  0  0  0  0  0
  161.9360  204.6920  144.9380 C   0  0  0  0  0  2  0  0  0  0  0  0
  1 18  1  0  0  0  0
  2  1  1  0  0  0  0
  2  3  1  0  0  0  0
  3  4  1  0  0  0  0
  4  6  1  0  0  0  0
  6  7  1  0  0  0  0
  6  5  1  1  0  0  0
 10  8  1  0  0  0  0
 11  8  1  0  0  0  0
 11 13  2  0  0  0  0
 12  9  1  6  0  0  0
 12 14  1  0  0  0  0
 12 10  1  0  0  0  0
 12 17  1  0  0  0  0
 14  7  1  6  0  0  0
 14 11  1  0  0  0  0
 15 17  1  0  0  0  0
 17 16  1  0  0  0  0
 19 20  1  0  0  0  0
 19 21  1  0  0  0  0
 20 24  1  6  0  0  0
 20 21  1  0  0  0  0
 21 18  1  6  0  0  0
 21 23  1  0  0  0  0
 23 22  1  0  0  0  0
 25 26  2  0  0  0  0
 25 24  1  0  0  0  0
 27 31  1  0  0  0  0
 28 31  1  0  0  0  0
 29 27  1  0  0  0  0
 30 33  1  6  0  0  0
 30 29  1  0  0  0  0
 30 28  1  0  0  0  0
 31 25  1  1  0  0  0
 32 33  1  0  0  0  0
M  END
>  <MODEL>
5

>  <REMARK>
 VINA RESULT:      -6.1      3.392     10.346
  Name = 
  14 active torsions:
  status: ('A' for Active; 'I' for Inactive)
    1  A    between atoms: C_4  and  C_9
    2  A    between atoms: C_4  and  C_25
    3  A    between atoms: C_9  and  O_23
    4  A    between atoms: C_10  and  C_25
    5  A    between atoms: C_10  and  C_28
    6  A    between atoms: C_12  and  C_13
    7  A    between atoms: C_12  and  C_30
    8  A    between atoms: C_13  and  C_27
    9  A    between atoms: C_16  and  C_28
   10  A    between atoms: C_16  and  C_31
   11  A    between atoms: C_17  and  C_22
   12  A    between atoms: O_18  and  C_31
   13  A    between atoms: O_23  and  C_33
   14  A    between atoms: C_24  and  C_26
                            x       y       z     vdW  Elec       q    Type
                         _______ _______ _______ _____ _____    ______ ____

>  <TORSDO>
F 14

$$$$
=
 OpenBabel11072412273D

 33 35  0  0  1  0  0  0  0  0999 V2000
  161.9530  208.5540  151.4660 C   0  0  0  0  0  2  0  0  0  0  0  0
  161.5890  209.9750  151.8670 C   0  0  0  0  0  2  0  0  0  0  0  0
  161.3490  210.0580  153.3620 C   0  0  0  0  0  2  0  0  0  0  0  0
  160.1050  210.8770  153.6320 C   0  0  0  0  0  2  0  0  0  0  0  0
  160.2810  210.4950  156.0630 C   0  0  0  0  0  1  0  0  0  0  0  0
  160.2130  211.5580  154.9840 C   0  0  2  0  0  3  0  0  0  0  0  0
  159.0850  212.3600  155.1910 O   0  0  0  0  0  0  0  0  0  0  0  0
  155.9430  212.8070  154.3030 N   0  0  0  0  0  2  0  0  0  0  0  0
  158.9500  214.4520  153.6790 O   0  0  0  0  0  1  0  0  0  0  0  0
  156.6060  213.9350  153.6810 C   0  0  0  0  0  2  0  0  0  0  0  0
  156.9010  211.7990  154.5370 C   0  0  0  0  0  0  0  0  0  0  0  0
  158.0250  213.4690  153.3050 C   0  0  2  0  0  0  0  0  0  0  0  0
  156.6080  210.7030  155.0810 O   0  0  0  0  0  0  0  0  0  0  0  0
  158.2610  212.1510  154.0790 C   0  0  1  0  0  3  0  0  0  0  0  0
  159.4870  213.5420  151.2340 C   0  0  0  0  0  1  0  0  0  0  0  0
  157.0640  213.9930  151.0160 C   0  0  0  0  0  1  0  0  0  0  0  0
  158.1120  213.2080  151.7910 C   0  0  0  0  0  3  0  0  0  0  0  0
  160.8510  207.5630  151.8310 C   0  0  0  0  0  2  0  0  0  0  0  0
  162.5390  205.6400  151.9980 C   0  0  0  0  0  2  0  0  0  0  0  0
  161.1960  204.9440  152.1860 C   0  0  1  0  0  3  0  0  0  0  0  0
  161.3920  206.3840  152.6470 C   0  0  2  0  0  0  0  0  0  0  0  0
  160.3520  206.9430  154.4720 O   0  0  0  0  0  1  0  0  0  0  0  0
  161.5270  206.5290  154.0370 O   0  0  0  0  0  0  0  0  0  0  0  0
  160.4730  204.8420  150.8490 C   0  0  0  0  0  2  0  0  0  0  0  0
  160.8840  203.6000  150.1170 C   0  0  0  0  0  0  0  0  0  0  0  0
  160.6830  202.5160  150.6390 O   0  0  0  0  0  0  0  0  0  0  0  0
  160.9080  202.7010  147.8030 C   0  0  0  0  0  2  0  0  0  0  0  0
  161.6020  205.3160  148.0220 S   0  0  0  0  0  0  0  0  0  0  0  0
  161.3150  203.1510  146.4230 C   0  0  0  0  0  2  0  0  0  0  0  0
  161.1410  204.6550  146.3910 C   0  0  2  0  0  3  0  0  0  0  0  0
  161.5720  203.6510  148.7780 C   0  0  1  0  0  3  0  0  0  0  0  0
  161.2320  205.8170  144.3090 O   0  0  0  0  0  1  0  0  0  0  0  0
  162.0220  205.2700  145.3190 C   0  0  0  0  0  2  0  0  0  0  0  0
  1 18  1  0  0  0  0
  1  2  1  0  0  0  0
  2  3  1  0  0  0  0
  3  4  1  0  0  0  0
  4  6  1  0  0  0  0
  6  7  1  0  0  0  0
  6  5  1  1  0  0  0
  8 11  1  0  0  0  0
 10  8  1  0  0  0  0
 11 13  2  0  0  0  0
 12  9  1  1  0  0  0
 12 10  1  0  0  0  0
 12 14  1  0  0  0  0
 14 11  1  0  0  0  0
 14  7  1  1  0  0  0
 15 17  1  0  0  0  0
 16 17  1  0  0  0  0
 17 12  1  0  0  0  0
 19 20  1  0  0  0  0
 19 21  1  0  0  0  0
 20 24  1  6  0  0  0
 20 21  1  0  0  0  0
 21 18  1  6  0  0  0
 21 23  1  0  0  0  0
 23 22  1  0  0  0  0
 25 26  2  0  0  0  0
 25 24  1  0  0  0  0
 27 31  1  0  0  0  0
 28 31  1  0  0  0  0
 29 27  1  0  0  0  0
 30 33  1  6  0  0  0
 30 29  1  0  0  0  0
 30 28  1  0  0  0  0
 31 25  1  1  0  0  0
 32 33  1  0  0  0  0
M  END
>  <MODEL>
6

>  <REMARK>
 VINA RESULT:      -6.0      3.243      9.710
  Name = 
  14 active torsions:
  status: ('A' for Active; 'I' for Inactive)
    1  A    between atoms: C_4  and  C_9
    2  A    between atoms: C_4  and  C_25
    3  A    between atoms: C_9  and  O_23
    4  A    between atoms: C_10  and  C_25
    5  A    between atoms: C_10  and  C_28
    6  A    between atoms: C_12  and  C_13
    7  A    between atoms: C_12  and  C_30
    8  A    between atoms: C_13  and  C_27
    9  A    between atoms: C_16  and  C_28
   10  A    between atoms: C_16  and  C_31
   11  A    between atoms: C_17  and  C_22
   12  A    between atoms: O_18  and  C_31
   13  A    between atoms: O_23  and  C_33
   14  A    between atoms: C_24  and  C_26
                            x       y       z     vdW  Elec       q    Type
                         _______ _______ _______ _____ _____    ______ ____

>  <TORSDO>
F 14

$$$$
=
 OpenBabel11072412273D

 33 35  0  0  1  0  0  0  0  0999 V2000
  161.2510  206.4120  151.6570 C   0  0  0  0  0  2  0  0  0  0  0  0
  161.6640  205.8200  152.9960 C   0  0  0  0  0  2  0  0  0  0  0  0
  161.1010  206.6490  154.1350 C   0  0  0  0  0  2  0  0  0  0  0  0
  160.8210  208.0550  153.6500 C   0  0  0  0  0  2  0  0  0  0  0  0
  159.7020  208.3750  155.8250 C   0  0  0  0  0  1  0  0  0  0  0  0
  160.6680  208.9940  154.8330 C   0  0  2  0  0  3  0  0  0  0  0  0
  160.1600  210.2200  154.3900 O   0  0  0  0  0  0  0  0  0  0  0  0
  160.0990  213.1070  155.9780 N   0  0  0  0  0  2  0  0  0  0  0  0
  157.9810  211.4580  153.7570 O   0  0  0  0  0  1  0  0  0  0  0  0
  158.8780  213.1550  155.1970 C   0  0  0  0  0  2  0  0  0  0  0  0
  160.4750  211.7570  156.1370 C   0  0  0  0  0  0  0  0  0  0  0  0
  158.3650  211.7080  155.0800 C   0  0  2  0  0  0  0  0  0  0  0  0
  161.5090  211.4150  156.7670 O   0  0  0  0  0  0  0  0  0  0  0  0
  159.5430  210.8000  155.5060 C   0  0  1  0  0  3  0  0  0  0  0  0
  156.0660  210.6780  155.3740 C   0  0  0  0  0  1  0  0  0  0  0  0
  156.5870  212.8090  156.5180 C   0  0  0  0  0  1  0  0  0  0  0  0
  157.1720  211.4930  156.0280 C   0  0  0  0  0  3  0  0  0  0  0  0
  162.4580  206.8630  150.8410 C   0  0  0  0  0  2  0  0  0  0  0  0
  160.8310  207.4630  148.9520 C   0  0  0  0  0  2  0  0  0  0  0  0
  162.1920  207.4900  148.2640 C   0  0  1  0  0  3  0  0  0  0  0  0
  162.0640  207.8530  149.7400 C   0  0  2  0  0  0  0  0  0  0  0  0
  162.6870  209.3320  151.2050 O   0  0  0  0  0  1  0  0  0  0  0  0
  162.1540  209.2290  150.0030 O   0  0  0  0  0  0  0  0  0  0  0  0
  162.6900  206.0680  148.0430 C   0  0  0  0  0  2  0  0  0  0  0  0
  161.8280  205.3520  147.0470 C   0  0  0  0  0  0  0  0  0  0  0  0
  161.7590  205.7880  145.9090 O   0  0  0  0  0  0  0  0  0  0  0  0
  161.4020  202.9570  146.5520 C   0  0  0  0  0  2  0  0  0  0  0  0
  161.1800  203.6420  149.1690 S   0  0  0  0  0  0  0  0  0  0  0  0
  160.9270  201.7240  147.2770 C   0  0  0  0  0  2  0  0  0  0  0  0
  161.3440  201.8860  148.7230 C   0  0  2  0  0  3  0  0  0  0  0  0
  161.0160  204.1390  147.4170 C   0  0  1  0  0  3  0  0  0  0  0  0
  159.1220  201.3280  149.3910 O   0  0  0  0  0  1  0  0  0  0  0  0
  160.4660  201.0410  149.6270 C   0  0  0  0  0  2  0  0  0  0  0  0
  1  2  1  0  0  0  0
  2  3  1  0  0  0  0
  4  3  1  0  0  0  0
  4  6  1  0  0  0  0
  6  5  1  1  0  0  0
  7  6  1  0  0  0  0
  8 11  1  0  0  0  0
 10  8  1  0  0  0  0
 11 13  2  0  0  0  0
 12  9  1  6  0  0  0
 12 10  1  0  0  0  0
 12 14  1  0  0  0  0
 12 17  1  0  0  0  0
 14  7  1  6  0  0  0
 14 11  1  0  0  0  0
 15 17  1  0  0  0  0
 17 16  1  0  0  0  0
 18  1  1  0  0  0  0
 19 21  1  0  0  0  0
 20 24  1  1  0  0  0
 20 19  1  0  0  0  0
 20 21  1  0  0  0  0
 21 23  1  0  0  0  0
 21 18  1  1  0  0  0
 23 22  1  0  0  0  0
 25 24  1  0  0  0  0
 26 25  2  0  0  0  0
 27 29  1  0  0  0  0
 27 31  1  0  0  0  0
 29 30  1  0  0  0  0
 30 28  1  0  0  0  0
 30 33  1  1  0  0  0
 31 25  1  6  0  0  0
 31 28  1  0  0  0  0
 32 33  1  0  0  0  0
M  END
>  <MODEL>
7

>  <REMARK>
 VINA RESULT:      -6.0      3.129      9.820
  Name = 
  14 active torsions:
  status: ('A' for Active; 'I' for Inactive)
    1  A    between atoms: C_4  and  C_9
    2  A    between atoms: C_4  and  C_25
    3  A    between atoms: C_9  and  O_23
    4  A    between atoms: C_10  and  C_25
    5  A    between atoms: C_10  and  C_28
    6  A    between atoms: C_12  and  C_13
    7  A    between atoms: C_12  and  C_30
    8  A    between atoms: C_13  and  C_27
    9  A    between atoms: C_16  and  C_28
   10  A    between atoms: C_16  and  C_31
   11  A    between atoms: C_17  and  C_22
   12  A    between atoms: O_18  and  C_31
   13  A    between atoms: O_23  and  C_33
   14  A    between atoms: C_24  and  C_26
                            x       y       z     vdW  Elec       q    Type
                         _______ _______ _______ _____ _____    ______ ____

>  <TORSDO>
F 14

$$$$
=
 OpenBabel11072412273D

 33 35  0  0  1  0  0  0  0  0999 V2000
  160.8750  207.3150  152.3650 C   0  0  0  0  0  2  0  0  0  0  0  0
  161.7680  206.0950  152.2020 C   0  0  0  0  0  2  0  0  0  0  0  0
  160.9450  204.8240  152.2820 C   0  0  0  0  0  2  0  0  0  0  0  0
  161.5670  203.7590  151.4040 C   0  0  0  0  0  2  0  0  0  0  0  0
  160.4360  202.3210  149.7490 C   0  0  0  0  0  1  0  0  0  0  0  0
  160.8850  203.7380  150.0480 C   0  0  2  0  0  3  0  0  0  0  0  0
  161.7920  204.1560  149.0670 O   0  0  0  0  0  0  0  0  0  0  0  0
  161.5070  207.0230  147.4680 N   0  0  0  0  0  2  0  0  0  0  0  0
  162.9010  203.9130  146.7450 O   0  0  0  0  0  1  0  0  0  0  0  0
  162.2570  206.2150  146.5270 C   0  0  0  0  0  2  0  0  0  0  0  0
  160.8120  206.1630  148.3410 C   0  0  0  0  0  0  0  0  0  0  0  0
  161.7860  204.7610  146.7120 C   0  0  2  0  0  0  0  0  0  0  0  0
  160.0830  206.5920  149.2730 O   0  0  0  0  0  0  0  0  0  0  0  0
  161.0140  204.7280  148.0520 C   0  0  1  0  0  3  0  0  0  0  0  0
  160.8670  202.8590  145.3090 C   0  0  0  0  0  1  0  0  0  0  0  0
  161.1950  205.0780  144.2640 C   0  0  0  0  0  1  0  0  0  0  0  0
  160.8480  204.3590  145.5600 C   0  0  0  0  0  3  0  0  0  0  0  0
  161.6630  208.6150  152.2350 C   0  0  0  0  0  2  0  0  0  0  0  0
  159.6670  210.0930  152.8740 C   0  0  0  0  0  2  0  0  0  0  0  0
  160.7800  211.1010  152.6110 C   0  0  1  0  0  3  0  0  0  0  0  0
  161.1060  209.7120  153.1490 C   0  0  2  0  0  0  0  0  0  0  0  0
  160.4660  209.0110  155.1030 O   0  0  0  0  0  1  0  0  0  0  0  0
  161.4330  209.6870  154.5140 O   0  0  0  0  0  0  0  0  0  0  0  0
  161.0200  211.2300  151.1130 C   0  0  0  0  0  2  0  0  0  0  0  0
  160.5190  212.5490  150.6060 C   0  0  0  0  0  0  0  0  0  0  0  0
  159.7250  213.1770  151.2880 O   0  0  0  0  0  0  0  0  0  0  0  0
  161.9840  212.2190  148.6290 C   0  0  0  0  0  2  0  0  0  0  0  0
  159.5510  213.2930  148.0850 S   0  0  0  0  0  0  0  0  0  0  0  0
  161.9820  212.5480  147.1580 C   0  0  0  0  0  2  0  0  0  0  0  0
  160.5310  212.5860  146.7260 C   0  0  2  0  0  3  0  0  0  0  0  0
  160.9330  213.1030  149.2680 C   0  0  1  0  0  3  0  0  0  0  0  0
  161.2410  212.9930  144.4850 O   0  0  0  0  0  1  0  0  0  0  0  0
  160.3700  213.4360  145.4790 C   0  0  0  0  0  2  0  0  0  0  0  0
  2  3  1  0  0  0  0
  2  1  1  0  0  0  0
  4  3  1  0  0  0  0
  6  5  1  6  0  0  0
  6  4  1  0  0  0  0
  7  6  1  0  0  0  0
  8 11  1  0  0  0  0
 10 12  1  0  0  0  0
 10  8  1  0  0  0  0
 11 13  2  0  0  0  0
 12  9  1  1  0  0  0
 12 14  1  0  0  0  0
 14 11  1  0  0  0  0
 14  7  1  1  0  0  0
 15 17  1  0  0  0  0
 16 17  1  0  0  0  0
 17 12  1  0  0  0  0
 18  1  1  0  0  0  0
 19 21  1  0  0  0  0
 20 24  1  6  0  0  0
 20 19  1  0  0  0  0
 20 21  1  0  0  0  0
 21 18  1  6  0  0  0
 21 23  1  0  0  0  0
 23 22  1  0  0  0  0
 25 24  1  0  0  0  0
 25 26  2  0  0  0  0
 27 31  1  0  0  0  0
 28 31  1  0  0  0  0
 29 27  1  0  0  0  0
 30 33  1  6  0  0  0
 30 29  1  0  0  0  0
 30 28  1  0  0  0  0
 31 25  1  1  0  0  0
 32 33  1  0  0  0  0
M  END
>  <MODEL>
8

>  <REMARK>
 VINA RESULT:      -5.9      3.356      4.515
  Name = 
  14 active torsions:
  status: ('A' for Active; 'I' for Inactive)
    1  A    between atoms: C_4  and  C_9
    2  A    between atoms: C_4  and  C_25
    3  A    between atoms: C_9  and  O_23
    4  A    between atoms: C_10  and  C_25
    5  A    between atoms: C_10  and  C_28
    6  A    between atoms: C_12  and  C_13
    7  A    between atoms: C_12  and  C_30
    8  A    between atoms: C_13  and  C_27
    9  A    between atoms: C_16  and  C_28
   10  A    between atoms: C_16  and  C_31
   11  A    between atoms: C_17  and  C_22
   12  A    between atoms: O_18  and  C_31
   13  A    between atoms: O_23  and  C_33
   14  A    between atoms: C_24  and  C_26
                            x       y       z     vdW  Elec       q    Type
                         _______ _______ _______ _____ _____    ______ ____

>  <TORSDO>
F 14

$$$$
=
 OpenBabel11072412273D

 33 35  0  0  1  0  0  0  0  0999 V2000
  161.9060  207.0250  147.4670 C   0  0  0  0  0  2  0  0  0  0  0  0
  162.6970  207.5660  148.6480 C   0  0  0  0  0  2  0  0  0  0  0  0
  161.9670  208.7360  149.2810 C   0  0  0  0  0  2  0  0  0  0  0  0
  161.4960  208.3510  150.6670 C   0  0  0  0  0  2  0  0  0  0  0  0
  162.6390  210.0260  152.0720 C   0  0  0  0  0  1  0  0  0  0  0  0
  161.2970  209.5950  151.5130 C   0  0  2  0  0  3  0  0  0  0  0  0
  160.4250  209.3040  152.5690 O   0  0  0  0  0  0  0  0  0  0  0  0
  158.4080  210.9620  154.5780 N   0  0  0  0  0  2  0  0  0  0  0  0
  161.0000  208.6750  155.0090 O   0  0  0  0  0  1  0  0  0  0  0  0
  159.1880  210.1680  155.5070 C   0  0  0  0  0  2  0  0  0  0  0  0
  159.1360  211.0920  153.3790 C   0  0  0  0  0  0  0  0  0  0  0  0
  160.5900  210.0090  154.8890 C   0  0  2  0  0  0  0  0  0  0  0  0
  158.6940  211.7250  152.3860 O   0  0  0  0  0  0  0  0  0  0  0  0
  160.4550  210.4260  153.4060 C   0  0  1  0  0  3  0  0  0  0  0  0
  162.7250  210.1580  156.2500 C   0  0  0  0  0  1  0  0  0  0  0  0
  160.9150  211.7940  156.6640 C   0  0  0  0  0  1  0  0  0  0  0  0
  161.5900  210.9370  155.6030 C   0  0  0  0  0  3  0  0  0  0  0  0
  162.7330  206.0570  146.6270 C   0  0  0  0  0  2  0  0  0  0  0  0
  160.4610  204.9310  146.2440 C   0  0  0  0  0  2  0  0  0  0  0  0
  161.4510  203.7820  146.0960 C   0  0  1  0  0  3  0  0  0  0  0  0
  161.8520  205.2010  145.7110 C   0  0  2  0  0  0  0  0  0  0  0  0
  160.8300  206.1660  144.0530 O   0  0  0  0  0  1  0  0  0  0  0  0
  161.8910  205.4320  144.3270 O   0  0  0  0  0  0  0  0  0  0  0  0
  161.9740  203.3670  147.4650 C   0  0  0  0  0  2  0  0  0  0  0  0
  160.9360  202.5910  148.2170 C   0  0  0  0  0  0  0  0  0  0  0  0
  160.3630  201.6740  147.6510 O   0  0  0  0  0  0  0  0  0  0  0  0
  161.1890  201.9620  150.6060 C   0  0  0  0  0  2  0  0  0  0  0  0
  161.0040  204.6290  150.1370 S   0  0  0  0  0  0  0  0  0  0  0  0
  161.1620  202.6310  151.9560 C   0  0  0  0  0  2  0  0  0  0  0  0
  161.6360  204.0530  151.7420 C   0  0  2  0  0  3  0  0  0  0  0  0
  160.5500  202.9310  149.6330 C   0  0  1  0  0  3  0  0  0  0  0  0
  161.8580  206.1430  152.8730 O   0  0  0  0  0  1  0  0  0  0  0  0
  161.1260  204.9560  152.8500 C   0  0  0  0  0  2  0  0  0  0  0  0
  1  2  1  0  0  0  0
  2  3  1  0  0  0  0
  3  4  1  0  0  0  0
  4  6  1  0  0  0  0
  6  5  1  1  0  0  0
  6  7  1  0  0  0  0
  8 10  1  0  0  0  0
 11 14  1  0  0  0  0
 11  8  1  0  0  0  0
 12  9  1  1  0  0  0
 12 10  1  0  0  0  0
 12 17  1  0  0  0  0
 13 11  2  0  0  0  0
 14  7  1  6  0  0  0
 14 12  1  0  0  0  0
 17 15  1  0  0  0  0
 17 16  1  0  0  0  0
 18  1  1  0  0  0  0
 20 19  1  0  0  0  0
 20 24  1  1  0  0  0
 21 20  1  0  0  0  0
 21 19  1  0  0  0  0
 21 18  1  1  0  0  0
 22 23  1  0  0  0  0
 23 21  1  0  0  0  0
 24 25  1  0  0  0  0
 26 25  2  0  0  0  0
 27 29  1  0  0  0  0
 28 30  1  0  0  0  0
 30 29  1  0  0  0  0
 30 33  1  1  0  0  0
 31 25  1  6  0  0  0
 31 28  1  0  0  0  0
 31 27  1  0  0  0  0
 33 32  1  0  0  0  0
M  END
>  <MODEL>
9

>  <REMARK>
 VINA RESULT:      -5.9      3.032      9.326
  Name = 
  14 active torsions:
  status: ('A' for Active; 'I' for Inactive)
    1  A    between atoms: C_4  and  C_9
    2  A    between atoms: C_4  and  C_25
    3  A    between atoms: C_9  and  O_23
    4  A    between atoms: C_10  and  C_25
    5  A    between atoms: C_10  and  C_28
    6  A    between atoms: C_12  and  C_13
    7  A    between atoms: C_12  and  C_30
    8  A    between atoms: C_13  and  C_27
    9  A    between atoms: C_16  and  C_28
   10  A    between atoms: C_16  and  C_31
   11  A    between atoms: C_17  and  C_22
   12  A    between atoms: O_18  and  C_31
   13  A    between atoms: O_23  and  C_33
   14  A    between atoms: C_24  and  C_26
                            x       y       z     vdW  Elec       q    Type
                         _______ _______ _______ _____ _____    ______ ____

>  <TORSDO>
F 14

$$$$
