=
 OpenBabel11072414403D

 26 29  0  0  1  0  0  0  0  0999 V2000
  161.2030  202.5240  149.5180 C   0  0  1  0  0  3  0  0  0  0  0  0
  161.3470  204.7780  152.5830 C   0  0  0  0  0  0  0  0  0  0  0  0
  161.3530  210.2470  150.9310 C   0  0  0  0  0  0  0  0  0  0  0  0
  162.2740  209.5940  148.8380 C   0  0  0  0  0  3  0  0  0  0  0  0
  161.8620  207.9110  150.5200 C   0  0  0  0  0  0  0  0  0  0  0  0
  162.8410  207.2300  148.2700 C   0  0  0  0  0  2  0  0  0  0  0  0
  161.3670  208.9160  151.3770 C   0  0  0  0  0  0  0  0  0  0  0  0
  160.6750  203.4110  150.6320 C   0  0  0  0  0  2  0  0  0  0  0  0
  160.7700  206.0030  148.3180 O   0  0  0  0  0  0  0  0  0  0  0  0
  161.0370  202.8270  147.0520 C   0  0  0  0  0  2  0  0  0  0  0  0
  161.3710  206.2190  152.2180 C   0  0  0  0  0  0  0  0  0  0  0  0
  161.3400  201.2140  149.9760 O   0  0  0  0  0  1  0  0  0  0  0  0
  161.7280  206.5720  147.4580 C   0  0  2  0  0  3  0  0  0  0  0  0
  160.8850  207.2300  153.0800 C   0  0  0  0  0  0  0  0  0  0  0  0
  160.9240  211.1710  151.6730 O   0  0  0  0  0  0  0  0  0  0  0  0
  161.7210  205.1250  147.7690 C   0  0  2  0  0  3  0  0  0  0  0  0
  161.0360  204.3090  146.6910 C   0  0  0  0  0  2  0  0  0  0  0  0
  160.2560  202.5540  148.3320 C   0  0  0  0  0  2  0  0  0  0  0  0
  160.9250  204.4020  153.7090 O   0  0  0  0  0  0  0  0  0  0  0  0
  161.7920  203.7320  151.6100 C   0  0  0  0  0  2  0  0  0  0  0  0
  161.8020  210.5480  149.6830 N   0  0  0  0  0  0  0  0  0  0  0  0
  161.8650  206.5820  150.9580 C   0  0  0  0  0  3  0  0  0  0  0  0
  162.3180  208.2560  149.2330 C   0  0  1  0  0  3  0  0  0  0  0  0
  160.8920  208.5680  152.6470 C   0  0  0  0  0  3  0  0  0  0  0  0
  160.6830  207.6700  155.5110 C   0  0  0  0  0  1  0  0  0  0  0  0
  160.3960  206.9020  154.3500 O   0  0  0  0  0  0  0  0  0  0  0  0
  1 12  1  1  0  0  0
  1  8  1  0  0  0  0
  2 19  2  0  0  0  0
  3  7  1  0  0  0  0
  3 15  2  0  0  0  0
  4 23  1  0  0  0  0
  4 21  2  0  0  0  0
  5 22  2  0  0  0  0
  5  7  1  0  0  0  0
  7 24  2  0  0  0  0
  8 20  1  0  0  0  0
 10 18  1  0  0  0  0
 11  2  1  0  0  0  0
 11 14  2  0  0  0  0
 13 16  1  0  0  0  0
 13  6  1  1  0  0  0
 13  9  1  0  0  0  0
 14 26  1  0  0  0  0
 16 17  1  6  0  0  0
 16  9  1  0  0  0  0
 17 10  1  0  0  0  0
 18  1  1  0  0  0  0
 20  2  1  0  0  0  0
 21  3  1  0  0  0  0
 22 11  1  0  0  0  0
 23  6  1  6  0  0  0
 23  5  1  0  0  0  0
 24 14  1  0  0  0  0
 26 25  1  0  0  0  0
M  END
>  <MODEL>
1

>  <REMARK>
 VINA RESULT:      -8.6      0.000      0.000
  Name = 
  1 active torsions:
  status: ('A' for Active; 'I' for Inactive)
    1  A    between atoms: O_10  and  C_16
                            x       y       z     vdW  Elec       q    Type
                         _______ _______ _______ _____ _____    ______ ____

>  <TORSDO>
F 1

$$$$
=
 OpenBabel11072414403D

 26 29  0  0  1  0  0  0  0  0999 V2000
  161.3290  203.6880  150.9160 C   0  0  1  0  0  3  0  0  0  0  0  0
  161.3710  206.5940  153.3750 C   0  0  0  0  0  0  0  0  0  0  0  0
  161.1060  211.5270  150.5050 C   0  0  0  0  0  0  0  0  0  0  0  0
  162.0520  210.4520  148.6060 C   0  0  0  0  0  3  0  0  0  0  0  0
  161.7270  209.1850  150.6380 C   0  0  0  0  0  0  0  0  0  0  0  0
  162.7310  208.0490  148.5920 C   0  0  0  0  0  2  0  0  0  0  0  0
  161.1860  210.3370  151.2460 C   0  0  0  0  0  0  0  0  0  0  0  0
  160.7600  204.7830  151.8010 C   0  0  0  0  0  2  0  0  0  0  0  0
  160.7240  206.7710  148.9510 O   0  0  0  0  0  0  0  0  0  0  0  0
  161.1410  203.4040  148.4480 C   0  0  0  0  0  2  0  0  0  0  0  0
  161.3230  207.9110  152.6870 C   0  0  0  0  0  0  0  0  0  0  0  0
  161.5300  202.5270  151.6620 O   0  0  0  0  0  1  0  0  0  0  0  0
  161.6500  207.1700  147.9690 C   0  0  2  0  0  3  0  0  0  0  0  0
  160.7910  209.0700  153.2980 C   0  0  0  0  0  0  0  0  0  0  0  0
  160.6350  212.5760  151.0200 O   0  0  0  0  0  0  0  0  0  0  0  0
  161.7140  205.8360  148.6060 C   0  0  2  0  0  3  0  0  0  0  0  0
  161.0670  204.7610  147.7550 C   0  0  0  0  0  2  0  0  0  0  0  0
  160.3770  203.3980  149.7680 C   0  0  0  0  0  2  0  0  0  0  0  0
  160.9710  206.4700  154.5630 O   0  0  0  0  0  0  0  0  0  0  0  0
  161.8640  205.3730  152.6640 C   0  0  0  0  0  2  0  0  0  0  0  0
  161.5360  211.5520  149.2150 N   0  0  0  0  0  0  0  0  0  0  0  0
  161.7960  207.9950  151.3700 C   0  0  0  0  0  3  0  0  0  0  0  0
  162.1620  209.2450  149.2990 C   0  0  1  0  0  3  0  0  0  0  0  0
  160.7320  210.2710  152.5690 C   0  0  0  0  0  3  0  0  0  0  0  0
  160.8420  209.8450  155.6530 C   0  0  0  0  0  1  0  0  0  0  0  0
  160.3220  209.0220  154.6170 O   0  0  0  0  0  0  0  0  0  0  0  0
  1 12  1  1  0  0  0
  1  8  1  0  0  0  0
  2 19  2  0  0  0  0
  3 15  2  0  0  0  0
  3  7  1  0  0  0  0
  4 21  2  0  0  0  0
  4 23  1  0  0  0  0
  5  7  2  0  0  0  0
  5 22  1  0  0  0  0
  7 24  1  0  0  0  0
  8 20  1  0  0  0  0
 10 18  1  0  0  0  0
 11 14  1  0  0  0  0
 11  2  1  0  0  0  0
 13  6  1  1  0  0  0
 13 16  1  0  0  0  0
 13  9  1  0  0  0  0
 14 26  1  0  0  0  0
 16 17  1  6  0  0  0
 16  9  1  0  0  0  0
 17 10  1  0  0  0  0
 18  1  1  0  0  0  0
 20  2  1  0  0  0  0
 21  3  1  0  0  0  0
 22 11  2  0  0  0  0
 23  6  1  6  0  0  0
 23  5  1  0  0  0  0
 24 14  2  0  0  0  0
 26 25  1  0  0  0  0
M  END
>  <MODEL>
2

>  <REMARK>
 VINA RESULT:      -8.2      1.202      1.595
  Name = 
  1 active torsions:
  status: ('A' for Active; 'I' for Inactive)
    1  A    between atoms: O_10  and  C_16
                            x       y       z     vdW  Elec       q    Type
                         _______ _______ _______ _____ _____    ______ ____

>  <TORSDO>
F 1

$$$$
=
 OpenBabel11072414403D

 26 29  0  0  1  0  0  0  0  0999 V2000
  161.5430  209.3640  152.6610 C   0  0  1  0  0  3  0  0  0  0  0  0
  161.8690  208.0600  149.0990 C   0  0  0  0  0  0  0  0  0  0  0  0
  160.6360  202.4820  148.9910 C   0  0  0  0  0  0  0  0  0  0  0  0
  161.2490  202.3210  151.2830 C   0  0  0  0  0  3  0  0  0  0  0  0
  161.4500  204.4480  150.1560 C   0  0  0  0  0  0  0  0  0  0  0  0
  162.0940  204.2580  152.6130 C   0  0  0  0  0  2  0  0  0  0  0  0
  160.9600  203.8480  148.9780 C   0  0  0  0  0  0  0  0  0  0  0  0
  161.0880  208.9530  151.2720 C   0  0  0  0  0  2  0  0  0  0  0  0
  160.3090  205.8710  152.6770 O   0  0  0  0  0  0  0  0  0  0  0  0
  160.8710  208.4430  154.8760 C   0  0  0  0  0  2  0  0  0  0  0  0
  161.5790  206.6040  149.0070 C   0  0  0  0  0  0  0  0  0  0  0  0
  161.9830  210.6880  152.6460 O   0  0  0  0  0  1  0  0  0  0  0  0
  160.9780  204.8940  153.4380 C   0  0  2  0  0  3  0  0  0  0  0  0
  161.0970  205.9980  147.8240 C   0  0  0  0  0  0  0  0  0  0  0  0
  160.2030  201.9130  147.9530 O   0  0  0  0  0  0  0  0  0  0  0  0
  161.2750  206.3360  153.5840 C   0  0  2  0  0  3  0  0  0  0  0  0
  160.5510  206.9550  154.7640 C   0  0  0  0  0  2  0  0  0  0  0  0
  160.4000  209.2180  153.6510 C   0  0  0  0  0  2  0  0  0  0  0  0
  161.7350  208.8110  148.0970 O   0  0  0  0  0  0  0  0  0  0  0  0
  162.2970  208.6770  150.3940 C   0  0  0  0  0  2  0  0  0  0  0  0
  160.7870  201.7610  150.1340 N   0  0  0  0  0  0  0  0  0  0  0  0
  161.7610  205.8120  150.1490 C   0  0  0  0  0  3  0  0  0  0  0  0
  161.5930  203.6730  151.3240 C   0  0  1  0  0  3  0  0  0  0  0  0
  160.7950  204.6250  147.8250 C   0  0  0  0  0  3  0  0  0  0  0  0
  160.3700  206.2250  145.4640 C   0  0  0  0  0  1  0  0  0  0  0  0
  160.9170  206.7600  146.6630 O   0  0  0  0  0  0  0  0  0  0  0  0
  1 12  1  6  0  0  0
  1 18  1  0  0  0  0
  2 20  1  0  0  0  0
  3 21  1  0  0  0  0
  5 23  1  0  0  0  0
  7  3  1  0  0  0  0
  7  5  2  0  0  0  0
  8  1  1  0  0  0  0
  9 13  1  0  0  0  0
  9 16  1  0  0  0  0
 11  2  1  0  0  0  0
 11 22  2  0  0  0  0
 13  6  1  6  0  0  0
 13 16  1  0  0  0  0
 14 24  2  0  0  0  0
 14 11  1  0  0  0  0
 15  3  2  0  0  0  0
 16 17  1  1  0  0  0
 17 10  1  0  0  0  0
 18 10  1  0  0  0  0
 19  2  2  0  0  0  0
 20  8  1  0  0  0  0
 21  4  2  0  0  0  0
 22  5  1  0  0  0  0
 23  4  1  1  0  0  0
 23  6  1  0  0  0  0
 24  7  1  0  0  0  0
 25 26  1  0  0  0  0
 26 14  1  0  0  0  0
M  END
>  <MODEL>
3

>  <REMARK>
 VINA RESULT:      -8.1      2.230      6.966
  Name = 
  1 active torsions:
  status: ('A' for Active; 'I' for Inactive)
    1  A    between atoms: O_10  and  C_16
                            x       y       z     vdW  Elec       q    Type
                         _______ _______ _______ _____ _____    ______ ____

>  <TORSDO>
F 1

$$$$
=
 OpenBabel11072414403D

 26 29  0  0  1  0  0  0  0  0999 V2000
  161.7860  208.3070  152.0420 C   0  0  1  0  0  3  0  0  0  0  0  0
  162.1770  207.2260  148.4120 C   0  0  0  0  0  0  0  0  0  0  0  0
  160.5790  201.7690  147.8630 C   0  0  0  0  0  0  0  0  0  0  0  0
  161.0790  201.4100  150.1610 C   0  0  0  0  0  3  0  0  0  0  0  0
  161.4710  203.5900  149.1950 C   0  0  0  0  0  0  0  0  0  0  0  0
  161.9940  203.1900  151.6550 C   0  0  0  0  0  2  0  0  0  0  0  0
  160.9940  203.1070  147.9600 C   0  0  0  0  0  0  0  0  0  0  0  0
  161.3640  208.0230  150.6110 C   0  0  0  0  0  2  0  0  0  0  0  0
  160.3200  204.9160  151.7640 O   0  0  0  0  0  0  0  0  0  0  0  0
  160.9580  207.2870  154.1580 C   0  0  0  0  0  2  0  0  0  0  0  0
  161.7940  205.8050  148.2070 C   0  0  0  0  0  0  0  0  0  0  0  0
  162.3140  209.5940  152.1370 O   0  0  0  0  0  1  0  0  0  0  0  0
  160.8890  203.8450  152.4790 C   0  0  2  0  0  3  0  0  0  0  0  0
  161.3240  205.3150  146.9660 C   0  0  0  0  0  0  0  0  0  0  0  0
  160.1530  201.3030  146.7730 O   0  0  0  0  0  0  0  0  0  0  0  0
  161.2750  205.2500  152.7380 C   0  0  2  0  0  3  0  0  0  0  0  0
  160.5440  205.8370  153.9290 C   0  0  0  0  0  2  0  0  0  0  0  0
  160.5930  208.1750  152.9740 C   0  0  0  0  0  2  0  0  0  0  0  0
  162.1370  208.0520  147.4610 O   0  0  0  0  0  0  0  0  0  0  0  0
  162.5890  207.7240  149.7630 C   0  0  0  0  0  2  0  0  0  0  0  0
  160.6310  200.9630  148.9580 N   0  0  0  0  0  0  0  0  0  0  0  0
  161.8730  204.9260  149.2960 C   0  0  0  0  0  3  0  0  0  0  0  0
  161.5110  202.7300  150.3100 C   0  0  1  0  0  3  0  0  0  0  0  0
  160.9320  203.9690  146.8580 C   0  0  0  0  0  3  0  0  0  0  0  0
  160.9290  205.7020  144.5490 C   0  0  0  0  0  1  0  0  0  0  0  0
  161.2460  206.1640  145.8550 O   0  0  0  0  0  0  0  0  0  0  0  0
  1 12  1  6  0  0  0
  1 18  1  0  0  0  0
  2 20  1  0  0  0  0
  3  7  1  0  0  0  0
  3 21  1  0  0  0  0
  5 22  1  0  0  0  0
  5 23  1  0  0  0  0
  7  5  2  0  0  0  0
  8  1  1  0  0  0  0
  9 13  1  0  0  0  0
  9 16  1  0  0  0  0
 11  2  1  0  0  0  0
 11 22  2  0  0  0  0
 13  6  1  6  0  0  0
 13 16  1  0  0  0  0
 14 11  1  0  0  0  0
 15  3  2  0  0  0  0
 16 17  1  1  0  0  0
 17 10  1  0  0  0  0
 18 10  1  0  0  0  0
 19  2  2  0  0  0  0
 20  8  1  0  0  0  0
 21  4  2  0  0  0  0
 23  4  1  1  0  0  0
 23  6  1  0  0  0  0
 24 14  2  0  0  0  0
 24  7  1  0  0  0  0
 25 26  1  0  0  0  0
 26 14  1  0  0  0  0
M  END
>  <MODEL>
4

>  <REMARK>
 VINA RESULT:      -7.8      2.456      7.060
  Name = 
  1 active torsions:
  status: ('A' for Active; 'I' for Inactive)
    1  A    between atoms: O_10  and  C_16
                            x       y       z     vdW  Elec       q    Type
                         _______ _______ _______ _____ _____    ______ ____

>  <TORSDO>
F 1

$$$$
=
 OpenBabel11072414403D

 26 29  0  0  1  0  0  0  0  0999 V2000
  161.0660  204.7780  145.4190 C   0  0  1  0  0  3  0  0  0  0  0  0
  161.1730  207.6600  147.9030 C   0  0  0  0  0  0  0  0  0  0  0  0
  161.5810  205.5890  153.2120 C   0  0  0  0  0  0  0  0  0  0  0  0
  160.5650  203.5660  152.4810 C   0  0  0  0  0  3  0  0  0  0  0  0
  160.8730  205.3680  150.9020 C   0  0  0  0  0  0  0  0  0  0  0  0
  159.7950  203.1920  150.1360 C   0  0  0  0  0  2  0  0  0  0  0  0
  161.4660  206.1370  151.9240 C   0  0  0  0  0  0  0  0  0  0  0  0
  161.6890  205.8110  146.3410 C   0  0  0  0  0  2  0  0  0  0  0  0
  161.7580  203.3050  148.7470 O   0  0  0  0  0  0  0  0  0  0  0  0
  161.2040  202.2930  145.5170 C   0  0  0  0  0  2  0  0  0  0  0  0
  161.2600  207.1850  149.3090 C   0  0  0  0  0  0  0  0  0  0  0  0
  160.8320  205.3380  144.1630 O   0  0  0  0  0  1  0  0  0  0  0  0
  160.8320  202.4170  149.3280 C   0  0  2  0  0  3  0  0  0  0  0  0
  161.8450  207.9580  150.3390 C   0  0  0  0  0  0  0  0  0  0  0  0
  162.1000  206.2510  154.1510 O   0  0  0  0  0  0  0  0  0  0  0  0
  160.7270  202.8400  147.9130 C   0  0  2  0  0  3  0  0  0  0  0  0
  161.3200  201.8180  146.9630 C   0  0  0  0  0  2  0  0  0  0  0  0
  161.9880  203.5780  145.2780 C   0  0  0  0  0  2  0  0  0  0  0  0
  161.5860  208.8060  147.5810 O   0  0  0  0  0  0  0  0  0  0  0  0
  160.6230  206.7780  146.8270 C   0  0  0  0  0  2  0  0  0  0  0  0
  161.1320  204.3280  153.4540 N   0  0  0  0  0  0  0  0  0  0  0  0
  160.7700  205.9080  149.6150 C   0  0  0  0  0  3  0  0  0  0  0  0
  160.4200  204.0650  151.1860 C   0  0  1  0  0  3  0  0  0  0  0  0
  161.9390  207.4230  151.6360 C   0  0  0  0  0  3  0  0  0  0  0  0
  161.9560  210.3870  150.8240 C   0  0  0  0  0  1  0  0  0  0  0  0
  162.3320  209.2430  150.0680 O   0  0  0  0  0  0  0  0  0  0  0  0
  1 12  1  6  0  0  0
  1  8  1  0  0  0  0
  2 11  1  0  0  0  0
  3 21  1  0  0  0  0
  3 15  2  0  0  0  0
  4 21  2  0  0  0  0
  5 23  1  0  0  0  0
  5  7  1  0  0  0  0
  7  3  1  0  0  0  0
  8 20  1  0  0  0  0
  9 13  1  0  0  0  0
 10 17  1  0  0  0  0
 11 22  1  0  0  0  0
 11 14  2  0  0  0  0
 13  6  1  1  0  0  0
 14 24  1  0  0  0  0
 16 17  1  6  0  0  0
 16  9  1  0  0  0  0
 16 13  1  0  0  0  0
 18  1  1  0  0  0  0
 18 10  1  0  0  0  0
 19  2  2  0  0  0  0
 20  2  1  0  0  0  0
 22  5  2  0  0  0  0
 23  6  1  6  0  0  0
 23  4  1  0  0  0  0
 24  7  2  0  0  0  0
 26 14  1  0  0  0  0
 26 25  1  0  0  0  0
M  END
>  <MODEL>
5

>  <REMARK>
 VINA RESULT:      -6.9      2.216      4.788
  Name = 
  1 active torsions:
  status: ('A' for Active; 'I' for Inactive)
    1  A    between atoms: O_10  and  C_16
                            x       y       z     vdW  Elec       q    Type
                         _______ _______ _______ _____ _____    ______ ____

>  <TORSDO>
F 1

$$$$
=
 OpenBabel11072414403D

 26 29  0  0  1  0  0  0  0  0999 V2000
  161.9650  209.5090  150.7390 C   0  0  1  0  0  3  0  0  0  0  0  0
  162.0770  207.0240  147.8570 C   0  0  0  0  0  0  0  0  0  0  0  0
  160.5060  201.8590  149.7300 C   0  0  0  0  0  0  0  0  0  0  0  0
  161.1950  202.4660  151.9250 C   0  0  0  0  0  3  0  0  0  0  0  0
  161.4810  204.0470  150.1200 C   0  0  0  0  0  0  0  0  0  0  0  0
  162.2050  204.6820  152.4780 C   0  0  0  0  0  2  0  0  0  0  0  0
  160.9110  203.1090  149.2350 C   0  0  0  0  0  0  0  0  0  0  0  0
  161.4330  208.6710  149.5900 C   0  0  0  0  0  2  0  0  0  0  0  0
  160.5240  206.3370  151.9970 O   0  0  0  0  0  0  0  0  0  0  0  0
  161.3240  209.4680  153.1460 C   0  0  0  0  0  2  0  0  0  0  0  0
  161.6960  205.6520  148.2860 C   0  0  0  0  0  0  0  0  0  0  0  0
  162.4840  210.7100  150.2550 O   0  0  0  0  0  1  0  0  0  0  0  0
  161.1610  205.6420  153.0430 C   0  0  2  0  0  3  0  0  0  0  0  0
  161.1330  204.7060  147.3970 C   0  0  0  0  0  0  0  0  0  0  0  0
  160.0000  200.9960  148.9650 O   0  0  0  0  0  0  0  0  0  0  0  0
  161.5500  207.0200  152.6700 C   0  0  2  0  0  3  0  0  0  0  0  0
  160.9100  208.0610  153.5680 C   0  0  0  0  0  2  0  0  0  0  0  0
  160.8540  209.7980  151.7340 C   0  0  0  0  0  2  0  0  0  0  0  0
  161.9500  207.3860  146.6570 O   0  0  0  0  0  0  0  0  0  0  0  0
  162.5890  208.0230  148.8470 C   0  0  0  0  0  2  0  0  0  0  0  0
  160.6570  201.5740  151.0520 N   0  0  0  0  0  0  0  0  0  0  0  0
  161.8730  205.2970  149.6310 C   0  0  0  0  0  3  0  0  0  0  0  0
  161.6210  203.7200  151.4830 C   0  0  1  0  0  3  0  0  0  0  0  0
  160.7500  203.4440  147.8840 C   0  0  0  0  0  3  0  0  0  0  0  0
  161.6330  204.3480  144.9960 C   0  0  0  0  0  1  0  0  0  0  0  0
  160.9560  205.0250  146.0460 O   0  0  0  0  0  0  0  0  0  0  0  0
  1 12  1  6  0  0  0
  1 18  1  0  0  0  0
  2 11  1  0  0  0  0
  2 20  1  0  0  0  0
  3 21  1  0  0  0  0
  5 23  1  0  0  0  0
  7  3  1  0  0  0  0
  7  5  2  0  0  0  0
  8  1  1  0  0  0  0
  9 16  1  0  0  0  0
  9 13  1  0  0  0  0
 10 17  1  0  0  0  0
 11 22  2  0  0  0  0
 13  6  1  6  0  0  0
 14 24  2  0  0  0  0
 14 11  1  0  0  0  0
 15  3  2  0  0  0  0
 16 13  1  0  0  0  0
 16 17  1  1  0  0  0
 18 10  1  0  0  0  0
 19  2  2  0  0  0  0
 20  8  1  0  0  0  0
 21  4  2  0  0  0  0
 22  5  1  0  0  0  0
 23  4  1  1  0  0  0
 23  6  1  0  0  0  0
 24  7  1  0  0  0  0
 25 26  1  0  0  0  0
 26 14  1  0  0  0  0
M  END
>  <MODEL>
6

>  <REMARK>
 VINA RESULT:      -6.8      2.266      7.080
  Name = 
  1 active torsions:
  status: ('A' for Active; 'I' for Inactive)
    1  A    between atoms: O_10  and  C_16
                            x       y       z     vdW  Elec       q    Type
                         _______ _______ _______ _____ _____    ______ ____

>  <TORSDO>
F 1

$$$$
=
 OpenBabel11072414403D

 26 29  0  0  1  0  0  0  0  0999 V2000
  161.0230  202.8040  147.4480 C   0  0  1  0  0  3  0  0  0  0  0  0
  161.1390  206.5970  147.7430 C   0  0  0  0  0  0  0  0  0  0  0  0
  161.7980  208.0650  153.2260 C   0  0  0  0  0  0  0  0  0  0  0  0
  160.8130  206.0000  153.8770 C   0  0  0  0  0  3  0  0  0  0  0  0
  161.0130  206.5200  151.5270 C   0  0  0  0  0  0  0  0  0  0  0  0
  159.9690  204.3110  152.2440 C   0  0  0  0  0  2  0  0  0  0  0  0
  161.6210  207.7450  151.8700 C   0  0  0  0  0  0  0  0  0  0  0  0
  161.6500  204.1830  147.5520 C   0  0  0  0  0  2  0  0  0  0  0  0
  161.8760  203.5840  150.9680 O   0  0  0  0  0  0  0  0  0  0  0  0
  161.2340  200.8580  148.9880 C   0  0  0  0  0  2  0  0  0  0  0  0
  161.2900  207.0450  149.1530 C   0  0  0  0  0  0  0  0  0  0  0  0
  160.7280  202.5130  146.1160 O   0  0  0  0  0  1  0  0  0  0  0  0
  160.9970  203.2090  152.0020 C   0  0  2  0  0  3  0  0  0  0  0  0
  161.8910  208.2780  149.5000 C   0  0  0  0  0  0  0  0  0  0  0  0
  162.3310  209.1540  153.5670 O   0  0  0  0  0  0  0  0  0  0  0  0
  160.8290  202.7140  150.6180 C   0  0  2  0  0  3  0  0  0  0  0  0
  161.4150  201.3290  150.4280 C   0  0  0  0  0  2  0  0  0  0  0  0
  161.9720  201.7540  148.0000 C   0  0  0  0  0  2  0  0  0  0  0  0
  161.5070  207.3310  146.7880 O   0  0  0  0  0  0  0  0  0  0  0  0
  160.5750  205.2490  147.4220 C   0  0  0  0  0  2  0  0  0  0  0  0
  161.3930  207.1900  154.1850 N   0  0  0  0  0  0  0  0  0  0  0  0
  160.8480  206.1950  150.1760 C   0  0  0  0  0  3  0  0  0  0  0  0
  160.6070  205.6360  152.5450 C   0  0  1  0  0  3  0  0  0  0  0  0
  162.0460  208.6130  150.8560 C   0  0  0  0  0  3  0  0  0  0  0  0
  162.2790  210.5690  148.6360 C   0  0  0  0  0  1  0  0  0  0  0  0
  162.3310  209.1550  148.5010 O   0  0  0  0  0  0  0  0  0  0  0  0
  1 12  1  6  0  0  0
  1  8  1  0  0  0  0
  1 18  1  0  0  0  0
  2 11  1  0  0  0  0
  3 15  2  0  0  0  0
  3 21  1  0  0  0  0
  4 21  2  0  0  0  0
  5  7  1  0  0  0  0
  5 23  1  0  0  0  0
  7  3  1  0  0  0  0
  9 13  1  0  0  0  0
 10 17  1  0  0  0  0
 11 14  2  0  0  0  0
 11 22  1  0  0  0  0
 13  6  1  6  0  0  0
 14 24  1  0  0  0  0
 16 17  1  1  0  0  0
 16  9  1  0  0  0  0
 16 13  1  0  0  0  0
 18 10  1  0  0  0  0
 19  2  2  0  0  0  0
 20  8  1  0  0  0  0
 20  2  1  0  0  0  0
 22  5  2  0  0  0  0
 23  6  1  6  0  0  0
 23  4  1  0  0  0  0
 24  7  2  0  0  0  0
 26 25  1  0  0  0  0
 26 14  1  0  0  0  0
M  END
>  <MODEL>
7

>  <REMARK>
 VINA RESULT:      -6.6      2.060      4.456
  Name = 
  1 active torsions:
  status: ('A' for Active; 'I' for Inactive)
    1  A    between atoms: O_10  and  C_16
                            x       y       z     vdW  Elec       q    Type
                         _______ _______ _______ _____ _____    ______ ____

>  <TORSDO>
F 1

$$$$
=
 OpenBabel11072414403D

 26 29  0  0  1  0  0  0  0  0999 V2000
  160.3060  213.5260  150.1420 C   0  0  1  0  0  3  0  0  0  0  0  0
  162.1350  210.2830  149.3430 C   0  0  0  0  0  0  0  0  0  0  0  0
  161.1500  206.4680  153.4810 C   0  0  0  0  0  0  0  0  0  0  0  0
  160.7330  208.2510  155.0000 C   0  0  0  0  0  3  0  0  0  0  0  0
  161.3610  208.7640  152.7240 C   0  0  0  0  0  0  0  0  0  0  0  0
  160.9030  210.6590  154.3620 C   0  0  0  0  0  2  0  0  0  0  0  0
  161.4270  207.3820  152.4520 C   0  0  0  0  0  0  0  0  0  0  0  0
  160.4900  212.1150  149.6130 C   0  0  0  0  0  2  0  0  0  0  0  0
  159.2350  211.0350  152.6680 O   0  0  0  0  0  0  0  0  0  0  0  0
  158.7710  214.3510  151.9220 C   0  0  0  0  0  2  0  0  0  0  0  0
  161.9330  209.2530  150.3960 C   0  0  0  0  0  0  0  0  0  0  0  0
  160.6900  214.4530  149.1740 O   0  0  0  0  0  1  0  0  0  0  0  0
  159.5330  211.2430  154.0280 C   0  0  2  0  0  3  0  0  0  0  0  0
  162.0090  207.8660  150.1280 C   0  0  0  0  0  0  0  0  0  0  0  0
  161.2070  205.2270  153.2740 O   0  0  0  0  0  0  0  0  0  0  0  0
  159.7170  212.3080  153.0170 C   0  0  2  0  0  3  0  0  0  0  0  0
  158.5510  213.2760  152.9830 C   0  0  0  0  0  2  0  0  0  0  0  0
  158.8530  213.7560  150.5210 C   0  0  0  0  0  2  0  0  0  0  0  0
  162.4270  209.9550  148.1630 O   0  0  0  0  0  0  0  0  0  0  0  0
  161.9620  211.7380  149.6500 C   0  0  0  0  0  2  0  0  0  0  0  0
  160.8120  206.9240  154.7170 N   0  0  0  0  0  0  0  0  0  0  0  0
  161.6250  209.6760  151.6960 C   0  0  0  0  0  3  0  0  0  0  0  0
  161.0060  209.2020  154.0150 C   0  0  1  0  0  3  0  0  0  0  0  0
  161.7570  206.9480  151.1620 C   0  0  0  0  0  3  0  0  0  0  0  0
  161.4090  206.7020  148.0230 C   0  0  0  0  0  1  0  0  0  0  0  0
  162.3280  207.4120  148.8420 O   0  0  0  0  0  0  0  0  0  0  0  0
  1 12  1  6  0  0  0
  1 18  1  0  0  0  0
  2 20  1  0  0  0  0
  2 11  1  0  0  0  0
  3 21  1  0  0  0  0
  5 23  1  0  0  0  0
  7  5  1  0  0  0  0
  7  3  1  0  0  0  0
  8 20  1  0  0  0  0
  8  1  1  0  0  0  0
  9 16  1  0  0  0  0
  9 13  1  0  0  0  0
 10 17  1  0  0  0  0
 11 22  1  0  0  0  0
 13  6  1  6  0  0  0
 14 11  2  0  0  0  0
 14 24  1  0  0  0  0
 15  3  2  0  0  0  0
 16 17  1  1  0  0  0
 16 13  1  0  0  0  0
 18 10  1  0  0  0  0
 19  2  2  0  0  0  0
 21  4  2  0  0  0  0
 22  5  2  0  0  0  0
 23  6  1  6  0  0  0
 23  4  1  0  0  0  0
 24  7  2  0  0  0  0
 25 26  1  0  0  0  0
 26 14  1  0  0  0  0
M  END
>  <MODEL>
8

>  <REMARK>
 VINA RESULT:      -6.6      2.822      7.664
  Name = 
  1 active torsions:
  status: ('A' for Active; 'I' for Inactive)
    1  A    between atoms: O_10  and  C_16
                            x       y       z     vdW  Elec       q    Type
                         _______ _______ _______ _____ _____    ______ ____

>  <TORSDO>
F 1

$$$$
=
 OpenBabel11072414403D

 26 29  0  0  1  0  0  0  0  0999 V2000
  160.9920  206.6400  153.1700 C   0  0  1  0  0  3  0  0  0  0  0  0
  160.4670  203.5020  151.0800 C   0  0  0  0  0  0  0  0  0  0  0  0
  162.0940  204.5020  145.6950 C   0  0  0  0  0  0  0  0  0  0  0  0
  161.6890  206.8230  146.0230 C   0  0  0  0  0  3  0  0  0  0  0  0
  161.2380  205.2810  147.8280 C   0  0  0  0  0  0  0  0  0  0  0  0
  160.8170  207.7700  148.1630 C   0  0  0  0  0  2  0  0  0  0  0  0
  161.6710  204.2210  147.0040 C   0  0  0  0  0  0  0  0  0  0  0  0
  161.3590  205.3380  152.4800 C   0  0  0  0  0  2  0  0  0  0  0  0
  162.4780  207.3030  149.8420 O   0  0  0  0  0  0  0  0  0  0  0  0
  161.9130  208.9260  152.8090 C   0  0  0  0  0  2  0  0  0  0  0  0
  160.8550  203.7040  149.6590 C   0  0  0  0  0  0  0  0  0  0  0  0
  160.4560  206.3770  154.4310 O   0  0  0  0  0  1  0  0  0  0  0  0
  161.9480  208.3220  149.0270 C   0  0  2  0  0  3  0  0  0  0  0  0
  161.2800  202.6410  148.8270 C   0  0  0  0  0  0  0  0  0  0  0  0
  162.4810  203.5780  144.9300 O   0  0  0  0  0  0  0  0  0  0  0  0
  161.5590  208.1760  150.4470 C   0  0  2  0  0  3  0  0  0  0  0  0
  162.3320  209.1130  151.3540 C   0  0  0  0  0  2  0  0  0  0  0  0
  162.2220  207.5210  153.3130 C   0  0  0  0  0  2  0  0  0  0  0  0
  160.4610  202.3510  151.5920 O   0  0  0  0  0  0  0  0  0  0  0  0
  160.1050  204.6640  151.9500 C   0  0  0  0  0  2  0  0  0  0  0  0
  162.0930  205.7850  145.2440 N   0  0  0  0  0  0  0  0  0  0  0  0
  160.8280  205.0040  149.1360 C   0  0  0  0  0  3  0  0  0  0  0  0
  161.2510  206.5980  147.3300 C   0  0  1  0  0  3  0  0  0  0  0  0
  161.6810  202.9150  147.5080 C   0  0  0  0  0  3  0  0  0  0  0  0
  161.5810  200.2030  148.4930 C   0  0  0  0  0  1  0  0  0  0  0  0
  161.3060  201.3290  149.3160 O   0  0  0  0  0  0  0  0  0  0  0  0
  1 18  1  0  0  0  0
  1 12  1  1  0  0  0
  2 19  2  0  0  0  0
  2 20  1  0  0  0  0
  3  7  1  0  0  0  0
  5 22  1  0  0  0  0
  7 24  1  0  0  0  0
  7  5  2  0  0  0  0
  8  1  1  0  0  0  0
  9 16  1  0  0  0  0
 10 18  1  0  0  0  0
 11  2  1  0  0  0  0
 13  6  1  6  0  0  0
 13  9  1  0  0  0  0
 13 16  1  0  0  0  0
 14 26  1  0  0  0  0
 14 11  1  0  0  0  0
 15  3  2  0  0  0  0
 16 17  1  1  0  0  0
 17 10  1  0  0  0  0
 20  8  1  0  0  0  0
 21  3  1  0  0  0  0
 21  4  2  0  0  0  0
 22 11  2  0  0  0  0
 23  4  1  1  0  0  0
 23  5  1  0  0  0  0
 23  6  1  0  0  0  0
 24 14  2  0  0  0  0
 25 26  1  0  0  0  0
M  END
>  <MODEL>
9

>  <REMARK>
 VINA RESULT:      -6.6      1.980      5.807
  Name = 
  1 active torsions:
  status: ('A' for Active; 'I' for Inactive)
    1  A    between atoms: O_10  and  C_16
                            x       y       z     vdW  Elec       q    Type
                         _______ _______ _______ _____ _____    ______ ____

>  <TORSDO>
F 1

$$$$
