=
 OpenBabel11072411173D

 28 31  0  0  1  0  0  0  0  0999 V2000
  161.1020  203.5860  151.7280 C   0  0  0  0  0  0  0  0  0  0  0  0
  160.7820  203.2330  149.3260 C   0  0  0  0  0  3  0  0  0  0  0  0
  160.8760  204.0980  150.4070 C   0  0  0  0  0  0  0  0  0  0  0  0
  160.7820  205.4630  150.5010 C   0  0  0  0  0  0  0  0  0  0  0  0
  160.9360  205.7830  151.8460 C   0  0  0  0  0  0  0  0  0  0  0  0
  161.1350  201.3830  150.8200 C   0  0  0  0  0  3  0  0  0  0  0  0
  160.9160  201.8950  149.5650 N   0  0  0  0  0  0  0  0  0  0  0  0
  161.1370  204.6360  152.6240 C   0  0  0  0  0  2  0  0  0  0  0  0
  161.2330  202.2220  151.9450 C   0  0  0  0  0  3  0  0  0  0  0  0
  160.8700  207.1160  152.3590 N   0  0  0  0  0  2  0  0  0  0  0  0
  161.7320  209.7290  152.9850 N   0  0  0  0  0  2  0  0  0  0  0  0
  160.2680  208.7920  156.1160 N   0  0  0  0  0  2  0  0  0  0  0  0
  160.3220  206.8010  154.7040 C   0  0  0  0  0  2  0  0  0  0  0  0
  161.2900  208.9610  153.9130 C   0  0  0  0  0  0  0  0  0  0  0  0
  160.5380  207.3560  156.1100 C   0  0  0  0  0  2  0  0  0  0  0  0
  161.2950  209.4680  155.3260 C   0  0  0  0  0  2  0  0  0  0  0  0
  161.2790  207.4630  153.7140 C   0  0  2  0  0  3  0  0  0  0  0  0
  160.4940  206.4160  149.3870 C   0  0  0  0  0  2  0  0  0  0  0  0
  161.7570  206.6960  148.5770 C   0  0  1  0  0  3  0  0  0  0  0  0
  162.4910  204.8890  145.3050 C   0  0  0  0  0  3  0  0  0  0  0  0
  162.6300  205.3600  146.6130 C   0  0  0  0  0  3  0  0  0  0  0  0
  161.3620  205.2310  144.5550 C   0  0  0  0  0  3  0  0  0  0  0  0
  160.3720  206.0440  145.1120 C   0  0  0  0  0  3  0  0  0  0  0  0
  160.5090  206.5170  146.4220 C   0  0  0  0  0  3  0  0  0  0  0  0
  161.6370  206.1780  147.1770 C   0  0  0  0  0  0  0  0  0  0  0  0
  161.5290  208.9970  149.5170 O   0  0  0  0  0  1  0  0  0  0  0  0
  163.0020  208.6000  147.8080 O   0  0  0  0  0  0  0  0  0  0  0  0
  162.1350  208.1470  148.6020 C   0  0  0  0  0  0  0  0  0  0  0  0
  1  9  1  0  0  0  0
  1  8  1  0  0  0  0
  2  7  2  0  0  0  0
  2  3  1  0  0  0  0
  3  4  1  0  0  0  0
  3  1  2  0  0  0  0
  4  5  2  0  0  0  0
  5 10  1  0  0  0  0
  5  8  1  0  0  0  0
  6  9  2  0  0  0  0
  7  6  1  0  0  0  0
 11 14  2  0  0  0  0
 13 15  1  0  0  0  0
 14 16  1  0  0  0  0
 15 12  1  0  0  0  0
 16 12  1  0  0  0  0
 17 10  1  6  0  0  0
 17 14  1  0  0  0  0
 17 13  1  0  0  0  0
 18  4  1  0  0  0  0
 19 28  1  0  0  0  0
 19 18  1  6  0  0  0
 20 21  1  0  0  0  0
 21 25  2  0  0  0  0
 22 23  1  0  0  0  0
 22 20  2  0  0  0  0
 23 24  2  0  0  0  0
 24 25  1  0  0  0  0
 25 19  1  0  0  0  0
 27 28  2  0  0  0  0
 28 26  1  0  0  0  0
M  END
>  <MODEL>
1

>  <REMARK>
 VINA RESULT:      -8.6      0.000      0.000
  Name = 
  6 active torsions:
  status: ('A' for Active; 'I' for Inactive)
    1  A    between atoms: C_7  and  C_24
    2  A    between atoms: C_10  and  C_11
    3  A    between atoms: C_10  and  C_24
    4  A    between atoms: C_10  and  C_28
    5  A    between atoms: C_12  and  N_23
    6  A    between atoms: N_23  and  C_27
                            x       y       z     vdW  Elec       q    Type
                         _______ _______ _______ _____ _____    ______ ____

>  <TORSDO>
F 6

$$$$
=
 OpenBabel11072411173D

 28 31  0  0  1  0  0  0  0  0999 V2000
  161.0300  205.2180  152.5140 C   0  0  0  0  0  0  0  0  0  0  0  0
  161.2500  207.5250  151.7220 C   0  0  0  0  0  3  0  0  0  0  0  0
  160.9380  206.1970  151.4680 C   0  0  0  0  0  0  0  0  0  0  0  0
  160.5310  205.5500  150.3300 C   0  0  0  0  0  0  0  0  0  0  0  0
  160.3860  204.2070  150.6620 C   0  0  0  0  0  0  0  0  0  0  0  0
  161.7320  206.9410  154.0030 C   0  0  0  0  0  3  0  0  0  0  0  0
  161.6390  207.8600  152.9880 N   0  0  0  0  0  2  0  0  0  0  0  0
  160.6890  203.9790  152.0100 C   0  0  0  0  0  3  0  0  0  0  0  0
  161.4290  205.5830  153.7920 C   0  0  0  0  0  3  0  0  0  0  0  0
  160.0010  203.1940  149.7290 N   0  0  0  0  0  2  0  0  0  0  0  0
  161.2480  200.7340  150.3250 N   0  0  0  0  0  2  0  0  0  0  0  0
  161.0650  200.4890  146.7570 N   0  0  0  0  0  2  0  0  0  0  0  0
  160.3980  202.7550  147.3730 C   0  0  0  0  0  2  0  0  0  0  0  0
  161.1460  201.1220  149.1060 C   0  0  0  0  0  0  0  0  0  0  0  0
  161.1940  201.8980  146.3920 C   0  0  0  0  0  2  0  0  0  0  0  0
  161.7490  200.2660  148.0290 C   0  0  0  0  0  2  0  0  0  0  0  0
  160.9370  202.5850  148.7930 C   0  0  2  0  0  3  0  0  0  0  0  0
  160.3510  206.1560  148.9760 C   0  0  0  0  0  2  0  0  0  0  0  0
  161.6980  206.3280  148.2780 C   0  0  1  0  0  3  0  0  0  0  0  0
  162.5840  204.8820  144.8670 C   0  0  0  0  0  3  0  0  0  0  0  0
  162.6810  205.2450  146.2130 C   0  0  0  0  0  3  0  0  0  0  0  0
  161.4340  205.1980  144.1390 C   0  0  0  0  0  3  0  0  0  0  0  0
  160.3800  205.8760  144.7560 C   0  0  0  0  0  3  0  0  0  0  0  0
  160.4750  206.2410  146.1030 C   0  0  0  0  0  3  0  0  0  0  0  0
  161.6240  205.9280  146.8370 C   0  0  0  0  0  0  0  0  0  0  0  0
  161.3880  208.8010  148.4070 O   0  0  0  0  0  0  0  0  0  0  0  0
  163.4820  207.8980  148.6230 O   0  0  0  0  0  1  0  0  0  0  0  0
  162.2480  207.7130  148.4430 C   0  0  0  0  0  0  0  0  0  0  0  0
  1  9  1  0  0  0  0
  2  7  1  0  0  0  0
  3  2  2  0  0  0  0
  3  1  1  0  0  0  0
  4  5  2  0  0  0  0
  4  3  1  0  0  0  0
  5  8  1  0  0  0  0
  7  6  1  0  0  0  0
  8  1  2  0  0  0  0
  9  6  2  0  0  0  0
 10  5  1  0  0  0  0
 12 16  1  0  0  0  0
 13 17  1  0  0  0  0
 14 11  2  0  0  0  0
 15 12  1  0  0  0  0
 15 13  1  0  0  0  0
 16 14  1  0  0  0  0
 17 14  1  0  0  0  0
 17 10  1  1  0  0  0
 18  4  1  0  0  0  0
 19 28  1  0  0  0  0
 19 18  1  6  0  0  0
 20 21  1  0  0  0  0
 21 25  2  0  0  0  0
 22 23  1  0  0  0  0
 22 20  2  0  0  0  0
 23 24  2  0  0  0  0
 24 25  1  0  0  0  0
 25 19  1  0  0  0  0
 26 28  2  0  0  0  0
 28 27  1  0  0  0  0
M  END
>  <MODEL>
2

>  <REMARK>
 VINA RESULT:      -7.7      1.413      5.609
  Name = 
  6 active torsions:
  status: ('A' for Active; 'I' for Inactive)
    1  A    between atoms: C_7  and  C_24
    2  A    between atoms: C_10  and  C_11
    3  A    between atoms: C_10  and  C_24
    4  A    between atoms: C_10  and  C_28
    5  A    between atoms: C_12  and  N_23
    6  A    between atoms: N_23  and  C_27
                            x       y       z     vdW  Elec       q    Type
                         _______ _______ _______ _____ _____    ______ ____

>  <TORSDO>
F 6

$$$$
=
 OpenBabel11072411173D

 28 31  0  0  1  0  0  0  0  0999 V2000
  161.9120  209.1290  149.9830 C   0  0  0  0  0  0  0  0  0  0  0  0
  161.8490  208.4570  152.3370 C   0  0  0  0  0  3  0  0  0  0  0  0
  162.0440  208.1280  151.0030 C   0  0  0  0  0  0  0  0  0  0  0  0
  162.3570  206.9450  150.3850 C   0  0  0  0  0  0  0  0  0  0  0  0
  162.4060  207.2070  149.0200 C   0  0  0  0  0  0  0  0  0  0  0  0
  161.4040  210.7250  151.6780 C   0  0  0  0  0  3  0  0  0  0  0  0
  161.5340  209.7520  152.6370 N   0  0  0  0  0  2  0  0  0  0  0  0
  162.1350  208.5530  148.7480 C   0  0  0  0  0  3  0  0  0  0  0  0
  161.5890  210.4380  150.3130 C   0  0  0  0  0  3  0  0  0  0  0  0
  162.6750  206.2120  148.0280 N   0  0  0  0  0  2  0  0  0  0  0  0
  163.7560  204.6050  145.9760 N   0  0  0  0  0  2  0  0  0  0  0  0
  160.3750  204.8820  144.8300 N   0  0  0  0  0  2  0  0  0  0  0  0
  160.6390  206.4070  146.7180 C   0  0  0  0  0  2  0  0  0  0  0  0
  162.5730  205.0860  145.8560 C   0  0  0  0  0  0  0  0  0  0  0  0
  160.0400  206.2150  145.3270 C   0  0  0  0  0  2  0  0  0  0  0  0
  161.8150  204.8170  144.5890 C   0  0  0  0  0  2  0  0  0  0  0  0
  162.1620  206.2940  146.6670 C   0  0  2  0  0  3  0  0  0  0  0  0
  162.5360  205.6160  151.0430 C   0  0  0  0  0  2  0  0  0  0  0  0
  161.1920  204.9100  151.2090 C   0  0  1  0  0  3  0  0  0  0  0  0
  160.8940  202.5780  148.2120 C   0  0  0  0  0  3  0  0  0  0  0  0
  160.9620  203.7490  148.9730 C   0  0  0  0  0  3  0  0  0  0  0  0
  160.9750  201.3310  148.8380 C   0  0  0  0  0  3  0  0  0  0  0  0
  161.1260  201.2540  150.2250 C   0  0  0  0  0  3  0  0  0  0  0  0
  161.1950  202.4230  150.9880 C   0  0  0  0  0  3  0  0  0  0  0  0
  161.1130  203.6750  150.3670 C   0  0  0  0  0  0  0  0  0  0  0  0
  161.3240  205.4940  153.6320 O   0  0  0  0  0  1  0  0  0  0  0  0
  160.2040  203.6090  152.9690 O   0  0  0  0  0  0  0  0  0  0  0  0
  160.8770  204.6250  152.6470 C   0  0  0  0  0  0  0  0  0  0  0  0
  1  9  1  0  0  0  0
  1  3  1  0  0  0  0
  2  7  1  0  0  0  0
  3  2  2  0  0  0  0
  4  3  1  0  0  0  0
  4 18  1  0  0  0  0
  5  4  2  0  0  0  0
  6  7  1  0  0  0  0
  8  5  1  0  0  0  0
  8  1  2  0  0  0  0
  9  6  2  0  0  0  0
 10  5  1  0  0  0  0
 12 15  1  0  0  0  0
 14 11  2  0  0  0  0
 14 17  1  0  0  0  0
 15 13  1  0  0  0  0
 16 12  1  0  0  0  0
 16 14  1  0  0  0  0
 17 13  1  0  0  0  0
 17 10  1  1  0  0  0
 19 18  1  1  0  0  0
 19 28  1  0  0  0  0
 20 22  2  0  0  0  0
 20 21  1  0  0  0  0
 21 25  2  0  0  0  0
 22 23  1  0  0  0  0
 23 24  2  0  0  0  0
 25 24  1  0  0  0  0
 25 19  1  0  0  0  0
 28 27  2  0  0  0  0
 28 26  1  0  0  0  0
M  END
>  <MODEL>
3

>  <REMARK>
 VINA RESULT:      -7.4      2.682      6.989
  Name = 
  6 active torsions:
  status: ('A' for Active; 'I' for Inactive)
    1  A    between atoms: C_7  and  C_24
    2  A    between atoms: C_10  and  C_11
    3  A    between atoms: C_10  and  C_24
    4  A    between atoms: C_10  and  C_28
    5  A    between atoms: C_12  and  N_23
    6  A    between atoms: N_23  and  C_27
                            x       y       z     vdW  Elec       q    Type
                         _______ _______ _______ _____ _____    ______ ____

>  <TORSDO>
F 6

$$$$
=
 OpenBabel11072411173D

 28 31  0  0  1  0  0  0  0  0999 V2000
  161.4850  207.4480  148.9960 C   0  0  0  0  0  0  0  0  0  0  0  0
  161.2750  206.2760  151.1360 C   0  0  0  0  0  3  0  0  0  0  0  0
  161.4800  207.4540  150.4310 C   0  0  1  0  0  3  0  0  0  0  0  0
  161.7090  208.7420  150.8410 C   0  0  0  0  0  0  0  0  0  0  0  0
  161.8620  209.5080  149.6900 C   0  0  0  0  0  0  0  0  0  0  0  0
  161.0770  205.1010  149.0480 C   0  0  0  0  0  3  0  0  0  0  0  0
  161.0780  205.1290  150.4210 N   0  0  0  0  0  0  0  0  0  0  0  0
  161.7260  208.7270  148.5360 C   0  0  0  0  0  3  0  0  0  0  0  0
  161.2840  206.2690  148.2920 C   0  0  0  0  0  3  0  0  0  0  0  0
  162.1460  210.9090  149.6990 N   0  0  0  0  0  2  0  0  0  0  0  0
  160.2960  213.0130  150.0380 N   0  0  0  0  0  2  0  0  0  0  0  0
  162.4230  214.4530  147.5430 N   0  0  0  0  0  2  0  0  0  0  0  0
  163.0800  212.1170  147.8100 C   0  0  0  0  0  2  0  0  0  0  0  0
  161.1530  213.0610  149.0850 C   0  0  0  0  0  0  0  0  0  0  0  0
  162.8260  213.2500  146.8190 C   0  0  0  0  0  2  0  0  0  0  0  0
  161.1070  214.2260  148.1390 C   0  0  0  0  0  2  0  0  0  0  0  0
  161.8080  211.7910  148.5910 C   0  0  2  0  0  3  0  0  0  0  0  0
  161.8430  209.2180  152.2510 C   0  0  0  0  0  2  0  0  0  0  0  0
  160.4710  209.3950  152.8940 C   0  0  1  0  0  3  0  0  0  0  0  0
  160.0790  209.0910  156.6710 C   0  0  0  0  0  3  0  0  0  0  0  0
  160.1020  209.6400  155.3860 C   0  0  0  0  0  3  0  0  0  0  0  0
  160.3910  207.7430  156.8620 C   0  0  0  0  0  3  0  0  0  0  0  0
  160.7260  206.9410  155.7680 C   0  0  0  0  0  3  0  0  0  0  0  0
  160.7490  207.4870  154.4800 C   0  0  0  0  0  3  0  0  0  0  0  0
  160.4390  208.8370  154.2840 C   0  0  0  0  0  0  0  0  0  0  0  0
  158.6730  211.1020  152.6040 O   0  0  0  0  0  0  0  0  0  0  0  0
  160.8180  211.7650  153.0610 O   0  0  0  0  0  1  0  0  0  0  0  0
  160.0080  210.8210  152.8570 C   0  0  0  0  0  0  0  0  0  0  0  0
  1  3  1  0  0  0  0
  3  4  1  0  0  0  0
  3  2  1  1  0  0  0
  4 18  1  0  0  0  0
  5 10  1  0  0  0  0
  5  4  2  0  0  0  0
  6  7  1  0  0  0  0
  7  2  2  0  0  0  0
  8  1  2  0  0  0  0
  8  5  1  0  0  0  0
  9  1  1  0  0  0  0
  9  6  2  0  0  0  0
 12 16  1  0  0  0  0
 13 17  1  0  0  0  0
 14 11  2  0  0  0  0
 15 12  1  0  0  0  0
 15 13  1  0  0  0  0
 16 14  1  0  0  0  0
 17 14  1  0  0  0  0
 17 10  1  1  0  0  0
 19 18  1  1  0  0  0
 19 25  1  0  0  0  0
 20 22  1  0  0  0  0
 21 20  2  0  0  0  0
 23 22  2  0  0  0  0
 24 23  1  0  0  0  0
 25 24  2  0  0  0  0
 25 21  1  0  0  0  0
 26 28  2  0  0  0  0
 28 19  1  0  0  0  0
 28 27  1  0  0  0  0
M  END
>  <MODEL>
4

>  <REMARK>
 VINA RESULT:      -7.3      3.253      7.285
  Name = 
  6 active torsions:
  status: ('A' for Active; 'I' for Inactive)
    1  A    between atoms: C_7  and  C_24
    2  A    between atoms: C_10  and  C_11
    3  A    between atoms: C_10  and  C_24
    4  A    between atoms: C_10  and  C_28
    5  A    between atoms: C_12  and  N_23
    6  A    between atoms: N_23  and  C_27
                            x       y       z     vdW  Elec       q    Type
                         _______ _______ _______ _____ _____    ______ ____

>  <TORSDO>
F 6

$$$$
=
 OpenBabel11072411173D

 28 31  0  0  1  0  0  0  0  0999 V2000
  160.9760  203.5670  149.7540 C   0  0  0  0  0  0  0  0  0  0  0  0
  161.1990  204.0600  152.1420 C   0  0  0  0  0  3  0  0  0  0  0  0
  161.3630  204.4460  150.8190 C   0  0  0  0  0  0  0  0  0  0  0  0
  161.8680  205.5870  150.2520 C   0  0  0  0  0  0  0  0  0  0  0  0
  161.8040  205.4120  148.8730 C   0  0  0  0  0  0  0  0  0  0  0  0
  160.2810  201.9720  151.3830 C   0  0  0  0  0  3  0  0  0  0  0  0
  160.6600  202.8290  152.3860 N   0  0  0  0  0  2  0  0  0  0  0  0
  161.2540  204.1680  148.5430 C   0  0  0  0  0  3  0  0  0  0  0  0
  160.4320  202.3200  150.0280 C   0  0  0  0  0  3  0  0  0  0  0  0
  162.2690  206.3770  147.9270 N   0  0  0  0  0  2  0  0  0  0  0  0
  163.7630  204.7030  146.2150 N   0  0  0  0  0  2  0  0  0  0  0  0
  160.5830  204.5900  144.5720 N   0  0  0  0  0  2  0  0  0  0  0  0
  160.4460  206.2850  146.3240 C   0  0  0  0  0  2  0  0  0  0  0  0
  162.5800  205.0690  145.8810 C   0  0  0  0  0  0  0  0  0  0  0  0
  160.0810  205.9260  144.8860 C   0  0  0  0  0  2  0  0  0  0  0  0
  162.0440  204.6300  144.5490 C   0  0  0  0  0  2  0  0  0  0  0  0
  161.9630  206.3000  146.5040 C   0  0  2  0  0  3  0  0  0  0  0  0
  162.4460  206.7610  150.9740 C   0  0  0  0  0  2  0  0  0  0  0  0
  161.4470  207.9150  151.0140 C   0  0  1  0  0  3  0  0  0  0  0  0
  160.0810  209.7390  154.0670 C   0  0  0  0  0  3  0  0  0  0  0  0
  160.4630  209.4720  152.7490 C   0  0  0  0  0  3  0  0  0  0  0  0
  160.2640  208.7710  155.0580 C   0  0  0  0  0  3  0  0  0  0  0  0
  160.8270  207.5340  154.7310 C   0  0  0  0  0  3  0  0  0  0  0  0
  161.2100  207.2650  153.4130 C   0  0  0  0  0  3  0  0  0  0  0  0
  161.0300  208.2310  152.4170 C   0  0  0  0  0  0  0  0  0  0  0  0
  162.7040  210.0700  150.9910 O   0  0  0  0  0  1  0  0  0  0  0  0
  161.7190  209.3000  149.0710 O   0  0  0  0  0  0  0  0  0  0  0  0
  161.9560  209.1290  150.2980 C   0  0  0  0  0  0  0  0  0  0  0  0
  1  9  1  0  0  0  0
  1  3  1  0  0  0  0
  2  7  1  0  0  0  0
  3  2  2  0  0  0  0
  4  3  1  0  0  0  0
  4 18  1  0  0  0  0
  5  4  2  0  0  0  0
  6  7  1  0  0  0  0
  8  5  1  0  0  0  0
  8  1  2  0  0  0  0
  9  6  2  0  0  0  0
 10  5  1  0  0  0  0
 12 15  1  0  0  0  0
 13 17  1  0  0  0  0
 14 11  2  0  0  0  0
 14 17  1  0  0  0  0
 15 13  1  0  0  0  0
 16 12  1  0  0  0  0
 16 14  1  0  0  0  0
 17 10  1  1  0  0  0
 19 18  1  1  0  0  0
 19 25  1  0  0  0  0
 20 22  1  0  0  0  0
 21 20  2  0  0  0  0
 23 22  2  0  0  0  0
 24 23  1  0  0  0  0
 25 21  1  0  0  0  0
 25 24  2  0  0  0  0
 27 28  2  0  0  0  0
 28 26  1  0  0  0  0
 28 19  1  0  0  0  0
M  END
>  <MODEL>
5

>  <REMARK>
 VINA RESULT:      -7.1      2.274      6.737
  Name = 
  6 active torsions:
  status: ('A' for Active; 'I' for Inactive)
    1  A    between atoms: C_7  and  C_24
    2  A    between atoms: C_10  and  C_11
    3  A    between atoms: C_10  and  C_24
    4  A    between atoms: C_10  and  C_28
    5  A    between atoms: C_12  and  N_23
    6  A    between atoms: N_23  and  C_27
                            x       y       z     vdW  Elec       q    Type
                         _______ _______ _______ _____ _____    ______ ____

>  <TORSDO>
F 6

$$$$
=
 OpenBabel11072411173D

 28 31  0  0  1  0  0  0  0  0999 V2000
  161.3120  209.9880  155.1440 C   0  0  0  0  0  0  0  0  0  0  0  0
  161.1600  207.5620  154.8510 C   0  0  0  0  0  3  0  0  0  0  0  0
  161.0840  208.8400  154.3150 C   0  0  0  0  0  0  0  0  0  0  0  0
  160.8040  209.2900  153.0510 C   0  0  0  0  0  0  0  0  0  0  0  0
  160.8480  210.6800  153.1020 C   0  0  0  0  0  0  0  0  0  0  0  0
  161.6830  208.5270  156.9890 C   0  0  0  0  0  3  0  0  0  0  0  0
  161.4600  207.4420  156.1780 N   0  0  0  0  0  2  0  0  0  0  0  0
  161.1620  211.1330  154.3880 C   0  0  0  0  0  3  0  0  0  0  0  0
  161.6130  209.8400  156.4910 C   0  0  0  0  0  3  0  0  0  0  0  0
  160.5790  211.5250  151.9800 N   0  0  0  0  0  2  0  0  0  0  0  0
  160.5690  213.4260  149.8950 N   0  0  0  0  0  2  0  0  0  0  0  0
  157.2400  213.8560  151.1430 N   0  0  0  0  0  2  0  0  0  0  0  0
  158.4210  212.3840  152.6910 C   0  0  0  0  0  2  0  0  0  0  0  0
  159.5900  213.3780  150.7220 C   0  0  0  0  0  0  0  0  0  0  0  0
  157.4510  213.5550  152.5570 C   0  0  0  0  0  2  0  0  0  0  0  0
  158.4830  214.3830  150.5820 C   0  0  0  0  0  2  0  0  0  0  0  0
  159.7760  212.7360  152.0780 C   0  0  2  0  0  3  0  0  0  0  0  0
  160.4460  208.4540  151.8650 C   0  0  0  0  0  2  0  0  0  0  0  0
  161.6840  207.7610  151.3000 C   0  0  1  0  0  3  0  0  0  0  0  0
  161.6240  203.9830  151.7890 C   0  0  0  0  0  3  0  0  0  0  0  0
  161.8650  205.3410  152.0180 C   0  0  0  0  0  3  0  0  0  0  0  0
  160.9620  203.5760  150.6280 C   0  0  0  0  0  3  0  0  0  0  0  0
  160.5390  204.5270  149.6950 C   0  0  0  0  0  3  0  0  0  0  0  0
  160.7790  205.8860  149.9220 C   0  0  0  0  0  3  0  0  0  0  0  0
  161.4430  206.2990  151.0820 C   0  0  0  0  0  0  0  0  0  0  0  0
  162.8540  207.6830  149.0980 O   0  0  0  0  0  0  0  0  0  0  0  0
  162.0140  209.6670  149.8770 O   0  0  0  0  0  1  0  0  0  0  0  0
  162.1910  208.4320  150.0600 C   0  0  0  0  0  0  0  0  0  0  0  0
  1  9  1  0  0  0  0
  2  7  1  0  0  0  0
  3  2  2  0  0  0  0
  3  1  1  0  0  0  0
  4  5  2  0  0  0  0
  4  3  1  0  0  0  0
  5  8  1  0  0  0  0
  7  6  1  0  0  0  0
  8  1  2  0  0  0  0
  9  6  2  0  0  0  0
 10  5  1  0  0  0  0
 11 14  2  0  0  0  0
 12 15  1  0  0  0  0
 14 17  1  0  0  0  0
 15 13  1  0  0  0  0
 16 14  1  0  0  0  0
 16 12  1  0  0  0  0
 17 10  1  6  0  0  0
 17 13  1  0  0  0  0
 18  4  1  0  0  0  0
 19 18  1  6  0  0  0
 20 21  1  0  0  0  0
 22 20  2  0  0  0  0
 23 24  2  0  0  0  0
 23 22  1  0  0  0  0
 24 25  1  0  0  0  0
 25 19  1  0  0  0  0
 25 21  2  0  0  0  0
 26 28  2  0  0  0  0
 27 28  1  0  0  0  0
 28 19  1  0  0  0  0
M  END
>  <MODEL>
6

>  <REMARK>
 VINA RESULT:      -7.0      3.100      5.957
  Name = 
  6 active torsions:
  status: ('A' for Active; 'I' for Inactive)
    1  A    between atoms: C_7  and  C_24
    2  A    between atoms: C_10  and  C_11
    3  A    between atoms: C_10  and  C_24
    4  A    between atoms: C_10  and  C_28
    5  A    between atoms: C_12  and  N_23
    6  A    between atoms: N_23  and  C_27
                            x       y       z     vdW  Elec       q    Type
                         _______ _______ _______ _____ _____    ______ ____

>  <TORSDO>
F 6

$$$$
=
 OpenBabel11072411173D

 28 31  0  0  1  0  0  0  0  0999 V2000
  161.5120  209.3170  154.1720 C   0  0  0  0  0  0  0  0  0  0  0  0
  160.5320  207.0760  154.2890 C   0  0  0  0  0  3  0  0  0  0  0  0
  160.9650  208.1550  153.5320 C   0  0  0  0  0  0  0  0  0  0  0  0
  160.9790  208.3820  152.1800 C   0  0  0  0  0  0  0  0  0  0  0  0
  161.5110  209.6540  151.9920 C   0  0  0  0  0  0  0  0  0  0  0  0
  161.1700  208.2610  156.2810 C   0  0  0  0  0  3  0  0  0  0  0  0
  160.6490  207.1610  155.6480 N   0  0  0  0  0  2  0  0  0  0  0  0
  161.8490  210.2510  153.2130 C   0  0  0  0  0  3  0  0  0  0  0  0
  161.6180  209.3800  155.5550 C   0  0  0  0  0  3  0  0  0  0  0  0
  161.6640  210.2700  150.7110 N   0  0  0  0  0  2  0  0  0  0  0  0
  162.4090  211.4540  148.2600 N   0  0  0  0  0  2  0  0  0  0  0  0
  159.7650  213.6620  149.2360 N   0  0  0  0  0  2  0  0  0  0  0  0
  160.2160  212.1770  151.1200 C   0  0  0  0  0  2  0  0  0  0  0  0
  161.5800  212.0530  149.0350 C   0  0  0  0  0  0  0  0  0  0  0  0
  159.9030  213.6080  150.6900 C   0  0  0  0  0  2  0  0  0  0  0  0
  161.0690  213.4040  148.6280 C   0  0  0  0  0  2  0  0  0  0  0  0
  161.5320  211.7070  150.5050 C   0  0  2  0  0  3  0  0  0  0  0  0
  160.4560  207.4710  151.1180 C   0  0  0  0  0  2  0  0  0  0  0  0
  161.5930  206.6830  150.4730 C   0  0  1  0  0  3  0  0  0  0  0  0
  160.8290  203.1080  149.4030 C   0  0  0  0  0  3  0  0  0  0  0  0
  161.0680  204.4840  149.3380 C   0  0  0  0  0  3  0  0  0  0  0  0
  160.8510  202.4520  150.6360 C   0  0  0  0  0  3  0  0  0  0  0  0
  161.1130  203.1700  151.8060 C   0  0  0  0  0  3  0  0  0  0  0  0
  161.3530  204.5470  151.7430 C   0  0  0  0  0  3  0  0  0  0  0  0
  161.3310  205.2090  150.5110 C   0  0  0  0  0  0  0  0  0  0  0  0
  160.8560  207.3440  148.1830 O   0  0  0  0  0  0  0  0  0  0  0  0
  163.0800  207.4020  148.7300 O   0  0  0  0  0  1  0  0  0  0  0  0
  161.8940  207.1590  149.0840 C   0  0  0  0  0  0  0  0  0  0  0  0
  1  9  1  0  0  0  0
  2  7  1  0  0  0  0
  3  1  1  0  0  0  0
  3  2  2  0  0  0  0
  4  3  1  0  0  0  0
  5  4  2  0  0  0  0
  5  8  1  0  0  0  0
  7  6  1  0  0  0  0
  8  1  2  0  0  0  0
  9  6  2  0  0  0  0
 10  5  1  0  0  0  0
 11 14  2  0  0  0  0
 12 15  1  0  0  0  0
 14 17  1  0  0  0  0
 15 13  1  0  0  0  0
 16 14  1  0  0  0  0
 16 12  1  0  0  0  0
 17 10  1  6  0  0  0
 17 13  1  0  0  0  0
 18  4  1  0  0  0  0
 19 25  1  0  0  0  0
 19 18  1  6  0  0  0
 20 22  1  0  0  0  0
 21 20  2  0  0  0  0
 21 25  1  0  0  0  0
 22 23  2  0  0  0  0
 24 23  1  0  0  0  0
 25 24  2  0  0  0  0
 26 28  2  0  0  0  0
 27 28  1  0  0  0  0
 28 19  1  0  0  0  0
M  END
>  <MODEL>
7

>  <REMARK>
 VINA RESULT:      -7.0      2.752      5.690
  Name = 
  6 active torsions:
  status: ('A' for Active; 'I' for Inactive)
    1  A    between atoms: C_7  and  C_24
    2  A    between atoms: C_10  and  C_11
    3  A    between atoms: C_10  and  C_24
    4  A    between atoms: C_10  and  C_28
    5  A    between atoms: C_12  and  N_23
    6  A    between atoms: N_23  and  C_27
                            x       y       z     vdW  Elec       q    Type
                         _______ _______ _______ _____ _____    ______ ____

>  <TORSDO>
F 6

$$$$
=
 OpenBabel11072411173D

 28 31  0  0  1  0  0  0  0  0999 V2000
  160.7040  211.9090  150.9130 C   0  0  0  0  0  0  0  0  0  0  0  0
  162.1940  211.0220  149.1840 C   0  0  0  0  0  3  0  0  0  0  0  0
  161.5540  210.8700  150.4060 C   0  0  0  0  0  0  0  0  0  0  0  0
  161.5620  209.8550  151.3270 C   0  0  0  0  0  0  0  0  0  0  0  0
  160.7470  210.2610  152.3780 C   0  0  0  0  0  0  0  0  0  0  0  0
  161.1730  213.1860  148.9570 C   0  0  0  0  0  3  0  0  0  0  0  0
  161.9830  212.1810  148.4920 N   0  0  0  0  0  0  0  0  0  0  0  0
  160.2040  211.5290  152.1420 C   0  0  0  0  0  2  0  0  0  0  0  0
  160.5070  213.0780  150.1910 C   0  0  0  0  0  3  0  0  0  0  0  0
  160.5210  209.4810  153.5560 N   0  0  0  0  0  2  0  0  0  0  0  0
  159.6830  208.0520  155.8400 N   0  0  0  0  0  2  0  0  0  0  0  0
  162.7010  209.5130  157.0960 N   0  0  0  0  0  2  0  0  0  0  0  0
  162.2570  210.5060  154.9110 C   0  0  0  0  0  2  0  0  0  0  0  0
  160.6680  208.8700  155.9220 C   0  0  0  0  0  0  0  0  0  0  0  0
  162.7170  210.7650  156.3430 C   0  0  0  0  0  2  0  0  0  0  0  0
  161.3150  209.0790  157.2610 C   0  0  0  0  0  2  0  0  0  0  0  0
  160.8280  209.9670  154.8950 C   0  0  2  0  0  3  0  0  0  0  0  0
  162.3530  208.5890  151.2520 C   0  0  0  0  0  2  0  0  0  0  0  0
  161.4290  207.3740  151.2490 C   0  0  1  0  0  3  0  0  0  0  0  0
  161.8640  206.7020  147.5250 C   0  0  0  0  0  3  0  0  0  0  0  0
  161.9000  207.3490  148.7630 C   0  0  0  0  0  3  0  0  0  0  0  0
  161.3320  205.4140  147.4240 C   0  0  0  0  0  3  0  0  0  0  0  0
  160.8360  204.7710  148.5620 C   0  0  0  0  0  3  0  0  0  0  0  0
  160.8710  205.4170  149.8020 C   0  0  0  0  0  3  0  0  0  0  0  0
  161.4020  206.7080  149.9090 C   0  0  0  0  0  0  0  0  0  0  0  0
  160.8250  206.1360  153.3300 O   0  0  0  0  0  1  0  0  0  0  0  0
  162.8840  205.8310  152.3740 O   0  0  0  0  0  0  0  0  0  0  0  0
  161.7630  206.4070  152.3440 C   0  0  0  0  0  0  0  0  0  0  0  0
  1  8  1  0  0  0  0
  2  3  1  0  0  0  0
  3  1  2  0  0  0  0
  3  4  1  0  0  0  0
  4  5  2  0  0  0  0
  5 10  1  0  0  0  0
  6  9  2  0  0  0  0
  7  6  1  0  0  0  0
  7  2  2  0  0  0  0
  8  5  1  0  0  0  0
  9  1  1  0  0  0  0
 11 14  2  0  0  0  0
 12 16  1  0  0  0  0
 13 15  1  0  0  0  0
 14 16  1  0  0  0  0
 15 12  1  0  0  0  0
 17 10  1  6  0  0  0
 17 13  1  0  0  0  0
 17 14  1  0  0  0  0
 18  4  1  0  0  0  0
 19 18  1  6  0  0  0
 19 28  1  0  0  0  0
 20 21  1  0  0  0  0
 21 25  2  0  0  0  0
 22 20  2  0  0  0  0
 22 23  1  0  0  0  0
 23 24  2  0  0  0  0
 24 25  1  0  0  0  0
 25 19  1  0  0  0  0
 28 27  2  0  0  0  0
 28 26  1  0  0  0  0
M  END
>  <MODEL>
8

>  <REMARK>
 VINA RESULT:      -6.8      2.845      5.572
  Name = 
  6 active torsions:
  status: ('A' for Active; 'I' for Inactive)
    1  A    between atoms: C_7  and  C_24
    2  A    between atoms: C_10  and  C_11
    3  A    between atoms: C_10  and  C_24
    4  A    between atoms: C_10  and  C_28
    5  A    between atoms: C_12  and  N_23
    6  A    between atoms: N_23  and  C_27
                            x       y       z     vdW  Elec       q    Type
                         _______ _______ _______ _____ _____    ______ ____

>  <TORSDO>
F 6

$$$$
=
 OpenBabel11072411173D

 28 31  0  0  1  0  0  0  0  0999 V2000
  161.4740  209.2900  152.1010 C   0  0  0  0  0  0  0  0  0  0  0  0
  161.7930  206.8710  152.3150 C   0  0  0  0  0  3  0  0  0  0  0  0
  161.8170  208.0170  151.5330 C   0  0  0  0  0  0  0  0  0  0  0  0
  162.1150  208.2210  150.2110 C   0  0  0  0  0  0  0  0  0  0  0  0
  161.9510  209.5810  149.9670 C   0  0  0  0  0  0  0  0  0  0  0  0
  161.1100  208.2080  154.1930 C   0  0  0  0  0  3  0  0  0  0  0  0
  161.4400  207.0010  153.6280 N   0  0  0  0  0  2  0  0  0  0  0  0
  161.5550  210.2620  151.1240 C   0  0  0  0  0  3  0  0  0  0  0  0
  161.1170  209.3950  153.4380 C   0  0  0  0  0  3  0  0  0  0  0  0
  162.1400  210.1880  148.6860 N   0  0  0  0  0  2  0  0  0  0  0  0
  164.1680  212.0540  148.0820 N   0  0  0  0  0  2  0  0  0  0  0  0
  161.4660  213.4370  146.1820 N   0  0  0  0  0  2  0  0  0  0  0  0
  160.5530  211.6400  147.5590 C   0  0  0  0  0  2  0  0  0  0  0  0
  162.9590  212.2830  147.7210 C   0  0  0  0  0  0  0  0  0  0  0  0
  160.3340  213.0520  147.0210 C   0  0  0  0  0  2  0  0  0  0  0  0
  162.6520  213.5780  147.0250 C   0  0  0  0  0  2  0  0  0  0  0  0
  161.8150  211.5820  148.4170 C   0  0  2  0  0  3  0  0  0  0  0  0
  162.4740  207.1740  149.2070 C   0  0  0  0  0  2  0  0  0  0  0  0
  161.2250  206.4480  148.7140 C   0  0  1  0  0  3  0  0  0  0  0  0
  160.3120  206.0310  145.0390 C   0  0  0  0  0  3  0  0  0  0  0  0
  160.2040  206.3210  146.4020 C   0  0  0  0  0  3  0  0  0  0  0  0
  161.5210  205.5630  144.5170 C   0  0  0  0  0  3  0  0  0  0  0  0
  162.6230  205.3850  145.3580 C   0  0  0  0  0  3  0  0  0  0  0  0
  162.5170  205.6760  146.7220 C   0  0  0  0  0  3  0  0  0  0  0  0
  161.3090  206.1440  147.2500 C   0  0  0  0  0  0  0  0  0  0  0  0
  159.9860  205.2800  150.5370 O   0  0  0  0  0  1  0  0  0  0  0  0
  161.5200  204.1340  149.2800 O   0  0  0  0  0  0  0  0  0  0  0  0
  160.9280  205.2200  149.5210 C   0  0  0  0  0  0  0  0  0  0  0  0
  1  9  1  0  0  0  0
  2  7  1  0  0  0  0
  3  1  1  0  0  0  0
  3  2  2  0  0  0  0
  4  3  1  0  0  0  0
  5  4  2  0  0  0  0
  5  8  1  0  0  0  0
  7  6  1  0  0  0  0
  8  1  2  0  0  0  0
  9  6  2  0  0  0  0
 10  5  1  0  0  0  0
 12 15  1  0  0  0  0
 12 16  1  0  0  0  0
 13 17  1  0  0  0  0
 14 11  2  0  0  0  0
 14 17  1  0  0  0  0
 15 13  1  0  0  0  0
 16 14  1  0  0  0  0
 17 10  1  6  0  0  0
 18  4  1  0  0  0  0
 19 18  1  1  0  0  0
 19 28  1  0  0  0  0
 20 21  1  0  0  0  0
 21 25  2  0  0  0  0
 22 20  2  0  0  0  0
 22 23  1  0  0  0  0
 23 24  2  0  0  0  0
 24 25  1  0  0  0  0
 25 19  1  0  0  0  0
 27 28  2  0  0  0  0
 28 26  1  0  0  0  0
M  END
>  <MODEL>
9

>  <REMARK>
 VINA RESULT:      -6.8      3.257      5.756
  Name = 
  6 active torsions:
  status: ('A' for Active; 'I' for Inactive)
    1  A    between atoms: C_7  and  C_24
    2  A    between atoms: C_10  and  C_11
    3  A    between atoms: C_10  and  C_24
    4  A    between atoms: C_10  and  C_28
    5  A    between atoms: C_12  and  N_23
    6  A    between atoms: N_23  and  C_27
                            x       y       z     vdW  Elec       q    Type
                         _______ _______ _______ _____ _____    ______ ____

>  <TORSDO>
F 6

$$$$
