=
 OpenBabel11072412163D

 38 41  0  0  1  0  0  0  0  0999 V2000
  159.7910  209.4450  153.9560 N   0  0  0  0  0  2  0  0  0  0  0  0
  157.4580  213.1960  154.9810 O   0  0  0  0  0  0  0  0  0  0  0  0
  157.9100  214.3560  154.3330 C   0  0  0  0  0  2  0  0  0  0  0  0
  159.6390  213.0310  149.1570 C   0  0  0  0  0  2  0  0  0  0  0  0
  162.2760  209.6590  147.9720 C   0  0  0  0  0  1  0  0  0  0  0  0
  156.7040  214.2940  150.2400 C   0  0  0  0  0  0  0  0  0  0  0  0
  158.4740  214.3830  151.8730 C   0  0  0  0  0  0  0  0  0  0  0  0
  159.8260  214.4530  152.1990 O   0  0  0  0  0  1  0  0  0  0  0  0
  160.7930  213.0930  148.1630 C   0  0  2  0  0  3  0  0  0  0  0  0
  156.0110  214.2660  148.9390 C   0  0  0  0  0  3  0  0  0  0  0  0
  158.4980  212.6660  155.7770 C   0  0  1  0  0  3  0  0  0  0  0  0
  161.1930  211.7590  147.7200 N   0  0  0  0  0  0  0  0  0  0  0  0
  160.4530  211.0950  155.6510 C   0  0  0  0  0  2  0  0  0  0  0  0
  159.0760  214.4200  149.4140 C   0  0  0  0  0  2  0  0  0  0  0  0
  159.6400  209.8360  155.3580 C   0  0  2  0  0  3  0  0  0  0  0  0
  161.7230  210.7160  148.5470 C   0  0  0  0  0  0  0  0  0  0  0  0
  162.0140  208.7150  154.0870 O   0  0  0  0  0  0  0  0  0  0  0  0
  157.5000  214.3320  152.8980 C   0  0  0  0  0  0  0  0  0  0  0  0
  161.1630  211.3330  151.2660 C   0  0  0  0  0  2  0  0  0  0  0  0
  161.0850  208.7030  151.6050 S   0  0  0  0  0  0  0  0  0  0  0  0
  161.6530  210.7740  149.9720 N   0  0  0  0  0  0  0  0  0  0  0  0
  154.6170  214.1940  149.2090 O   0  0  0  0  0  0  0  0  0  0  0  0
  156.1340  214.2740  152.5660 C   0  0  0  0  0  3  0  0  0  0  0  0
  161.0050  208.9610  153.3720 C   0  0  0  0  0  0  0  0  0  0  0  0
  154.4410  214.1940  150.6200 C   0  0  0  0  0  3  0  0  0  0  0  0
  162.0050  210.2440  151.3210 C   0  0  1  0  0  3  0  0  0  0  0  0
  155.7810  214.2540  151.2200 C   0  0  0  0  0  0  0  0  0  0  0  0
  159.7880  212.3130  155.0260 C   0  0  0  0  0  2  0  0  0  0  0  0
  158.0720  214.3700  150.5190 C   0  0  0  0  0  0  0  0  0  0  0  0
  159.3300  207.4770  156.1400 O   0  0  0  0  0  0  0  0  0  0  0  0
  160.7530  208.8750  157.2580 O   0  0  0  0  0  1  0  0  0  0  0  0
  159.9670  208.7020  156.2890 C   0  0  0  0  0  0  0  0  0  0  0  0
  161.9740  213.8760  148.6530 C   0  0  0  0  0  0  0  0  0  0  0  0
  163.1230  213.9340  147.8750 O   0  0  0  0  0  0  0  0  0  0  0  0
  161.9510  214.4530  149.7710 O   0  0  0  0  0  1  0  0  0  0  0  0
  158.6850  213.3560  157.1350 C   0  0  0  0  0  2  0  0  0  0  0  0
  160.9140  214.1430  157.1640 O   0  0  0  0  0  0  0  0  0  0  0  0
  159.7290  214.4310  157.1210 C   0  0  0  0  0  3  0  0  0  0  0  0
  1 15  1  0  0  0  0
  2 11  1  0  0  0  0
  3  2  1  0  0  0  0
  4 14  1  0  0  0  0
  5 16  1  0  0  0  0
  6 29  1  0  0  0  0
  6 27  1  0  0  0  0
  7  8  1  0  0  0  0
  7 18  1  0  0  0  0
  9 33  1  1  0  0  0
  9  4  1  0  0  0  0
 10 22  1  0  0  0  0
 10  6  2  0  0  0  0
 11 36  1  1  0  0  0
 12  9  1  0  0  0  0
 12 16  2  0  0  0  0
 14 29  1  0  0  0  0
 15 13  1  0  0  0  0
 15 32  1  1  0  0  0
 16 21  1  0  0  0  0
 18  3  1  0  0  0  0
 20 24  1  0  0  0  0
 21 19  1  0  0  0  0
 21 26  1  0  0  0  0
 22 25  1  0  0  0  0
 23 18  2  0  0  0  0
 24  1  1  0  0  0  0
 24 17  2  0  0  0  0
 25 27  2  0  0  0  0
 26 19  1  1  0  0  0
 26 20  1  0  0  0  0
 27 23  1  0  0  0  0
 28 13  1  0  0  0  0
 28 11  1  0  0  0  0
 29  7  2  0  0  0  0
 30 32  2  0  0  0  0
 32 31  1  0  0  0  0
 33 35  1  0  0  0  0
 34 33  2  0  0  0  0
 38 36  1  0  0  0  0
 38 37  2  0  0  0  0
M  END
>  <MODEL>
1

>  <REMARK>
 VINA RESULT:      -2.6      0.000      0.000
  Name = 
  4 active torsions:
  status: ('A' for Active; 'I' for Inactive)
    1  A    between atoms: C_11  and  C_16
    2  A    between atoms: C_11  and  C_35
    3  A    between atoms: C_12  and  CA_13
    4  A    between atoms: CA_20  and  C_36
                            x       y       z     vdW  Elec       q    Type
                         _______ _______ _______ _____ _____    ______ ____

>  <TORSDO>
F 4

$$$$
=
 OpenBabel11072412163D

 38 41  0  0  1  0  0  0  0  0999 V2000
  159.7790  209.3800  153.5890 N   0  0  0  0  0  2  0  0  0  0  0  0
  157.7460  213.3940  154.1470 O   0  0  0  0  0  0  0  0  0  0  0  0
  158.3430  214.4510  153.4430 C   0  0  0  0  0  2  0  0  0  0  0  0
  160.2660  212.5460  148.5230 C   0  0  0  0  0  2  0  0  0  0  0  0
  162.6470  208.8670  147.7960 C   0  0  0  0  0  1  0  0  0  0  0  0
  157.3990  214.1480  149.2930 C   0  0  0  0  0  0  0  0  0  0  0  0
  159.0620  214.2200  151.0360 C   0  0  0  0  0  0  0  0  0  0  0  0
  160.3920  214.1990  151.4490 O   0  0  0  0  0  1  0  0  0  0  0  0
  161.4810  212.4210  147.6110 C   0  0  2  0  0  3  0  0  0  0  0  0
  156.7900  214.0710  147.9530 C   0  0  0  0  0  3  0  0  0  0  0  0
  158.6790  212.8450  155.0540 C   0  0  1  0  0  3  0  0  0  0  0  0
  161.7830  211.0250  147.3040 N   0  0  0  0  0  0  0  0  0  0  0  0
  160.4830  211.1040  155.1910 C   0  0  0  0  0  2  0  0  0  0  0  0
  159.8190  213.9950  148.6290 C   0  0  0  0  0  2  0  0  0  0  0  0
  159.5760  209.9000  154.9410 C   0  0  2  0  0  3  0  0  0  0  0  0
  162.1590  210.0130  148.2470 C   0  0  0  0  0  0  0  0  0  0  0  0
  161.9110  208.4720  153.9330 O   0  0  0  0  0  0  0  0  0  0  0  0
  158.0250  214.3420  151.9890 C   0  0  0  0  0  0  0  0  0  0  0  0
  161.4890  210.9050  150.8620 C   0  0  0  0  0  2  0  0  0  0  0  0
  161.1440  208.3300  151.4010 S   0  0  0  0  0  0  0  0  0  0  0  0
  162.0050  210.1980  149.6530 N   0  0  0  0  0  0  0  0  0  0  0  0
  155.3810  214.1450  148.1280 O   0  0  0  0  0  0  0  0  0  0  0  0
  156.6830  214.3760  151.5680 C   0  0  0  0  0  3  0  0  0  0  0  0
  160.9770  208.7430  153.1310 C   0  0  0  0  0  0  0  0  0  0  0  0
  155.1170  214.2790  149.5180 C   0  0  0  0  0  3  0  0  0  0  0  0
  162.2200  209.7550  151.0620 C   0  0  1  0  0  3  0  0  0  0  0  0
  156.4160  214.2720  150.2050 C   0  0  0  0  0  0  0  0  0  0  0  0
  159.9750  212.3170  154.4260 C   0  0  0  0  0  2  0  0  0  0  0  0
  158.7470  214.1280  149.6620 C   0  0  0  0  0  0  0  0  0  0  0  0
  160.8510  208.8230  156.8090 O   0  0  0  0  0  1  0  0  0  0  0  0
  158.9110  207.8760  156.0520 O   0  0  0  0  0  0  0  0  0  0  0  0
  159.7360  208.8250  155.9790 C   0  0  0  0  0  0  0  0  0  0  0  0
  162.6970  213.1360  148.1200 C   0  0  0  0  0  0  0  0  0  0  0  0
  163.9540  212.5950  147.8860 O   0  0  0  0  0  0  0  0  0  0  0  0
  162.5930  214.2010  148.7830 O   0  0  0  0  0  1  0  0  0  0  0  0
  158.8440  213.6290  156.3630 C   0  0  0  0  0  2  0  0  0  0  0  0
  156.5270  213.7470  156.8150 O   0  0  0  0  0  0  0  0  0  0  0  0
  157.6460  213.5530  157.2600 C   0  0  0  0  0  3  0  0  0  0  0  0
  1 15  1  0  0  0  0
  2 11  1  0  0  0  0
  3  2  1  0  0  0  0
  4 14  1  0  0  0  0
  5 16  1  0  0  0  0
  6 29  1  0  0  0  0
  6 27  1  0  0  0  0
  7  8  1  0  0  0  0
  7 18  1  0  0  0  0
  9 33  1  1  0  0  0
  9  4  1  0  0  0  0
 10 22  1  0  0  0  0
 10  6  2  0  0  0  0
 11 36  1  1  0  0  0
 12  9  1  0  0  0  0
 12 16  2  0  0  0  0
 14 29  1  0  0  0  0
 15 13  1  0  0  0  0
 15 32  1  1  0  0  0
 16 21  1  0  0  0  0
 18  3  1  0  0  0  0
 20 24  1  0  0  0  0
 21 19  1  0  0  0  0
 21 26  1  0  0  0  0
 22 25  1  0  0  0  0
 23 18  2  0  0  0  0
 24  1  1  0  0  0  0
 24 17  2  0  0  0  0
 25 27  2  0  0  0  0
 26 19  1  1  0  0  0
 26 20  1  0  0  0  0
 27 23  1  0  0  0  0
 28 11  1  0  0  0  0
 28 13  1  0  0  0  0
 29  7  2  0  0  0  0
 32 31  2  0  0  0  0
 32 30  1  0  0  0  0
 33 35  1  0  0  0  0
 34 33  2  0  0  0  0
 36 38  1  0  0  0  0
 37 38  2  0  0  0  0
M  END
>  <MODEL>
2

>  <REMARK>
 VINA RESULT:      -1.7      1.105      1.319
  Name = 
  4 active torsions:
  status: ('A' for Active; 'I' for Inactive)
    1  A    between atoms: C_11  and  C_16
    2  A    between atoms: C_11  and  C_35
    3  A    between atoms: C_12  and  CA_13
    4  A    between atoms: CA_20  and  C_36
                            x       y       z     vdW  Elec       q    Type
                         _______ _______ _______ _____ _____    ______ ____

>  <TORSDO>
F 4

$$$$
