=
 OpenBabel11072410483D

 38 43  0  0  1  0  0  0  0  0999 V2000
  161.9220  206.3080  150.8020 C   0  0  1  0  0  3  0  0  0  0  0  0
  162.0850  203.9420  151.8210 C   0  0  0  0  0  3  0  0  0  0  0  0
  161.3840  204.9760  151.2330 C   0  0  0  0  0  0  0  0  0  0  0  0
  160.0290  203.3550  151.5100 N   0  0  0  0  0  0  0  0  0  0  0  0
  160.1130  204.5880  151.0410 N   0  0  0  0  0  0  0  0  0  0  0  0
  161.1970  202.9430  151.9840 N   0  0  0  0  0  2  0  0  0  0  0  0
  161.2280  206.8490  149.5330 C   0  0  1  0  0  3  0  0  0  0  0  0
  162.2710  207.2580  148.5040 C   0  0  2  0  0  3  0  0  0  0  0  0
  161.7870  208.3320  147.7550 O   0  0  0  0  0  1  0  0  0  0  0  0
  161.4350  206.0010  148.2740 C   0  0  2  0  0  0  0  0  0  0  0  0
  160.2180  206.0730  147.3590 C   0  0  0  0  0  2  0  0  0  0  0  0
  160.6230  206.4600  145.9500 C   0  0  0  0  0  2  0  0  0  0  0  0
  161.2090  205.2940  144.1760 C   0  0  0  0  0  1  0  0  0  0  0  0
  160.1450  205.5110  145.0500 O   0  0  0  0  0  0  0  0  0  0  0  0
  162.0830  204.6200  148.4840 C   0  0  0  0  0  2  0  0  0  0  0  0
  161.8750  203.6530  147.3230 C   0  0  0  0  0  2  0  0  0  0  0  0
  159.7370  202.4000  148.4790 O   0  0  0  0  0  1  0  0  0  0  0  0
  161.0940  202.1080  147.8800 P   0  0  0  0  0  0  0  0  0  0  0  0
  160.9030  201.0750  146.5540 O   0  0  0  0  0  0  0  0  0  0  0  0
  162.0740  201.3580  149.0360 O   0  0  0  0  0  1  0  0  0  0  0  0
  161.9760  207.2460  151.9400 N   0  0  0  0  0  0  0  0  0  0  0  0
  161.8960  208.5890  151.3810 C   0  0  0  0  0  1  0  0  0  0  0  0
  160.7240  208.3130  154.5740 C   0  0  2  0  0  0  0  0  0  0  0  0
  161.4000  207.0030  154.3440 C   0  0  0  0  0  2  0  0  0  0  0  0
  160.1860  208.4280  153.1840 C   0  0  0  0  0  2  0  0  0  0  0  0
  161.7740  209.3850  154.8180 C   0  0  1  0  0  3  0  0  0  0  0  0
  161.1700  210.5980  155.5060 C   0  0  2  0  0  3  0  0  0  0  0  0
  160.6270  209.2080  155.7950 C   0  0  1  0  0  3  0  0  0  0  0  0
  160.8700  207.0720  152.8960 C   0  0  1  0  0  3  0  0  0  0  0  0
  158.7070  211.8580  154.9500 S   0  0  0  0  0  0  0  0  0  0  0  0
  160.2700  211.3480  154.5750 C   0  0  0  0  0  0  0  0  0  0  0  0
  158.4940  212.5890  153.4470 C   0  0  0  0  0  0  0  0  0  0  0  0
  160.6420  211.7380  153.3330 N   0  0  0  0  0  0  0  0  0  0  0  0
  159.8210  212.9500  151.3210 C   0  0  0  0  0  1  0  0  0  0  0  0
  159.6530  212.4230  152.7020 C   0  0  0  0  0  0  0  0  0  0  0  0
  157.3500  213.2610  153.0060 O   0  0  0  0  0  0  0  0  0  0  0  0
  156.3220  213.6820  153.8950 C   0  0  0  0  0  2  0  0  0  0  0  0
  155.0240  213.8830  153.1340 C   0  0  0  0  0  1  0  0  0  0  0  0
  1  3  1  0  0  0  0
  1 21  1  1  0  0  0
  2  6  1  0  0  0  0
  3  2  2  0  0  0  0
  4  6  1  0  0  0  0
  5  3  1  0  0  0  0
  5  4  2  0  0  0  0
  7  1  1  1  0  0  0
  8  9  1  6  0  0  0
  8  7  1  0  0  0  0
 10 11  1  6  0  0  0
 10 15  1  0  0  0  0
 10  8  1  0  0  0  0
 10  7  1  0  0  0  0
 12 11  1  0  0  0  0
 13 14  1  0  0  0  0
 14 12  1  0  0  0  0
 16 18  1  0  0  0  0
 16 15  1  0  0  0  0
 18 17  1  0  0  0  0
 18 20  1  0  0  0  0
 19 18  2  0  0  0  0
 21 29  1  0  0  0  0
 22 21  1  0  0  0  0
 23 26  1  0  0  0  0
 23 28  1  0  0  0  0
 24 23  1  0  0  0  0
 25 23  1  0  0  0  0
 26 27  1  0  0  0  0
 26 28  1  0  0  0  0
 27 28  1  0  0  0  0
 29 25  1  0  0  0  0
 29 24  1  0  0  0  0
 31 30  1  0  0  0  0
 31 27  1  0  0  0  0
 32 30  1  0  0  0  0
 33 31  2  0  0  0  0
 34 35  1  0  0  0  0
 35 33  1  0  0  0  0
 35 32  2  0  0  0  0
 36 32  1  0  0  0  0
 36 37  1  0  0  0  0
 38 37  1  0  0  0  0
M  END
>  <MODEL>
1

>  <REMARK>
 VINA RESULT:      -5.4      0.000      0.000
  Name = 
  13 active torsions:
  status: ('A' for Active; 'I' for Inactive)
    1  A    between atoms: C_2  and  C_10
    2  A    between atoms: C_2  and  O_35
    3  A    between atoms: C_3  and  C_9
    4  A    between atoms: C_4  and  O_23
    5  A    between atoms: N_6  and  C_9
    6  A    between atoms: N_6  and  C_37
    7  A    between atoms: C_8  and  C_9
    8  A    between atoms: C_10  and  C_32
    9  A    between atoms: C_13  and  C_31
   10  A    between atoms: C_14  and  O_23
   11  A    between atoms: C_15  and  C_16
   12  A    between atoms: C_15  and  P_24
   13  A    between atoms: C_16  and  C_32
                            x       y       z     vdW  Elec       q    Type
                         _______ _______ _______ _____ _____    ______ ____

>  <TORSDO>
F 13

$$$$
=
 OpenBabel11072410483D

 38 43  0  0  1  0  0  0  0  0999 V2000
  160.1190  208.7590  154.2350 C   0  0  1  0  0  3  0  0  0  0  0  0
  159.6760  207.0800  156.1440 C   0  0  0  0  0  3  0  0  0  0  0  0
  160.4820  207.9590  155.4500 C   0  0  0  0  0  0  0  0  0  0  0  0
  161.6020  207.2310  157.1110 N   0  0  0  0  0  0  0  0  0  0  0  0
  161.6700  208.0450  156.0700 N   0  0  0  0  0  0  0  0  0  0  0  0
  160.4180  206.6400  157.1790 N   0  0  0  0  0  2  0  0  0  0  0  0
  160.7210  210.1810  154.2550 C   0  0  1  0  0  3  0  0  0  0  0  0
  159.7450  211.1680  153.6290 C   0  0  2  0  0  3  0  0  0  0  0  0
  160.4600  212.1880  152.9980 O   0  0  0  0  0  1  0  0  0  0  0  0
  159.9750  211.1840  155.1400 C   0  0  2  0  0  0  0  0  0  0  0  0
  160.9340  212.2080  155.7360 C   0  0  0  0  0  2  0  0  0  0  0  0
  161.2310  211.8890  157.1880 C   0  0  0  0  0  2  0  0  0  0  0  0
  163.2830  211.2320  156.7320 C   0  0  0  0  0  1  0  0  0  0  0  0
  162.0740  210.7830  157.2610 O   0  0  0  0  0  0  0  0  0  0  0  0
  158.8940  210.6000  156.0680 C   0  0  0  0  0  2  0  0  0  0  0  0
  158.0530  211.6530  156.7830 C   0  0  0  0  0  2  0  0  0  0  0  0
  156.7480  213.1340  154.8910 O   0  0  0  0  0  0  0  0  0  0  0  0
  156.5200  212.0060  155.8710 P   0  0  0  0  0  0  0  0  0  0  0  0
  156.0500  210.6220  155.0200 O   0  0  0  0  0  1  0  0  0  0  0  0
  155.2960  212.4370  156.9550 O   0  0  0  0  0  1  0  0  0  0  0  0
  160.3670  207.9850  153.0030 N   0  0  0  0  0  0  0  0  0  0  0  0
  160.5640  208.9540  151.9320 C   0  0  0  0  0  1  0  0  0  0  0  0
  161.5320  205.2060  152.2520 C   0  0  2  0  0  0  0  0  0  0  0  0
  161.1950  205.7240  153.6100 C   0  0  0  0  0  2  0  0  0  0  0  0
  161.8980  206.5420  151.6900 C   0  0  0  0  0  2  0  0  0  0  0  0
  160.2690  204.6870  151.5850 C   0  0  1  0  0  3  0  0  0  0  0  0
  160.6000  203.7460  150.4390 C   0  0  2  0  0  3  0  0  0  0  0  0
  161.5040  203.8100  151.6590 C   0  0  1  0  0  3  0  0  0  0  0  0
  161.5610  207.1270  153.0800 C   0  0  1  0  0  3  0  0  0  0  0  0
  161.6820  203.7930  147.8330 S   0  0  0  0  0  0  0  0  0  0  0  0
  161.1930  204.4950  149.2870 C   0  0  0  0  0  0  0  0  0  0  0  0
  162.1450  205.2740  147.1760 C   0  0  0  0  0  0  0  0  0  0  0  0
  161.3580  205.8380  149.2770 N   0  0  0  0  0  0  0  0  0  0  0  0
  162.1760  207.7120  147.8590 C   0  0  0  0  0  1  0  0  0  0  0  0
  161.8930  206.2730  148.1070 C   0  0  0  0  0  0  0  0  0  0  0  0
  162.6880  205.4850  145.9050 O   0  0  0  0  0  0  0  0  0  0  0  0
  161.8890  205.5250  144.7300 C   0  0  0  0  0  2  0  0  0  0  0  0
  160.4300  205.7310  145.0970 C   0  0  0  0  0  1  0  0  0  0  0  0
  1 21  1  6  0  0  0
  1  3  1  0  0  0  0
  2  6  1  0  0  0  0
  3  5  1  0  0  0  0
  3  2  2  0  0  0  0
  4  6  1  0  0  0  0
  5  4  2  0  0  0  0
  7  1  1  1  0  0  0
  7 10  1  0  0  0  0
  8  9  1  6  0  0  0
  8  7  1  0  0  0  0
  8 10  1  0  0  0  0
 10 11  1  1  0  0  0
 10 15  1  0  0  0  0
 11 12  1  0  0  0  0
 12 14  1  0  0  0  0
 13 14  1  0  0  0  0
 15 16  1  0  0  0  0
 17 18  2  0  0  0  0
 18 16  1  0  0  0  0
 18 20  1  0  0  0  0
 19 18  1  0  0  0  0
 21 29  1  0  0  0  0
 22 21  1  0  0  0  0
 23 24  1  0  0  0  0
 25 23  1  0  0  0  0
 25 29  1  0  0  0  0
 26 28  1  0  0  0  0
 26 23  1  0  0  0  0
 27 26  1  0  0  0  0
 27 28  1  0  0  0  0
 28 23  1  0  0  0  0
 29 24  1  0  0  0  0
 30 31  1  0  0  0  0
 31 27  1  0  0  0  0
 32 30  1  0  0  0  0
 32 35  2  0  0  0  0
 33 31  2  0  0  0  0
 34 35  1  0  0  0  0
 35 33  1  0  0  0  0
 36 32  1  0  0  0  0
 37 38  1  0  0  0  0
 37 36  1  0  0  0  0
M  END
>  <MODEL>
2

>  <REMARK>
 VINA RESULT:      -5.4      3.806      9.221
  Name = 
  13 active torsions:
  status: ('A' for Active; 'I' for Inactive)
    1  A    between atoms: C_2  and  C_10
    2  A    between atoms: C_2  and  O_35
    3  A    between atoms: C_3  and  C_9
    4  A    between atoms: C_4  and  O_23
    5  A    between atoms: N_6  and  C_9
    6  A    between atoms: N_6  and  C_37
    7  A    between atoms: C_8  and  C_9
    8  A    between atoms: C_10  and  C_32
    9  A    between atoms: C_13  and  C_31
   10  A    between atoms: C_14  and  O_23
   11  A    between atoms: C_15  and  C_16
   12  A    between atoms: C_15  and  P_24
   13  A    between atoms: C_16  and  C_32
                            x       y       z     vdW  Elec       q    Type
                         _______ _______ _______ _____ _____    ______ ____

>  <TORSDO>
F 13

$$$$
=
 OpenBabel11072410483D

 38 43  0  0  1  0  0  0  0  0999 V2000
  161.3420  207.5390  151.4630 C   0  0  1  0  0  3  0  0  0  0  0  0
  161.2900  206.1870  153.6610 C   0  0  0  0  0  3  0  0  0  0  0  0
  161.1240  206.3120  152.2960 C   0  0  0  0  0  0  0  0  0  0  0  0
  160.7180  204.2840  152.8120 N   0  0  0  0  0  0  0  0  0  0  0  0
  160.7760  205.1190  151.7880 N   0  0  0  0  0  0  0  0  0  0  0  0
  161.0210  204.8980  153.9470 N   0  0  0  0  0  2  0  0  0  0  0  0
  162.2180  208.5950  152.1740 C   0  0  1  0  0  3  0  0  0  0  0  0
  162.1670  209.9110  151.4130 C   0  0  2  0  0  3  0  0  0  0  0  0
  163.3880  210.5740  151.5520 O   0  0  0  0  0  1  0  0  0  0  0  0
  161.4490  209.7850  152.7550 C   0  0  2  0  0  0  0  0  0  0  0  0
  162.1270  210.3120  154.0150 C   0  0  0  0  0  2  0  0  0  0  0  0
  161.5890  209.6170  155.2500 C   0  0  0  0  0  2  0  0  0  0  0  0
  163.1340  210.7300  156.3570 C   0  0  0  0  0  1  0  0  0  0  0  0
  161.7710  210.4350  156.3620 O   0  0  0  0  0  0  0  0  0  0  0  0
  159.9150  209.6590  152.7760 C   0  0  0  0  0  2  0  0  0  0  0  0
  159.1800  210.9760  152.5470 C   0  0  0  0  0  2  0  0  0  0  0  0
  157.2440  212.3780  153.8750 O   0  0  0  0  0  0  0  0  0  0  0  0
  158.5580  211.6680  154.1100 P   0  0  0  0  0  0  0  0  0  0  0  0
  158.3180  210.4110  155.2150 O   0  0  0  0  0  1  0  0  0  0  0  0
  159.6860  212.7590  154.7390 O   0  0  0  0  0  1  0  0  0  0  0  0
  161.7710  207.1780  150.0980 N   0  0  0  0  0  0  0  0  0  0  0  0
  162.2220  205.7940  150.1530 C   0  0  0  0  0  1  0  0  0  0  0  0
  161.0500  206.7440  147.1090 C   0  0  2  0  0  0  0  0  0  0  0  0
  161.1750  208.0370  147.8450 C   0  0  0  0  0  2  0  0  0  0  0  0
  160.5800  205.9650  148.2940 C   0  0  0  0  0  2  0  0  0  0  0  0
  162.4310  206.2710  146.6870 C   0  0  1  0  0  3  0  0  0  0  0  0
  162.3420  205.2510  145.5650 C   0  0  2  0  0  3  0  0  0  0  0  0
  161.3150  206.3660  145.6640 C   0  0  1  0  0  3  0  0  0  0  0  0
  160.6930  207.2780  149.1000 C   0  0  1  0  0  3  0  0  0  0  0  0
  161.8260  203.4430  147.6700 S   0  0  0  0  0  0  0  0  0  0  0  0
  161.7830  203.9550  146.0630 C   0  0  0  0  0  0  0  0  0  0  0  0
  161.0010  202.0150  147.3240 C   0  0  0  0  0  0  0  0  0  0  0  0
  161.1370  203.0690  145.2700 N   0  0  0  0  0  0  0  0  0  0  0  0
  159.9740  200.8690  145.3130 C   0  0  0  0  0  1  0  0  0  0  0  0
  160.7060  201.9860  145.9680 C   0  0  0  0  0  0  0  0  0  0  0  0
  160.6550  201.0150  148.2380 O   0  0  0  0  0  0  0  0  0  0  0  0
  160.0020  201.2990  149.4690 C   0  0  0  0  0  2  0  0  0  0  0  0
  161.0170  201.3760  150.5950 C   0  0  0  0  0  1  0  0  0  0  0  0
  1 21  1  6  0  0  0
  1  3  1  0  0  0  0
  2  6  1  0  0  0  0
  3  2  2  0  0  0  0
  4  6  1  0  0  0  0
  5  3  1  0  0  0  0
  5  4  2  0  0  0  0
  7  1  1  6  0  0  0
  7 10  1  0  0  0  0
  8  9  1  1  0  0  0
  8  7  1  0  0  0  0
  8 10  1  0  0  0  0
 10 15  1  6  0  0  0
 10 11  1  0  0  0  0
 11 12  1  0  0  0  0
 12 14  1  0  0  0  0
 13 14  1  0  0  0  0
 16 15  1  0  0  0  0
 16 18  1  0  0  0  0
 17 18  2  0  0  0  0
 18 20  1  0  0  0  0
 18 19  1  0  0  0  0
 21 22  1  0  0  0  0
 23 24  1  0  0  0  0
 23 25  1  0  0  0  0
 24 29  1  0  0  0  0
 25 29  1  0  0  0  0
 26 23  1  0  0  0  0
 27 28  1  0  0  0  0
 27 31  1  0  0  0  0
 27 26  1  0  0  0  0
 28 26  1  0  0  0  0
 28 23  1  0  0  0  0
 29 21  1  0  0  0  0
 31 30  1  0  0  0  0
 32 30  1  0  0  0  0
 32 36  1  0  0  0  0
 33 35  1  0  0  0  0
 33 31  2  0  0  0  0
 34 35  1  0  0  0  0
 35 32  2  0  0  0  0
 36 37  1  0  0  0  0
 37 38  1  0  0  0  0
M  END
>  <MODEL>
3

>  <REMARK>
 VINA RESULT:      -5.0      3.600      9.312
  Name = 
  13 active torsions:
  status: ('A' for Active; 'I' for Inactive)
    1  A    between atoms: C_2  and  C_10
    2  A    between atoms: C_2  and  O_35
    3  A    between atoms: C_3  and  C_9
    4  A    between atoms: C_4  and  O_23
    5  A    between atoms: N_6  and  C_9
    6  A    between atoms: N_6  and  C_37
    7  A    between atoms: C_8  and  C_9
    8  A    between atoms: C_10  and  C_32
    9  A    between atoms: C_13  and  C_31
   10  A    between atoms: C_14  and  O_23
   11  A    between atoms: C_15  and  C_16
   12  A    between atoms: C_15  and  P_24
   13  A    between atoms: C_16  and  C_32
                            x       y       z     vdW  Elec       q    Type
                         _______ _______ _______ _____ _____    ______ ____

>  <TORSDO>
F 13

$$$$
=
 OpenBabel11072410483D

 38 43  0  0  1  0  0  0  0  0999 V2000
  161.5590  210.5340  151.1690 C   0  0  1  0  0  3  0  0  0  0  0  0
  163.0220  211.0500  149.1060 C   0  0  0  0  0  3  0  0  0  0  0  0
  161.9070  211.2450  149.8950 C   0  0  2  0  0  3  0  0  0  0  0  0
  161.8090  212.6370  148.2850 N   0  0  0  0  0  0  0  0  0  0  0  0
  161.1710  212.2390  149.3720 N   0  0  0  0  0  0  0  0  0  0  0  0
  162.9220  211.9410  148.1010 N   0  0  0  0  0  0  0  0  0  0  0  0
  160.5110  211.2960  152.0110 C   0  0  1  0  0  3  0  0  0  0  0  0
  159.6590  210.3100  152.7960 C   0  0  2  0  0  3  0  0  0  0  0  0
  158.3710  210.8280  152.9440 O   0  0  0  0  0  1  0  0  0  0  0  0
  160.6890  211.1700  153.5270 C   0  0  2  0  0  0  0  0  0  0  0  0
  160.2300  212.4380  154.2390 C   0  0  0  0  0  2  0  0  0  0  0  0
  159.2920  212.1070  155.3820 C   0  0  0  0  0  2  0  0  0  0  0  0
  157.3700  213.1820  155.3590 C   0  0  0  0  0  1  0  0  0  0  0  0
  158.6770  213.2720  155.8340 O   0  0  0  0  0  0  0  0  0  0  0  0
  162.0010  210.5230  154.0070 C   0  0  0  0  0  2  0  0  0  0  0  0
  162.1860  210.5430  155.5220 C   0  0  0  0  0  2  0  0  0  0  0  0
  162.4480  208.3780  157.1710 O   0  0  0  0  0  1  0  0  0  0  0  0
  161.4320  209.0830  156.3000 P   0  0  0  0  0  0  0  0  0  0  0  0
  160.1300  209.5770  157.2600 O   0  0  0  0  0  1  0  0  0  0  0  0
  160.8770  208.0220  155.1070 O   0  0  0  0  0  0  0  0  0  0  0  0
  161.2490  209.1140  150.9110 N   0  0  0  0  0  0  0  0  0  0  0  0
  160.9120  209.0090  149.4970 C   0  0  0  0  0  1  0  0  0  0  0  0
  162.0370  206.1670  151.4910 C   0  0  2  0  0  0  0  0  0  0  0  0
  162.0830  207.3300  152.4240 C   0  0  0  0  0  2  0  0  0  0  0  0
  162.3180  206.9730  150.2640 C   0  0  0  0  0  2  0  0  0  0  0  0
  160.6200  205.6190  151.4420 C   0  0  1  0  0  3  0  0  0  0  0  0
  160.5990  204.1970  150.9050 C   0  0  2  0  0  3  0  0  0  0  0  0
  161.7850  204.6880  151.7190 C   0  0  1  0  0  3  0  0  0  0  0  0
  162.3760  208.2090  151.1890 C   0  0  1  0  0  3  0  0  0  0  0  0
  161.2540  202.7790  148.5540 S   0  0  0  0  0  0  0  0  0  0  0  0
  160.9200  204.1730  149.4430 C   0  0  0  0  0  0  0  0  0  0  0  0
  161.4410  203.6390  147.1170 C   0  0  0  0  0  0  0  0  0  0  0  0
  160.9310  205.2800  148.6650 N   0  0  0  0  0  0  0  0  0  0  0  0
  161.3060  206.0400  146.3250 C   0  0  0  0  0  1  0  0  0  0  0  0
  161.2270  204.9860  147.3720 C   0  0  0  0  0  0  0  0  0  0  0  0
  161.7550  203.1020  145.8650 O   0  0  0  0  0  0  0  0  0  0  0  0
  160.7620  202.8010  144.8930 C   0  0  0  0  0  2  0  0  0  0  0  0
  159.9870  201.5620  145.3030 C   0  0  0  0  0  1  0  0  0  0  0  0
  1 21  1  6  0  0  0
  2  3  1  0  0  0  0
  3  1  1  1  0  0  0
  4  5  2  0  0  0  0
  5  3  1  0  0  0  0
  6  4  1  0  0  0  0
  6  2  2  0  0  0  0
  7  1  1  6  0  0  0
  7  8  1  0  0  0  0
  7 10  1  0  0  0  0
  8  9  1  1  0  0  0
  8 10  1  0  0  0  0
 10 15  1  1  0  0  0
 10 11  1  0  0  0  0
 11 12  1  0  0  0  0
 12 14  1  0  0  0  0
 13 14  1  0  0  0  0
 15 16  1  0  0  0  0
 16 18  1  0  0  0  0
 18 17  1  0  0  0  0
 18 19  1  0  0  0  0
 20 18  2  0  0  0  0
 21 29  1  0  0  0  0
 22 21  1  0  0  0  0
 23 28  1  0  0  0  0
 23 24  1  0  0  0  0
 25 29  1  0  0  0  0
 25 23  1  0  0  0  0
 26 23  1  0  0  0  0
 26 28  1  0  0  0  0
 27 26  1  0  0  0  0
 27 28  1  0  0  0  0
 29 24  1  0  0  0  0
 30 31  1  0  0  0  0
 31 27  1  0  0  0  0
 32 35  2  0  0  0  0
 32 30  1  0  0  0  0
 33 31  2  0  0  0  0
 34 35  1  0  0  0  0
 35 33  1  0  0  0  0
 36 32  1  0  0  0  0
 37 38  1  0  0  0  0
 37 36  1  0  0  0  0
M  END
>  <MODEL>
4

>  <REMARK>
 VINA RESULT:      -4.8      3.939      9.164
  Name = 
  13 active torsions:
  status: ('A' for Active; 'I' for Inactive)
    1  A    between atoms: C_2  and  C_10
    2  A    between atoms: C_2  and  O_35
    3  A    between atoms: C_3  and  C_9
    4  A    between atoms: C_4  and  O_23
    5  A    between atoms: N_6  and  C_9
    6  A    between atoms: N_6  and  C_37
    7  A    between atoms: C_8  and  C_9
    8  A    between atoms: C_10  and  C_32
    9  A    between atoms: C_13  and  C_31
   10  A    between atoms: C_14  and  O_23
   11  A    between atoms: C_15  and  C_16
   12  A    between atoms: C_15  and  P_24
   13  A    between atoms: C_16  and  C_32
                            x       y       z     vdW  Elec       q    Type
                         _______ _______ _______ _____ _____    ______ ____

>  <TORSDO>
F 13

$$$$
=
 OpenBabel11072410483D

 38 43  0  0  1  0  0  0  0  0999 V2000
  161.1130  206.8630  151.4290 C   0  0  1  0  0  3  0  0  0  0  0  0
  163.0850  207.1310  149.7860 C   0  0  0  0  0  3  0  0  0  0  0  0
  161.7990  207.4010  150.2090 C   0  0  2  0  0  3  0  0  0  0  0  0
  162.1550  208.5530  148.4520 N   0  0  0  0  0  0  0  0  0  0  0  0
  161.2420  208.2910  149.3720 N   0  0  0  0  0  0  0  0  0  0  0  0
  163.2690  207.8720  148.6760 N   0  0  0  0  0  0  0  0  0  0  0  0
  161.4620  205.3840  151.7060 C   0  0  1  0  0  3  0  0  0  0  0  0
  160.1870  204.5760  151.9010 C   0  0  2  0  0  3  0  0  0  0  0  0
  160.4300  203.5400  152.8050 O   0  0  0  0  0  1  0  0  0  0  0  0
  161.0070  204.4000  150.6240 C   0  0  2  0  0  0  0  0  0  0  0  0
  161.9700  203.2240  150.5130 C   0  0  0  0  0  2  0  0  0  0  0  0
  161.2850  201.9260  150.8930 C   0  0  0  0  0  2  0  0  0  0  0  0
  161.2520  200.8360  148.9790 C   0  0  0  0  0  1  0  0  0  0  0  0
  160.4310  201.5310  149.8660 O   0  0  0  0  0  0  0  0  0  0  0  0
  160.4940  205.0210  149.3120 C   0  0  0  0  0  2  0  0  0  0  0  0
  160.7490  204.1640  148.0760 C   0  0  0  0  0  2  0  0  0  0  0  0
  160.5620  206.5230  146.7080 O   0  0  0  0  0  1  0  0  0  0  0  0
  161.2560  205.1810  146.6570 P   0  0  0  0  0  0  0  0  0  0  0  0
  162.9290  205.4220  146.7180 O   0  0  0  0  0  1  0  0  0  0  0  0
  160.8570  204.3910  145.2160 O   0  0  0  0  0  0  0  0  0  0  0  0
  161.2820  207.7780  152.5740 N   0  0  0  0  0  0  0  0  0  0  0  0
  160.7460  209.0680  152.1620 C   0  0  0  0  0  1  0  0  0  0  0  0
  160.9460  208.2640  155.6220 C   0  0  2  0  0  0  0  0  0  0  0  0
  161.5530  207.0820  154.9430 C   0  0  0  0  0  2  0  0  0  0  0  0
  159.9710  208.5560  154.5290 C   0  0  0  0  0  2  0  0  0  0  0  0
  161.9780  209.3760  155.7140 C   0  0  1  0  0  3  0  0  0  0  0  0
  161.5960  210.3930  156.7760 C   0  0  2  0  0  3  0  0  0  0  0  0
  161.2310  208.9280  156.9560 C   0  0  1  0  0  3  0  0  0  0  0  0
  160.5660  207.3400  153.7840 C   0  0  1  0  0  3  0  0  0  0  0  0
  159.0040  211.4020  157.2550 S   0  0  0  0  0  0  0  0  0  0  0  0
  160.4100  211.1970  156.3450 C   0  0  0  0  0  0  0  0  0  0  0  0
  158.2990  212.4020  156.0960 C   0  0  0  0  0  0  0  0  0  0  0  0
  160.3620  211.8880  155.1830 N   0  0  0  0  0  0  0  0  0  0  0  0
  158.8930  213.3810  153.8380 C   0  0  0  0  0  1  0  0  0  0  0  0
  159.1870  212.5540  155.0400 C   0  0  0  0  0  0  0  0  0  0  0  0
  157.0350  212.9940  156.1700 O   0  0  0  0  0  0  0  0  0  0  0  0
  155.8340  212.2320  156.1640 C   0  0  0  0  0  2  0  0  0  0  0  0
  155.9060  211.1510  155.1010 C   0  0  0  0  0  1  0  0  0  0  0  0
  1 21  1  1  0  0  0
  2  3  1  0  0  0  0
  3  1  1  1  0  0  0
  4  6  1  0  0  0  0
  4  5  2  0  0  0  0
  5  3  1  0  0  0  0
  6  2  2  0  0  0  0
  7  1  1  6  0  0  0
  7  8  1  0  0  0  0
  8  9  1  1  0  0  0
 10 15  1  6  0  0  0
 10  7  1  0  0  0  0
 10  8  1  0  0  0  0
 11 10  1  0  0  0  0
 11 12  1  0  0  0  0
 13 14  1  0  0  0  0
 14 12  1  0  0  0  0
 16 15  1  0  0  0  0
 18 17  1  0  0  0  0
 18 19  1  0  0  0  0
 18 16  1  0  0  0  0
 20 18  2  0  0  0  0
 21 29  1  0  0  0  0
 22 21  1  0  0  0  0
 23 26  1  0  0  0  0
 23 28  1  0  0  0  0
 24 23  1  0  0  0  0
 25 23  1  0  0  0  0
 26 27  1  0  0  0  0
 26 28  1  0  0  0  0
 27 28  1  0  0  0  0
 29 25  1  0  0  0  0
 29 24  1  0  0  0  0
 31 27  1  0  0  0  0
 31 30  1  0  0  0  0
 32 36  1  0  0  0  0
 32 30  1  0  0  0  0
 33 31  2  0  0  0  0
 34 35  1  0  0  0  0
 35 33  1  0  0  0  0
 35 32  2  0  0  0  0
 37 36  1  0  0  0  0
 38 37  1  0  0  0  0
M  END
>  <MODEL>
5

>  <REMARK>
 VINA RESULT:      -4.6      2.320      3.696
  Name = 
  13 active torsions:
  status: ('A' for Active; 'I' for Inactive)
    1  A    between atoms: C_2  and  C_10
    2  A    between atoms: C_2  and  O_35
    3  A    between atoms: C_3  and  C_9
    4  A    between atoms: C_4  and  O_23
    5  A    between atoms: N_6  and  C_9
    6  A    between atoms: N_6  and  C_37
    7  A    between atoms: C_8  and  C_9
    8  A    between atoms: C_10  and  C_32
    9  A    between atoms: C_13  and  C_31
   10  A    between atoms: C_14  and  O_23
   11  A    between atoms: C_15  and  C_16
   12  A    between atoms: C_15  and  P_24
   13  A    between atoms: C_16  and  C_32
                            x       y       z     vdW  Elec       q    Type
                         _______ _______ _______ _____ _____    ______ ____

>  <TORSDO>
F 13

$$$$
=
 OpenBabel11072410483D

 38 43  0  0  1  0  0  0  0  0999 V2000
  161.2050  212.8430  149.5140 C   0  0  1  0  0  3  0  0  0  0  0  0
  161.4320  214.2500  147.3620 C   0  0  0  0  0  3  0  0  0  0  0  0
  161.9320  213.3970  148.3260 C   0  0  2  0  0  3  0  0  0  0  0  0
  163.4730  213.7230  146.8900 N   0  0  0  0  0  0  0  0  0  0  0  0
  163.1970  213.0760  148.0100 N   0  0  0  0  0  0  0  0  0  0  0  0
  162.4320  214.4340  146.4790 N   0  0  0  0  0  0  0  0  0  0  0  0
  159.8680  213.5670  149.7870 C   0  0  1  0  0  3  0  0  0  0  0  0
  158.7370  212.5530  149.8780 C   0  0  2  0  0  3  0  0  0  0  0  0
  157.5570  213.1330  149.4070 O   0  0  0  0  0  1  0  0  0  0  0  0
  159.2300  213.2520  151.1440 C   0  0  2  0  0  0  0  0  0  0  0  0
  158.4610  214.4530  151.6790 C   0  0  0  0  0  2  0  0  0  0  0  0
  157.1790  214.0150  152.3610 C   0  0  0  0  0  2  0  0  0  0  0  0
  156.3440  213.3530  154.2880 C   0  0  0  0  0  1  0  0  0  0  0  0
  157.2900  214.2140  153.7350 O   0  0  0  0  0  0  0  0  0  0  0  0
  160.1040  212.4680  152.1410 C   0  0  0  0  0  2  0  0  0  0  0  0
  159.3480  211.3940  152.9190 C   0  0  0  0  0  2  0  0  0  0  0  0
  158.8660  210.5360  155.4690 O   0  0  0  0  0  1  0  0  0  0  0  0
  159.8320  211.3830  154.6710 P   0  0  0  0  0  0  0  0  0  0  0  0
  161.3860  210.7310  154.8120 O   0  0  0  0  0  0  0  0  0  0  0  0
  159.8310  212.9630  155.2740 O   0  0  0  0  0  1  0  0  0  0  0  0
  161.1230  211.3710  149.4400 N   0  0  0  0  0  0  0  0  0  0  0  0
  160.9160  211.0330  148.0380 C   0  0  0  0  0  1  0  0  0  0  0  0
  162.2000  209.0060  151.1400 C   0  0  2  0  0  0  0  0  0  0  0  0
  162.2930  210.4660  151.4350 C   0  0  0  0  0  2  0  0  0  0  0  0
  162.2450  209.1710  149.6550 C   0  0  0  0  0  2  0  0  0  0  0  0
  160.8360  208.4920  151.5680 C   0  0  1  0  0  3  0  0  0  0  0  0
  160.8440  206.9820  151.7320 C   0  0  2  0  0  3  0  0  0  0  0  0
  162.0940  207.7900  152.0400 C   0  0  1  0  0  3  0  0  0  0  0  0
  162.3420  210.6920  149.9090 C   0  0  1  0  0  3  0  0  0  0  0  0
  161.4280  204.6960  150.1830 S   0  0  0  0  0  0  0  0  0  0  0  0
  160.9550  206.3000  150.4050 C   0  0  0  0  0  0  0  0  0  0  0  0
  161.2390  204.7830  148.5110 C   0  0  0  0  0  0  0  0  0  0  0  0
  160.6380  206.8970  149.2320 N   0  0  0  0  0  0  0  0  0  0  0  0
  160.5240  206.4870  146.7800 C   0  0  0  0  0  1  0  0  0  0  0  0
  160.8010  206.0570  148.1780 C   0  0  0  0  0  0  0  0  0  0  0  0
  161.4730  203.7530  147.5950 O   0  0  0  0  0  0  0  0  0  0  0  0
  161.0150  202.4240  147.8080 C   0  0  0  0  0  2  0  0  0  0  0  0
  160.8360  201.7130  146.4790 C   0  0  0  0  0  1  0  0  0  0  0  0
  1 21  1  6  0  0  0
  2  3  1  0  0  0  0
  3  1  1  6  0  0  0
  4  5  2  0  0  0  0
  5  3  1  0  0  0  0
  6  4  1  0  0  0  0
  6  2  2  0  0  0  0
  7  1  1  1  0  0  0
  7  8  1  0  0  0  0
  7 10  1  0  0  0  0
  8  9  1  6  0  0  0
  8 10  1  0  0  0  0
 10 11  1  1  0  0  0
 10 15  1  0  0  0  0
 11 12  1  0  0  0  0
 12 14  1  0  0  0  0
 14 13  1  0  0  0  0
 15 16  1  0  0  0  0
 16 18  1  0  0  0  0
 18 19  2  0  0  0  0
 18 20  1  0  0  0  0
 18 17  1  0  0  0  0
 21 29  1  0  0  0  0
 22 21  1  0  0  0  0
 23 24  1  0  0  0  0
 23 26  1  0  0  0  0
 23 28  1  0  0  0  0
 25 29  1  0  0  0  0
 25 23  1  0  0  0  0
 26 27  1  0  0  0  0
 26 28  1  0  0  0  0
 27 28  1  0  0  0  0
 29 24  1  0  0  0  0
 30 31  1  0  0  0  0
 31 27  1  0  0  0  0
 32 30  1  0  0  0  0
 33 31  2  0  0  0  0
 34 35  1  0  0  0  0
 35 32  2  0  0  0  0
 35 33  1  0  0  0  0
 36 37  1  0  0  0  0
 36 32  1  0  0  0  0
 38 37  1  0  0  0  0
M  END
>  <MODEL>
6

>  <REMARK>
 VINA RESULT:      -4.3      3.837      9.280
  Name = 
  13 active torsions:
  status: ('A' for Active; 'I' for Inactive)
    1  A    between atoms: C_2  and  C_10
    2  A    between atoms: C_2  and  O_35
    3  A    between atoms: C_3  and  C_9
    4  A    between atoms: C_4  and  O_23
    5  A    between atoms: N_6  and  C_9
    6  A    between atoms: N_6  and  C_37
    7  A    between atoms: C_8  and  C_9
    8  A    between atoms: C_10  and  C_32
    9  A    between atoms: C_13  and  C_31
   10  A    between atoms: C_14  and  O_23
   11  A    between atoms: C_15  and  C_16
   12  A    between atoms: C_15  and  P_24
   13  A    between atoms: C_16  and  C_32
                            x       y       z     vdW  Elec       q    Type
                         _______ _______ _______ _____ _____    ______ ____

>  <TORSDO>
F 13

$$$$
=
 OpenBabel11072410483D

 38 43  0  0  1  0  0  0  0  0999 V2000
  161.0580  208.0130  153.2190 C   0  0  1  0  0  3  0  0  0  0  0  0
  160.5860  210.4290  152.4450 C   0  0  0  0  0  3  0  0  0  0  0  0
  161.2990  209.2480  152.4040 C   0  0  2  0  0  3  0  0  0  0  0  0
  162.1270  210.5530  150.9360 N   0  0  0  0  0  0  0  0  0  0  0  0
  162.2460  209.3430  151.4560 N   0  0  0  0  0  0  0  0  0  0  0  0
  161.1390  211.2260  151.5100 N   0  0  0  0  0  0  0  0  0  0  0  0
  159.9930  208.2200  154.3170 C   0  0  1  0  0  3  0  0  0  0  0  0
  159.9460  207.0060  155.2330 C   0  0  2  0  0  3  0  0  0  0  0  0
  158.6430  206.8300  155.7030 O   0  0  0  0  0  1  0  0  0  0  0  0
  160.5460  208.3150  155.7420 C   0  0  2  0  0  0  0  0  0  0  0  0
  159.6930  209.2410  156.6010 C   0  0  0  0  0  2  0  0  0  0  0  0
  158.8910  210.1940  155.7360 C   0  0  0  0  0  2  0  0  0  0  0  0
  158.8390  212.3940  155.8220 C   0  0  0  0  0  1  0  0  0  0  0  0
  159.6540  211.3240  155.4550 O   0  0  0  0  0  0  0  0  0  0  0  0
  162.0760  208.4380  155.8710 C   0  0  0  0  0  2  0  0  0  0  0  0
  162.5360  209.2130  157.1030 C   0  0  0  0  0  2  0  0  0  0  0  0
  164.4590  211.1500  157.2550 O   0  0  0  0  0  1  0  0  0  0  0  0
  163.0930  210.8870  156.6620 P   0  0  0  0  0  0  0  0  0  0  0  0
  163.1870  211.0140  154.9790 O   0  0  0  0  0  0  0  0  0  0  0  0
  161.9920  212.0280  157.2490 O   0  0  0  0  0  1  0  0  0  0  0  0
  160.8460  206.8410  152.3460 N   0  0  0  0  0  0  0  0  0  0  0  0
  160.7230  207.3490  150.9860 C   0  0  0  0  0  1  0  0  0  0  0  0
  161.6090  203.8570  151.9500 C   0  0  2  0  0  0  0  0  0  0  0  0
  161.5760  204.6350  153.2240 C   0  0  0  0  0  2  0  0  0  0  0  0
  161.9770  205.0250  151.0940 C   0  0  0  0  0  2  0  0  0  0  0  0
  160.2040  203.3850  151.6140 C   0  0  1  0  0  3  0  0  0  0  0  0
  160.2340  202.2300  150.6280 C   0  0  2  0  0  3  0  0  0  0  0  0
  161.3510  202.3940  151.6450 C   0  0  1  0  0  3  0  0  0  0  0  0
  161.9560  205.8740  152.3840 C   0  0  1  0  0  3  0  0  0  0  0  0
  161.2850  204.2260  148.9330 S   0  0  0  0  0  0  0  0  0  0  0  0
  160.6640  202.6950  149.2730 C   0  0  0  0  0  0  0  0  0  0  0  0
  161.5100  203.8660  147.3020 C   0  0  0  0  0  0  0  0  0  0  0  0
  160.6400  201.9070  148.1720 N   0  0  0  0  0  0  0  0  0  0  0  0
  161.1690  201.9020  145.7400 C   0  0  0  0  0  1  0  0  0  0  0  0
  161.1050  202.5580  147.0740 C   0  0  0  0  0  0  0  0  0  0  0  0
  162.0230  204.7250  146.3260 O   0  0  0  0  0  0  0  0  0  0  0  0
  161.5790  206.0680  146.1810 C   0  0  0  0  0  2  0  0  0  0  0  0
  160.3110  206.1120  145.3480 C   0  0  0  0  0  1  0  0  0  0  0  0
  1 21  1  6  0  0  0
  3  2  1  0  0  0  0
  3  1  1  6  0  0  0
  4  5  2  0  0  0  0
  4  6  1  0  0  0  0
  5  3  1  0  0  0  0
  6  2  2  0  0  0  0
  7  1  1  6  0  0  0
  7  8  1  0  0  0  0
  7 10  1  0  0  0  0
  8  9  1  1  0  0  0
  8 10  1  0  0  0  0
 10 15  1  1  0  0  0
 10 11  1  0  0  0  0
 12 11  1  0  0  0  0
 14 12  1  0  0  0  0
 14 13  1  0  0  0  0
 15 16  1  0  0  0  0
 18 16  1  0  0  0  0
 18 20  1  0  0  0  0
 18 17  1  0  0  0  0
 19 18  2  0  0  0  0
 21 29  1  0  0  0  0
 22 21  1  0  0  0  0
 23 24  1  0  0  0  0
 25 23  1  0  0  0  0
 25 29  1  0  0  0  0
 26 28  1  0  0  0  0
 26 23  1  0  0  0  0
 27 26  1  0  0  0  0
 27 28  1  0  0  0  0
 28 23  1  0  0  0  0
 29 24  1  0  0  0  0
 30 31  1  0  0  0  0
 31 27  1  0  0  0  0
 32 30  1  0  0  0  0
 33 31  2  0  0  0  0
 34 35  1  0  0  0  0
 35 32  2  0  0  0  0
 35 33  1  0  0  0  0
 36 32  1  0  0  0  0
 37 36  1  0  0  0  0
 38 37  1  0  0  0  0
M  END
>  <MODEL>
7

>  <REMARK>
 VINA RESULT:      -4.1      3.937      9.331
  Name = 
  13 active torsions:
  status: ('A' for Active; 'I' for Inactive)
    1  A    between atoms: C_2  and  C_10
    2  A    between atoms: C_2  and  O_35
    3  A    between atoms: C_3  and  C_9
    4  A    between atoms: C_4  and  O_23
    5  A    between atoms: N_6  and  C_9
    6  A    between atoms: N_6  and  C_37
    7  A    between atoms: C_8  and  C_9
    8  A    between atoms: C_10  and  C_32
    9  A    between atoms: C_13  and  C_31
   10  A    between atoms: C_14  and  O_23
   11  A    between atoms: C_15  and  C_16
   12  A    between atoms: C_15  and  P_24
   13  A    between atoms: C_16  and  C_32
                            x       y       z     vdW  Elec       q    Type
                         _______ _______ _______ _____ _____    ______ ____

>  <TORSDO>
F 13

$$$$
=
 OpenBabel11072410483D

 38 43  0  0  1  0  0  0  0  0999 V2000
  160.6240  209.5740  153.9740 C   0  0  1  0  0  3  0  0  0  0  0  0
  162.4270  210.3330  155.6590 C   0  0  0  0  0  3  0  0  0  0  0  0
  161.4010  209.5020  155.2550 C   0  0  0  0  0  0  0  0  0  0  0  0
  162.1070  208.7890  157.1350 N   0  0  0  0  0  0  0  0  0  0  0  0
  161.2240  208.5460  156.1810 N   0  0  0  0  0  0  0  0  0  0  0  0
  162.8410  209.8540  156.8480 N   0  0  0  0  0  2  0  0  0  0  0  0
  161.1230  210.6950  153.0360 C   0  0  1  0  0  3  0  0  0  0  0  0
  160.7260  210.3860  151.6000 C   0  0  2  0  0  3  0  0  0  0  0  0
  161.6950  210.8950  150.7320 O   0  0  0  0  0  1  0  0  0  0  0  0
  160.0160  211.5070  152.3570 C   0  0  2  0  0  0  0  0  0  0  0  0
  160.4530  212.9500  152.1330 C   0  0  0  0  0  2  0  0  0  0  0  0
  159.7030  213.5680  150.9700 C   0  0  0  0  0  2  0  0  0  0  0  0
  159.9650  213.6980  148.7870 C   0  0  0  0  0  1  0  0  0  0  0  0
  160.6090  213.9730  149.9920 O   0  0  0  0  0  0  0  0  0  0  0  0
  158.5850  211.2720  152.8740 C   0  0  0  0  0  2  0  0  0  0  0  0
  158.0520  212.3940  153.7600 C   0  0  0  0  0  2  0  0  0  0  0  0
  158.0190  210.7120  155.9150 O   0  0  0  0  0  1  0  0  0  0  0  0
  157.1620  211.7330  155.2020 P   0  0  0  0  0  0  0  0  0  0  0  0
  156.8120  213.0010  156.2650 O   0  0  0  0  0  1  0  0  0  0  0  0
  155.7190  211.0100  154.6990 O   0  0  0  0  0  0  0  0  0  0  0  0
  160.5040  208.2400  153.3560 N   0  0  0  0  0  0  0  0  0  0  0  0
  160.0690  208.4520  151.9820 C   0  0  0  0  0  1  0  0  0  0  0  0
  161.8310  205.5520  152.5460 C   0  0  2  0  0  0  0  0  0  0  0  0
  161.5800  206.0740  153.9210 C   0  0  0  0  0  2  0  0  0  0  0  0
  162.0240  206.8990  151.9280 C   0  0  0  0  0  2  0  0  0  0  0  0
  160.5610  204.9100  152.0130 C   0  0  1  0  0  3  0  0  0  0  0  0
  160.8630  203.9710  150.8570 C   0  0  2  0  0  3  0  0  0  0  0  0
  161.8700  204.1440  151.9830 C   0  0  1  0  0  3  0  0  0  0  0  0
  161.7700  207.4890  153.3340 C   0  0  1  0  0  3  0  0  0  0  0  0
  161.6480  204.0460  148.1470 S   0  0  0  0  0  0  0  0  0  0  0  0
  161.2770  204.7380  149.6400 C   0  0  0  0  0  0  0  0  0  0  0  0
  161.9400  205.5430  147.4300 C   0  0  0  0  0  0  0  0  0  0  0  0
  161.3540  206.0880  149.6010 N   0  0  0  0  0  0  0  0  0  0  0  0
  161.8890  207.9880  148.0850 C   0  0  0  0  0  1  0  0  0  0  0  0
  161.7280  206.5380  148.3750 C   0  0  0  0  0  0  0  0  0  0  0  0
  162.3260  205.7670  146.1060 O   0  0  0  0  0  0  0  0  0  0  0  0
  161.4790  205.4720  145.0030 C   0  0  0  0  0  2  0  0  0  0  0  0
  160.0810  206.0040  145.2610 C   0  0  0  0  0  1  0  0  0  0  0  0
  1 21  1  6  0  0  0
  1  3  1  0  0  0  0
  2  6  1  0  0  0  0
  3  2  2  0  0  0  0
  3  5  1  0  0  0  0
  5  4  2  0  0  0  0
  6  4  1  0  0  0  0
  7  1  1  1  0  0  0
  8  9  1  6  0  0  0
  8 10  1  0  0  0  0
  8  7  1  0  0  0  0
 10 11  1  6  0  0  0
 10 15  1  0  0  0  0
 10  7  1  0  0  0  0
 12 11  1  0  0  0  0
 13 14  1  0  0  0  0
 14 12  1  0  0  0  0
 15 16  1  0  0  0  0
 16 18  1  0  0  0  0
 18 17  1  0  0  0  0
 18 19  1  0  0  0  0
 20 18  2  0  0  0  0
 22 21  1  0  0  0  0
 23 24  1  0  0  0  0
 25 23  1  0  0  0  0
 25 29  1  0  0  0  0
 26 23  1  0  0  0  0
 27 28  1  0  0  0  0
 27 26  1  0  0  0  0
 28 26  1  0  0  0  0
 28 23  1  0  0  0  0
 29 21  1  0  0  0  0
 29 24  1  0  0  0  0
 30 31  1  0  0  0  0
 31 27  1  0  0  0  0
 32 30  1  0  0  0  0
 32 35  2  0  0  0  0
 33 31  2  0  0  0  0
 34 35  1  0  0  0  0
 35 33  1  0  0  0  0
 36 32  1  0  0  0  0
 37 38  1  0  0  0  0
 37 36  1  0  0  0  0
M  END
>  <MODEL>
8

>  <REMARK>
 VINA RESULT:      -4.1      3.560      8.443
  Name = 
  13 active torsions:
  status: ('A' for Active; 'I' for Inactive)
    1  A    between atoms: C_2  and  C_10
    2  A    between atoms: C_2  and  O_35
    3  A    between atoms: C_3  and  C_9
    4  A    between atoms: C_4  and  O_23
    5  A    between atoms: N_6  and  C_9
    6  A    between atoms: N_6  and  C_37
    7  A    between atoms: C_8  and  C_9
    8  A    between atoms: C_10  and  C_32
    9  A    between atoms: C_13  and  C_31
   10  A    between atoms: C_14  and  O_23
   11  A    between atoms: C_15  and  C_16
   12  A    between atoms: C_15  and  P_24
   13  A    between atoms: C_16  and  C_32
                            x       y       z     vdW  Elec       q    Type
                         _______ _______ _______ _____ _____    ______ ____

>  <TORSDO>
F 13

$$$$
=
 OpenBabel11072410483D

 38 43  0  0  1  0  0  0  0  0999 V2000
  161.7300  207.6030  152.1820 C   0  0  1  0  0  3  0  0  0  0  0  0
  160.3250  209.7600  152.3600 C   0  0  0  0  0  3  0  0  0  0  0  0
  161.4540  209.0630  151.9820 C   0  0  2  0  0  3  0  0  0  0  0  0
  161.6900  211.0770  151.3260 N   0  0  0  0  0  0  0  0  0  0  0  0
  162.2860  209.8960  151.3360 N   0  0  0  0  0  0  0  0  0  0  0  0
  160.5130  211.0240  151.9330 N   0  0  0  0  0  0  0  0  0  0  0  0
  160.7220  206.9310  153.1410 C   0  0  1  0  0  3  0  0  0  0  0  0
  161.4140  205.8350  153.9380 C   0  0  2  0  0  3  0  0  0  0  0  0
  160.5010  204.8150  154.2130 O   0  0  0  0  0  1  0  0  0  0  0  0
  161.0150  207.1370  154.6310 C   0  0  2  0  0  0  0  0  0  0  0  0
  159.7250  207.1850  155.4410 C   0  0  0  0  0  2  0  0  0  0  0  0
  159.4910  208.5720  156.0060 C   0  0  0  0  0  2  0  0  0  0  0  0
  158.6180  210.5640  155.6580 C   0  0  0  0  0  1  0  0  0  0  0  0
  158.5460  209.2390  155.2300 O   0  0  0  0  0  0  0  0  0  0  0  0
  162.1050  208.1690  154.9740 C   0  0  0  0  0  2  0  0  0  0  0  0
  161.9710  208.7760  156.3660 C   0  0  0  0  0  2  0  0  0  0  0  0
  162.4500  211.0620  154.9450 O   0  0  0  0  0  0  0  0  0  0  0  0
  162.4050  210.5420  156.3640 P   0  0  0  0  0  0  0  0  0  0  0  0
  161.2360  211.4010  157.2320 O   0  0  0  0  0  1  0  0  0  0  0  0
  163.9150  210.7590  157.0940 O   0  0  0  0  0  1  0  0  0  0  0  0
  161.9200  206.9210  150.8870 N   0  0  0  0  0  0  0  0  0  0  0  0
  161.9520  205.4920  151.1660 C   0  0  0  0  0  1  0  0  0  0  0  0
  161.1650  206.9140  147.8750 C   0  0  2  0  0  0  0  0  0  0  0  0
  161.3310  208.0920  148.7770 C   0  0  0  0  0  2  0  0  0  0  0  0
  160.6820  205.9940  148.9490 C   0  0  0  0  0  2  0  0  0  0  0  0
  162.5290  206.4660  147.3770 C   0  0  1  0  0  3  0  0  0  0  0  0
  162.4050  205.6100  146.1290 C   0  0  2  0  0  3  0  0  0  0  0  0
  161.4090  206.7280  146.3890 C   0  0  1  0  0  3  0  0  0  0  0  0
  160.8380  207.1830  149.9230 C   0  0  1  0  0  3  0  0  0  0  0  0
  161.7810  203.5840  147.9930 S   0  0  0  0  0  0  0  0  0  0  0  0
  161.8140  204.2740  146.4540 C   0  0  0  0  0  0  0  0  0  0  0  0
  160.9600  202.2150  147.4540 C   0  0  0  0  0  0  0  0  0  0  0  0
  161.1960  203.4900  145.5390 N   0  0  0  0  0  0  0  0  0  0  0  0
  160.0150  201.3150  145.2840 C   0  0  0  0  0  1  0  0  0  0  0  0
  160.7260  202.3420  146.0920 C   0  0  0  0  0  0  0  0  0  0  0  0
  160.5660  201.1240  148.2350 O   0  0  0  0  0  0  0  0  0  0  0  0
  161.2130  200.7840  149.4540 C   0  0  0  0  0  2  0  0  0  0  0  0
  160.6840  201.6480  150.5850 C   0  0  0  0  0  1  0  0  0  0  0  0
  1 21  1  6  0  0  0
  3  1  1  6  0  0  0
  3  2  1  0  0  0  0
  4  5  2  0  0  0  0
  4  6  1  0  0  0  0
  5  3  1  0  0  0  0
  6  2  2  0  0  0  0
  7  1  1  6  0  0  0
  7  8  1  0  0  0  0
  7 10  1  0  0  0  0
  8  9  1  1  0  0  0
  8 10  1  0  0  0  0
 10 15  1  1  0  0  0
 10 11  1  0  0  0  0
 11 12  1  0  0  0  0
 14 13  1  0  0  0  0
 14 12  1  0  0  0  0
 15 16  1  0  0  0  0
 17 18  2  0  0  0  0
 18 16  1  0  0  0  0
 18 20  1  0  0  0  0
 18 19  1  0  0  0  0
 21 22  1  0  0  0  0
 23 24  1  0  0  0  0
 23 25  1  0  0  0  0
 24 29  1  0  0  0  0
 25 29  1  0  0  0  0
 26 23  1  0  0  0  0
 27 28  1  0  0  0  0
 27 31  1  0  0  0  0
 27 26  1  0  0  0  0
 28 26  1  0  0  0  0
 28 23  1  0  0  0  0
 29 21  1  0  0  0  0
 31 30  1  0  0  0  0
 32 30  1  0  0  0  0
 32 36  1  0  0  0  0
 33 35  1  0  0  0  0
 33 31  2  0  0  0  0
 34 35  1  0  0  0  0
 35 32  2  0  0  0  0
 36 37  1  0  0  0  0
 37 38  1  0  0  0  0
M  END
>  <MODEL>
9

>  <REMARK>
 VINA RESULT:      -4.1      3.963      9.527
  Name = 
  13 active torsions:
  status: ('A' for Active; 'I' for Inactive)
    1  A    between atoms: C_2  and  C_10
    2  A    between atoms: C_2  and  O_35
    3  A    between atoms: C_3  and  C_9
    4  A    between atoms: C_4  and  O_23
    5  A    between atoms: N_6  and  C_9
    6  A    between atoms: N_6  and  C_37
    7  A    between atoms: C_8  and  C_9
    8  A    between atoms: C_10  and  C_32
    9  A    between atoms: C_13  and  C_31
   10  A    between atoms: C_14  and  O_23
   11  A    between atoms: C_15  and  C_16
   12  A    between atoms: C_15  and  P_24
   13  A    between atoms: C_16  and  C_32
                            x       y       z     vdW  Elec       q    Type
                         _______ _______ _______ _____ _____    ______ ____

>  <TORSDO>
F 13

$$$$
