=
 OpenBabel11072414063D

 57 60  0  0  1  0  0  0  0  0999 V2000
  161.8750  207.8150  147.6240 O   0  0  0  0  0  0  0  0  0  0  0  0
  162.3270  209.8190  150.5970 C   0  0  0  0  0  2  0  0  0  0  0  0
  161.9760  208.8210  148.5940 C   0  0  0  0  0  0  0  0  0  0  0  0
  162.3250  208.5980  149.8140 N   0  0  0  0  0  0  0  0  0  0  0  0
  161.6720  210.2360  148.2880 C   0  0  0  0  0  2  0  0  0  0  0  0
  161.9050  210.9240  149.6300 C   0  0  1  0  0  3  0  0  0  0  0  0
  160.6930  211.5970  150.0920 N   0  0  0  0  0  2  0  0  0  0  0  0
  161.1660  213.7230  149.2170 O   0  0  0  0  0  0  0  0  0  0  0  0
  160.3730  212.9770  149.8550 C   0  0  0  0  0  0  0  0  0  0  0  0
  159.1060  213.5570  150.3930 C   0  0  2  0  0  3  0  0  0  0  0  0
  158.4480  214.4380  149.3450 C   0  0  0  0  0  2  0  0  0  0  0  0
  158.1810  213.6590  148.1490 N   0  0  0  0  0  2  0  0  0  0  0  0
  157.2800  214.4450  147.3230 C   0  0  0  0  0  2  0  0  0  0  0  0
  158.2720  214.0880  145.0560 C   0  0  1  0  0  3  0  0  0  0  0  0
  156.3010  214.3490  143.8130 C   0  0  0  0  0  2  0  0  0  0  0  0
  155.9090  214.3600  145.2700 C   0  0  0  0  0  2  0  0  0  0  0  0
  157.7530  214.4470  143.7400 N   0  0  0  0  0  2  0  0  0  0  0  0
  157.1010  213.7790  145.9710 C   0  0  2  0  0  3  0  0  0  0  0  0
  159.0960  212.9670  144.9490 O   0  0  0  0  0  0  0  0  0  0  0  0
  160.3580  213.4120  145.3470 C   0  0  0  0  0  2  0  0  0  0  0  0
  161.3290  212.5100  144.9100 O   0  0  0  0  0  1  0  0  0  0  0  0
  159.3710  214.3260  151.6010 N   0  0  0  0  0  2  0  0  0  0  0  0
  159.5350  213.3850  152.7010 C   0  0  0  0  0  2  0  0  0  0  0  0
  158.6810  213.7930  153.8990 C   0  0  0  0  0  2  0  0  0  0  0  0
  158.7550  212.7600  155.0180 C   0  0  0  0  0  2  0  0  0  0  0  0
  157.1310  212.1680  155.4610 S   0  0  0  0  0  0  0  0  0  0  0  0
  157.1740  210.6830  155.6970 O   0  0  0  0  0  0  0  0  0  0  0  0
  156.0020  212.5190  154.1340 C   0  0  0  0  0  1  0  0  0  0  0  0
  156.6550  212.8600  156.7090 O   0  0  0  0  0  0  0  0  0  0  0  0
  161.0660  206.6750  147.7250 C   0  0  0  0  0  0  0  0  0  0  0  0
  160.0430  206.6570  148.4610 O   0  0  0  0  0  0  0  0  0  0  0  0
  161.4320  205.4470  146.9570 C   0  0  2  0  0  3  0  0  0  0  0  0
  161.7810  204.3120  147.9120 C   0  0  0  0  0  2  0  0  0  0  0  0
  161.2540  201.2530  150.4830 O   0  0  0  0  0  0  0  0  0  0  0  0
  161.1400  201.8460  148.2100 N   0  0  0  0  0  0  0  0  0  0  0  0
  161.3350  202.9970  147.3500 C   0  0  0  0  0  0  0  0  0  0  0  0
  160.0670  203.1950  150.0100 N   0  0  0  0  0  2  0  0  0  0  0  0
  161.1750  202.9130  146.1030 O   0  0  0  0  0  0  0  0  0  0  0  0
  160.8430  202.0620  149.6080 C   0  0  0  0  0  0  0  0  0  0  0  0
  161.2420  200.4910  147.7020 C   0  0  0  0  0  0  0  0  0  0  0  0
  161.3700  199.5230  148.5030 O   0  0  0  0  0  0  0  0  0  0  0  0
  161.1410  200.1870  146.2320 C   0  0  1  0  0  3  0  0  0  0  0  0
  161.4610  198.7900  145.9830 N   0  0  0  0  0  1  0  0  0  0  0  0
  159.8040  201.5220  144.6810 N   0  0  0  0  0  1  0  0  0  0  0  0
  159.7420  200.4960  145.7130 C   0  0  0  0  0  2  0  0  0  0  0  0
  159.7850  203.4340  151.3140 O   0  0  0  0  0  0  0  0  0  0  0  0
  160.8140  204.5660  153.1420 C   0  0  0  0  0  2  0  0  0  0  0  0
  161.8560  204.5670  150.9720 C   0  0  0  0  0  2  0  0  0  0  0  0
  162.6670  205.5110  151.8520 C   0  0  1  0  0  3  0  0  0  0  0  0
  161.0180  203.7230  151.9040 C   0  0  2  0  0  3  0  0  0  0  0  0
  161.9020  206.7470  152.3300 C   0  0  2  0  0  3  0  0  0  0  0  0
  162.0080  205.5110  153.2250 C   0  0  1  0  0  3  0  0  0  0  0  0
  160.6440  206.8700  151.7240 O   0  0  0  0  0  1  0  0  0  0  0  0
  162.5240  205.7180  146.1310 O   0  0  0  0  0  0  0  0  0  0  0  0
  162.2450  205.0420  144.9380 C   0  0  0  0  0  2  0  0  0  0  0  0
  161.7050  205.8610  142.4950 C   0  0  0  0  0  1  0  0  0  0  0  0
  160.8460  205.8400  144.0970 S   0  0  0  0  0  0  0  0  0  0  0  0
  1 30  1  0  0  0  0
  1  3  1  0  0  0  0
  3  4  2  0  0  0  0
  4  2  1  0  0  0  0
  5  3  1  0  0  0  0
  5  6  1  0  0  0  0
  6  7  1  1  0  0  0
  6  2  1  0  0  0  0
  8  9  2  0  0  0  0
  9  7  1  0  0  0  0
  9 10  1  0  0  0  0
 10 11  1  6  0  0  0
 10 22  1  0  0  0  0
 12 11  1  0  0  0  0
 13 12  1  0  0  0  0
 14 19  1  6  0  0  0
 14 18  1  0  0  0  0
 15 16  1  0  0  0  0
 16 18  1  0  0  0  0
 17 15  1  0  0  0  0
 17 14  1  0  0  0  0
 18 13  1  1  0  0  0
 19 20  1  0  0  0  0
 21 20  1  0  0  0  0
 22 23  1  0  0  0  0
 23 24  1  0  0  0  0
 24 25  1  0  0  0  0
 25 26  1  0  0  0  0
 26 27  2  0  0  0  0
 26 29  2  0  0  0  0
 28 26  1  0  0  0  0
 30 31  2  0  0  0  0
 32 30  1  0  0  0  0
 32 33  1  1  0  0  0
 35 39  1  0  0  0  0
 36 33  1  0  0  0  0
 36 35  1  0  0  0  0
 37 46  1  0  0  0  0
 38 36  2  0  0  0  0
 39 37  1  0  0  0  0
 39 34  2  0  0  0  0
 40 35  1  0  0  0  0
 40 41  2  0  0  0  0
 42 43  1  1  0  0  0
 42 40  1  0  0  0  0
 44 45  1  0  0  0  0
 45 42  1  0  0  0  0
 48 50  1  0  0  0  0
 49 48  1  6  0  0  0
 49 51  1  0  0  0  0
 49 52  1  0  0  0  0
 50 46  1  6  0  0  0
 50 47  1  0  0  0  0
 51 53  1  6  0  0  0
 51 52  1  0  0  0  0
 52 47  1  6  0  0  0
 54 32  1  0  0  0  0
 55 54  1  0  0  0  0
 56 57  1  0  0  0  0
 57 55  1  0  0  0  0
M  END
>  <MODEL>
1

>  <REMARK>
 VINA RESULT:      -3.5      0.000      0.000
  Name = 
  25 active torsions:
  status: ('A' for Active; 'I' for Inactive)
    1  A    between atoms: C_1  and  C_26
    2  A    between atoms: C_1  and  O_54
    3  A    between atoms: O_2  and  C_26
    4  A    between atoms: O_2  and  C_44
    5  A    between atoms: C_3  and  O_42
    6  A    between atoms: C_4  and  O_42
    7  A    between atoms: N_5  and  C_49
    8  A    between atoms: C_7  and  S_28
    9  A    between atoms: C_7  and  C_39
   10  A    between atoms: N_10  and  C_23
   11  A    between atoms: N_10  and  C_51
   12  A    between atoms: C_11  and  C_41
   13  A    between atoms: N_14  and  O_40
   14  A    between atoms: C_16  and  C_39
   15  A    between atoms: C_16  and  N_57
   16  A    between atoms: S_17  and  C_44
   17  A    between atoms: C_23  and  C_34
   18  A    between atoms: C_24  and  O_54
   19  A    between atoms: C_26  and  C_41
   20  A    between atoms: C_30  and  C_31
   21  A    between atoms: C_31  and  C_50
   22  A    between atoms: C_32  and  O_40
   23  A    between atoms: C_34  and  C_53
   24  A    between atoms: C_34  and  N_57
   25  A    between atoms: C_48  and  C_51
                            x       y       z     vdW  Elec       q    Type
                         _______ _______ _______ _____ _____    ______ ____

>  <TORSDO>
F 25

$$$$
=
 OpenBabel11072414063D

 57 60  0  0  1  0  0  0  0  0999 V2000
  162.4940  206.1430  147.0250 O   0  0  0  0  0  0  0  0  0  0  0  0
  162.6110  204.9580  143.6140 C   0  0  0  0  0  2  0  0  0  0  0  0
  162.2630  205.8030  145.6860 C   0  0  0  0  0  0  0  0  0  0  0  0
  163.1080  205.1540  144.9620 N   0  0  0  0  0  0  0  0  0  0  0  0
  161.0150  206.1810  144.9880 C   0  0  0  0  0  2  0  0  0  0  0  0
  161.2330  205.6170  143.5870 C   0  0  1  0  0  3  0  0  0  0  0  0
  161.1720  206.6750  142.5790 N   0  0  0  0  0  2  0  0  0  0  0  0
  162.4170  205.5890  140.9130 O   0  0  0  0  0  0  0  0  0  0  0  0
  161.7660  206.6070  141.2730 C   0  0  0  0  0  0  0  0  0  0  0  0
  161.6480  207.7620  140.3350 C   0  0  2  0  0  3  0  0  0  0  0  0
  161.9570  207.3160  138.9160 C   0  0  0  0  0  2  0  0  0  0  0  0
  161.0830  208.0060  137.9840 N   0  0  0  0  0  2  0  0  0  0  0  0
  159.9050  208.4150  138.7310 C   0  0  0  0  0  2  0  0  0  0  0  0
  158.7440  210.6180  138.9640 C   0  0  1  0  0  3  0  0  0  0  0  0
  156.9620  210.1820  137.5020 C   0  0  0  0  0  2  0  0  0  0  0  0
  157.9170  209.0190  137.3940 C   0  0  0  0  0  2  0  0  0  0  0  0
  157.3680  210.9890  138.6460 N   0  0  0  0  0  2  0  0  0  0  0  0
  159.1900  209.5360  137.9970 C   0  0  2  0  0  3  0  0  0  0  0  0
  159.5740  211.7330  138.8410 O   0  0  0  0  0  0  0  0  0  0  0  0
  158.8190  212.7960  139.3400 C   0  0  0  0  0  2  0  0  0  0  0  0
  159.4040  213.2710  140.5140 O   0  0  0  0  0  1  0  0  0  0  0  0
  162.5480  208.8360  140.7320 N   0  0  0  0  0  2  0  0  0  0  0  0
  162.8090  209.6560  139.5560 C   0  0  0  0  0  2  0  0  0  0  0  0
  163.1110  211.0990  139.9560 C   0  0  0  0  0  2  0  0  0  0  0  0
  162.9100  212.0570  138.7870 C   0  0  0  0  0  2  0  0  0  0  0  0
  163.9670  213.4880  138.9340 S   0  0  0  0  0  0  0  0  0  0  0  0
  165.4100  213.0660  138.8770 O   0  0  0  0  0  0  0  0  0  0  0  0
  163.6490  214.2880  140.4890 C   0  0  0  0  0  1  0  0  0  0  0  0
  163.6820  214.4530  137.8160 O   0  0  0  0  0  0  0  0  0  0  0  0
  161.5350  206.6680  147.9020 C   0  0  0  0  0  0  0  0  0  0  0  0
  160.3210  206.7590  147.5720 O   0  0  0  0  0  0  0  0  0  0  0  0
  161.9600  207.1480  149.2510 C   0  0  2  0  0  3  0  0  0  0  0  0
  160.7420  207.3890  150.1340 C   0  0  0  0  0  2  0  0  0  0  0  0
  160.3770  204.7370  153.1470 O   0  0  0  0  0  0  0  0  0  0  0  0
  161.0470  206.9340  152.6400 N   0  0  0  0  0  0  0  0  0  0  0  0
  161.1640  207.8260  151.5030 C   0  0  0  0  0  0  0  0  0  0  0  0
  161.8300  204.9540  151.3460 N   0  0  0  0  0  2  0  0  0  0  0  0
  161.5840  209.0060  151.6420 O   0  0  0  0  0  0  0  0  0  0  0  0
  161.0500  205.5070  152.4100 C   0  0  0  0  0  0  0  0  0  0  0  0
  160.9210  207.4400  153.9940 C   0  0  0  0  0  0  0  0  0  0  0  0
  160.5230  206.6780  154.9200 O   0  0  0  0  0  0  0  0  0  0  0  0
  161.3120  208.8480  154.3520 C   0  0  1  0  0  3  0  0  0  0  0  0
  160.1430  209.7150  154.3320 N   0  0  0  0  0  1  0  0  0  0  0  0
  161.7240  210.1860  156.3550 N   0  0  0  0  0  1  0  0  0  0  0  0
  161.9630  208.8930  155.7280 C   0  0  0  0  0  2  0  0  0  0  0  0
  161.8420  203.6210  151.0940 O   0  0  0  0  0  0  0  0  0  0  0  0
  160.1990  202.0930  150.2940 C   0  0  0  0  0  2  0  0  0  0  0  0
  161.5250  203.3700  148.7440 C   0  0  0  0  0  2  0  0  0  0  0  0
  160.7120  202.3800  147.9180 C   0  0  1  0  0  3  0  0  0  0  0  0
  160.8740  203.4310  150.1050 C   0  0  2  0  0  3  0  0  0  0  0  0
  161.0500  200.9100  148.1770 C   0  0  2  0  0  3  0  0  0  0  0  0
  159.8730  201.5710  148.8980 C   0  0  1  0  0  3  0  0  0  0  0  0
  162.1710  200.7520  149.0040 O   0  0  0  0  0  1  0  0  0  0  0  0
  162.6880  208.3320  149.1200 O   0  0  0  0  0  0  0  0  0  0  0  0
  161.9020  209.1450  148.2970 C   0  0  0  0  0  2  0  0  0  0  0  0
  160.9370  211.4710  147.5290 C   0  0  0  0  0  1  0  0  0  0  0  0
  162.1980  210.8910  148.7030 S   0  0  0  0  0  0  0  0  0  0  0  0
  1 30  1  0  0  0  0
  2  4  1  0  0  0  0
  3  1  1  0  0  0  0
  4  3  2  0  0  0  0
  5  3  1  0  0  0  0
  6  7  1  6  0  0  0
  6  2  1  0  0  0  0
  6  5  1  0  0  0  0
  8  9  2  0  0  0  0
  9  7  1  0  0  0  0
 10 11  1  6  0  0  0
 10 22  1  0  0  0  0
 10  9  1  0  0  0  0
 12 13  1  0  0  0  0
 12 11  1  0  0  0  0
 14 19  1  6  0  0  0
 15 17  1  0  0  0  0
 16 15  1  0  0  0  0
 16 18  1  0  0  0  0
 17 14  1  0  0  0  0
 18 13  1  1  0  0  0
 18 14  1  0  0  0  0
 19 20  1  0  0  0  0
 20 21  1  0  0  0  0
 23 24  1  0  0  0  0
 23 22  1  0  0  0  0
 25 26  1  0  0  0  0
 25 24  1  0  0  0  0
 26 28  1  0  0  0  0
 27 26  2  0  0  0  0
 29 26  2  0  0  0  0
 30 32  1  0  0  0  0
 31 30  2  0  0  0  0
 32 33  1  1  0  0  0
 33 36  1  0  0  0  0
 35 40  1  0  0  0  0
 36 38  2  0  0  0  0
 36 35  1  0  0  0  0
 37 39  1  0  0  0  0
 39 35  1  0  0  0  0
 39 34  2  0  0  0  0
 40 42  1  0  0  0  0
 40 41  2  0  0  0  0
 42 43  1  1  0  0  0
 42 45  1  0  0  0  0
 45 44  1  0  0  0  0
 46 37  1  0  0  0  0
 48 50  1  0  0  0  0
 49 51  1  0  0  0  0
 49 48  1  1  0  0  0
 49 52  1  0  0  0  0
 50 47  1  0  0  0  0
 50 46  1  1  0  0  0
 51 52  1  0  0  0  0
 51 53  1  1  0  0  0
 52 47  1  1  0  0  0
 54 32  1  0  0  0  0
 55 57  1  0  0  0  0
 55 54  1  0  0  0  0
 56 57  1  0  0  0  0
M  END
>  <MODEL>
2

>  <REMARK>
 VINA RESULT:      -3.2      4.552      9.576
  Name = 
  25 active torsions:
  status: ('A' for Active; 'I' for Inactive)
    1  A    between atoms: C_1  and  C_26
    2  A    between atoms: C_1  and  O_54
    3  A    between atoms: O_2  and  C_26
    4  A    between atoms: O_2  and  C_44
    5  A    between atoms: C_3  and  O_42
    6  A    between atoms: C_4  and  O_42
    7  A    between atoms: N_5  and  C_49
    8  A    between atoms: C_7  and  S_28
    9  A    between atoms: C_7  and  C_39
   10  A    between atoms: N_10  and  C_23
   11  A    between atoms: N_10  and  C_51
   12  A    between atoms: C_11  and  C_41
   13  A    between atoms: N_14  and  O_40
   14  A    between atoms: C_16  and  C_39
   15  A    between atoms: C_16  and  N_57
   16  A    between atoms: S_17  and  C_44
   17  A    between atoms: C_23  and  C_34
   18  A    between atoms: C_24  and  O_54
   19  A    between atoms: C_26  and  C_41
   20  A    between atoms: C_30  and  C_31
   21  A    between atoms: C_31  and  C_50
   22  A    between atoms: C_32  and  O_40
   23  A    between atoms: C_34  and  C_53
   24  A    between atoms: C_34  and  N_57
   25  A    between atoms: C_48  and  C_51
                            x       y       z     vdW  Elec       q    Type
                         _______ _______ _______ _____ _____    ______ ____

>  <TORSDO>
F 25

$$$$
=
 OpenBabel11072414063D

 57 60  0  0  1  0  0  0  0  0999 V2000
  160.4800  211.4810  145.6610 O   0  0  0  0  0  0  0  0  0  0  0  0
  158.7190  213.8170  143.5400 C   0  0  0  0  0  2  0  0  0  0  0  0
  160.0680  212.4240  144.7110 C   0  0  0  0  0  0  0  0  0  0  0  0
  158.8600  212.8630  144.6220 N   0  0  0  0  0  0  0  0  0  0  0  0
  161.0030  212.9890  143.7130 C   0  0  0  0  0  2  0  0  0  0  0  0
  160.1080  213.9320  142.9140 C   0  0  1  0  0  3  0  0  0  0  0  0
  160.0840  213.5620  141.5000 N   0  0  0  0  0  2  0  0  0  0  0  0
  157.9720  214.4430  140.9840 O   0  0  0  0  0  0  0  0  0  0  0  0
  159.0100  213.8450  140.5900 C   0  0  0  0  0  0  0  0  0  0  0  0
  159.0950  213.4010  139.1670 C   0  0  2  0  0  3  0  0  0  0  0  0
  157.7020  213.1680  138.6080 C   0  0  0  0  0  2  0  0  0  0  0  0
  157.5220  211.7570  138.3140 N   0  0  0  0  0  2  0  0  0  0  0  0
  156.5720  211.2390  139.2830 C   0  0  0  0  0  2  0  0  0  0  0  0
  154.1250  211.5330  138.8600 C   0  0  1  0  0  3  0  0  0  0  0  0
  153.5060  209.2790  139.0560 C   0  0  0  0  0  2  0  0  0  0  0  0
  155.0130  209.3300  139.1110 C   0  0  0  0  0  2  0  0  0  0  0  0
  153.0080  210.6440  139.1690 N   0  0  0  0  0  2  0  0  0  0  0  0
  155.3510  210.6870  138.5690 C   0  0  2  0  0  3  0  0  0  0  0  0
  153.8130  212.3140  137.7460 O   0  0  0  0  0  0  0  0  0  0  0  0
  154.5650  213.4800  137.9060 C   0  0  0  0  0  2  0  0  0  0  0  0
  153.8330  214.4070  138.6480 O   0  0  0  0  0  1  0  0  0  0  0  0
  159.8890  212.1850  139.0590 N   0  0  0  0  0  2  0  0  0  0  0  0
  161.2950  212.5690  139.0640 C   0  0  0  0  0  2  0  0  0  0  0  0
  162.1950  211.3370  139.1280 C   0  0  0  0  0  2  0  0  0  0  0  0
  161.5100  210.1800  139.8470 C   0  0  0  0  0  2  0  0  0  0  0  0
  161.2230  208.8090  138.7410 S   0  0  0  0  0  0  0  0  0  0  0  0
  162.1760  208.8800  137.5800 O   0  0  0  0  0  0  0  0  0  0  0  0
  159.5530  208.8900  138.1370 C   0  0  0  0  0  1  0  0  0  0  0  0
  161.4190  207.5090  139.4730 O   0  0  0  0  0  0  0  0  0  0  0  0
  160.4260  211.6580  147.0500 C   0  0  0  0  0  0  0  0  0  0  0  0
  159.3580  211.9950  147.6290 O   0  0  0  0  0  0  0  0  0  0  0  0
  161.6630  211.4610  147.8630 C   0  0  2  0  0  3  0  0  0  0  0  0
  161.8260  209.9920  148.2310 C   0  0  0  0  0  2  0  0  0  0  0  0
  160.8050  206.3800  149.7000 O   0  0  0  0  0  0  0  0  0  0  0  0
  161.4510  208.5540  150.3210 N   0  0  0  0  0  0  0  0  0  0  0  0
  161.8230  209.8190  149.7180 C   0  0  0  0  0  0  0  0  0  0  0  0
  162.6850  207.2170  148.6180 N   0  0  0  0  0  2  0  0  0  0  0  0
  162.1140  210.8190  150.4290 O   0  0  0  0  0  0  0  0  0  0  0  0
  161.6070  207.3420  149.5510 C   0  0  0  0  0  0  0  0  0  0  0  0
  160.9240  208.4810  151.6710 C   0  0  0  0  0  0  0  0  0  0  0  0
  160.3330  207.4360  152.0640 O   0  0  0  0  0  0  0  0  0  0  0  0
  161.1110  209.6030  152.6560 C   0  0  1  0  0  3  0  0  0  0  0  0
  159.8440  209.9330  153.2900 N   0  0  0  0  0  1  0  0  0  0  0  0
  163.1750  210.2400  153.7990 N   0  0  0  0  0  1  0  0  0  0  0  0
  162.1350  209.2230  153.7170 C   0  0  0  0  0  2  0  0  0  0  0  0
  162.8490  206.1000  147.8690 O   0  0  0  0  0  0  0  0  0  0  0  0
  160.7850  206.2010  146.6810 C   0  0  0  0  0  2  0  0  0  0  0  0
  162.7870  205.4530  145.5740 C   0  0  0  0  0  2  0  0  0  0  0  0
  161.6350  205.2330  144.6000 C   0  0  1  0  0  3  0  0  0  0  0  0
  162.2810  206.4080  146.6300 C   0  0  2  0  0  3  0  0  0  0  0  0
  160.5970  204.2110  145.0670 C   0  0  2  0  0  3  0  0  0  0  0  0
  160.3680  205.7050  145.3000 C   0  0  1  0  0  3  0  0  0  0  0  0
  160.9900  203.5350  146.2310 O   0  0  0  0  0  1  0  0  0  0  0  0
  161.5890  212.2310  149.0250 O   0  0  0  0  0  0  0  0  0  0  0  0
  162.1000  213.4810  148.6590 C   0  0  0  0  0  2  0  0  0  0  0  0
  159.7420  214.4530  149.3130 C   0  0  0  0  0  1  0  0  0  0  0  0
  160.8040  214.4530  147.8370 S   0  0  0  0  0  0  0  0  0  0  0  0
  1 30  1  0  0  0  0
  2  4  1  0  0  0  0
  3  1  1  0  0  0  0
  4  3  2  0  0  0  0
  5  3  1  0  0  0  0
  6  7  1  6  0  0  0
  6  2  1  0  0  0  0
  6  5  1  0  0  0  0
  9  8  2  0  0  0  0
  9  7  1  0  0  0  0
 10 11  1  1  0  0  0
 10  9  1  0  0  0  0
 12 11  1  0  0  0  0
 12 13  1  0  0  0  0
 14 19  1  6  0  0  0
 14 17  1  0  0  0  0
 15 16  1  0  0  0  0
 15 17  1  0  0  0  0
 18 14  1  0  0  0  0
 18 16  1  0  0  0  0
 18 13  1  1  0  0  0
 19 20  1  0  0  0  0
 20 21  1  0  0  0  0
 22 23  1  0  0  0  0
 22 10  1  0  0  0  0
 23 24  1  0  0  0  0
 24 25  1  0  0  0  0
 26 29  2  0  0  0  0
 26 25  1  0  0  0  0
 27 26  2  0  0  0  0
 28 26  1  0  0  0  0
 30 31  2  0  0  0  0
 30 32  1  0  0  0  0
 32 33  1  1  0  0  0
 32 54  1  0  0  0  0
 33 36  1  0  0  0  0
 35 40  1  0  0  0  0
 36 35  1  0  0  0  0
 36 38  2  0  0  0  0
 37 39  1  0  0  0  0
 39 34  2  0  0  0  0
 39 35  1  0  0  0  0
 40 41  2  0  0  0  0
 40 42  1  0  0  0  0
 42 43  1  1  0  0  0
 42 45  1  0  0  0  0
 45 44  1  0  0  0  0
 46 37  1  0  0  0  0
 48 50  1  0  0  0  0
 49 51  1  0  0  0  0
 49 52  1  0  0  0  0
 49 48  1  1  0  0  0
 50 47  1  0  0  0  0
 50 46  1  1  0  0  0
 51 52  1  0  0  0  0
 51 53  1  1  0  0  0
 52 47  1  1  0  0  0
 55 54  1  0  0  0  0
 57 55  1  0  0  0  0
 57 56  1  0  0  0  0
M  END
>  <MODEL>
3

>  <REMARK>
 VINA RESULT:      -3.1      4.478      9.844
  Name = 
  25 active torsions:
  status: ('A' for Active; 'I' for Inactive)
    1  A    between atoms: C_1  and  C_26
    2  A    between atoms: C_1  and  O_54
    3  A    between atoms: O_2  and  C_26
    4  A    between atoms: O_2  and  C_44
    5  A    between atoms: C_3  and  O_42
    6  A    between atoms: C_4  and  O_42
    7  A    between atoms: N_5  and  C_49
    8  A    between atoms: C_7  and  S_28
    9  A    between atoms: C_7  and  C_39
   10  A    between atoms: N_10  and  C_23
   11  A    between atoms: N_10  and  C_51
   12  A    between atoms: C_11  and  C_41
   13  A    between atoms: N_14  and  O_40
   14  A    between atoms: C_16  and  C_39
   15  A    between atoms: C_16  and  N_57
   16  A    between atoms: S_17  and  C_44
   17  A    between atoms: C_23  and  C_34
   18  A    between atoms: C_24  and  O_54
   19  A    between atoms: C_26  and  C_41
   20  A    between atoms: C_30  and  C_31
   21  A    between atoms: C_31  and  C_50
   22  A    between atoms: C_32  and  O_40
   23  A    between atoms: C_34  and  C_53
   24  A    between atoms: C_34  and  N_57
   25  A    between atoms: C_48  and  C_51
                            x       y       z     vdW  Elec       q    Type
                         _______ _______ _______ _____ _____    ______ ____

>  <TORSDO>
F 25

$$$$
