=
 OpenBabel11072412433D

 66 74  0  0  1  0  0  0  0  0999 V2000
  162.3960  209.9890  154.5350 C   0  0  0  0  0  2  0  0  0  0  0  0
  162.0440  208.7960  153.6540 C   0  0  0  0  0  2  0  0  0  0  0  0
  160.5800  209.2930  156.1820 C   0  0  0  0  0  2  0  0  0  0  0  0
  161.4410  207.6370  154.4490 C   0  0  1  0  0  3  0  0  0  0  0  0
  160.2350  208.0990  155.2930 C   0  0  1  0  0  3  0  0  0  0  0  0
  161.2110  210.4370  155.3890 C   0  0  2  0  0  3  0  0  0  0  0  0
  160.2290  211.4080  154.7080 C   0  0  1  0  0  3  0  0  0  0  0  0
  159.2480  214.1730  156.6200 C   0  0  0  0  0  2  0  0  0  0  0  0
  159.5190  210.0810  152.8420 O   0  0  0  0  0  1  0  0  0  0  0  0
  159.9200  212.3750  152.3190 C   0  0  0  0  0  2  0  0  0  0  0  0
  160.3850  212.8900  155.1270 C   0  0  1  0  0  3  0  0  0  0  0  0
  159.4970  213.8450  154.3280 C   0  0  2  0  0  3  0  0  0  0  0  0
  158.4910  214.3580  155.3280 C   0  0  1  0  0  3  0  0  0  0  0  0
  160.0780  213.0440  156.4960 O   0  0  0  0  0  0  0  0  0  0  0  0
  158.9070  213.2620  153.0320 C   0  0  1  0  0  3  0  0  0  0  0  0
  160.3100  211.1770  153.1860 C   0  0  1  0  0  3  0  0  0  0  0  0
  157.1850  213.5920  155.3480 C   0  0  0  0  0  0  0  0  0  0  0  0
  157.1160  212.5050  156.1330 C   0  0  0  0  0  3  0  0  0  0  0  0
  155.8710  211.6930  156.3210 C   0  0  0  0  0  2  0  0  0  0  0  0
  157.1020  209.8200  155.3640 N   0  0  0  0  0  2  0  0  0  0  0  0
  155.8320  210.5610  155.3130 C   0  0  2  0  0  3  0  0  0  0  0  0
  156.8480  210.7950  154.2930 C   0  0  0  0  0  2  0  0  0  0  0  0
  155.9670  214.1290  154.6430 C   0  0  0  0  0  2  0  0  0  0  0  0
  154.5340  213.6140  153.1350 O   0  0  0  0  0  1  0  0  0  0  0  0
  155.8160  213.4980  153.4070 O   0  0  0  0  0  0  0  0  0  0  0  0
  158.3280  214.2390  152.1930 O   0  0  0  0  0  0  0  0  0  0  0  0
  159.1540  214.4480  151.0730 C   0  0  0  0  0  2  0  0  0  0  0  0
  157.1760  214.1510  149.6550 C   0  0  0  0  0  3  0  0  0  0  0  0
  158.4820  213.9330  149.8470 C   0  0  0  0  0  0  0  0  0  0  0  0
  159.2630  213.0960  148.8690 C   0  0  0  0  0  2  0  0  0  0  0  0
  157.2200  213.1830  147.4150 C   0  0  0  0  0  3  0  0  0  0  0  0
  158.7240  213.2420  147.4370 C   0  0  1  0  0  3  0  0  0  0  0  0
  159.1410  214.4520  146.9050 F   0  0  0  0  0  0  0  0  0  0  0  0
  156.5040  213.6520  148.4410 C   0  0  0  0  0  3  0  0  0  0  0  0
  160.2140  206.7990  152.4250 N   0  0  0  0  0  0  0  0  0  0  0  0
  161.0460  206.5750  153.4670 C   0  0  0  0  0  0  0  0  0  0  0  0
  161.0410  204.7660  152.3860 C   0  0  0  0  0  0  0  0  0  0  0  0
  160.2100  205.6450  151.7320 C   0  0  0  0  0  2  0  0  0  0  0  0
  161.5910  205.3430  153.4670 N   0  0  0  0  0  0  0  0  0  0  0  0
  161.4460  203.4290  151.8620 C   0  0  0  0  0  2  0  0  0  0  0  0
  161.9680  204.5110  149.7730 N   0  0  0  0  0  0  0  0  0  0  0  0
  161.5070  203.4520  150.3700 C   0  0  0  0  0  0  0  0  0  0  0  0
  161.3530  202.0050  148.4260 N   0  0  0  0  0  0  0  0  0  0  0  0
  161.0270  202.2620  149.6500 C   0  0  0  0  0  3  0  0  0  0  0  0
  160.8220  200.8300  147.7500 C   0  0  0  0  0  2  0  0  0  0  0  0
  159.5560  200.8390  145.7070 O   0  0  0  0  0  1  0  0  0  0  0  0
  160.8350  201.0290  146.2390 C   0  0  1  0  0  3  0  0  0  0  0  0
  161.3880  202.4040  145.8600 C   0  0  0  0  0  2  0  0  0  0  0  0
  160.3930  203.2560  145.0670 C   0  0  0  0  0  2  0  0  0  0  0  0
  160.6210  204.7430  145.3080 C   0  0  0  0  0  2  0  0  0  0  0  0
  160.9650  205.3740  144.1100 O   0  0  0  0  0  1  0  0  0  0  0  0
  162.1270  204.6180  148.4100 O   0  0  0  0  0  0  0  0  0  0  0  0
  160.9680  208.1750  148.5900 C   0  0  1  0  0  0  0  0  0  0  0  0
  161.2000  208.0080  150.1170 C   0  0  0  0  0  2  0  0  0  0  0  0
  161.8250  205.8420  147.7590 C   0  0  2  0  0  3  0  0  0  0  0  0
  161.4660  209.3020  149.5250 C   0  0  1  0  0  3  0  0  0  0  0  0
  162.2830  208.2130  147.8450 C   0  0  1  0  0  3  0  0  0  0  0  0
  162.8110  209.2640  148.8100 C   0  0  1  0  0  3  0  0  0  0  0  0
  162.9290  206.8510  148.0100 C   0  0  0  0  0  2  0  0  0  0  0  0
  160.2460  206.5220  148.3960 S   0  0  0  0  0  0  0  0  0  0  0  0
  164.1570  210.7370  147.4730 O   0  0  0  0  0  0  0  0  0  0  0  0
  162.1340  211.5700  148.1510 O   0  0  0  0  0  1  0  0  0  0  0  0
  163.0790  210.5540  148.1010 C   0  0  0  0  0  0  0  0  0  0  0  0
  158.5910  206.4820  155.8930 O   0  0  0  0  0  0  0  0  0  0  0  0
  159.7110  206.9910  156.1510 C   0  0  0  0  0  0  0  0  0  0  0  0
  160.4370  206.5450  157.2490 O   0  0  0  0  0  1  0  0  0  0  0  0
  2  4  1  0  0  0  0
  2  1  1  0  0  0  0
  4 36  1  6  0  0  0
  4  5  1  0  0  0  0
  5 65  1  1  0  0  0
  5  3  1  0  0  0  0
  6  1  1  6  0  0  0
  6  3  1  0  0  0  0
  7 11  1  0  0  0  0
  7  6  1  1  0  0  0
  9 16  1  0  0  0  0
 10 15  1  0  0  0  0
 10 16  1  0  0  0  0
 11 14  1  1  0  0  0
 12 11  1  0  0  0  0
 12 13  1  0  0  0  0
 13 17  1  0  0  0  0
 13  8  1  0  0  0  0
 14  8  1  0  0  0  0
 15 12  1  0  0  0  0
 16  7  1  0  0  0  0
 17 18  2  0  0  0  0
 18 19  1  0  0  0  0
 21 20  1  0  0  0  0
 21 19  1  0  0  0  0
 22 21  1  0  0  0  0
 22 20  1  0  0  0  0
 23 17  1  0  0  0  0
 24 25  1  0  0  0  0
 25 23  1  0  0  0  0
 26 15  1  0  0  0  0
 27 26  1  0  0  0  0
 28 29  2  0  0  0  0
 29 27  1  0  0  0  0
 30 29  1  0  0  0  0
 31 32  1  0  0  0  0
 31 34  2  0  0  0  0
 32 30  1  0  0  0  0
 33 32  1  0  0  0  0
 34 28  1  0  0  0  0
 35 36  2  0  0  0  0
 36 39  1  0  0  0  0
 37 39  2  0  0  0  0
 38 37  1  0  0  0  0
 38 35  1  0  0  0  0
 40 37  1  0  0  0  0
 41 42  2  0  0  0  0
 42 40  1  0  0  0  0
 43 44  2  0  0  0  0
 44 42  1  0  0  0  0
 45 43  1  0  0  0  0
 46 47  1  0  0  0  0
 47 45  1  0  0  0  0
 48 47  1  0  0  0  0
 49 50  1  0  0  0  0
 49 48  1  0  0  0  0
 51 50  1  0  0  0  0
 52 41  1  0  0  0  0
 53 56  1  0  0  0  0
 53 54  1  0  0  0  0
 55 59  1  0  0  0  0
 55 60  1  0  0  0  0
 55 52  1  0  0  0  0
 56 54  1  0  0  0  0
 57 59  1  0  0  0  0
 57 53  1  0  0  0  0
 57 58  1  0  0  0  0
 58 56  1  0  0  0  0
 60 53  1  0  0  0  0
 61 63  2  0  0  0  0
 63 62  1  0  0  0  0
 63 58  1  0  0  0  0
 64 65  2  0  0  0  0
 65 66  1  0  0  0  0
M  END
>  <MODEL>
1

>  <REMARK>
 VINA RESULT:      -0.7      0.000      0.000
  Name = 
  22 active torsions:
  status: ('A' for Active; 'I' for Inactive)
    1  A    between atoms: C_5  and  C_66
    2  A    between atoms: O_8  and  N_25
    3  A    between atoms: O_8  and  C_38
    4  A    between atoms: C_9  and  C_43
    5  A    between atoms: C_9  and  C_57
    6  A    between atoms: C_11  and  C_50
    7  A    between atoms: N_12  and  C_22
    8  A    between atoms: C_13  and  C_47
    9  A    between atoms: C_17  and  C_21
   10  A    between atoms: C_17  and  O_34
   11  A    between atoms: C_18  and  C_19
   12  A    between atoms: C_18  and  C_46
   13  A    between atoms: C_20  and  C_62
   14  A    between atoms: C_22  and  C_60
   15  A    between atoms: C_27  and  C_55
   16  A    between atoms: O_34  and  C_48
   17  A    between atoms: C_35  and  C_51
   18  A    between atoms: C_39  and  C_55
   19  A    between atoms: C_46  and  C_58
   20  A    between atoms: C_47  and  C_52
   21  A    between atoms: C_52  and  C_60
   22  A    between atoms: C_57  and  O_65
                            x       y       z     vdW  Elec       q    Type
                         _______ _______ _______ _____ _____    ______ ____

>  <TORSDO>
F 22

$$$$
