=
 OpenBabel11072411553D

 32 35  0  0  1  0  0  0  0  0999 V2000
  162.4480  206.9550  150.0000 C   0  0  0  0  0  2  0  0  0  0  0  0
  160.3950  206.5390  148.5310 C   0  0  1  0  0  3  0  0  0  0  0  0
  161.0470  207.3830  149.5870 C   0  0  2  0  0  3  0  0  0  0  0  0
  161.0760  207.7350  148.2240 O   0  0  0  0  0  0  0  0  0  0  0  0
  161.1900  205.3700  148.1350 N   0  0  0  0  0  0  0  0  0  0  0  0
  161.0420  204.1390  148.8820 C   0  0  0  0  0  0  0  0  0  0  0  0
  160.5550  204.1810  150.0450 O   0  0  0  0  0  0  0  0  0  0  0  0
  161.4310  202.8110  148.3660 C   0  0  0  0  0  3  0  0  0  0  0  0
  160.6320  202.0130  147.6620 C   0  0  0  0  0  3  0  0  0  0  0  0
  161.0920  200.7120  147.1750 C   0  0  0  0  0  0  0  0  0  0  0  0
  161.6620  199.9200  147.9690 O   0  0  0  0  0  1  0  0  0  0  0  0
  160.8990  200.3380  145.8480 O   0  0  0  0  0  0  0  0  0  0  0  0
  161.9450  205.4440  146.8850 C   0  0  0  0  0  2  0  0  0  0  0  0
  161.8000  205.4390  144.4220 C   0  0  0  0  0  2  0  0  0  0  0  0
  160.9900  204.2610  144.9260 C   0  0  0  0  0  2  0  0  0  0  0  0
  160.9990  205.5650  145.7030 C   0  0  0  0  0  3  0  0  0  0  0  0
  162.5680  206.9870  151.5130 C   0  0  0  0  0  2  0  0  0  0  0  0
  160.5260  210.5210  153.4150 C   0  0  0  0  0  3  0  0  0  0  0  0
  160.4010  210.1870  154.7810 C   0  0  0  0  0  0  0  0  0  0  0  0
  160.7910  207.8890  154.2180 C   0  0  0  0  0  0  0  0  0  0  0  0
  161.1530  205.8640  153.1610 N   0  0  0  0  0  0  0  0  0  0  0  0
  160.9190  208.2040  152.9090 C   0  0  0  0  0  0  0  0  0  0  0  0
  161.1880  206.9480  152.1510 C   0  0  1  0  0  3  0  0  0  0  0  0
  160.5280  208.8470  155.1950 C   0  0  0  0  0  3  0  0  0  0  0  0
  160.9350  206.5030  154.4000 N   0  0  0  0  0  0  0  0  0  0  0  0
  160.7800  209.5200  152.4600 C   0  0  0  0  0  3  0  0  0  0  0  0
  160.1300  211.2550  155.7930 C   0  0  0  0  0  2  0  0  0  0  0  0
  158.6200  212.7290  154.6860 F   0  0  0  0  0  0  0  0  0  0  0  0
  158.7060  211.7970  155.7070 C   0  0  2  0  0  0  0  0  0  0  0  0
  158.3980  212.4190  156.9200 O   0  0  0  0  0  1  0  0  0  0  0  0
  156.6890  211.2940  155.0350 F   0  0  0  0  0  0  0  0  0  0  0  0
  157.8110  210.7420  155.4730 O   0  0  0  0  0  0  0  0  0  0  0  0
  1 17  1  0  0  0  0
  2  5  1  6  0  0  0
  2  3  1  0  0  0  0
  3  1  1  6  0  0  0
  4  2  1  0  0  0  0
  4  3  1  0  0  0  0
  5  6  1  0  0  0  0
  6  7  2  0  0  0  0
  8  6  1  0  0  0  0
  9  8  2  0  0  0  0
 10  9  1  0  0  0  0
 10 11  1  0  0  0  0
 12 10  2  0  0  0  0
 13  5  1  0  0  0  0
 14 15  1  0  0  0  0
 14 16  1  0  0  0  0
 15 16  1  0  0  0  0
 16 13  1  0  0  0  0
 18 19  1  0  0  0  0
 19 24  2  0  0  0  0
 19 27  1  0  0  0  0
 20 25  1  0  0  0  0
 20 24  1  0  0  0  0
 21 25  2  0  0  0  0
 22 20  2  0  0  0  0
 23 17  1  1  0  0  0
 23 22  1  0  0  0  0
 23 21  1  0  0  0  0
 26 22  1  0  0  0  0
 26 18  2  0  0  0  0
 29 28  1  6  0  0  0
 29 27  1  0  0  0  0
 29 30  1  0  0  0  0
 31 32  1  0  0  0  0
 32 29  1  0  0  0  0
M  END
>  <MODEL>
1

>  <REMARK>
 VINA RESULT:      -7.1      0.000      0.000
  Name = 
  11 active torsions:
  status: ('A' for Active; 'I' for Inactive)
    1  A    between atoms: C_2  and  C_7
    2  A    between atoms: C_5  and  C_24
    3  A    between atoms: C_7  and  C_10
    4  A    between atoms: C_8  and  C_29
    5  A    between atoms: C_9  and  N_16
    6  A    between atoms: C_10  and  O_19
    7  A    between atoms: C_11  and  C_13
    8  A    between atoms: C_13  and  C_31
    9  A    between atoms: N_16  and  C_22
   10  A    between atoms: C_18  and  C_22
   11  A    between atoms: C_23  and  C_31
                            x       y       z     vdW  Elec       q    Type
                         _______ _______ _______ _____ _____    ______ ____

>  <TORSDO>
F 11

$$$$
=
 OpenBabel11072411553D

 32 35  0  0  1  0  0  0  0  0999 V2000
  160.7310  208.5890  153.5630 C   0  0  0  0  0  2  0  0  0  0  0  0
  161.1200  211.0480  154.1500 C   0  0  1  0  0  3  0  0  0  0  0  0
  161.7230  209.7130  153.8260 C   0  0  2  0  0  3  0  0  0  0  0  0
  161.5350  210.7070  152.8470 O   0  0  0  0  0  0  0  0  0  0  0  0
  159.6560  211.0250  154.2530 N   0  0  0  0  0  0  0  0  0  0  0  0
  159.0500  210.8330  155.5530 C   0  0  0  0  0  0  0  0  0  0  0  0
  159.7350  210.3220  156.4810 O   0  0  0  0  0  0  0  0  0  0  0  0
  157.6560  211.2000  155.8750 C   0  0  0  0  0  3  0  0  0  0  0  0
  157.2650  212.4140  156.2580 C   0  0  0  0  0  3  0  0  0  0  0  0
  155.8610  212.7050  156.5500 C   0  0  0  0  0  0  0  0  0  0  0  0
  155.3570  213.7860  156.1500 O   0  0  0  0  0  0  0  0  0  0  0  0
  155.0770  211.7970  157.2570 O   0  0  0  0  0  1  0  0  0  0  0  0
  158.8780  211.3970  153.0710 C   0  0  0  0  0  2  0  0  0  0  0  0
  159.0320  213.1440  151.3370 C   0  0  0  0  0  2  0  0  0  0  0  0
  157.7290  213.3590  152.0810 C   0  0  0  0  0  2  0  0  0  0  0  0
  158.9640  212.8940  152.8310 C   0  0  0  0  0  3  0  0  0  0  0  0
  160.8770  208.1010  152.1320 C   0  0  0  0  0  2  0  0  0  0  0  0
  160.8380  204.8600  149.0060 C   0  0  0  0  0  3  0  0  0  0  0  0
  160.5640  203.6670  149.7110 C   0  0  0  0  0  0  0  0  0  0  0  0
  161.1680  204.7750  151.7500 C   0  0  0  0  0  0  0  0  0  0  0  0
  161.8860  206.2540  153.3770 N   0  0  0  0  0  0  0  0  0  0  0  0
  161.4250  205.9220  151.0800 C   0  0  0  0  0  0  0  0  0  0  0  0
  161.8680  206.9500  152.0680 C   0  0  1  0  0  3  0  0  0  0  0  0
  160.7370  203.6160  151.1070 C   0  0  0  0  0  3  0  0  0  0  0  0
  161.4250  204.9450  153.1200 N   0  0  0  0  0  0  0  0  0  0  0  0
  161.2820  206.0040  149.6930 C   0  0  0  0  0  3  0  0  0  0  0  0
  160.0920  202.4530  148.9760 C   0  0  0  0  0  2  0  0  0  0  0  0
  162.2540  202.7110  148.0080 F   0  0  0  0  0  0  0  0  0  0  0  0
  161.1740  201.8470  148.0870 C   0  0  2  0  0  0  0  0  0  0  0  0
  160.6410  201.6620  146.8080 O   0  0  0  0  0  1  0  0  0  0  0  0
  161.1650  200.5860  149.8710 F   0  0  0  0  0  0  0  0  0  0  0  0
  161.5830  200.6120  148.6140 O   0  0  0  0  0  0  0  0  0  0  0  0
  2  5  1  6  0  0  0
  3  1  1  6  0  0  0
  3  2  1  0  0  0  0
  4  3  1  0  0  0  0
  4  2  1  0  0  0  0
  5  6  1  0  0  0  0
  6  8  1  0  0  0  0
  6  7  2  0  0  0  0
  8  9  2  0  0  0  0
  9 10  1  0  0  0  0
 10 12  1  0  0  0  0
 11 10  2  0  0  0  0
 13  5  1  0  0  0  0
 14 15  1  0  0  0  0
 14 16  1  0  0  0  0
 15 16  1  0  0  0  0
 16 13  1  0  0  0  0
 17  1  1  0  0  0  0
 18 26  2  0  0  0  0
 18 19  1  0  0  0  0
 19 24  2  0  0  0  0
 20 25  1  0  0  0  0
 22 20  2  0  0  0  0
 22 23  1  0  0  0  0
 23 17  1  1  0  0  0
 23 21  1  0  0  0  0
 24 20  1  0  0  0  0
 25 21  2  0  0  0  0
 26 22  1  0  0  0  0
 27 19  1  0  0  0  0
 28 29  1  0  0  0  0
 29 30  1  6  0  0  0
 29 32  1  0  0  0  0
 29 27  1  0  0  0  0
 32 31  1  0  0  0  0
M  END
>  <MODEL>
2

>  <REMARK>
 VINA RESULT:      -7.0      3.876     10.033
  Name = 
  11 active torsions:
  status: ('A' for Active; 'I' for Inactive)
    1  A    between atoms: C_2  and  C_7
    2  A    between atoms: C_5  and  C_24
    3  A    between atoms: C_7  and  C_10
    4  A    between atoms: C_8  and  C_29
    5  A    between atoms: C_9  and  N_16
    6  A    between atoms: C_10  and  O_19
    7  A    between atoms: C_11  and  C_13
    8  A    between atoms: C_13  and  C_31
    9  A    between atoms: N_16  and  C_22
   10  A    between atoms: C_18  and  C_22
   11  A    between atoms: C_23  and  C_31
                            x       y       z     vdW  Elec       q    Type
                         _______ _______ _______ _____ _____    ______ ____

>  <TORSDO>
F 11

$$$$
=
 OpenBabel11072411553D

 32 35  0  0  1  0  0  0  0  0999 V2000
  160.9290  208.2620  153.8760 C   0  0  0  0  0  2  0  0  0  0  0  0
  161.3410  210.6180  154.7830 C   0  0  1  0  0  3  0  0  0  0  0  0
  161.9050  209.2610  154.4790 C   0  0  2  0  0  3  0  0  0  0  0  0
  162.0370  210.3430  153.5880 O   0  0  0  0  0  0  0  0  0  0  0  0
  159.8990  210.7280  154.5310 N   0  0  0  0  0  0  0  0  0  0  0  0
  158.9860  210.6470  155.6520 C   0  0  0  0  0  0  0  0  0  0  0  0
  159.3800  210.1200  156.7280 O   0  0  0  0  0  0  0  0  0  0  0  0
  157.5970  211.1480  155.6210 C   0  0  0  0  0  3  0  0  0  0  0  0
  157.2360  212.3890  155.9400 C   0  0  0  0  0  3  0  0  0  0  0  0
  155.8380  212.8170  155.8750 C   0  0  0  0  0  0  0  0  0  0  0  0
  155.0490  212.4950  156.8010 O   0  0  0  0  0  1  0  0  0  0  0  0
  155.3750  213.5800  154.8070 O   0  0  0  0  0  0  0  0  0  0  0  0
  159.4620  211.1120  153.1890 C   0  0  0  0  0  2  0  0  0  0  0  0
  159.5480  212.9310  151.5260 C   0  0  0  0  0  2  0  0  0  0  0  0
  158.3040  213.1440  152.3650 C   0  0  0  0  0  2  0  0  0  0  0  0
  159.5730  212.6160  153.0090 C   0  0  0  0  0  3  0  0  0  0  0  0
  161.5810  207.5500  152.7050 C   0  0  0  0  0  2  0  0  0  0  0  0
  160.7980  204.5790  149.4120 C   0  0  0  0  0  3  0  0  0  0  0  0
  161.5120  205.0650  148.2950 C   0  0  0  0  0  0  0  0  0  0  0  0
  161.6520  207.2080  149.3630 C   0  0  0  0  0  0  0  0  0  0  0  0
  161.4640  209.0360  150.7670 N   0  0  0  0  0  0  0  0  0  0  0  0
  160.9750  206.7450  150.4380 C   0  0  0  0  0  0  0  0  0  0  0  0
  160.8350  207.8630  151.4170 C   0  0  1  0  0  3  0  0  0  0  0  0
  161.9430  206.4050  148.2610 C   0  0  0  0  0  3  0  0  0  0  0  0
  161.9640  208.5670  149.5340 N   0  0  0  0  0  0  0  0  0  0  0  0
  160.5150  205.4270  150.4980 C   0  0  0  0  0  3  0  0  0  0  0  0
  161.8110  204.1590  147.1430 C   0  0  0  0  0  2  0  0  0  0  0  0
  160.4410  205.7040  145.9530 F   0  0  0  0  0  0  0  0  0  0  0  0
  161.4710  204.7920  145.7960 C   0  0  2  0  0  0  0  0  0  0  0  0
  161.0570  203.7790  144.9260 O   0  0  0  0  0  1  0  0  0  0  0  0
  163.6560  204.8140  145.7950 F   0  0  0  0  0  0  0  0  0  0  0  0
  162.6060  205.4320  145.2740 O   0  0  0  0  0  0  0  0  0  0  0  0
  2  5  1  6  0  0  0
  3  1  1  6  0  0  0
  3  2  1  0  0  0  0
  4  3  1  0  0  0  0
  4  2  1  0  0  0  0
  5  6  1  0  0  0  0
  6  7  2  0  0  0  0
  8  6  1  0  0  0  0
  8  9  2  0  0  0  0
 10  9  1  0  0  0  0
 10 11  1  0  0  0  0
 12 10  2  0  0  0  0
 13  5  1  0  0  0  0
 14 15  1  0  0  0  0
 14 16  1  0  0  0  0
 15 16  1  0  0  0  0
 16 13  1  0  0  0  0
 17  1  1  0  0  0  0
 18 26  1  0  0  0  0
 19 18  2  0  0  0  0
 20 25  1  0  0  0  0
 20 22  1  0  0  0  0
 21 23  1  0  0  0  0
 22 26  2  0  0  0  0
 22 23  1  0  0  0  0
 23 17  1  1  0  0  0
 24 19  1  0  0  0  0
 24 20  2  0  0  0  0
 25 21  2  0  0  0  0
 27 19  1  0  0  0  0
 29 30  1  6  0  0  0
 29 28  1  0  0  0  0
 29 27  1  0  0  0  0
 32 31  1  0  0  0  0
 32 29  1  0  0  0  0
M  END
>  <MODEL>
3

>  <REMARK>
 VINA RESULT:      -6.9      3.904     10.016
  Name = 
  11 active torsions:
  status: ('A' for Active; 'I' for Inactive)
    1  A    between atoms: C_2  and  C_7
    2  A    between atoms: C_5  and  C_24
    3  A    between atoms: C_7  and  C_10
    4  A    between atoms: C_8  and  C_29
    5  A    between atoms: C_9  and  N_16
    6  A    between atoms: C_10  and  O_19
    7  A    between atoms: C_11  and  C_13
    8  A    between atoms: C_13  and  C_31
    9  A    between atoms: N_16  and  C_22
   10  A    between atoms: C_18  and  C_22
   11  A    between atoms: C_23  and  C_31
                            x       y       z     vdW  Elec       q    Type
                         _______ _______ _______ _____ _____    ______ ____

>  <TORSDO>
F 11

$$$$
=
 OpenBabel11072411553D

 32 35  0  0  1  0  0  0  0  0999 V2000
  160.7930  208.5080  152.5940 C   0  0  0  0  0  2  0  0  0  0  0  0
  161.3280  210.6780  153.8390 C   0  0  1  0  0  3  0  0  0  0  0  0
  161.8490  209.4340  153.1820 C   0  0  2  0  0  3  0  0  0  0  0  0
  161.7830  210.6660  152.5050 O   0  0  0  0  0  0  0  0  0  0  0  0
  159.8620  210.7500  153.8900 N   0  0  0  0  0  0  0  0  0  0  0  0
  159.1880  210.4070  155.1240 C   0  0  0  0  0  0  0  0  0  0  0  0
  159.7950  209.7090  155.9820 O   0  0  0  0  0  0  0  0  0  0  0  0
  157.8110  210.8240  155.4540 C   0  0  0  0  0  3  0  0  0  0  0  0
  157.4880  211.9920  156.0060 C   0  0  0  0  0  3  0  0  0  0  0  0
  156.0970  212.3390  156.2940 C   0  0  0  0  0  0  0  0  0  0  0  0
  155.3170  211.4570  156.7380 O   0  0  0  0  0  1  0  0  0  0  0  0
  155.6290  213.6350  156.0930 O   0  0  0  0  0  0  0  0  0  0  0  0
  159.1640  211.3550  152.7560 C   0  0  0  0  0  2  0  0  0  0  0  0
  159.5230  213.3760  151.3880 C   0  0  0  0  0  2  0  0  0  0  0  0
  158.1560  213.5010  152.0300 C   0  0  0  0  0  2  0  0  0  0  0  0
  159.3010  212.8680  152.7990 C   0  0  0  0  0  3  0  0  0  0  0  0
  160.8480  207.1600  153.2900 C   0  0  0  0  0  2  0  0  0  0  0  0
  161.5910  207.3590  148.8530 C   0  0  0  0  0  3  0  0  0  0  0  0
  161.0560  206.1600  148.3320 C   0  0  0  0  0  0  0  0  0  0  0  0
  161.0700  205.2350  150.5450 C   0  0  0  0  0  0  0  0  0  0  0  0
  161.3360  204.8140  152.8030 N   0  0  0  0  0  0  0  0  0  0  0  0
  161.5760  206.3830  151.0500 C   0  0  0  0  0  0  0  0  0  0  0  0
  161.7510  206.2090  152.5210 C   0  0  1  0  0  3  0  0  0  0  0  0
  160.7950  205.0730  149.1880 C   0  0  0  0  0  3  0  0  0  0  0  0
  160.9080  204.2850  151.5670 N   0  0  0  0  0  0  0  0  0  0  0  0
  161.8650  207.4750  150.2280 C   0  0  0  0  0  3  0  0  0  0  0  0
  160.7660  206.0400  146.8700 C   0  0  0  0  0  2  0  0  0  0  0  0
  163.0400  205.3380  146.7430 F   0  0  0  0  0  0  0  0  0  0  0  0
  161.8040  205.1980  146.1330 C   0  0  2  0  0  0  0  0  0  0  0  0
  161.8880  205.6560  144.8160 O   0  0  0  0  0  1  0  0  0  0  0  0
  161.0120  203.5690  144.9120 F   0  0  0  0  0  0  0  0  0  0  0  0
  161.4120  203.8500  146.1430 O   0  0  0  0  0  0  0  0  0  0  0  0
  1 17  1  0  0  0  0
  2  5  1  6  0  0  0
  3  1  1  6  0  0  0
  3  2  1  0  0  0  0
  4  3  1  0  0  0  0
  4  2  1  0  0  0  0
  5  6  1  0  0  0  0
  6  8  1  0  0  0  0
  6  7  2  0  0  0  0
  8  9  2  0  0  0  0
  9 10  1  0  0  0  0
 10 11  1  0  0  0  0
 12 10  2  0  0  0  0
 13 16  1  0  0  0  0
 13  5  1  0  0  0  0
 14 15  1  0  0  0  0
 14 16  1  0  0  0  0
 15 16  1  0  0  0  0
 18 26  1  0  0  0  0
 19 18  2  0  0  0  0
 19 24  1  0  0  0  0
 20 22  1  0  0  0  0
 20 25  1  0  0  0  0
 22 23  1  0  0  0  0
 23 21  1  0  0  0  0
 23 17  1  1  0  0  0
 24 20  2  0  0  0  0
 25 21  2  0  0  0  0
 26 22  2  0  0  0  0
 27 19  1  0  0  0  0
 29 30  1  6  0  0  0
 29 32  1  0  0  0  0
 29 28  1  0  0  0  0
 29 27  1  0  0  0  0
 31 32  1  0  0  0  0
M  END
>  <MODEL>
4

>  <REMARK>
 VINA RESULT:      -6.9      3.912      9.668
  Name = 
  11 active torsions:
  status: ('A' for Active; 'I' for Inactive)
    1  A    between atoms: C_2  and  C_7
    2  A    between atoms: C_5  and  C_24
    3  A    between atoms: C_7  and  C_10
    4  A    between atoms: C_8  and  C_29
    5  A    between atoms: C_9  and  N_16
    6  A    between atoms: C_10  and  O_19
    7  A    between atoms: C_11  and  C_13
    8  A    between atoms: C_13  and  C_31
    9  A    between atoms: N_16  and  C_22
   10  A    between atoms: C_18  and  C_22
   11  A    between atoms: C_23  and  C_31
                            x       y       z     vdW  Elec       q    Type
                         _______ _______ _______ _____ _____    ______ ____

>  <TORSDO>
F 11

$$$$
=
 OpenBabel11072411553D

 32 35  0  0  1  0  0  0  0  0999 V2000
  160.3930  204.8320  151.5750 C   0  0  0  0  0  2  0  0  0  0  0  0
  162.1960  206.2790  152.6700 C   0  0  1  0  0  3  0  0  0  0  0  0
  161.6520  204.9020  152.4270 C   0  0  2  0  0  3  0  0  0  0  0  0
  162.6870  205.4470  151.6440 O   0  0  0  0  0  0  0  0  0  0  0  0
  161.3590  207.3510  152.1170 N   0  0  0  0  0  0  0  0  0  0  0  0
  160.8520  208.3720  153.0080 C   0  0  0  0  0  0  0  0  0  0  0  0
  160.8040  208.1390  154.2460 O   0  0  0  0  0  0  0  0  0  0  0  0
  160.3760  209.6960  152.5580 C   0  0  0  0  0  3  0  0  0  0  0  0
  160.3040  210.7750  153.3340 C   0  0  0  0  0  3  0  0  0  0  0  0
  159.8300  212.0580  152.8130 C   0  0  0  0  0  0  0  0  0  0  0  0
  159.3260  212.8990  153.6020 O   0  0  0  0  0  1  0  0  0  0  0  0
  159.9400  212.3610  151.4580 O   0  0  0  0  0  0  0  0  0  0  0  0
  161.2410  207.4490  150.6620 C   0  0  0  0  0  2  0  0  0  0  0  0
  162.4390  207.9980  148.5770 C   0  0  0  0  0  2  0  0  0  0  0  0
  161.9690  209.3040  149.1860 C   0  0  0  0  0  2  0  0  0  0  0  0
  162.4430  208.1750  150.0820 C   0  0  0  0  0  3  0  0  0  0  0  0
  160.0260  203.3810  151.3200 C   0  0  0  0  0  2  0  0  0  0  0  0
  161.6050  204.6270  147.2910 C   0  0  0  0  0  3  0  0  0  0  0  0
  161.3000  203.5540  146.4250 C   0  0  0  0  0  0  0  0  0  0  0  0
  160.9680  202.1490  148.3400 C   0  0  0  0  0  0  0  0  0  0  0  0
  160.8240  201.2360  150.4590 N   0  0  0  0  0  0  0  0  0  0  0  0
  161.2520  203.1750  149.1740 C   0  0  0  0  0  0  0  0  0  0  0  0
  161.1500  202.6770  150.5770 C   0  0  1  0  0  3  0  0  0  0  0  0
  160.9830  202.2890  146.9530 C   0  0  0  0  0  3  0  0  0  0  0  0
  160.7010  200.9840  149.0770 N   0  0  0  0  0  0  0  0  0  0  0  0
  161.5900  204.4400  148.6850 C   0  0  0  0  0  3  0  0  0  0  0  0
  161.3170  203.7580  144.9430 C   0  0  0  0  0  2  0  0  0  0  0  0
  161.4650  205.3620  143.1860 F   0  0  0  0  0  0  0  0  0  0  0  0
  161.2860  205.2340  144.5540 C   0  0  2  0  0  0  0  0  0  0  0  0
  162.3300  205.8860  145.2160 O   0  0  0  0  0  1  0  0  0  0  0  0
  160.3430  206.9300  145.5570 F   0  0  0  0  0  0  0  0  0  0  0  0
  160.0570  205.7970  144.9330 O   0  0  0  0  0  0  0  0  0  0  0  0
  2  5  1  6  0  0  0
  3  1  1  6  0  0  0
  3  2  1  0  0  0  0
  4  3  1  0  0  0  0
  4  2  1  0  0  0  0
  5  6  1  0  0  0  0
  6  7  2  0  0  0  0
  8  6  1  0  0  0  0
  8  9  2  0  0  0  0
 10  9  1  0  0  0  0
 10 11  1  0  0  0  0
 12 10  2  0  0  0  0
 13  5  1  0  0  0  0
 14 15  1  0  0  0  0
 14 16  1  0  0  0  0
 15 16  1  0  0  0  0
 16 13  1  0  0  0  0
 17  1  1  0  0  0  0
 18 26  1  0  0  0  0
 19 24  1  0  0  0  0
 19 18  2  0  0  0  0
 20 25  1  0  0  0  0
 20 22  1  0  0  0  0
 21 23  1  0  0  0  0
 22 23  1  0  0  0  0
 23 17  1  1  0  0  0
 24 20  2  0  0  0  0
 25 21  2  0  0  0  0
 26 22  2  0  0  0  0
 27 19  1  0  0  0  0
 29 28  1  6  0  0  0
 29 32  1  0  0  0  0
 29 27  1  0  0  0  0
 29 30  1  0  0  0  0
 32 31  1  0  0  0  0
M  END
>  <MODEL>
5

>  <REMARK>
 VINA RESULT:      -6.8      3.935      8.955
  Name = 
  11 active torsions:
  status: ('A' for Active; 'I' for Inactive)
    1  A    between atoms: C_2  and  C_7
    2  A    between atoms: C_5  and  C_24
    3  A    between atoms: C_7  and  C_10
    4  A    between atoms: C_8  and  C_29
    5  A    between atoms: C_9  and  N_16
    6  A    between atoms: C_10  and  O_19
    7  A    between atoms: C_11  and  C_13
    8  A    between atoms: C_13  and  C_31
    9  A    between atoms: N_16  and  C_22
   10  A    between atoms: C_18  and  C_22
   11  A    between atoms: C_23  and  C_31
                            x       y       z     vdW  Elec       q    Type
                         _______ _______ _______ _____ _____    ______ ____

>  <TORSDO>
F 11

$$$$
=
 OpenBabel11072411553D

 32 35  0  0  1  0  0  0  0  0999 V2000
  160.8380  207.0600  152.3830 C   0  0  0  0  0  2  0  0  0  0  0  0
  162.3720  205.2260  151.4720 C   0  0  1  0  0  3  0  0  0  0  0  0
  162.0930  206.2190  152.5630 C   0  0  2  0  0  3  0  0  0  0  0  0
  161.7110  204.8680  152.6650 O   0  0  0  0  0  0  0  0  0  0  0  0
  161.4250  205.2980  150.3530 N   0  0  0  0  0  0  0  0  0  0  0  0
  161.6320  206.2970  149.3260 C   0  0  0  0  0  0  0  0  0  0  0  0
  162.3530  207.3000  149.5810 O   0  0  0  0  0  0  0  0  0  0  0  0
  161.0450  206.2220  147.9730 C   0  0  0  0  0  3  0  0  0  0  0  0
  161.7070  205.8370  146.8840 C   0  0  0  0  0  3  0  0  0  0  0  0
  161.0530  205.7780  145.5760 C   0  0  0  0  0  0  0  0  0  0  0  0
  160.0820  206.5430  145.3340 O   0  0  0  0  0  1  0  0  0  0  0  0
  161.4960  204.8940  144.5970 O   0  0  0  0  0  0  0  0  0  0  0  0
  160.4340  204.2310  150.2210 C   0  0  0  0  0  2  0  0  0  0  0  0
  160.0540  201.8790  149.5830 C   0  0  0  0  0  2  0  0  0  0  0  0
  160.8380  202.5310  148.4620 C   0  0  0  0  0  2  0  0  0  0  0  0
  161.1160  202.9120  149.9040 C   0  0  0  0  0  3  0  0  0  0  0  0
  160.4760  207.7300  153.6970 C   0  0  0  0  0  2  0  0  0  0  0  0
  158.7630  211.1490  156.0750 C   0  0  0  0  0  3  0  0  0  0  0  0
  158.3760  212.1110  155.1160 C   0  0  0  0  0  0  0  0  0  0  0  0
  159.7630  211.0070  153.5010 C   0  0  0  0  0  0  0  0  0  0  0  0
  161.2460  209.6370  152.3740 N   0  0  0  0  0  0  0  0  0  0  0  0
  160.1310  210.0790  154.4130 C   0  0  0  0  0  0  0  0  0  0  0  0
  161.0740  209.1270  153.7550 C   0  0  1  0  0  3  0  0  0  0  0  0
  158.8870  212.0480  153.8060 C   0  0  0  0  0  3  0  0  0  0  0  0
  160.4040  210.7640  152.2750 N   0  0  0  0  0  0  0  0  0  0  0  0
  159.6590  210.1220  155.7270 C   0  0  0  0  0  3  0  0  0  0  0  0
  157.4230  213.2020  155.4900 C   0  0  0  0  0  2  0  0  0  0  0  0
  155.8110  211.9190  154.2920 F   0  0  0  0  0  0  0  0  0  0  0  0
  155.9630  212.7710  155.3730 C   0  0  2  0  0  0  0  0  0  0  0  0
  155.1820  213.9120  155.1700 O   0  0  0  0  0  1  0  0  0  0  0  0
  155.4890  210.8340  156.2670 F   0  0  0  0  0  0  0  0  0  0  0  0
  155.5640  212.1260  156.5540 O   0  0  0  0  0  0  0  0  0  0  0  0
  1 17  1  0  0  0  0
  2  5  1  6  0  0  0
  2  3  1  0  0  0  0
  2  4  1  0  0  0  0
  3  1  1  6  0  0  0
  3  4  1  0  0  0  0
  6  7  2  0  0  0  0
  6  5  1  0  0  0  0
  8  6  1  0  0  0  0
  9  8  2  0  0  0  0
 10  9  1  0  0  0  0
 11 10  1  0  0  0  0
 12 10  2  0  0  0  0
 13  5  1  0  0  0  0
 14 16  1  0  0  0  0
 15 14  1  0  0  0  0
 15 16  1  0  0  0  0
 16 13  1  0  0  0  0
 19 27  1  0  0  0  0
 19 18  2  0  0  0  0
 20 24  2  0  0  0  0
 20 22  1  0  0  0  0
 21 23  1  0  0  0  0
 22 26  2  0  0  0  0
 23 17  1  6  0  0  0
 23 22  1  0  0  0  0
 24 19  1  0  0  0  0
 25 21  2  0  0  0  0
 25 20  1  0  0  0  0
 26 18  1  0  0  0  0
 29 28  1  6  0  0  0
 29 27  1  0  0  0  0
 29 32  1  0  0  0  0
 30 29  1  0  0  0  0
 31 32  1  0  0  0  0
M  END
>  <MODEL>
6

>  <REMARK>
 VINA RESULT:      -6.5      2.192      3.910
  Name = 
  11 active torsions:
  status: ('A' for Active; 'I' for Inactive)
    1  A    between atoms: C_2  and  C_7
    2  A    between atoms: C_5  and  C_24
    3  A    between atoms: C_7  and  C_10
    4  A    between atoms: C_8  and  C_29
    5  A    between atoms: C_9  and  N_16
    6  A    between atoms: C_10  and  O_19
    7  A    between atoms: C_11  and  C_13
    8  A    between atoms: C_13  and  C_31
    9  A    between atoms: N_16  and  C_22
   10  A    between atoms: C_18  and  C_22
   11  A    between atoms: C_23  and  C_31
                            x       y       z     vdW  Elec       q    Type
                         _______ _______ _______ _____ _____    ______ ____

>  <TORSDO>
F 11

$$$$
=
 OpenBabel11072411553D

 32 35  0  0  1  0  0  0  0  0999 V2000
  160.8100  208.3300  152.1120 C   0  0  0  0  0  2  0  0  0  0  0  0
  161.9350  210.3300  153.2430 C   0  0  1  0  0  3  0  0  0  0  0  0
  162.0760  209.1460  152.3300 C   0  0  2  0  0  3  0  0  0  0  0  0
  161.8530  210.4470  151.8400 O   0  0  0  0  0  0  0  0  0  0  0  0
  160.6070  210.4480  153.8550 N   0  0  0  0  0  0  0  0  0  0  0  0
  159.6720  211.4130  153.3150 C   0  0  0  0  0  0  0  0  0  0  0  0
  160.1090  212.3670  152.6160 O   0  0  0  0  0  0  0  0  0  0  0  0
  158.2120  211.3550  153.5320 C   0  0  0  0  0  3  0  0  0  0  0  0
  157.5670  212.0110  154.4950 C   0  0  0  0  0  3  0  0  0  0  0  0
  156.1150  211.9120  154.6420 C   0  0  0  0  0  0  0  0  0  0  0  0
  155.5710  210.7780  154.6730 O   0  0  0  0  0  0  0  0  0  0  0  0
  155.3300  213.0570  154.7560 O   0  0  0  0  0  1  0  0  0  0  0  0
  160.2180  209.4510  154.8520 C   0  0  0  0  0  2  0  0  0  0  0  0
  160.1940  210.0850  157.2350 C   0  0  0  0  0  2  0  0  0  0  0  0
  160.5800  208.6220  157.1600 C   0  0  0  0  0  2  0  0  0  0  0  0
  161.0700  209.5920  156.1010 C   0  0  0  0  0  3  0  0  0  0  0  0
  161.0030  206.9280  152.6640 C   0  0  0  0  0  2  0  0  0  0  0  0
  161.2760  207.3780  148.1910 C   0  0  0  0  0  3  0  0  0  0  0  0
  160.8580  206.1350  147.6660 C   0  0  0  0  0  0  0  0  0  0  0  0
  161.2120  205.1460  149.8230 C   0  0  0  0  0  0  0  0  0  0  0  0
  161.7520  204.6900  152.0240 N   0  0  0  0  0  0  0  0  0  0  0  0
  161.6060  206.3360  150.3320 C   0  0  0  0  0  0  0  0  0  0  0  0
  161.9470  206.1370  151.7710 C   0  0  1  0  0  3  0  0  0  0  0  0
  160.8300  204.9940  148.4910 C   0  0  0  0  0  3  0  0  0  0  0  0
  161.2800  204.1490  150.8090 N   0  0  0  0  0  0  0  0  0  0  0  0
  161.6640  207.4850  149.5390 C   0  0  0  0  0  3  0  0  0  0  0  0
  160.4460  206.0260  146.2330 C   0  0  0  0  0  2  0  0  0  0  0  0
  162.7530  205.5830  145.8320 F   0  0  0  0  0  0  0  0  0  0  0  0
  161.4760  205.2900  145.3800 C   0  0  2  0  0  0  0  0  0  0  0  0
  161.3470  205.7270  144.0590 O   0  0  0  0  0  1  0  0  0  0  0  0
  160.3560  203.6310  144.5070 F   0  0  0  0  0  0  0  0  0  0  0  0
  161.2460  203.9070  145.4490 O   0  0  0  0  0  0  0  0  0  0  0  0
  1 17  1  0  0  0  0
  2  5  1  1  0  0  0
  3  1  1  1  0  0  0
  3  2  1  0  0  0  0
  4  3  1  0  0  0  0
  4  2  1  0  0  0  0
  5 13  1  0  0  0  0
  6  8  1  0  0  0  0
  6  5  1  0  0  0  0
  7  6  2  0  0  0  0
  8  9  2  0  0  0  0
  9 10  1  0  0  0  0
 10 11  2  0  0  0  0
 10 12  1  0  0  0  0
 13 16  1  0  0  0  0
 15 14  1  0  0  0  0
 16 15  1  0  0  0  0
 16 14  1  0  0  0  0
 18 26  1  0  0  0  0
 19 18  2  0  0  0  0
 19 24  1  0  0  0  0
 20 22  1  0  0  0  0
 20 25  1  0  0  0  0
 22 23  1  0  0  0  0
 23 21  1  0  0  0  0
 23 17  1  1  0  0  0
 24 20  2  0  0  0  0
 25 21  2  0  0  0  0
 26 22  2  0  0  0  0
 27 19  1  0  0  0  0
 29 30  1  6  0  0  0
 29 32  1  0  0  0  0
 29 28  1  0  0  0  0
 29 27  1  0  0  0  0
 31 32  1  0  0  0  0
M  END
>  <MODEL>
7

>  <REMARK>
 VINA RESULT:      -6.3      3.904      9.717
  Name = 
  11 active torsions:
  status: ('A' for Active; 'I' for Inactive)
    1  A    between atoms: C_2  and  C_7
    2  A    between atoms: C_5  and  C_24
    3  A    between atoms: C_7  and  C_10
    4  A    between atoms: C_8  and  C_29
    5  A    between atoms: C_9  and  N_16
    6  A    between atoms: C_10  and  O_19
    7  A    between atoms: C_11  and  C_13
    8  A    between atoms: C_13  and  C_31
    9  A    between atoms: N_16  and  C_22
   10  A    between atoms: C_18  and  C_22
   11  A    between atoms: C_23  and  C_31
                            x       y       z     vdW  Elec       q    Type
                         _______ _______ _______ _____ _____    ______ ____

>  <TORSDO>
F 11

$$$$
=
 OpenBabel11072411553D

 32 35  0  0  1  0  0  0  0  0999 V2000
  160.9610  207.4030  153.8030 C   0  0  0  0  0  2  0  0  0  0  0  0
  160.6680  208.9320  155.8330 C   0  0  1  0  0  3  0  0  0  0  0  0
  160.9000  207.5420  155.3180 C   0  0  2  0  0  3  0  0  0  0  0  0
  161.9580  208.3750  155.7280 O   0  0  0  0  0  0  0  0  0  0  0  0
  160.4400  209.9240  154.7750 N   0  0  0  0  0  0  0  0  0  0  0  0
  159.2340  210.7230  154.8140 C   0  0  0  0  0  0  0  0  0  0  0  0
  158.2500  210.3180  155.4920 O   0  0  0  0  0  0  0  0  0  0  0  0
  159.0710  212.0040  154.0980 C   0  0  0  0  0  3  0  0  0  0  0  0
  158.1460  212.2360  153.1680 C   0  0  0  0  0  3  0  0  0  0  0  0
  158.0400  213.5370  152.5070 C   0  0  0  0  0  0  0  0  0  0  0  0
  159.0860  214.1250  152.1260 O   0  0  0  0  0  0  0  0  0  0  0  0
  156.7980  214.1260  152.2880 O   0  0  0  0  0  1  0  0  0  0  0  0
  161.5340  210.1990  153.8450 C   0  0  0  0  0  2  0  0  0  0  0  0
  161.2480  211.0270  151.5390 C   0  0  0  0  0  2  0  0  0  0  0  0
  162.3300  209.9680  151.5080 C   0  0  0  0  0  2  0  0  0  0  0  0
  161.1370  209.8070  152.4320 C   0  0  0  0  0  3  0  0  0  0  0  0
  160.4290  206.0420  153.3910 C   0  0  0  0  0  2  0  0  0  0  0  0
  161.3860  206.8530  149.0660 C   0  0  0  0  0  3  0  0  0  0  0  0
  161.0200  205.6760  148.3770 C   0  0  0  0  0  0  0  0  0  0  0  0
  161.0190  204.4970  150.4660 C   0  0  0  0  0  0  0  0  0  0  0  0
  161.2070  203.8380  152.6740 N   0  0  0  0  0  0  0  0  0  0  0  0
  161.3620  205.6240  151.1310 C   0  0  0  0  0  0  0  0  0  0  0  0
  161.4760  205.2930  152.5820 C   0  0  1  0  0  3  0  0  0  0  0  0
  160.8380  204.4720  149.0840 C   0  0  0  0  0  3  0  0  0  0  0  0
  160.9100  203.4190  151.3600 N   0  0  0  0  0  0  0  0  0  0  0  0
  161.5690  206.8320  150.4600 C   0  0  0  0  0  3  0  0  0  0  0  0
  160.8260  205.7030  146.8940 C   0  0  0  0  0  2  0  0  0  0  0  0
  163.0830  204.9390  146.9650 F   0  0  0  0  0  0  0  0  0  0  0  0
  161.9740  205.0360  146.1410 C   0  0  2  0  0  0  0  0  0  0  0  0
  162.2930  205.8280  145.0350 O   0  0  0  0  0  1  0  0  0  0  0  0
  160.8570  203.9400  144.6160 F   0  0  0  0  0  0  0  0  0  0  0  0
  161.5790  203.7590  145.7120 O   0  0  0  0  0  0  0  0  0  0  0  0
  2  5  1  6  0  0  0
  3  1  1  6  0  0  0
  3  4  1  0  0  0  0
  3  2  1  0  0  0  0
  4  2  1  0  0  0  0
  5  6  1  0  0  0  0
  6  7  2  0  0  0  0
  8  6  1  0  0  0  0
  9  8  2  0  0  0  0
 10  9  1  0  0  0  0
 11 10  2  0  0  0  0
 12 10  1  0  0  0  0
 13  5  1  0  0  0  0
 14 16  1  0  0  0  0
 15 14  1  0  0  0  0
 15 16  1  0  0  0  0
 16 13  1  0  0  0  0
 17  1  1  0  0  0  0
 18 26  1  0  0  0  0
 19 18  2  0  0  0  0
 19 24  1  0  0  0  0
 20 22  1  0  0  0  0
 20 25  1  0  0  0  0
 22 23  1  0  0  0  0
 23 21  1  0  0  0  0
 23 17  1  1  0  0  0
 24 20  2  0  0  0  0
 25 21  2  0  0  0  0
 26 22  2  0  0  0  0
 27 19  1  0  0  0  0
 29 30  1  6  0  0  0
 29 27  1  0  0  0  0
 29 28  1  0  0  0  0
 31 32  1  0  0  0  0
 32 29  1  0  0  0  0
M  END
>  <MODEL>
8

>  <REMARK>
 VINA RESULT:      -6.2      3.936      9.340
  Name = 
  11 active torsions:
  status: ('A' for Active; 'I' for Inactive)
    1  A    between atoms: C_2  and  C_7
    2  A    between atoms: C_5  and  C_24
    3  A    between atoms: C_7  and  C_10
    4  A    between atoms: C_8  and  C_29
    5  A    between atoms: C_9  and  N_16
    6  A    between atoms: C_10  and  O_19
    7  A    between atoms: C_11  and  C_13
    8  A    between atoms: C_13  and  C_31
    9  A    between atoms: N_16  and  C_22
   10  A    between atoms: C_18  and  C_22
   11  A    between atoms: C_23  and  C_31
                            x       y       z     vdW  Elec       q    Type
                         _______ _______ _______ _____ _____    ______ ____

>  <TORSDO>
F 11

$$$$
=
 OpenBabel11072411553D

 32 35  0  0  1  0  0  0  0  0999 V2000
  161.1470  208.0230  154.1790 C   0  0  0  0  0  2  0  0  0  0  0  0
  160.5670  208.9410  156.4950 C   0  0  1  0  0  3  0  0  0  0  0  0
  161.1500  207.8190  155.6860 C   0  0  2  0  0  3  0  0  0  0  0  0
  161.9530  208.8180  156.2670 O   0  0  0  0  0  0  0  0  0  0  0  0
  159.9980  210.0210  155.6810 N   0  0  0  0  0  0  0  0  0  0  0  0
  160.8930  210.9760  155.0620 C   0  0  0  0  0  0  0  0  0  0  0  0
  162.0630  211.1050  155.5170 O   0  0  0  0  0  0  0  0  0  0  0  0
  160.5240  211.8270  153.9130 C   0  0  0  0  0  3  0  0  0  0  0  0
  160.3570  211.3830  152.6690 C   0  0  0  0  0  3  0  0  0  0  0  0
  159.9800  212.2870  151.5820 C   0  0  0  0  0  0  0  0  0  0  0  0
  158.8960  212.9230  151.6530 O   0  0  0  0  0  1  0  0  0  0  0  0
  160.8100  212.4580  150.4770 O   0  0  0  0  0  0  0  0  0  0  0  0
  158.5700  209.9670  155.3680 C   0  0  0  0  0  2  0  0  0  0  0  0
  157.1520  211.8840  154.7370 C   0  0  0  0  0  2  0  0  0  0  0  0
  156.3680  211.0480  155.7270 C   0  0  0  0  0  2  0  0  0  0  0  0
  157.8680  211.2090  155.8900 C   0  0  0  0  0  3  0  0  0  0  0  0
  160.4710  206.8440  153.5020 C   0  0  0  0  0  2  0  0  0  0  0  0
  161.4080  207.2290  149.1140 C   0  0  0  0  0  3  0  0  0  0  0  0
  161.0170  205.9990  148.5410 C   0  0  0  0  0  0  0  0  0  0  0  0
  161.0130  205.0220  150.7310 C   0  0  0  0  0  0  0  0  0  0  0  0
  161.2080  204.5700  152.9910 N   0  0  0  0  0  0  0  0  0  0  0  0
  161.3800  206.2000  151.2850 C   0  0  0  0  0  0  0  0  0  0  0  0
  161.5000  206.0040  152.7600 C   0  0  1  0  0  3  0  0  0  0  0  0
  160.8220  204.8700  149.3590 C   0  0  0  0  0  3  0  0  0  0  0  0
  160.8950  204.0340  151.7230 N   0  0  0  0  0  0  0  0  0  0  0  0
  161.6010  207.3360  150.5030 C   0  0  0  0  0  3  0  0  0  0  0  0
  160.8130  205.8900  147.0630 C   0  0  0  0  0  2  0  0  0  0  0  0
  163.1510  205.4320  147.0890 F   0  0  0  0  0  0  0  0  0  0  0  0
  161.9940  205.2330  146.3540 C   0  0  2  0  0  0  0  0  0  0  0  0
  162.1400  205.8290  145.0990 O   0  0  0  0  0  1  0  0  0  0  0  0
  160.8310  203.7460  145.2550 F   0  0  0  0  0  0  0  0  0  0  0  0
  161.7500  203.8590  146.2030 O   0  0  0  0  0  0  0  0  0  0  0  0
  2  5  1  6  0  0  0
  3  1  1  6  0  0  0
  3  4  1  0  0  0  0
  3  2  1  0  0  0  0
  4  2  1  0  0  0  0
  6  7  2  0  0  0  0
  6  5  1  0  0  0  0
  8  6  1  0  0  0  0
  9  8  2  0  0  0  0
 10 11  1  0  0  0  0
 10  9  1  0  0  0  0
 12 10  2  0  0  0  0
 13  5  1  0  0  0  0
 13 16  1  0  0  0  0
 14 15  1  0  0  0  0
 14 16  1  0  0  0  0
 15 16  1  0  0  0  0
 17  1  1  0  0  0  0
 18 26  1  0  0  0  0
 19 18  2  0  0  0  0
 19 24  1  0  0  0  0
 20 22  1  0  0  0  0
 20 25  1  0  0  0  0
 22 23  1  0  0  0  0
 23 21  1  0  0  0  0
 23 17  1  1  0  0  0
 24 20  2  0  0  0  0
 25 21  2  0  0  0  0
 26 22  2  0  0  0  0
 27 19  1  0  0  0  0
 29 30  1  6  0  0  0
 29 27  1  0  0  0  0
 29 28  1  0  0  0  0
 31 32  1  0  0  0  0
 32 29  1  0  0  0  0
M  END
>  <MODEL>
9

>  <REMARK>
 VINA RESULT:      -6.2      3.872      9.475
  Name = 
  11 active torsions:
  status: ('A' for Active; 'I' for Inactive)
    1  A    between atoms: C_2  and  C_7
    2  A    between atoms: C_5  and  C_24
    3  A    between atoms: C_7  and  C_10
    4  A    between atoms: C_8  and  C_29
    5  A    between atoms: C_9  and  N_16
    6  A    between atoms: C_10  and  O_19
    7  A    between atoms: C_11  and  C_13
    8  A    between atoms: C_13  and  C_31
    9  A    between atoms: N_16  and  C_22
   10  A    between atoms: C_18  and  C_22
   11  A    between atoms: C_23  and  C_31
                            x       y       z     vdW  Elec       q    Type
                         _______ _______ _______ _____ _____    ______ ____

>  <TORSDO>
F 11

$$$$
