=
 OpenBabel11072414543D

 47 49  0  0  1  0  0  0  0  0999 V2000
  162.5590  208.6130  148.4280 C   0  0  0  0  0  2  0  0  0  0  0  0
  161.5530  209.6760  148.8320 C   0  0  0  0  0  2  0  0  0  0  0  0
  162.0900  211.0570  148.4910 C   0  0  0  0  0  2  0  0  0  0  0  0
  161.7600  212.0490  149.5950 C   0  0  0  0  0  2  0  0  0  0  0  0
  161.2540  213.3320  149.0250 C   0  0  0  0  0  0  0  0  0  0  0  0
  162.0410  214.0800  146.6590 C   0  0  0  0  0  3  0  0  0  0  0  0
  161.6330  213.7040  147.8360 C   0  0  0  0  0  0  0  0  0  0  0  0
  160.2880  214.4520  150.0330 S   0  0  0  0  0  0  0  0  0  0  0  0
  158.7270  213.7530  149.4770 C   0  0  0  0  0  0  0  0  0  0  0  0
  158.0660  213.0750  150.2480 O   0  0  0  0  0  0  0  0  0  0  0  0
  157.8130  212.9140  146.0560 O   0  0  0  0  0  1  0  0  0  0  0  0
  158.2110  214.0460  148.1010 C   0  0  2  0  0  3  0  0  0  0  0  0
  156.7320  213.7200  148.0080 C   0  0  0  0  0  2  0  0  0  0  0  0
  157.7520  212.7580  147.4400 C   0  0  1  0  0  3  0  0  0  0  0  0
  162.6480  213.0820  145.7350 C   0  0  0  0  0  2  0  0  0  0  0  0
  160.7260  213.8220  144.3650 N   0  0  0  0  0  1  0  0  0  0  0  0
  161.8490  212.8990  144.4420 C   0  0  1  0  0  3  0  0  0  0  0  0
  163.6670  213.8780  143.2270 F   0  0  0  0  0  0  0  0  0  0  0  0
  162.6850  212.9060  143.1570 C   0  0  2  0  0  3  0  0  0  0  0  0
  161.6810  213.1180  141.6430 S   0  0  0  0  0  0  0  0  0  0  0  0
  162.2540  211.5550  140.9040 C   0  0  0  0  0  2  0  0  0  0  0  0
  161.3930  211.1740  139.7080 C   0  0  0  0  0  2  0  0  0  0  0  0
  161.0410  209.5540  138.2490 C   0  0  0  0  0  1  0  0  0  0  0  0
  161.2960  209.7860  139.5990 O   0  0  0  0  0  0  0  0  0  0  0  0
  161.9310  207.6880  147.4000 C   0  0  0  0  0  2  0  0  0  0  0  0
  161.3890  206.4390  148.0770 C   0  0  1  0  0  3  0  0  0  0  0  0
  161.0150  203.8820  144.8960 O   0  0  0  0  0  0  0  0  0  0  0  0
  161.8160  205.2140  147.2830 C   0  0  2  0  0  3  0  0  0  0  0  0
  160.1740  206.2650  145.2010 O   0  0  0  0  0  0  0  0  0  0  0  0
  162.5800  205.6220  146.1700 N   0  0  0  0  0  2  0  0  0  0  0  0
  160.9220  205.0960  145.7770 S   0  0  0  0  0  0  0  0  0  0  0  0
  161.8950  206.3610  149.3790 O   0  0  0  0  0  0  0  0  0  0  0  0
  160.9460  205.7590  150.0730 O   0  0  0  0  0  0  0  0  0  0  0  0
  161.6190  204.8730  150.9170 C   0  0  2  0  0  3  0  0  0  0  0  0
  160.6100  204.1050  151.7500 C   0  0  0  0  0  2  0  0  0  0  0  0
  160.8740  202.0250  150.4300 C   0  0  0  0  0  1  0  0  0  0  0  0
  160.9930  202.6400  151.8120 C   0  0  0  0  0  2  0  0  0  0  0  0
  162.5590  205.6630  151.8220 C   0  0  0  0  0  2  0  0  0  0  0  0
  160.6420  207.1760  154.7160 C   0  0  0  0  0  3  0  0  0  0  0  0
  161.3680  206.2680  153.9410 C   0  0  0  0  0  3  0  0  0  0  0  0
  161.8050  206.6320  152.6620 C   0  0  0  0  0  0  0  0  0  0  0  0
  160.3490  208.4450  154.2120 C   0  0  0  0  0  3  0  0  0  0  0  0
  160.7890  208.8180  152.9340 C   0  0  0  0  0  0  0  0  0  0  0  0
  161.5190  207.9090  152.1650 C   0  0  0  0  0  3  0  0  0  0  0  0
  160.4970  210.1110  152.3970 N   0  0  0  0  0  2  0  0  0  0  0  0
  159.4570  210.9860  152.9190 C   0  0  0  0  0  2  0  0  0  0  0  0
  159.9800  212.3330  153.0800 N   0  0  0  0  0  1  0  0  0  0  0  0
  1  2  1  0  0  0  0
  3  2  1  0  0  0  0
  3  4  1  0  0  0  0
  5  4  1  0  0  0  0
  5  8  1  0  0  0  0
  6  7  2  0  0  0  0
  7  5  2  0  0  0  0
  9  8  1  0  0  0  0
  9 10  2  0  0  0  0
 12  9  1  1  0  0  0
 13 12  1  0  0  0  0
 14 11  1  6  0  0  0
 14 13  1  0  0  0  0
 14 12  1  0  0  0  0
 15  6  1  0  0  0  0
 17 16  1  6  0  0  0
 17 15  1  0  0  0  0
 19 18  1  1  0  0  0
 19 17  1  0  0  0  0
 20 19  1  0  0  0  0
 21 20  1  0  0  0  0
 22 21  1  0  0  0  0
 23 24  1  0  0  0  0
 24 22  1  0  0  0  0
 25  1  1  0  0  0  0
 26 25  1  6  0  0  0
 26 32  1  0  0  0  0
 27 31  2  0  0  0  0
 28 26  1  1  0  0  0
 29 31  2  0  0  0  0
 30 28  1  0  0  0  0
 31 30  1  0  0  0  0
 31 28  1  0  0  0  0
 32 33  1  0  0  0  0
 33 34  1  0  0  0  0
 34 35  1  1  0  0  0
 34 38  1  0  0  0  0
 35 37  1  0  0  0  0
 36 37  1  0  0  0  0
 38 41  1  0  0  0  0
 40 39  2  0  0  0  0
 41 40  1  0  0  0  0
 42 39  1  0  0  0  0
 43 42  2  0  0  0  0
 44 41  2  0  0  0  0
 44 43  1  0  0  0  0
 45 46  1  0  0  0  0
 45 43  1  0  0  0  0
 46 47  1  0  0  0  0
M  END
>  <MODEL>
1

>  <REMARK>
 VINA RESULT:      -5.7      0.000      0.000
  Name = 
  26 active torsions:
  status: ('A' for Active; 'I' for Inactive)
    1  A    between atoms: C_2  and  S_17
    2  A    between atoms: C_2  and  C_44
    3  A    between atoms: C_3  and  C_14
    4  A    between atoms: C_3  and  C_18
    5  A    between atoms: C_7  and  N_26
    6  A    between atoms: C_9  and  C_16
    7  A    between atoms: C_9  and  S_17
    8  A    between atoms: O_10  and  C_19
    9  A    between atoms: O_10  and  O_38
   10  A    between atoms: C_11  and  C_12
   11  A    between atoms: C_12  and  C_19
   12  A    between atoms: C_13  and  C_24
   13  A    between atoms: C_13  and  C_30
   14  A    between atoms: C_13  and  O_38
   15  A    between atoms: S_15  and  C_27
   16  A    between atoms: S_15  and  C_35
   17  A    between atoms: C_18  and  C_35
   18  A    between atoms: C_19  and  C_42
   19  A    between atoms: C_22  and  C_27
   20  A    between atoms: C_22  and  O_41
   21  A    between atoms: N_26  and  C_31
   22  A    between atoms: C_28  and  C_44
   23  A    between atoms: C_28  and  C_45
   24  A    between atoms: C_29  and  C_30
   25  A    between atoms: C_29  and  C_45
   26  A    between atoms: C_33  and  C_42
                            x       y       z     vdW  Elec       q    Type
                         _______ _______ _______ _____ _____    ______ ____

>  <TORSDO>
F 26

$$$$
=
 OpenBabel11072414543D

 47 49  0  0  1  0  0  0  0  0999 V2000
  161.2900  208.4090  150.9100 C   0  0  0  0  0  2  0  0  0  0  0  0
  162.2290  209.4210  151.5400 C   0  0  0  0  0  2  0  0  0  0  0  0
  161.5400  210.7710  151.6550 C   0  0  0  0  0  2  0  0  0  0  0  0
  160.3560  210.6910  152.6040 C   0  0  0  0  0  2  0  0  0  0  0  0
  159.9840  212.0450  153.1080 C   0  0  0  0  0  0  0  0  0  0  0  0
  159.5040  213.9560  151.4080 C   0  0  0  0  0  3  0  0  0  0  0  0
  159.7280  213.0010  152.2620 C   0  0  0  0  0  0  0  0  0  0  0  0
  160.0700  212.4160  154.8570 S   0  0  0  0  0  0  0  0  0  0  0  0
  158.3820  213.0340  154.9040 C   0  0  0  0  0  0  0  0  0  0  0  0
  158.1210  214.1050  154.3780 O   0  0  0  0  0  0  0  0  0  0  0  0
  155.4460  210.8840  154.8710 O   0  0  0  0  0  1  0  0  0  0  0  0
  157.2920  212.2180  155.5300 C   0  0  2  0  0  3  0  0  0  0  0  0
  157.6980  210.7590  155.6060 C   0  0  0  0  0  2  0  0  0  0  0  0
  156.7530  211.2200  154.5200 C   0  0  1  0  0  3  0  0  0  0  0  0
  159.2110  213.6220  149.9860 C   0  0  0  0  0  2  0  0  0  0  0  0
  161.4150  213.1110  148.9840 N   0  0  0  0  0  1  0  0  0  0  0  0
  160.3180  214.0670  149.0260 C   0  0  1  0  0  3  0  0  0  0  0  0
  158.5070  214.1230  147.4580 F   0  0  0  0  0  0  0  0  0  0  0  0
  159.8410  214.4520  147.6210 C   0  0  2  0  0  3  0  0  0  0  0  0
  160.8500  213.7130  146.2880 S   0  0  0  0  0  0  0  0  0  0  0  0
  159.5560  212.5250  145.8060 C   0  0  0  0  0  2  0  0  0  0  0  0
  159.6380  212.2090  144.3190 C   0  0  0  0  0  2  0  0  0  0  0  0
  161.2870  212.1700  142.8500 C   0  0  0  0  0  1  0  0  0  0  0  0
  160.5850  213.0250  143.6990 O   0  0  0  0  0  0  0  0  0  0  0  0
  160.6340  207.5810  152.0010 C   0  0  0  0  0  2  0  0  0  0  0  0
  161.6910  206.8620  152.8240 C   0  0  1  0  0  3  0  0  0  0  0  0
  161.0770  207.5450  156.8180 O   0  0  0  0  0  0  0  0  0  0  0  0
  161.1020  206.4850  154.1750 C   0  0  2  0  0  3  0  0  0  0  0  0
  161.7770  209.1420  154.9630 O   0  0  0  0  0  0  0  0  0  0  0  0
  159.9540  207.2650  154.4180 N   0  0  0  0  0  2  0  0  0  0  0  0
  161.3890  207.7460  155.3620 S   0  0  0  0  0  0  0  0  0  0  0  0
  162.1020  205.7090  152.1470 O   0  0  0  0  0  0  0  0  0  0  0  0
  161.0360  205.3180  151.4720 O   0  0  0  0  0  0  0  0  0  0  0  0
  161.5080  204.3620  150.5700 C   0  0  2  0  0  3  0  0  0  0  0  0
  161.6190  204.9830  149.1890 C   0  0  0  0  0  2  0  0  0  0  0  0
  160.7520  206.8020  147.7470 C   0  0  0  0  0  1  0  0  0  0  0  0
  160.4540  205.9210  148.9440 C   0  0  0  0  0  2  0  0  0  0  0  0
  160.5410  203.1830  150.5410 C   0  0  0  0  0  2  0  0  0  0  0  0
  161.4360  200.1020  148.5310 C   0  0  0  0  0  3  0  0  0  0  0  0
  161.1460  200.9370  149.6120 C   0  0  0  0  0  3  0  0  0  0  0  0
  160.8280  202.2820  149.3920 C   0  0  0  0  0  0  0  0  0  0  0  0
  161.4110  200.6110  147.2300 C   0  0  0  0  0  3  0  0  0  0  0  0
  161.0870  201.9560  147.0020 C   0  0  0  0  0  0  0  0  0  0  0  0
  160.7930  202.7850  148.0870 C   0  0  0  0  0  3  0  0  0  0  0  0
  161.0600  202.4990  145.6800 N   0  0  0  0  0  2  0  0  0  0  0  0
  161.5510  203.8270  145.3420 C   0  0  0  0  0  2  0  0  0  0  0  0
  160.4780  204.6180  144.7610 N   0  0  0  0  0  1  0  0  0  0  0  0
  1  2  1  0  0  0  0
  1 25  1  0  0  0  0
  2  3  1  0  0  0  0
  3  4  1  0  0  0  0
  4  5  1  0  0  0  0
  5  8  1  0  0  0  0
  6  7  2  0  0  0  0
  7  5  2  0  0  0  0
  8  9  1  0  0  0  0
 10  9  2  0  0  0  0
 12  9  1  6  0  0  0
 12 13  1  0  0  0  0
 14 11  1  1  0  0  0
 14 12  1  0  0  0  0
 14 13  1  0  0  0  0
 15  6  1  0  0  0  0
 17 16  1  6  0  0  0
 17 15  1  0  0  0  0
 19 18  1  6  0  0  0
 19 17  1  0  0  0  0
 20 19  1  0  0  0  0
 21 20  1  0  0  0  0
 22 21  1  0  0  0  0
 23 24  1  0  0  0  0
 24 22  1  0  0  0  0
 26 25  1  6  0  0  0
 28 26  1  6  0  0  0
 28 30  1  0  0  0  0
 28 31  1  0  0  0  0
 29 31  2  0  0  0  0
 30 31  1  0  0  0  0
 31 27  2  0  0  0  0
 32 26  1  0  0  0  0
 33 32  1  0  0  0  0
 34 35  1  6  0  0  0
 34 33  1  0  0  0  0
 36 37  1  0  0  0  0
 37 35  1  0  0  0  0
 38 34  1  0  0  0  0
 39 40  1  0  0  0  0
 41 40  2  0  0  0  0
 41 38  1  0  0  0  0
 42 39  2  0  0  0  0
 43 42  1  0  0  0  0
 43 44  2  0  0  0  0
 44 41  1  0  0  0  0
 45 43  1  0  0  0  0
 46 45  1  0  0  0  0
 47 46  1  0  0  0  0
M  END
>  <MODEL>
2

>  <REMARK>
 VINA RESULT:      -5.2      3.318      6.695
  Name = 
  26 active torsions:
  status: ('A' for Active; 'I' for Inactive)
    1  A    between atoms: C_2  and  S_17
    2  A    between atoms: C_2  and  C_44
    3  A    between atoms: C_3  and  C_14
    4  A    between atoms: C_3  and  C_18
    5  A    between atoms: C_7  and  N_26
    6  A    between atoms: C_9  and  C_16
    7  A    between atoms: C_9  and  S_17
    8  A    between atoms: O_10  and  C_19
    9  A    between atoms: O_10  and  O_38
   10  A    between atoms: C_11  and  C_12
   11  A    between atoms: C_12  and  C_19
   12  A    between atoms: C_13  and  C_24
   13  A    between atoms: C_13  and  C_30
   14  A    between atoms: C_13  and  O_38
   15  A    between atoms: S_15  and  C_27
   16  A    between atoms: S_15  and  C_35
   17  A    between atoms: C_18  and  C_35
   18  A    between atoms: C_19  and  C_42
   19  A    between atoms: C_22  and  C_27
   20  A    between atoms: C_22  and  O_41
   21  A    between atoms: N_26  and  C_31
   22  A    between atoms: C_28  and  C_44
   23  A    between atoms: C_28  and  C_45
   24  A    between atoms: C_29  and  C_30
   25  A    between atoms: C_29  and  C_45
   26  A    between atoms: C_33  and  C_42
                            x       y       z     vdW  Elec       q    Type
                         _______ _______ _______ _____ _____    ______ ____

>  <TORSDO>
F 26

$$$$
=
 OpenBabel11072414543D

 47 49  0  0  1  0  0  0  0  0999 V2000
  161.5760  206.8600  153.8140 C   0  0  0  0  0  2  0  0  0  0  0  0
  161.5200  208.2340  153.1720 C   0  0  0  0  0  2  0  0  0  0  0  0
  160.7550  209.1970  154.0660 C   0  0  0  0  0  2  0  0  0  0  0  0
  159.8290  210.0760  153.2420 C   0  0  0  0  0  2  0  0  0  0  0  0
  159.8080  211.4710  153.7700 C   0  0  0  0  0  0  0  0  0  0  0  0
  159.1730  213.4320  152.1790 C   0  0  0  0  0  3  0  0  0  0  0  0
  159.4770  212.4540  152.9820 C   0  0  0  0  0  0  0  0  0  0  0  0
  160.4160  211.8270  155.4150 S   0  0  0  0  0  0  0  0  0  0  0  0
  158.9440  212.7610  155.8570 C   0  0  0  0  0  0  0  0  0  0  0  0
  158.8950  213.9550  155.6070 O   0  0  0  0  0  0  0  0  0  0  0  0
  155.4050  212.2930  156.5630 O   0  0  0  0  0  1  0  0  0  0  0  0
  157.7640  212.0730  156.4730 C   0  0  2  0  0  3  0  0  0  0  0  0
  157.1480  211.0940  155.4910 C   0  0  0  0  0  2  0  0  0  0  0  0
  156.5010  212.4430  155.7150 C   0  0  1  0  0  3  0  0  0  0  0  0
  158.4630  213.1440  150.9020 C   0  0  0  0  0  2  0  0  0  0  0  0
  160.4080  214.0290  149.6540 N   0  0  0  0  0  1  0  0  0  0  0  0
  158.9550  214.0070  149.7360 C   0  0  1  0  0  3  0  0  0  0  0  0
  157.2080  212.8740  148.5500 F   0  0  0  0  0  0  0  0  0  0  0  0
  158.3100  213.6930  148.3810 C   0  0  2  0  0  3  0  0  0  0  0  0
  159.4770  212.9580  147.1800 S   0  0  0  0  0  0  0  0  0  0  0  0
  158.8340  213.9320  145.7810 C   0  0  0  0  0  2  0  0  0  0  0  0
  158.9780  213.1640  144.4750 C   0  0  0  0  0  2  0  0  0  0  0  0
  159.0380  213.3090  142.2720 C   0  0  0  0  0  1  0  0  0  0  0  0
  158.5190  213.9330  143.4050 O   0  0  0  0  0  0  0  0  0  0  0  0
  160.6370  205.9190  153.0780 C   0  0  0  0  0  2  0  0  0  0  0  0
  161.4240  205.0230  152.1340 C   0  0  1  0  0  3  0  0  0  0  0  0
  160.6350  201.4030  150.3820 O   0  0  0  0  0  0  0  0  0  0  0  0
  160.4770  204.0210  151.4910 C   0  0  2  0  0  3  0  0  0  0  0  0
  162.5850  202.1340  151.8460 O   0  0  0  0  0  0  0  0  0  0  0  0
  160.1370  203.0290  152.4330 N   0  0  0  0  0  2  0  0  0  0  0  0
  161.2880  202.4960  151.1800 S   0  0  0  0  0  0  0  0  0  0  0  0
  162.0280  205.8070  151.1460 O   0  0  0  0  0  0  0  0  0  0  0  0
  161.0220  206.3080  150.4520 O   0  0  0  0  0  0  0  0  0  0  0  0
  161.6160  206.9610  149.3700 C   0  0  2  0  0  3  0  0  0  0  0  0
  161.8950  208.4060  149.7450 C   0  0  0  0  0  2  0  0  0  0  0  0
  162.0900  210.7060  148.8440 C   0  0  0  0  0  1  0  0  0  0  0  0
  162.1340  209.2300  148.4960 C   0  0  0  0  0  2  0  0  0  0  0  0
  160.6770  206.8990  148.1720 C   0  0  0  0  0  2  0  0  0  0  0  0
  161.8060  205.1880  144.9880 C   0  0  0  0  0  3  0  0  0  0  0  0
  161.4270  206.1840  145.8920 C   0  0  0  0  0  3  0  0  0  0  0  0
  161.1030  205.8460  147.2110 C   0  0  0  0  0  0  0  0  0  0  0  0
  161.8560  203.8550  145.4010 C   0  0  0  0  0  3  0  0  0  0  0  0
  161.5380  203.5100  146.7230 C   0  0  0  0  0  0  0  0  0  0  0  0
  161.1660  204.5100  147.6230 C   0  0  0  0  0  3  0  0  0  0  0  0
  161.5800  202.1510  147.1660 N   0  0  0  0  0  2  0  0  0  0  0  0
  160.7630  201.0900  146.5940 C   0  0  0  0  0  2  0  0  0  0  0  0
  161.4390  199.8120  146.7430 N   0  0  0  0  0  1  0  0  0  0  0  0
  2  1  1  0  0  0  0
  2  3  1  0  0  0  0
  4  5  1  0  0  0  0
  4  3  1  0  0  0  0
  5  8  1  0  0  0  0
  6  7  2  0  0  0  0
  7  5  2  0  0  0  0
  8  9  1  0  0  0  0
 10  9  2  0  0  0  0
 12  9  1  6  0  0  0
 13 14  1  0  0  0  0
 13 12  1  0  0  0  0
 14 12  1  0  0  0  0
 14 11  1  1  0  0  0
 15  6  1  0  0  0  0
 17 16  1  6  0  0  0
 17 15  1  0  0  0  0
 19 18  1  1  0  0  0
 19 17  1  0  0  0  0
 20 19  1  0  0  0  0
 21 20  1  0  0  0  0
 22 21  1  0  0  0  0
 23 24  1  0  0  0  0
 24 22  1  0  0  0  0
 25  1  1  0  0  0  0
 26 25  1  1  0  0  0
 27 31  2  0  0  0  0
 28 26  1  1  0  0  0
 28 30  1  0  0  0  0
 31 28  1  0  0  0  0
 31 29  2  0  0  0  0
 31 30  1  0  0  0  0
 32 26  1  0  0  0  0
 33 32  1  0  0  0  0
 34 38  1  6  0  0  0
 34 35  1  0  0  0  0
 34 33  1  0  0  0  0
 37 36  1  0  0  0  0
 37 35  1  0  0  0  0
 39 42  2  0  0  0  0
 39 40  1  0  0  0  0
 40 41  2  0  0  0  0
 41 44  1  0  0  0  0
 41 38  1  0  0  0  0
 42 43  1  0  0  0  0
 43 45  1  0  0  0  0
 43 44  2  0  0  0  0
 46 47  1  0  0  0  0
 46 45  1  0  0  0  0
M  END
>  <MODEL>
3

>  <REMARK>
 VINA RESULT:      -5.2      3.396      7.051
  Name = 
  26 active torsions:
  status: ('A' for Active; 'I' for Inactive)
    1  A    between atoms: C_2  and  S_17
    2  A    between atoms: C_2  and  C_44
    3  A    between atoms: C_3  and  C_14
    4  A    between atoms: C_3  and  C_18
    5  A    between atoms: C_7  and  N_26
    6  A    between atoms: C_9  and  C_16
    7  A    between atoms: C_9  and  S_17
    8  A    between atoms: O_10  and  C_19
    9  A    between atoms: O_10  and  O_38
   10  A    between atoms: C_11  and  C_12
   11  A    between atoms: C_12  and  C_19
   12  A    between atoms: C_13  and  C_24
   13  A    between atoms: C_13  and  C_30
   14  A    between atoms: C_13  and  O_38
   15  A    between atoms: S_15  and  C_27
   16  A    between atoms: S_15  and  C_35
   17  A    between atoms: C_18  and  C_35
   18  A    between atoms: C_19  and  C_42
   19  A    between atoms: C_22  and  C_27
   20  A    between atoms: C_22  and  O_41
   21  A    between atoms: N_26  and  C_31
   22  A    between atoms: C_28  and  C_44
   23  A    between atoms: C_28  and  C_45
   24  A    between atoms: C_29  and  C_30
   25  A    between atoms: C_29  and  C_45
   26  A    between atoms: C_33  and  C_42
                            x       y       z     vdW  Elec       q    Type
                         _______ _______ _______ _____ _____    ______ ____

>  <TORSDO>
F 26

$$$$
=
 OpenBabel11072414543D

 47 49  0  0  1  0  0  0  0  0999 V2000
  161.6560  209.2840  148.0630 C   0  0  0  0  0  2  0  0  0  0  0  0
  162.2300  210.0910  149.2130 C   0  0  0  0  0  2  0  0  0  0  0  0
  161.9410  211.5690  149.0090 C   0  0  0  0  0  2  0  0  0  0  0  0
  161.1630  211.7920  147.7230 C   0  0  0  0  0  2  0  0  0  0  0  0
  161.1160  213.2410  147.3710 C   0  0  0  0  0  0  0  0  0  0  0  0
  162.0900  214.0370  145.0920 C   0  0  0  0  0  3  0  0  0  0  0  0
  161.5890  213.6430  146.2260 C   0  0  0  0  0  0  0  0  0  0  0  0
  160.5940  214.4510  148.5820 S   0  0  0  0  0  0  0  0  0  0  0  0
  158.8530  214.0590  148.3590 C   0  0  0  0  0  0  0  0  0  0  0  0
  158.3200  214.2930  147.2860 O   0  0  0  0  0  0  0  0  0  0  0  0
  157.1390  213.9400  151.5670 O   0  0  0  0  0  1  0  0  0  0  0  0
  158.0770  213.3990  149.4580 C   0  0  2  0  0  3  0  0  0  0  0  0
  156.5900  213.6440  149.2790 C   0  0  0  0  0  2  0  0  0  0  0  0
  157.3690  214.4530  150.2920 C   0  0  1  0  0  3  0  0  0  0  0  0
  162.3170  213.0480  144.0020 C   0  0  0  0  0  2  0  0  0  0  0  0
  160.2440  213.8560  142.9200 N   0  0  0  0  0  1  0  0  0  0  0  0
  161.0340  212.6790  143.2510 C   0  0  1  0  0  3  0  0  0  0  0  0
  162.5800  211.6510  141.7360 F   0  0  0  0  0  0  0  0  0  0  0  0
  161.2350  211.7650  142.0360 C   0  0  2  0  0  3  0  0  0  0  0  0
  160.2930  212.3030  140.5640 S   0  0  0  0  0  0  0  0  0  0  0  0
  160.6590  210.7830  139.6290 C   0  0  0  0  0  2  0  0  0  0  0  0
  159.3770  210.1370  139.1220 C   0  0  0  0  0  2  0  0  0  0  0  0
  159.7670  210.7570  137.0380 C   0  0  0  0  0  1  0  0  0  0  0  0
  159.5630  209.6310  137.8350 O   0  0  0  0  0  0  0  0  0  0  0  0
  162.3860  207.9560  147.9630 C   0  0  0  0  0  2  0  0  0  0  0  0
  161.7340  206.9260  148.8730 C   0  0  1  0  0  3  0  0  0  0  0  0
  161.2060  203.6880  146.4160 O   0  0  0  0  0  0  0  0  0  0  0  0
  162.1040  205.5310  148.3940 C   0  0  2  0  0  3  0  0  0  0  0  0
  160.4470  206.1030  146.1440 O   0  0  0  0  0  0  0  0  0  0  0  0
  162.8540  205.6280  147.2050 N   0  0  0  0  0  2  0  0  0  0  0  0
  161.1710  205.0820  146.9760 S   0  0  0  0  0  0  0  0  0  0  0  0
  162.1840  207.1140  150.1830 O   0  0  0  0  0  0  0  0  0  0  0  0
  162.1390  205.9130  150.7300 O   0  0  0  0  0  0  0  0  0  0  0  0
  161.8280  206.1360  152.0730 C   0  0  2  0  0  3  0  0  0  0  0  0
  160.9760  204.9920  152.5910 C   0  0  0  0  0  2  0  0  0  0  0  0
  161.2090  202.7160  151.6400 C   0  0  0  0  0  1  0  0  0  0  0  0
  160.5770  204.0810  151.4470 C   0  0  0  0  0  2  0  0  0  0  0  0
  161.0730  207.4550  152.1980 C   0  0  0  0  0  2  0  0  0  0  0  0
  160.5160  207.0810  155.9250 C   0  0  0  0  0  3  0  0  0  0  0  0
  160.7990  206.7720  154.5920 C   0  0  0  0  0  3  0  0  0  0  0  0
  160.7950  207.7810  153.6230 C   0  0  0  0  0  0  0  0  0  0  0  0
  160.2240  208.3970  156.2880 C   0  0  0  0  0  3  0  0  0  0  0  0
  160.2240  209.4150  155.3230 C   0  0  0  0  0  0  0  0  0  0  0  0
  160.5130  209.1010  153.9930 C   0  0  0  0  0  3  0  0  0  0  0  0
  159.9240  210.7690  155.6720 N   0  0  0  0  0  2  0  0  0  0  0  0
  158.5710  211.2820  155.8270 C   0  0  0  0  0  2  0  0  0  0  0  0
  158.0320  211.6550  154.5300 N   0  0  0  0  0  1  0  0  0  0  0  0
  1  2  1  0  0  0  0
  3  2  1  0  0  0  0
  4  3  1  0  0  0  0
  5  4  1  0  0  0  0
  5  8  1  0  0  0  0
  6  7  2  0  0  0  0
  7  5  2  0  0  0  0
  9  8  1  0  0  0  0
 10  9  2  0  0  0  0
 12  9  1  6  0  0  0
 12 14  1  0  0  0  0
 13 12  1  0  0  0  0
 13 14  1  0  0  0  0
 14 11  1  1  0  0  0
 15  6  1  0  0  0  0
 17 16  1  6  0  0  0
 17 15  1  0  0  0  0
 19 18  1  6  0  0  0
 19 17  1  0  0  0  0
 20 19  1  0  0  0  0
 21 20  1  0  0  0  0
 22 21  1  0  0  0  0
 23 24  1  0  0  0  0
 24 22  1  0  0  0  0
 25  1  1  0  0  0  0
 26 25  1  6  0  0  0
 26 32  1  0  0  0  0
 27 31  2  0  0  0  0
 28 26  1  6  0  0  0
 29 31  2  0  0  0  0
 30 28  1  0  0  0  0
 31 30  1  0  0  0  0
 31 28  1  0  0  0  0
 32 33  1  0  0  0  0
 33 34  1  0  0  0  0
 34 38  1  6  0  0  0
 34 35  1  0  0  0  0
 37 36  1  0  0  0  0
 37 35  1  0  0  0  0
 38 41  1  0  0  0  0
 39 42  1  0  0  0  0
 40 39  2  0  0  0  0
 41 44  2  0  0  0  0
 41 40  1  0  0  0  0
 43 45  1  0  0  0  0
 43 42  2  0  0  0  0
 44 43  1  0  0  0  0
 45 46  1  0  0  0  0
 47 46  1  0  0  0  0
M  END
>  <MODEL>
4

>  <REMARK>
 VINA RESULT:      -5.0      1.501      2.046
  Name = 
  26 active torsions:
  status: ('A' for Active; 'I' for Inactive)
    1  A    between atoms: C_2  and  S_17
    2  A    between atoms: C_2  and  C_44
    3  A    between atoms: C_3  and  C_14
    4  A    between atoms: C_3  and  C_18
    5  A    between atoms: C_7  and  N_26
    6  A    between atoms: C_9  and  C_16
    7  A    between atoms: C_9  and  S_17
    8  A    between atoms: O_10  and  C_19
    9  A    between atoms: O_10  and  O_38
   10  A    between atoms: C_11  and  C_12
   11  A    between atoms: C_12  and  C_19
   12  A    between atoms: C_13  and  C_24
   13  A    between atoms: C_13  and  C_30
   14  A    between atoms: C_13  and  O_38
   15  A    between atoms: S_15  and  C_27
   16  A    between atoms: S_15  and  C_35
   17  A    between atoms: C_18  and  C_35
   18  A    between atoms: C_19  and  C_42
   19  A    between atoms: C_22  and  C_27
   20  A    between atoms: C_22  and  O_41
   21  A    between atoms: N_26  and  C_31
   22  A    between atoms: C_28  and  C_44
   23  A    between atoms: C_28  and  C_45
   24  A    between atoms: C_29  and  C_30
   25  A    between atoms: C_29  and  C_45
   26  A    between atoms: C_33  and  C_42
                            x       y       z     vdW  Elec       q    Type
                         _______ _______ _______ _____ _____    ______ ____

>  <TORSDO>
F 26

$$$$
=
 OpenBabel11072414543D

 47 49  0  0  1  0  0  0  0  0999 V2000
  162.2510  207.4750  149.6480 C   0  0  0  0  0  2  0  0  0  0  0  0
  161.3500  208.6270  150.0520 C   0  0  0  0  0  2  0  0  0  0  0  0
  162.0730  209.5360  151.0330 C   0  0  0  0  0  2  0  0  0  0  0  0
  161.5140  210.9480  150.9700 C   0  0  0  0  0  2  0  0  0  0  0  0
  160.4880  211.1640  152.0310 C   0  0  0  0  0  0  0  0  0  0  0  0
  159.3420  213.4910  152.2480 C   0  0  0  0  0  3  0  0  0  0  0  0
  159.9010  212.3220  152.1350 C   0  0  0  0  0  0  0  0  0  0  0  0
  160.1950  209.9120  153.2760 S   0  0  0  0  0  0  0  0  0  0  0  0
  161.1250  210.8080  154.5280 C   0  0  0  0  0  0  0  0  0  0  0  0
  162.3200  210.9990  154.3640 O   0  0  0  0  0  0  0  0  0  0  0  0
  158.6160  212.7980  156.2550 O   0  0  0  0  0  1  0  0  0  0  0  0
  160.4320  211.3670  155.7330 C   0  0  2  0  0  3  0  0  0  0  0  0
  159.2330  210.5130  156.1010 C   0  0  0  0  0  2  0  0  0  0  0  0
  159.0300  211.8150  155.3580 C   0  0  1  0  0  3  0  0  0  0  0  0
  159.4030  214.4520  151.1110 C   0  0  0  0  0  2  0  0  0  0  0  0
  157.8130  214.4530  149.2150 N   0  0  0  0  0  1  0  0  0  0  0  0
  159.0010  213.8230  149.7740 C   0  0  1  0  0  3  0  0  0  0  0  0
  161.2750  214.3360  149.2150 F   0  0  0  0  0  0  0  0  0  0  0  0
  160.1310  213.7180  148.7430 C   0  0  2  0  0  3  0  0  0  0  0  0
  159.6750  214.3830  147.1010 S   0  0  0  0  0  0  0  0  0  0  0  0
  161.3220  214.0740  146.3880 C   0  0  0  0  0  2  0  0  0  0  0  0
  161.3360  214.3920  144.8990 C   0  0  0  0  0  2  0  0  0  0  0  0
  163.0890  213.1300  144.4390 C   0  0  0  0  0  1  0  0  0  0  0  0
  162.6480  214.4530  144.4270 O   0  0  0  0  0  0  0  0  0  0  0  0
  161.9890  207.1130  148.1970 C   0  0  0  0  0  2  0  0  0  0  0  0
  161.2880  205.7660  148.1090 C   0  0  1  0  0  3  0  0  0  0  0  0
  161.2070  204.3740  144.2550 O   0  0  0  0  0  0  0  0  0  0  0  0
  161.8810  204.9680  146.9570 C   0  0  2  0  0  3  0  0  0  0  0  0
  159.9830  206.3330  145.3240 O   0  0  0  0  0  0  0  0  0  0  0  0
  162.5080  205.8490  146.0530 N   0  0  0  0  0  2  0  0  0  0  0  0
  160.9480  205.1930  145.4870 S   0  0  0  0  0  0  0  0  0  0  0  0
  161.4660  205.0710  149.3090 O   0  0  0  0  0  0  0  0  0  0  0  0
  160.7280  203.9830  149.1820 O   0  0  0  0  0  0  0  0  0  0  0  0
  161.2990  203.0520  150.0510 C   0  0  2  0  0  3  0  0  0  0  0  0
  161.0440  201.6500  149.5280 C   0  0  0  0  0  2  0  0  0  0  0  0
  160.6290  201.3060  147.1090 C   0  0  0  0  0  1  0  0  0  0  0  0
  159.9950  201.6860  148.4340 C   0  0  0  0  0  2  0  0  0  0  0  0
  160.6840  203.2190  151.4360 C   0  0  0  0  0  2  0  0  0  0  0  0
  162.9730  206.0670  152.4280 C   0  0  0  0  0  3  0  0  0  0  0  0
  162.4700  204.9420  151.7700 C   0  0  0  0  0  3  0  0  0  0  0  0
  161.2150  204.4300  152.1170 C   0  0  0  0  0  0  0  0  0  0  0  0
  162.2230  206.6780  153.4350 C   0  0  0  0  0  3  0  0  0  0  0  0
  160.9610  206.1740  153.7840 C   0  0  0  0  0  0  0  0  0  0  0  0
  160.4620  205.0530  153.1190 C   0  0  0  0  0  3  0  0  0  0  0  0
  160.1790  206.7820  154.8150 N   0  0  0  0  0  2  0  0  0  0  0  0
  160.7340  207.2740  156.0670 C   0  0  0  0  0  2  0  0  0  0  0  0
  159.8340  206.9600  157.1640 N   0  0  0  0  0  1  0  0  0  0  0  0
  1  2  1  0  0  0  0
  2  3  1  0  0  0  0
  4  3  1  0  0  0  0
  4  5  1  0  0  0  0
  5  7  2  0  0  0  0
  5  8  1  0  0  0  0
  7  6  2  0  0  0  0
  8  9  1  0  0  0  0
 10  9  2  0  0  0  0
 12  9  1  6  0  0  0
 12 13  1  0  0  0  0
 14 12  1  0  0  0  0
 14 13  1  0  0  0  0
 14 11  1  1  0  0  0
 15  6  1  0  0  0  0
 17 16  1  6  0  0  0
 17 15  1  0  0  0  0
 19 18  1  1  0  0  0
 19 17  1  0  0  0  0
 20 19  1  0  0  0  0
 21 20  1  0  0  0  0
 22 21  1  0  0  0  0
 24 23  1  0  0  0  0
 24 22  1  0  0  0  0
 25  1  1  0  0  0  0
 26 25  1  1  0  0  0
 26 32  1  0  0  0  0
 27 31  2  0  0  0  0
 28 26  1  1  0  0  0
 29 31  2  0  0  0  0
 30 28  1  0  0  0  0
 31 30  1  0  0  0  0
 31 28  1  0  0  0  0
 33 32  1  0  0  0  0
 33 34  1  0  0  0  0
 34 35  1  6  0  0  0
 34 38  1  0  0  0  0
 36 37  1  0  0  0  0
 37 35  1  0  0  0  0
 38 41  1  0  0  0  0
 39 42  1  0  0  0  0
 40 41  1  0  0  0  0
 40 39  2  0  0  0  0
 41 44  2  0  0  0  0
 42 43  2  0  0  0  0
 43 45  1  0  0  0  0
 44 43  1  0  0  0  0
 45 46  1  0  0  0  0
 46 47  1  0  0  0  0
M  END
>  <MODEL>
5

>  <REMARK>
 VINA RESULT:      -4.8      3.076      4.896
  Name = 
  26 active torsions:
  status: ('A' for Active; 'I' for Inactive)
    1  A    between atoms: C_2  and  S_17
    2  A    between atoms: C_2  and  C_44
    3  A    between atoms: C_3  and  C_14
    4  A    between atoms: C_3  and  C_18
    5  A    between atoms: C_7  and  N_26
    6  A    between atoms: C_9  and  C_16
    7  A    between atoms: C_9  and  S_17
    8  A    between atoms: O_10  and  C_19
    9  A    between atoms: O_10  and  O_38
   10  A    between atoms: C_11  and  C_12
   11  A    between atoms: C_12  and  C_19
   12  A    between atoms: C_13  and  C_24
   13  A    between atoms: C_13  and  C_30
   14  A    between atoms: C_13  and  O_38
   15  A    between atoms: S_15  and  C_27
   16  A    between atoms: S_15  and  C_35
   17  A    between atoms: C_18  and  C_35
   18  A    between atoms: C_19  and  C_42
   19  A    between atoms: C_22  and  C_27
   20  A    between atoms: C_22  and  O_41
   21  A    between atoms: N_26  and  C_31
   22  A    between atoms: C_28  and  C_44
   23  A    between atoms: C_28  and  C_45
   24  A    between atoms: C_29  and  C_30
   25  A    between atoms: C_29  and  C_45
   26  A    between atoms: C_33  and  C_42
                            x       y       z     vdW  Elec       q    Type
                         _______ _______ _______ _____ _____    ______ ____

>  <TORSDO>
F 26

$$$$
=
 OpenBabel11072414543D

 47 49  0  0  1  0  0  0  0  0999 V2000
  161.6220  208.1870  147.8590 C   0  0  0  0  0  2  0  0  0  0  0  0
  161.8080  208.9710  149.1460 C   0  0  0  0  0  2  0  0  0  0  0  0
  162.4620  210.3110  148.8500 C   0  0  0  0  0  2  0  0  0  0  0  0
  161.9000  211.3950  149.7540 C   0  0  0  0  0  2  0  0  0  0  0  0
  161.4850  212.5890  148.9620 C   0  0  0  0  0  0  0  0  0  0  0  0
  159.9730  214.3970  150.0680 C   0  0  0  0  0  3  0  0  0  0  0  0
  160.7400  213.5040  149.5150 C   0  0  0  0  0  0  0  0  0  0  0  0
  161.8400  212.6830  147.2100 S   0  0  0  0  0  0  0  0  0  0  0  0
  160.1040  212.8520  146.7730 C   0  0  0  0  0  0  0  0  0  0  0  0
  159.2540  212.3370  147.4820 O   0  0  0  0  0  0  0  0  0  0  0  0
  160.1070  213.7640  143.2500 O   0  0  0  0  0  1  0  0  0  0  0  0
  159.6970  213.6670  145.5830 C   0  0  2  0  0  3  0  0  0  0  0  0
  158.5370  213.0080  144.8600 C   0  0  0  0  0  2  0  0  0  0  0  0
  159.9400  212.8750  144.3100 C   0  0  1  0  0  3  0  0  0  0  0  0
  159.8560  214.4530  151.5520 C   0  0  0  0  0  2  0  0  0  0  0  0
  157.6030  213.5610  151.0550 N   0  0  0  0  0  1  0  0  0  0  0  0
  158.6210  213.7200  152.0830 C   0  0  1  0  0  3  0  0  0  0  0  0
  157.9910  211.4360  152.4430 F   0  0  0  0  0  0  0  0  0  0  0  0
  158.9120  212.4010  152.8090 C   0  0  2  0  0  3  0  0  0  0  0  0
  158.9700  212.5760  154.6280 S   0  0  0  0  0  0  0  0  0  0  0  0
  158.0310  211.0430  154.9220 C   0  0  0  0  0  2  0  0  0  0  0  0
  156.6450  211.3530  155.4690 C   0  0  0  0  0  2  0  0  0  0  0  0
  155.4450  212.7980  156.6310 C   0  0  0  0  0  1  0  0  0  0  0  0
  156.5290  212.7130  155.7590 O   0  0  0  0  0  0  0  0  0  0  0  0
  162.1610  206.7800  148.0420 C   0  0  0  0  0  2  0  0  0  0  0  0
  161.0250  205.7700  147.9990 C   0  0  1  0  0  3  0  0  0  0  0  0
  161.7790  205.2490  144.0050 O   0  0  0  0  0  0  0  0  0  0  0  0
  160.5680  205.5920  146.5600 C   0  0  2  0  0  3  0  0  0  0  0  0
  163.2660  204.8330  146.0300 O   0  0  0  0  0  0  0  0  0  0  0  0
  160.6670  204.2330  146.2030 N   0  0  0  0  0  2  0  0  0  0  0  0
  161.9310  205.2770  145.5000 S   0  0  0  0  0  0  0  0  0  0  0  0
  161.4710  204.5470  148.5110 O   0  0  0  0  0  0  0  0  0  0  0  0
  160.5140  204.1570  149.3330 O   0  0  0  0  0  0  0  0  0  0  0  0
  161.0980  203.1650  150.1250 C   0  0  2  0  0  3  0  0  0  0  0  0
  160.5450  201.8100  149.7230 C   0  0  0  0  0  2  0  0  0  0  0  0
  161.3970  200.8160  147.6200 C   0  0  0  0  0  1  0  0  0  0  0  0
  160.3620  201.7470  148.2200 C   0  0  0  0  0  2  0  0  0  0  0  0
  160.7870  203.4490  151.5900 C   0  0  0  0  0  2  0  0  0  0  0  0
  162.6010  206.7720  151.5770 C   0  0  0  0  0  3  0  0  0  0  0  0
  162.1670  205.5010  151.1940 C   0  0  0  0  0  3  0  0  0  0  0  0
  161.2350  204.8130  151.9790 C   0  0  0  0  0  0  0  0  0  0  0  0
  162.1070  207.3550  152.7460 C   0  0  0  0  0  3  0  0  0  0  0  0
  161.1680  206.6740  153.5340 C   0  0  0  0  0  0  0  0  0  0  0  0
  160.7340  205.4050  153.1440 C   0  0  0  0  0  3  0  0  0  0  0  0
  160.6520  207.2500  154.7370 N   0  0  0  0  0  2  0  0  0  0  0  0
  161.1490  208.4880  155.3170 C   0  0  0  0  0  2  0  0  0  0  0  0
  161.5570  208.2600  156.6940 N   0  0  0  0  0  1  0  0  0  0  0  0
  1 25  1  0  0  0  0
  1  2  1  0  0  0  0
  3  2  1  0  0  0  0
  3  4  1  0  0  0  0
  5  7  2  0  0  0  0
  5  4  1  0  0  0  0
  6 15  1  0  0  0  0
  7  6  2  0  0  0  0
  8  5  1  0  0  0  0
  9  8  1  0  0  0  0
  9 10  2  0  0  0  0
 12  9  1  1  0  0  0
 13 12  1  0  0  0  0
 14 11  1  6  0  0  0
 14 13  1  0  0  0  0
 14 12  1  0  0  0  0
 15 17  1  0  0  0  0
 17 16  1  6  0  0  0
 17 19  1  0  0  0  0
 19 18  1  1  0  0  0
 19 20  1  0  0  0  0
 20 21  1  0  0  0  0
 21 22  1  0  0  0  0
 22 24  1  0  0  0  0
 24 23  1  0  0  0  0
 26 25  1  6  0  0  0
 26 32  1  0  0  0  0
 27 31  2  0  0  0  0
 28 26  1  1  0  0  0
 30 28  1  0  0  0  0
 31 29  2  0  0  0  0
 31 30  1  0  0  0  0
 31 28  1  0  0  0  0
 32 33  1  0  0  0  0
 33 34  1  0  0  0  0
 34 35  1  6  0  0  0
 34 38  1  0  0  0  0
 36 37  1  0  0  0  0
 37 35  1  0  0  0  0
 38 41  1  0  0  0  0
 39 42  1  0  0  0  0
 40 39  2  0  0  0  0
 40 41  1  0  0  0  0
 41 44  2  0  0  0  0
 42 43  2  0  0  0  0
 43 45  1  0  0  0  0
 44 43  1  0  0  0  0
 45 46  1  0  0  0  0
 46 47  1  0  0  0  0
M  END
>  <MODEL>
6

>  <REMARK>
 VINA RESULT:      -4.8      3.217      6.565
  Name = 
  26 active torsions:
  status: ('A' for Active; 'I' for Inactive)
    1  A    between atoms: C_2  and  S_17
    2  A    between atoms: C_2  and  C_44
    3  A    between atoms: C_3  and  C_14
    4  A    between atoms: C_3  and  C_18
    5  A    between atoms: C_7  and  N_26
    6  A    between atoms: C_9  and  C_16
    7  A    between atoms: C_9  and  S_17
    8  A    between atoms: O_10  and  C_19
    9  A    between atoms: O_10  and  O_38
   10  A    between atoms: C_11  and  C_12
   11  A    between atoms: C_12  and  C_19
   12  A    between atoms: C_13  and  C_24
   13  A    between atoms: C_13  and  C_30
   14  A    between atoms: C_13  and  O_38
   15  A    between atoms: S_15  and  C_27
   16  A    between atoms: S_15  and  C_35
   17  A    between atoms: C_18  and  C_35
   18  A    between atoms: C_19  and  C_42
   19  A    between atoms: C_22  and  C_27
   20  A    between atoms: C_22  and  O_41
   21  A    between atoms: N_26  and  C_31
   22  A    between atoms: C_28  and  C_44
   23  A    between atoms: C_28  and  C_45
   24  A    between atoms: C_29  and  C_30
   25  A    between atoms: C_29  and  C_45
   26  A    between atoms: C_33  and  C_42
                            x       y       z     vdW  Elec       q    Type
                         _______ _______ _______ _____ _____    ______ ____

>  <TORSDO>
F 26

$$$$
=
 OpenBabel11072414543D

 47 49  0  0  1  0  0  0  0  0999 V2000
  162.5160  208.5790  148.4660 C   0  0  0  0  0  2  0  0  0  0  0  0
  161.3920  209.5320  148.8310 C   0  0  0  0  0  2  0  0  0  0  0  0
  161.8560  210.9710  148.6660 C   0  0  0  0  0  2  0  0  0  0  0  0
  161.3370  211.8360  149.8030 C   0  0  0  0  0  2  0  0  0  0  0  0
  160.7860  213.1230  149.2860 C   0  0  0  0  0  0  0  0  0  0  0  0
  160.7600  213.5640  146.7200 C   0  0  0  0  0  3  0  0  0  0  0  0
  160.7570  213.3430  148.0020 C   0  0  0  0  0  0  0  0  0  0  0  0
  160.3410  214.4380  150.4150 S   0  0  0  0  0  0  0  0  0  0  0  0
  158.7020  213.7580  150.7080 C   0  0  0  0  0  0  0  0  0  0  0  0
  157.9250  213.6450  149.7730 O   0  0  0  0  0  0  0  0  0  0  0  0
  158.4700  213.9780  154.3330 O   0  0  0  0  0  1  0  0  0  0  0  0
  158.3110  213.2790  152.0730 C   0  0  2  0  0  3  0  0  0  0  0  0
  156.9820  213.8830  152.4870 C   0  0  0  0  0  2  0  0  0  0  0  0
  158.2720  214.4520  153.0370 C   0  0  1  0  0  3  0  0  0  0  0  0
  160.9110  212.4240  145.7740 C   0  0  0  0  0  2  0  0  0  0  0  0
  158.4880  212.8580  145.5240 N   0  0  0  0  0  1  0  0  0  0  0  0
  159.6230  212.1070  145.0080 C   0  0  1  0  0  3  0  0  0  0  0  0
  160.3170  211.0730  142.9600 F   0  0  0  0  0  0  0  0  0  0  0  0
  159.7350  212.2140  143.4830 C   0  0  2  0  0  3  0  0  0  0  0  0
  160.6360  213.7050  142.9280 S   0  0  0  0  0  0  0  0  0  0  0  0
  160.3820  213.3450  141.1610 C   0  0  0  0  0  2  0  0  0  0  0  0
  161.7110  213.3100  140.4190 C   0  0  0  0  0  2  0  0  0  0  0  0
  161.2520  212.2070  138.5610 C   0  0  0  0  0  1  0  0  0  0  0  0
  161.5090  213.4870  139.0500 O   0  0  0  0  0  0  0  0  0  0  0  0
  162.0520  207.6540  147.3550 C   0  0  0  0  0  2  0  0  0  0  0  0
  161.4260  206.3980  147.9420 C   0  0  1  0  0  3  0  0  0  0  0  0
  160.6900  204.1360  144.6040 O   0  0  0  0  0  0  0  0  0  0  0  0
  161.7220  205.2180  147.0280 C   0  0  2  0  0  3  0  0  0  0  0  0
  160.0290  206.5340  145.1480 O   0  0  0  0  0  0  0  0  0  0  0  0
  162.4410  205.6680  145.9030 N   0  0  0  0  0  2  0  0  0  0  0  0
  160.7310  205.2780  145.5800 S   0  0  0  0  0  0  0  0  0  0  0  0
  161.9640  206.1620  149.2110 O   0  0  0  0  0  0  0  0  0  0  0  0
  160.9560  205.6840  149.9190 O   0  0  0  0  0  0  0  0  0  0  0  0
  161.4830  204.5880  150.6060 C   0  0  2  0  0  3  0  0  0  0  0  0
  160.3480  203.7660  151.1900 C   0  0  0  0  0  2  0  0  0  0  0  0
  161.2300  202.0650  149.6190 C   0  0  0  0  0  1  0  0  0  0  0  0
  160.6180  202.2880  150.9890 C   0  0  0  0  0  2  0  0  0  0  0  0
  162.3990  205.0880  151.7170 C   0  0  0  0  0  2  0  0  0  0  0  0
  160.5650  206.5530  154.6880 C   0  0  0  0  0  3  0  0  0  0  0  0
  161.2480  205.6510  153.8700 C   0  0  0  0  0  3  0  0  0  0  0  0
  161.6910  206.0500  152.6030 C   0  0  0  0  0  0  0  0  0  0  0  0
  160.3200  207.8530  154.2400 C   0  0  0  0  0  3  0  0  0  0  0  0
  160.7650  208.2620  152.9750 C   0  0  0  0  0  0  0  0  0  0  0  0
  161.4530  207.3570  152.1630 C   0  0  0  0  0  3  0  0  0  0  0  0
  160.5220  209.5870  152.4950 N   0  0  0  0  0  2  0  0  0  0  0  0
  160.2880  210.7300  153.3640 C   0  0  0  0  0  2  0  0  0  0  0  0
  161.5410  211.1630  153.9610 N   0  0  0  0  0  1  0  0  0  0  0  0
  1  2  1  0  0  0  0
  3  2  1  0  0  0  0
  3  4  1  0  0  0  0
  5  4  1  0  0  0  0
  5  8  1  0  0  0  0
  6  7  2  0  0  0  0
  7  5  2  0  0  0  0
  8  9  1  0  0  0  0
 10  9  2  0  0  0  0
 12  9  1  6  0  0  0
 12 13  1  0  0  0  0
 12 14  1  0  0  0  0
 13 14  1  0  0  0  0
 14 11  1  1  0  0  0
 15  6  1  0  0  0  0
 17 16  1  1  0  0  0
 17 15  1  0  0  0  0
 19 18  1  1  0  0  0
 19 17  1  0  0  0  0
 20 19  1  0  0  0  0
 21 20  1  0  0  0  0
 22 21  1  0  0  0  0
 23 24  1  0  0  0  0
 24 22  1  0  0  0  0
 25  1  1  0  0  0  0
 26 25  1  6  0  0  0
 26 32  1  0  0  0  0
 27 31  2  0  0  0  0
 28 26  1  1  0  0  0
 29 31  2  0  0  0  0
 30 28  1  0  0  0  0
 31 30  1  0  0  0  0
 31 28  1  0  0  0  0
 32 33  1  0  0  0  0
 33 34  1  0  0  0  0
 34 35  1  1  0  0  0
 34 38  1  0  0  0  0
 36 37  1  0  0  0  0
 37 35  1  0  0  0  0
 38 41  1  0  0  0  0
 40 39  2  0  0  0  0
 41 40  1  0  0  0  0
 42 39  1  0  0  0  0
 43 42  2  0  0  0  0
 44 41  2  0  0  0  0
 44 43  1  0  0  0  0
 45 43  1  0  0  0  0
 45 46  1  0  0  0  0
 46 47  1  0  0  0  0
M  END
>  <MODEL>
7

>  <REMARK>
 VINA RESULT:      -4.6      1.714      2.258
  Name = 
  26 active torsions:
  status: ('A' for Active; 'I' for Inactive)
    1  A    between atoms: C_2  and  S_17
    2  A    between atoms: C_2  and  C_44
    3  A    between atoms: C_3  and  C_14
    4  A    between atoms: C_3  and  C_18
    5  A    between atoms: C_7  and  N_26
    6  A    between atoms: C_9  and  C_16
    7  A    between atoms: C_9  and  S_17
    8  A    between atoms: O_10  and  C_19
    9  A    between atoms: O_10  and  O_38
   10  A    between atoms: C_11  and  C_12
   11  A    between atoms: C_12  and  C_19
   12  A    between atoms: C_13  and  C_24
   13  A    between atoms: C_13  and  C_30
   14  A    between atoms: C_13  and  O_38
   15  A    between atoms: S_15  and  C_27
   16  A    between atoms: S_15  and  C_35
   17  A    between atoms: C_18  and  C_35
   18  A    between atoms: C_19  and  C_42
   19  A    between atoms: C_22  and  C_27
   20  A    between atoms: C_22  and  O_41
   21  A    between atoms: N_26  and  C_31
   22  A    between atoms: C_28  and  C_44
   23  A    between atoms: C_28  and  C_45
   24  A    between atoms: C_29  and  C_30
   25  A    between atoms: C_29  and  C_45
   26  A    between atoms: C_33  and  C_42
                            x       y       z     vdW  Elec       q    Type
                         _______ _______ _______ _____ _____    ______ ____

>  <TORSDO>
F 26

$$$$
=
 OpenBabel11072414543D

 47 49  0  0  1  0  0  0  0  0999 V2000
  161.4410  207.9170  148.0520 C   0  0  0  0  0  2  0  0  0  0  0  0
  161.3230  206.4500  148.4210 C   0  0  0  0  0  2  0  0  0  0  0  0
  160.4600  206.2920  149.6630 C   0  0  0  0  0  2  0  0  0  0  0  0
  161.3180  205.9700  150.8760 C   0  0  0  0  0  2  0  0  0  0  0  0
  160.9680  204.6320  151.4360 C   0  0  0  0  0  0  0  0  0  0  0  0
  160.6370  202.6160  149.8230 C   0  0  0  0  0  3  0  0  0  0  0  0
  160.8150  203.6170  150.6350 C   0  0  0  0  0  0  0  0  0  0  0  0
  160.5700  204.4530  153.1720 S   0  0  0  0  0  0  0  0  0  0  0  0
  161.3500  206.0140  153.6080 C   0  0  0  0  0  0  0  0  0  0  0  0
  162.5370  206.1770  153.3710 O   0  0  0  0  0  0  0  0  0  0  0  0
  159.3230  207.6030  156.1780 O   0  0  0  0  0  1  0  0  0  0  0  0
  160.5410  207.1270  154.2000 C   0  0  2  0  0  3  0  0  0  0  0  0
  161.4040  207.9870  155.1050 C   0  0  0  0  0  2  0  0  0  0  0  0
  160.4680  206.9620  155.7080 C   0  0  1  0  0  3  0  0  0  0  0  0
  161.1710  202.6880  148.4350 C   0  0  0  0  0  2  0  0  0  0  0  0
  161.4190  200.2590  148.8330 N   0  0  0  0  0  1  0  0  0  0  0  0
  161.4440  201.3090  147.8260 C   0  0  1  0  0  3  0  0  0  0  0  0
  161.3360  200.3020  145.6540 F   0  0  0  0  0  0  0  0  0  0  0  0
  160.5800  200.9560  146.6100 C   0  0  2  0  0  3  0  0  0  0  0  0
  159.7370  202.4050  145.8790 S   0  0  0  0  0  0  0  0  0  0  0  0
  161.2430  203.0130  145.0540 C   0  0  0  0  0  2  0  0  0  0  0  0
  161.5880  204.4190  145.5250 C   0  0  0  0  0  2  0  0  0  0  0  0
  160.4550  206.2050  144.8920 C   0  0  0  0  0  1  0  0  0  0  0  0
  161.4560  205.3290  144.4760 O   0  0  0  0  0  0  0  0  0  0  0  0
  162.3940  208.6060  149.0130 C   0  0  0  0  0  2  0  0  0  0  0  0
  161.7610  209.8750  149.5630 C   0  0  1  0  0  3  0  0  0  0  0  0
  161.5920  210.8720  153.5350 O   0  0  0  0  0  0  0  0  0  0  0  0
  162.4210  210.2290  150.8870 C   0  0  2  0  0  3  0  0  0  0  0  0
  159.8520  209.7710  152.0380 O   0  0  0  0  0  0  0  0  0  0  0  0
  162.4190  209.0970  151.7280 N   0  0  0  0  0  2  0  0  0  0  0  0
  161.2310  210.3510  152.1720 S   0  0  0  0  0  0  0  0  0  0  0  0
  161.9420  210.9170  148.6480 O   0  0  0  0  0  0  0  0  0  0  0  0
  161.7240  212.0180  149.3450 O   0  0  0  0  0  0  0  0  0  0  0  0
  161.1670  212.9190  148.4350 C   0  0  2  0  0  3  0  0  0  0  0  0
  162.1860  213.2440  147.3580 C   0  0  0  0  0  2  0  0  0  0  0  0
  160.3380  213.7450  145.7870 C   0  0  0  0  0  1  0  0  0  0  0  0
  161.6100  212.9460  145.9890 C   0  0  0  0  0  2  0  0  0  0  0  0
  160.7590  214.1870  149.1760 C   0  0  0  0  0  2  0  0  0  0  0  0
  157.0130  213.7350  149.4930 C   0  0  0  0  0  3  0  0  0  0  0  0
  158.2900  213.8410  148.9360 C   0  0  0  0  0  3  0  0  0  0  0  0
  159.3990  214.0510  149.7640 C   0  0  0  0  0  0  0  0  0  0  0  0
  156.8430  213.8440  150.8750 C   0  0  0  0  0  3  0  0  0  0  0  0
  157.9510  214.0490  151.7100 C   0  0  0  0  0  0  0  0  0  0  0  0
  159.2260  214.1480  151.1490 C   0  0  0  0  0  3  0  0  0  0  0  0
  157.8000  214.1680  153.1270 N   0  0  0  0  0  2  0  0  0  0  0  0
  156.5130  214.1540  153.8060 C   0  0  0  0  0  2  0  0  0  0  0  0
  156.1870  212.8000  154.2210 N   0  0  0  0  0  1  0  0  0  0  0  0
  1  2  1  0  0  0  0
  1 25  1  0  0  0  0
  2  3  1  0  0  0  0
  3  4  1  0  0  0  0
  4  5  1  0  0  0  0
  5  8  1  0  0  0  0
  6  7  2  0  0  0  0
  7  5  2  0  0  0  0
  8  9  1  0  0  0  0
 10  9  2  0  0  0  0
 12  9  1  6  0  0  0
 12 13  1  0  0  0  0
 12 14  1  0  0  0  0
 13 14  1  0  0  0  0
 14 11  1  1  0  0  0
 15  6  1  0  0  0  0
 17 15  1  0  0  0  0
 17 16  1  1  0  0  0
 19 18  1  6  0  0  0
 19 17  1  0  0  0  0
 20 19  1  0  0  0  0
 21 22  1  0  0  0  0
 21 20  1  0  0  0  0
 24 23  1  0  0  0  0
 24 22  1  0  0  0  0
 26 25  1  6  0  0  0
 28 26  1  6  0  0  0
 28 30  1  0  0  0  0
 28 31  1  0  0  0  0
 29 31  2  0  0  0  0
 30 31  1  0  0  0  0
 31 27  2  0  0  0  0
 32 33  1  0  0  0  0
 32 26  1  0  0  0  0
 34 35  1  6  0  0  0
 34 38  1  0  0  0  0
 34 33  1  0  0  0  0
 36 37  1  0  0  0  0
 37 35  1  0  0  0  0
 38 41  1  0  0  0  0
 39 42  1  0  0  0  0
 40 39  2  0  0  0  0
 40 41  1  0  0  0  0
 41 44  2  0  0  0  0
 42 43  2  0  0  0  0
 43 45  1  0  0  0  0
 44 43  1  0  0  0  0
 45 46  1  0  0  0  0
 46 47  1  0  0  0  0
M  END
>  <MODEL>
8

>  <REMARK>
 VINA RESULT:      -4.5      4.098      8.947
  Name = 
  26 active torsions:
  status: ('A' for Active; 'I' for Inactive)
    1  A    between atoms: C_2  and  S_17
    2  A    between atoms: C_2  and  C_44
    3  A    between atoms: C_3  and  C_14
    4  A    between atoms: C_3  and  C_18
    5  A    between atoms: C_7  and  N_26
    6  A    between atoms: C_9  and  C_16
    7  A    between atoms: C_9  and  S_17
    8  A    between atoms: O_10  and  C_19
    9  A    between atoms: O_10  and  O_38
   10  A    between atoms: C_11  and  C_12
   11  A    between atoms: C_12  and  C_19
   12  A    between atoms: C_13  and  C_24
   13  A    between atoms: C_13  and  C_30
   14  A    between atoms: C_13  and  O_38
   15  A    between atoms: S_15  and  C_27
   16  A    between atoms: S_15  and  C_35
   17  A    between atoms: C_18  and  C_35
   18  A    between atoms: C_19  and  C_42
   19  A    between atoms: C_22  and  C_27
   20  A    between atoms: C_22  and  O_41
   21  A    between atoms: N_26  and  C_31
   22  A    between atoms: C_28  and  C_44
   23  A    between atoms: C_28  and  C_45
   24  A    between atoms: C_29  and  C_30
   25  A    between atoms: C_29  and  C_45
   26  A    between atoms: C_33  and  C_42
                            x       y       z     vdW  Elec       q    Type
                         _______ _______ _______ _____ _____    ______ ____

>  <TORSDO>
F 26

$$$$
=
 OpenBabel11072414543D

 47 49  0  0  1  0  0  0  0  0999 V2000
  160.8210  206.9110  153.4430 C   0  0  0  0  0  2  0  0  0  0  0  0
  161.0840  208.1250  154.3140 C   0  0  0  0  0  2  0  0  0  0  0  0
  161.3690  209.3400  153.4450 C   0  0  0  0  0  2  0  0  0  0  0  0
  160.0750  210.0270  153.0420 C   0  0  0  0  0  2  0  0  0  0  0  0
  160.0110  211.4110  153.5940 C   0  0  0  0  0  0  0  0  0  0  0  0
  159.6480  213.4190  151.9770 C   0  0  0  0  0  3  0  0  0  0  0  0
  159.8150  212.4180  152.7910 C   0  0  0  0  0  0  0  0  0  0  0  0
  160.3900  211.7190  155.3160 S   0  0  0  0  0  0  0  0  0  0  0  0
  158.7310  212.3140  155.6710 C   0  0  0  0  0  0  0  0  0  0  0  0
  158.5800  213.4440  156.1070 O   0  0  0  0  0  0  0  0  0  0  0  0
  155.4140  210.9620  156.3110 O   0  0  0  0  0  1  0  0  0  0  0  0
  157.5380  211.4550  155.3810 C   0  0  2  0  0  3  0  0  0  0  0  0
  156.4840  212.2460  154.6280 C   0  0  0  0  0  2  0  0  0  0  0  0
  156.3230  211.9990  156.1120 C   0  0  1  0  0  3  0  0  0  0  0  0
  159.1170  213.1750  150.6060 C   0  0  0  0  0  2  0  0  0  0  0  0
  161.1800  212.5140  149.4100 N   0  0  0  0  0  1  0  0  0  0  0  0
  160.1260  213.5140  149.5050 C   0  0  1  0  0  3  0  0  0  0  0  0
  158.4520  212.9710  147.8780 F   0  0  0  0  0  0  0  0  0  0  0  0
  159.5080  213.8250  148.1360 C   0  0  2  0  0  3  0  0  0  0  0  0
  160.7220  213.7760  146.7690 S   0  0  0  0  0  0  0  0  0  0  0  0
  159.4400  213.7260  145.4760 C   0  0  0  0  0  2  0  0  0  0  0  0
  159.4120  212.3650  144.7940 C   0  0  0  0  0  2  0  0  0  0  0  0
  160.5760  211.9500  142.9640 C   0  0  0  0  0  1  0  0  0  0  0  0
  159.3820  212.5170  143.4070 O   0  0  0  0  0  0  0  0  0  0  0  0
  162.0760  206.5690  152.6600 C   0  0  0  0  0  2  0  0  0  0  0  0
  161.7420  206.3670  151.1900 C   0  0  1  0  0  3  0  0  0  0  0  0
  162.2300  208.4290  147.6820 O   0  0  0  0  0  0  0  0  0  0  0  0
  162.2660  207.5500  150.3910 C   0  0  2  0  0  3  0  0  0  0  0  0
  160.5480  206.6240  148.3110 O   0  0  0  0  0  0  0  0  0  0  0  0
  161.2120  208.4520  150.1450 N   0  0  0  0  0  2  0  0  0  0  0  0
  161.7060  207.4870  148.7290 S   0  0  0  0  0  0  0  0  0  0  0  0
  162.3370  205.1850  150.7370 O   0  0  0  0  0  0  0  0  0  0  0  0
  161.5780  204.2190  151.2200 O   0  0  0  0  0  0  0  0  0  0  0  0
  161.0060  203.6120  150.1000 C   0  0  2  0  0  3  0  0  0  0  0  0
  160.3190  202.3250  150.5190 C   0  0  0  0  0  2  0  0  0  0  0  0
  160.1210  203.3510  152.7650 C   0  0  0  0  0  1  0  0  0  0  0  0
  160.5050  202.0960  152.0060 C   0  0  0  0  0  2  0  0  0  0  0  0
  162.1000  203.3170  149.0790 C   0  0  0  0  0  2  0  0  0  0  0  0
  160.5220  201.1830  146.3780 C   0  0  0  0  0  3  0  0  0  0  0  0
  161.0470  201.5840  147.6100 C   0  0  0  0  0  3  0  0  0  0  0  0
  161.5190  202.8910  147.7780 C   0  0  0  0  0  0  0  0  0  0  0  0
  160.4730  202.0870  145.3150 C   0  0  0  0  0  3  0  0  0  0  0  0
  160.9380  203.4000  145.4780 C   0  0  0  0  0  0  0  0  0  0  0  0
  161.4560  203.7960  146.7130 C   0  0  0  0  0  3  0  0  0  0  0  0
  160.9000  204.3400  144.4020 N   0  0  0  0  0  2  0  0  0  0  0  0
  161.3030  205.7320  144.5310 C   0  0  0  0  0  2  0  0  0  0  0  0
  160.1590  206.5440  144.9140 N   0  0  0  0  0  1  0  0  0  0  0  0
  1  2  1  0  0  0  0
  3  2  1  0  0  0  0
  4  3  1  0  0  0  0
  4  5  1  0  0  0  0
  5  8  1  0  0  0  0
  6  7  2  0  0  0  0
  7  5  2  0  0  0  0
  8  9  1  0  0  0  0
  9 10  2  0  0  0  0
 12  9  1  1  0  0  0
 12 14  1  0  0  0  0
 13 12  1  0  0  0  0
 13 14  1  0  0  0  0
 14 11  1  6  0  0  0
 15  6  1  0  0  0  0
 17 16  1  6  0  0  0
 17 15  1  0  0  0  0
 19 18  1  6  0  0  0
 19 17  1  0  0  0  0
 20 19  1  0  0  0  0
 21 20  1  0  0  0  0
 22 21  1  0  0  0  0
 23 24  1  0  0  0  0
 24 22  1  0  0  0  0
 25  1  1  0  0  0  0
 26 25  1  1  0  0  0
 27 31  2  0  0  0  0
 28 26  1  1  0  0  0
 29 31  2  0  0  0  0
 30 28  1  0  0  0  0
 31 30  1  0  0  0  0
 31 28  1  0  0  0  0
 32 26  1  0  0  0  0
 32 33  1  0  0  0  0
 34 38  1  6  0  0  0
 34 35  1  0  0  0  0
 34 33  1  0  0  0  0
 35 37  1  0  0  0  0
 37 36  1  0  0  0  0
 39 40  1  0  0  0  0
 40 41  2  0  0  0  0
 41 38  1  0  0  0  0
 42 43  1  0  0  0  0
 42 39  2  0  0  0  0
 43 44  2  0  0  0  0
 44 41  1  0  0  0  0
 45 46  1  0  0  0  0
 45 43  1  0  0  0  0
 46 47  1  0  0  0  0
M  END
>  <MODEL>
9

>  <REMARK>
 VINA RESULT:      -4.1      3.033      6.292
  Name = 
  26 active torsions:
  status: ('A' for Active; 'I' for Inactive)
    1  A    between atoms: C_2  and  S_17
    2  A    between atoms: C_2  and  C_44
    3  A    between atoms: C_3  and  C_14
    4  A    between atoms: C_3  and  C_18
    5  A    between atoms: C_7  and  N_26
    6  A    between atoms: C_9  and  C_16
    7  A    between atoms: C_9  and  S_17
    8  A    between atoms: O_10  and  C_19
    9  A    between atoms: O_10  and  O_38
   10  A    between atoms: C_11  and  C_12
   11  A    between atoms: C_12  and  C_19
   12  A    between atoms: C_13  and  C_24
   13  A    between atoms: C_13  and  C_30
   14  A    between atoms: C_13  and  O_38
   15  A    between atoms: S_15  and  C_27
   16  A    between atoms: S_15  and  C_35
   17  A    between atoms: C_18  and  C_35
   18  A    between atoms: C_19  and  C_42
   19  A    between atoms: C_22  and  C_27
   20  A    between atoms: C_22  and  O_41
   21  A    between atoms: N_26  and  C_31
   22  A    between atoms: C_28  and  C_44
   23  A    between atoms: C_28  and  C_45
   24  A    between atoms: C_29  and  C_30
   25  A    between atoms: C_29  and  C_45
   26  A    between atoms: C_33  and  C_42
                            x       y       z     vdW  Elec       q    Type
                         _______ _______ _______ _____ _____    ______ ____

>  <TORSDO>
F 26

$$$$
