=
 OpenBabel11072411193D

 28 31  0  0  1  0  0  0  0  0999 V2000
  161.8330  206.2190  148.7990 C   0  0  2  0  0  3  0  0  0  0  0  0
  160.4810  203.1650  150.3220 C   0  0  0  0  0  0  0  0  0  0  0  0
  160.3570  201.2410  148.9440 N   0  0  0  0  0  0  0  0  0  0  0  0
  161.3410  203.2550  148.0730 C   0  0  0  0  0  3  0  0  0  0  0  0
  161.3780  205.1710  149.7040 N   0  0  0  0  0  0  0  0  0  0  0  0
  160.8540  205.3930  151.0580 C   0  0  1  0  0  3  0  0  0  0  0  0
  160.9610  201.9120  147.9160 C   0  0  0  0  0  0  0  0  0  0  0  0
  160.2770  204.0380  151.5170 C   0  0  2  0  0  3  0  0  0  0  0  0
  161.0750  203.8500  149.3040 C   0  0  0  0  0  0  0  0  0  0  0  0
  161.2040  201.2480  146.6820 N   0  0  0  0  0  1  0  0  0  0  0  0
  161.6040  204.5390  152.0680 C   0  0  2  0  0  3  0  0  0  0  0  0
  161.4040  205.0580  153.3460 O   0  0  0  0  0  1  0  0  0  0  0  0
  160.1040  201.8370  150.1460 C   0  0  0  0  0  3  0  0  0  0  0  0
  162.3800  207.3960  149.5970 C   0  0  0  0  0  2  0  0  0  0  0  0
  162.0670  208.6850  148.9090 C   0  0  0  0  0  3  0  0  0  0  0  0
  162.0730  209.8600  149.5340 C   0  0  0  0  0  0  0  0  0  0  0  0
  161.7630  211.0080  148.8170 O   0  0  0  0  0  1  0  0  0  0  0  0
  162.3810  209.9800  150.9940 C   0  0  0  0  0  2  0  0  0  0  0  0
  160.4990  208.8970  152.2200 O   0  0  0  0  0  1  0  0  0  0  0  0
  161.1200  210.0590  151.7840 C   0  0  0  0  0  0  0  0  0  0  0  0
  160.6360  211.1810  152.0850 O   0  0  0  0  0  0  0  0  0  0  0  0
  160.6860  206.6520  147.8920 C   0  0  0  0  0  2  0  0  0  0  0  0
  162.7510  205.5400  144.8080 C   0  0  0  0  0  2  0  0  0  0  0  0
  159.8830  205.6820  145.7380 C   0  0  0  0  0  2  0  0  0  0  0  0
  161.5530  205.4870  143.8500 C   0  0  0  0  0  2  0  0  0  0  0  0
  160.3340  204.8610  144.5220 C   0  0  0  0  0  2  0  0  0  0  0  0
  161.0270  206.4380  146.4270 C   0  0  0  0  0  3  0  0  0  0  0  0
  162.3510  205.6870  146.2830 C   0  0  0  0  0  2  0  0  0  0  0  0
  1 22  1  1  0  0  0
  1 14  1  0  0  0  0
  1  5  1  0  0  0  0
  3 13  2  0  0  0  0
  4  9  1  0  0  0  0
  6  5  1  6  0  0  0
  6  8  1  0  0  0  0
  6 11  1  0  0  0  0
  7  4  2  0  0  0  0
  7  3  1  0  0  0  0
  8  2  1  6  0  0  0
  8 11  1  0  0  0  0
  9  5  1  0  0  0  0
  9  2  2  0  0  0  0
 10  7  1  0  0  0  0
 11 12  1  1  0  0  0
 13  2  1  0  0  0  0
 15 16  2  0  0  0  0
 15 14  1  0  0  0  0
 16 18  1  0  0  0  0
 17 16  1  0  0  0  0
 18 20  1  0  0  0  0
 20 21  2  0  0  0  0
 20 19  1  0  0  0  0
 23 28  1  0  0  0  0
 24 27  1  0  0  0  0
 25 26  1  0  0  0  0
 25 23  1  0  0  0  0
 26 24  1  0  0  0  0
 27 22  1  0  0  0  0
 28 27  1  0  0  0  0
M  END
>  <MODEL>
1

>  <REMARK>
 VINA RESULT:      -7.6      0.000      0.000
  Name = 
  7 active torsions:
  status: ('A' for Active; 'I' for Inactive)
    1  A    between atoms: N_5  and  C_8
    2  A    between atoms: C_6  and  C_18
    3  A    between atoms: C_8  and  C_18
    4  A    between atoms: C_8  and  C_25
    5  A    between atoms: C_10  and  C_19
    6  A    between atoms: C_11  and  C_19
    7  A    between atoms: C_24  and  C_25
                            x       y       z     vdW  Elec       q    Type
                         _______ _______ _______ _____ _____    ______ ____

>  <TORSDO>
F 7

$$$$
=
 OpenBabel11072411193D

 28 31  0  0  1  0  0  0  0  0999 V2000
  161.1340  205.4580  149.8510 C   0  0  2  0  0  3  0  0  0  0  0  0
  161.9730  208.4320  151.8320 C   0  0  0  0  0  0  0  0  0  0  0  0
  162.2530  210.4680  150.6500 N   0  0  0  0  0  0  0  0  0  0  0  0
  161.5840  208.4910  149.4550 C   0  0  0  0  0  3  0  0  0  0  0  0
  161.3370  206.4470  150.9020 N   0  0  0  0  0  0  0  0  0  0  0  0
  161.5940  206.1370  152.3140 C   0  0  1  0  0  3  0  0  0  0  0  0
  161.9060  209.8580  149.4750 C   0  0  0  0  0  0  0  0  0  0  0  0
  161.9870  207.4730  152.9770 C   0  0  2  0  0  3  0  0  0  0  0  0
  161.6340  207.8090  150.6680 C   0  0  0  0  0  0  0  0  0  0  0  0
  161.8740  210.6100  148.2690 N   0  0  0  0  0  1  0  0  0  0  0  0
  160.6090  206.8710  153.2110 C   0  0  2  0  0  3  0  0  0  0  0  0
  160.5820  206.2570  154.4620 O   0  0  0  0  0  1  0  0  0  0  0  0
  162.2970  209.7860  151.8320 C   0  0  0  0  0  3  0  0  0  0  0  0
  161.3970  204.0590  150.3930 C   0  0  0  0  0  2  0  0  0  0  0  0
  160.2080  203.1810  150.1740 C   0  0  0  0  0  3  0  0  0  0  0  0
  160.2550  202.0630  149.4520 C   0  0  0  0  0  0  0  0  0  0  0  0
  159.0970  201.3130  149.2950 O   0  0  0  0  0  1  0  0  0  0  0  0
  161.5130  201.6040  148.7840 C   0  0  0  0  0  2  0  0  0  0  0  0
  160.5590  201.6690  146.4810 O   0  0  0  0  0  0  0  0  0  0  0  0
  161.2000  200.9510  147.4820 C   0  0  0  0  0  0  0  0  0  0  0  0
  161.5450  199.7590  147.2770 O   0  0  0  0  0  1  0  0  0  0  0  0
  162.0420  205.7710  148.6650 C   0  0  0  0  0  2  0  0  0  0  0  0
  160.1990  205.9660  145.2620 C   0  0  0  0  0  2  0  0  0  0  0  0
  162.4890  204.4950  146.5680 C   0  0  0  0  0  2  0  0  0  0  0  0
  160.7740  204.6510  144.7180 C   0  0  0  0  0  2  0  0  0  0  0  0
  162.2570  204.5140  145.0510 C   0  0  0  0  0  2  0  0  0  0  0  0
  161.4360  205.2820  147.3600 C   0  0  0  0  0  3  0  0  0  0  0  0
  160.8910  206.4530  146.5430 C   0  0  0  0  0  2  0  0  0  0  0  0
  1 22  1  6  0  0  0
  1 14  1  0  0  0  0
  1  5  1  0  0  0  0
  3 13  2  0  0  0  0
  4  7  2  0  0  0  0
  4  9  1  0  0  0  0
  6  5  1  6  0  0  0
  6  8  1  0  0  0  0
  6 11  1  0  0  0  0
  7  3  1  0  0  0  0
  8  2  1  6  0  0  0
  8 11  1  0  0  0  0
  9  5  1  0  0  0  0
  9  2  2  0  0  0  0
 10  7  1  0  0  0  0
 11 12  1  1  0  0  0
 13  2  1  0  0  0  0
 15 14  1  0  0  0  0
 16 15  2  0  0  0  0
 17 16  1  0  0  0  0
 18 16  1  0  0  0  0
 19 20  2  0  0  0  0
 20 18  1  0  0  0  0
 21 20  1  0  0  0  0
 23 28  1  0  0  0  0
 24 27  1  0  0  0  0
 25 26  1  0  0  0  0
 25 23  1  0  0  0  0
 26 24  1  0  0  0  0
 27 22  1  0  0  0  0
 28 27  1  0  0  0  0
M  END
>  <MODEL>
2

>  <REMARK>
 VINA RESULT:      -7.4      3.075      6.255
  Name = 
  7 active torsions:
  status: ('A' for Active; 'I' for Inactive)
    1  A    between atoms: N_5  and  C_8
    2  A    between atoms: C_6  and  C_18
    3  A    between atoms: C_8  and  C_18
    4  A    between atoms: C_8  and  C_25
    5  A    between atoms: C_10  and  C_19
    6  A    between atoms: C_11  and  C_19
    7  A    between atoms: C_24  and  C_25
                            x       y       z     vdW  Elec       q    Type
                         _______ _______ _______ _____ _____    ______ ____

>  <TORSDO>
F 7

$$$$
=
 OpenBabel11072411193D

 28 31  0  0  1  0  0  0  0  0999 V2000
  161.9840  206.9150  149.5310 C   0  0  2  0  0  3  0  0  0  0  0  0
  161.1250  209.6680  151.8010 C   0  0  0  0  0  0  0  0  0  0  0  0
  160.7210  209.1060  154.0680 N   0  0  0  0  0  0  0  0  0  0  0  0
  161.4090  207.3890  152.5310 C   0  0  0  0  0  3  0  0  0  0  0  0
  161.7910  208.2040  150.1810 N   0  0  0  0  0  0  0  0  0  0  0  0
  161.6070  209.4830  149.4820 C   0  0  1  0  0  3  0  0  0  0  0  0
  161.0380  207.7980  153.8230 C   0  0  0  0  0  0  0  0  0  0  0  0
  161.1950  210.5020  150.5640 C   0  0  2  0  0  3  0  0  0  0  0  0
  161.4350  208.3670  151.5390 C   0  0  0  0  0  0  0  0  0  0  0  0
  160.9910  206.8460  154.8790 N   0  0  0  0  0  1  0  0  0  0  0  0
  162.6030  210.5160  149.9860 C   0  0  2  0  0  3  0  0  0  0  0  0
  162.7070  211.5470  149.0540 O   0  0  0  0  0  1  0  0  0  0  0  0
  160.7530  210.0540  153.0860 C   0  0  0  0  0  3  0  0  0  0  0  0
  162.2210  207.1130  148.0390 C   0  0  0  0  0  2  0  0  0  0  0  0
  160.9730  206.8240  147.2690 C   0  0  0  0  0  3  0  0  0  0  0  0
  160.9800  206.2660  146.0600 C   0  0  0  0  0  0  0  0  0  0  0  0
  159.7720  206.0410  145.4150 O   0  0  0  0  0  1  0  0  0  0  0  0
  162.2530  205.8960  145.3660 C   0  0  0  0  0  2  0  0  0  0  0  0
  161.8400  203.4430  145.5400 O   0  0  0  0  0  0  0  0  0  0  0  0
  162.6800  204.5250  145.7630 C   0  0  0  0  0  0  0  0  0  0  0  0
  163.8170  204.3430  146.2720 O   0  0  0  0  0  1  0  0  0  0  0  0
  160.7740  206.0220  149.7850 C   0  0  0  0  0  2  0  0  0  0  0  0
  161.0280  202.7150  151.7880 C   0  0  0  0  0  2  0  0  0  0  0  0
  160.8280  203.6770  148.9340 C   0  0  0  0  0  2  0  0  0  0  0  0
  161.4150  201.8500  150.5810 C   0  0  0  0  0  2  0  0  0  0  0  0
  160.5910  202.2180  149.3500 C   0  0  0  0  0  2  0  0  0  0  0  0
  161.1940  204.5970  150.1060 C   0  0  0  0  0  3  0  0  0  0  0  0
  160.5450  204.1210  151.4060 C   0  0  0  0  0  2  0  0  0  0  0  0
  1 14  1  6  0  0  0
  1 22  1  0  0  0  0
  1  5  1  0  0  0  0
  2 13  1  0  0  0  0
  4  7  2  0  0  0  0
  5  9  1  0  0  0  0
  6 11  1  0  0  0  0
  6  5  1  1  0  0  0
  6  8  1  0  0  0  0
  7  3  1  0  0  0  0
  7 10  1  0  0  0  0
  8  2  1  1  0  0  0
  9  2  2  0  0  0  0
  9  4  1  0  0  0  0
 11 12  1  6  0  0  0
 11  8  1  0  0  0  0
 13  3  2  0  0  0  0
 15 14  1  0  0  0  0
 16 15  2  0  0  0  0
 17 16  1  0  0  0  0
 18 20  1  0  0  0  0
 18 16  1  0  0  0  0
 19 20  2  0  0  0  0
 20 21  1  0  0  0  0
 22 27  1  0  0  0  0
 24 26  1  0  0  0  0
 24 27  1  0  0  0  0
 25 23  1  0  0  0  0
 26 25  1  0  0  0  0
 27 28  1  0  0  0  0
 28 23  1  0  0  0  0
M  END
>  <MODEL>
3

>  <REMARK>
 VINA RESULT:      -7.4      3.118      6.533
  Name = 
  7 active torsions:
  status: ('A' for Active; 'I' for Inactive)
    1  A    between atoms: N_5  and  C_8
    2  A    between atoms: C_6  and  C_18
    3  A    between atoms: C_8  and  C_18
    4  A    between atoms: C_8  and  C_25
    5  A    between atoms: C_10  and  C_19
    6  A    between atoms: C_11  and  C_19
    7  A    between atoms: C_24  and  C_25
                            x       y       z     vdW  Elec       q    Type
                         _______ _______ _______ _____ _____    ______ ____

>  <TORSDO>
F 7

$$$$
=
 OpenBabel11072411193D

 28 31  0  0  1  0  0  0  0  0999 V2000
  161.4350  207.5750  148.9930 C   0  0  2  0  0  3  0  0  0  0  0  0
  161.4290  204.1230  147.7450 C   0  0  0  0  0  0  0  0  0  0  0  0
  160.9450  202.4130  149.3140 N   0  0  0  0  0  0  0  0  0  0  0  0
  160.8530  204.7140  150.0090 C   0  0  0  0  0  3  0  0  0  0  0  0
  161.3930  206.3620  148.1860 N   0  0  0  0  0  0  0  0  0  0  0  0
  161.8480  206.2590  146.7930 C   0  0  1  0  0  3  0  0  0  0  0  0
  160.7200  203.3440  150.2910 C   0  0  0  0  0  0  0  0  0  0  0  0
  161.8430  204.7540  146.4560 C   0  0  2  0  0  3  0  0  0  0  0  0
  161.2170  205.0620  148.7100 C   0  0  0  0  0  0  0  0  0  0  0  0
  160.3520  202.9250  151.5990 N   0  0  0  0  0  1  0  0  0  0  0  0
  160.7550  205.6710  145.9150 C   0  0  2  0  0  3  0  0  0  0  0  0
  161.0260  205.9690  144.5810 O   0  0  0  0  0  1  0  0  0  0  0  0
  161.3000  202.7690  148.0450 C   0  0  0  0  0  3  0  0  0  0  0  0
  161.4050  208.8030  148.0920 C   0  0  0  0  0  2  0  0  0  0  0  0
  162.2020  209.9140  148.6950 C   0  0  0  0  0  3  0  0  0  0  0  0
  162.0090  211.1950  148.3870 C   0  0  0  0  0  0  0  0  0  0  0  0
  162.8010  212.1610  148.9920 O   0  0  0  0  0  1  0  0  0  0  0  0
  160.9790  211.6230  147.3890 C   0  0  0  0  0  2  0  0  0  0  0  0
  160.7840  214.1040  147.2510 O   0  0  0  0  0  1  0  0  0  0  0  0
  161.3560  212.9300  146.7830 C   0  0  0  0  0  0  0  0  0  0  0  0
  162.2190  212.9730  145.8670 O   0  0  0  0  0  0  0  0  0  0  0  0
  162.6800  207.5660  149.8740 C   0  0  0  0  0  2  0  0  0  0  0  0
  160.5320  208.3940  152.9900 C   0  0  0  0  0  2  0  0  0  0  0  0
  162.5220  206.3340  152.0380 C   0  0  0  0  0  2  0  0  0  0  0  0
  161.3030  207.4670  153.9400 C   0  0  0  0  0  2  0  0  0  0  0  0
  161.6300  206.1350  153.2710 C   0  0  0  0  0  2  0  0  0  0  0  0
  162.3190  207.6880  151.3450 C   0  0  0  0  0  3  0  0  0  0  0  0
  160.8820  208.1830  151.5100 C   0  0  0  0  0  2  0  0  0  0  0  0
  1 14  1  6  0  0  0
  1 22  1  0  0  0  0
  2 13  2  0  0  0  0
  2  9  1  0  0  0  0
  3  7  2  0  0  0  0
  4  7  1  0  0  0  0
  5  9  1  0  0  0  0
  5  1  1  0  0  0  0
  6  5  1  1  0  0  0
  7 10  1  0  0  0  0
  8  6  1  0  0  0  0
  8  2  1  1  0  0  0
  9  4  2  0  0  0  0
 11 12  1  6  0  0  0
 11  8  1  0  0  0  0
 11  6  1  0  0  0  0
 13  3  1  0  0  0  0
 14 15  1  0  0  0  0
 16 15  2  0  0  0  0
 16 17  1  0  0  0  0
 18 16  1  0  0  0  0
 20 19  1  0  0  0  0
 20 18  1  0  0  0  0
 21 20  2  0  0  0  0
 22 27  1  0  0  0  0
 23 25  1  0  0  0  0
 24 26  1  0  0  0  0
 26 25  1  0  0  0  0
 27 28  1  0  0  0  0
 27 24  1  0  0  0  0
 28 23  1  0  0  0  0
M  END
>  <MODEL>
4

>  <REMARK>
 VINA RESULT:      -7.3      2.478      5.266
  Name = 
  7 active torsions:
  status: ('A' for Active; 'I' for Inactive)
    1  A    between atoms: N_5  and  C_8
    2  A    between atoms: C_6  and  C_18
    3  A    between atoms: C_8  and  C_18
    4  A    between atoms: C_8  and  C_25
    5  A    between atoms: C_10  and  C_19
    6  A    between atoms: C_11  and  C_19
    7  A    between atoms: C_24  and  C_25
                            x       y       z     vdW  Elec       q    Type
                         _______ _______ _______ _____ _____    ______ ____

>  <TORSDO>
F 7

$$$$
=
 OpenBabel11072411193D

 28 31  0  0  1  0  0  0  0  0999 V2000
  161.8700  206.2370  149.1110 C   0  0  2  0  0  3  0  0  0  0  0  0
  162.0150  209.1990  151.2740 C   0  0  0  0  0  0  0  0  0  0  0  0
  162.0390  211.3130  150.2020 N   0  0  0  0  0  0  0  0  0  0  0  0
  161.8230  209.3190  148.8750 C   0  0  0  0  0  3  0  0  0  0  0  0
  161.8110  207.1880  150.2140 N   0  0  0  0  0  0  0  0  0  0  0  0
  161.9980  206.8500  151.6310 C   0  0  1  0  0  3  0  0  0  0  0  0
  161.9020  210.7180  148.9780 C   0  0  0  0  0  0  0  0  0  0  0  0
  162.0990  208.1960  152.3780 C   0  0  2  0  0  3  0  0  0  0  0  0
  161.8880  208.5910  150.0610 C   0  0  0  0  0  0  0  0  0  0  0  0
  161.8420  211.5170  147.8030 N   0  0  0  0  0  1  0  0  0  0  0  0
  160.8300  207.3590  152.4610 C   0  0  2  0  0  3  0  0  0  0  0  0
  160.8040  206.6840  153.6800 O   0  0  0  0  0  1  0  0  0  0  0  0
  162.1000  210.5870  151.3560 C   0  0  0  0  0  3  0  0  0  0  0  0
  161.8970  206.9800  147.7820 C   0  0  0  0  0  2  0  0  0  0  0  0
  160.6960  206.6320  146.9640 C   0  0  0  0  0  3  0  0  0  0  0  0
  160.7770  206.0800  145.7550 C   0  0  0  0  0  0  0  0  0  0  0  0
  159.6070  205.7970  145.0630 O   0  0  0  0  0  1  0  0  0  0  0  0
  162.0930  205.7790  145.1090 C   0  0  0  0  0  2  0  0  0  0  0  0
  163.8700  204.4460  146.2400 O   0  0  0  0  0  1  0  0  0  0  0  0
  162.6330  204.4850  145.6120 C   0  0  0  0  0  0  0  0  0  0  0  0
  161.9530  203.4320  145.4980 O   0  0  0  0  0  0  0  0  0  0  0  0
  160.6820  205.2830  149.1880 C   0  0  0  0  0  2  0  0  0  0  0  0
  161.1000  202.1390  151.4120 C   0  0  0  0  0  2  0  0  0  0  0  0
  160.6400  202.8790  148.5220 C   0  0  0  0  0  2  0  0  0  0  0  0
  161.3660  201.1780  150.2450 C   0  0  0  0  0  2  0  0  0  0  0  0
  160.4330  201.4600  149.0710 C   0  0  0  0  0  2  0  0  0  0  0  0
  161.1200  203.8820  149.5800 C   0  0  0  0  0  3  0  0  0  0  0  0
  160.5930  203.5180  150.9670 C   0  0  0  0  0  2  0  0  0  0  0  0
  1 14  1  6  0  0  0
  1 22  1  0  0  0  0
  1  5  1  0  0  0  0
  2 13  1  0  0  0  0
  3 13  2  0  0  0  0
  4  7  2  0  0  0  0
  4  9  1  0  0  0  0
  6  5  1  6  0  0  0
  6  8  1  0  0  0  0
  6 11  1  0  0  0  0
  7  3  1  0  0  0  0
  8  2  1  6  0  0  0
  8 11  1  0  0  0  0
  9  5  1  0  0  0  0
  9  2  2  0  0  0  0
 10  7  1  0  0  0  0
 11 12  1  1  0  0  0
 15 14  1  0  0  0  0
 16 15  2  0  0  0  0
 17 16  1  0  0  0  0
 18 20  1  0  0  0  0
 18 16  1  0  0  0  0
 20 19  1  0  0  0  0
 21 20  2  0  0  0  0
 22 27  1  0  0  0  0
 24 26  1  0  0  0  0
 24 27  1  0  0  0  0
 25 23  1  0  0  0  0
 26 25  1  0  0  0  0
 27 28  1  0  0  0  0
 28 23  1  0  0  0  0
M  END
>  <MODEL>
5

>  <REMARK>
 VINA RESULT:      -7.2      3.209      6.320
  Name = 
  7 active torsions:
  status: ('A' for Active; 'I' for Inactive)
    1  A    between atoms: N_5  and  C_8
    2  A    between atoms: C_6  and  C_18
    3  A    between atoms: C_8  and  C_18
    4  A    between atoms: C_8  and  C_25
    5  A    between atoms: C_10  and  C_19
    6  A    between atoms: C_11  and  C_19
    7  A    between atoms: C_24  and  C_25
                            x       y       z     vdW  Elec       q    Type
                         _______ _______ _______ _____ _____    ______ ____

>  <TORSDO>
F 7

$$$$
=
 OpenBabel11072411193D

 28 31  0  0  1  0  0  0  0  0999 V2000
  161.9150  207.4180  149.7990 C   0  0  2  0  0  3  0  0  0  0  0  0
  161.2430  207.1360  153.3970 C   0  0  0  0  0  0  0  0  0  0  0  0
  160.4620  209.0830  154.5000 N   0  0  0  0  0  0  0  0  0  0  0  0
  160.8150  209.1350  152.1220 C   0  0  0  0  0  3  0  0  0  0  0  0
  161.6360  206.9620  151.1550 N   0  0  0  0  0  0  0  0  0  0  0  0
  162.0470  205.6660  151.7120 C   0  0  1  0  0  3  0  0  0  0  0  0
  160.4280  209.7670  153.3160 C   0  0  0  0  0  0  0  0  0  0  0  0
  161.7540  205.7430  153.2250 C   0  0  2  0  0  3  0  0  0  0  0  0
  161.2230  207.8060  152.2100 C   0  0  0  0  0  0  0  0  0  0  0  0
  160.0020  211.1230  153.2920 N   0  0  0  0  0  1  0  0  0  0  0  0
  160.8520  204.9340  152.3020 C   0  0  2  0  0  3  0  0  0  0  0  0
  161.1600  203.5810  152.4290 O   0  0  0  0  0  1  0  0  0  0  0  0
  160.8640  207.7800  154.5720 C   0  0  0  0  0  3  0  0  0  0  0  0
  162.3110  208.8890  149.8140 C   0  0  0  0  0  2  0  0  0  0  0  0
  161.8680  209.5620  148.5560 C   0  0  0  0  0  3  0  0  0  0  0  0
  161.6360  210.8710  148.4770 C   0  0  0  0  0  0  0  0  0  0  0  0
  161.2190  211.4100  147.2680 O   0  0  0  0  0  1  0  0  0  0  0  0
  161.7870  211.7740  149.6600 C   0  0  0  0  0  2  0  0  0  0  0  0
  161.8140  214.1160  148.8050 O   0  0  0  0  0  0  0  0  0  0  0  0
  161.1140  213.0790  149.4060 C   0  0  0  0  0  0  0  0  0  0  0  0
  159.9010  213.2300  149.7060 O   0  0  0  0  0  1  0  0  0  0  0  0
  160.6960  207.1820  148.9140 C   0  0  0  0  0  2  0  0  0  0  0  0
  162.5770  205.2190  146.1530 C   0  0  0  0  0  2  0  0  0  0  0  0
  160.8260  204.7150  148.5600 C   0  0  0  0  0  2  0  0  0  0  0  0
  161.8310  203.8980  146.3890 C   0  0  0  0  0  2  0  0  0  0  0  0
  161.6570  203.6190  147.8790 C   0  0  0  0  0  2  0  0  0  0  0  0
  160.9570  206.0900  147.8900 C   0  0  0  0  0  3  0  0  0  0  0  0
  162.3350  206.2650  147.2510 C   0  0  0  0  0  2  0  0  0  0  0  0
  1 22  1  6  0  0  0
  1 14  1  0  0  0  0
  1  5  1  0  0  0  0
  2 13  1  0  0  0  0
  3 13  2  0  0  0  0
  4  9  1  0  0  0  0
  4  7  2  0  0  0  0
  5  9  1  0  0  0  0
  6  5  1  6  0  0  0
  6 11  1  0  0  0  0
  6  8  1  0  0  0  0
  7  3  1  0  0  0  0
  8  2  1  6  0  0  0
  9  2  2  0  0  0  0
 10  7  1  0  0  0  0
 11 12  1  1  0  0  0
 11  8  1  0  0  0  0
 15 14  1  0  0  0  0
 16 15  2  0  0  0  0
 16 18  1  0  0  0  0
 17 16  1  0  0  0  0
 19 20  2  0  0  0  0
 20 18  1  0  0  0  0
 20 21  1  0  0  0  0
 23 25  1  0  0  0  0
 23 28  1  0  0  0  0
 25 26  1  0  0  0  0
 26 24  1  0  0  0  0
 27 24  1  0  0  0  0
 27 22  1  0  0  0  0
 28 27  1  0  0  0  0
M  END
>  <MODEL>
6

>  <REMARK>
 VINA RESULT:      -6.9      2.648      4.722
  Name = 
  7 active torsions:
  status: ('A' for Active; 'I' for Inactive)
    1  A    between atoms: N_5  and  C_8
    2  A    between atoms: C_6  and  C_18
    3  A    between atoms: C_8  and  C_18
    4  A    between atoms: C_8  and  C_25
    5  A    between atoms: C_10  and  C_19
    6  A    between atoms: C_11  and  C_19
    7  A    between atoms: C_24  and  C_25
                            x       y       z     vdW  Elec       q    Type
                         _______ _______ _______ _____ _____    ______ ____

>  <TORSDO>
F 7

$$$$
=
 OpenBabel11072411193D

 28 31  0  0  1  0  0  0  0  0999 V2000
  161.9690  207.7580  150.0550 C   0  0  2  0  0  3  0  0  0  0  0  0
  161.2250  206.8950  153.5440 C   0  0  0  0  0  0  0  0  0  0  0  0
  160.4450  208.6440  154.9410 N   0  0  0  0  0  0  0  0  0  0  0  0
  160.8430  209.0840  152.6100 C   0  0  0  0  0  3  0  0  0  0  0  0
  161.6590  207.0880  151.3110 N   0  0  0  0  0  0  0  0  0  0  0  0
  162.0450  205.7130  151.6530 C   0  0  1  0  0  3  0  0  0  0  0  0
  160.4410  209.5140  153.8850 C   0  0  0  0  0  0  0  0  0  0  0  0
  161.7240  205.5430  153.1530 C   0  0  2  0  0  3  0  0  0  0  0  0
  161.2350  207.7530  152.4850 C   0  0  0  0  0  0  0  0  0  0  0  0
  160.0300  210.8620  154.0790 N   0  0  0  0  0  1  0  0  0  0  0  0
  160.8310  204.9100  152.0940 C   0  0  2  0  0  3  0  0  0  0  0  0
  161.1220  203.5500  152.0010 O   0  0  0  0  0  1  0  0  0  0  0  0
  160.8310  207.3420  154.8030 C   0  0  0  0  0  3  0  0  0  0  0  0
  161.9560  209.2680  150.2510 C   0  0  0  0  0  2  0  0  0  0  0  0
  162.2640  209.9650  148.9650 C   0  0  0  0  0  3  0  0  0  0  0  0
  161.9560  211.2400  148.7400 C   0  0  0  0  0  0  0  0  0  0  0  0
  162.2740  211.8040  147.5110 O   0  0  0  0  0  1  0  0  0  0  0  0
  161.2550  212.0780  149.7620 C   0  0  0  0  0  2  0  0  0  0  0  0
  159.5210  213.3270  148.4790 O   0  0  0  0  0  0  0  0  0  0  0  0
  160.7400  213.3310  149.1420 C   0  0  0  0  0  0  0  0  0  0  0  0
  161.3960  214.4000  149.2450 O   0  0  0  0  0  1  0  0  0  0  0  0
  160.9710  207.3310  148.9820 C   0  0  0  0  0  2  0  0  0  0  0  0
  161.5810  203.7500  147.6350 C   0  0  0  0  0  2  0  0  0  0  0  0
  161.2830  206.5790  146.6240 C   0  0  0  0  0  2  0  0  0  0  0  0
  162.0620  204.2030  146.2490 C   0  0  0  0  0  2  0  0  0  0  0  0
  161.2050  205.3460  145.7120 C   0  0  0  0  0  2  0  0  0  0  0  0
  161.5430  206.2370  148.0970 C   0  0  0  0  0  3  0  0  0  0  0  0
  160.9470  204.8770  148.4630 C   0  0  0  0  0  2  0  0  0  0  0  0
  1 22  1  6  0  0  0
  1 14  1  0  0  0  0
  1  5  1  0  0  0  0
  2 13  1  0  0  0  0
  4  7  2  0  0  0  0
  5  9  1  0  0  0  0
  6  5  1  6  0  0  0
  6 11  1  0  0  0  0
  6  8  1  0  0  0  0
  7 10  1  0  0  0  0
  7  3  1  0  0  0  0
  8  2  1  6  0  0  0
  9  4  1  0  0  0  0
  9  2  2  0  0  0  0
 11 12  1  1  0  0  0
 11  8  1  0  0  0  0
 13  3  2  0  0  0  0
 15 14  1  0  0  0  0
 16 15  2  0  0  0  0
 16 18  1  0  0  0  0
 17 16  1  0  0  0  0
 19 20  2  0  0  0  0
 20 21  1  0  0  0  0
 20 18  1  0  0  0  0
 23 28  1  0  0  0  0
 24 27  1  0  0  0  0
 25 23  1  0  0  0  0
 26 25  1  0  0  0  0
 26 24  1  0  0  0  0
 27 28  1  0  0  0  0
 27 22  1  0  0  0  0
M  END
>  <MODEL>
7

>  <REMARK>
 VINA RESULT:      -6.8      2.714      4.791
  Name = 
  7 active torsions:
  status: ('A' for Active; 'I' for Inactive)
    1  A    between atoms: N_5  and  C_8
    2  A    between atoms: C_6  and  C_18
    3  A    between atoms: C_8  and  C_18
    4  A    between atoms: C_8  and  C_25
    5  A    between atoms: C_10  and  C_19
    6  A    between atoms: C_11  and  C_19
    7  A    between atoms: C_24  and  C_25
                            x       y       z     vdW  Elec       q    Type
                         _______ _______ _______ _____ _____    ______ ____

>  <TORSDO>
F 7

$$$$
=
 OpenBabel11072411193D

 28 31  0  0  1  0  0  0  0  0999 V2000
  161.6120  208.5680  150.0360 C   0  0  2  0  0  3  0  0  0  0  0  0
  161.2390  207.5890  153.5540 C   0  0  0  0  0  0  0  0  0  0  0  0
  160.2820  209.1870  155.0200 N   0  0  0  0  0  0  0  0  0  0  0  0
  160.4560  209.6910  152.6740 C   0  0  0  0  0  3  0  0  0  0  0  0
  161.4930  207.8540  151.3010 N   0  0  0  0  0  0  0  0  0  0  0  0
  162.1140  206.5570  151.6010 C   0  0  1  0  0  3  0  0  0  0  0  0
  160.0730  210.0490  153.9770 C   0  0  0  0  0  0  0  0  0  0  0  0
  161.9200  206.3340  153.1150 C   0  0  2  0  0  3  0  0  0  0  0  0
  161.0450  208.4390  152.5070 C   0  0  0  0  0  0  0  0  0  0  0  0
  159.4670  211.3130  154.2140 N   0  0  0  0  0  1  0  0  0  0  0  0
  161.0730  205.5700  152.1060 C   0  0  2  0  0  3  0  0  0  0  0  0
  161.5690  204.2740  151.9780 O   0  0  0  0  0  1  0  0  0  0  0  0
  160.8600  207.9630  154.8400 C   0  0  0  0  0  3  0  0  0  0  0  0
  162.3460  207.7050  149.0180 C   0  0  0  0  0  2  0  0  0  0  0  0
  161.4970  207.4900  147.8060 C   0  0  0  0  0  3  0  0  0  0  0  0
  160.9530  206.3130  147.5020 C   0  0  0  0  0  0  0  0  0  0  0  0
  160.1840  206.2030  146.3520 O   0  0  0  0  0  1  0  0  0  0  0  0
  161.1650  205.0990  148.3510 C   0  0  0  0  0  2  0  0  0  0  0  0
  161.2060  202.7170  147.6160 O   0  0  0  0  0  1  0  0  0  0  0  0
  161.7460  203.9940  147.5390 C   0  0  0  0  0  0  0  0  0  0  0  0
  162.7050  204.2240  146.7570 O   0  0  0  0  0  0  0  0  0  0  0  0
  162.3310  209.8950  150.2570 C   0  0  0  0  0  2  0  0  0  0  0  0
  160.6520  213.1540  149.0050 C   0  0  0  0  0  2  0  0  0  0  0  0
  163.0530  211.4200  148.4200 C   0  0  0  0  0  2  0  0  0  0  0  0
  161.4270  213.2100  147.6810 C   0  0  0  0  0  2  0  0  0  0  0  0
  162.8960  212.8500  147.8840 C   0  0  0  0  0  2  0  0  0  0  0  0
  161.8640  210.9500  149.2680 C   0  0  0  0  0  3  0  0  0  0  0  0
  161.2060  212.1210  149.9970 C   0  0  0  0  0  2  0  0  0  0  0  0
  1 14  1  6  0  0  0
  1 22  1  0  0  0  0
  1  5  1  0  0  0  0
  2 13  1  0  0  0  0
  4  7  2  0  0  0  0
  5  9  1  0  0  0  0
  6  5  1  1  0  0  0
  6 11  1  0  0  0  0
  6  8  1  0  0  0  0
  7 10  1  0  0  0  0
  7  3  1  0  0  0  0
  8  2  1  1  0  0  0
  9  4  1  0  0  0  0
  9  2  2  0  0  0  0
 11 12  1  6  0  0  0
 11  8  1  0  0  0  0
 13  3  2  0  0  0  0
 15 14  1  0  0  0  0
 16 15  2  0  0  0  0
 16 18  1  0  0  0  0
 17 16  1  0  0  0  0
 20 19  1  0  0  0  0
 20 18  1  0  0  0  0
 21 20  2  0  0  0  0
 23 28  1  0  0  0  0
 24 27  1  0  0  0  0
 25 26  1  0  0  0  0
 25 23  1  0  0  0  0
 26 24  1  0  0  0  0
 27 28  1  0  0  0  0
 27 22  1  0  0  0  0
M  END
>  <MODEL>
8

>  <REMARK>
 VINA RESULT:      -6.7      3.471      6.700
  Name = 
  7 active torsions:
  status: ('A' for Active; 'I' for Inactive)
    1  A    between atoms: N_5  and  C_8
    2  A    between atoms: C_6  and  C_18
    3  A    between atoms: C_8  and  C_18
    4  A    between atoms: C_8  and  C_25
    5  A    between atoms: C_10  and  C_19
    6  A    between atoms: C_11  and  C_19
    7  A    between atoms: C_24  and  C_25
                            x       y       z     vdW  Elec       q    Type
                         _______ _______ _______ _____ _____    ______ ____

>  <TORSDO>
F 7

$$$$
=
 OpenBabel11072411193D

 28 31  0  0  1  0  0  0  0  0999 V2000
  161.9330  205.9910  148.9030 C   0  0  2  0  0  3  0  0  0  0  0  0
  161.2600  203.4880  146.3040 C   0  0  0  0  0  0  0  0  0  0  0  0
  160.8970  201.2600  147.0250 N   0  0  0  0  0  0  0  0  0  0  0  0
  161.2250  202.9910  148.6610 C   0  0  0  0  0  3  0  0  0  0  0  0
  161.5840  205.2800  147.6790 N   0  0  0  0  0  0  0  0  0  0  0  0
  161.7340  205.8160  146.3200 C   0  0  1  0  0  3  0  0  0  0  0  0
  160.9870  201.6460  148.3340 C   0  0  0  0  0  0  0  0  0  0  0  0
  161.4800  204.6300  145.3660 C   0  0  2  0  0  3  0  0  0  0  0  0
  161.3610  203.8870  147.6030 C   0  0  0  0  0  0  0  0  0  0  0  0
  160.8400  200.6830  149.3700 N   0  0  0  0  0  1  0  0  0  0  0  0
  160.4240  205.7110  145.5550 C   0  0  2  0  0  3  0  0  0  0  0  0
  160.4560  206.5800  144.4670 O   0  0  0  0  0  1  0  0  0  0  0  0
  161.0310  202.1490  145.9980 C   0  0  0  0  0  3  0  0  0  0  0  0
  160.6950  206.1730  149.7720 C   0  0  0  0  0  2  0  0  0  0  0  0
  160.4700  204.9640  150.6200 C   0  0  0  0  0  3  0  0  0  0  0  0
  161.0260  204.8070  151.8200 C   0  0  0  0  0  0  0  0  0  0  0  0
  160.7660  203.6460  152.5370 O   0  0  0  0  0  1  0  0  0  0  0  0
  161.9410  205.8330  152.4100 C   0  0  0  0  0  2  0  0  0  0  0  0
  160.4560  207.6810  153.1830 O   0  0  0  0  0  0  0  0  0  0  0  0
  161.2480  206.5840  153.4940 C   0  0  0  0  0  0  0  0  0  0  0  0
  161.3550  206.2040  154.6900 O   0  0  0  0  0  1  0  0  0  0  0  0
  162.5680  207.3340  148.5560 C   0  0  0  0  0  2  0  0  0  0  0  0
  162.0430  209.7320  151.5540 C   0  0  0  0  0  2  0  0  0  0  0  0
  161.9560  209.7530  148.5370 C   0  0  0  0  0  2  0  0  0  0  0  0
  161.3190  210.8140  150.7410 C   0  0  0  0  0  2  0  0  0  0  0  0
  161.9890  211.0310  149.3870 C   0  0  0  0  0  2  0  0  0  0  0  0
  161.9540  208.4630  149.3680 C   0  0  0  0  0  3  0  0  0  0  0  0
  162.7050  208.6530  150.6850 C   0  0  0  0  0  2  0  0  0  0  0  0
  1 22  1  6  0  0  0
  1 14  1  0  0  0  0
  2  9  1  0  0  0  0
  3  7  2  0  0  0  0
  5  1  1  0  0  0  0
  6  5  1  1  0  0  0
  7  4  1  0  0  0  0
  7 10  1  0  0  0  0
  8 11  1  0  0  0  0
  8  2  1  1  0  0  0
  8  6  1  0  0  0  0
  9  5  1  0  0  0  0
  9  4  2  0  0  0  0
 11 12  1  6  0  0  0
 11  6  1  0  0  0  0
 13  2  2  0  0  0  0
 13  3  1  0  0  0  0
 14 15  1  0  0  0  0
 15 16  2  0  0  0  0
 16 18  1  0  0  0  0
 16 17  1  0  0  0  0
 18 20  1  0  0  0  0
 19 20  2  0  0  0  0
 20 21  1  0  0  0  0
 22 27  1  0  0  0  0
 24 27  1  0  0  0  0
 24 26  1  0  0  0  0
 25 23  1  0  0  0  0
 26 25  1  0  0  0  0
 27 28  1  0  0  0  0
 28 23  1  0  0  0  0
M  END
>  <MODEL>
9

>  <REMARK>
 VINA RESULT:      -6.5      1.737      5.061
  Name = 
  7 active torsions:
  status: ('A' for Active; 'I' for Inactive)
    1  A    between atoms: N_5  and  C_8
    2  A    between atoms: C_6  and  C_18
    3  A    between atoms: C_8  and  C_18
    4  A    between atoms: C_8  and  C_25
    5  A    between atoms: C_10  and  C_19
    6  A    between atoms: C_11  and  C_19
    7  A    between atoms: C_24  and  C_25
                            x       y       z     vdW  Elec       q    Type
                         _______ _______ _______ _____ _____    ______ ____

>  <TORSDO>
F 7

$$$$
