=
 OpenBabel11072414363D

 36 39  0  0  1  0  0  0  0  0999 V2000
  161.7510  206.8330  153.6150 C   0  0  2  0  0  3  0  0  0  0  0  0
  161.4710  205.3460  151.0640 C   0  0  0  0  0  2  0  0  0  0  0  0
  160.9570  205.5280  153.5120 C   0  0  0  0  0  2  0  0  0  0  0  0
  161.1580  207.6630  154.7560 C   0  0  0  0  0  2  0  0  0  0  0  0
  162.2870  206.6320  151.1530 C   0  0  2  0  0  3  0  0  0  0  0  0
  160.4470  208.2340  151.9540 C   0  0  0  0  0  2  0  0  0  0  0  0
  160.5190  209.6920  152.3760 C   0  0  0  0  0  2  0  0  0  0  0  0
  160.4000  209.9040  153.8930 C   0  0  1  0  0  3  0  0  0  0  0  0
  161.5050  204.6270  152.4060 C   0  0  1  0  0  3  0  0  0  0  0  0
  161.4940  209.1540  154.6940 C   0  0  1  0  0  3  0  0  0  0  0  0
  160.6710  203.3680  152.3240 C   0  0  0  0  0  1  0  0  0  0  0  0
  161.7870  207.5710  152.2620 C   0  0  1  0  0  3  0  0  0  0  0  0
  160.8480  209.2630  157.0030 O   0  0  0  0  0  1  0  0  0  0  0  0
  161.6370  209.6520  156.1010 C   0  0  0  0  0  0  0  0  0  0  0  0
  162.6610  210.5350  156.4150 O   0  0  0  0  0  0  0  0  0  0  0  0
  160.3340  211.4090  154.2320 C   0  0  2  0  0  3  0  0  0  0  0  0
  159.4770  213.1720  155.7510 N   0  0  0  0  0  2  0  0  0  0  0  0
  157.9720  210.9470  155.5950 S   0  0  0  0  0  0  0  0  0  0  0  0
  158.3910  213.3440  156.6990 C   0  0  0  0  0  2  0  0  0  0  0  0
  159.6120  211.7350  155.5490 C   0  0  1  0  0  3  0  0  0  0  0  0
  157.2460  212.4640  156.2630 C   0  0  0  0  0  2  0  0  0  0  0  0
  159.9520  212.3220  153.0550 C   0  0  1  0  0  3  0  0  0  0  0  0
  160.8200  212.1430  151.9770 O   0  0  0  0  0  1  0  0  0  0  0  0
  158.5250  212.0610  152.6040 C   0  0  0  0  0  2  0  0  0  0  0  0
  157.7320  213.3560  152.5780 C   0  0  0  0  0  2  0  0  0  0  0  0
  157.9980  214.1140  151.2890 C   0  0  0  0  0  2  0  0  0  0  0  0
  157.5810  213.3180  150.1460 N   0  0  0  0  0  1  0  0  0  0  0  0
  162.5380  207.3070  149.8000 C   0  0  0  0  0  2  0  0  0  0  0  0
  161.5030  206.9720  148.7290 C   0  0  1  0  0  3  0  0  0  0  0  0
  161.1490  208.1330  148.0320 O   0  0  0  0  0  1  0  0  0  0  0  0
  162.1430  204.0270  145.8260 N   0  0  0  0  0  0  0  0  0  0  0  0
  161.6750  203.6090  147.1370 C   0  0  0  0  0  2  0  0  0  0  0  0
  161.9730  206.3860  146.4330 C   0  0  0  0  0  2  0  0  0  0  0  0
  161.9900  205.9240  147.8240 N   0  0  0  0  0  0  0  0  0  0  0  0
  161.0920  204.7770  147.9310 C   0  0  0  0  0  2  0  0  0  0  0  0
  162.3270  205.2620  145.4950 C   0  0  0  0  0  3  0  0  0  0  0  0
  1  3  1  6  0  0  0
  1  4  1  0  0  0  0
  2  5  1  0  0  0  0
  2  9  1  0  0  0  0
  5 28  1  6  0  0  0
  5 12  1  0  0  0  0
  6  7  1  0  0  0  0
  7  8  1  0  0  0  0
  8 16  1  6  0  0  0
  8 10  1  0  0  0  0
  9 11  1  6  0  0  0
  9  3  1  0  0  0  0
 10  4  1  0  0  0  0
 10 14  1  1  0  0  0
 12  6  1  6  0  0  0
 12  1  1  0  0  0  0
 14 15  2  0  0  0  0
 14 13  1  0  0  0  0
 16 22  1  6  0  0  0
 17 19  1  0  0  0  0
 18 21  1  0  0  0  0
 20 16  1  6  0  0  0
 20 18  1  0  0  0  0
 20 17  1  0  0  0  0
 21 19  1  0  0  0  0
 22 23  1  6  0  0  0
 24 22  1  0  0  0  0
 25 24  1  0  0  0  0
 26 25  1  0  0  0  0
 27 26  1  0  0  0  0
 29 30  1  6  0  0  0
 29 28  1  0  0  0  0
 31 32  1  0  0  0  0
 32 35  1  0  0  0  0
 33 34  1  0  0  0  0
 34 35  1  0  0  0  0
 34 29  1  0  0  0  0
 36 31  2  0  0  0  0
 36 33  1  0  0  0  0
M  END
>  <MODEL>
1

>  <REMARK>
 VINA RESULT:      -7.1      0.000      0.000
  Name = 
  10 active torsions:
  status: ('A' for Active; 'I' for Inactive)
    1  A    between atoms: C_4  and  C_20
    2  A    between atoms: C_4  and  C_22
    3  A    between atoms: C_4  and  C_28
    4  A    between atoms: C_9  and  N_12
    5  A    between atoms: C_9  and  C_26
    6  A    between atoms: C_13  and  C_16
    7  A    between atoms: C_16  and  C_30
    8  A    between atoms: C_17  and  C_26
    9  A    between atoms: C_20  and  C_30
   10  A    between atoms: C_21  and  C_32
                            x       y       z     vdW  Elec       q    Type
                         _______ _______ _______ _____ _____    ______ ____

>  <TORSDO>
F 10

$$$$
=
 OpenBabel11072414363D

 36 39  0  0  1  0  0  0  0  0999 V2000
  160.3990  211.5490  150.6230 C   0  0  2  0  0  3  0  0  0  0  0  0
  162.5680  210.6310  148.8210 C   0  0  0  0  0  2  0  0  0  0  0  0
  161.2980  212.5270  149.8620 C   0  0  0  0  0  2  0  0  0  0  0  0
  159.9200  212.2390  151.9030 C   0  0  0  0  0  2  0  0  0  0  0  0
  161.6640  209.6420  149.5500 C   0  0  2  0  0  3  0  0  0  0  0  0
  162.1660  210.3340  151.9710 C   0  0  0  0  0  2  0  0  0  0  0  0
  161.5530  209.8680  153.2810 C   0  0  0  0  0  2  0  0  0  0  0  0
  160.6020  210.8930  153.9190 C   0  0  1  0  0  3  0  0  0  0  0  0
  161.8010  211.9200  148.5540 C   0  0  1  0  0  3  0  0  0  0  0  0
  159.4250  211.2820  152.9890 C   0  0  1  0  0  3  0  0  0  0  0  0
  162.7080  212.9100  147.8560 C   0  0  0  0  0  1  0  0  0  0  0  0
  161.1170  210.2080  150.8710 C   0  0  1  0  0  3  0  0  0  0  0  0
  158.2850  213.2070  153.8590 O   0  0  0  0  0  0  0  0  0  0  0  0
  158.3000  211.9550  153.7170 C   0  0  0  0  0  0  0  0  0  0  0  0
  157.2560  211.1920  154.2190 O   0  0  0  0  0  1  0  0  0  0  0  0
  160.1350  210.4150  155.3110 C   0  0  2  0  0  3  0  0  0  0  0  0
  160.6030  212.7830  155.8770 N   0  0  0  0  0  2  0  0  0  0  0  0
  158.6000  211.6360  157.2610 S   0  0  0  0  0  0  0  0  0  0  0  0
  160.1530  213.7700  156.8420 C   0  0  0  0  0  2  0  0  0  0  0  0
  160.2020  211.4870  156.4090 C   0  0  1  0  0  3  0  0  0  0  0  0
  158.7300  213.4400  157.2190 C   0  0  0  0  0  2  0  0  0  0  0  0
  160.6670  209.0370  155.7340 C   0  0  1  0  0  3  0  0  0  0  0  0
  161.2590  209.0910  156.9970 O   0  0  0  0  0  1  0  0  0  0  0  0
  159.5530  208.0030  155.7420 C   0  0  0  0  0  2  0  0  0  0  0  0
  160.1000  206.6310  155.3830 C   0  0  0  0  0  2  0  0  0  0  0  0
  160.9150  206.7050  154.1040 C   0  0  0  0  0  2  0  0  0  0  0  0
  161.2490  205.3660  153.6470 N   0  0  0  0  0  1  0  0  0  0  0  0
  162.2380  208.2240  149.6450 C   0  0  0  0  0  2  0  0  0  0  0  0
  161.6690  207.2460  148.6190 C   0  0  1  0  0  3  0  0  0  0  0  0
  162.4020  207.3260  147.4300 O   0  0  0  0  0  1  0  0  0  0  0  0
  160.8350  203.3170  149.7920 N   0  0  0  0  0  0  0  0  0  0  0  0
  160.5140  204.3920  150.7160 C   0  0  0  0  0  2  0  0  0  0  0  0
  161.5050  204.9020  148.0600 C   0  0  0  0  0  2  0  0  0  0  0  0
  161.6390  205.8760  149.1460 N   0  0  0  0  0  0  0  0  0  0  0  0
  160.4710  205.7490  150.0160 C   0  0  0  0  0  2  0  0  0  0  0  0
  161.3210  203.5130  148.6120 C   0  0  0  0  0  3  0  0  0  0  0  0
  1  3  1  1  0  0  0
  1 12  1  0  0  0  0
  1  4  1  0  0  0  0
  2  5  1  0  0  0  0
  4 10  1  0  0  0  0
  5 28  1  1  0  0  0
  5 12  1  0  0  0  0
  6  7  1  0  0  0  0
  7  8  1  0  0  0  0
  8 16  1  1  0  0  0
  9 11  1  1  0  0  0
  9  2  1  0  0  0  0
  9  3  1  0  0  0  0
 10 14  1  1  0  0  0
 10  8  1  0  0  0  0
 12  6  1  1  0  0  0
 14 13  2  0  0  0  0
 14 15  1  0  0  0  0
 16 22  1  1  0  0  0
 17 20  1  0  0  0  0
 17 19  1  0  0  0  0
 19 21  1  0  0  0  0
 20 16  1  6  0  0  0
 20 18  1  0  0  0  0
 21 18  1  0  0  0  0
 22 24  1  0  0  0  0
 22 23  1  1  0  0  0
 25 24  1  0  0  0  0
 26 25  1  0  0  0  0
 27 26  1  0  0  0  0
 29 30  1  6  0  0  0
 29 34  1  0  0  0  0
 29 28  1  0  0  0  0
 31 32  1  0  0  0  0
 33 36  1  0  0  0  0
 33 34  1  0  0  0  0
 34 35  1  0  0  0  0
 35 32  1  0  0  0  0
 36 31  2  0  0  0  0
M  END
>  <MODEL>
2

>  <REMARK>
 VINA RESULT:      -5.9      2.443      4.869
  Name = 
  10 active torsions:
  status: ('A' for Active; 'I' for Inactive)
    1  A    between atoms: C_4  and  C_20
    2  A    between atoms: C_4  and  C_22
    3  A    between atoms: C_4  and  C_28
    4  A    between atoms: C_9  and  N_12
    5  A    between atoms: C_9  and  C_26
    6  A    between atoms: C_13  and  C_16
    7  A    between atoms: C_16  and  C_30
    8  A    between atoms: C_17  and  C_26
    9  A    between atoms: C_20  and  C_30
   10  A    between atoms: C_21  and  C_32
                            x       y       z     vdW  Elec       q    Type
                         _______ _______ _______ _____ _____    ______ ____

>  <TORSDO>
F 10

$$$$
=
 OpenBabel11072414363D

 36 39  0  0  1  0  0  0  0  0999 V2000
  162.6480  207.7510  148.8030 C   0  0  2  0  0  3  0  0  0  0  0  0
  161.5340  209.2150  151.1300 C   0  0  0  0  0  2  0  0  0  0  0  0
  161.9370  209.0990  148.6570 C   0  0  0  0  0  2  0  0  0  0  0  0
  162.4690  206.9730  147.4970 C   0  0  0  0  0  2  0  0  0  0  0  0
  162.2630  207.8860  151.2980 C   0  0  2  0  0  3  0  0  0  0  0  0
  160.7630  206.4060  149.8310 C   0  0  0  0  0  2  0  0  0  0  0  0
  160.9100  204.9520  149.4140 C   0  0  0  0  0  2  0  0  0  0  0  0
  161.3410  204.7680  147.9500 C   0  0  1  0  0  3  0  0  0  0  0  0
  162.0890  209.9500  149.9160 C   0  0  1  0  0  3  0  0  0  0  0  0
  162.6860  205.4640  147.6260 C   0  0  1  0  0  3  0  0  0  0  0  0
  161.3450  211.2550  149.7340 C   0  0  0  0  0  1  0  0  0  0  0  0
  162.1540  206.9930  150.0510 C   0  0  1  0  0  3  0  0  0  0  0  0
  164.2120  204.1040  146.3680 O   0  0  0  0  0  1  0  0  0  0  0  0
  163.3050  204.9780  146.3490 C   0  0  0  0  0  0  0  0  0  0  0  0
  162.8600  205.4840  145.1360 O   0  0  0  0  0  0  0  0  0  0  0  0
  161.3270  203.2740  147.5590 C   0  0  2  0  0  3  0  0  0  0  0  0
  160.5440  201.6830  145.8260 N   0  0  0  0  0  2  0  0  0  0  0  0
  160.0100  204.2760  145.3430 S   0  0  0  0  0  0  0  0  0  0  0  0
  159.9230  201.7370  144.5150 C   0  0  0  0  0  2  0  0  0  0  0  0
  161.1010  203.0090  146.0630 C   0  0  1  0  0  3  0  0  0  0  0  0
  159.1010  203.0000  144.4390 C   0  0  0  0  0  2  0  0  0  0  0  0
  160.5140  202.3670  148.4960 C   0  0  1  0  0  3  0  0  0  0  0  0
  159.5180  201.6820  147.7970 O   0  0  0  0  0  1  0  0  0  0  0  0
  161.4140  201.3660  149.2010 C   0  0  0  0  0  2  0  0  0  0  0  0
  161.0430  201.2620  150.6710 C   0  0  0  0  0  2  0  0  0  0  0  0
  161.7120  202.3700  151.4660 C   0  0  0  0  0  2  0  0  0  0  0  0
  160.7390  203.0300  152.3200 N   0  0  0  0  0  1  0  0  0  0  0  0
  161.9720  207.1780  152.6260 C   0  0  0  0  0  2  0  0  0  0  0  0
  160.8910  207.8480  153.4720 C   0  0  1  0  0  3  0  0  0  0  0  0
  160.1470  206.8750  154.1490 O   0  0  0  0  0  1  0  0  0  0  0  0
  161.8270  210.5740  156.5060 N   0  0  0  0  0  0  0  0  0  0  0  0
  161.2280  211.0850  155.2840 C   0  0  0  0  0  2  0  0  0  0  0  0
  161.5950  208.2650  155.7450 C   0  0  0  0  0  2  0  0  0  0  0  0
  161.4690  208.8290  154.3980 N   0  0  0  0  0  0  0  0  0  0  0  0
  160.5660  209.9750  154.4680 C   0  0  0  0  0  2  0  0  0  0  0  0
  162.0430  209.3190  156.7220 C   0  0  0  0  0  3  0  0  0  0  0  0
  1  4  1  6  0  0  0
  1 12  1  0  0  0  0
  2  5  1  0  0  0  0
  3  1  1  0  0  0  0
  3  9  1  0  0  0  0
  4 10  1  0  0  0  0
  5 28  1  1  0  0  0
  7  6  1  0  0  0  0
  8 16  1  1  0  0  0
  8  7  1  0  0  0  0
  9 11  1  6  0  0  0
  9  2  1  0  0  0  0
 10 14  1  6  0  0  0
 10  8  1  0  0  0  0
 12  6  1  6  0  0  0
 12  5  1  0  0  0  0
 14 13  1  0  0  0  0
 15 14  2  0  0  0  0
 16 22  1  1  0  0  0
 17 20  1  0  0  0  0
 18 20  1  0  0  0  0
 19 17  1  0  0  0  0
 20 16  1  1  0  0  0
 21 19  1  0  0  0  0
 21 18  1  0  0  0  0
 22 23  1  6  0  0  0
 22 24  1  0  0  0  0
 24 25  1  0  0  0  0
 25 26  1  0  0  0  0
 26 27  1  0  0  0  0
 28 29  1  0  0  0  0
 29 30  1  1  0  0  0
 29 34  1  0  0  0  0
 31 36  2  0  0  0  0
 32 31  1  0  0  0  0
 33 36  1  0  0  0  0
 34 35  1  0  0  0  0
 34 33  1  0  0  0  0
 35 32  1  0  0  0  0
M  END
>  <MODEL>
3

>  <REMARK>
 VINA RESULT:      -5.6      3.657      9.916
  Name = 
  10 active torsions:
  status: ('A' for Active; 'I' for Inactive)
    1  A    between atoms: C_4  and  C_20
    2  A    between atoms: C_4  and  C_22
    3  A    between atoms: C_4  and  C_28
    4  A    between atoms: C_9  and  N_12
    5  A    between atoms: C_9  and  C_26
    6  A    between atoms: C_13  and  C_16
    7  A    between atoms: C_16  and  C_30
    8  A    between atoms: C_17  and  C_26
    9  A    between atoms: C_20  and  C_30
   10  A    between atoms: C_21  and  C_32
                            x       y       z     vdW  Elec       q    Type
                         _______ _______ _______ _____ _____    ______ ____

>  <TORSDO>
F 10

$$$$
=
 OpenBabel11072414363D

 36 39  0  0  1  0  0  0  0  0999 V2000
  160.4780  211.1640  150.7130 C   0  0  2  0  0  3  0  0  0  0  0  0
  162.7280  210.2970  148.9860 C   0  0  0  0  0  2  0  0  0  0  0  0
  161.3350  212.1590  149.9260 C   0  0  0  0  0  2  0  0  0  0  0  0
  159.9380  211.8780  151.9540 C   0  0  0  0  0  2  0  0  0  0  0  0
  161.8690  209.2900  149.7420 C   0  0  2  0  0  3  0  0  0  0  0  0
  162.2860  210.1090  152.1390 C   0  0  0  0  0  2  0  0  0  0  0  0
  161.6770  209.6630  153.4580 C   0  0  0  0  0  2  0  0  0  0  0  0
  160.6570  210.6580  154.0360 C   0  0  1  0  0  3  0  0  0  0  0  0
  161.8950  211.5280  148.6520 C   0  0  1  0  0  3  0  0  0  0  0  0
  159.4780  210.9400  153.0720 C   0  0  1  0  0  3  0  0  0  0  0  0
  162.7580  212.5380  147.9280 C   0  0  0  0  0  1  0  0  0  0  0  0
  161.2660  209.8770  151.0290 C   0  0  1  0  0  3  0  0  0  0  0  0
  157.3600  210.8720  154.2000 O   0  0  0  0  0  1  0  0  0  0  0  0
  158.3040  211.5770  153.7530 C   0  0  0  0  0  0  0  0  0  0  0  0
  158.2670  212.9560  153.9080 O   0  0  0  0  0  0  0  0  0  0  0  0
  160.1930  210.2120  155.4400 C   0  0  2  0  0  3  0  0  0  0  0  0
  160.7950  212.5560  155.9790 N   0  0  0  0  0  2  0  0  0  0  0  0
  158.6340  211.5920  157.2610 S   0  0  0  0  0  0  0  0  0  0  0  0
  160.3600  213.5980  156.8910 C   0  0  0  0  0  2  0  0  0  0  0  0
  160.2700  211.3070  156.5150 C   0  0  1  0  0  3  0  0  0  0  0  0
  158.8960  213.3800  157.1860 C   0  0  0  0  0  2  0  0  0  0  0  0
  160.7180  208.8400  155.8910 C   0  0  1  0  0  3  0  0  0  0  0  0
  161.2430  208.9000  157.1830 O   0  0  0  0  0  1  0  0  0  0  0  0
  159.6180  207.7920  155.8400 C   0  0  0  0  0  2  0  0  0  0  0  0
  160.1250  206.5220  155.1780 C   0  0  0  0  0  2  0  0  0  0  0  0
  160.9270  206.8580  153.9320 C   0  0  0  0  0  2  0  0  0  0  0  0
  161.4680  205.6430  153.3450 N   0  0  0  0  0  1  0  0  0  0  0  0
  162.5200  207.9110  149.9060 C   0  0  0  0  0  2  0  0  0  0  0  0
  161.5690  206.7370  149.6870 C   0  0  1  0  0  3  0  0  0  0  0  0
  160.2620  207.2110  149.5210 O   0  0  0  0  0  1  0  0  0  0  0  0
  161.9820  204.3630  146.2650 N   0  0  0  0  0  0  0  0  0  0  0  0
  161.8200  203.6980  147.5480 C   0  0  0  0  0  2  0  0  0  0  0  0
  161.6620  206.5620  147.2790 C   0  0  0  0  0  2  0  0  0  0  0  0
  161.9930  205.9110  148.5500 N   0  0  0  0  0  0  0  0  0  0  0  0
  161.2680  204.6440  148.6130 C   0  0  0  0  0  2  0  0  0  0  0  0
  161.9590  205.6460  146.1200 C   0  0  0  0  0  3  0  0  0  0  0  0
  1  3  1  1  0  0  0
  1 12  1  0  0  0  0
  1  4  1  0  0  0  0
  2  5  1  0  0  0  0
  4 10  1  0  0  0  0
  5 28  1  1  0  0  0
  5 12  1  0  0  0  0
  6  7  1  0  0  0  0
  7  8  1  0  0  0  0
  8 16  1  1  0  0  0
  9 11  1  1  0  0  0
  9  2  1  0  0  0  0
  9  3  1  0  0  0  0
 10 14  1  1  0  0  0
 10  8  1  0  0  0  0
 12  6  1  1  0  0  0
 14 15  2  0  0  0  0
 14 13  1  0  0  0  0
 16 22  1  1  0  0  0
 17 20  1  0  0  0  0
 17 19  1  0  0  0  0
 19 21  1  0  0  0  0
 20 16  1  6  0  0  0
 20 18  1  0  0  0  0
 21 18  1  0  0  0  0
 22 23  1  1  0  0  0
 24 22  1  0  0  0  0
 25 24  1  0  0  0  0
 26 25  1  0  0  0  0
 27 26  1  0  0  0  0
 29 30  1  6  0  0  0
 29 28  1  0  0  0  0
 31 32  1  0  0  0  0
 32 35  1  0  0  0  0
 33 34  1  0  0  0  0
 34 35  1  0  0  0  0
 34 29  1  0  0  0  0
 36 31  2  0  0  0  0
 36 33  1  0  0  0  0
M  END
>  <MODEL>
4

>  <REMARK>
 VINA RESULT:      -5.5      2.271      4.566
  Name = 
  10 active torsions:
  status: ('A' for Active; 'I' for Inactive)
    1  A    between atoms: C_4  and  C_20
    2  A    between atoms: C_4  and  C_22
    3  A    between atoms: C_4  and  C_28
    4  A    between atoms: C_9  and  N_12
    5  A    between atoms: C_9  and  C_26
    6  A    between atoms: C_13  and  C_16
    7  A    between atoms: C_16  and  C_30
    8  A    between atoms: C_17  and  C_26
    9  A    between atoms: C_20  and  C_30
   10  A    between atoms: C_21  and  C_32
                            x       y       z     vdW  Elec       q    Type
                         _______ _______ _______ _____ _____    ______ ____

>  <TORSDO>
F 10

$$$$
=
 OpenBabel11072414363D

 36 39  0  0  1  0  0  0  0  0999 V2000
  161.1040  208.7110  150.4160 C   0  0  2  0  0  3  0  0  0  0  0  0
  162.0190  206.0690  149.4270 C   0  0  0  0  0  2  0  0  0  0  0  0
  162.3390  208.5550  149.5240 C   0  0  0  0  0  2  0  0  0  0  0  0
  161.2960  209.9600  151.2800 C   0  0  0  0  0  2  0  0  0  0  0  0
  160.7720  206.2080  150.2930 C   0  0  2  0  0  3  0  0  0  0  0  0
  161.8320  207.2770  152.3730 C   0  0  0  0  0  2  0  0  0  0  0  0
  161.1950  207.8160  153.6430 C   0  0  0  0  0  2  0  0  0  0  0  0
  161.1710  209.3500  153.7200 C   0  0  1  0  0  3  0  0  0  0  0  0
  162.2150  207.3380  148.6080 C   0  0  1  0  0  3  0  0  0  0  0  0
  160.4190  210.0010  152.5330 C   0  0  1  0  0  3  0  0  0  0  0  0
  163.4690  207.2090  147.7710 C   0  0  0  0  0  1  0  0  0  0  0  0
  160.8370  207.4280  151.2270 C   0  0  1  0  0  3  0  0  0  0  0  0
  160.6210  212.0930  153.6920 O   0  0  0  0  0  1  0  0  0  0  0  0
  160.0470  211.4320  152.7860 C   0  0  0  0  0  0  0  0  0  0  0  0
  159.0770  212.0370  152.0010 O   0  0  0  0  0  0  0  0  0  0  0  0
  160.6470  209.8210  155.0940 C   0  0  2  0  0  3  0  0  0  0  0  0
  163.0250  210.3800  155.5170 N   0  0  0  0  0  2  0  0  0  0  0  0
  161.2610  211.4460  157.2470 S   0  0  0  0  0  0  0  0  0  0  0  0
  163.8070  211.0800  156.5200 C   0  0  0  0  0  2  0  0  0  0  0  0
  161.7420  210.0830  156.1390 C   0  0  1  0  0  3  0  0  0  0  0  0
  162.9290  212.1390  157.1410 C   0  0  0  0  0  2  0  0  0  0  0  0
  159.4330  209.0420  155.6270 C   0  0  1  0  0  3  0  0  0  0  0  0
  159.8100  208.1370  156.6190 O   0  0  0  0  0  1  0  0  0  0  0  0
  158.3790  209.9880  156.1790 C   0  0  0  0  0  2  0  0  0  0  0  0
  157.6670  210.7080  155.0460 C   0  0  0  0  0  2  0  0  0  0  0  0
  156.3590  211.3040  155.5380 C   0  0  0  0  0  2  0  0  0  0  0  0
  155.2910  210.3230  155.4280 N   0  0  0  0  0  1  0  0  0  0  0  0
  160.3300  204.9040  150.9660 C   0  0  0  0  0  2  0  0  0  0  0  0
  161.2730  203.7250  150.7330 C   0  0  1  0  0  3  0  0  0  0  0  0
  161.3780  202.9640  151.9020 O   0  0  0  0  0  1  0  0  0  0  0  0
  160.8240  201.2170  147.4130 N   0  0  0  0  0  0  0  0  0  0  0  0
  161.0190  202.6390  147.1790 C   0  0  0  0  0  2  0  0  0  0  0  0
  161.1360  201.4930  149.8190 C   0  0  0  0  0  2  0  0  0  0  0  0
  160.8370  202.9100  149.5920 N   0  0  0  0  0  0  0  0  0  0  0  0
  161.5790  203.3460  148.4120 C   0  0  0  0  0  2  0  0  0  0  0  0
  160.8290  200.6820  148.5880 C   0  0  0  0  0  3  0  0  0  0  0  0
  1  3  1  1  0  0  0
  1 12  1  0  0  0  0
  1  4  1  0  0  0  0
  2  5  1  0  0  0  0
  4 10  1  0  0  0  0
  5 28  1  1  0  0  0
  5 12  1  0  0  0  0
  6  7  1  0  0  0  0
  7  8  1  0  0  0  0
  8 16  1  1  0  0  0
  9 11  1  1  0  0  0
  9  2  1  0  0  0  0
  9  3  1  0  0  0  0
 10 14  1  1  0  0  0
 10  8  1  0  0  0  0
 12  6  1  1  0  0  0
 14 13  1  0  0  0  0
 15 14  2  0  0  0  0
 16 22  1  1  0  0  0
 17 20  1  0  0  0  0
 17 19  1  0  0  0  0
 19 21  1  0  0  0  0
 20 16  1  6  0  0  0
 20 18  1  0  0  0  0
 21 18  1  0  0  0  0
 22 24  1  0  0  0  0
 22 23  1  1  0  0  0
 25 26  1  0  0  0  0
 25 24  1  0  0  0  0
 27 26  1  0  0  0  0
 29 28  1  0  0  0  0
 29 30  1  1  0  0  0
 31 36  2  0  0  0  0
 32 31  1  0  0  0  0
 32 35  1  0  0  0  0
 34 33  1  0  0  0  0
 34 29  1  0  0  0  0
 35 34  1  0  0  0  0
 36 33  1  0  0  0  0
M  END
>  <MODEL>
5

>  <REMARK>
 VINA RESULT:      -4.9      2.610      4.269
  Name = 
  10 active torsions:
  status: ('A' for Active; 'I' for Inactive)
    1  A    between atoms: C_4  and  C_20
    2  A    between atoms: C_4  and  C_22
    3  A    between atoms: C_4  and  C_28
    4  A    between atoms: C_9  and  N_12
    5  A    between atoms: C_9  and  C_26
    6  A    between atoms: C_13  and  C_16
    7  A    between atoms: C_16  and  C_30
    8  A    between atoms: C_17  and  C_26
    9  A    between atoms: C_20  and  C_30
   10  A    between atoms: C_21  and  C_32
                            x       y       z     vdW  Elec       q    Type
                         _______ _______ _______ _____ _____    ______ ____

>  <TORSDO>
F 10

$$$$
=
 OpenBabel11072414363D

 36 39  0  0  1  0  0  0  0  0999 V2000
  161.0210  207.6770  154.0360 C   0  0  2  0  0  3  0  0  0  0  0  0
  160.9310  210.6180  154.4110 C   0  0  0  0  0  2  0  0  0  0  0  0
  161.9470  208.4060  155.0140 C   0  0  0  0  0  2  0  0  0  0  0  0
  161.7310  206.4070  153.5640 C   0  0  0  0  0  2  0  0  0  0  0  0
  159.9830  209.9070  153.4510 C   0  0  2  0  0  3  0  0  0  0  0  0
  161.7110  208.8290  151.8880 C   0  0  0  0  0  2  0  0  0  0  0  0
  161.5310  207.8620  150.7300 C   0  0  0  0  0  2  0  0  0  0  0  0
  161.9550  206.4200  151.0560 C   0  0  1  0  0  3  0  0  0  0  0  0
  161.2980  209.6800  155.5530 C   0  0  1  0  0  3  0  0  0  0  0  0
  161.1840  205.8240  152.2600 C   0  0  1  0  0  3  0  0  0  0  0  0
  162.2610  210.3780  156.4880 C   0  0  0  0  0  1  0  0  0  0  0  0
  160.5810  208.6070  152.8880 C   0  0  1  0  0  3  0  0  0  0  0  0
  160.2990  203.6350  152.6930 O   0  0  0  0  0  1  0  0  0  0  0  0
  161.2900  204.3310  152.3440 C   0  0  0  0  0  0  0  0  0  0  0  0
  162.4860  203.7090  152.0120 O   0  0  0  0  0  0  0  0  0  0  0  0
  161.8830  205.5300  149.7960 C   0  0  2  0  0  3  0  0  0  0  0  0
  162.7390  205.5640  147.4690 N   0  0  0  0  0  2  0  0  0  0  0  0
  160.3070  206.6600  147.8240 S   0  0  0  0  0  0  0  0  0  0  0  0
  162.3400  206.1010  146.1810 C   0  0  0  0  0  2  0  0  0  0  0  0
  161.9710  206.2970  148.4680 C   0  0  1  0  0  3  0  0  0  0  0  0
  160.8330  206.1880  146.1590 C   0  0  0  0  0  2  0  0  0  0  0  0
  160.7980  204.4430  149.8320 C   0  0  1  0  0  3  0  0  0  0  0  0
  159.5250  204.9950  149.6830 O   0  0  0  0  0  1  0  0  0  0  0  0
  161.0300  203.4060  148.7450 C   0  0  0  0  0  2  0  0  0  0  0  0
  160.7890  202.0070  149.2860 C   0  0  0  0  0  2  0  0  0  0  0  0
  161.2030  200.9640  148.2620 C   0  0  0  0  0  2  0  0  0  0  0  0
  160.9390  201.4530  146.9180 N   0  0  0  0  0  1  0  0  0  0  0  0
  159.3440  210.8280  152.4060 C   0  0  0  0  0  2  0  0  0  0  0  0
  159.1590  212.2710  152.8700 C   0  0  1  0  0  3  0  0  0  0  0  0
  159.7460  213.1450  151.9480 O   0  0  0  0  0  1  0  0  0  0  0  0
  155.4050  213.7340  154.0030 N   0  0  0  0  0  0  0  0  0  0  0  0
  155.9610  212.6170  154.7490 C   0  0  0  0  0  2  0  0  0  0  0  0
  157.4420  213.9600  152.6740 C   0  0  0  0  0  2  0  0  0  0  0  0
  157.7410  212.5850  153.0870 N   0  0  0  0  0  0  0  0  0  0  0  0
  157.4640  212.4710  154.5170 C   0  0  0  0  0  2  0  0  0  0  0  0
  156.0280  214.3270  153.0390 C   0  0  0  0  0  3  0  0  0  0  0  0
  1  4  1  6  0  0  0
  1  3  1  0  0  0  0
  2  9  1  0  0  0  0
  3  9  1  0  0  0  0
  5 28  1  6  0  0  0
  5  2  1  0  0  0  0
  7  8  1  0  0  0  0
  7  6  1  0  0  0  0
  8 16  1  6  0  0  0
  8 10  1  0  0  0  0
  9 11  1  1  0  0  0
 10 14  1  1  0  0  0
 10  4  1  0  0  0  0
 12  6  1  6  0  0  0
 12  5  1  0  0  0  0
 12  1  1  0  0  0  0
 14 13  1  0  0  0  0
 15 14  2  0  0  0  0
 16 22  1  6  0  0  0
 17 20  1  0  0  0  0
 18 20  1  0  0  0  0
 19 17  1  0  0  0  0
 20 16  1  1  0  0  0
 21 19  1  0  0  0  0
 21 18  1  0  0  0  0
 22 23  1  6  0  0  0
 24 25  1  0  0  0  0
 24 22  1  0  0  0  0
 26 25  1  0  0  0  0
 27 26  1  0  0  0  0
 28 29  1  0  0  0  0
 29 30  1  6  0  0  0
 29 34  1  0  0  0  0
 31 32  1  0  0  0  0
 33 36  1  0  0  0  0
 33 34  1  0  0  0  0
 34 35  1  0  0  0  0
 35 32  1  0  0  0  0
 36 31  2  0  0  0  0
M  END
>  <MODEL>
6

>  <REMARK>
 VINA RESULT:      -4.8      2.750      8.853
  Name = 
  10 active torsions:
  status: ('A' for Active; 'I' for Inactive)
    1  A    between atoms: C_4  and  C_20
    2  A    between atoms: C_4  and  C_22
    3  A    between atoms: C_4  and  C_28
    4  A    between atoms: C_9  and  N_12
    5  A    between atoms: C_9  and  C_26
    6  A    between atoms: C_13  and  C_16
    7  A    between atoms: C_16  and  C_30
    8  A    between atoms: C_17  and  C_26
    9  A    between atoms: C_20  and  C_30
   10  A    between atoms: C_21  and  C_32
                            x       y       z     vdW  Elec       q    Type
                         _______ _______ _______ _____ _____    ______ ____

>  <TORSDO>
F 10

$$$$
=
 OpenBabel11072414363D

 36 39  0  0  1  0  0  0  0  0999 V2000
  161.8650  206.6090  153.0530 C   0  0  2  0  0  3  0  0  0  0  0  0
  161.2980  204.7890  150.7810 C   0  0  0  0  0  2  0  0  0  0  0  0
  161.1650  205.2610  153.2410 C   0  0  0  0  0  2  0  0  0  0  0  0
  161.3990  207.5480  154.1690 C   0  0  0  0  0  2  0  0  0  0  0  0
  162.0200  206.1170  150.5790 C   0  0  2  0  0  3  0  0  0  0  0  0
  160.2160  207.7080  151.4750 C   0  0  0  0  0  2  0  0  0  0  0  0
  160.2440  209.2110  151.7010 C   0  0  0  0  0  2  0  0  0  0  0  0
  160.3510  209.6130  153.1800 C   0  0  1  0  0  3  0  0  0  0  0  0
  161.5970  204.2540  152.1760 C   0  0  1  0  0  3  0  0  0  0  0  0
  161.6100  209.0340  153.8730 C   0  0  1  0  0  3  0  0  0  0  0  0
  160.8560  202.9520  152.3850 C   0  0  0  0  0  1  0  0  0  0  0  0
  161.6320  207.1650  151.6350 C   0  0  1  0  0  3  0  0  0  0  0  0
  161.3720  209.3690  156.2380 O   0  0  0  0  0  1  0  0  0  0  0  0
  161.9350  209.7180  155.1670 C   0  0  0  0  0  0  0  0  0  0  0  0
  162.8820  210.7330  155.1860 O   0  0  0  0  0  0  0  0  0  0  0  0
  160.2260  211.1440  153.3420 C   0  0  2  0  0  3  0  0  0  0  0  0
  158.6270  210.4560  155.1080 N   0  0  0  0  0  2  0  0  0  0  0  0
  160.0790  212.6540  155.6540 S   0  0  0  0  0  0  0  0  0  0  0  0
  158.1500  210.9560  156.3840 C   0  0  0  0  0  2  0  0  0  0  0  0
  159.2440  211.5920  154.4350 C   0  0  1  0  0  3  0  0  0  0  0  0
  159.2510  211.7800  157.0040 C   0  0  0  0  0  2  0  0  0  0  0  0
  160.1130  211.9270  152.0250 C   0  0  1  0  0  3  0  0  0  0  0  0
  159.9830  213.2960  152.2620 O   0  0  0  0  0  1  0  0  0  0  0  0
  161.3230  211.6800  151.1390 C   0  0  0  0  0  2  0  0  0  0  0  0
  161.2080  212.4760  149.8500 C   0  0  0  0  0  2  0  0  0  0  0  0
  161.7180  211.6590  148.6760 C   0  0  0  0  0  2  0  0  0  0  0  0
  163.0260  212.1410  148.2620 N   0  0  0  0  0  1  0  0  0  0  0  0
  162.0040  206.6230  149.1320 C   0  0  0  0  0  2  0  0  0  0  0  0
  162.4370  205.5840  148.0990 C   0  0  1  0  0  3  0  0  0  0  0  0
  161.9630  204.3210  148.4700 O   0  0  0  0  0  1  0  0  0  0  0  0
  160.8330  205.8980  144.2460 N   0  0  0  0  0  0  0  0  0  0  0  0
  162.1920  205.4000  144.3860 C   0  0  0  0  0  2  0  0  0  0  0  0
  160.5300  205.9740  146.6680 C   0  0  0  0  0  2  0  0  0  0  0  0
  161.9930  205.9550  146.7500 N   0  0  0  0  0  0  0  0  0  0  0  0
  162.4860  204.9460  145.8150 C   0  0  0  0  0  2  0  0  0  0  0  0
  160.0790  206.2040  145.2500 C   0  0  0  0  0  3  0  0  0  0  0  0
  1  3  1  6  0  0  0
  1  4  1  0  0  0  0
  2  9  1  0  0  0  0
  5 28  1  6  0  0  0
  5  2  1  0  0  0  0
  5 12  1  0  0  0  0
  6  7  1  0  0  0  0
  7  8  1  0  0  0  0
  8 16  1  6  0  0  0
  8 10  1  0  0  0  0
  9 11  1  1  0  0  0
  9  3  1  0  0  0  0
 10  4  1  0  0  0  0
 10 14  1  1  0  0  0
 12  6  1  1  0  0  0
 12  1  1  0  0  0  0
 14 15  2  0  0  0  0
 14 13  1  0  0  0  0
 16 22  1  6  0  0  0
 17 19  1  0  0  0  0
 18 21  1  0  0  0  0
 19 21  1  0  0  0  0
 20 16  1  6  0  0  0
 20 17  1  0  0  0  0
 20 18  1  0  0  0  0
 22 23  1  1  0  0  0
 24 22  1  0  0  0  0
 25 24  1  0  0  0  0
 26 25  1  0  0  0  0
 27 26  1  0  0  0  0
 29 30  1  1  0  0  0
 29 28  1  0  0  0  0
 31 32  1  0  0  0  0
 31 36  2  0  0  0  0
 32 35  1  0  0  0  0
 33 34  1  0  0  0  0
 34 29  1  0  0  0  0
 35 34  1  0  0  0  0
 36 33  1  0  0  0  0
M  END
>  <MODEL>
7

>  <REMARK>
 VINA RESULT:      -4.6      1.994      2.283
  Name = 
  10 active torsions:
  status: ('A' for Active; 'I' for Inactive)
    1  A    between atoms: C_4  and  C_20
    2  A    between atoms: C_4  and  C_22
    3  A    between atoms: C_4  and  C_28
    4  A    between atoms: C_9  and  N_12
    5  A    between atoms: C_9  and  C_26
    6  A    between atoms: C_13  and  C_16
    7  A    between atoms: C_16  and  C_30
    8  A    between atoms: C_17  and  C_26
    9  A    between atoms: C_20  and  C_30
   10  A    between atoms: C_21  and  C_32
                            x       y       z     vdW  Elec       q    Type
                         _______ _______ _______ _____ _____    ______ ____

>  <TORSDO>
F 10

$$$$
