=
 OpenBabel11072410103D

 43 46  0  0  1  0  0  0  0  0999 V2000
  160.6580  211.2870  155.5880 C   0  0  1  0  0  3  0  0  0  0  0  0
  160.7270  210.0200  151.6780 O   0  0  0  0  0  1  0  0  0  0  0  0
  160.2390  210.1730  152.9800 C   0  0  1  0  0  3  0  0  0  0  0  0
  159.2510  211.7130  155.6920 C   0  0  2  0  0  0  0  0  0  0  0  0
  161.2960  209.8070  153.9900 C   0  0  1  0  0  3  0  0  0  0  0  0
  160.7030  209.9220  155.2430 O   0  0  0  0  0  0  0  0  0  0  0  0
  160.0710  212.2150  154.5600 N   0  0  2  0  0  0  0  0  0  0  0  0
  159.0290  212.7720  156.7580 C   0  0  0  0  0  1  0  0  0  0  0  0
  159.8580  211.6330  153.2070 C   0  0  2  0  0  3  0  0  0  0  0  0
  161.8440  208.3890  153.7660 C   0  0  0  0  0  2  0  0  0  0  0  0
  159.6910  207.4980  154.3000 F   0  0  0  0  0  0  0  0  0  0  0  0
  161.3270  207.2320  155.7940 F   0  0  0  0  0  0  0  0  0  0  0  0
  161.0480  207.2520  154.4370 C   0  0  0  0  0  0  0  0  0  0  0  0
  161.3790  205.9890  153.8970 O   0  0  0  0  0  0  0  0  0  0  0  0
  161.7660  206.1590  152.5560 C   0  0  0  0  0  2  0  0  0  0  0  0
  161.0370  205.1640  151.6870 C   0  0  0  0  0  2  0  0  0  0  0  0
  161.5900  205.1710  150.3410 N   0  0  0  0  0  0  0  0  0  0  0  0
  160.3460  202.7000  150.6240 S   0  0  0  0  0  0  0  0  0  0  0  0
  161.4860  200.1450  147.6020 C   0  0  0  0  0  1  0  0  0  0  0  0
  161.4190  203.7980  148.3840 N   0  0  0  0  0  0  0  0  0  0  0  0
  161.5960  203.7960  149.8310 C   0  0  1  0  0  3  0  0  0  0  0  0
  161.1560  201.3860  148.3540 C   0  0  0  0  0  0  0  0  0  0  0  0
  161.1140  202.8350  145.9540 Cl  0  0  0  0  0  0  0  0  0  0  0  0
  160.8730  201.2810  149.6530 C   0  0  0  0  0  3  0  0  0  0  0  0
  161.2380  202.7080  147.6970 C   0  0  0  0  0  0  0  0  0  0  0  0
  160.7550  206.0260  149.5010 C   0  0  0  0  0  2  0  0  0  0  0  0
  161.5480  207.1720  148.9720 C   0  0  0  0  0  0  0  0  0  0  0  0
  162.6830  207.5550  149.6130 F   0  0  0  0  0  0  0  0  0  0  0  0
  161.2480  207.6970  147.8430 N   0  0  0  0  0  2  0  0  0  0  0  0
  158.1120  210.7300  155.3620 C   0  0  0  0  0  2  0  0  0  0  0  0
  155.8150  210.7520  154.7170 O   0  0  0  0  0  1  0  0  0  0  0  0
  156.7520  211.3920  155.5150 C   0  0  0  0  0  2  0  0  0  0  0  0
  158.5290  212.0200  152.5510 C   0  0  0  0  0  2  0  0  0  0  0  0
  158.5820  213.2760  151.6720 C   0  0  1  0  0  3  0  0  0  0  0  0
  157.8310  214.4520  152.2810 C   0  0  0  0  0  2  0  0  0  0  0  0
  156.9010  214.0320  153.2200 O   0  0  0  0  0  1  0  0  0  0  0  0
  159.9460  213.6560  151.2870 N   0  0  0  0  0  2  0  0  0  0  0  0
  161.0930  212.7810  147.7680 C   0  0  0  0  0  2  0  0  0  0  0  0
  159.8070  212.4770  147.2720 O   0  0  0  0  0  0  0  0  0  0  0  0
  161.0960  212.7210  149.2950 C   0  0  0  0  0  2  0  0  0  0  0  0
  160.0710  213.7190  149.8310 C   0  0  0  0  0  3  0  0  0  0  0  0
  158.7190  213.5870  149.1150 C   0  0  0  0  0  2  0  0  0  0  0  0
  158.9650  213.5560  147.6070 C   0  0  0  0  0  2  0  0  0  0  0  0
  1  6  1  6  0  0  0
  1  4  1  0  0  0  0
  3  2  1  6  0  0  0
  3  9  1  0  0  0  0
  3  5  1  0  0  0  0
  4  8  1  1  0  0  0
  5 10  1  6  0  0  0
  5  6  1  0  0  0  0
  7  1  1  0  0  0  0
  7  4  1  0  0  0  0
  9  7  1  0  0  0  0
 10 13  1  0  0  0  0
 11 13  1  0  0  0  0
 13 12  1  0  0  0  0
 14 13  1  0  0  0  0
 15 14  1  0  0  0  0
 16 15  1  0  0  0  0
 17 16  1  0  0  0  0
 19 22  1  0  0  0  0
 20 21  1  0  0  0  0
 21 17  1  0  0  0  0
 21 18  1  0  0  0  0
 22 24  2  0  0  0  0
 23 25  1  0  0  0  0
 24 18  1  0  0  0  0
 25 22  1  0  0  0  0
 25 20  2  0  0  0  0
 26 17  1  0  0  0  0
 27 26  1  0  0  0  0
 27 28  1  0  0  0  0
 29 27  2  0  0  0  0
 30 32  1  0  0  0  0
 30  4  1  0  0  0  0
 31 32  1  0  0  0  0
 33  9  1  0  0  0  0
 34 35  1  0  0  0  0
 34 33  1  0  0  0  0
 35 36  1  0  0  0  0
 37 34  1  0  0  0  0
 38 40  1  0  0  0  0
 39 43  1  0  0  0  0
 39 38  1  0  0  0  0
 40 41  1  0  0  0  0
 41 37  1  0  0  0  0
 42 41  1  0  0  0  0
 43 42  1  0  0  0  0
M  END
>  <MODEL>
1

>  <REMARK>
 VINA RESULT:      -6.2      0.000      0.000
  Name = 
  16 active torsions:
  status: ('A' for Active; 'I' for Inactive)
    1  A    between atoms: C_1  and  C_15
    2  A    between atoms: C_1  and  C_42
    3  A    between atoms: O_2  and  C_21
    4  A    between atoms: O_2  and  C_27
    5  A    between atoms: C_9  and  C_18
    6  A    between atoms: C_13  and  N_22
    7  A    between atoms: C_17  and  CA_38
    8  A    between atoms: C_17  and  C_41
    9  A    between atoms: C_18  and  N_26
   10  A    between atoms: C_19  and  CA_38
   11  A    between atoms: C_20  and  N_26
   12  A    between atoms: C_20  and  C_27
   13  A    between atoms: C_21  and  C_34
   14  A    between atoms: N_22  and  CA_38
   15  A    between atoms: C_24  and  N_26
   16  A    between atoms: C_28  and  C_34
                            x       y       z     vdW  Elec       q    Type
                         _______ _______ _______ _____ _____    ______ ____

>  <TORSDO>
F 16

$$$$
=
 OpenBabel11072410103D

 43 46  0  0  1  0  0  0  0  0999 V2000
  162.8610  207.3150  147.8960 C   0  0  1  0  0  3  0  0  0  0  0  0
  161.0010  208.0720  151.4810 O   0  0  0  0  0  1  0  0  0  0  0  0
  161.1120  207.7940  150.1150 C   0  0  1  0  0  3  0  0  0  0  0  0
  162.0220  206.2080  147.4030 C   0  0  2  0  0  0  0  0  0  0  0  0
  162.0610  208.7580  149.4520 C   0  0  1  0  0  3  0  0  0  0  0  0
  162.0550  208.4520  148.0960 O   0  0  0  0  0  0  0  0  0  0  0  0
  162.5750  206.1310  148.7780 N   0  0  2  0  0  0  0  0  0  0  0  0
  162.7530  205.2940  146.4340 C   0  0  0  0  0  1  0  0  0  0  0  0
  161.6690  206.3860  149.9310 C   0  0  2  0  0  3  0  0  0  0  0  0
  161.6580  210.2220  149.6900 C   0  0  0  0  0  2  0  0  0  0  0  0
  161.0970  211.0660  147.5250 F   0  0  0  0  0  0  0  0  0  0  0  0
  163.2600  210.8870  148.0440 F   0  0  0  0  0  0  0  0  0  0  0  0
  162.0130  211.2050  148.5570 C   0  0  0  0  0  0  0  0  0  0  0  0
  162.0470  212.5420  149.0120 O   0  0  0  0  0  0  0  0  0  0  0  0
  160.8380  213.1680  148.6620 C   0  0  0  0  0  2  0  0  0  0  0  0
  160.3700  214.0410  149.8000 C   0  0  0  0  0  2  0  0  0  0  0  0
  159.1370  213.5140  150.3650 N   0  0  0  0  0  0  0  0  0  0  0  0
  157.6660  213.5560  152.7260 S   0  0  0  0  0  0  0  0  0  0  0  0
  160.0650  212.6460  155.9470 C   0  0  0  0  0  1  0  0  0  0  0  0
  160.0160  212.2900  152.2280 N   0  0  0  0  0  0  0  0  0  0  0  0
  159.2710  213.4760  151.8250 C   0  0  1  0  0  3  0  0  0  0  0  0
  159.5110  212.6950  154.5670 C   0  0  0  0  0  0  0  0  0  0  0  0
  161.1360  210.5300  153.8330 Cl  0  0  0  0  0  0  0  0  0  0  0  0
  158.4840  213.5100  154.3270 C   0  0  0  0  0  3  0  0  0  0  0  0
  160.1510  211.9340  153.4720 C   0  0  0  0  0  0  0  0  0  0  0  0
  158.0370  214.3910  149.9740 C   0  0  0  0  0  2  0  0  0  0  0  0
  157.0480  213.6470  149.1410 C   0  0  0  0  0  0  0  0  0  0  0  0
  155.8210  213.3630  149.6530 F   0  0  0  0  0  0  0  0  0  0  0  0
  157.2920  213.4090  147.9080 N   0  0  0  0  0  2  0  0  0  0  0  0
  160.4980  206.3880  147.2590 C   0  0  0  0  0  2  0  0  0  0  0  0
  160.4010  206.6270  144.8880 O   0  0  0  0  0  1  0  0  0  0  0  0
  159.9980  205.8190  145.9410 C   0  0  0  0  0  2  0  0  0  0  0  0
  160.6300  205.2880  150.1770 C   0  0  0  0  0  2  0  0  0  0  0  0
  161.2040  203.8720  150.3140 C   0  0  1  0  0  3  0  0  0  0  0  0
  161.5820  203.5270  151.7480 C   0  0  0  0  0  2  0  0  0  0  0  0
  160.4600  203.3430  152.5410 O   0  0  0  0  0  1  0  0  0  0  0  0
  160.3420  202.8380  149.7270 N   0  0  0  0  0  2  0  0  0  0  0  0
  161.7970  200.1440  147.4710 C   0  0  0  0  0  2  0  0  0  0  0  0
  160.9240  200.3810  146.3880 O   0  0  0  0  0  0  0  0  0  0  0  0
  161.2090  200.7230  148.7580 C   0  0  0  0  0  2  0  0  0  0  0  0
  160.9910  202.2240  148.5700 C   0  0  0  0  0  3  0  0  0  0  0  0
  160.2670  202.5330  147.2520 C   0  0  0  0  0  2  0  0  0  0  0  0
  160.9530  201.7650  146.1240 C   0  0  0  0  0  2  0  0  0  0  0  0
  1  6  1  1  0  0  0
  1  7  1  0  0  0  0
  3  2  1  1  0  0  0
  4  8  1  6  0  0  0
  4  1  1  0  0  0  0
  4  7  1  0  0  0  0
  5 10  1  6  0  0  0
  5  3  1  0  0  0  0
  6  5  1  0  0  0  0
  7  9  1  0  0  0  0
  9  3  1  0  0  0  0
  9 33  1  0  0  0  0
 11 13  1  0  0  0  0
 12 13  1  0  0  0  0
 13 14  1  0  0  0  0
 13 10  1  0  0  0  0
 15 14  1  0  0  0  0
 15 16  1  0  0  0  0
 16 17  1  0  0  0  0
 17 21  1  0  0  0  0
 18 24  1  0  0  0  0
 20 25  2  0  0  0  0
 21 20  1  0  0  0  0
 21 18  1  0  0  0  0
 22 19  1  0  0  0  0
 24 22  2  0  0  0  0
 25 23  1  0  0  0  0
 25 22  1  0  0  0  0
 26 17  1  0  0  0  0
 27 28  1  0  0  0  0
 27 26  1  0  0  0  0
 29 27  2  0  0  0  0
 30  4  1  0  0  0  0
 31 32  1  0  0  0  0
 32 30  1  0  0  0  0
 33 34  1  0  0  0  0
 34 35  1  0  0  0  0
 35 36  1  0  0  0  0
 37 34  1  0  0  0  0
 38 40  1  0  0  0  0
 39 38  1  0  0  0  0
 41 40  1  0  0  0  0
 41 37  1  0  0  0  0
 42 41  1  0  0  0  0
 43 39  1  0  0  0  0
 43 42  1  0  0  0  0
M  END
>  <MODEL>
2

>  <REMARK>
 VINA RESULT:      -6.0      3.881      9.923
  Name = 
  16 active torsions:
  status: ('A' for Active; 'I' for Inactive)
    1  A    between atoms: C_1  and  C_15
    2  A    between atoms: C_1  and  C_42
    3  A    between atoms: O_2  and  C_21
    4  A    between atoms: O_2  and  C_27
    5  A    between atoms: C_9  and  C_18
    6  A    between atoms: C_13  and  N_22
    7  A    between atoms: C_17  and  CA_38
    8  A    between atoms: C_17  and  C_41
    9  A    between atoms: C_18  and  N_26
   10  A    between atoms: C_19  and  CA_38
   11  A    between atoms: C_20  and  N_26
   12  A    between atoms: C_20  and  C_27
   13  A    between atoms: C_21  and  C_34
   14  A    between atoms: N_22  and  CA_38
   15  A    between atoms: C_24  and  N_26
   16  A    between atoms: C_28  and  C_34
                            x       y       z     vdW  Elec       q    Type
                         _______ _______ _______ _____ _____    ______ ____

>  <TORSDO>
F 16

$$$$
=
 OpenBabel11072410103D

 43 46  0  0  1  0  0  0  0  0999 V2000
  162.2730  210.3340  154.8040 C   0  0  1  0  0  3  0  0  0  0  0  0
  159.0100  211.0220  152.4020 O   0  0  0  0  0  1  0  0  0  0  0  0
  159.7570  210.4490  153.4360 C   0  0  1  0  0  3  0  0  0  0  0  0
  161.6170  210.3090  156.1230 C   0  0  2  0  0  0  0  0  0  0  0  0
  161.0770  209.9380  152.9180 C   0  0  1  0  0  3  0  0  0  0  0  0
  161.7150  209.3280  153.9920 O   0  0  0  0  0  0  0  0  0  0  0  0
  161.3510  211.4500  155.2110 N   0  0  2  0  0  0  0  0  0  0  0  0
  162.5530  210.6850  157.2600 C   0  0  0  0  0  1  0  0  0  0  0  0
  160.0470  211.5070  154.4960 C   0  0  2  0  0  3  0  0  0  0  0  0
  160.8970  208.9550  151.7500 C   0  0  0  0  0  2  0  0  0  0  0  0
  162.9730  207.8200  151.4000 F   0  0  0  0  0  0  0  0  0  0  0  0
  162.8350  209.9570  150.7690 F   0  0  0  0  0  0  0  0  0  0  0  0
  162.1280  208.7680  150.8400 C   0  0  0  0  0  0  0  0  0  0  0  0
  161.7600  208.3900  149.5290 O   0  0  0  0  0  0  0  0  0  0  0  0
  160.8920  207.2870  149.6050 C   0  0  0  0  0  2  0  0  0  0  0  0
  161.5930  206.0520  149.0950 C   0  0  0  0  0  2  0  0  0  0  0  0
  160.8120  204.8640  149.4060 N   0  0  0  0  0  0  0  0  0  0  0  0
  161.5510  204.7600  146.7270 S   0  0  0  0  0  0  0  0  0  0  0  0
  160.4000  201.1840  145.0410 C   0  0  0  0  0  1  0  0  0  0  0  0
  161.0030  202.6960  148.4030 N   0  0  0  0  0  0  0  0  0  0  0  0
  160.6340  204.0880  148.1750 C   0  0  1  0  0  3  0  0  0  0  0  0
  160.8390  202.2020  146.0330 C   0  0  0  0  0  0  0  0  0  0  0  0
  161.4620  200.1630  147.8560 Cl  0  0  0  0  0  0  0  0  0  0  0  0
  160.9190  203.4740  145.6410 C   0  0  0  0  0  3  0  0  0  0  0  0
  161.0810  201.8230  147.4420 C   0  0  0  0  0  0  0  0  0  0  0  0
  161.5360  204.0830  150.4050 C   0  0  0  0  0  2  0  0  0  0  0  0
  161.1600  204.5190  151.7810 C   0  0  0  0  0  0  0  0  0  0  0  0
  160.0750  203.9680  152.3850 F   0  0  0  0  0  0  0  0  0  0  0  0
  161.9330  205.2920  152.4460 N   0  0  0  0  0  2  0  0  0  0  0  0
  160.4560  209.3350  156.3990 C   0  0  0  0  0  2  0  0  0  0  0  0
  161.0810  207.0340  156.3660 O   0  0  0  0  0  1  0  0  0  0  0  0
  160.9250  208.1310  157.2000 C   0  0  0  0  0  2  0  0  0  0  0  0
  158.8440  211.8110  155.3930 C   0  0  0  0  0  2  0  0  0  0  0  0
  158.1140  213.1220  155.0770 C   0  0  1  0  0  3  0  0  0  0  0  0
  158.8280  213.9530  154.0200 C   0  0  0  0  0  2  0  0  0  0  0  0
  158.0300  214.1510  152.9030 O   0  0  0  0  0  1  0  0  0  0  0  0
  156.6980  212.9300  154.7370 N   0  0  0  0  0  2  0  0  0  0  0  0
  154.5550  211.0490  157.2540 C   0  0  0  0  0  2  0  0  0  0  0  0
  153.8740  210.2630  156.2990 O   0  0  0  0  0  0  0  0  0  0  0  0
  155.1710  212.2760  156.5820 C   0  0  0  0  0  2  0  0  0  0  0  0
  156.1360  211.8110  155.4920 C   0  0  0  0  0  3  0  0  0  0  0  0
  155.5010  210.7460  154.5870 C   0  0  0  0  0  2  0  0  0  0  0  0
  154.8500  209.6800  155.4670 C   0  0  0  0  0  2  0  0  0  0  0  0
  1  6  1  6  0  0  0
  1  7  1  0  0  0  0
  1  4  1  0  0  0  0
  3  2  1  6  0  0  0
  3  9  1  0  0  0  0
  4 30  1  0  0  0  0
  4  8  1  1  0  0  0
  5 10  1  6  0  0  0
  5  3  1  0  0  0  0
  5  6  1  0  0  0  0
  7  4  1  0  0  0  0
  9  7  1  0  0  0  0
  9 33  1  0  0  0  0
 12 13  1  0  0  0  0
 13 11  1  0  0  0  0
 13 10  1  0  0  0  0
 14 15  1  0  0  0  0
 14 13  1  0  0  0  0
 16 17  1  0  0  0  0
 16 15  1  0  0  0  0
 17 26  1  0  0  0  0
 18 21  1  0  0  0  0
 19 22  1  0  0  0  0
 21 20  1  0  0  0  0
 21 17  1  0  0  0  0
 22 25  1  0  0  0  0
 24 22  2  0  0  0  0
 24 18  1  0  0  0  0
 25 23  1  0  0  0  0
 25 20  2  0  0  0  0
 26 27  1  0  0  0  0
 27 28  1  0  0  0  0
 27 29  2  0  0  0  0
 30 32  1  0  0  0  0
 31 32  1  0  0  0  0
 34 33  1  0  0  0  0
 35 34  1  0  0  0  0
 36 35  1  0  0  0  0
 37 34  1  0  0  0  0
 37 41  1  0  0  0  0
 39 38  1  0  0  0  0
 40 38  1  0  0  0  0
 41 40  1  0  0  0  0
 42 43  1  0  0  0  0
 42 41  1  0  0  0  0
 43 39  1  0  0  0  0
M  END
>  <MODEL>
3

>  <REMARK>
 VINA RESULT:      -5.7      2.830      4.783
  Name = 
  16 active torsions:
  status: ('A' for Active; 'I' for Inactive)
    1  A    between atoms: C_1  and  C_15
    2  A    between atoms: C_1  and  C_42
    3  A    between atoms: O_2  and  C_21
    4  A    between atoms: O_2  and  C_27
    5  A    between atoms: C_9  and  C_18
    6  A    between atoms: C_13  and  N_22
    7  A    between atoms: C_17  and  CA_38
    8  A    between atoms: C_17  and  C_41
    9  A    between atoms: C_18  and  N_26
   10  A    between atoms: C_19  and  CA_38
   11  A    between atoms: C_20  and  N_26
   12  A    between atoms: C_20  and  C_27
   13  A    between atoms: C_21  and  C_34
   14  A    between atoms: N_22  and  CA_38
   15  A    between atoms: C_24  and  N_26
   16  A    between atoms: C_28  and  C_34
                            x       y       z     vdW  Elec       q    Type
                         _______ _______ _______ _____ _____    ______ ____

>  <TORSDO>
F 16

$$$$
=
 OpenBabel11072410103D

 43 46  0  0  1  0  0  0  0  0999 V2000
  162.8280  206.8030  147.7380 C   0  0  1  0  0  3  0  0  0  0  0  0
  160.6870  207.4650  151.1830 O   0  0  0  0  0  1  0  0  0  0  0  0
  160.9070  207.2260  149.8230 C   0  0  1  0  0  3  0  0  0  0  0  0
  162.0280  205.7160  147.1470 C   0  0  2  0  0  0  0  0  0  0  0  0
  161.9090  208.2050  149.2670 C   0  0  1  0  0  3  0  0  0  0  0  0
  162.0100  207.9380  147.9060 O   0  0  0  0  0  0  0  0  0  0  0  0
  162.4690  205.5960  148.5590 N   0  0  2  0  0  0  0  0  0  0  0  0
  162.8330  204.8260  146.2130 C   0  0  0  0  0  1  0  0  0  0  0  0
  161.4740  205.8210  149.6430 C   0  0  2  0  0  3  0  0  0  0  0  0
  161.4910  209.6630  149.5150 C   0  0  0  0  0  2  0  0  0  0  0  0
  162.8030  211.4610  150.3880 F   0  0  0  0  0  0  0  0  0  0  0  0
  163.0030  209.4590  151.3560 F   0  0  0  0  0  0  0  0  0  0  0  0
  162.0990  210.3270  150.7670 C   0  0  0  0  0  0  0  0  0  0  0  0
  161.1090  210.6550  151.7210 O   0  0  0  0  0  0  0  0  0  0  0  0
  161.5490  210.2370  152.9890 C   0  0  0  0  0  2  0  0  0  0  0  0
  160.3620  210.0420  153.8990 C   0  0  0  0  0  2  0  0  0  0  0  0
  160.4940  210.8750  155.0850 N   0  0  0  0  0  0  0  0  0  0  0  0
  159.1940  212.9940  153.8370 S   0  0  0  0  0  0  0  0  0  0  0  0
  155.4430  213.5460  155.4430 C   0  0  0  0  0  1  0  0  0  0  0  0
  158.1020  210.9310  155.2230 N   0  0  0  0  0  0  0  0  0  0  0  0
  159.3130  211.7400  155.1810 C   0  0  1  0  0  3  0  0  0  0  0  0
  156.7050  212.9010  154.9910 C   0  0  0  0  0  0  0  0  0  0  0  0
  155.5300  210.3730  155.2950 Cl  0  0  0  0  0  0  0  0  0  0  0  0
  157.6780  213.6810  154.5190 C   0  0  0  0  0  3  0  0  0  0  0  0
  156.9090  211.4470  155.1570 C   0  0  0  0  0  0  0  0  0  0  0  0
  160.5890  210.0060  156.2540 C   0  0  0  0  0  2  0  0  0  0  0  0
  162.0090  209.6350  156.5150 C   0  0  0  0  0  0  0  0  0  0  0  0
  162.3360  208.3310  156.7120 F   0  0  0  0  0  0  0  0  0  0  0  0
  162.9350  210.5130  156.4070 N   0  0  0  0  0  2  0  0  0  0  0  0
  160.5220  205.9060  146.8870 C   0  0  0  0  0  2  0  0  0  0  0  0
  160.0970  205.0750  144.6920 O   0  0  0  0  0  1  0  0  0  0  0  0
  160.2520  206.2400  145.4280 C   0  0  0  0  0  2  0  0  0  0  0  0
  160.4160  204.7210  149.7720 C   0  0  0  0  0  2  0  0  0  0  0  0
  160.9430  203.3710  150.2760 C   0  0  1  0  0  3  0  0  0  0  0  0
  160.9570  203.2760  151.7960 C   0  0  0  0  0  2  0  0  0  0  0  0
  161.3210  204.4800  152.3790 O   0  0  0  0  0  1  0  0  0  0  0  0
  160.2570  202.2200  149.6770 N   0  0  0  0  0  2  0  0  0  0  0  0
  161.8260  200.0080  147.0100 C   0  0  0  0  0  2  0  0  0  0  0  0
  160.8880  200.3170  146.0020 O   0  0  0  0  0  0  0  0  0  0  0  0
  161.2510  200.3470  148.3850 C   0  0  0  0  0  2  0  0  0  0  0  0
  160.9010  201.8340  148.4220 C   0  0  0  0  0  3  0  0  0  0  0  0
  160.0950  202.2610  147.1870 C   0  0  0  0  0  2  0  0  0  0  0  0
  160.7900  201.7210  145.9380 C   0  0  0  0  0  2  0  0  0  0  0  0
  1  6  1  1  0  0  0
  1  7  1  0  0  0  0
  3  2  1  1  0  0  0
  4  8  1  6  0  0  0
  4  1  1  0  0  0  0
  4  7  1  0  0  0  0
  5 10  1  6  0  0  0
  5  3  1  0  0  0  0
  6  5  1  0  0  0  0
  7  9  1  0  0  0  0
  9 33  1  0  0  0  0
  9  3  1  0  0  0  0
 10 13  1  0  0  0  0
 11 13  1  0  0  0  0
 13 12  1  0  0  0  0
 13 14  1  0  0  0  0
 14 15  1  0  0  0  0
 15 16  1  0  0  0  0
 16 17  1  0  0  0  0
 17 21  1  0  0  0  0
 17 26  1  0  0  0  0
 18 24  1  0  0  0  0
 18 21  1  0  0  0  0
 21 20  1  0  0  0  0
 22 25  1  0  0  0  0
 22 19  1  0  0  0  0
 24 22  2  0  0  0  0
 25 20  2  0  0  0  0
 25 23  1  0  0  0  0
 26 27  1  0  0  0  0
 27 28  1  0  0  0  0
 29 27  2  0  0  0  0
 30  4  1  0  0  0  0
 31 32  1  0  0  0  0
 32 30  1  0  0  0  0
 33 34  1  0  0  0  0
 34 35  1  0  0  0  0
 35 36  1  0  0  0  0
 37 34  1  0  0  0  0
 38 40  1  0  0  0  0
 39 38  1  0  0  0  0
 40 41  1  0  0  0  0
 41 37  1  0  0  0  0
 42 41  1  0  0  0  0
 43 39  1  0  0  0  0
 43 42  1  0  0  0  0
M  END
>  <MODEL>
4

>  <REMARK>
 VINA RESULT:      -5.6      3.845      9.982
  Name = 
  16 active torsions:
  status: ('A' for Active; 'I' for Inactive)
    1  A    between atoms: C_1  and  C_15
    2  A    between atoms: C_1  and  C_42
    3  A    between atoms: O_2  and  C_21
    4  A    between atoms: O_2  and  C_27
    5  A    between atoms: C_9  and  C_18
    6  A    between atoms: C_13  and  N_22
    7  A    between atoms: C_17  and  CA_38
    8  A    between atoms: C_17  and  C_41
    9  A    between atoms: C_18  and  N_26
   10  A    between atoms: C_19  and  CA_38
   11  A    between atoms: C_20  and  N_26
   12  A    between atoms: C_20  and  C_27
   13  A    between atoms: C_21  and  C_34
   14  A    between atoms: N_22  and  CA_38
   15  A    between atoms: C_24  and  N_26
   16  A    between atoms: C_28  and  C_34
                            x       y       z     vdW  Elec       q    Type
                         _______ _______ _______ _____ _____    ______ ____

>  <TORSDO>
F 16

$$$$
=
 OpenBabel11072410103D

 43 46  0  0  1  0  0  0  0  0999 V2000
  160.2170  211.5850  156.4230 C   0  0  1  0  0  3  0  0  0  0  0  0
  161.6560  210.0550  152.8900 O   0  0  0  0  0  1  0  0  0  0  0  0
  160.7360  210.3000  153.9140 C   0  0  1  0  0  3  0  0  0  0  0  0
  158.8820  212.0250  155.9840 C   0  0  2  0  0  0  0  0  0  0  0  0
  161.3440  209.9970  155.2590 C   0  0  1  0  0  3  0  0  0  0  0  0
  160.3430  210.2000  156.2020 O   0  0  0  0  0  0  0  0  0  0  0  0
  160.0690  212.4440  155.1980 N   0  0  2  0  0  0  0  0  0  0  0  0
  158.3200  213.1550  156.8300 C   0  0  0  0  0  1  0  0  0  0  0  0
  160.3420  211.7730  153.8980 C   0  0  2  0  0  3  0  0  0  0  0  0
  161.8940  208.5640  155.3350 C   0  0  0  0  0  2  0  0  0  0  0  0
  159.8660  208.0510  154.1770 F   0  0  0  0  0  0  0  0  0  0  0  0
  160.7280  206.4830  155.5130 F   0  0  0  0  0  0  0  0  0  0  0  0
  161.0550  207.4880  154.6170 C   0  0  0  0  0  0  0  0  0  0  0  0
  161.7580  206.9090  153.5360 O   0  0  0  0  0  0  0  0  0  0  0  0
  160.9810  207.0410  152.3710 C   0  0  0  0  0  2  0  0  0  0  0  0
  161.7380  206.4830  151.1910 C   0  0  0  0  0  2  0  0  0  0  0  0
  160.9740  205.4160  150.5610 N   0  0  0  0  0  0  0  0  0  0  0  0
  161.5700  207.3390  148.6410 S   0  0  0  0  0  0  0  0  0  0  0  0
  160.5920  205.9850  144.8770 C   0  0  0  0  0  1  0  0  0  0  0  0
  161.2680  204.6620  148.3050 N   0  0  0  0  0  0  0  0  0  0  0  0
  160.7850  205.7510  149.1450 C   0  0  1  0  0  3  0  0  0  0  0  0
  161.0100  206.0110  146.3050 C   0  0  0  0  0  0  0  0  0  0  0  0
  161.8800  203.3530  146.1050 Cl  0  0  0  0  0  0  0  0  0  0  0  0
  160.9740  207.1770  146.9520 C   0  0  0  0  0  3  0  0  0  0  0  0
  161.3560  204.7600  147.0110 C   0  0  0  0  0  0  0  0  0  0  0  0
  161.7210  204.1690  150.6980 C   0  0  0  0  0  2  0  0  0  0  0  0
  160.8200  203.0690  151.1480 C   0  0  0  0  0  0  0  0  0  0  0  0
  160.3320  202.1880  150.2360 F   0  0  0  0  0  0  0  0  0  0  0  0
  160.6270  202.8630  152.3970 N   0  0  0  0  0  2  0  0  0  0  0  0
  157.9090  211.0280  155.3240 C   0  0  0  0  0  2  0  0  0  0  0  0
  155.6070  210.4680  155.0460 O   0  0  0  0  0  1  0  0  0  0  0  0
  156.4700  211.3170  155.7220 C   0  0  0  0  0  2  0  0  0  0  0  0
  159.3520  212.1230  152.7830 C   0  0  0  0  0  2  0  0  0  0  0  0
  159.7350  213.3430  151.9360 C   0  0  1  0  0  3  0  0  0  0  0  0
  159.9920  212.9900  150.4770 C   0  0  0  0  0  2  0  0  0  0  0  0
  161.2300  212.3880  150.3090 O   0  0  0  0  0  1  0  0  0  0  0  0
  158.7810  214.4530  152.0550 N   0  0  0  0  0  2  0  0  0  0  0  0
  155.2140  213.7800  153.1910 C   0  0  0  0  0  2  0  0  0  0  0  0
  154.5950  214.4530  152.1160 O   0  0  0  0  0  0  0  0  0  0  0  0
  156.6640  214.2420  153.3350 C   0  0  0  0  0  2  0  0  0  0  0  0
  157.4060  213.9540  152.0310 C   0  0  0  0  0  3  0  0  0  0  0  0
  156.6190  214.4470  150.8080 C   0  0  0  0  0  2  0  0  0  0  0  0
  155.1750  213.9650  150.9280 C   0  0  0  0  0  2  0  0  0  0  0  0
  1  6  1  6  0  0  0
  3  2  1  6  0  0  0
  3  5  1  0  0  0  0
  4  1  1  0  0  0  0
  4  8  1  1  0  0  0
  5 10  1  6  0  0  0
  5  6  1  0  0  0  0
  7  4  1  0  0  0  0
  7  1  1  0  0  0  0
  9  3  1  0  0  0  0
  9  7  1  0  0  0  0
 11 13  1  0  0  0  0
 13 10  1  0  0  0  0
 13 12  1  0  0  0  0
 14 13  1  0  0  0  0
 15 14  1  0  0  0  0
 16 15  1  0  0  0  0
 17 26  1  0  0  0  0
 17 16  1  0  0  0  0
 18 21  1  0  0  0  0
 19 22  1  0  0  0  0
 20 21  1  0  0  0  0
 21 17  1  0  0  0  0
 22 24  2  0  0  0  0
 22 25  1  0  0  0  0
 23 25  1  0  0  0  0
 24 18  1  0  0  0  0
 25 20  2  0  0  0  0
 26 27  1  0  0  0  0
 27 29  2  0  0  0  0
 28 27  1  0  0  0  0
 30 32  1  0  0  0  0
 30  4  1  0  0  0  0
 31 32  1  0  0  0  0
 33  9  1  0  0  0  0
 34 37  1  0  0  0  0
 34 33  1  0  0  0  0
 35 34  1  0  0  0  0
 36 35  1  0  0  0  0
 38 40  1  0  0  0  0
 39 38  1  0  0  0  0
 41 37  1  0  0  0  0
 41 40  1  0  0  0  0
 42 43  1  0  0  0  0
 42 41  1  0  0  0  0
 43 39  1  0  0  0  0
M  END
>  <MODEL>
5

>  <REMARK>
 VINA RESULT:      -5.2      2.045      3.487
  Name = 
  16 active torsions:
  status: ('A' for Active; 'I' for Inactive)
    1  A    between atoms: C_1  and  C_15
    2  A    between atoms: C_1  and  C_42
    3  A    between atoms: O_2  and  C_21
    4  A    between atoms: O_2  and  C_27
    5  A    between atoms: C_9  and  C_18
    6  A    between atoms: C_13  and  N_22
    7  A    between atoms: C_17  and  CA_38
    8  A    between atoms: C_17  and  C_41
    9  A    between atoms: C_18  and  N_26
   10  A    between atoms: C_19  and  CA_38
   11  A    between atoms: C_20  and  N_26
   12  A    between atoms: C_20  and  C_27
   13  A    between atoms: C_21  and  C_34
   14  A    between atoms: N_22  and  CA_38
   15  A    between atoms: C_24  and  N_26
   16  A    between atoms: C_28  and  C_34
                            x       y       z     vdW  Elec       q    Type
                         _______ _______ _______ _____ _____    ______ ____

>  <TORSDO>
F 16

$$$$
=
 OpenBabel11072410103D

 43 46  0  0  1  0  0  0  0  0999 V2000
  162.0720  210.2840  154.7940 C   0  0  1  0  0  3  0  0  0  0  0  0
  160.5450  210.6260  150.9930 O   0  0  0  0  0  1  0  0  0  0  0  0
  160.6010  210.2320  152.3340 C   0  0  1  0  0  3  0  0  0  0  0  0
  160.8530  210.5370  155.5810 C   0  0  2  0  0  0  0  0  0  0  0  0
  161.9250  209.5810  152.6420 C   0  0  1  0  0  3  0  0  0  0  0  0
  161.8640  209.1630  153.9670 O   0  0  0  0  0  0  0  0  0  0  0  0
  161.2230  211.4910  154.5070 N   0  0  2  0  0  0  0  0  0  0  0  0
  161.1440  211.0860  156.9680 C   0  0  0  0  0  1  0  0  0  0  0  0
  160.4640  211.4610  153.2270 C   0  0  2  0  0  3  0  0  0  0  0  0
  162.2210  208.4010  151.7020 C   0  0  0  0  0  2  0  0  0  0  0  0
  160.8700  207.2160  153.2790 F   0  0  0  0  0  0  0  0  0  0  0  0
  162.5690  206.1200  152.3320 F   0  0  0  0  0  0  0  0  0  0  0  0
  161.5760  207.0570  152.0960 C   0  0  0  0  0  0  0  0  0  0  0  0
  160.7300  206.5620  151.0780 O   0  0  0  0  0  0  0  0  0  0  0  0
  161.5260  206.0630  150.0330 C   0  0  0  0  0  2  0  0  0  0  0  0
  160.6440  205.6060  148.8970 C   0  0  0  0  0  2  0  0  0  0  0  0
  161.4570  205.1750  147.7690 N   0  0  0  0  0  0  0  0  0  0  0  0
  160.8250  202.9420  149.3020 S   0  0  0  0  0  0  0  0  0  0  0  0
  161.4470  199.4840  147.1560 C   0  0  0  0  0  1  0  0  0  0  0  0
  160.9570  203.1450  146.5980 N   0  0  0  0  0  0  0  0  0  0  0  0
  161.5590  203.7120  147.7990 C   0  0  1  0  0  3  0  0  0  0  0  0
  161.1390  200.8990  147.4970 C   0  0  0  0  0  0  0  0  0  0  0  0
  160.1150  201.3030  144.9180 Cl  0  0  0  0  0  0  0  0  0  0  0  0
  161.2840  201.2890  148.7630 C   0  0  0  0  0  3  0  0  0  0  0  0
  160.7780  201.8660  146.4390 C   0  0  0  0  0  0  0  0  0  0  0  0
  160.8140  205.6200  146.5370 C   0  0  0  0  0  2  0  0  0  0  0  0
  161.8090  205.7050  145.4290 C   0  0  0  0  0  0  0  0  0  0  0  0
  163.1100  205.4010  145.6740 F   0  0  0  0  0  0  0  0  0  0  0  0
  161.4200  205.9150  144.2280 N   0  0  0  0  0  2  0  0  0  0  0  0
  159.5910  209.6780  155.3640 C   0  0  0  0  0  2  0  0  0  0  0  0
  157.4010  210.5180  155.7980 O   0  0  0  0  0  1  0  0  0  0  0  0
  158.5290  209.9880  156.4070 C   0  0  0  0  0  2  0  0  0  0  0  0
  159.0250  211.9760  153.3300 C   0  0  0  0  0  2  0  0  0  0  0  0
  158.7650  213.3170  152.6320 C   0  0  1  0  0  3  0  0  0  0  0  0
  158.4900  214.4480  153.6140 C   0  0  0  0  0  2  0  0  0  0  0  0
  157.4020  214.1640  154.4260 O   0  0  0  0  0  1  0  0  0  0  0  0
  159.8160  213.6860  151.6760 N   0  0  0  0  0  2  0  0  0  0  0  0
  159.4880  213.8780  147.8920 C   0  0  0  0  0  2  0  0  0  0  0  0
  158.3320  213.0720  147.8100 O   0  0  0  0  0  0  0  0  0  0  0  0
  160.2000  213.6420  149.2240 C   0  0  0  0  0  2  0  0  0  0  0  0
  159.2390  213.9750  150.3640 C   0  0  0  0  0  3  0  0  0  0  0  0
  157.8670  213.3160  150.1630 C   0  0  0  0  0  2  0  0  0  0  0  0
  157.3990  213.5850  148.7330 C   0  0  0  0  0  2  0  0  0  0  0  0
  1  6  1  6  0  0  0
  1  4  1  0  0  0  0
  3  2  1  6  0  0  0
  3  5  1  0  0  0  0
  3  9  1  0  0  0  0
  4  8  1  1  0  0  0
  5 10  1  6  0  0  0
  5  6  1  0  0  0  0
  7  1  1  0  0  0  0
  7  4  1  0  0  0  0
  9 33  1  0  0  0  0
  9  7  1  0  0  0  0
 10 13  1  0  0  0  0
 13 12  1  0  0  0  0
 13 11  1  0  0  0  0
 14 13  1  0  0  0  0
 15 14  1  0  0  0  0
 16 15  1  0  0  0  0
 17 21  1  0  0  0  0
 17 16  1  0  0  0  0
 19 22  1  0  0  0  0
 20 21  1  0  0  0  0
 21 18  1  0  0  0  0
 22 24  2  0  0  0  0
 23 25  1  0  0  0  0
 24 18  1  0  0  0  0
 25 20  2  0  0  0  0
 25 22  1  0  0  0  0
 26 17  1  0  0  0  0
 27 28  1  0  0  0  0
 27 26  1  0  0  0  0
 29 27  2  0  0  0  0
 30  4  1  0  0  0  0
 30 32  1  0  0  0  0
 31 32  1  0  0  0  0
 34 33  1  0  0  0  0
 34 35  1  0  0  0  0
 35 36  1  0  0  0  0
 37 34  1  0  0  0  0
 38 40  1  0  0  0  0
 39 38  1  0  0  0  0
 39 43  1  0  0  0  0
 40 41  1  0  0  0  0
 41 37  1  0  0  0  0
 42 41  1  0  0  0  0
 43 42  1  0  0  0  0
M  END
>  <MODEL>
6

>  <REMARK>
 VINA RESULT:      -4.9      1.818      2.132
  Name = 
  16 active torsions:
  status: ('A' for Active; 'I' for Inactive)
    1  A    between atoms: C_1  and  C_15
    2  A    between atoms: C_1  and  C_42
    3  A    between atoms: O_2  and  C_21
    4  A    between atoms: O_2  and  C_27
    5  A    between atoms: C_9  and  C_18
    6  A    between atoms: C_13  and  N_22
    7  A    between atoms: C_17  and  CA_38
    8  A    between atoms: C_17  and  C_41
    9  A    between atoms: C_18  and  N_26
   10  A    between atoms: C_19  and  CA_38
   11  A    between atoms: C_20  and  N_26
   12  A    between atoms: C_20  and  C_27
   13  A    between atoms: C_21  and  C_34
   14  A    between atoms: N_22  and  CA_38
   15  A    between atoms: C_24  and  N_26
   16  A    between atoms: C_28  and  C_34
                            x       y       z     vdW  Elec       q    Type
                         _______ _______ _______ _____ _____    ______ ____

>  <TORSDO>
F 16

$$$$
=
 OpenBabel11072410103D

 43 46  0  0  1  0  0  0  0  0999 V2000
  162.7180  207.2310  148.2440 C   0  0  1  0  0  3  0  0  0  0  0  0
  160.6490  206.8830  151.7790 O   0  0  0  0  0  1  0  0  0  0  0  0
  160.8430  206.9720  150.3970 C   0  0  1  0  0  3  0  0  0  0  0  0
  162.0170  206.2150  147.4390 C   0  0  2  0  0  0  0  0  0  0  0  0
  161.7130  208.1540  150.0560 C   0  0  1  0  0  3  0  0  0  0  0  0
  161.7920  208.2020  148.6690 O   0  0  0  0  0  0  0  0  0  0  0  0
  162.5200  205.8410  148.7840 N   0  0  2  0  0  0  0  0  0  0  0  0
  162.8760  205.6460  146.3220 C   0  0  0  0  0  1  0  0  0  0  0  0
  161.5480  205.7120  149.9040 C   0  0  2  0  0  3  0  0  0  0  0  0
  161.1530  209.4670  150.6250 C   0  0  0  0  0  2  0  0  0  0  0  0
  163.2010  210.5810  151.1550 F   0  0  0  0  0  0  0  0  0  0  0  0
  161.3710  211.8330  150.8950 F   0  0  0  0  0  0  0  0  0  0  0  0
  162.0340  210.7150  150.4170 C   0  0  0  0  0  0  0  0  0  0  0  0
  162.3340  210.9240  149.0520 O   0  0  0  0  0  0  0  0  0  0  0  0
  161.8690  212.1970  148.6780 C   0  0  0  0  0  2  0  0  0  0  0  0
  160.5780  212.0610  147.9090 C   0  0  0  0  0  2  0  0  0  0  0  0
  160.4150  213.1820  146.9960 N   0  0  0  0  0  0  0  0  0  0  0  0
  159.4590  212.7980  144.4120 S   0  0  0  0  0  0  0  0  0  0  0  0
  162.5690  212.1100  141.8010 C   0  0  0  0  0  1  0  0  0  0  0  0
  161.9480  213.5510  145.1920 N   0  0  0  0  0  0  0  0  0  0  0  0
  160.8190  212.7530  145.6530 C   0  0  1  0  0  3  0  0  0  0  0  0
  161.7830  212.6060  142.9630 C   0  0  0  0  0  0  0  0  0  0  0  0
  163.8210  214.4350  143.5670 Cl  0  0  0  0  0  0  0  0  0  0  0  0
  160.5320  212.1700  143.1120 C   0  0  0  0  0  3  0  0  0  0  0  0
  162.4100  213.4800  143.9770 C   0  0  0  0  0  0  0  0  0  0  0  0
  159.0120  213.5860  147.0040 C   0  0  0  0  0  2  0  0  0  0  0  0
  158.4370  213.4480  148.3730 C   0  0  0  0  0  0  0  0  0  0  0  0
  159.0870  213.9980  149.4310 F   0  0  0  0  0  0  0  0  0  0  0  0
  157.2700  212.9470  148.5350 N   0  0  0  0  0  2  0  0  0  0  0  0
  160.4900  206.2880  147.2470 C   0  0  0  0  0  2  0  0  0  0  0  0
  160.0820  206.5670  144.9130 O   0  0  0  0  0  1  0  0  0  0  0  0
  160.0670  205.6350  145.9410 C   0  0  0  0  0  2  0  0  0  0  0  0
  160.6190  204.4990  149.8010 C   0  0  0  0  0  2  0  0  0  0  0  0
  161.2630  203.1560  150.1660 C   0  0  1  0  0  3  0  0  0  0  0  0
  161.4860  202.9990  151.6640 C   0  0  0  0  0  2  0  0  0  0  0  0
  160.4790  203.6080  152.3960 O   0  0  0  0  0  1  0  0  0  0  0  0
  160.5490  202.0000  149.6100 N   0  0  0  0  0  2  0  0  0  0  0  0
  161.6240  199.9370  146.6010 C   0  0  0  0  0  2  0  0  0  0  0  0
  160.6590  200.4640  145.7170 O   0  0  0  0  0  0  0  0  0  0  0  0
  161.2010  200.1830  148.0490 C   0  0  0  0  0  2  0  0  0  0  0  0
  161.0440  201.6860  148.2700 C   0  0  0  0  0  3  0  0  0  0  0  0
  160.2070  202.3400  147.1610 C   0  0  0  0  0  2  0  0  0  0  0  0
  160.7340  201.8690  145.8070 C   0  0  0  0  0  2  0  0  0  0  0  0
  1  6  1  1  0  0  0
  1  7  1  0  0  0  0
  3  2  1  1  0  0  0
  4  8  1  6  0  0  0
  4  1  1  0  0  0  0
  4  7  1  0  0  0  0
  5  3  1  0  0  0  0
  5 10  1  6  0  0  0
  6  5  1  0  0  0  0
  7  9  1  0  0  0  0
  9  3  1  0  0  0  0
 13 10  1  0  0  0  0
 13 12  1  0  0  0  0
 13 11  1  0  0  0  0
 14 13  1  0  0  0  0
 15 14  1  0  0  0  0
 16 15  1  0  0  0  0
 17 26  1  0  0  0  0
 17 16  1  0  0  0  0
 18 21  1  0  0  0  0
 19 22  1  0  0  0  0
 20 21  1  0  0  0  0
 21 17  1  0  0  0  0
 22 24  2  0  0  0  0
 22 25  1  0  0  0  0
 23 25  1  0  0  0  0
 24 18  1  0  0  0  0
 25 20  2  0  0  0  0
 26 27  1  0  0  0  0
 27 29  2  0  0  0  0
 27 28  1  0  0  0  0
 30  4  1  0  0  0  0
 31 32  1  0  0  0  0
 32 30  1  0  0  0  0
 33  9  1  0  0  0  0
 33 34  1  0  0  0  0
 34 35  1  0  0  0  0
 35 36  1  0  0  0  0
 37 34  1  0  0  0  0
 38 40  1  0  0  0  0
 39 43  1  0  0  0  0
 39 38  1  0  0  0  0
 40 41  1  0  0  0  0
 41 37  1  0  0  0  0
 42 41  1  0  0  0  0
 43 42  1  0  0  0  0
M  END
>  <MODEL>
7

>  <REMARK>
 VINA RESULT:      -4.9      4.629      9.775
  Name = 
  16 active torsions:
  status: ('A' for Active; 'I' for Inactive)
    1  A    between atoms: C_1  and  C_15
    2  A    between atoms: C_1  and  C_42
    3  A    between atoms: O_2  and  C_21
    4  A    between atoms: O_2  and  C_27
    5  A    between atoms: C_9  and  C_18
    6  A    between atoms: C_13  and  N_22
    7  A    between atoms: C_17  and  CA_38
    8  A    between atoms: C_17  and  C_41
    9  A    between atoms: C_18  and  N_26
   10  A    between atoms: C_19  and  CA_38
   11  A    between atoms: C_20  and  N_26
   12  A    between atoms: C_20  and  C_27
   13  A    between atoms: C_21  and  C_34
   14  A    between atoms: N_22  and  CA_38
   15  A    between atoms: C_24  and  N_26
   16  A    between atoms: C_28  and  C_34
                            x       y       z     vdW  Elec       q    Type
                         _______ _______ _______ _____ _____    ______ ____

>  <TORSDO>
F 16

$$$$
=
 OpenBabel11072410103D

 43 46  0  0  1  0  0  0  0  0999 V2000
  160.2310  209.8600  152.7530 C   0  0  1  0  0  3  0  0  0  0  0  0
  158.6770  208.2360  156.1940 O   0  0  0  0  0  1  0  0  0  0  0  0
  159.5370  208.9980  155.3970 C   0  0  1  0  0  3  0  0  0  0  0  0
  160.4530  211.2450  153.2030 C   0  0  2  0  0  0  0  0  0  0  0  0
  160.0810  208.1710  154.2600 C   0  0  1  0  0  3  0  0  0  0  0  0
  160.9720  208.9840  153.5690 O   0  0  0  0  0  0  0  0  0  0  0  0
  159.1240  210.6230  153.4270 N   0  0  2  0  0  0  0  0  0  0  0  0
  160.4370  212.2510  152.0640 C   0  0  0  0  0  1  0  0  0  0  0  0
  158.7650  210.1700  154.7980 C   0  0  2  0  0  3  0  0  0  0  0  0
  160.7700  206.8900  154.7550 C   0  0  0  0  0  2  0  0  0  0  0  0
  161.1880  204.6770  153.9510 F   0  0  0  0  0  0  0  0  0  0  0  0
  162.7880  206.2080  153.6680 F   0  0  0  0  0  0  0  0  0  0  0  0
  161.4160  206.0150  153.6620 C   0  0  0  0  0  0  0  0  0  0  0  0
  160.9260  206.3340  152.3760 O   0  0  0  0  0  0  0  0  0  0  0  0
  161.7230  205.6850  151.4160 C   0  0  0  0  0  2  0  0  0  0  0  0
  160.8820  205.3260  150.2160 C   0  0  0  0  0  2  0  0  0  0  0  0
  161.5090  205.8130  148.9970 N   0  0  0  0  0  0  0  0  0  0  0  0
  162.2840  205.0680  146.4320 S   0  0  0  0  0  0  0  0  0  0  0  0
  160.4190  201.5720  145.3090 C   0  0  0  0  0  1  0  0  0  0  0  0
  161.2440  203.5090  148.3960 N   0  0  0  0  0  0  0  0  0  0  0  0
  161.1990  204.8810  147.9080 C   0  0  1  0  0  3  0  0  0  0  0  0
  161.0430  202.6370  146.1400 C   0  0  0  0  0  0  0  0  0  0  0  0
  161.1460  200.8790  148.3230 Cl  0  0  0  0  0  0  0  0  0  0  0  0
  161.4140  203.7690  145.5430 C   0  0  0  0  0  3  0  0  0  0  0  0
  161.1550  202.4790  147.6060 C   0  0  0  0  0  0  0  0  0  0  0  0
  160.9790  207.1410  148.7020 C   0  0  0  0  0  2  0  0  0  0  0  0
  162.0850  208.1400  148.6280 C   0  0  0  0  0  0  0  0  0  0  0  0
  163.3740  207.7100  148.5960 F   0  0  0  0  0  0  0  0  0  0  0  0
  161.8230  209.3790  148.4450 N   0  0  0  0  0  2  0  0  0  0  0  0
  161.3200  211.5330  154.4440 C   0  0  0  0  0  2  0  0  0  0  0  0
  162.8630  210.1760  155.6560 O   0  0  0  0  0  1  0  0  0  0  0  0
  162.6130  210.7330  154.4100 C   0  0  0  0  0  2  0  0  0  0  0  0
  158.5170  211.3040  155.7970 C   0  0  0  0  0  2  0  0  0  0  0  0
  157.0780  211.8350  155.8300 C   0  0  1  0  0  3  0  0  0  0  0  0
  156.2010  211.0950  156.8310 C   0  0  0  0  0  2  0  0  0  0  0  0
  155.0570  210.5920  156.2310 O   0  0  0  0  0  1  0  0  0  0  0  0
  157.0010  213.2880  156.0250 N   0  0  0  0  0  2  0  0  0  0  0  0
  157.1090  214.4530  152.4060 C   0  0  0  0  0  2  0  0  0  0  0  0
  155.9130  213.8130  152.0160 O   0  0  0  0  0  0  0  0  0  0  0  0
  157.6500  213.8220  153.6890 C   0  0  0  0  0  2  0  0  0  0  0  0
  156.5950  213.9520  154.7870 C   0  0  0  0  0  3  0  0  0  0  0  0
  155.2100  213.5040  154.3010 C   0  0  0  0  0  2  0  0  0  0  0  0
  154.9240  214.1680  152.9550 C   0  0  0  0  0  2  0  0  0  0  0  0
  1  4  1  0  0  0  0
  1  7  1  0  0  0  0
  1  6  1  1  0  0  0
  3  2  1  1  0  0  0
  4  8  1  6  0  0  0
  4  7  1  0  0  0  0
  4 30  1  0  0  0  0
  5 10  1  1  0  0  0
  5  3  1  0  0  0  0
  6  5  1  0  0  0  0
  7  9  1  0  0  0  0
  9  3  1  0  0  0  0
  9 33  1  0  0  0  0
 13 12  1  0  0  0  0
 13 11  1  0  0  0  0
 13 10  1  0  0  0  0
 14 13  1  0  0  0  0
 15 14  1  0  0  0  0
 16 15  1  0  0  0  0
 17 16  1  0  0  0  0
 18 21  1  0  0  0  0
 19 22  1  0  0  0  0
 21 20  1  0  0  0  0
 21 17  1  0  0  0  0
 22 25  1  0  0  0  0
 24 22  2  0  0  0  0
 24 18  1  0  0  0  0
 25 23  1  0  0  0  0
 25 20  2  0  0  0  0
 26 17  1  0  0  0  0
 27 26  1  0  0  0  0
 28 27  1  0  0  0  0
 29 27  2  0  0  0  0
 32 30  1  0  0  0  0
 32 31  1  0  0  0  0
 33 34  1  0  0  0  0
 34 37  1  0  0  0  0
 34 35  1  0  0  0  0
 36 35  1  0  0  0  0
 38 40  1  0  0  0  0
 39 38  1  0  0  0  0
 39 43  1  0  0  0  0
 40 41  1  0  0  0  0
 41 37  1  0  0  0  0
 42 41  1  0  0  0  0
 43 42  1  0  0  0  0
M  END
>  <MODEL>
8

>  <REMARK>
 VINA RESULT:      -4.5      2.416      3.955
  Name = 
  16 active torsions:
  status: ('A' for Active; 'I' for Inactive)
    1  A    between atoms: C_1  and  C_15
    2  A    between atoms: C_1  and  C_42
    3  A    between atoms: O_2  and  C_21
    4  A    between atoms: O_2  and  C_27
    5  A    between atoms: C_9  and  C_18
    6  A    between atoms: C_13  and  N_22
    7  A    between atoms: C_17  and  CA_38
    8  A    between atoms: C_17  and  C_41
    9  A    between atoms: C_18  and  N_26
   10  A    between atoms: C_19  and  CA_38
   11  A    between atoms: C_20  and  N_26
   12  A    between atoms: C_20  and  C_27
   13  A    between atoms: C_21  and  C_34
   14  A    between atoms: N_22  and  CA_38
   15  A    between atoms: C_24  and  N_26
   16  A    between atoms: C_28  and  C_34
                            x       y       z     vdW  Elec       q    Type
                         _______ _______ _______ _____ _____    ______ ____

>  <TORSDO>
F 16

$$$$
=
 OpenBabel11072410103D

 43 46  0  0  1  0  0  0  0  0999 V2000
  160.9610  210.1810  155.3280 C   0  0  1  0  0  3  0  0  0  0  0  0
  160.4380  210.4650  151.2610 O   0  0  0  0  0  1  0  0  0  0  0  0
  160.1240  210.1490  152.5860 C   0  0  1  0  0  3  0  0  0  0  0  0
  159.6300  210.6170  155.7860 C   0  0  2  0  0  0  0  0  0  0  0  0
  161.2450  209.3710  153.2280 C   0  0  1  0  0  3  0  0  0  0  0  0
  160.8180  209.0440  154.5100 O   0  0  0  0  0  0  0  0  0  0  0  0
  160.3620  211.4570  154.8050 N   0  0  2  0  0  0  0  0  0  0  0  0
  159.6490  211.2120  157.1840 C   0  0  0  0  0  1  0  0  0  0  0  0
  159.9320  211.4370  153.3800 C   0  0  2  0  0  3  0  0  0  0  0  0
  161.6070  208.1110  152.4260 C   0  0  0  0  0  2  0  0  0  0  0  0
  160.1400  206.3570  153.1240 F   0  0  0  0  0  0  0  0  0  0  0  0
  161.7750  206.9640  154.5170 F   0  0  0  0  0  0  0  0  0  0  0  0
  161.4610  206.7750  153.1810 C   0  0  0  0  0  0  0  0  0  0  0  0
  162.3170  205.7800  152.6590 O   0  0  0  0  0  0  0  0  0  0  0  0
  161.5350  204.7000  152.2130 C   0  0  0  0  0  2  0  0  0  0  0  0
  161.9690  204.2970  150.8250 C   0  0  0  0  0  2  0  0  0  0  0  0
  160.8470  203.7360  150.0890 N   0  0  0  0  0  0  0  0  0  0  0  0
  160.4460  206.1810  148.8260 S   0  0  0  0  0  0  0  0  0  0  0  0
  161.3910  205.9230  144.8270 C   0  0  0  0  0  1  0  0  0  0  0  0
  162.0220  204.1170  148.0360 N   0  0  0  0  0  0  0  0  0  0  0  0
  160.7890  204.3730  148.7690 C   0  0  1  0  0  3  0  0  0  0  0  0
  161.3810  205.6810  146.2940 C   0  0  0  0  0  0  0  0  0  0  0  0
  163.7770  204.2400  146.0780 Cl  0  0  0  0  0  0  0  0  0  0  0  0
  160.4670  206.3120  147.0330 C   0  0  0  0  0  3  0  0  0  0  0  0
  162.2950  204.6890  146.9000 C   0  0  0  0  0  0  0  0  0  0  0  0
  161.0540  202.2970  149.9550 C   0  0  0  0  0  2  0  0  0  0  0  0
  160.0620  201.7120  149.0070 C   0  0  0  0  0  0  0  0  0  0  0  0
  160.4180  201.5010  147.7130 F   0  0  0  0  0  0  0  0  0  0  0  0
  158.9380  201.2760  149.4370 N   0  0  0  0  0  2  0  0  0  0  0  0
  158.3600  209.8960  155.2950 C   0  0  0  0  0  2  0  0  0  0  0  0
  156.0050  210.2010  155.0730 O   0  0  0  0  0  1  0  0  0  0  0  0
  157.1050  210.5600  155.8380 C   0  0  0  0  0  2  0  0  0  0  0  0
  158.5860  212.1170  153.1140 C   0  0  0  0  0  2  0  0  0  0  0  0
  158.6550  213.6360  152.9160 C   0  0  1  0  0  3  0  0  0  0  0  0
  159.6130  214.0410  151.8040 C   0  0  0  0  0  2  0  0  0  0  0  0
  159.0170  213.9410  150.5560 O   0  0  0  0  0  1  0  0  0  0  0  0
  157.3370  214.2580  152.7370 N   0  0  0  0  0  2  0  0  0  0  0  0
  154.8290  213.7410  155.5490 C   0  0  0  0  0  2  0  0  0  0  0  0
  155.7790  213.3420  156.5140 O   0  0  0  0  0  0  0  0  0  0  0  0
  155.4070  213.5800  154.1430 C   0  0  0  0  0  2  0  0  0  0  0  0
  156.6710  214.4300  154.0270 C   0  0  0  0  0  3  0  0  0  0  0  0
  157.6170  214.2100  155.2160 C   0  0  0  0  0  2  0  0  0  0  0  0
  156.8090  214.3040  156.5090 C   0  0  0  0  0  2  0  0  0  0  0  0
  1  6  1  6  0  0  0
  1  4  1  0  0  0  0
  3  2  1  6  0  0  0
  3  5  1  0  0  0  0
  3  9  1  0  0  0  0
  4  8  1  1  0  0  0
  5 10  1  6  0  0  0
  5  6  1  0  0  0  0
  7  1  1  0  0  0  0
  7  4  1  0  0  0  0
  9  7  1  0  0  0  0
 10 13  1  0  0  0  0
 11 13  1  0  0  0  0
 13 12  1  0  0  0  0
 14 13  1  0  0  0  0
 15 14  1  0  0  0  0
 16 15  1  0  0  0  0
 17 16  1  0  0  0  0
 19 22  1  0  0  0  0
 20 21  1  0  0  0  0
 21 18  1  0  0  0  0
 21 17  1  0  0  0  0
 22 25  1  0  0  0  0
 22 24  2  0  0  0  0
 23 25  1  0  0  0  0
 24 18  1  0  0  0  0
 25 20  2  0  0  0  0
 26 17  1  0  0  0  0
 27 29  2  0  0  0  0
 27 26  1  0  0  0  0
 28 27  1  0  0  0  0
 30  4  1  0  0  0  0
 30 32  1  0  0  0  0
 31 32  1  0  0  0  0
 33  9  1  0  0  0  0
 34 33  1  0  0  0  0
 35 34  1  0  0  0  0
 36 35  1  0  0  0  0
 37 34  1  0  0  0  0
 37 41  1  0  0  0  0
 38 39  1  0  0  0  0
 40 38  1  0  0  0  0
 41 40  1  0  0  0  0
 41 42  1  0  0  0  0
 42 43  1  0  0  0  0
 43 39  1  0  0  0  0
M  END
>  <MODEL>
9

>  <REMARK>
 VINA RESULT:      -4.3      2.283      4.145
  Name = 
  16 active torsions:
  status: ('A' for Active; 'I' for Inactive)
    1  A    between atoms: C_1  and  C_15
    2  A    between atoms: C_1  and  C_42
    3  A    between atoms: O_2  and  C_21
    4  A    between atoms: O_2  and  C_27
    5  A    between atoms: C_9  and  C_18
    6  A    between atoms: C_13  and  N_22
    7  A    between atoms: C_17  and  CA_38
    8  A    between atoms: C_17  and  C_41
    9  A    between atoms: C_18  and  N_26
   10  A    between atoms: C_19  and  CA_38
   11  A    between atoms: C_20  and  N_26
   12  A    between atoms: C_20  and  C_27
   13  A    between atoms: C_21  and  C_34
   14  A    between atoms: N_22  and  CA_38
   15  A    between atoms: C_24  and  N_26
   16  A    between atoms: C_28  and  C_34
                            x       y       z     vdW  Elec       q    Type
                         _______ _______ _______ _____ _____    ______ ____

>  <TORSDO>
F 16

$$$$
