=
 OpenBabel11072411283D

 35 35  0  0  1  0  0  0  0  0999 V2000
  161.3270  208.4050  149.7070 N   0  0  0  0  0  2  0  0  0  0  0  0
  161.4270  206.5420  148.1390 C   0  0  0  0  0  0  0  0  0  0  0  0
  162.6870  206.9720  147.6290 N   0  0  0  0  0  1  0  0  0  0  0  0
  160.8280  207.1830  149.1440 C   0  0  0  0  0  3  0  0  0  0  0  0
  160.7730  205.3360  147.5550 C   0  0  0  0  0  2  0  0  0  0  0  0
  161.7370  204.1540  147.5530 C   0  0  1  0  0  3  0  0  0  0  0  0
  161.1090  202.9750  148.1460 N   0  0  0  0  0  2  0  0  0  0  0  0
  160.2850  201.7530  149.9390 O   0  0  0  0  0  0  0  0  0  0  0  0
  161.3420  205.0000  152.7070 C   0  0  0  0  0  1  0  0  0  0  0  0
  160.4240  202.7960  152.4620 N   0  0  0  0  0  2  0  0  0  0  0  0
  161.1610  203.8600  150.4700 N   0  0  0  0  0  2  0  0  0  0  0  0
  160.9460  203.8280  151.8850 C   0  0  0  0  0  0  0  0  0  0  0  0
  160.8290  202.8180  149.5420 C   0  0  0  0  0  0  0  0  0  0  0  0
  162.2500  203.8540  146.1470 C   0  0  0  0  0  2  0  0  0  0  0  0
  161.1210  203.4810  145.2500 C   0  0  0  0  0  0  0  0  0  0  0  0
  160.6920  202.2960  145.2480 O   0  0  0  0  0  0  0  0  0  0  0  0
  160.5730  204.4430  144.4010 O   0  0  0  0  0  0  0  0  0  0  0  0
  161.3320  205.5480  143.9330 C   0  0  0  0  0  1  0  0  0  0  0  0
  162.7310  207.4340  151.3540 C   0  0  0  0  0  2  0  0  0  0  0  0
  162.0550  208.4990  150.9360 C   0  0  0  0  0  0  0  0  0  0  0  0
  160.5260  209.8010  153.9800 C   0  0  0  0  0  3  0  0  0  0  0  0
  161.9310  209.7050  151.7820 C   0  0  0  0  0  3  0  0  0  0  0  0
  161.2250  209.7490  152.8810 C   0  0  0  0  0  0  0  0  0  0  0  0
  160.7660  210.8810  154.9900 C   0  0  2  0  0  3  0  0  0  0  0  0
  162.4030  210.6350  155.7780 S   0  0  0  0  0  1  0  0  0  0  0  0
  158.1300  212.8430  155.5950 C   0  0  2  0  0  3  0  0  0  0  0  0
  159.3100  212.4380  156.4330 C   0  0  2  0  0  3  0  0  0  0  0  0
  156.5580  211.2890  156.4650 O   0  0  0  0  0  1  0  0  0  0  0  0
  160.3940  213.3160  156.3070 O   0  0  0  0  0  1  0  0  0  0  0  0
  159.5990  210.9950  156.0100 C   0  0  1  0  0  0  0  0  0  0  0  0
  156.7250  211.4510  154.2080 O   0  0  0  0  0  1  0  0  0  0  0  0
  157.4430  211.4990  155.4070 C   0  0  0  0  0  0  0  0  0  0  0  0
  158.4200  210.4810  155.4140 O   0  0  0  0  0  0  0  0  0  0  0  0
  159.8900  210.1750  157.2600 C   0  0  0  0  0  1  0  0  0  0  0  0
  158.5700  213.4500  154.2590 C   0  0  0  0  0  1  0  0  0  0  0  0
  1 20  1  0  0  0  0
  2  4  2  0  0  0  0
  3  2  1  0  0  0  0
  4  1  1  0  0  0  0
  5  2  1  0  0  0  0
  6 14  1  6  0  0  0
  6  5  1  0  0  0  0
  6  7  1  0  0  0  0
  7 13  1  0  0  0  0
 11 12  1  0  0  0  0
 12 10  2  0  0  0  0
 12  9  1  0  0  0  0
 13  8  2  0  0  0  0
 13 11  1  0  0  0  0
 15 14  1  0  0  0  0
 16 15  2  0  0  0  0
 17 15  1  0  0  0  0
 18 17  1  0  0  0  0
 20 19  2  0  0  0  0
 20 22  1  0  0  0  0
 21 24  1  0  0  0  0
 22 23  2  0  0  0  0
 23 21  2  0  0  0  0
 24 25  1  1  0  0  0
 24 30  1  0  0  0  0
 26 35  1  6  0  0  0
 26 27  1  0  0  0  0
 27 29  1  6  0  0  0
 30 27  1  0  0  0  0
 30 34  1  1  0  0  0
 31 32  1  0  0  0  0
 32 33  1  0  0  0  0
 32 26  1  0  0  0  0
 32 28  1  0  0  0  0
 33 30  1  0  0  0  0
M  END
>  <MODEL>
1

>  <REMARK>
 VINA RESULT:      -7.0      0.000      0.000
  Name = 
  11 active torsions:
  status: ('A' for Active; 'I' for Inactive)
    1  A    between atoms: N_1  and  C_22
    2  A    between atoms: N_1  and  C_30
    3  A    between atoms: N_2  and  C_12
    4  A    between atoms: C_5  and  C_8
    5  A    between atoms: C_8  and  C_14
    6  A    between atoms: C_10  and  C_28
    7  A    between atoms: C_12  and  C_28
    8  A    between atoms: C_12  and  C_29
    9  A    between atoms: O_13  and  C_27
   10  A    between atoms: C_25  and  C_30
   11  A    between atoms: C_27  and  C_29
                            x       y       z     vdW  Elec       q    Type
                         _______ _______ _______ _____ _____    ______ ____

>  <TORSDO>
F 11

$$$$
=
 OpenBabel11072411283D

 35 35  0  0  1  0  0  0  0  0999 V2000
  162.4000  207.9610  150.4690 N   0  0  0  0  0  2  0  0  0  0  0  0
  161.8330  206.6950  148.4660 C   0  0  0  0  0  0  0  0  0  0  0  0
  162.6780  207.5060  147.6520 N   0  0  0  0  0  1  0  0  0  0  0  0
  161.7540  206.8780  149.7850 C   0  0  0  0  0  3  0  0  0  0  0  0
  161.0400  205.6010  147.8360 C   0  0  0  0  0  2  0  0  0  0  0  0
  161.8950  204.3490  147.6690 C   0  0  1  0  0  3  0  0  0  0  0  0
  161.2010  203.1770  148.1980 N   0  0  0  0  0  2  0  0  0  0  0  0
  160.2730  201.9250  149.9180 O   0  0  0  0  0  0  0  0  0  0  0  0
  161.3750  205.0200  152.8380 C   0  0  0  0  0  1  0  0  0  0  0  0
  160.3750  202.8670  152.4820 N   0  0  0  0  0  2  0  0  0  0  0  0
  161.2170  203.9720  150.5540 N   0  0  0  0  0  2  0  0  0  0  0  0
  160.9570  203.8970  151.9600 C   0  0  0  0  0  0  0  0  0  0  0  0
  160.8710  202.9790  149.5780 C   0  0  0  0  0  0  0  0  0  0  0  0
  162.2980  204.1370  146.2120 C   0  0  0  0  0  2  0  0  0  0  0  0
  161.1280  203.6880  145.4090 C   0  0  0  0  0  0  0  0  0  0  0  0
  160.3580  204.5450  144.8960 O   0  0  0  0  0  0  0  0  0  0  0  0
  160.8810  202.3230  145.2600 O   0  0  0  0  0  0  0  0  0  0  0  0
  159.6720  201.8380  144.6950 C   0  0  0  0  0  1  0  0  0  0  0  0
  162.0360  210.2350  149.8960 C   0  0  0  0  0  2  0  0  0  0  0  0
  161.7960  209.2330  150.7360 C   0  0  0  0  0  0  0  0  0  0  0  0
  160.0740  211.7610  152.7210 C   0  0  0  0  0  3  0  0  0  0  0  0
  161.0510  209.4520  151.9930 C   0  0  0  0  0  3  0  0  0  0  0  0
  160.5660  210.6110  152.3540 C   0  0  0  0  0  0  0  0  0  0  0  0
  158.9990  211.8390  153.7620 C   0  0  2  0  0  3  0  0  0  0  0  0
  157.7210  213.0440  153.2380 S   0  0  0  0  0  1  0  0  0  0  0  0
  160.0120  210.1480  156.4600 C   0  0  2  0  0  3  0  0  0  0  0  0
  158.9820  211.2250  156.2620 C   0  0  2  0  0  3  0  0  0  0  0  0
  161.7760  211.5240  157.2610 O   0  0  0  0  0  1  0  0  0  0  0  0
  157.7110  210.7150  155.9700 O   0  0  0  0  0  1  0  0  0  0  0  0
  159.5770  212.1260  155.1750 C   0  0  1  0  0  0  0  0  0  0  0  0
  162.2680  210.0530  155.6040 O   0  0  0  0  0  1  0  0  0  0  0  0
  161.2830  210.9070  156.1100 C   0  0  0  0  0  0  0  0  0  0  0  0
  160.9760  211.8960  155.1510 O   0  0  0  0  0  0  0  0  0  0  0  0
  159.3460  213.5780  155.5720 C   0  0  0  0  0  1  0  0  0  0  0  0
  159.7770  208.9640  155.5190 C   0  0  0  0  0  1  0  0  0  0  0  0
  1 20  1  0  0  0  0
  2  4  2  0  0  0  0
  3  2  1  0  0  0  0
  4  1  1  0  0  0  0
  5  2  1  0  0  0  0
  6 14  1  6  0  0  0
  6  5  1  0  0  0  0
  6  7  1  0  0  0  0
  7 13  1  0  0  0  0
 11 12  1  0  0  0  0
 12 10  2  0  0  0  0
 12  9  1  0  0  0  0
 13  8  2  0  0  0  0
 13 11  1  0  0  0  0
 15 14  1  0  0  0  0
 16 15  2  0  0  0  0
 17 15  1  0  0  0  0
 18 17  1  0  0  0  0
 19 20  2  0  0  0  0
 20 22  1  0  0  0  0
 21 24  1  0  0  0  0
 22 23  2  0  0  0  0
 23 21  2  0  0  0  0
 24 25  1  6  0  0  0
 24 30  1  0  0  0  0
 26 35  1  6  0  0  0
 27 29  1  6  0  0  0
 27 26  1  0  0  0  0
 30 34  1  1  0  0  0
 30 27  1  0  0  0  0
 31 32  1  0  0  0  0
 32 26  1  0  0  0  0
 32 28  1  0  0  0  0
 33 30  1  0  0  0  0
 33 32  1  0  0  0  0
M  END
>  <MODEL>
2

>  <REMARK>
 VINA RESULT:      -7.0      1.645      2.645
  Name = 
  11 active torsions:
  status: ('A' for Active; 'I' for Inactive)
    1  A    between atoms: N_1  and  C_22
    2  A    between atoms: N_1  and  C_30
    3  A    between atoms: N_2  and  C_12
    4  A    between atoms: C_5  and  C_8
    5  A    between atoms: C_8  and  C_14
    6  A    between atoms: C_10  and  C_28
    7  A    between atoms: C_12  and  C_28
    8  A    between atoms: C_12  and  C_29
    9  A    between atoms: O_13  and  C_27
   10  A    between atoms: C_25  and  C_30
   11  A    between atoms: C_27  and  C_29
                            x       y       z     vdW  Elec       q    Type
                         _______ _______ _______ _____ _____    ______ ____

>  <TORSDO>
F 11

$$$$
=
 OpenBabel11072411283D

 35 35  0  0  1  0  0  0  0  0999 V2000
  160.0830  207.5410  154.6680 N   0  0  0  0  0  2  0  0  0  0  0  0
  161.5150  206.4240  153.0430 C   0  0  0  0  0  0  0  0  0  0  0  0
  161.0320  205.1370  153.4240 N   0  0  0  0  0  1  0  0  0  0  0  0
  161.0260  207.5400  153.5870 C   0  0  0  0  0  3  0  0  0  0  0  0
  162.5700  206.5290  151.9950 C   0  0  0  0  0  2  0  0  0  0  0  0
  161.9760  206.2820  150.6120 C   0  0  1  0  0  3  0  0  0  0  0  0
  161.2420  205.0200  150.5830 N   0  0  0  0  0  2  0  0  0  0  0  0
  160.4580  203.1070  149.5280 O   0  0  0  0  0  0  0  0  0  0  0  0
  162.4120  204.3110  145.7780 C   0  0  0  0  0  1  0  0  0  0  0  0
  161.0340  202.6890  146.8880 N   0  0  0  0  0  2  0  0  0  0  0  0
  161.7480  204.5400  148.1960 N   0  0  0  0  0  2  0  0  0  0  0  0
  161.6970  203.7950  146.9740 C   0  0  0  0  0  0  0  0  0  0  0  0
  161.1200  204.1740  149.4330 C   0  0  0  0  0  0  0  0  0  0  0  0
  161.0900  207.4440  150.1690 C   0  0  0  0  0  2  0  0  0  0  0  0
  161.8540  208.3750  149.2940 C   0  0  0  0  0  0  0  0  0  0  0  0
  162.3280  207.9570  148.2030 O   0  0  0  0  0  0  0  0  0  0  0  0
  162.0590  209.6920  149.7070 O   0  0  0  0  0  0  0  0  0  0  0  0
  162.0360  210.0580  151.0780 C   0  0  0  0  0  1  0  0  0  0  0  0
  160.7310  207.4680  156.9490 C   0  0  0  0  0  2  0  0  0  0  0  0
  160.2860  208.1920  155.9270 C   0  0  0  0  0  0  0  0  0  0  0  0
  157.4770  210.4900  155.5630 C   0  0  0  0  0  3  0  0  0  0  0  0
  159.8690  209.5980  156.1120 C   0  0  0  0  0  3  0  0  0  0  0  0
  158.6710  210.0400  155.8330 C   0  0  0  0  0  0  0  0  0  0  0  0
  156.9950  211.7830  156.1450 C   0  0  2  0  0  3  0  0  0  0  0  0
  155.3580  211.5320  156.9320 S   0  0  0  0  0  1  0  0  0  0  0  0
  159.0710  214.1560  155.0390 C   0  0  2  0  0  3  0  0  0  0  0  0
  157.6850  214.2060  155.6200 C   0  0  2  0  0  3  0  0  0  0  0  0
  158.4720  214.2920  152.7440 O   0  0  0  0  0  1  0  0  0  0  0  0
  157.6830  214.3470  157.0130 O   0  0  0  0  0  1  0  0  0  0  0  0
  157.0090  212.9330  155.1010 C   0  0  1  0  0  0  0  0  0  0  0  0
  159.9360  212.6660  153.3460 O   0  0  0  0  0  1  0  0  0  0  0  0
  158.8100  213.3880  153.7520 C   0  0  0  0  0  0  0  0  0  0  0  0
  157.7300  212.5030  153.9580 O   0  0  0  0  0  0  0  0  0  0  0  0
  155.5940  213.2830  154.6610 C   0  0  0  0  0  1  0  0  0  0  0  0
  160.0400  213.4100  155.9610 C   0  0  0  0  0  1  0  0  0  0  0  0
  1 20  1  0  0  0  0
  2  3  1  0  0  0  0
  2  4  2  0  0  0  0
  4  1  1  0  0  0  0
  5  2  1  0  0  0  0
  6 14  1  1  0  0  0
  6  5  1  0  0  0  0
  7  6  1  0  0  0  0
  9 12  1  0  0  0  0
 10 12  2  0  0  0  0
 11 13  1  0  0  0  0
 12 11  1  0  0  0  0
 13  8  2  0  0  0  0
 13  7  1  0  0  0  0
 15 17  1  0  0  0  0
 15 14  1  0  0  0  0
 16 15  2  0  0  0  0
 17 18  1  0  0  0  0
 20 22  1  0  0  0  0
 20 19  2  0  0  0  0
 21 23  2  0  0  0  0
 21 24  1  0  0  0  0
 23 22  2  0  0  0  0
 24 25  1  6  0  0  0
 26 27  1  0  0  0  0
 26 35  1  1  0  0  0
 27 29  1  1  0  0  0
 28 32  1  0  0  0  0
 30 34  1  6  0  0  0
 30 27  1  0  0  0  0
 30 24  1  0  0  0  0
 31 32  1  0  0  0  0
 32 33  1  0  0  0  0
 32 26  1  0  0  0  0
 33 30  1  0  0  0  0
M  END
>  <MODEL>
3

>  <REMARK>
 VINA RESULT:      -6.3      2.700      4.855
  Name = 
  11 active torsions:
  status: ('A' for Active; 'I' for Inactive)
    1  A    between atoms: N_1  and  C_22
    2  A    between atoms: N_1  and  C_30
    3  A    between atoms: N_2  and  C_12
    4  A    between atoms: C_5  and  C_8
    5  A    between atoms: C_8  and  C_14
    6  A    between atoms: C_10  and  C_28
    7  A    between atoms: C_12  and  C_28
    8  A    between atoms: C_12  and  C_29
    9  A    between atoms: O_13  and  C_27
   10  A    between atoms: C_25  and  C_30
   11  A    between atoms: C_27  and  C_29
                            x       y       z     vdW  Elec       q    Type
                         _______ _______ _______ _____ _____    ______ ____

>  <TORSDO>
F 11

$$$$
=
 OpenBabel11072411283D

 35 35  0  0  1  0  0  0  0  0999 V2000
  161.9240  208.7780  148.6210 N   0  0  0  0  0  0  0  0  0  0  0  0
  161.6530  206.5100  147.7740 C   0  0  0  0  0  0  0  0  0  0  0  0
  160.6850  206.9280  146.8150 N   0  0  0  0  0  1  0  0  0  0  0  0
  162.2660  207.3860  148.5720 C   0  0  0  0  0  3  0  0  0  0  0  0
  162.0100  205.0650  147.8730 C   0  0  0  0  0  2  0  0  0  0  0  0
  160.9680  204.3110  148.6920 C   0  0  1  0  0  3  0  0  0  0  0  0
  161.4180  202.9500  148.9740 N   0  0  0  0  0  2  0  0  0  0  0  0
  161.7090  200.7140  148.4260 O   0  0  0  0  0  0  0  0  0  0  0  0
  159.8370  201.3760  144.5040 C   0  0  0  0  0  1  0  0  0  0  0  0
  160.8260  199.7900  146.0080 N   0  0  0  0  0  2  0  0  0  0  0  0
  160.6790  202.0310  146.7840 N   0  0  0  0  0  2  0  0  0  0  0  0
  160.4760  201.0150  145.7960 C   0  0  0  0  0  0  0  0  0  0  0  0
  161.2850  201.8460  148.0720 C   0  0  0  0  0  0  0  0  0  0  0  0
  160.6260  205.0550  149.9810 C   0  0  0  0  0  2  0  0  0  0  0  0
  161.5870  204.6930  151.0600 C   0  0  0  0  0  0  0  0  0  0  0  0
  162.4780  205.5160  151.4010 O   0  0  0  0  0  0  0  0  0  0  0  0
  161.5050  203.4350  151.6580 O   0  0  0  0  0  0  0  0  0  0  0  0
  160.5670  203.1550  152.6850 C   0  0  0  0  0  1  0  0  0  0  0  0
  161.7970  210.9000  149.6750 C   0  0  0  0  0  1  0  0  0  0  0  0
  161.9670  209.5880  149.8020 C   0  0  0  0  0  0  0  0  0  0  0  0
  161.0810  209.4740  153.3380 C   0  0  0  0  0  3  0  0  0  0  0  0
  162.3360  208.9870  151.1010 C   0  0  0  0  0  3  0  0  0  0  0  0
  161.7060  209.2360  152.2180 C   0  0  0  0  0  0  0  0  0  0  0  0
  161.2230  208.5480  154.5070 C   0  0  2  0  0  3  0  0  0  0  0  0
  161.0280  206.8130  153.9460 S   0  0  0  0  0  1  0  0  0  0  0  0
  161.1720  210.5900  157.1510 C   0  0  2  0  0  3  0  0  0  0  0  0
  160.9970  209.1040  157.0100 C   0  0  2  0  0  3  0  0  0  0  0  0
  158.8740  211.1840  157.2610 O   0  0  0  0  0  1  0  0  0  0  0  0
  162.2030  208.4010  157.1180 O   0  0  0  0  0  1  0  0  0  0  0  0
  160.2700  208.9310  155.6730 C   0  0  1  0  0  0  0  0  0  0  0  0
  160.1860  212.3500  155.8230 O   0  0  0  0  0  1  0  0  0  0  0  0
  159.9570  211.0910  156.3850 C   0  0  0  0  0  0  0  0  0  0  0  0
  159.6470  210.1670  155.3640 O   0  0  0  0  0  0  0  0  0  0  0  0
  159.1790  207.8840  155.8480 C   0  0  0  0  0  1  0  0  0  0  0  0
  162.4820  211.0650  156.5150 C   0  0  0  0  0  1  0  0  0  0  0  0
  1 20  2  0  0  0  0
  2  5  1  0  0  0  0
  2  4  2  0  0  0  0
  3  2  1  0  0  0  0
  4  1  1  0  0  0  0
  6  5  1  1  0  0  0
  6  7  1  0  0  0  0
  6 14  1  0  0  0  0
  9 12  1  0  0  0  0
 11 13  1  0  0  0  0
 12 10  2  0  0  0  0
 12 11  1  0  0  0  0
 13  8  2  0  0  0  0
 13  7  1  0  0  0  0
 14 15  1  0  0  0  0
 15 16  2  0  0  0  0
 15 17  1  0  0  0  0
 17 18  1  0  0  0  0
 19 20  1  0  0  0  0
 20 22  1  0  0  0  0
 21 24  1  0  0  0  0
 22 23  2  0  0  0  0
 23 21  2  0  0  0  0
 24 25  1  6  0  0  0
 24 30  1  0  0  0  0
 26 35  1  6  0  0  0
 27 29  1  6  0  0  0
 27 26  1  0  0  0  0
 30 34  1  1  0  0  0
 30 27  1  0  0  0  0
 31 32  1  0  0  0  0
 32 26  1  0  0  0  0
 32 28  1  0  0  0  0
 33 30  1  0  0  0  0
 33 32  1  0  0  0  0
M  END
>  <MODEL>
4

>  <REMARK>
 VINA RESULT:      -6.1      2.338      4.263
  Name = 
  11 active torsions:
  status: ('A' for Active; 'I' for Inactive)
    1  A    between atoms: N_1  and  C_22
    2  A    between atoms: N_1  and  C_30
    3  A    between atoms: N_2  and  C_12
    4  A    between atoms: C_5  and  C_8
    5  A    between atoms: C_8  and  C_14
    6  A    between atoms: C_10  and  C_28
    7  A    between atoms: C_12  and  C_28
    8  A    between atoms: C_12  and  C_29
    9  A    between atoms: O_13  and  C_27
   10  A    between atoms: C_25  and  C_30
   11  A    between atoms: C_27  and  C_29
                            x       y       z     vdW  Elec       q    Type
                         _______ _______ _______ _____ _____    ______ ____

>  <TORSDO>
F 11

$$$$
=
 OpenBabel11072411283D

 35 35  0  0  1  0  0  0  0  0999 V2000
  162.2390  208.6540  150.8170 N   0  0  0  0  0  2  0  0  0  0  0  0
  161.5090  206.3480  151.1070 C   0  0  0  0  0  0  0  0  0  0  0  0
  162.6710  206.0210  151.8650 N   0  0  0  0  0  1  0  0  0  0  0  0
  161.2890  207.5900  150.6720 C   0  0  0  0  0  3  0  0  0  0  0  0
  160.5030  205.2870  150.8150 C   0  0  0  0  0  2  0  0  0  0  0  0
  160.7890  204.6340  149.4670 C   0  0  1  0  0  3  0  0  0  0  0  0
  161.5810  205.5240  148.6200 N   0  0  0  0  0  2  0  0  0  0  0  0
  162.3570  206.2740  146.5660 O   0  0  0  0  0  0  0  0  0  0  0  0
  159.9970  203.1990  144.4920 C   0  0  0  0  0  1  0  0  0  0  0  0
  161.5550  205.0130  144.2760 N   0  0  0  0  0  2  0  0  0  0  0  0
  160.8760  204.4600  146.4860 N   0  0  0  0  0  2  0  0  0  0  0  0
  160.8480  204.2740  145.0660 C   0  0  0  0  0  0  0  0  0  0  0  0
  161.6350  205.4530  147.1910 C   0  0  0  0  0  0  0  0  0  0  0  0
  161.4760  203.2810  149.6360 C   0  0  0  0  0  2  0  0  0  0  0  0
  160.5180  202.1750  149.3610 C   0  0  0  0  0  0  0  0  0  0  0  0
  159.7940  201.7320  150.2930 O   0  0  0  0  0  0  0  0  0  0  0  0
  160.4570  201.6220  148.0810 O   0  0  0  0  0  0  0  0  0  0  0  0
  161.3950  200.6520  147.6400 C   0  0  0  0  0  1  0  0  0  0  0  0
  162.2480  210.7340  149.6750 C   0  0  0  0  0  2  0  0  0  0  0  0
  161.9160  210.0490  150.7650 C   0  0  0  0  0  0  0  0  0  0  0  0
  161.6860  209.8730  154.4000 C   0  0  0  0  0  3  0  0  0  0  0  0
  161.3620  210.7280  151.9550 C   0  0  0  0  0  3  0  0  0  0  0  0
  161.5250  210.2950  153.1770 C   0  0  0  0  0  0  0  0  0  0  0  0
  161.4720  210.7940  155.5630 C   0  0  2  0  0  3  0  0  0  0  0  0
  162.8120  210.5560  156.7910 S   0  0  0  0  0  1  0  0  0  0  0  0
  158.6130  212.5170  155.7100 C   0  0  2  0  0  3  0  0  0  0  0  0
  159.5170  211.9530  156.7710 C   0  0  2  0  0  3  0  0  0  0  0  0
  156.9970  210.7750  155.6950 O   0  0  0  0  0  1  0  0  0  0  0  0
  160.5060  212.8560  157.1790 O   0  0  0  0  0  1  0  0  0  0  0  0
  160.0480  210.6500  156.1650 C   0  0  1  0  0  0  0  0  0  0  0  0
  157.8210  211.4520  153.6920 O   0  0  0  0  0  1  0  0  0  0  0  0
  158.1370  211.2380  155.0370 C   0  0  0  0  0  0  0  0  0  0  0  0
  159.1530  210.2640  155.1350 O   0  0  0  0  0  0  0  0  0  0  0  0
  160.0200  209.5710  157.2400 C   0  0  0  0  0  1  0  0  0  0  0  0
  159.3790  213.4210  154.7400 C   0  0  0  0  0  1  0  0  0  0  0  0
  2  3  1  0  0  0  0
  4  1  1  0  0  0  0
  4  2  2  0  0  0  0
  5  2  1  0  0  0  0
  6 14  1  1  0  0  0
  6  5  1  0  0  0  0
  7  6  1  0  0  0  0
  8 13  2  0  0  0  0
  9 12  1  0  0  0  0
 10 12  2  0  0  0  0
 11 13  1  0  0  0  0
 12 11  1  0  0  0  0
 13  7  1  0  0  0  0
 15 14  1  0  0  0  0
 15 16  2  0  0  0  0
 17 15  1  0  0  0  0
 18 17  1  0  0  0  0
 19 20  2  0  0  0  0
 20  1  1  0  0  0  0
 20 22  1  0  0  0  0
 21 24  1  0  0  0  0
 22 23  2  0  0  0  0
 23 21  2  0  0  0  0
 24 30  1  0  0  0  0
 24 25  1  1  0  0  0
 26 35  1  6  0  0  0
 26 27  1  0  0  0  0
 27 29  1  6  0  0  0
 30 27  1  0  0  0  0
 30 34  1  1  0  0  0
 31 32  1  0  0  0  0
 32 33  1  0  0  0  0
 32 28  1  0  0  0  0
 32 26  1  0  0  0  0
 33 30  1  0  0  0  0
M  END
>  <MODEL>
5

>  <REMARK>
 VINA RESULT:      -6.0      1.652      3.625
  Name = 
  11 active torsions:
  status: ('A' for Active; 'I' for Inactive)
    1  A    between atoms: N_1  and  C_22
    2  A    between atoms: N_1  and  C_30
    3  A    between atoms: N_2  and  C_12
    4  A    between atoms: C_5  and  C_8
    5  A    between atoms: C_8  and  C_14
    6  A    between atoms: C_10  and  C_28
    7  A    between atoms: C_12  and  C_28
    8  A    between atoms: C_12  and  C_29
    9  A    between atoms: O_13  and  C_27
   10  A    between atoms: C_25  and  C_30
   11  A    between atoms: C_27  and  C_29
                            x       y       z     vdW  Elec       q    Type
                         _______ _______ _______ _____ _____    ______ ____

>  <TORSDO>
F 11

$$$$
=
 OpenBabel11072411283D

 35 35  0  0  1  0  0  0  0  0999 V2000
  162.4600  206.5840  151.5080 N   0  0  0  0  0  2  0  0  0  0  0  0
  161.9790  208.8510  150.7570 C   0  0  0  0  0  0  0  0  0  0  0  0
  161.6540  208.4030  149.4430 N   0  0  0  0  0  1  0  0  0  0  0  0
  162.2980  207.9920  151.7260 C   0  0  0  0  0  3  0  0  0  0  0  0
  161.9380  210.3100  151.0640 C   0  0  0  0  0  2  0  0  0  0  0  0
  161.0920  210.5710  152.3060 C   0  0  1  0  0  3  0  0  0  0  0  0
  161.9420  210.8540  153.4600 N   0  0  0  0  0  2  0  0  0  0  0  0
  162.6550  210.4990  155.6400 O   0  0  0  0  0  0  0  0  0  0  0  0
  159.7000  207.2830  156.1390 C   0  0  0  0  0  1  0  0  0  0  0  0
  161.4360  208.5850  157.1650 N   0  0  0  0  0  2  0  0  0  0  0  0
  160.9160  209.1110  154.9070 N   0  0  0  0  0  2  0  0  0  0  0  0
  160.7310  208.3520  156.1070 C   0  0  0  0  0  0  0  0  0  0  0  0
  161.8690  210.1660  154.7140 C   0  0  0  0  0  0  0  0  0  0  0  0
  160.0890  211.6990  152.0720 C   0  0  0  0  0  2  0  0  0  0  0  0
  159.2220  211.8790  153.2690 C   0  0  0  0  0  0  0  0  0  0  0  0
  158.3560  211.0060  153.5480 O   0  0  0  0  0  0  0  0  0  0  0  0
  159.3590  213.0290  154.0480 O   0  0  0  0  0  0  0  0  0  0  0  0
  158.2780  213.5510  154.8060 C   0  0  0  0  0  1  0  0  0  0  0  0
  161.5540  205.6730  153.5020 C   0  0  0  0  0  2  0  0  0  0  0  0
  161.7220  205.5620  152.1880 C   0  0  0  0  0  0  0  0  0  0  0  0
  160.3920  204.3630  149.0110 C   0  0  0  0  0  3  0  0  0  0  0  0
  161.2890  204.3490  151.4630 C   0  0  0  0  0  3  0  0  0  0  0  0
  160.8390  204.3610  150.2370 C   0  0  0  0  0  0  0  0  0  0  0  0
  160.3670  203.1010  148.2030 C   0  0  2  0  0  3  0  0  0  0  0  0
  160.0840  201.6670  149.3100 S   0  0  0  0  0  1  0  0  0  0  0  0
  161.4800  204.1260  145.2240 C   0  0  2  0  0  3  0  0  0  0  0  0
  161.3000  202.7610  145.8290 C   0  0  2  0  0  3  0  0  0  0  0  0
  163.8090  204.3630  145.6320 O   0  0  0  0  0  1  0  0  0  0  0  0
  160.0360  202.2160  145.5760 O   0  0  0  0  0  1  0  0  0  0  0  0
  161.6310  202.9560  147.3120 C   0  0  1  0  0  0  0  0  0  0  0  0
  162.4630  206.0920  146.2230 O   0  0  0  0  0  1  0  0  0  0  0  0
  162.5520  204.7000  146.1380 C   0  0  0  0  0  0  0  0  0  0  0  0
  162.4060  204.1370  147.4240 O   0  0  0  0  0  0  0  0  0  0  0  0
  162.4880  201.7840  147.7740 C   0  0  0  0  0  1  0  0  0  0  0  0
  160.1850  204.9410  145.2810 C   0  0  0  0  0  1  0  0  0  0  0  0
  1  4  1  0  0  0  0
  1 20  1  0  0  0  0
  2  5  1  0  0  0  0
  2  4  2  0  0  0  0
  3  2  1  0  0  0  0
  6  5  1  6  0  0  0
  6  7  1  0  0  0  0
  7 13  1  0  0  0  0
 11 12  1  0  0  0  0
 12  9  1  0  0  0  0
 12 10  2  0  0  0  0
 13 11  1  0  0  0  0
 13  8  2  0  0  0  0
 14  6  1  0  0  0  0
 14 15  1  0  0  0  0
 15 16  2  0  0  0  0
 15 17  1  0  0  0  0
 17 18  1  0  0  0  0
 20 19  2  0  0  0  0
 21 23  2  0  0  0  0
 22 20  1  0  0  0  0
 23 22  2  0  0  0  0
 24 21  1  0  0  0  0
 24 25  1  1  0  0  0
 26 35  1  1  0  0  0
 26 27  1  0  0  0  0
 26 32  1  0  0  0  0
 27 29  1  1  0  0  0
 27 30  1  0  0  0  0
 28 32  1  0  0  0  0
 30 33  1  0  0  0  0
 30 34  1  1  0  0  0
 30 24  1  0  0  0  0
 32 31  1  0  0  0  0
 32 33  1  0  0  0  0
M  END
>  <MODEL>
6

>  <REMARK>
 VINA RESULT:      -5.7      3.156      9.919
  Name = 
  11 active torsions:
  status: ('A' for Active; 'I' for Inactive)
    1  A    between atoms: N_1  and  C_22
    2  A    between atoms: N_1  and  C_30
    3  A    between atoms: N_2  and  C_12
    4  A    between atoms: C_5  and  C_8
    5  A    between atoms: C_8  and  C_14
    6  A    between atoms: C_10  and  C_28
    7  A    between atoms: C_12  and  C_28
    8  A    between atoms: C_12  and  C_29
    9  A    between atoms: O_13  and  C_27
   10  A    between atoms: C_25  and  C_30
   11  A    between atoms: C_27  and  C_29
                            x       y       z     vdW  Elec       q    Type
                         _______ _______ _______ _____ _____    ______ ____

>  <TORSDO>
F 11

$$$$
=
 OpenBabel11072411283D

 35 35  0  0  1  0  0  0  0  0999 V2000
  160.9590  205.9940  153.5230 N   0  0  0  0  0  2  0  0  0  0  0  0
  160.6300  207.6060  155.3200 C   0  0  0  0  0  0  0  0  0  0  0  0
  159.4380  206.9560  155.7550 N   0  0  0  0  0  1  0  0  0  0  0  0
  161.3620  207.1180  154.3170 C   0  0  0  0  0  3  0  0  0  0  0  0
  161.0860  208.8430  156.0170 C   0  0  0  0  0  2  0  0  0  0  0  0
  160.6910  210.0820  155.2200 C   0  0  1  0  0  3  0  0  0  0  0  0
  160.3310  211.1780  156.1160 N   0  0  0  0  0  2  0  0  0  0  0  0
  158.8050  212.6020  157.1310 O   0  0  0  0  0  0  0  0  0  0  0  0
  155.4880  210.6460  155.0100 C   0  0  0  0  0  1  0  0  0  0  0  0
  156.1460  212.3820  156.5320 N   0  0  0  0  0  2  0  0  0  0  0  0
  157.8910  211.0260  155.6580 N   0  0  0  0  0  2  0  0  0  0  0  0
  156.5140  211.3980  155.7780 C   0  0  0  0  0  0  0  0  0  0  0  0
  158.9950  211.6450  156.3350 C   0  0  0  0  0  0  0  0  0  0  0  0
  161.7980  210.5010  154.2560 C   0  0  0  0  0  2  0  0  0  0  0  0
  161.3670  210.2880  152.8460 C   0  0  0  0  0  0  0  0  0  0  0  0
  160.1620  210.4780  152.5280 O   0  0  0  0  0  0  0  0  0  0  0  0
  162.2980  209.8520  151.9030 O   0  0  0  0  0  0  0  0  0  0  0  0
  161.9550  209.6840  150.5360 C   0  0  0  0  0  1  0  0  0  0  0  0
  162.7090  206.2090  151.9350 C   0  0  0  0  0  2  0  0  0  0  0  0
  161.6630  205.5150  152.3700 C   0  0  0  0  0  0  0  0  0  0  0  0
  160.4590  204.4700  149.0900 C   0  0  0  0  0  3  0  0  0  0  0  0
  161.1420  204.3610  151.6080 C   0  0  0  0  0  3  0  0  0  0  0  0
  160.7990  204.4210  150.3480 C   0  0  0  0  0  0  0  0  0  0  0  0
  160.3410  203.2160  148.2790 C   0  0  2  0  0  3  0  0  0  0  0  0
  159.9790  201.7990  149.3850 S   0  0  0  0  0  1  0  0  0  0  0  0
  161.4610  204.1370  145.2690 C   0  0  2  0  0  3  0  0  0  0  0  0
  161.2180  202.7930  145.8960 C   0  0  2  0  0  3  0  0  0  0  0  0
  163.8050  204.2560  145.6390 O   0  0  0  0  0  1  0  0  0  0  0  0
  159.9230  202.3120  145.6700 O   0  0  0  0  0  1  0  0  0  0  0  0
  161.5810  202.9900  147.3710 C   0  0  1  0  0  0  0  0  0  0  0  0
  162.5630  206.0630  146.2240 O   0  0  0  0  0  1  0  0  0  0  0  0
  162.5760  204.6660  146.1580 C   0  0  0  0  0  0  0  0  0  0  0  0
  162.4210  204.1300  147.4540 O   0  0  0  0  0  0  0  0  0  0  0  0
  162.3820  201.7810  147.8370 C   0  0  0  0  0  1  0  0  0  0  0  0
  160.2120  205.0220  145.3330 C   0  0  0  0  0  1  0  0  0  0  0  0
  1  4  1  0  0  0  0
  2  3  1  0  0  0  0
  2  5  1  0  0  0  0
  4  2  2  0  0  0  0
  6 14  1  1  0  0  0
  6  5  1  0  0  0  0
  6  7  1  0  0  0  0
  7 13  1  0  0  0  0
  9 12  1  0  0  0  0
 11 12  1  0  0  0  0
 11 13  1  0  0  0  0
 12 10  2  0  0  0  0
 13  8  2  0  0  0  0
 15 14  1  0  0  0  0
 16 15  2  0  0  0  0
 17 15  1  0  0  0  0
 18 17  1  0  0  0  0
 19 20  2  0  0  0  0
 20  1  1  0  0  0  0
 21 23  2  0  0  0  0
 22 20  1  0  0  0  0
 23 22  2  0  0  0  0
 24 21  1  0  0  0  0
 24 25  1  1  0  0  0
 26 35  1  1  0  0  0
 26 27  1  0  0  0  0
 26 32  1  0  0  0  0
 27 29  1  1  0  0  0
 27 30  1  0  0  0  0
 28 32  1  0  0  0  0
 30 33  1  0  0  0  0
 30 34  1  1  0  0  0
 30 24  1  0  0  0  0
 32 31  1  0  0  0  0
 32 33  1  0  0  0  0
M  END
>  <MODEL>
7

>  <REMARK>
 VINA RESULT:      -5.6      3.734     10.323
  Name = 
  11 active torsions:
  status: ('A' for Active; 'I' for Inactive)
    1  A    between atoms: N_1  and  C_22
    2  A    between atoms: N_1  and  C_30
    3  A    between atoms: N_2  and  C_12
    4  A    between atoms: C_5  and  C_8
    5  A    between atoms: C_8  and  C_14
    6  A    between atoms: C_10  and  C_28
    7  A    between atoms: C_12  and  C_28
    8  A    between atoms: C_12  and  C_29
    9  A    between atoms: O_13  and  C_27
   10  A    between atoms: C_25  and  C_30
   11  A    between atoms: C_27  and  C_29
                            x       y       z     vdW  Elec       q    Type
                         _______ _______ _______ _____ _____    ______ ____

>  <TORSDO>
F 11

$$$$
=
 OpenBabel11072411283D

 35 35  0  0  1  0  0  0  0  0999 V2000
  161.7030  207.3460  151.9090 N   0  0  0  0  0  2  0  0  0  0  0  0
  161.3520  209.7470  151.6880 C   0  0  0  0  0  0  0  0  0  0  0  0
  162.7080  209.9630  151.3050 N   0  0  0  0  0  1  0  0  0  0  0  0
  160.8790  208.5200  151.9120 C   0  0  0  0  0  3  0  0  0  0  0  0
  160.4330  210.9140  151.8170 C   0  0  0  0  0  2  0  0  0  0  0  0
  160.0960  211.1710  153.2820 C   0  0  1  0  0  3  0  0  0  0  0  0
  161.3060  211.1590  154.1000 N   0  0  0  0  0  2  0  0  0  0  0  0
  162.6590  210.2990  155.7780 O   0  0  0  0  0  0  0  0  0  0  0  0
  159.7060  207.1530  156.6190 C   0  0  0  0  0  1  0  0  0  0  0  0
  161.8150  208.1320  157.2160 N   0  0  0  0  0  2  0  0  0  0  0  0
  160.6350  209.1700  155.4330 N   0  0  0  0  0  2  0  0  0  0  0  0
  160.7780  208.1660  156.4450 C   0  0  0  0  0  0  0  0  0  0  0  0
  161.5790  210.2090  155.1360 C   0  0  0  0  0  0  0  0  0  0  0  0
  159.3270  212.4780  153.4570 C   0  0  0  0  0  2  0  0  0  0  0  0
  158.0090  212.2230  154.1010 C   0  0  0  0  0  0  0  0  0  0  0  0
  157.7480  211.0760  154.5520 O   0  0  0  0  0  0  0  0  0  0  0  0
  157.0670  213.2510  154.1680 O   0  0  0  0  0  0  0  0  0  0  0  0
  155.7100  213.0030  154.5010 C   0  0  0  0  0  1  0  0  0  0  0  0
  161.3880  205.8020  153.6830 C   0  0  0  0  0  2  0  0  0  0  0  0
  161.2910  206.0580  152.3820 C   0  0  0  0  0  0  0  0  0  0  0  0
  160.8150  205.3500  148.8360 C   0  0  0  0  0  3  0  0  0  0  0  0
  160.9090  205.0020  151.4220 C   0  0  0  0  0  3  0  0  0  0  0  0
  160.8610  205.1820  150.1290 C   0  0  0  0  0  0  0  0  0  0  0  0
  160.8320  204.1740  147.9090 C   0  0  2  0  0  3  0  0  0  0  0  0
  161.2200  202.6510  148.8530 S   0  0  0  0  0  1  0  0  0  0  0  0
  160.6970  204.1110  144.5710 C   0  0  2  0  0  3  0  0  0  0  0  0
  161.5580  203.3880  145.5680 C   0  0  2  0  0  3  0  0  0  0  0  0
  162.2340  205.8280  143.9910 O   0  0  0  0  0  1  0  0  0  0  0  0
  161.0100  202.1660  145.9760 O   0  0  0  0  0  1  0  0  0  0  0  0
  161.7730  204.4040  146.6940 C   0  0  1  0  0  0  0  0  0  0  0  0
  160.1150  206.4550  144.5110 O   0  0  0  0  0  1  0  0  0  0  0  0
  161.1370  205.5480  144.8080 C   0  0  0  0  0  0  0  0  0  0  0  0
  161.5190  205.6920  146.1590 O   0  0  0  0  0  0  0  0  0  0  0  0
  163.2340  204.3510  147.1210 C   0  0  0  0  0  1  0  0  0  0  0  0
  159.2070  203.9150  144.8680 C   0  0  0  0  0  1  0  0  0  0  0  0
  1  4  1  0  0  0  0
  1 20  1  0  0  0  0
  2  5  1  0  0  0  0
  2  4  2  0  0  0  0
  3  2  1  0  0  0  0
  6  5  1  6  0  0  0
  6 14  1  0  0  0  0
  6  7  1  0  0  0  0
  7 13  1  0  0  0  0
 11 12  1  0  0  0  0
 12  9  1  0  0  0  0
 12 10  2  0  0  0  0
 13 11  1  0  0  0  0
 13  8  2  0  0  0  0
 14 15  1  0  0  0  0
 15 17  1  0  0  0  0
 15 16  2  0  0  0  0
 17 18  1  0  0  0  0
 20 19  2  0  0  0  0
 21 23  2  0  0  0  0
 22 20  1  0  0  0  0
 23 22  2  0  0  0  0
 24 21  1  0  0  0  0
 24 25  1  1  0  0  0
 26 32  1  0  0  0  0
 26 35  1  1  0  0  0
 26 27  1  0  0  0  0
 27 29  1  1  0  0  0
 27 30  1  0  0  0  0
 28 32  1  0  0  0  0
 30 34  1  1  0  0  0
 30 24  1  0  0  0  0
 31 32  1  0  0  0  0
 32 33  1  0  0  0  0
 33 30  1  0  0  0  0
M  END
>  <MODEL>
8

>  <REMARK>
 VINA RESULT:      -5.4      3.071     10.111
  Name = 
  11 active torsions:
  status: ('A' for Active; 'I' for Inactive)
    1  A    between atoms: N_1  and  C_22
    2  A    between atoms: N_1  and  C_30
    3  A    between atoms: N_2  and  C_12
    4  A    between atoms: C_5  and  C_8
    5  A    between atoms: C_8  and  C_14
    6  A    between atoms: C_10  and  C_28
    7  A    between atoms: C_12  and  C_28
    8  A    between atoms: C_12  and  C_29
    9  A    between atoms: O_13  and  C_27
   10  A    between atoms: C_25  and  C_30
   11  A    between atoms: C_27  and  C_29
                            x       y       z     vdW  Elec       q    Type
                         _______ _______ _______ _____ _____    ______ ____

>  <TORSDO>
F 11

$$$$
=
 OpenBabel11072411283D

 35 35  0  0  1  0  0  0  0  0999 V2000
  161.5130  208.1700  152.1140 N   0  0  0  0  0  2  0  0  0  0  0  0
  160.4270  210.2220  152.8540 C   0  0  0  0  0  0  0  0  0  0  0  0
  161.4930  210.5240  153.7520 N   0  0  0  0  0  1  0  0  0  0  0  0
  160.4720  209.1550  152.0550 C   0  0  0  0  0  3  0  0  0  0  0  0
  159.2480  211.1320  152.7860 C   0  0  0  0  0  2  0  0  0  0  0  0
  159.6740  212.5780  153.0180 C   0  0  1  0  0  3  0  0  0  0  0  0
  159.0890  213.4560  152.0070 N   0  0  0  0  0  2  0  0  0  0  0  0
  158.9590  214.3490  149.8690 O   0  0  0  0  0  0  0  0  0  0  0  0
  162.3320  211.8510  148.5630 C   0  0  0  0  0  1  0  0  0  0  0  0
  160.7350  213.5370  147.9560 N   0  0  0  0  0  2  0  0  0  0  0  0
  160.6390  212.7490  150.1960 N   0  0  0  0  0  2  0  0  0  0  0  0
  161.1950  212.7550  148.8760 C   0  0  0  0  0  0  0  0  0  0  0  0
  159.5410  213.5530  150.6520 C   0  0  0  0  0  0  0  0  0  0  0  0
  159.3170  213.0460  154.4260 C   0  0  0  0  0  2  0  0  0  0  0  0
  158.0280  212.4420  154.8640 C   0  0  0  0  0  0  0  0  0  0  0  0
  156.9410  212.9310  154.4540 O   0  0  0  0  0  0  0  0  0  0  0  0
  158.0420  211.3610  155.7460 O   0  0  0  0  0  0  0  0  0  0  0  0
  159.1860  211.0460  156.5260 C   0  0  0  0  0  1  0  0  0  0  0  0
  161.5860  206.5750  153.8690 C   0  0  0  0  0  2  0  0  0  0  0  0
  161.3410  206.8290  152.5870 C   0  0  0  0  0  0  0  0  0  0  0  0
  160.4480  206.1220  149.1230 C   0  0  0  0  0  3  0  0  0  0  0  0
  161.0420  205.7380  151.6360 C   0  0  0  0  0  3  0  0  0  0  0  0
  160.7430  205.9350  150.3790 C   0  0  0  0  0  0  0  0  0  0  0  0
  160.5650  205.0030  148.1340 C   0  0  2  0  0  3  0  0  0  0  0  0
  161.2070  203.5040  148.9730 S   0  0  0  0  0  1  0  0  0  0  0  0
  161.6750  203.6460  145.2890 C   0  0  2  0  0  3  0  0  0  0  0  0
  162.3740  204.3300  146.4310 C   0  0  2  0  0  3  0  0  0  0  0  0
  161.5830  205.4960  143.8020 O   0  0  0  0  0  1  0  0  0  0  0  0
  162.7730  203.4410  147.4360 O   0  0  0  0  0  1  0  0  0  0  0  0
  161.3910  205.4140  146.8840 C   0  0  1  0  0  0  0  0  0  0  0  0
  159.6660  204.3280  144.1340 O   0  0  0  0  0  1  0  0  0  0  0  0
  160.8340  204.7910  144.7460 C   0  0  0  0  0  0  0  0  0  0  0  0
  160.5000  205.6580  145.8080 O   0  0  0  0  0  0  0  0  0  0  0  0
  162.1720  206.6950  147.1470 C   0  0  0  0  0  1  0  0  0  0  0  0
  160.8050  202.4830  145.7770 C   0  0  0  0  0  1  0  0  0  0  0  0
  1 20  1  0  0  0  0
  2  3  1  0  0  0  0
  4  1  1  0  0  0  0
  4  2  2  0  0  0  0
  5  2  1  0  0  0  0
  6  5  1  6  0  0  0
  6 14  1  0  0  0  0
  7  6  1  0  0  0  0
  8 13  2  0  0  0  0
  9 12  1  0  0  0  0
 10 12  2  0  0  0  0
 11 13  1  0  0  0  0
 12 11  1  0  0  0  0
 13  7  1  0  0  0  0
 14 15  1  0  0  0  0
 15 17  1  0  0  0  0
 16 15  2  0  0  0  0
 17 18  1  0  0  0  0
 20 19  2  0  0  0  0
 21 23  2  0  0  0  0
 22 20  1  0  0  0  0
 23 22  2  0  0  0  0
 24 25  1  1  0  0  0
 24 21  1  0  0  0  0
 26 35  1  1  0  0  0
 26 27  1  0  0  0  0
 27 30  1  0  0  0  0
 27 29  1  1  0  0  0
 28 32  1  0  0  0  0
 30 34  1  1  0  0  0
 30 24  1  0  0  0  0
 31 32  1  0  0  0  0
 32 26  1  0  0  0  0
 32 33  1  0  0  0  0
 33 30  1  0  0  0  0
M  END
>  <MODEL>
9

>  <REMARK>
 VINA RESULT:      -5.3      3.132     10.580
  Name = 
  11 active torsions:
  status: ('A' for Active; 'I' for Inactive)
    1  A    between atoms: N_1  and  C_22
    2  A    between atoms: N_1  and  C_30
    3  A    between atoms: N_2  and  C_12
    4  A    between atoms: C_5  and  C_8
    5  A    between atoms: C_8  and  C_14
    6  A    between atoms: C_10  and  C_28
    7  A    between atoms: C_12  and  C_28
    8  A    between atoms: C_12  and  C_29
    9  A    between atoms: O_13  and  C_27
   10  A    between atoms: C_25  and  C_30
   11  A    between atoms: C_27  and  C_29
                            x       y       z     vdW  Elec       q    Type
                         _______ _______ _______ _____ _____    ______ ____

>  <TORSDO>
F 11

$$$$
