=
 OpenBabel11072415223D

 63 69  0  0  1  0  0  0  0  0999 V2000
  163.3600  210.5640  150.5060 O   0  0  0  0  0  0  0  0  0  0  0  0
  162.2220  211.0850  150.3290 C   0  0  0  0  0  0  0  0  0  0  0  0
  162.7370  213.8130  147.6400 C   0  0  0  0  0  2  0  0  0  0  0  0
  164.2500  212.5160  148.9260 O   0  0  0  0  0  0  0  0  0  0  0  0
  160.7420  211.7110  148.3990 C   0  0  2  0  0  3  0  0  0  0  0  0
  159.1980  212.7960  146.8850 O   0  0  0  0  0  1  0  0  0  0  0  0
  160.0190  213.9780  148.6230 O   0  0  0  0  0  1  0  0  0  0  0  0
  161.4900  213.5470  146.7860 C   0  0  2  0  0  3  0  0  0  0  0  0
  163.0520  212.6850  148.5760 C   0  0  0  0  0  0  0  0  0  0  0  0
  161.1970  210.9140  151.3350 N   0  0  0  0  0  0  0  0  0  0  0  0
  160.3350  213.0120  147.6640 C   0  0  0  0  0  0  0  0  0  0  0  0
  161.9940  211.8820  149.1460 N   0  0  0  0  0  0  0  0  0  0  0  0
  162.8640  213.4550  142.0740 C   0  0  0  0  0  0  0  0  0  0  0  0
  163.8360  214.1960  142.0440 O   0  0  0  0  0  0  0  0  0  0  0  0
  160.4440  214.4530  143.4600 C   0  0  0  0  0  1  0  0  0  0  0  0
  160.2320  212.2510  142.3690 C   0  0  0  0  0  0  0  0  0  0  0  0
  162.0920  213.1280  140.8180 C   0  0  0  0  0  2  0  0  0  0  0  0
  160.9020  212.9910  143.5010 C   0  0  1  0  0  0  0  0  0  0  0  0
  159.1010  211.8220  142.5270 O   0  0  0  0  0  0  0  0  0  0  0  0
  162.3850  212.8360  143.3420 C   0  0  2  0  0  3  0  0  0  0  0  0
  160.9580  212.0730  141.0260 C   0  0  1  0  0  0  0  0  0  0  0  0
  161.7950  212.6670  145.5570 C   0  0  2  0  0  3  0  0  0  0  0  0
  162.9030  213.2480  144.6690 C   0  0  0  0  0  2  0  0  0  0  0  0
  161.6250  210.6990  141.0220 C   0  0  0  0  0  1  0  0  0  0  0  0
  160.6200  212.4610  144.7740 O   0  0  0  0  0  0  0  0  0  0  0  0
  158.2730  213.5060  138.7820 C   0  0  0  0  0  3  0  0  0  0  0  0
  159.8680  211.1810  138.9780 C   0  0  0  0  0  3  0  0  0  0  0  0
  159.9780  212.1770  139.8670 C   0  0  0  0  0  0  0  0  0  0  0  0
  158.2180  212.5860  137.5900 C   0  0  1  0  0  3  0  0  0  0  0  0
  158.7970  210.3150  137.0670 O   0  0  0  0  0  0  0  0  0  0  0  0
  159.0900  213.3080  139.7760 N   0  0  0  0  0  0  0  0  0  0  0  0
  158.9280  211.2860  137.8570 C   0  0  0  0  0  0  0  0  0  0  0  0
  156.7710  212.3560  137.1710 C   0  0  0  0  0  2  0  0  0  0  0  0
  156.1210  211.3610  138.0690 C   0  0  0  0  0  0  0  0  0  0  0  0
  155.6680  210.1200  137.5290 N   0  0  0  0  0  2  0  0  0  0  0  0
  155.9470  211.6380  139.2860 O   0  0  0  0  0  0  0  0  0  0  0  0
  154.4280  207.5890  137.5300 O   0  0  0  0  0  0  0  0  0  0  0  0
  154.7810  208.9430  138.4800 P   0  0  0  0  0  0  0  0  0  0  0  0
  155.7130  208.4730  139.8080 O   0  0  0  0  0  1  0  0  0  0  0  0
  153.4910  209.5640  138.9660 O   0  0  0  0  0  1  0  0  0  0  0  0
  161.9420  210.7340  153.6230 C   0  0  0  0  0  2  0  0  0  0  0  0
  161.4010  208.6530  152.5040 C   0  0  0  0  0  1  0  0  0  0  0  0
  161.4730  210.1440  152.5270 C   0  0  0  0  0  0  0  0  0  0  0  0
  159.9710  211.7200  151.2600 C   0  0  0  0  0  2  0  0  0  0  0  0
  156.3490  214.2380  153.5740 N   0  0  0  0  0  0  0  0  0  0  0  0
  158.3090  211.3600  153.1130 C   0  0  0  0  0  2  0  0  0  0  0  0
  155.8820  214.4500  152.3910 C   0  0  0  0  0  3  0  0  0  0  0  0
  159.5030  212.1850  152.6450 C   0  0  2  0  0  3  0  0  0  0  0  0
  158.1000  212.7810  152.6380 C   0  0  2  0  0  0  0  0  0  0  0  0
  157.6860  213.7120  153.7820 C   0  0  0  0  0  2  0  0  0  0  0  0
  156.7210  214.1230  151.1910 C   0  0  0  0  0  2  0  0  0  0  0  0
  157.3430  212.8120  151.3750 N   0  0  0  0  0  2  0  0  0  0  0  0
  160.8420  210.4840  147.4900 C   0  0  0  0  0  2  0  0  0  0  0  0
  162.0140  209.6080  147.8970 C   0  0  0  0  0  2  0  0  0  0  0  0
  161.5810  208.1600  148.0460 C   0  0  0  0  0  2  0  0  0  0  0  0
  162.3460  207.4960  149.1830 C   0  0  0  0  0  2  0  0  0  0  0  0
  160.3250  204.0520  151.7750 C   0  0  0  0  0  1  0  0  0  0  0  0
  161.0740  203.4560  149.5230 N   0  0  0  0  0  0  0  0  0  0  0  0
  161.4400  204.1650  150.7550 C   0  0  1  0  0  3  0  0  0  0  0  0
  161.8030  205.2400  148.2080 O   0  0  0  0  0  0  0  0  0  0  0  0
  161.9740  206.0560  149.3310 C   0  0  0  0  0  0  0  0  0  0  0  0
  161.2840  203.9550  148.3450 C   0  0  0  0  0  3  0  0  0  0  0  0
  161.7640  205.5760  150.5160 N   0  0  0  0  0  0  0  0  0  0  0  0
  2  1  2  0  0  0  0
  2 10  1  0  0  0  0
  3  9  1  0  0  0  0
  5 53  1  6  0  0  0
  5 12  1  0  0  0  0
  6 11  1  0  0  0  0
  8  3  1  1  0  0  0
  8 11  1  0  0  0  0
  9  4  2  0  0  0  0
  9 12  1  0  0  0  0
 10 43  1  0  0  0  0
 11  5  1  0  0  0  0
 11  7  1  0  0  0  0
 12  2  1  0  0  0  0
 13 20  1  0  0  0  0
 14 13  2  0  0  0  0
 16 19  2  0  0  0  0
 16 18  1  0  0  0  0
 17 21  1  0  0  0  0
 17 13  1  0  0  0  0
 18 15  1  6  0  0  0
 18 25  1  0  0  0  0
 20 18  1  0  0  0  0
 20 23  1  1  0  0  0
 21 24  1  6  0  0  0
 21 16  1  0  0  0  0
 22 23  1  6  0  0  0
 22  8  1  0  0  0  0
 25 22  1  0  0  0  0
 26 31  2  0  0  0  0
 27 28  2  0  0  0  0
 28 21  1  0  0  0  0
 29 33  1  1  0  0  0
 29 32  1  0  0  0  0
 29 26  1  0  0  0  0
 30 32  2  0  0  0  0
 31 28  1  0  0  0  0
 32 27  1  0  0  0  0
 33 34  1  0  0  0  0
 34 36  2  0  0  0  0
 35 34  1  0  0  0  0
 35 38  1  0  0  0  0
 37 38  2  0  0  0  0
 38 40  1  0  0  0  0
 38 39  1  0  0  0  0
 42 43  1  0  0  0  0
 43 41  2  0  0  0  0
 44 10  1  0  0  0  0
 45 50  1  0  0  0  0
 47 45  2  0  0  0  0
 48 44  1  6  0  0  0
 48 46  1  0  0  0  0
 49 48  1  0  0  0  0
 49 46  1  1  0  0  0
 49 50  1  0  0  0  0
 51 52  1  0  0  0  0
 51 47  1  0  0  0  0
 52 49  1  0  0  0  0
 53 54  1  0  0  0  0
 54 55  1  0  0  0  0
 55 56  1  0  0  0  0
 56 61  1  0  0  0  0
 58 59  1  0  0  0  0
 59 57  1  1  0  0  0
 60 62  1  0  0  0  0
 60 61  1  0  0  0  0
 61 63  2  0  0  0  0
 62 58  2  0  0  0  0
 63 59  1  0  0  0  0
M  END
>  <MODEL>
1

>  <REMARK>
 VINA RESULT:      -2.2      0.000      0.000
  Name = 
  13 active torsions:
  status: ('A' for Active; 'I' for Inactive)
    1  A    between atoms: C_3  and  C_4
    2  A    between atoms: C_3  and  C_31
    3  A    between atoms: N_13  and  P_22
    4  A    between atoms: C_19  and  C_37
    5  A    between atoms: C_19  and  C_39
    6  A    between atoms: C_21  and  C_40
    7  A    between atoms: C_27  and  C_39
    8  A    between atoms: C_27  and  C_55
    9  A    between atoms: C_28  and  C_55
   10  A    between atoms: C_34  and  C_36
   11  A    between atoms: C_36  and  N_54
   12  A    between atoms: C_44  and  C_52
   13  A    between atoms: C_51  and  N_54
                            x       y       z     vdW  Elec       q    Type
                         _______ _______ _______ _____ _____    ______ ____

>  <TORSDO>
F 13

$$$$
