=
 OpenBabel11072410443D

 38 41  0  0  1  0  0  0  0  0999 V2000
  160.7970  212.1720  151.5780 C   0  0  2  0  0  3  0  0  0  0  0  0
  161.2990  212.3920  148.7880 N   0  0  0  0  0  0  0  0  0  0  0  0
  160.0910  214.4510  151.3350 O   0  0  0  0  0  1  0  0  0  0  0  0
  160.5350  213.2840  149.3230 C   0  0  0  0  0  3  0  0  0  0  0  0
  161.9140  210.1110  148.6040 N   0  0  0  0  0  1  0  0  0  0  0  0
  160.0300  213.1930  150.7370 C   0  0  1  0  0  3  0  0  0  0  0  0
  161.8490  211.2530  149.5000 C   0  0  2  0  0  3  0  0  0  0  0  0
  161.0530  210.8990  150.7610 C   0  0  1  0  0  3  0  0  0  0  0  0
  159.9790  211.5590  155.2280 C   0  0  2  0  0  3  0  0  0  0  0  0
  158.7410  210.6920  155.0270 C   0  0  0  0  0  2  0  0  0  0  0  0
  158.6540  211.6110  152.7570 O   0  0  0  0  0  0  0  0  0  0  0  0
  160.6610  211.8080  153.9610 N   0  0  0  0  0  0  0  0  0  0  0  0
  160.9290  210.8940  156.1990 C   0  0  0  0  0  1  0  0  0  0  0  0
  160.0290  211.8730  152.8280 C   0  0  0  0  0  0  0  0  0  0  0  0
  157.8710  211.2660  153.9020 C   0  0  2  0  0  3  0  0  0  0  0  0
  156.9590  212.4350  154.3150 C   0  0  1  0  0  3  0  0  0  0  0  0
  155.6020  211.3050  156.1540 C   0  0  0  0  0  1  0  0  0  0  0  0
  155.9390  213.6650  156.1100 O   0  0  0  0  0  1  0  0  0  0  0  0
  156.5390  212.4470  155.7910 C   0  0  2  0  0  3  0  0  0  0  0  0
  157.3620  213.7780  153.7810 C   0  0  0  0  0  0  0  0  0  0  0  0
  158.4370  214.3210  154.1560 O   0  0  0  0  0  0  0  0  0  0  0  0
  156.6320  214.0860  151.4520 C   0  0  0  0  0  1  0  0  0  0  0  0
  156.5470  214.3980  152.8340 O   0  0  0  0  0  0  0  0  0  0  0  0
  161.7890  209.8630  151.5690 C   0  0  0  0  0  0  0  0  0  0  0  0
  162.8080  210.1790  152.1620 O   0  0  0  0  0  0  0  0  0  0  0  0
  161.3050  208.4450  151.6210 C   0  0  0  0  0  2  0  0  0  0  0  0
  162.3840  207.3610  150.6360 S   0  0  0  0  0  0  0  0  0  0  0  0
  160.8240  204.6030  151.8010 C   0  0  0  0  0  3  0  0  0  0  0  0
  159.9680  206.6410  147.7790 F   0  0  0  0  0  0  0  0  0  0  0  0
  161.1080  206.1830  148.4120 C   0  0  0  0  0  0  0  0  0  0  0  0
  162.2190  206.8020  147.8640 F   0  0  0  0  0  0  0  0  0  0  0  0
  161.1360  202.7580  149.6810 C   0  0  0  0  0  3  0  0  0  0  0  0
  160.9770  206.4180  149.9450 C   0  0  1  0  0  3  0  0  0  0  0  0
  161.2130  204.7700  148.2410 O   0  0  0  0  0  0  0  0  0  0  0  0
  161.1140  204.1340  149.4580 C   0  0  0  0  0  0  0  0  0  0  0  0
  160.8410  203.2220  152.0590 C   0  0  0  0  0  3  0  0  0  0  0  0
  160.9990  202.3030  151.0030 C   0  0  0  0  0  3  0  0  0  0  0  0
  160.9730  205.0290  150.4800 C   0  0  0  0  0  0  0  0  0  0  0  0
  1 14  1  1  0  0  0
  2  4  2  0  0  0  0
  2  7  1  0  0  0  0
  4  6  1  0  0  0  0
  6  3  1  1  0  0  0
  6  1  1  0  0  0  0
  7  5  1  6  0  0  0
  7  8  1  0  0  0  0
  8 24  1  1  0  0  0
  8  1  1  0  0  0  0
  9 13  1  1  0  0  0
 10  9  1  0  0  0  0
 11 14  1  0  0  0  0
 11 15  1  0  0  0  0
 12  9  1  0  0  0  0
 14 12  2  0  0  0  0
 15 16  1  1  0  0  0
 15 10  1  0  0  0  0
 16 20  1  1  0  0  0
 16 19  1  0  0  0  0
 19 18  1  0  0  0  0
 19 17  1  6  0  0  0
 20 21  2  0  0  0  0
 22 23  1  0  0  0  0
 23 20  1  0  0  0  0
 24 26  1  0  0  0  0
 24 25  2  0  0  0  0
 27 26  1  0  0  0  0
 28 36  1  0  0  0  0
 29 30  1  0  0  0  0
 30 33  1  0  0  0  0
 31 30  1  0  0  0  0
 32 37  1  0  0  0  0
 33 38  1  0  0  0  0
 33 27  1  1  0  0  0
 34 30  1  0  0  0  0
 34 35  1  0  0  0  0
 35 32  2  0  0  0  0
 35 38  1  0  0  0  0
 37 36  2  0  0  0  0
 38 28  2  0  0  0  0
M  END
>  <MODEL>
1

>  <REMARK>
 VINA RESULT:      -7.1      0.000      0.000
  Name = 
  9 active torsions:
  status: ('A' for Active; 'I' for Inactive)
    1  A    between atoms: C_1  and  C_26
    2  A    between atoms: C_2  and  C_19
    3  A    between atoms: C_2  and  O_33
    4  A    between atoms: C_9  and  C_29
    5  A    between atoms: C_9  and  C_36
    6  A    between atoms: C_17  and  S_21
    7  A    between atoms: C_19  and  C_28
    8  A    between atoms: C_19  and  C_34
    9  A    between atoms: S_21  and  C_29
                            x       y       z     vdW  Elec       q    Type
                         _______ _______ _______ _____ _____    ______ ____

>  <TORSDO>
F 9

$$$$
=
 OpenBabel11072410443D

 38 41  0  0  1  0  0  0  0  0999 V2000
  160.6580  208.1010  153.0810 C   0  0  2  0  0  3  0  0  0  0  0  0
  162.0800  205.6410  153.1760 N   0  0  0  0  0  0  0  0  0  0  0  0
  159.5510  207.2000  155.0090 O   0  0  0  0  0  1  0  0  0  0  0  0
  161.4370  205.9930  154.2380 C   0  0  0  0  0  3  0  0  0  0  0  0
  163.4930  206.2580  151.3770 N   0  0  0  0  0  1  0  0  0  0  0  0
  160.7990  207.3450  154.4030 C   0  0  1  0  0  3  0  0  0  0  0  0
  162.1840  206.4510  151.9770 C   0  0  2  0  0  3  0  0  0  0  0  0
  161.9320  207.9400  152.2410 C   0  0  1  0  0  3  0  0  0  0  0  0
  159.1360  211.5640  152.8400 C   0  0  2  0  0  3  0  0  0  0  0  0
  160.2960  212.3500  153.4410 C   0  0  0  0  0  2  0  0  0  0  0  0
  161.0590  210.2160  154.3720 O   0  0  0  0  0  0  0  0  0  0  0  0
  159.5050  210.1690  152.6120 N   0  0  0  0  0  0  0  0  0  0  0  0
  158.6970  212.1980  151.5380 C   0  0  0  0  0  1  0  0  0  0  0  0
  160.3650  209.5430  153.3560 C   0  0  0  0  0  0  0  0  0  0  0  0
  160.8680  211.6040  154.6520 C   0  0  2  0  0  3  0  0  0  0  0  0
  160.0860  211.7950  155.9640 C   0  0  1  0  0  3  0  0  0  0  0  0
  162.2290  211.3020  157.2530 C   0  0  0  0  0  1  0  0  0  0  0  0
  160.3850  209.7920  157.2570 O   0  0  0  0  0  1  0  0  0  0  0  0
  160.7180  211.1450  157.2030 C   0  0  2  0  0  3  0  0  0  0  0  0
  159.5600  213.1800  156.1980 C   0  0  0  0  0  0  0  0  0  0  0  0
  160.3410  214.1140  156.5320 O   0  0  0  0  0  0  0  0  0  0  0  0
  157.2430  212.3810  155.9900 C   0  0  0  0  0  1  0  0  0  0  0  0
  158.2010  213.4280  156.0040 O   0  0  0  0  0  0  0  0  0  0  0  0
  161.8350  208.6910  150.9400 C   0  0  0  0  0  0  0  0  0  0  0  0
  162.3460  209.7960  150.8470 O   0  0  0  0  0  0  0  0  0  0  0  0
  161.0880  208.1150  149.7750 C   0  0  0  0  0  2  0  0  0  0  0  0
  162.2370  207.3650  148.5820 S   0  0  0  0  0  0  0  0  0  0  0  0
  160.6280  204.7020  149.8920 C   0  0  0  0  0  3  0  0  0  0  0  0
  160.1870  206.2160  145.5820 F   0  0  0  0  0  0  0  0  0  0  0  0
  161.2580  205.8830  146.3890 C   0  0  0  0  0  0  0  0  0  0  0  0
  162.4080  206.4780  145.8970 F   0  0  0  0  0  0  0  0  0  0  0  0
  161.2320  202.6350  148.0590 C   0  0  0  0  0  3  0  0  0  0  0  0
  160.9450  206.2920  147.8580 C   0  0  1  0  0  3  0  0  0  0  0  0
  161.4210  204.4650  146.4030 O   0  0  0  0  0  0  0  0  0  0  0  0
  161.1990  203.9730  147.6700 C   0  0  0  0  0  0  0  0  0  0  0  0
  160.6520  203.3630  150.3160 C   0  0  0  0  0  3  0  0  0  0  0  0
  160.9560  202.3330  149.4030 C   0  0  0  0  0  3  0  0  0  0  0  0
  160.9170  204.9750  148.5530 C   0  0  0  0  0  0  0  0  0  0  0  0
  1 14  1  1  0  0  0
  1  6  1  0  0  0  0
  2  4  2  0  0  0  0
  4  6  1  0  0  0  0
  6  3  1  6  0  0  0
  7  5  1  1  0  0  0
  7  8  1  0  0  0  0
  7  2  1  0  0  0  0
  8 24  1  6  0  0  0
  8  1  1  0  0  0  0
  9 13  1  6  0  0  0
  9 10  1  0  0  0  0
 10 15  1  0  0  0  0
 11 15  1  0  0  0  0
 12  9  1  0  0  0  0
 12 14  2  0  0  0  0
 14 11  1  0  0  0  0
 15 16  1  1  0  0  0
 16 20  1  1  0  0  0
 16 19  1  0  0  0  0
 19 17  1  6  0  0  0
 19 18  1  0  0  0  0
 20 21  2  0  0  0  0
 22 23  1  0  0  0  0
 23 20  1  0  0  0  0
 25 24  2  0  0  0  0
 26 24  1  0  0  0  0
 27 26  1  0  0  0  0
 28 36  1  0  0  0  0
 29 30  1  0  0  0  0
 30 34  1  0  0  0  0
 30 33  1  0  0  0  0
 31 30  1  0  0  0  0
 32 37  1  0  0  0  0
 33 38  1  0  0  0  0
 33 27  1  1  0  0  0
 34 35  1  0  0  0  0
 35 32  2  0  0  0  0
 35 38  1  0  0  0  0
 37 36  2  0  0  0  0
 38 28  2  0  0  0  0
M  END
>  <MODEL>
2

>  <REMARK>
 VINA RESULT:      -6.7      2.447      4.111
  Name = 
  9 active torsions:
  status: ('A' for Active; 'I' for Inactive)
    1  A    between atoms: C_1  and  C_26
    2  A    between atoms: C_2  and  C_19
    3  A    between atoms: C_2  and  O_33
    4  A    between atoms: C_9  and  C_29
    5  A    between atoms: C_9  and  C_36
    6  A    between atoms: C_17  and  S_21
    7  A    between atoms: C_19  and  C_28
    8  A    between atoms: C_19  and  C_34
    9  A    between atoms: S_21  and  C_29
                            x       y       z     vdW  Elec       q    Type
                         _______ _______ _______ _____ _____    ______ ____

>  <TORSDO>
F 9

$$$$
=
 OpenBabel11072410443D

 38 41  0  0  1  0  0  0  0  0999 V2000
  160.8500  212.1920  151.5920 C   0  0  2  0  0  3  0  0  0  0  0  0
  161.0080  212.5530  148.7770 N   0  0  0  0  0  0  0  0  0  0  0  0
  160.0090  214.4380  151.5400 O   0  0  0  0  0  1  0  0  0  0  0  0
  160.2690  213.3790  149.4370 C   0  0  0  0  0  3  0  0  0  0  0  0
  161.7080  210.3190  148.4150 N   0  0  0  0  0  1  0  0  0  0  0  0
  159.9390  213.2030  150.8950 C   0  0  1  0  0  3  0  0  0  0  0  0
  161.6930  211.4180  149.3650 C   0  0  2  0  0  3  0  0  0  0  0  0
  161.0710  210.9690  150.6920 C   0  0  1  0  0  3  0  0  0  0  0  0
  158.3390  211.0780  154.2040 C   0  0  2  0  0  3  0  0  0  0  0  0
  159.0050  211.7070  155.4230 C   0  0  0  0  0  2  0  0  0  0  0  0
  161.0420  211.8110  154.0650 O   0  0  0  0  0  0  0  0  0  0  0  0
  158.9880  211.5060  152.9680 N   0  0  0  0  0  0  0  0  0  0  0  0
  156.8720  211.4440  154.1660 C   0  0  0  0  0  1  0  0  0  0  0  0
  160.2510  211.8010  152.9080 C   0  0  0  0  0  0  0  0  0  0  0  0
  160.5230  211.5010  155.3610 C   0  0  2  0  0  3  0  0  0  0  0  0
  161.0130  210.1190  155.8310 C   0  0  1  0  0  3  0  0  0  0  0  0
  163.3830  210.9340  156.2990 C   0  0  0  0  0  1  0  0  0  0  0  0
  162.5890  208.8420  157.1200 O   0  0  0  0  0  1  0  0  0  0  0  0
  162.1910  210.1440  156.8150 C   0  0  2  0  0  3  0  0  0  0  0  0
  159.9310  209.1460  156.1920 C   0  0  0  0  0  0  0  0  0  0  0  0
  159.2730  209.2870  157.2600 O   0  0  0  0  0  0  0  0  0  0  0  0
  160.6560  207.3230  154.7090 C   0  0  0  0  0  1  0  0  0  0  0  0
  159.6360  208.1060  155.3110 O   0  0  0  0  0  0  0  0  0  0  0  0
  161.9470  209.9430  151.3590 C   0  0  0  0  0  0  0  0  0  0  0  0
  163.0260  210.2830  151.8170 O   0  0  0  0  0  0  0  0  0  0  0  0
  161.5260  208.5060  151.4340 C   0  0  0  0  0  2  0  0  0  0  0  0
  162.5020  207.4890  150.2850 S   0  0  0  0  0  0  0  0  0  0  0  0
  160.8770  204.9400  151.7890 C   0  0  0  0  0  3  0  0  0  0  0  0
  159.9870  206.5450  147.5820 F   0  0  0  0  0  0  0  0  0  0  0  0
  161.1260  206.1180  148.2370 C   0  0  0  0  0  0  0  0  0  0  0  0
  162.2440  206.6290  147.5980 F   0  0  0  0  0  0  0  0  0  0  0  0
  161.0680  202.8590  149.8840 C   0  0  0  0  0  3  0  0  0  0  0  0
  161.0450  206.5290  149.7360 C   0  0  1  0  0  3  0  0  0  0  0  0
  161.1780  204.6920  148.2240 O   0  0  0  0  0  0  0  0  0  0  0  0
  161.0880  204.2010  149.5070 C   0  0  0  0  0  0  0  0  0  0  0  0
  160.8530  203.5970  152.2010 C   0  0  0  0  0  3  0  0  0  0  0  0
  160.9500  202.5600  151.2520 C   0  0  0  0  0  3  0  0  0  0  0  0
  161.0060  205.2090  150.4250 C   0  0  0  0  0  0  0  0  0  0  0  0
  1 14  1  1  0  0  0
  2  7  1  0  0  0  0
  2  4  2  0  0  0  0
  4  6  1  0  0  0  0
  6  3  1  1  0  0  0
  6  1  1  0  0  0  0
  7  5  1  6  0  0  0
  7  8  1  0  0  0  0
  8 24  1  1  0  0  0
  8  1  1  0  0  0  0
  9 13  1  6  0  0  0
  9 10  1  0  0  0  0
 11 15  1  0  0  0  0
 12  9  1  0  0  0  0
 14 12  2  0  0  0  0
 14 11  1  0  0  0  0
 15 10  1  0  0  0  0
 15 16  1  6  0  0  0
 16 20  1  1  0  0  0
 16 19  1  0  0  0  0
 19 17  1  6  0  0  0
 19 18  1  0  0  0  0
 20 21  2  0  0  0  0
 22 23  1  0  0  0  0
 23 20  1  0  0  0  0
 24 26  1  0  0  0  0
 24 25  2  0  0  0  0
 27 26  1  0  0  0  0
 28 36  1  0  0  0  0
 29 30  1  0  0  0  0
 30 33  1  0  0  0  0
 31 30  1  0  0  0  0
 32 37  1  0  0  0  0
 33 27  1  1  0  0  0
 33 38  1  0  0  0  0
 34 30  1  0  0  0  0
 34 35  1  0  0  0  0
 35 32  2  0  0  0  0
 35 38  1  0  0  0  0
 37 36  2  0  0  0  0
 38 28  2  0  0  0  0
M  END
>  <MODEL>
3

>  <REMARK>
 VINA RESULT:      -6.6      1.722      3.393
  Name = 
  9 active torsions:
  status: ('A' for Active; 'I' for Inactive)
    1  A    between atoms: C_1  and  C_26
    2  A    between atoms: C_2  and  C_19
    3  A    between atoms: C_2  and  O_33
    4  A    between atoms: C_9  and  C_29
    5  A    between atoms: C_9  and  C_36
    6  A    between atoms: C_17  and  S_21
    7  A    between atoms: C_19  and  C_28
    8  A    between atoms: C_19  and  C_34
    9  A    between atoms: S_21  and  C_29
                            x       y       z     vdW  Elec       q    Type
                         _______ _______ _______ _____ _____    ______ ____

>  <TORSDO>
F 9

$$$$
=
 OpenBabel11072410443D

 38 41  0  0  1  0  0  0  0  0999 V2000
  160.6230  209.0880  152.2000 C   0  0  2  0  0  3  0  0  0  0  0  0
  160.4100  209.0220  155.0340 N   0  0  0  0  0  0  0  0  0  0  0  0
  159.2010  211.0050  152.4270 O   0  0  0  0  0  1  0  0  0  0  0  0
  160.0780  210.1190  154.4420 C   0  0  0  0  0  3  0  0  0  0  0  0
  161.9250  207.2100  155.2190 N   0  0  0  0  0  1  0  0  0  0  0  0
  160.3130  210.3670  152.9760 C   0  0  1  0  0  3  0  0  0  0  0  0
  160.9530  207.8600  154.3560 C   0  0  2  0  0  3  0  0  0  0  0  0
  161.5840  208.2010  153.0020 C   0  0  1  0  0  3  0  0  0  0  0  0
  161.7620  208.8010  148.5960 C   0  0  2  0  0  3  0  0  0  0  0  0
  162.8250  209.8940  148.6190 C   0  0  0  0  0  2  0  0  0  0  0  0
  161.7070  210.7240  150.6350 O   0  0  0  0  0  0  0  0  0  0  0  0
  161.2550  208.5280  149.9380 N   0  0  0  0  0  0  0  0  0  0  0  0
  162.3310  207.5350  147.9950 C   0  0  0  0  0  1  0  0  0  0  0  0
  161.1940  209.4390  150.8610 C   0  0  0  0  0  0  0  0  0  0  0  0
  162.3140  211.1100  149.4010 C   0  0  2  0  0  3  0  0  0  0  0  0
  161.3920  212.0540  148.6080 C   0  0  1  0  0  3  0  0  0  0  0  0
  159.2210  213.3280  149.0130 C   0  0  0  0  0  1  0  0  0  0  0  0
  161.3530  214.3230  149.3990 O   0  0  0  0  0  1  0  0  0  0  0  0
  160.6620  213.1120  149.4470 C   0  0  2  0  0  3  0  0  0  0  0  0
  161.9640  212.5760  147.3230 C   0  0  0  0  0  0  0  0  0  0  0  0
  163.1650  212.9590  147.2660 O   0  0  0  0  0  0  0  0  0  0  0  0
  161.5590  213.2560  144.9940 C   0  0  0  0  0  1  0  0  0  0  0  0
  161.1580  212.5960  146.1850 O   0  0  0  0  0  0  0  0  0  0  0  0
  161.9280  206.9400  152.2540 C   0  0  0  0  0  0  0  0  0  0  0  0
  162.9790  206.8780  151.6370 O   0  0  0  0  0  0  0  0  0  0  0  0
  160.9790  205.7790  152.2300 C   0  0  0  0  0  2  0  0  0  0  0  0
  160.4020  205.4550  150.5360 S   0  0  0  0  0  0  0  0  0  0  0  0
  161.5490  203.9670  147.7310 C   0  0  0  0  0  3  0  0  0  0  0  0
  162.2280  202.4530  152.0110 F   0  0  0  0  0  0  0  0  0  0  0  0
  161.1180  202.8280  151.2780 C   0  0  0  0  0  0  0  0  0  0  0  0
  160.0820  203.1440  152.1420 F   0  0  0  0  0  0  0  0  0  0  0  0
  160.6070  201.3140  147.9940 C   0  0  0  0  0  3  0  0  0  0  0  0
  161.4960  204.0040  150.3320 C   0  0  1  0  0  3  0  0  0  0  0  0
  160.7220  201.7530  150.4280 O   0  0  0  0  0  0  0  0  0  0  0  0
  160.8610  202.1150  149.1070 C   0  0  0  0  0  0  0  0  0  0  0  0
  161.3030  203.1850  146.5900 C   0  0  0  0  0  3  0  0  0  0  0  0
  160.8320  201.8640  146.7210 C   0  0  0  0  0  3  0  0  0  0  0  0
  161.3070  203.4000  148.9840 C   0  0  0  0  0  0  0  0  0  0  0  0
  1 14  1  6  0  0  0
  1  6  1  0  0  0  0
  1  8  1  0  0  0  0
  4  2  2  0  0  0  0
  6  3  1  6  0  0  0
  6  4  1  0  0  0  0
  7  2  1  0  0  0  0
  7  5  1  1  0  0  0
  8 24  1  6  0  0  0
  8  7  1  0  0  0  0
  9 13  1  1  0  0  0
  9 10  1  0  0  0  0
  9 12  1  0  0  0  0
 10 15  1  0  0  0  0
 11 14  1  0  0  0  0
 12 14  2  0  0  0  0
 15 16  1  6  0  0  0
 15 11  1  0  0  0  0
 16 20  1  6  0  0  0
 16 19  1  0  0  0  0
 18 19  1  0  0  0  0
 19 17  1  6  0  0  0
 21 20  2  0  0  0  0
 22 23  1  0  0  0  0
 23 20  1  0  0  0  0
 25 24  2  0  0  0  0
 26 24  1  0  0  0  0
 27 26  1  0  0  0  0
 28 38  1  0  0  0  0
 30 29  1  0  0  0  0
 30 31  1  0  0  0  0
 32 35  1  0  0  0  0
 33 27  1  6  0  0  0
 33 30  1  0  0  0  0
 34 30  1  0  0  0  0
 35 34  1  0  0  0  0
 36 37  1  0  0  0  0
 36 28  2  0  0  0  0
 37 32  2  0  0  0  0
 38 35  2  0  0  0  0
 38 33  1  0  0  0  0
M  END
>  <MODEL>
4

>  <REMARK>
 VINA RESULT:      -6.2      2.958      5.779
  Name = 
  9 active torsions:
  status: ('A' for Active; 'I' for Inactive)
    1  A    between atoms: C_1  and  C_26
    2  A    between atoms: C_2  and  C_19
    3  A    between atoms: C_2  and  O_33
    4  A    between atoms: C_9  and  C_29
    5  A    between atoms: C_9  and  C_36
    6  A    between atoms: C_17  and  S_21
    7  A    between atoms: C_19  and  C_28
    8  A    between atoms: C_19  and  C_34
    9  A    between atoms: S_21  and  C_29
                            x       y       z     vdW  Elec       q    Type
                         _______ _______ _______ _____ _____    ______ ____

>  <TORSDO>
F 9

$$$$
=
 OpenBabel11072410443D

 38 41  0  0  1  0  0  0  0  0999 V2000
  161.5700  207.5380  152.8080 C   0  0  2  0  0  3  0  0  0  0  0  0
  160.6450  207.7670  155.4860 N   0  0  0  0  0  0  0  0  0  0  0  0
  161.8080  205.2250  153.3950 O   0  0  0  0  0  1  0  0  0  0  0  0
  160.6780  206.5840  154.9720 C   0  0  0  0  0  3  0  0  0  0  0  0
  160.1210  210.0630  155.2300 N   0  0  0  0  0  1  0  0  0  0  0  0
  160.9620  206.3280  153.5170 C   0  0  1  0  0  3  0  0  0  0  0  0
  160.9730  208.9820  154.7650 C   0  0  2  0  0  3  0  0  0  0  0  0
  160.8530  208.8230  153.2450 C   0  0  1  0  0  3  0  0  0  0  0  0
  162.1410  208.0060  149.0900 C   0  0  2  0  0  3  0  0  0  0  0  0
  160.8320  207.4020  148.5940 C   0  0  0  0  0  2  0  0  0  0  0  0
  160.6670  206.3390  150.7960 O   0  0  0  0  0  0  0  0  0  0  0  0
  162.1390  208.1510  150.5430 N   0  0  0  0  0  0  0  0  0  0  0  0
  162.3710  209.3520  148.4400 C   0  0  0  0  0  1  0  0  0  0  0  0
  161.4870  207.3450  151.3250 C   0  0  0  0  0  0  0  0  0  0  0  0
  160.4990  206.1350  149.3910 C   0  0  2  0  0  3  0  0  0  0  0  0
  161.2360  204.8630  148.9320 C   0  0  1  0  0  3  0  0  0  0  0  0
  160.9480  203.2470  150.8830 C   0  0  0  0  0  1  0  0  0  0  0  0
  161.0680  202.4860  148.6270 O   0  0  0  0  0  1  0  0  0  0  0  0
  160.6300  203.5420  149.4250 C   0  0  2  0  0  3  0  0  0  0  0  0
  161.6470  204.8500  147.4900 C   0  0  0  0  0  0  0  0  0  0  0  0
  162.8680  204.8720  147.1710 O   0  0  0  0  0  0  0  0  0  0  0  0
  160.5540  205.7420  145.4750 C   0  0  0  0  0  1  0  0  0  0  0  0
  160.6590  204.7740  146.5070 O   0  0  0  0  0  0  0  0  0  0  0  0
  161.4130  210.0340  152.5470 C   0  0  0  0  0  0  0  0  0  0  0  0
  162.5880  210.3250  152.7040 O   0  0  0  0  0  0  0  0  0  0  0  0
  160.5370  210.9020  151.6950 C   0  0  0  0  0  2  0  0  0  0  0  0
  160.1110  212.4400  152.5670 S   0  0  0  0  0  0  0  0  0  0  0  0
  157.6190  212.8070  150.3200 C   0  0  0  0  0  3  0  0  0  0  0  0
  157.1120  211.3120  154.6300 F   0  0  0  0  0  0  0  0  0  0  0  0
  157.7100  212.4150  154.0480 C   0  0  0  0  0  0  0  0  0  0  0  0
  158.6330  212.9550  154.9280 F   0  0  0  0  0  0  0  0  0  0  0  0
  155.7540  214.4190  151.7050 C   0  0  0  0  0  3  0  0  0  0  0  0
  158.3400  212.0030  152.6860 C   0  0  1  0  0  3  0  0  0  0  0  0
  156.7140  213.3890  153.7400 O   0  0  0  0  0  0  0  0  0  0  0  0
  156.6350  213.5750  152.3780 C   0  0  0  0  0  0  0  0  0  0  0  0
  156.7440  213.6480  149.6110 C   0  0  0  0  0  3  0  0  0  0  0  0
  155.8170  214.4530  150.3020 C   0  0  0  0  0  3  0  0  0  0  0  0
  157.5440  212.8020  151.7140 C   0  0  0  0  0  0  0  0  0  0  0  0
  1 14  1  6  0  0  0
  1  8  1  0  0  0  0
  1  6  1  0  0  0  0
  4  2  2  0  0  0  0
  6  3  1  1  0  0  0
  6  4  1  0  0  0  0
  7  5  1  1  0  0  0
  7  2  1  0  0  0  0
  8 24  1  6  0  0  0
  8  7  1  0  0  0  0
  9 13  1  6  0  0  0
  9 12  1  0  0  0  0
 10  9  1  0  0  0  0
 10 15  1  0  0  0  0
 11 14  1  0  0  0  0
 12 14  2  0  0  0  0
 15 16  1  6  0  0  0
 15 11  1  0  0  0  0
 16 20  1  6  0  0  0
 16 19  1  0  0  0  0
 18 19  1  0  0  0  0
 19 17  1  1  0  0  0
 21 20  2  0  0  0  0
 22 23  1  0  0  0  0
 23 20  1  0  0  0  0
 24 25  2  0  0  0  0
 26 24  1  0  0  0  0
 26 27  1  0  0  0  0
 28 38  1  0  0  0  0
 30 29  1  0  0  0  0
 30 31  1  0  0  0  0
 32 35  1  0  0  0  0
 33 27  1  1  0  0  0
 33 30  1  0  0  0  0
 34 30  1  0  0  0  0
 35 34  1  0  0  0  0
 36 37  1  0  0  0  0
 36 28  2  0  0  0  0
 37 32  2  0  0  0  0
 38 35  2  0  0  0  0
 38 33  1  0  0  0  0
M  END
>  <MODEL>
5

>  <REMARK>
 VINA RESULT:      -6.1      3.098      9.002
  Name = 
  9 active torsions:
  status: ('A' for Active; 'I' for Inactive)
    1  A    between atoms: C_1  and  C_26
    2  A    between atoms: C_2  and  C_19
    3  A    between atoms: C_2  and  O_33
    4  A    between atoms: C_9  and  C_29
    5  A    between atoms: C_9  and  C_36
    6  A    between atoms: C_17  and  S_21
    7  A    between atoms: C_19  and  C_28
    8  A    between atoms: C_19  and  C_34
    9  A    between atoms: S_21  and  C_29
                            x       y       z     vdW  Elec       q    Type
                         _______ _______ _______ _____ _____    ______ ____

>  <TORSDO>
F 9

$$$$
=
 OpenBabel11072410443D

 38 41  0  0  1  0  0  0  0  0999 V2000
  161.6590  207.4350  152.6560 C   0  0  2  0  0  3  0  0  0  0  0  0
  160.7620  207.3410  155.3520 N   0  0  0  0  0  0  0  0  0  0  0  0
  161.9060  205.0700  152.9610 O   0  0  0  0  0  1  0  0  0  0  0  0
  160.7910  206.2280  154.7000 C   0  0  0  0  0  3  0  0  0  0  0  0
  160.2330  209.6500  155.3760 N   0  0  0  0  0  1  0  0  0  0  0  0
  161.0600  206.1470  153.2220 C   0  0  1  0  0  3  0  0  0  0  0  0
  161.0810  208.6340  154.7770 C   0  0  2  0  0  3  0  0  0  0  0  0
  160.9460  208.6570  153.2500 C   0  0  1  0  0  3  0  0  0  0  0  0
  162.1560  208.3720  149.0170 C   0  0  2  0  0  3  0  0  0  0  0  0
  160.8640  207.7810  148.4650 C   0  0  0  0  0  2  0  0  0  0  0  0
  160.7720  206.4540  150.5230 O   0  0  0  0  0  0  0  0  0  0  0  0
  162.1710  208.3400  150.4770 N   0  0  0  0  0  0  0  0  0  0  0  0
  162.3260  209.7950  148.5330 C   0  0  0  0  0  1  0  0  0  0  0  0
  161.5620  207.4200  151.1620 C   0  0  0  0  0  0  0  0  0  0  0  0
  160.5920  206.4150  149.1060 C   0  0  2  0  0  3  0  0  0  0  0  0
  161.3690  205.2380  148.4870 C   0  0  1  0  0  3  0  0  0  0  0  0
  160.8170  203.5010  150.2690 C   0  0  0  0  0  1  0  0  0  0  0  0
  161.4930  202.8750  148.0700 O   0  0  0  0  0  1  0  0  0  0  0  0
  160.7960  203.8470  148.7890 C   0  0  2  0  0  3  0  0  0  0  0  0
  161.7930  205.4330  147.0620 C   0  0  0  0  0  0  0  0  0  0  0  0
  163.0160  205.5240  146.7640 O   0  0  0  0  0  0  0  0  0  0  0  0
  161.1170  205.1840  144.7100 C   0  0  0  0  0  1  0  0  0  0  0  0
  160.8160  205.4720  146.0670 O   0  0  0  0  0  0  0  0  0  0  0  0
  161.4970  209.9440  152.6960 C   0  0  0  0  0  0  0  0  0  0  0  0
  162.6880  210.1820  152.8110 O   0  0  0  0  0  0  0  0  0  0  0  0
  160.5950  210.9460  152.0410 C   0  0  0  0  0  2  0  0  0  0  0  0
  158.9110  210.8370  152.7200 S   0  0  0  0  0  0  0  0  0  0  0  0
  157.7270  212.4780  155.4230 C   0  0  0  0  0  3  0  0  0  0  0  0
  159.2340  214.4530  151.5640 F   0  0  0  0  0  0  0  0  0  0  0  0
  158.3220  213.4560  151.8510 C   0  0  0  0  0  0  0  0  0  0  0  0
  158.1160  212.6810  150.7220 F   0  0  0  0  0  0  0  0  0  0  0  0
  155.7210  214.1390  154.3220 C   0  0  0  0  0  3  0  0  0  0  0  0
  158.8260  212.6300  153.0700 C   0  0  1  0  0  3  0  0  0  0  0  0
  157.0870  214.0440  152.2610 O   0  0  0  0  0  0  0  0  0  0  0  0
  156.8170  213.7180  153.5710 C   0  0  0  0  0  0  0  0  0  0  0  0
  156.6350  212.8860  156.2070 C   0  0  0  0  0  3  0  0  0  0  0  0
  155.6340  213.7110  155.6580 C   0  0  0  0  0  3  0  0  0  0  0  0
  157.7830  212.9080  154.0950 C   0  0  0  0  0  0  0  0  0  0  0  0
  1 14  1  6  0  0  0
  1  6  1  0  0  0  0
  1  8  1  0  0  0  0
  4  2  2  0  0  0  0
  6  3  1  1  0  0  0
  6  4  1  0  0  0  0
  7  2  1  0  0  0  0
  7  5  1  1  0  0  0
  8 24  1  6  0  0  0
  8  7  1  0  0  0  0
  9 13  1  1  0  0  0
  9 12  1  0  0  0  0
 10  9  1  0  0  0  0
 10 15  1  0  0  0  0
 11 14  1  0  0  0  0
 12 14  2  0  0  0  0
 15 16  1  6  0  0  0
 15 11  1  0  0  0  0
 16 20  1  6  0  0  0
 16 19  1  0  0  0  0
 18 19  1  0  0  0  0
 19 17  1  1  0  0  0
 21 20  2  0  0  0  0
 22 23  1  0  0  0  0
 23 20  1  0  0  0  0
 24 25  2  0  0  0  0
 26 24  1  0  0  0  0
 26 27  1  0  0  0  0
 28 36  1  0  0  0  0
 29 30  1  0  0  0  0
 30 34  1  0  0  0  0
 30 33  1  0  0  0  0
 31 30  1  0  0  0  0
 32 37  1  0  0  0  0
 33 27  1  6  0  0  0
 33 38  1  0  0  0  0
 34 35  1  0  0  0  0
 35 38  1  0  0  0  0
 35 32  2  0  0  0  0
 37 36  2  0  0  0  0
 38 28  2  0  0  0  0
M  END
>  <MODEL>
6

>  <REMARK>
 VINA RESULT:      -6.1      2.880      9.020
  Name = 
  9 active torsions:
  status: ('A' for Active; 'I' for Inactive)
    1  A    between atoms: C_1  and  C_26
    2  A    between atoms: C_2  and  C_19
    3  A    between atoms: C_2  and  O_33
    4  A    between atoms: C_9  and  C_29
    5  A    between atoms: C_9  and  C_36
    6  A    between atoms: C_17  and  S_21
    7  A    between atoms: C_19  and  C_28
    8  A    between atoms: C_19  and  C_34
    9  A    between atoms: S_21  and  C_29
                            x       y       z     vdW  Elec       q    Type
                         _______ _______ _______ _____ _____    ______ ____

>  <TORSDO>
F 9

$$$$
=
 OpenBabel11072410443D

 38 41  0  0  1  0  0  0  0  0999 V2000
  161.6010  207.9610  152.6080 C   0  0  2  0  0  3  0  0  0  0  0  0
  160.7090  209.4320  154.8720 N   0  0  0  0  0  0  0  0  0  0  0  0
  161.4320  206.1020  154.1130 O   0  0  0  0  0  1  0  0  0  0  0  0
  160.5410  208.1530  154.8950 C   0  0  0  0  0  3  0  0  0  0  0  0
  160.5920  211.4590  153.6510 N   0  0  0  0  0  1  0  0  0  0  0  0
  160.7880  207.2690  153.7030 C   0  0  1  0  0  3  0  0  0  0  0  0
  161.2480  210.1660  153.7420 C   0  0  2  0  0  3  0  0  0  0  0  0
  161.1130  209.4030  152.4180 C   0  0  1  0  0  3  0  0  0  0  0  0
  162.1220  206.8610  149.0190 C   0  0  2  0  0  3  0  0  0  0  0  0
  160.8040  206.1180  148.8290 C   0  0  0  0  0  2  0  0  0  0  0  0
  160.6660  206.0510  151.2740 O   0  0  0  0  0  0  0  0  0  0  0  0
  162.1410  207.5880  150.2850 N   0  0  0  0  0  0  0  0  0  0  0  0
  162.3480  207.8210  147.8720 C   0  0  0  0  0  1  0  0  0  0  0  0
  161.4970  207.1790  151.3350 C   0  0  0  0  0  0  0  0  0  0  0  0
  160.4790  205.2910  150.0780 C   0  0  2  0  0  3  0  0  0  0  0  0
  161.2060  203.9360  150.1710 C   0  0  1  0  0  3  0  0  0  0  0  0
  162.1650  202.0830  151.6360 C   0  0  0  0  0  1  0  0  0  0  0  0
  160.3420  203.4390  152.3580 O   0  0  0  0  0  1  0  0  0  0  0  0
  161.5110  203.4550  151.5960 C   0  0  2  0  0  3  0  0  0  0  0  0
  160.6810  202.8670  149.2610 C   0  0  0  0  0  0  0  0  0  0  0  0
  159.7120  202.1400  149.6170 O   0  0  0  0  0  0  0  0  0  0  0  0
  160.8310  201.7000  147.1000 C   0  0  0  0  0  1  0  0  0  0  0  0
  161.2560  202.7130  147.9990 O   0  0  0  0  0  0  0  0  0  0  0  0
  161.8790  210.1080  151.3300 C   0  0  0  0  0  0  0  0  0  0  0  0
  163.0890  209.9630  151.2600 O   0  0  0  0  0  0  0  0  0  0  0  0
  161.1790  211.0100  150.3590 C   0  0  0  0  0  2  0  0  0  0  0  0
  161.8000  210.7450  148.6710 S   0  0  0  0  0  0  0  0  0  0  0  0
  159.2490  212.3360  147.1370 C   0  0  0  0  0  3  0  0  0  0  0  0
  163.2740  214.2350  148.2610 F   0  0  0  0  0  0  0  0  0  0  0  0
  162.8950  213.1000  147.5680 C   0  0  0  0  0  0  0  0  0  0  0  0
  163.9500  212.2030  147.5420 F   0  0  0  0  0  0  0  0  0  0  0  0
  160.4830  213.4470  144.8480 C   0  0  0  0  0  3  0  0  0  0  0  0
  161.6100  212.5050  148.2150 C   0  0  1  0  0  3  0  0  0  0  0  0
  162.5340  213.4540  146.2340 O   0  0  0  0  0  0  0  0  0  0  0  0
  161.1990  213.1960  146.0180 C   0  0  0  0  0  0  0  0  0  0  0  0
  158.4990  212.5780  145.9730 C   0  0  0  0  0  3  0  0  0  0  0  0
  159.1150  213.1290  144.8320 C   0  0  0  0  0  3  0  0  0  0  0  0
  160.6090  212.6510  147.1220 C   0  0  0  0  0  0  0  0  0  0  0  0
  1 14  1  6  0  0  0
  1  6  1  0  0  0  0
  2  4  2  0  0  0  0
  6  3  1  1  0  0  0
  6  4  1  0  0  0  0
  7  5  1  6  0  0  0
  7  2  1  0  0  0  0
  8 24  1  6  0  0  0
  8  1  1  0  0  0  0
  8  7  1  0  0  0  0
  9 13  1  6  0  0  0
  9 12  1  0  0  0  0
 10  9  1  0  0  0  0
 10 15  1  0  0  0  0
 11 14  1  0  0  0  0
 12 14  2  0  0  0  0
 15 16  1  1  0  0  0
 15 11  1  0  0  0  0
 16 20  1  1  0  0  0
 16 19  1  0  0  0  0
 19 17  1  6  0  0  0
 19 18  1  0  0  0  0
 20 21  2  0  0  0  0
 22 23  1  0  0  0  0
 23 20  1  0  0  0  0
 25 24  2  0  0  0  0
 26 24  1  0  0  0  0
 27 26  1  0  0  0  0
 30 33  1  0  0  0  0
 30 29  1  0  0  0  0
 31 30  1  0  0  0  0
 32 35  1  0  0  0  0
 33 27  1  6  0  0  0
 34 30  1  0  0  0  0
 35 34  1  0  0  0  0
 35 38  2  0  0  0  0
 36 28  2  0  0  0  0
 37 32  2  0  0  0  0
 37 36  1  0  0  0  0
 38 28  1  0  0  0  0
 38 33  1  0  0  0  0
M  END
>  <MODEL>
7

>  <REMARK>
 VINA RESULT:      -6.0      3.972      8.658
  Name = 
  9 active torsions:
  status: ('A' for Active; 'I' for Inactive)
    1  A    between atoms: C_1  and  C_26
    2  A    between atoms: C_2  and  C_19
    3  A    between atoms: C_2  and  O_33
    4  A    between atoms: C_9  and  C_29
    5  A    between atoms: C_9  and  C_36
    6  A    between atoms: C_17  and  S_21
    7  A    between atoms: C_19  and  C_28
    8  A    between atoms: C_19  and  C_34
    9  A    between atoms: S_21  and  C_29
                            x       y       z     vdW  Elec       q    Type
                         _______ _______ _______ _____ _____    ______ ____

>  <TORSDO>
F 9

$$$$
=
 OpenBabel11072410443D

 38 41  0  0  1  0  0  0  0  0999 V2000
  161.9150  209.5570  151.1140 C   0  0  2  0  0  3  0  0  0  0  0  0
  162.0610  208.7370  148.3960 N   0  0  0  0  0  0  0  0  0  0  0  0
  162.7930  211.6100  150.2390 O   0  0  0  0  0  1  0  0  0  0  0  0
  162.1180  210.0030  148.6340 C   0  0  0  0  0  3  0  0  0  0  0  0
  161.0550  206.6410  148.8550 N   0  0  0  0  0  1  0  0  0  0  0  0
  161.8660  210.5960  149.9940 C   0  0  1  0  0  3  0  0  0  0  0  0
  161.8510  207.7220  149.4110 C   0  0  2  0  0  3  0  0  0  0  0  0
  161.1910  208.2760  150.6790 C   0  0  1  0  0  3  0  0  0  0  0  0
  161.5470  210.8780  154.6470 C   0  0  2  0  0  3  0  0  0  0  0  0
  160.0640  210.5760  154.8360 C   0  0  0  0  0  2  0  0  0  0  0  0
  159.9400  210.4320  152.3930 O   0  0  0  0  0  0  0  0  0  0  0  0
  162.0530  210.2910  153.4100 N   0  0  0  0  0  0  0  0  0  0  0  0
  162.3380  210.3540  155.8250 C   0  0  0  0  0  1  0  0  0  0  0  0
  161.3090  210.1300  152.3570 C   0  0  0  0  0  0  0  0  0  0  0  0
  159.2870  210.9300  153.5620 C   0  0  2  0  0  3  0  0  0  0  0  0
  158.9410  212.4220  153.4030 C   0  0  1  0  0  3  0  0  0  0  0  0
  159.7050  213.5800  151.2640 C   0  0  0  0  0  1  0  0  0  0  0  0
  157.4410  213.6730  152.0040 O   0  0  0  0  0  1  0  0  0  0  0  0
  158.5730  212.8590  151.9780 C   0  0  2  0  0  3  0  0  0  0  0  0
  158.0510  212.9880  154.4690 C   0  0  0  0  0  0  0  0  0  0  0  0
  158.2720  214.1360  154.9450 O   0  0  0  0  0  0  0  0  0  0  0  0
  156.8010  211.8420  156.2500 C   0  0  0  0  0  1  0  0  0  0  0  0
  156.9530  212.2420  154.8970 O   0  0  0  0  0  0  0  0  0  0  0  0
  161.2010  207.2370  151.7690 C   0  0  0  0  0  0  0  0  0  0  0  0
  160.7630  207.5230  152.8710 O   0  0  0  0  0  0  0  0  0  0  0  0
  161.7750  205.8740  151.5240 C   0  0  0  0  0  2  0  0  0  0  0  0
  160.4610  204.6880  151.1090 S   0  0  0  0  0  0  0  0  0  0  0  0
  161.4780  203.7010  148.0450 C   0  0  0  0  0  3  0  0  0  0  0  0
  162.6500  201.7000  152.0060 F   0  0  0  0  0  0  0  0  0  0  0  0
  161.4530  202.0640  151.4190 C   0  0  0  0  0  0  0  0  0  0  0  0
  160.4730  202.1630  152.3930 F   0  0  0  0  0  0  0  0  0  0  0  0
  160.7850  200.9600  148.0020 C   0  0  0  0  0  3  0  0  0  0  0  0
  161.6490  203.3860  150.6210 C   0  0  1  0  0  3  0  0  0  0  0  0
  161.0750  201.0790  150.4580 O   0  0  0  0  0  0  0  0  0  0  0  0
  161.0680  201.6260  149.1940 C   0  0  0  0  0  0  0  0  0  0  0  0
  161.1990  203.0580  146.8270 C   0  0  0  0  0  3  0  0  0  0  0  0
  160.8510  201.6930  146.8060 C   0  0  0  0  0  3  0  0  0  0  0  0
  161.3940  202.9520  149.2200 C   0  0  0  0  0  0  0  0  0  0  0  0
  1 14  1  1  0  0  0
  2  4  2  0  0  0  0
  2  7  1  0  0  0  0
  4  6  1  0  0  0  0
  6  3  1  1  0  0  0
  6  1  1  0  0  0  0
  7  5  1  6  0  0  0
  7  8  1  0  0  0  0
  8  1  1  0  0  0  0
  8 24  1  1  0  0  0
  9 10  1  0  0  0  0
  9 13  1  1  0  0  0
 11 15  1  0  0  0  0
 12  9  1  0  0  0  0
 14 11  1  0  0  0  0
 14 12  2  0  0  0  0
 15 16  1  6  0  0  0
 15 10  1  0  0  0  0
 16 20  1  1  0  0  0
 19 17  1  1  0  0  0
 19 18  1  0  0  0  0
 19 16  1  0  0  0  0
 20 23  1  0  0  0  0
 20 21  2  0  0  0  0
 23 22  1  0  0  0  0
 24 25  2  0  0  0  0
 26 24  1  0  0  0  0
 27 26  1  0  0  0  0
 28 38  1  0  0  0  0
 30 29  1  0  0  0  0
 30 31  1  0  0  0  0
 32 35  1  0  0  0  0
 33 27  1  1  0  0  0
 33 30  1  0  0  0  0
 34 30  1  0  0  0  0
 35 38  2  0  0  0  0
 35 34  1  0  0  0  0
 36 28  2  0  0  0  0
 37 36  1  0  0  0  0
 37 32  2  0  0  0  0
 38 33  1  0  0  0  0
M  END
>  <MODEL>
8

>  <REMARK>
 VINA RESULT:      -5.8      2.407      3.670
  Name = 
  9 active torsions:
  status: ('A' for Active; 'I' for Inactive)
    1  A    between atoms: C_1  and  C_26
    2  A    between atoms: C_2  and  C_19
    3  A    between atoms: C_2  and  O_33
    4  A    between atoms: C_9  and  C_29
    5  A    between atoms: C_9  and  C_36
    6  A    between atoms: C_17  and  S_21
    7  A    between atoms: C_19  and  C_28
    8  A    between atoms: C_19  and  C_34
    9  A    between atoms: S_21  and  C_29
                            x       y       z     vdW  Elec       q    Type
                         _______ _______ _______ _____ _____    ______ ____

>  <TORSDO>
F 9

$$$$
=
 OpenBabel11072410443D

 38 41  0  0  1  0  0  0  0  0999 V2000
  159.9430  211.5390  152.1520 C   0  0  2  0  0  3  0  0  0  0  0  0
  159.8740  211.1450  154.9670 N   0  0  0  0  0  0  0  0  0  0  0  0
  158.0260  212.9120  152.5900 O   0  0  0  0  0  1  0  0  0  0  0  0
  159.2070  212.1430  154.4940 C   0  0  0  0  0  3  0  0  0  0  0  0
  161.8650  209.8610  154.9500 N   0  0  0  0  0  1  0  0  0  0  0  0
  159.2990  212.5880  153.0590 C   0  0  1  0  0  3  0  0  0  0  0  0
  160.7100  210.2680  154.1680 C   0  0  2  0  0  3  0  0  0  0  0  0
  161.1560  210.9090  152.8490 C   0  0  1  0  0  3  0  0  0  0  0  0
  161.5670  212.0890  148.7720 C   0  0  2  0  0  3  0  0  0  0  0  0
  161.5380  213.6130  148.7650 C   0  0  0  0  0  2  0  0  0  0  0  0
  159.8280  213.4350  150.5110 O   0  0  0  0  0  0  0  0  0  0  0  0
  161.1700  211.5580  150.0730 N   0  0  0  0  0  0  0  0  0  0  0  0
  162.9510  211.5930  148.4160 C   0  0  0  0  0  1  0  0  0  0  0  0
  160.3300  212.1700  150.8500 C   0  0  0  0  0  0  0  0  0  0  0  0
  160.1970  214.1180  149.3110 C   0  0  2  0  0  3  0  0  0  0  0  0
  159.0370  214.1120  148.2990 C   0  0  1  0  0  3  0  0  0  0  0  0
  159.0150  214.4530  145.7730 C   0  0  0  0  0  1  0  0  0  0  0  0
  158.7310  212.2990  146.7530 O   0  0  0  0  0  1  0  0  0  0  0  0
  159.3740  213.5250  146.9220 C   0  0  2  0  0  3  0  0  0  0  0  0
  157.7130  213.6710  148.8480 C   0  0  0  0  0  0  0  0  0  0  0  0
  157.1850  212.5930  148.4570 O   0  0  0  0  0  0  0  0  0  0  0  0
  155.7400  214.2460  150.2000 C   0  0  0  0  0  1  0  0  0  0  0  0
  157.0940  214.4510  149.8240 O   0  0  0  0  0  0  0  0  0  0  0  0
  161.8280  209.8860  151.9730 C   0  0  0  0  0  0  0  0  0  0  0  0
  162.9660  210.0870  151.5820 O   0  0  0  0  0  0  0  0  0  0  0  0
  161.1020  208.6440  151.5480 C   0  0  0  0  0  2  0  0  0  0  0  0
  162.2730  207.3890  150.9450 S   0  0  0  0  0  0  0  0  0  0  0  0
  160.4900  204.5480  150.5620 C   0  0  0  0  0  3  0  0  0  0  0  0
  160.8690  207.8910  147.4390 F   0  0  0  0  0  0  0  0  0  0  0  0
  161.7680  207.1480  148.1800 C   0  0  0  0  0  0  0  0  0  0  0  0
  162.9800  207.8160  148.2360 F   0  0  0  0  0  0  0  0  0  0  0  0
  161.4790  203.5080  148.1260 C   0  0  0  0  0  3  0  0  0  0  0  0
  161.1680  206.8630  149.5870 C   0  0  1  0  0  3  0  0  0  0  0  0
  161.9520  205.8720  147.5670 O   0  0  0  0  0  0  0  0  0  0  0  0
  161.4970  204.8750  148.3990 C   0  0  0  0  0  0  0  0  0  0  0  0
  160.4570  203.1650  150.3160 C   0  0  0  0  0  3  0  0  0  0  0  0
  160.9520  202.6470  149.1030 C   0  0  0  0  0  3  0  0  0  0  0  0
  161.0290  205.3800  149.5780 C   0  0  0  0  0  0  0  0  0  0  0  0
  1 14  1  6  0  0  0
  1  8  1  0  0  0  0
  1  6  1  0  0  0  0
  4  2  2  0  0  0  0
  6  3  1  6  0  0  0
  6  4  1  0  0  0  0
  7  5  1  1  0  0  0
  7  2  1  0  0  0  0
  8 24  1  6  0  0  0
  8  7  1  0  0  0  0
  9 13  1  1  0  0  0
  9 12  1  0  0  0  0
 10  9  1  0  0  0  0
 10 15  1  0  0  0  0
 11 14  1  0  0  0  0
 12 14  2  0  0  0  0
 15 16  1  6  0  0  0
 15 11  1  0  0  0  0
 16 20  1  1  0  0  0
 18 19  1  0  0  0  0
 19 17  1  6  0  0  0
 19 16  1  0  0  0  0
 20 23  1  0  0  0  0
 21 20  2  0  0  0  0
 23 22  1  0  0  0  0
 25 24  2  0  0  0  0
 26 24  1  0  0  0  0
 27 26  1  0  0  0  0
 29 30  1  0  0  0  0
 30 31  1  0  0  0  0
 30 33  1  0  0  0  0
 32 35  2  0  0  0  0
 32 37  1  0  0  0  0
 33 27  1  1  0  0  0
 34 30  1  0  0  0  0
 34 35  1  0  0  0  0
 35 38  1  0  0  0  0
 36 28  1  0  0  0  0
 37 36  2  0  0  0  0
 38 33  1  0  0  0  0
 38 28  2  0  0  0  0
M  END
>  <MODEL>
9

>  <REMARK>
 VINA RESULT:      -5.6      1.925      4.701
  Name = 
  9 active torsions:
  status: ('A' for Active; 'I' for Inactive)
    1  A    between atoms: C_1  and  C_26
    2  A    between atoms: C_2  and  C_19
    3  A    between atoms: C_2  and  O_33
    4  A    between atoms: C_9  and  C_29
    5  A    between atoms: C_9  and  C_36
    6  A    between atoms: C_17  and  S_21
    7  A    between atoms: C_19  and  C_28
    8  A    between atoms: C_19  and  C_34
    9  A    between atoms: S_21  and  C_29
                            x       y       z     vdW  Elec       q    Type
                         _______ _______ _______ _____ _____    ______ ____

>  <TORSDO>
F 9

$$$$
