=
 OpenBabel11072411543D

 32 36  0  0  1  0  0  0  0  0999 V2000
  161.1730  207.8420  152.8150 C   0  0  0  0  0  0  0  0  0  0  0  0
  161.1870  206.3610  152.4830 C   0  0  2  0  0  3  0  0  0  0  0  0
  162.5790  205.8780  152.3710 N   0  0  0  0  0  2  0  0  0  0  0  0
  161.3250  208.7520  151.8310 C   0  0  0  0  0  0  0  0  0  0  0  0
  161.7620  206.0420  151.1560 C   0  0  2  0  0  0  0  0  0  0  0  0
  161.4270  208.2900  150.4100 C   0  0  0  0  0  2  0  0  0  0  0  0
  161.3630  210.1170  152.0890 O   0  0  0  0  0  1  0  0  0  0  0  0
  162.3000  207.1220  150.3250 N   0  0  0  0  0  2  0  0  0  0  0  0
  161.5080  204.7190  150.4940 C   0  0  0  0  0  0  0  0  0  0  0  0
  160.9960  202.3130  148.4470 C   0  0  2  0  0  3  0  0  0  0  0  0
  160.9590  202.2670  150.8820 C   0  0  0  0  0  2  0  0  0  0  0  0
  160.0910  202.1790  149.6510 C   0  0  0  0  0  2  0  0  0  0  0  0
  161.1470  201.8330  145.9960 C   0  0  0  0  0  2  0  0  0  0  0  0
  161.3280  203.7520  148.1050 C   0  0  0  0  0  0  0  0  0  0  0  0
  161.1990  203.6840  151.2870 C   0  0  0  0  0  3  0  0  0  0  0  0
  161.5670  204.7150  149.0080 C   0  0  0  0  0  3  0  0  0  0  0  0
  160.3660  201.5730  147.2730 C   0  0  0  0  0  2  0  0  0  0  0  0
  161.0250  203.3120  145.6700 C   0  0  0  0  0  2  0  0  0  0  0  0
  161.4890  204.1130  146.7570 O   0  0  0  0  0  0  0  0  0  0  0  0
  161.5580  209.3610  154.8190 N   0  0  0  0  0  2  0  0  0  0  0  0
  160.1080  207.5460  154.9080 O   0  0  0  0  0  0  0  0  0  0  0  0
  160.9370  208.2130  154.2310 C   0  0  0  0  0  0  0  0  0  0  0  0
  161.1090  209.9190  156.0860 C   0  0  0  0  0  2  0  0  0  0  0  0
  156.5980  211.9730  155.9540 C   0  0  0  0  0  0  0  0  0  0  0  0
  160.0680  211.7250  154.6900 C   0  0  0  0  0  2  0  0  0  0  0  0
  155.9120  211.7860  154.9130 O   0  0  0  0  0  0  0  0  0  0  0  0
  158.6650  211.4500  157.2610 C   0  0  0  0  0  2  0  0  0  0  0  0
  155.9840  212.4850  157.0930 O   0  0  0  0  0  1  0  0  0  0  0  0
  160.0920  211.9880  157.1820 C   0  0  0  0  0  2  0  0  0  0  0  0
  160.8440  211.4210  155.9720 C   0  0  0  0  0  3  0  0  0  0  0  0
  157.9860  211.6180  155.9790 N   0  0  0  0  0  0  0  0  0  0  0  0
  158.6510  211.1590  154.7590 C   0  0  0  0  0  2  0  0  0  0  0  0
  1 22  1  0  0  0  0
  2  3  1  1  0  0  0
  2  1  1  0  0  0  0
  4  7  1  0  0  0  0
  4  1  2  0  0  0  0
  5  9  1  6  0  0  0
  5  3  1  0  0  0  0
  5  2  1  0  0  0  0
  6  4  1  0  0  0  0
  8  6  1  0  0  0  0
  8  5  1  0  0  0  0
  9 15  2  0  0  0  0
 10 17  1  6  0  0  0
 10 12  1  0  0  0  0
 11 15  1  0  0  0  0
 12 11  1  0  0  0  0
 13 17  1  0  0  0  0
 14 10  1  0  0  0  0
 14 16  2  0  0  0  0
 16  9  1  0  0  0  0
 18 13  1  0  0  0  0
 18 19  1  0  0  0  0
 19 14  1  0  0  0  0
 20 23  1  0  0  0  0
 22 20  1  0  0  0  0
 22 21  2  0  0  0  0
 24 31  1  0  0  0  0
 24 28  1  0  0  0  0
 25 32  1  0  0  0  0
 25 30  1  0  0  0  0
 26 24  2  0  0  0  0
 29 27  1  0  0  0  0
 30 23  1  0  0  0  0
 30 29  1  0  0  0  0
 31 27  1  0  0  0  0
 32 31  1  0  0  0  0
M  END
>  <MODEL>
1

>  <REMARK>
 VINA RESULT:      -9.2      0.000      0.000
  Name = 
  4 active torsions:
  status: ('A' for Active; 'I' for Inactive)
    1  A    between atoms: C_1  and  C_32
    2  A    between atoms: C_4  and  C_23
    3  A    between atoms: C_4  and  N_28
    4  A    between atoms: C_5  and  C_22
                            x       y       z     vdW  Elec       q    Type
                         _______ _______ _______ _____ _____    ______ ____

>  <TORSDO>
F 4

$$$$
=
 OpenBabel11072411543D

 32 36  0  0  1  0  0  0  0  0999 V2000
  161.0670  208.6110  153.2950 C   0  0  0  0  0  0  0  0  0  0  0  0
  160.8490  207.3090  152.5450 C   0  0  2  0  0  3  0  0  0  0  0  0
  162.0680  206.4760  152.6080 N   0  0  0  0  0  2  0  0  0  0  0  0
  161.7030  209.6360  152.6910 C   0  0  0  0  0  0  0  0  0  0  0  0
  161.7060  207.1480  151.3490 C   0  0  2  0  0  0  0  0  0  0  0  0
  162.1160  209.5030  151.2570 C   0  0  0  0  0  2  0  0  0  0  0  0
  161.9650  210.8310  153.3490 O   0  0  0  0  0  1  0  0  0  0  0  0
  162.6930  208.1810  151.0230 N   0  0  0  0  0  2  0  0  0  0  0  0
  161.3730  206.1480  150.2800 C   0  0  0  0  0  0  0  0  0  0  0  0
  160.7820  203.5160  148.5580 C   0  0  2  0  0  3  0  0  0  0  0  0
  160.8810  205.8300  147.8050 C   0  0  0  0  0  2  0  0  0  0  0  0
  161.5940  204.5020  147.7470 C   0  0  0  0  0  2  0  0  0  0  0  0
  160.3640  201.0730  148.8970 C   0  0  0  0  0  2  0  0  0  0  0  0
  161.0580  203.5940  150.0470 C   0  0  0  0  0  0  0  0  0  0  0  0
  161.2580  206.6050  149.0250 C   0  0  0  0  0  3  0  0  0  0  0  0
  161.2660  204.7330  150.7250 C   0  0  0  0  0  3  0  0  0  0  0  0
  161.0130  202.1150  148.0030 C   0  0  0  0  0  2  0  0  0  0  0  0
  161.0700  201.1090  150.2420 C   0  0  0  0  0  2  0  0  0  0  0  0
  161.0130  202.4180  150.8120 O   0  0  0  0  0  0  0  0  0  0  0  0
  160.1820  209.9580  155.2630 N   0  0  0  0  0  2  0  0  0  0  0  0
  160.2470  207.6340  155.2890 O   0  0  0  0  0  0  0  0  0  0  0  0
  160.5110  208.7000  154.6670 C   0  0  0  0  0  0  0  0  0  0  0  0
  159.3580  210.0560  156.4590 C   0  0  0  0  0  2  0  0  0  0  0  0
  156.5650  213.3590  154.0340 C   0  0  0  0  0  0  0  0  0  0  0  0
  159.6890  212.4550  155.8030 C   0  0  0  0  0  2  0  0  0  0  0  0
  156.9880  213.7580  152.9150 O   0  0  0  0  0  0  0  0  0  0  0  0
  156.8250  211.8030  155.9740 C   0  0  0  0  0  2  0  0  0  0  0  0
  155.2510  213.6300  154.4030 O   0  0  0  0  0  1  0  0  0  0  0  0
  157.7100  211.8520  157.2180 C   0  0  0  0  0  2  0  0  0  0  0  0
  159.1690  211.5130  156.8890 C   0  0  0  0  0  3  0  0  0  0  0  0
  157.4150  212.5940  154.8980 N   0  0  0  0  0  0  0  0  0  0  0  0
  158.8200  212.3810  154.5490 C   0  0  0  0  0  2  0  0  0  0  0  0
  1 22  1  0  0  0  0
  2  3  1  1  0  0  0
  2  1  1  0  0  0  0
  4  1  2  0  0  0  0
  4  7  1  0  0  0  0
  5  9  1  6  0  0  0
  5  2  1  0  0  0  0
  5  3  1  0  0  0  0
  6  4  1  0  0  0  0
  8  6  1  0  0  0  0
  8  5  1  0  0  0  0
  9 16  1  0  0  0  0
 10 12  1  6  0  0  0
 10 14  1  0  0  0  0
 11 15  1  0  0  0  0
 12 11  1  0  0  0  0
 13 18  1  0  0  0  0
 14 16  2  0  0  0  0
 14 19  1  0  0  0  0
 15  9  2  0  0  0  0
 17 10  1  0  0  0  0
 17 13  1  0  0  0  0
 18 19  1  0  0  0  0
 20 23  1  0  0  0  0
 22 20  1  0  0  0  0
 22 21  2  0  0  0  0
 23 30  1  0  0  0  0
 24 28  1  0  0  0  0
 24 31  1  0  0  0  0
 25 30  1  0  0  0  0
 26 24  2  0  0  0  0
 27 29  1  0  0  0  0
 30 29  1  0  0  0  0
 31 27  1  0  0  0  0
 32 31  1  0  0  0  0
 32 25  1  0  0  0  0
M  END
>  <MODEL>
2

>  <REMARK>
 VINA RESULT:      -9.1      1.574      2.350
  Name = 
  4 active torsions:
  status: ('A' for Active; 'I' for Inactive)
    1  A    between atoms: C_1  and  C_32
    2  A    between atoms: C_4  and  C_23
    3  A    between atoms: C_4  and  N_28
    4  A    between atoms: C_5  and  C_22
                            x       y       z     vdW  Elec       q    Type
                         _______ _______ _______ _____ _____    ______ ____

>  <TORSDO>
F 4

$$$$
=
 OpenBabel11072411543D

 32 36  0  0  1  0  0  0  0  0999 V2000
  161.3710  206.7960  150.1840 C   0  0  0  0  0  0  0  0  0  0  0  0
  161.1440  208.0870  150.9500 C   0  0  2  0  0  3  0  0  0  0  0  0
  162.3950  208.5100  151.6150 N   0  0  0  0  0  2  0  0  0  0  0  0
  161.3310  205.6140  150.8330 C   0  0  0  0  0  0  0  0  0  0  0  0
  161.2910  207.9550  152.4170 C   0  0  2  0  0  0  0  0  0  0  0  0
  160.9850  205.5860  152.2900 C   0  0  0  0  0  2  0  0  0  0  0  0
  161.5750  204.4090  150.1850 O   0  0  0  0  0  1  0  0  0  0  0  0
  161.6800  206.6630  152.9910 N   0  0  0  0  0  2  0  0  0  0  0  0
  160.7320  208.9870  153.3530 C   0  0  0  0  0  0  0  0  0  0  0  0
  159.4550  211.5890  154.7090 C   0  0  2  0  0  3  0  0  0  0  0  0
  160.3400  209.5950  155.7910 C   0  0  0  0  0  2  0  0  0  0  0  0
  160.5940  211.0630  155.5540 C   0  0  0  0  0  2  0  0  0  0  0  0
  158.2550  213.6850  154.0530 C   0  0  0  0  0  2  0  0  0  0  0  0
  159.6350  211.3230  153.2270 C   0  0  0  0  0  0  0  0  0  0  0  0
  160.8580  208.7580  154.6670 C   0  0  0  0  0  3  0  0  0  0  0  0
  160.1470  210.1950  152.7120 C   0  0  0  0  0  3  0  0  0  0  0  0
  159.2650  213.0720  155.0090 C   0  0  0  0  0  2  0  0  0  0  0  0
  158.8390  213.6140  152.6520 C   0  0  0  0  0  2  0  0  0  0  0  0
  159.1630  212.2680  152.3020 O   0  0  0  0  0  0  0  0  0  0  0  0
  160.8420  206.1050  147.7940 N   0  0  0  0  0  2  0  0  0  0  0  0
  162.3670  207.7910  148.2810 O   0  0  0  0  0  0  0  0  0  0  0  0
  161.5790  206.9090  148.7200 C   0  0  0  0  0  0  0  0  0  0  0  0
  160.7960  206.4100  146.3710 C   0  0  0  0  0  2  0  0  0  0  0  0
  160.6940  201.4850  145.7930 C   0  0  0  0  0  0  0  0  0  0  0  0
  162.5390  204.6110  146.5230 C   0  0  0  0  0  2  0  0  0  0  0  0
  160.9300  200.7820  146.8120 O   0  0  0  0  0  1  0  0  0  0  0  0
  160.2980  203.7550  144.8200 C   0  0  0  0  0  2  0  0  0  0  0  0
  160.1570  200.8840  144.6590 O   0  0  0  0  0  0  0  0  0  0  0  0
  161.2520  204.8670  144.3890 C   0  0  0  0  0  2  0  0  0  0  0  0
  161.8420  205.6060  145.5950 C   0  0  0  0  0  3  0  0  0  0  0  0
  160.9330  202.8980  145.8170 N   0  0  0  0  0  0  0  0  0  0  0  0
  161.5750  203.5170  146.9780 C   0  0  0  0  0  2  0  0  0  0  0  0
  1  4  2  0  0  0  0
  2  1  1  6  0  0  0
  2  3  1  0  0  0  0
  2  5  1  0  0  0  0
  3  5  1  0  0  0  0
  4  6  1  0  0  0  0
  5  8  1  0  0  0  0
  5  9  1  1  0  0  0
  6  8  1  0  0  0  0
  7  4  1  0  0  0  0
  9 15  2  0  0  0  0
 10 17  1  6  0  0  0
 10 12  1  0  0  0  0
 12 11  1  0  0  0  0
 13 17  1  0  0  0  0
 14 10  1  0  0  0  0
 15 11  1  0  0  0  0
 16 14  2  0  0  0  0
 16  9  1  0  0  0  0
 18 13  1  0  0  0  0
 19 18  1  0  0  0  0
 19 14  1  0  0  0  0
 20 22  1  0  0  0  0
 21 22  2  0  0  0  0
 22  1  1  0  0  0  0
 23 20  1  0  0  0  0
 24 31  1  0  0  0  0
 24 26  1  0  0  0  0
 25 32  1  0  0  0  0
 27 31  1  0  0  0  0
 28 24  2  0  0  0  0
 29 27  1  0  0  0  0
 29 30  1  0  0  0  0
 30 23  1  0  0  0  0
 30 25  1  0  0  0  0
 31 32  1  0  0  0  0
M  END
>  <MODEL>
3

>  <REMARK>
 VINA RESULT:      -9.0      2.688     10.138
  Name = 
  4 active torsions:
  status: ('A' for Active; 'I' for Inactive)
    1  A    between atoms: C_1  and  C_32
    2  A    between atoms: C_4  and  C_23
    3  A    between atoms: C_4  and  N_28
    4  A    between atoms: C_5  and  C_22
                            x       y       z     vdW  Elec       q    Type
                         _______ _______ _______ _____ _____    ______ ____

>  <TORSDO>
F 4

$$$$
=
 OpenBabel11072411543D

 32 36  0  0  1  0  0  0  0  0999 V2000
  161.9420  208.6550  150.0440 C   0  0  0  0  0  0  0  0  0  0  0  0
  161.7680  207.2390  149.5240 C   0  0  2  0  0  3  0  0  0  0  0  0
  160.3300  206.9030  149.4380 N   0  0  0  0  0  2  0  0  0  0  0  0
  161.8880  208.8940  151.3700 C   0  0  0  0  0  0  0  0  0  0  0  0
  161.1590  206.3060  150.5000 C   0  0  2  0  0  0  0  0  0  0  0  0
  161.7340  207.7470  152.3200 C   0  0  0  0  0  2  0  0  0  0  0  0
  161.9990  210.1780  151.8920 O   0  0  0  0  0  1  0  0  0  0  0  0
  160.7400  206.8060  151.8120 N   0  0  0  0  0  2  0  0  0  0  0  0
  161.2670  204.8190  150.3280 C   0  0  0  0  0  0  0  0  0  0  0  0
  161.3490  201.8120  149.2350 C   0  0  2  0  0  3  0  0  0  0  0  0
  161.5240  202.5950  151.5350 C   0  0  0  0  0  2  0  0  0  0  0  0
  160.6280  201.8680  150.5640 C   0  0  0  0  0  2  0  0  0  0  0  0
  161.4400  200.5770  147.0610 C   0  0  0  0  0  2  0  0  0  0  0  0
  161.1980  203.0800  148.4180 C   0  0  0  0  0  0  0  0  0  0  0  0
  161.3530  204.0760  151.4400 C   0  0  0  0  0  3  0  0  0  0  0  0
  161.2050  204.3210  148.9280 C   0  0  0  0  0  3  0  0  0  0  0  0
  160.8810  200.5770  148.4740 C   0  0  0  0  0  2  0  0  0  0  0  0
  160.8470  201.7680  146.3270 C   0  0  0  0  0  2  0  0  0  0  0  0
  161.1320  202.9850  147.0190 O   0  0  0  0  0  0  0  0  0  0  0  0
  162.0450  211.0980  149.3460 N   0  0  0  0  0  2  0  0  0  0  0  0
  162.6940  209.3810  147.9210 O   0  0  0  0  0  0  0  0  0  0  0  0
  162.2180  209.7120  149.0410 C   0  0  0  0  0  0  0  0  0  0  0  0
  162.5980  212.1500  148.5050 C   0  0  0  0  0  2  0  0  0  0  0  0
  160.3630  213.2540  144.2180 C   0  0  0  0  0  0  0  0  0  0  0  0
  162.1360  214.3000  147.2950 C   0  0  0  0  0  2  0  0  0  0  0  0
  161.0810  213.7460  143.3060 O   0  0  0  0  0  0  0  0  0  0  0  0
  160.2260  212.2130  146.4880 C   0  0  0  0  0  2  0  0  0  0  0  0
  159.0870  212.7930  143.9080 O   0  0  0  0  0  1  0  0  0  0  0  0
  160.2090  212.8120  147.8920 C   0  0  0  0  0  2  0  0  0  0  0  0
  161.6010  213.2960  148.3170 C   0  0  0  0  0  3  0  0  0  0  0  0
  160.8730  213.1270  145.5510 N   0  0  0  0  0  0  0  0  0  0  0  0
  162.1810  213.6870  145.8960 C   0  0  0  0  0  2  0  0  0  0  0  0
  1  4  2  0  0  0  0
  2  3  1  6  0  0  0
  2  1  1  0  0  0  0
  2  5  1  0  0  0  0
  3  5  1  0  0  0  0
  4  7  1  0  0  0  0
  4  6  1  0  0  0  0
  5  9  1  6  0  0  0
  5  8  1  0  0  0  0
  8  6  1  0  0  0  0
  9 15  2  0  0  0  0
 10 17  1  6  0  0  0
 10 12  1  0  0  0  0
 12 11  1  0  0  0  0
 13 17  1  0  0  0  0
 14 16  2  0  0  0  0
 14 10  1  0  0  0  0
 15 11  1  0  0  0  0
 16  9  1  0  0  0  0
 18 19  1  0  0  0  0
 18 13  1  0  0  0  0
 19 14  1  0  0  0  0
 21 22  2  0  0  0  0
 22 20  1  0  0  0  0
 22  1  1  0  0  0  0
 23 20  1  0  0  0  0
 24 31  1  0  0  0  0
 25 30  1  0  0  0  0
 26 24  2  0  0  0  0
 27 29  1  0  0  0  0
 28 24  1  0  0  0  0
 29 30  1  0  0  0  0
 30 23  1  0  0  0  0
 31 32  1  0  0  0  0
 31 27  1  0  0  0  0
 32 25  1  0  0  0  0
M  END
>  <MODEL>
4

>  <REMARK>
 VINA RESULT:      -9.0      4.206      6.372
  Name = 
  4 active torsions:
  status: ('A' for Active; 'I' for Inactive)
    1  A    between atoms: C_1  and  C_32
    2  A    between atoms: C_4  and  C_23
    3  A    between atoms: C_4  and  N_28
    4  A    between atoms: C_5  and  C_22
                            x       y       z     vdW  Elec       q    Type
                         _______ _______ _______ _____ _____    ______ ____

>  <TORSDO>
F 4

$$$$
=
 OpenBabel11072411543D

 32 36  0  0  1  0  0  0  0  0999 V2000
  161.2750  207.7950  153.0180 C   0  0  0  0  0  0  0  0  0  0  0  0
  160.8170  209.0760  152.3430 C   0  0  2  0  0  3  0  0  0  0  0  0
  161.8560  210.1190  152.4740 N   0  0  0  0  0  2  0  0  0  0  0  0
  161.1360  207.6530  154.3520 C   0  0  0  0  0  0  0  0  0  0  0  0
  160.6200  210.2130  153.2710 C   0  0  2  0  0  0  0  0  0  0  0  0
  160.4590  208.7310  155.1410 C   0  0  0  0  0  2  0  0  0  0  0  0
  161.5800  206.5190  155.0220 O   0  0  0  0  0  1  0  0  0  0  0  0
  160.9210  210.0430  154.6950 N   0  0  0  0  0  2  0  0  0  0  0  0
  159.8110  211.4130  152.8720 C   0  0  0  0  0  0  0  0  0  0  0  0
  157.5770  213.6740  152.5000 C   0  0  2  0  0  3  0  0  0  0  0  0
  159.6930  213.4230  151.3200 C   0  0  0  0  0  2  0  0  0  0  0  0
  158.1960  213.3230  151.1650 C   0  0  0  0  0  2  0  0  0  0  0  0
  155.4580  214.4530  153.5770 C   0  0  0  0  0  2  0  0  0  0  0  0
  157.5500  212.5110  153.4720 C   0  0  0  0  0  0  0  0  0  0  0  0
  160.2770  212.1600  151.8620 C   0  0  0  0  0  3  0  0  0  0  0  0
  158.5350  211.6090  153.6100 C   0  0  0  0  0  3  0  0  0  0  0  0
  156.1890  214.2560  152.2600 C   0  0  0  0  0  2  0  0  0  0  0  0
  155.2340  213.0830  154.1950 C   0  0  0  0  0  2  0  0  0  0  0  0
  156.4730  212.3920  154.3650 O   0  0  0  0  0  0  0  0  0  0  0  0
  161.2760  205.4040  152.1530 N   0  0  0  0  0  2  0  0  0  0  0  0
  162.7200  207.0200  151.3110 O   0  0  0  0  0  0  0  0  0  0  0  0
  161.8160  206.7280  152.1420 C   0  0  0  0  0  0  0  0  0  0  0  0
  161.5700  204.4400  151.1020 C   0  0  0  0  0  2  0  0  0  0  0  0
  161.9200  204.6970  146.1620 C   0  0  0  0  0  0  0  0  0  0  0  0
  160.2030  205.5660  149.3250 C   0  0  0  0  0  2  0  0  0  0  0  0
  162.1640  205.8290  145.6620 O   0  0  0  0  0  1  0  0  0  0  0  0
  161.6900  203.2840  148.2130 C   0  0  0  0  0  2  0  0  0  0  0  0
  162.0360  203.5610  145.3680 O   0  0  0  0  0  0  0  0  0  0  0  0
  160.5400  203.0860  149.1980 C   0  0  0  0  0  2  0  0  0  0  0  0
  160.3890  204.2860  150.1400 C   0  0  0  0  0  3  0  0  0  0  0  0
  161.5730  204.5790  147.5470 N   0  0  0  0  0  0  0  0  0  0  0  0
  161.3690  205.7780  148.3620 C   0  0  0  0  0  2  0  0  0  0  0  0
  1  4  2  0  0  0  0
  2  3  1  6  0  0  0
  2  1  1  0  0  0  0
  2  5  1  0  0  0  0
  3  5  1  0  0  0  0
  4  7  1  0  0  0  0
  4  6  1  0  0  0  0
  5  9  1  6  0  0  0
  5  8  1  0  0  0  0
  8  6  1  0  0  0  0
  9 16  1  0  0  0  0
 10 12  1  6  0  0  0
 10 14  1  0  0  0  0
 11 15  1  0  0  0  0
 12 11  1  0  0  0  0
 13 18  1  0  0  0  0
 14 16  2  0  0  0  0
 14 19  1  0  0  0  0
 15  9  2  0  0  0  0
 17 10  1  0  0  0  0
 17 13  1  0  0  0  0
 18 19  1  0  0  0  0
 21 22  2  0  0  0  0
 22 20  1  0  0  0  0
 22  1  1  0  0  0  0
 23 20  1  0  0  0  0
 24 31  1  0  0  0  0
 25 30  1  0  0  0  0
 26 24  1  0  0  0  0
 27 29  1  0  0  0  0
 28 24  2  0  0  0  0
 29 30  1  0  0  0  0
 30 23  1  0  0  0  0
 31 27  1  0  0  0  0
 31 32  1  0  0  0  0
 32 25  1  0  0  0  0
M  END
>  <MODEL>
5

>  <REMARK>
 VINA RESULT:      -8.6      2.282      9.738
  Name = 
  4 active torsions:
  status: ('A' for Active; 'I' for Inactive)
    1  A    between atoms: C_1  and  C_32
    2  A    between atoms: C_4  and  C_23
    3  A    between atoms: C_4  and  N_28
    4  A    between atoms: C_5  and  C_22
                            x       y       z     vdW  Elec       q    Type
                         _______ _______ _______ _____ _____    ______ ____

>  <TORSDO>
F 4

$$$$
=
 OpenBabel11072411543D

 32 36  0  0  1  0  0  0  0  0999 V2000
  161.2220  208.1000  151.7010 C   0  0  0  0  0  0  0  0  0  0  0  0
  161.0830  206.5940  151.5700 C   0  0  2  0  0  3  0  0  0  0  0  0
  162.3880  205.9410  151.8070 N   0  0  0  0  0  2  0  0  0  0  0  0
  161.6820  208.8240  150.6600 C   0  0  0  0  0  0  0  0  0  0  0  0
  161.8410  206.0100  150.4400 C   0  0  2  0  0  0  0  0  0  0  0  0
  161.9780  208.1410  149.3610 C   0  0  0  0  0  2  0  0  0  0  0  0
  161.8680  210.1990  150.7440 O   0  0  0  0  0  1  0  0  0  0  0  0
  162.6740  206.8800  149.6050 N   0  0  0  0  0  2  0  0  0  0  0  0
  161.5260  204.6410  149.9140 C   0  0  0  0  0  0  0  0  0  0  0  0
  160.8540  202.0750  148.1230 C   0  0  2  0  0  3  0  0  0  0  0  0
  160.9580  202.2450  150.5500 C   0  0  0  0  0  2  0  0  0  0  0  0
  160.0190  202.0680  149.3840 C   0  0  0  0  0  2  0  0  0  0  0  0
  160.8530  201.3770  145.7200 C   0  0  0  0  0  2  0  0  0  0  0  0
  161.1910  203.4710  147.6350 C   0  0  0  0  0  0  0  0  0  0  0  0
  161.2460  203.6870  150.8130 C   0  0  0  0  0  3  0  0  0  0  0  0
  161.4990  204.5040  148.4340 C   0  0  0  0  0  3  0  0  0  0  0  0
  160.1440  201.2480  147.0570 C   0  0  0  0  0  2  0  0  0  0  0  0
  160.7390  202.8240  145.2700 C   0  0  0  0  0  2  0  0  0  0  0  0
  161.2790  203.7080  146.2540 O   0  0  0  0  0  0  0  0  0  0  0  0
  160.2810  210.0460  153.0400 N   0  0  0  0  0  2  0  0  0  0  0  0
  160.7820  208.0000  154.0240 O   0  0  0  0  0  0  0  0  0  0  0  0
  160.7840  208.7090  152.9800 C   0  0  0  0  0  0  0  0  0  0  0  0
  159.5640  210.5510  154.2020 C   0  0  0  0  0  2  0  0  0  0  0  0
  156.3400  213.8930  152.4610 C   0  0  0  0  0  0  0  0  0  0  0  0
  159.8150  212.7180  152.9620 C   0  0  0  0  0  2  0  0  0  0  0  0
  156.2730  214.0290  151.2100 O   0  0  0  0  0  0  0  0  0  0  0  0
  157.2590  212.6350  154.4170 C   0  0  0  0  0  2  0  0  0  0  0  0
  155.3500  214.4530  153.2620 O   0  0  0  0  0  1  0  0  0  0  0  0
  158.5960  212.7140  155.1520 C   0  0  0  0  0  2  0  0  0  0  0  0
  159.7260  212.0670  154.3430 C   0  0  0  0  0  3  0  0  0  0  0  0
  157.3990  213.1290  153.0500 N   0  0  0  0  0  0  0  0  0  0  0  0
  158.4860  212.6100  152.2170 C   0  0  0  0  0  2  0  0  0  0  0  0
  1 22  1  0  0  0  0
  2  1  1  6  0  0  0
  2  3  1  0  0  0  0
  4  7  1  0  0  0  0
  4  1  2  0  0  0  0
  5  9  1  6  0  0  0
  5  2  1  0  0  0  0
  5  3  1  0  0  0  0
  6  8  1  0  0  0  0
  6  4  1  0  0  0  0
  8  5  1  0  0  0  0
  9 15  2  0  0  0  0
 10 17  1  6  0  0  0
 10 12  1  0  0  0  0
 11 15  1  0  0  0  0
 12 11  1  0  0  0  0
 13 17  1  0  0  0  0
 14 10  1  0  0  0  0
 14 16  2  0  0  0  0
 16  9  1  0  0  0  0
 18 13  1  0  0  0  0
 18 19  1  0  0  0  0
 19 14  1  0  0  0  0
 20 23  1  0  0  0  0
 22 20  1  0  0  0  0
 22 21  2  0  0  0  0
 23 30  1  0  0  0  0
 24 31  1  0  0  0  0
 24 28  1  0  0  0  0
 25 30  1  0  0  0  0
 26 24  2  0  0  0  0
 27 29  1  0  0  0  0
 30 29  1  0  0  0  0
 31 27  1  0  0  0  0
 32 25  1  0  0  0  0
 32 31  1  0  0  0  0
M  END
>  <MODEL>
6

>  <REMARK>
 VINA RESULT:      -8.5      1.715      1.993
  Name = 
  4 active torsions:
  status: ('A' for Active; 'I' for Inactive)
    1  A    between atoms: C_1  and  C_32
    2  A    between atoms: C_4  and  C_23
    3  A    between atoms: C_4  and  N_28
    4  A    between atoms: C_5  and  C_22
                            x       y       z     vdW  Elec       q    Type
                         _______ _______ _______ _____ _____    ______ ____

>  <TORSDO>
F 4

$$$$
=
 OpenBabel11072411543D

 32 36  0  0  1  0  0  0  0  0999 V2000
  161.5320  208.4810  152.1810 C   0  0  0  0  0  0  0  0  0  0  0  0
  161.1170  209.8000  152.8070 C   0  0  2  0  0  3  0  0  0  0  0  0
  162.2110  210.3280  153.6510 N   0  0  0  0  0  2  0  0  0  0  0  0
  161.4280  207.3390  152.8910 C   0  0  0  0  0  0  0  0  0  0  0  0
  161.0060  209.7620  154.2830 C   0  0  2  0  0  0  0  0  0  0  0  0
  160.8310  207.3770  154.2640 C   0  0  0  0  0  2  0  0  0  0  0  0
  161.8350  206.1130  152.3780 O   0  0  0  0  0  1  0  0  0  0  0  0
  161.3420  208.5300  155.0010 N   0  0  0  0  0  2  0  0  0  0  0  0
  160.2460  210.8150  155.0350 C   0  0  0  0  0  0  0  0  0  0  0  0
  158.1080  212.9480  156.0950 C   0  0  2  0  0  3  0  0  0  0  0  0
  160.3470  212.4970  156.9400 C   0  0  0  0  0  2  0  0  0  0  0  0
  159.5070  213.5100  156.2030 C   0  0  0  0  0  2  0  0  0  0  0  0
  155.7180  213.5910  155.7300 C   0  0  0  0  0  2  0  0  0  0  0  0
  157.9400  211.9770  154.9420 C   0  0  0  0  0  0  0  0  0  0  0  0
  160.8940  211.4580  156.0170 C   0  0  0  0  0  3  0  0  0  0  0  0
  158.8610  211.0780  154.5620 C   0  0  0  0  0  3  0  0  0  0  0  0
  157.1170  214.1040  156.0230 C   0  0  0  0  0  2  0  0  0  0  0  0
  155.7320  212.9670  154.3440 C   0  0  0  0  0  2  0  0  0  0  0  0
  156.7130  211.9320  154.2610 O   0  0  0  0  0  0  0  0  0  0  0  0
  162.3870  207.3310  150.0800 N   0  0  0  0  0  2  0  0  0  0  0  0
  161.9560  209.6140  150.1470 O   0  0  0  0  0  0  0  0  0  0  0  0
  161.9920  208.5190  150.7710 C   0  0  0  0  0  0  0  0  0  0  0  0
  162.5390  207.2930  148.6320 C   0  0  0  0  0  2  0  0  0  0  0  0
  160.9680  202.6160  148.1230 C   0  0  0  0  0  0  0  0  0  0  0  0
  161.5270  206.0020  146.7330 C   0  0  0  0  0  2  0  0  0  0  0  0
  161.6040  201.8810  147.3200 O   0  0  0  0  0  0  0  0  0  0  0  0
  160.7940  204.8060  149.3190 C   0  0  0  0  0  2  0  0  0  0  0  0
  160.0670  202.0380  149.0110 O   0  0  0  0  0  1  0  0  0  0  0  0
  160.2600  206.1710  148.8890 C   0  0  0  0  0  2  0  0  0  0  0  0
  161.2330  206.8870  147.9450 C   0  0  0  0  0  3  0  0  0  0  0  0
  161.2060  204.0290  148.1530 N   0  0  0  0  0  0  0  0  0  0  0  0
  162.0900  204.6490  147.1650 C   0  0  0  0  0  2  0  0  0  0  0  0
  1  4  2  0  0  0  0
  2  1  1  1  0  0  0
  2  3  1  0  0  0  0
  2  5  1  0  0  0  0
  3  5  1  0  0  0  0
  4  6  1  0  0  0  0
  5  8  1  0  0  0  0
  5  9  1  1  0  0  0
  6  8  1  0  0  0  0
  7  4  1  0  0  0  0
  9 15  2  0  0  0  0
 10 17  1  6  0  0  0
 10 12  1  0  0  0  0
 12 11  1  0  0  0  0
 13 17  1  0  0  0  0
 14 10  1  0  0  0  0
 15 11  1  0  0  0  0
 16 14  2  0  0  0  0
 16  9  1  0  0  0  0
 18 13  1  0  0  0  0
 19 18  1  0  0  0  0
 19 14  1  0  0  0  0
 20 22  1  0  0  0  0
 21 22  2  0  0  0  0
 22  1  1  0  0  0  0
 23 20  1  0  0  0  0
 24 31  1  0  0  0  0
 24 28  1  0  0  0  0
 25 32  1  0  0  0  0
 25 30  1  0  0  0  0
 26 24  2  0  0  0  0
 29 27  1  0  0  0  0
 30 23  1  0  0  0  0
 30 29  1  0  0  0  0
 31 27  1  0  0  0  0
 32 31  1  0  0  0  0
M  END
>  <MODEL>
7

>  <REMARK>
 VINA RESULT:      -8.3      1.875      9.880
  Name = 
  4 active torsions:
  status: ('A' for Active; 'I' for Inactive)
    1  A    between atoms: C_1  and  C_32
    2  A    between atoms: C_4  and  C_23
    3  A    between atoms: C_4  and  N_28
    4  A    between atoms: C_5  and  C_22
                            x       y       z     vdW  Elec       q    Type
                         _______ _______ _______ _____ _____    ______ ____

>  <TORSDO>
F 4

$$$$
=
 OpenBabel11072411543D

 32 36  0  0  1  0  0  0  0  0999 V2000
  161.0260  208.3380  152.9660 C   0  0  0  0  0  0  0  0  0  0  0  0
  160.3910  209.7130  152.8580 C   0  0  2  0  0  3  0  0  0  0  0  0
  161.3390  210.7480  153.3250 N   0  0  0  0  0  2  0  0  0  0  0  0
  161.0260  207.6910  154.1490 C   0  0  0  0  0  0  0  0  0  0  0  0
  160.1790  210.3870  154.1590 C   0  0  2  0  0  0  0  0  0  0  0  0
  160.3300  208.3040  155.3250 C   0  0  0  0  0  2  0  0  0  0  0  0
  161.6310  206.4500  154.3100 O   0  0  0  0  0  1  0  0  0  0  0  0
  160.6260  209.7330  155.3920 N   0  0  0  0  0  2  0  0  0  0  0  0
  159.2310  211.5430  154.2930 C   0  0  0  0  0  0  0  0  0  0  0  0
  156.8720  213.5550  155.0880 C   0  0  2  0  0  3  0  0  0  0  0  0
  158.5690  213.8140  153.3610 C   0  0  0  0  0  2  0  0  0  0  0  0
  157.0980  213.5760  153.5920 C   0  0  0  0  0  2  0  0  0  0  0  0
  155.1160  213.8310  156.8480 C   0  0  0  0  0  2  0  0  0  0  0  0
  157.1850  212.2140  155.7220 C   0  0  0  0  0  0  0  0  0  0  0  0
  159.3480  212.5400  153.4060 C   0  0  0  0  0  3  0  0  0  0  0  0
  158.2110  211.4250  155.3700 C   0  0  0  0  0  3  0  0  0  0  0  0
  155.4460  214.0100  155.3760 C   0  0  0  0  0  2  0  0  0  0  0  0
  155.1490  212.3420  157.1540 C   0  0  0  0  0  2  0  0  0  0  0  0
  156.4170  211.7800  156.8150 O   0  0  0  0  0  0  0  0  0  0  0  0
  161.7250  206.3370  151.5610 N   0  0  0  0  0  2  0  0  0  0  0  0
  161.8470  208.5140  150.7530 O   0  0  0  0  0  0  0  0  0  0  0  0
  161.5780  207.7510  151.7220 C   0  0  0  0  0  0  0  0  0  0  0  0
  161.9620  205.7270  150.2610 C   0  0  0  0  0  2  0  0  0  0  0  0
  161.3080  204.8060  145.4320 C   0  0  0  0  0  0  0  0  0  0  0  0
  160.1050  206.2030  148.6430 C   0  0  0  0  0  2  0  0  0  0  0  0
  161.2500  205.8010  144.6600 O   0  0  0  0  0  0  0  0  0  0  0  0
  161.7250  203.9220  147.7340 C   0  0  0  0  0  2  0  0  0  0  0  0
  161.4650  203.5330  144.8940 O   0  0  0  0  0  1  0  0  0  0  0  0
  160.8380  203.8300  148.9740 C   0  0  0  0  0  2  0  0  0  0  0  0
  160.6650  205.1960  149.6480 C   0  0  0  0  0  3  0  0  0  0  0  0
  161.2590  204.9880  146.8530 N   0  0  0  0  0  0  0  0  0  0  0  0
  161.0100  206.3160  147.4170 C   0  0  0  0  0  2  0  0  0  0  0  0
  1  4  2  0  0  0  0
  2  1  1  1  0  0  0
  2  3  1  0  0  0  0
  2  5  1  0  0  0  0
  3  5  1  0  0  0  0
  4  7  1  0  0  0  0
  4  6  1  0  0  0  0
  5  9  1  1  0  0  0
  5  8  1  0  0  0  0
  6  8  1  0  0  0  0
  9 16  1  0  0  0  0
 10 12  1  6  0  0  0
 10 17  1  0  0  0  0
 10 14  1  0  0  0  0
 11 15  1  0  0  0  0
 11 12  1  0  0  0  0
 13 18  1  0  0  0  0
 14 19  1  0  0  0  0
 15  9  2  0  0  0  0
 16 14  2  0  0  0  0
 17 13  1  0  0  0  0
 19 18  1  0  0  0  0
 20 22  1  0  0  0  0
 21 22  2  0  0  0  0
 22  1  1  0  0  0  0
 23 20  1  0  0  0  0
 24 31  1  0  0  0  0
 25 30  1  0  0  0  0
 26 24  2  0  0  0  0
 27 29  1  0  0  0  0
 28 24  1  0  0  0  0
 29 30  1  0  0  0  0
 30 23  1  0  0  0  0
 31 32  1  0  0  0  0
 31 27  1  0  0  0  0
 32 25  1  0  0  0  0
M  END
>  <MODEL>
8

>  <REMARK>
 VINA RESULT:      -8.2      1.854     10.285
  Name = 
  4 active torsions:
  status: ('A' for Active; 'I' for Inactive)
    1  A    between atoms: C_1  and  C_32
    2  A    between atoms: C_4  and  C_23
    3  A    between atoms: C_4  and  N_28
    4  A    between atoms: C_5  and  C_22
                            x       y       z     vdW  Elec       q    Type
                         _______ _______ _______ _____ _____    ______ ____

>  <TORSDO>
F 4

$$$$
=
 OpenBabel11072411543D

 32 36  0  0  1  0  0  0  0  0999 V2000
  161.3080  207.7470  152.3620 C   0  0  0  0  0  0  0  0  0  0  0  0
  161.2200  207.1130  150.9850 C   0  0  2  0  0  3  0  0  0  0  0  0
  159.8380  206.6590  150.7220 N   0  0  0  0  0  2  0  0  0  0  0  0
  161.4420  206.9660  153.4530 C   0  0  0  0  0  0  0  0  0  0  0  0
  160.8920  205.6690  151.0030 C   0  0  2  0  0  0  0  0  0  0  0  0
  161.5810  205.4850  153.2860 C   0  0  0  0  0  2  0  0  0  0  0  0
  161.4840  207.4970  154.7370 O   0  0  0  0  0  1  0  0  0  0  0  0
  160.6350  205.0030  152.2830 N   0  0  0  0  0  2  0  0  0  0  0  0
  161.1460  204.7970  149.8080 C   0  0  0  0  0  0  0  0  0  0  0  0
  161.5410  203.5760  146.8760 C   0  0  2  0  0  3  0  0  0  0  0  0
  161.5810  202.4190  149.0180 C   0  0  0  0  0  2  0  0  0  0  0  0
  160.7840  202.6030  147.7520 C   0  0  0  0  0  2  0  0  0  0  0  0
  161.8050  204.3490  144.5110 C   0  0  0  0  0  2  0  0  0  0  0  0
  161.2910  205.0270  147.2380 C   0  0  0  0  0  0  0  0  0  0  0  0
  161.2730  203.4810  150.0230 C   0  0  0  0  0  3  0  0  0  0  0  0
  161.1670  205.4900  148.4920 C   0  0  0  0  0  3  0  0  0  0  0  0
  161.2130  203.2830  145.4170 C   0  0  0  0  0  2  0  0  0  0  0  0
  161.1220  205.6670  144.8350 C   0  0  0  0  0  2  0  0  0  0  0  0
  161.2710  205.9910  146.2180 O   0  0  0  0  0  0  0  0  0  0  0  0
  160.1110  209.9510  152.7850 N   0  0  0  0  0  2  0  0  0  0  0  0
  162.3670  209.8600  152.2280 O   0  0  0  0  0  0  0  0  0  0  0  0
  161.2920  209.2290  152.4230 C   0  0  0  0  0  0  0  0  0  0  0  0
  160.1490  211.3590  153.1540 C   0  0  0  0  0  2  0  0  0  0  0  0
  156.1460  212.3980  155.8910 C   0  0  0  0  0  0  0  0  0  0  0  0
  159.7060  212.9520  155.0420 C   0  0  0  0  0  2  0  0  0  0  0  0
  155.6520  213.5520  155.7710 O   0  0  0  0  0  0  0  0  0  0  0  0
  157.8080  210.7040  155.1020 C   0  0  0  0  0  2  0  0  0  0  0  0
  155.4160  211.4070  156.5410 O   0  0  0  0  0  1  0  0  0  0  0  0
  159.2930  210.5060  155.4020 C   0  0  0  0  0  2  0  0  0  0  0  0
  160.1610  211.5390  154.6730 C   0  0  0  0  0  3  0  0  0  0  0  0
  157.4260  212.0960  155.3210 N   0  0  0  0  0  0  0  0  0  0  0  0
  158.2300  213.1570  154.7110 C   0  0  0  0  0  2  0  0  0  0  0  0
  1 22  1  0  0  0  0
  1  4  2  0  0  0  0
  2  3  1  6  0  0  0
  2  5  1  0  0  0  0
  2  1  1  0  0  0  0
  3  5  1  0  0  0  0
  4  7  1  0  0  0  0
  5  9  1  6  0  0  0
  5  8  1  0  0  0  0
  6  4  1  0  0  0  0
  8  6  1  0  0  0  0
  9 15  2  0  0  0  0
 10 17  1  6  0  0  0
 10 14  1  0  0  0  0
 10 12  1  0  0  0  0
 11 15  1  0  0  0  0
 12 11  1  0  0  0  0
 13 18  1  0  0  0  0
 13 17  1  0  0  0  0
 14 16  2  0  0  0  0
 16  9  1  0  0  0  0
 18 19  1  0  0  0  0
 19 14  1  0  0  0  0
 20 23  1  0  0  0  0
 21 22  2  0  0  0  0
 22 20  1  0  0  0  0
 23 30  1  0  0  0  0
 24 28  1  0  0  0  0
 26 24  2  0  0  0  0
 27 31  1  0  0  0  0
 27 29  1  0  0  0  0
 30 25  1  0  0  0  0
 30 29  1  0  0  0  0
 31 24  1  0  0  0  0
 32 25  1  0  0  0  0
 32 31  1  0  0  0  0
M  END
>  <MODEL>
9

>  <REMARK>
 VINA RESULT:      -7.6      1.478      2.328
  Name = 
  4 active torsions:
  status: ('A' for Active; 'I' for Inactive)
    1  A    between atoms: C_1  and  C_32
    2  A    between atoms: C_4  and  C_23
    3  A    between atoms: C_4  and  N_28
    4  A    between atoms: C_5  and  C_22
                            x       y       z     vdW  Elec       q    Type
                         _______ _______ _______ _____ _____    ______ ____

>  <TORSDO>
F 4

$$$$
