=
 OpenBabel11072415213D

 63 66  0  0  1  0  0  0  0  0999 V2000
  160.2470  207.8710  155.3230 C   0  0  1  0  0  3  0  0  0  0  0  0
  160.2850  208.6370  149.6070 O   0  0  0  0  0  0  0  0  0  0  0  0
  158.2970  211.1550  155.1340 C   0  0  1  0  0  0  0  0  0  0  0  0
  161.6090  207.9660  154.6270 C   0  0  2  0  0  3  0  0  0  0  0  0
  161.9410  205.9870  148.7550 C   0  0  0  0  0  2  0  0  0  0  0  0
  159.3890  211.9320  152.0500 C   0  0  0  0  0  2  0  0  0  0  0  0
  162.1140  208.3820  148.2100 O   0  0  0  0  0  0  0  0  0  0  0  0
  157.1360  210.5980  154.5820 O   0  0  0  0  0  1  0  0  0  0  0  0
  159.2520  208.8410  154.7180 C   0  0  0  0  0  2  0  0  0  0  0  0
  160.4580  207.0780  146.9650 C   0  0  0  0  0  1  0  0  0  0  0  0
  159.9700  211.4540  150.7300 C   0  0  0  0  0  2  0  0  0  0  0  0
  159.1720  210.8460  152.9060 O   0  0  0  0  0  0  0  0  0  0  0  0
  159.5120  210.2470  155.2580 C   0  0  1  0  0  3  0  0  0  0  0  0
  161.8690  210.3530  149.6470 N   0  0  0  0  0  0  0  0  0  0  0  0
  159.4660  211.3510  154.1810 C   0  0  2  0  0  3  0  0  0  0  0  0
  160.6970  205.8140  149.6240 C   0  0  0  0  0  2  0  0  0  0  0  0
  162.2310  211.8830  151.3990 O   0  0  0  0  0  1  0  0  0  0  0  0
  161.3710  209.1000  149.1590 C   0  0  0  0  0  0  0  0  0  0  0  0
  161.4590  203.6420  150.6440 C   0  0  0  0  0  3  0  0  0  0  0  0
  161.3760  210.8880  150.9160 C   0  0  1  0  0  3  0  0  0  0  0  0
  161.4810  206.1030  153.0910 C   0  0  0  0  0  2  0  0  0  0  0  0
  160.9600  205.0270  150.9080 C   0  0  1  0  0  3  0  0  0  0  0  0
  161.5810  207.5540  153.2120 N   0  0  0  0  0  2  0  0  0  0  0  0
  162.0630  205.6560  151.7640 C   0  0  2  0  0  3  0  0  0  0  0  0
  161.7830  207.0880  147.7070 C   0  0  2  0  0  3  0  0  0  0  0  0
  162.9760  204.5910  151.9810 O   0  0  0  0  0  0  0  0  0  0  0  0
  162.5960  203.4490  151.2970 C   0  0  0  0  0  3  0  0  0  0  0  0
  159.7340  206.5740  155.2760 O   0  0  0  0  0  1  0  0  0  0  0  0
  157.2480  213.2450  156.0150 O   0  0  0  0  0  0  0  0  0  0  0  0
  158.8180  212.1150  157.2600 O   0  0  0  0  0  1  0  0  0  0  0  0
  158.1340  212.1830  156.2010 C   0  0  0  0  0  0  0  0  0  0  0  0
  162.6470  207.6900  156.7670 O   0  0  0  0  0  1  0  0  0  0  0  0
  162.7180  207.2880  155.4300 C   0  0  0  0  0  2  0  0  0  0  0  0
  162.9170  211.0470  148.9090 C   0  0  0  0  0  2  0  0  0  0  0  0
  162.4600  211.3120  147.4810 C   0  0  0  0  0  2  0  0  0  0  0  0
  162.9320  212.6760  147.0060 C   0  0  1  0  0  3  0  0  0  0  0  0
  164.1620  212.5500  146.3610 O   0  0  0  0  0  1  0  0  0  0  0  0
  158.1360  214.3540  147.1220 C   0  0  0  0  0  2  0  0  0  0  0  0
  158.0300  213.0540  147.9120 C   0  0  1  0  0  3  0  0  0  0  0  0
  160.1490  211.9520  147.1660 C   0  0  0  0  0  2  0  0  0  0  0  0
  158.4800  214.1280  145.6850 C   0  0  0  0  0  3  0  0  0  0  0  0
  160.6130  212.9810  146.1750 C   0  0  0  0  0  0  0  0  0  0  0  0
  159.4110  212.5900  148.3300 C   0  0  0  0  0  2  0  0  0  0  0  0
  159.6070  213.5570  145.2550 C   0  0  0  0  0  0  0  0  0  0  0  0
  159.8170  213.4900  143.9190 F   0  0  0  0  0  0  0  0  0  0  0  0
  161.9220  213.2930  146.0780 C   0  0  0  0  0  0  0  0  0  0  0  0
  162.4130  214.3180  145.0940 C   0  0  0  0  0  2  0  0  0  0  0  0
  162.1520  213.8220  142.6360 C   0  0  0  0  0  0  0  0  0  0  0  0
  161.0590  214.4500  142.5980 O   0  0  0  0  0  0  0  0  0  0  0  0
  162.8520  213.6630  143.8690 N   0  0  0  0  0  2  0  0  0  0  0  0
  162.9950  211.8450  141.6670 O   0  0  0  0  0  1  0  0  0  0  0  0
  162.6950  213.1790  141.4010 C   0  0  1  0  0  3  0  0  0  0  0  0
  161.6910  213.2670  140.2640 C   0  0  0  0  0  2  0  0  0  0  0  0
  161.1850  211.8800  139.8770 C   0  0  0  0  0  2  0  0  0  0  0  0
  159.3270  211.4550  138.2260 C   0  0  0  0  0  1  0  0  0  0  0  0
  160.8110  211.7580  138.3930 C   0  0  1  0  0  0  0  0  0  0  0  0
  161.0840  213.0290  137.7550 N   0  0  0  0  0  1  0  0  0  0  0  0
  161.6600  210.6920  137.6940 C   0  0  0  0  0  2  0  0  0  0  0  0
  161.1100  209.4180  137.8310 O   0  0  0  0  0  1  0  0  0  0  0  0
  157.2160  213.2940  149.1680 C   0  0  0  0  0  2  0  0  0  0  0  0
  156.1960  214.3980  148.9370 C   0  0  0  0  0  2  0  0  0  0  0  0
  156.0030  214.3980  151.4240 C   0  0  0  0  0  1  0  0  0  0  0  0
  155.2330  214.4530  150.1140 C   0  0  0  0  0  2  0  0  0  0  0  0
  1 28  1  6  0  0  0
  3  8  1  6  0  0  0
  3 13  1  0  0  0  0
  3 31  1  0  0  0  0
  4  1  1  0  0  0  0
  4 33  1  1  0  0  0
  5 16  1  0  0  0  0
  6 12  1  0  0  0  0
  7 18  1  0  0  0  0
  9  1  1  0  0  0  0
 11 20  1  0  0  0  0
 11  6  1  0  0  0  0
 13  9  1  6  0  0  0
 14 20  1  0  0  0  0
 15 12  1  6  0  0  0
 15  3  1  0  0  0  0
 15 13  1  0  0  0  0
 18  2  2  0  0  0  0
 18 14  1  0  0  0  0
 19 22  1  0  0  0  0
 19 27  2  0  0  0  0
 20 17  1  6  0  0  0
 21 23  1  0  0  0  0
 22 16  1  6  0  0  0
 22 24  1  0  0  0  0
 23  4  1  0  0  0  0
 24 26  1  0  0  0  0
 24 21  1  1  0  0  0
 25 10  1  1  0  0  0
 25  7  1  0  0  0  0
 25  5  1  0  0  0  0
 27 26  1  0  0  0  0
 29 31  2  0  0  0  0
 31 30  1  0  0  0  0
 33 32  1  0  0  0  0
 34 14  1  0  0  0  0
 35 34  1  0  0  0  0
 36 37  1  6  0  0  0
 36 35  1  0  0  0  0
 38 39  1  0  0  0  0
 39 43  1  0  0  0  0
 39 60  1  1  0  0  0
 40 43  1  0  0  0  0
 41 38  1  0  0  0  0
 42 40  1  0  0  0  0
 44 41  2  0  0  0  0
 44 42  1  0  0  0  0
 45 44  1  0  0  0  0
 46 42  2  0  0  0  0
 46 36  1  0  0  0  0
 47 46  1  0  0  0  0
 48 50  1  0  0  0  0
 49 48  2  0  0  0  0
 50 47  1  0  0  0  0
 52 51  1  1  0  0  0
 52 48  1  0  0  0  0
 53 52  1  0  0  0  0
 54 53  1  0  0  0  0
 56 55  1  6  0  0  0
 56 54  1  0  0  0  0
 57 56  1  0  0  0  0
 58 59  1  0  0  0  0
 58 56  1  0  0  0  0
 61 60  1  0  0  0  0
 61 63  1  0  0  0  0
 63 62  1  0  0  0  0
M  END
>  <MODEL>
1

>  <REMARK>
 VINA RESULT:       3.6      0.000      0.000
  Name = 
  16 active torsions:
  status: ('A' for Active; 'I' for Inactive)
    1  A    between atoms: C_6  and  C_36
    2  A    between atoms: C_7  and  C_17
    3  A    between atoms: C_7  and  C_25
    4  A    between atoms: C_10  and  C_61
    5  A    between atoms: CA_11  and  C_51
    6  A    between atoms: C_14  and  C_40
    7  A    between atoms: C_14  and  C_62
    8  A    between atoms: C_17  and  C_32
    9  A    between atoms: C_19  and  C_36
   10  A    between atoms: C_19  and  C_58
   11  A    between atoms: C_20  and  C_25
   12  A    between atoms: C_20  and  C_31
   13  A    between atoms: C_21  and  N_46
   14  A    between atoms: C_21  and  C_62
   15  A    between atoms: C_29  and  N_35
   16  A    between atoms: C_29  and  C_40
                            x       y       z     vdW  Elec       q    Type
                         _______ _______ _______ _____ _____    ______ ____

>  <TORSDO>
F 16

$$$$
=
 OpenBabel11072415213D

 63 66  0  0  1  0  0  0  0  0999 V2000
  156.2190  213.3200  149.9850 C   0  0  1  0  0  3  0  0  0  0  0  0
  161.9500  212.6990  149.7980 O   0  0  0  0  0  0  0  0  0  0  0  0
  156.9400  213.1720  153.7370 C   0  0  1  0  0  0  0  0  0  0  0  0
  156.7790  212.1040  149.2390 C   0  0  2  0  0  3  0  0  0  0  0  0
  162.3530  212.7190  146.5850 C   0  0  0  0  0  2  0  0  0  0  0  0
  159.9590  211.7400  153.3690 C   0  0  0  0  0  2  0  0  0  0  0  0
  163.1200  211.2590  148.4130 O   0  0  0  0  0  0  0  0  0  0  0  0
  157.5470  214.4320  153.8140 O   0  0  0  0  0  1  0  0  0  0  0  0
  157.0170  213.6120  151.2390 C   0  0  0  0  0  2  0  0  0  0  0  0
  164.3870  213.3190  148.0340 C   0  0  0  0  0  1  0  0  0  0  0  0
  161.1580  211.4710  152.4740 C   0  0  0  0  0  2  0  0  0  0  0  0
  159.0230  212.5360  152.6990 O   0  0  0  0  0  0  0  0  0  0  0  0
  156.6000  212.6470  152.3500 C   0  0  1  0  0  3  0  0  0  0  0  0
  161.9240  210.4400  150.3900 N   0  0  0  0  0  0  0  0  0  0  0  0
  157.7840  212.0550  153.1430 C   0  0  2  0  0  3  0  0  0  0  0  0
  161.6030  213.8840  147.2260 C   0  0  0  0  0  2  0  0  0  0  0  0
  160.3100  209.3600  151.7200 O   0  0  0  0  0  1  0  0  0  0  0  0
  162.3290  211.5230  149.5420 C   0  0  0  0  0  0  0  0  0  0  0  0
  160.2940  214.4530  145.1520 C   0  0  0  0  0  3  0  0  0  0  0  0
  160.7720  210.6020  151.2780 C   0  0  1  0  0  3  0  0  0  0  0  0
  158.1210  213.1740  147.5380 C   0  0  0  0  0  2  0  0  0  0  0  0
  160.2250  214.1290  146.6100 C   0  0  1  0  0  3  0  0  0  0  0  0
  158.1390  212.3080  148.7120 N   0  0  0  0  0  2  0  0  0  0  0  0
  159.3300  212.8870  146.6680 C   0  0  2  0  0  3  0  0  0  0  0  0
  163.5190  212.2230  147.4400 C   0  0  2  0  0  3  0  0  0  0  0  0
  158.9130  212.7050  145.3220 O   0  0  0  0  0  0  0  0  0  0  0  0
  159.5130  213.6220  144.4760 C   0  0  0  0  0  3  0  0  0  0  0  0
  156.1850  214.4530  149.1700 O   0  0  0  0  0  1  0  0  0  0  0  0
  155.9150  213.5710  155.9810 O   0  0  0  0  0  1  0  0  0  0  0  0
  155.3180  211.7290  154.7380 O   0  0  0  0  0  0  0  0  0  0  0  0
  156.0050  212.7840  154.8330 C   0  0  0  0  0  0  0  0  0  0  0  0
  156.4910  211.2560  147.0180 O   0  0  0  0  0  1  0  0  0  0  0  0
  155.8020  211.5650  148.1960 C   0  0  0  0  0  2  0  0  0  0  0  0
  162.6190  209.1610  150.3070 C   0  0  0  0  0  2  0  0  0  0  0  0
  161.6230  208.0460  150.0210 C   0  0  0  0  0  2  0  0  0  0  0  0
  162.2840  206.6840  150.1580 C   0  0  1  0  0  3  0  0  0  0  0  0
  163.5810  206.8370  150.6470 O   0  0  0  0  0  1  0  0  0  0  0  0
  160.0410  206.9100  154.7140 C   0  0  0  0  0  2  0  0  0  0  0  0
  161.3670  207.6110  154.9850 C   0  0  1  0  0  3  0  0  0  0  0  0
  162.6690  206.7930  153.0110 C   0  0  0  0  0  2  0  0  0  0  0  0
  160.2100  205.4610  154.3870 C   0  0  0  0  0  3  0  0  0  0  0  0
  161.6420  205.8740  152.4150 C   0  0  0  0  0  0  0  0  0  0  0  0
  162.0240  207.9980  153.6740 C   0  0  0  0  0  2  0  0  0  0  0  0
  160.8860  204.9950  153.3350 C   0  0  0  0  0  0  0  0  0  0  0  0
  160.8880  203.6570  153.1240 F   0  0  0  0  0  0  0  0  0  0  0  0
  161.4870  205.7990  151.0770 C   0  0  0  0  0  0  0  0  0  0  0  0
  160.4670  204.8860  150.4550 C   0  0  0  0  0  2  0  0  0  0  0  0
  160.8350  202.6980  149.2570 C   0  0  0  0  0  0  0  0  0  0  0  0
  160.1560  202.0790  150.1230 O   0  0  0  0  0  0  0  0  0  0  0  0
  161.0830  204.0960  149.3980 N   0  0  0  0  0  2  0  0  0  0  0  0
  160.8870  200.6860  148.0290 O   0  0  0  0  0  1  0  0  0  0  0  0
  161.4430  201.9610  148.1090 C   0  0  1  0  0  3  0  0  0  0  0  0
  161.2120  202.7100  146.8070 C   0  0  0  0  0  2  0  0  0  0  0  0
  161.2990  204.2190  147.0250 C   0  0  0  0  0  2  0  0  0  0  0  0
  162.3240  206.4010  146.2880 C   0  0  0  0  0  1  0  0  0  0  0  0
  162.0380  204.9560  145.9000 C   0  0  1  0  0  0  0  0  0  0  0  0
  163.3070  204.2910  145.6840 N   0  0  0  0  0  1  0  0  0  0  0  0
  161.2510  204.8970  144.5880 C   0  0  0  0  0  2  0  0  0  0  0  0
  160.0170  205.5400  144.6940 O   0  0  0  0  0  1  0  0  0  0  0  0
  161.1130  208.8810  155.7740 C   0  0  0  0  0  2  0  0  0  0  0  0
  162.0030  208.9260  157.0060 C   0  0  0  0  0  2  0  0  0  0  0  0
  163.3310  210.8430  156.1190 C   0  0  0  0  0  1  0  0  0  0  0  0
  162.4480  210.3590  157.2580 C   0  0  0  0  0  2  0  0  0  0  0  0
  1 28  1  6  0  0  0
  1  9  1  0  0  0  0
  3  8  1  1  0  0  0
  3 31  1  0  0  0  0
  4 33  1  6  0  0  0
  4  1  1  0  0  0  0
  5 16  1  0  0  0  0
  5 25  1  0  0  0  0
  7 18  1  0  0  0  0
 11  6  1  0  0  0  0
 12  6  1  0  0  0  0
 13  9  1  6  0  0  0
 13 15  1  0  0  0  0
 13  3  1  0  0  0  0
 14 20  1  0  0  0  0
 15 12  1  6  0  0  0
 15  3  1  0  0  0  0
 18  2  2  0  0  0  0
 18 14  1  0  0  0  0
 20 17  1  1  0  0  0
 20 11  1  0  0  0  0
 21 23  1  0  0  0  0
 22 19  1  6  0  0  0
 22 24  1  0  0  0  0
 22 16  1  0  0  0  0
 23  4  1  0  0  0  0
 24 21  1  1  0  0  0
 25 10  1  1  0  0  0
 25  7  1  0  0  0  0
 26 24  1  0  0  0  0
 27 19  2  0  0  0  0
 27 26  1  0  0  0  0
 30 31  2  0  0  0  0
 31 29  1  0  0  0  0
 32 33  1  0  0  0  0
 34 14  1  0  0  0  0
 35 36  1  0  0  0  0
 35 34  1  0  0  0  0
 36 37  1  1  0  0  0
 36 46  1  0  0  0  0
 38 39  1  0  0  0  0
 39 60  1  1  0  0  0
 40 43  1  0  0  0  0
 41 38  1  0  0  0  0
 42 40  1  0  0  0  0
 42 44  1  0  0  0  0
 43 39  1  0  0  0  0
 44 41  2  0  0  0  0
 45 44  1  0  0  0  0
 46 42  2  0  0  0  0
 47 46  1  0  0  0  0
 48 50  1  0  0  0  0
 48 49  2  0  0  0  0
 50 47  1  0  0  0  0
 52 51  1  6  0  0  0
 52 48  1  0  0  0  0
 53 54  1  0  0  0  0
 53 52  1  0  0  0  0
 56 55  1  1  0  0  0
 56 54  1  0  0  0  0
 57 56  1  0  0  0  0
 58 59  1  0  0  0  0
 58 56  1  0  0  0  0
 60 61  1  0  0  0  0
 61 63  1  0  0  0  0
 62 63  1  0  0  0  0
M  END
>  <MODEL>
2

>  <REMARK>
 VINA RESULT:       4.0      3.780      8.829
  Name = 
  16 active torsions:
  status: ('A' for Active; 'I' for Inactive)
    1  A    between atoms: C_6  and  C_36
    2  A    between atoms: C_7  and  C_17
    3  A    between atoms: C_7  and  C_25
    4  A    between atoms: C_10  and  C_61
    5  A    between atoms: CA_11  and  C_51
    6  A    between atoms: C_14  and  C_40
    7  A    between atoms: C_14  and  C_62
    8  A    between atoms: C_17  and  C_32
    9  A    between atoms: C_19  and  C_36
   10  A    between atoms: C_19  and  C_58
   11  A    between atoms: C_20  and  C_25
   12  A    between atoms: C_20  and  C_31
   13  A    between atoms: C_21  and  N_46
   14  A    between atoms: C_21  and  C_62
   15  A    between atoms: C_29  and  N_35
   16  A    between atoms: C_29  and  C_40
                            x       y       z     vdW  Elec       q    Type
                         _______ _______ _______ _____ _____    ______ ____

>  <TORSDO>
F 16

$$$$
=
 OpenBabel11072415213D

 63 66  0  0  1  0  0  0  0  0999 V2000
  157.6920  213.1750  150.9600 C   0  0  1  0  0  3  0  0  0  0  0  0
  162.9390  211.1500  149.6810 O   0  0  0  0  0  0  0  0  0  0  0  0
  158.6920  211.8500  154.4050 C   0  0  1  0  0  0  0  0  0  0  0  0
  157.7940  212.0980  149.8730 C   0  0  2  0  0  3  0  0  0  0  0  0
  163.0220  211.9190  146.5360 C   0  0  0  0  0  2  0  0  0  0  0  0
  161.1040  209.8300  153.2200 C   0  0  0  0  0  2  0  0  0  0  0  0
  163.4950  209.8770  147.8280 O   0  0  0  0  0  0  0  0  0  0  0  0
  159.6480  212.8390  154.6640 O   0  0  0  0  0  1  0  0  0  0  0  0
  158.6570  212.9030  152.0960 C   0  0  0  0  0  2  0  0  0  0  0  0
  165.2710  211.5570  147.7230 C   0  0  0  0  0  1  0  0  0  0  0  0
  162.0790  209.5050  152.1000 C   0  0  0  0  0  2  0  0  0  0  0  0
  160.3860  210.9920  152.9160 O   0  0  0  0  0  0  0  0  0  0  0  0
  158.0820  211.8210  153.0100 C   0  0  1  0  0  3  0  0  0  0  0  0
  162.3040  208.9030  149.7380 N   0  0  0  0  0  0  0  0  0  0  0  0
  159.1080  210.7510  153.4390 C   0  0  2  0  0  3  0  0  0  0  0  0
  162.7140  213.0250  147.5430 C   0  0  0  0  0  2  0  0  0  0  0  0
  160.5780  207.9690  151.0370 O   0  0  0  0  0  1  0  0  0  0  0  0
  162.9280  210.0270  149.1040 C   0  0  0  0  0  0  0  0  0  0  0  0
  161.4400  214.4470  145.9010 C   0  0  0  0  0  3  0  0  0  0  0  0
  161.3420  209.1180  150.8190 C   0  0  1  0  0  3  0  0  0  0  0  0
  159.2250  213.1940  148.2610 C   0  0  0  0  0  2  0  0  0  0  0  0
  161.4180  213.7760  147.2380 C   0  0  1  0  0  3  0  0  0  0  0  0
  159.0980  212.0730  149.1870 N   0  0  0  0  0  2  0  0  0  0  0  0
  160.2050  212.8430  147.1590 C   0  0  2  0  0  3  0  0  0  0  0  0
  164.0650  210.9250  147.0480 C   0  0  2  0  0  3  0  0  0  0  0  0
  159.6270  213.1410  145.8970 O   0  0  0  0  0  0  0  0  0  0  0  0
  160.3880  214.0610  145.1940 C   0  0  0  0  0  3  0  0  0  0  0  0
  157.9170  214.4520  150.4420 O   0  0  0  0  0  1  0  0  0  0  0  0
  158.2630  210.5810  156.5140 O   0  0  0  0  0  1  0  0  0  0  0  0
  156.5990  211.8500  155.5590 O   0  0  0  0  0  0  0  0  0  0  0  0
  157.7940  211.4430  155.5230 C   0  0  0  0  0  0  0  0  0  0  0  0
  157.0680  212.1770  147.5930 O   0  0  0  0  0  1  0  0  0  0  0  0
  156.6070  212.1320  148.9120 C   0  0  0  0  0  2  0  0  0  0  0  0
  162.5790  207.5570  149.2500 C   0  0  0  0  0  2  0  0  0  0  0  0
  162.3670  207.4960  147.7440 C   0  0  0  0  0  2  0  0  0  0  0  0
  160.9490  207.0600  147.4150 C   0  0  1  0  0  3  0  0  0  0  0  0
  160.2730  208.1000  146.7780 O   0  0  0  0  0  1  0  0  0  0  0  0
  160.3170  202.0340  147.8340 C   0  0  0  0  0  2  0  0  0  0  0  0
  161.1870  202.3400  149.0480 C   0  0  1  0  0  3  0  0  0  0  0  0
  162.0680  204.5800  148.3610 C   0  0  0  0  0  2  0  0  0  0  0  0
  161.0270  202.2740  146.5400 C   0  0  0  0  0  3  0  0  0  0  0  0
  161.4510  204.6660  146.9940 C   0  0  0  0  0  0  0  0  0  0  0  0
  161.1720  203.8300  149.3320 C   0  0  0  0  0  2  0  0  0  0  0  0
  161.4940  203.4580  146.1400 C   0  0  0  0  0  0  0  0  0  0  0  0
  162.0470  203.5380  144.9070 F   0  0  0  0  0  0  0  0  0  0  0  0
  160.9600  205.8370  146.5400 C   0  0  0  0  0  0  0  0  0  0  0  0
  160.3390  205.9500  145.1750 C   0  0  0  0  0  2  0  0  0  0  0  0
  161.4090  205.8870  142.8920 C   0  0  0  0  0  0  0  0  0  0  0  0
  160.6890  204.9080  142.5530 O   0  0  0  0  0  0  0  0  0  0  0  0
  161.3290  206.4180  144.2150 N   0  0  0  0  0  2  0  0  0  0  0  0
  162.7520  205.4920  140.9950 O   0  0  0  0  0  1  0  0  0  0  0  0
  162.4020  206.4590  141.9350 C   0  0  1  0  0  3  0  0  0  0  0  0
  161.8290  207.6800  141.2320 C   0  0  0  0  0  2  0  0  0  0  0  0
  161.4440  207.3470  139.7930 C   0  0  0  0  0  2  0  0  0  0  0  0
  160.0050  209.0340  138.5920 C   0  0  0  0  0  1  0  0  0  0  0  0
  161.4300  208.5700  138.8660 C   0  0  1  0  0  0  0  0  0  0  0  0
  162.1310  209.6480  139.5340 N   0  0  0  0  0  1  0  0  0  0  0  0
  162.1630  208.2790  137.5530 C   0  0  0  0  0  2  0  0  0  0  0  0
  161.9690  206.9640  137.1310 O   0  0  0  0  0  1  0  0  0  0  0  0
  160.6270  201.6270  150.2620 C   0  0  0  0  0  2  0  0  0  0  0  0
  160.7250  202.5160  151.4920 C   0  0  0  0  0  2  0  0  0  0  0  0
  161.9480  204.6110  152.0720 C   0  0  0  0  0  1  0  0  0  0  0  0
  162.0820  203.2020  151.5160 C   0  0  0  0  0  2  0  0  0  0  0  0
  1 28  1  6  0  0  0
  1  9  1  0  0  0  0
  3  8  1  1  0  0  0
  3 31  1  0  0  0  0
  4 33  1  6  0  0  0
  4  1  1  0  0  0  0
  5 25  1  0  0  0  0
  5 16  1  0  0  0  0
  7 18  1  0  0  0  0
 11  6  1  0  0  0  0
 12  6  1  0  0  0  0
 13  9  1  6  0  0  0
 13 15  1  0  0  0  0
 13  3  1  0  0  0  0
 14 20  1  0  0  0  0
 15 12  1  6  0  0  0
 15  3  1  0  0  0  0
 18  2  2  0  0  0  0
 18 14  1  0  0  0  0
 20 17  1  1  0  0  0
 20 11  1  0  0  0  0
 21 23  1  0  0  0  0
 22 19  1  6  0  0  0
 22 16  1  0  0  0  0
 23  4  1  0  0  0  0
 24 22  1  0  0  0  0
 24 21  1  1  0  0  0
 25 10  1  1  0  0  0
 25  7  1  0  0  0  0
 26 24  1  0  0  0  0
 27 26  1  0  0  0  0
 27 19  2  0  0  0  0
 31 30  2  0  0  0  0
 31 29  1  0  0  0  0
 32 33  1  0  0  0  0
 34 14  1  0  0  0  0
 35 34  1  0  0  0  0
 36 37  1  6  0  0  0
 36 35  1  0  0  0  0
 38 39  1  0  0  0  0
 39 43  1  0  0  0  0
 39 60  1  1  0  0  0
 40 43  1  0  0  0  0
 41 38  1  0  0  0  0
 42 40  1  0  0  0  0
 44 41  2  0  0  0  0
 44 42  1  0  0  0  0
 45 44  1  0  0  0  0
 46 42  2  0  0  0  0
 46 36  1  0  0  0  0
 47 46  1  0  0  0  0
 48 50  1  0  0  0  0
 49 48  2  0  0  0  0
 50 47  1  0  0  0  0
 52 51  1  6  0  0  0
 52 48  1  0  0  0  0
 53 52  1  0  0  0  0
 54 53  1  0  0  0  0
 56 55  1  6  0  0  0
 56 57  1  0  0  0  0
 56 54  1  0  0  0  0
 58 56  1  0  0  0  0
 59 58  1  0  0  0  0
 60 61  1  0  0  0  0
 61 63  1  0  0  0  0
 63 62  1  0  0  0  0
M  END
>  <MODEL>
3

>  <REMARK>
 VINA RESULT:       6.6      3.018      7.491
  Name = 
  16 active torsions:
  status: ('A' for Active; 'I' for Inactive)
    1  A    between atoms: C_6  and  C_36
    2  A    between atoms: C_7  and  C_17
    3  A    between atoms: C_7  and  C_25
    4  A    between atoms: C_10  and  C_61
    5  A    between atoms: CA_11  and  C_51
    6  A    between atoms: C_14  and  C_40
    7  A    between atoms: C_14  and  C_62
    8  A    between atoms: C_17  and  C_32
    9  A    between atoms: C_19  and  C_36
   10  A    between atoms: C_19  and  C_58
   11  A    between atoms: C_20  and  C_25
   12  A    between atoms: C_20  and  C_31
   13  A    between atoms: C_21  and  N_46
   14  A    between atoms: C_21  and  C_62
   15  A    between atoms: C_29  and  N_35
   16  A    between atoms: C_29  and  C_40
                            x       y       z     vdW  Elec       q    Type
                         _______ _______ _______ _____ _____    ______ ____

>  <TORSDO>
F 16

$$$$
