=
 OpenBabel11072414033D

 62 65  0  0  1  0  0  0  0  0999 V2000
  162.8330  208.8960  148.5180 C   0  0  1  0  0  3  0  0  0  0  0  0
  161.4820  209.5970  148.4810 C   0  0  1  0  0  3  0  0  0  0  0  0
  162.4110  209.8040  149.6680 C   0  0  0  0  0  2  0  0  0  0  0  0
  162.5950  207.5010  148.8520 N   0  0  0  0  0  2  0  0  0  0  0  0
  160.7850  204.7170  146.2860 C   0  0  0  0  0  3  0  0  0  0  0  0
  161.2210  205.9400  145.7730 C   0  0  0  0  0  3  0  0  0  0  0  0
  161.4270  205.3610  148.4820 C   0  0  0  0  0  0  0  0  0  0  0  0
  161.7770  206.8850  146.6360 C   0  0  0  0  0  3  0  0  0  0  0  0
  160.8940  204.4580  147.6140 N   0  0  0  0  0  0  0  0  0  0  0  0
  161.8780  206.6100  147.9980 C   0  0  0  0  0  0  0  0  0  0  0  0
  161.5260  204.9950  149.9320 C   0  0  2  0  0  3  0  0  0  0  0  0
  160.7510  203.7420  150.2120 C   0  0  0  0  0  3  0  0  0  0  0  0
  160.4300  201.9270  148.3610 C   0  0  0  0  0  3  0  0  0  0  0  0
  160.5670  202.8290  149.2960 C   0  0  0  0  0  0  0  0  0  0  0  0
  161.3790  200.7770  148.2960 C   0  0  0  0  0  2  0  0  0  0  0  0
  161.8070  200.5190  146.8580 C   0  0  0  0  0  2  0  0  0  0  0  0
  161.3690  199.2010  146.4440 N   0  0  0  0  0  1  0  0  0  0  0  0
  161.0820  206.1130  150.7610 N   0  0  0  0  0  2  0  0  0  0  0  0
  161.2410  205.7390  152.1610 C   0  0  0  0  0  2  0  0  0  0  0  0
  160.8150  206.8580  153.1000 C   0  0  1  0  0  3  0  0  0  0  0  0
  161.6660  206.8680  154.3700 C   0  0  0  0  0  2  0  0  0  0  0  0
  161.0820  209.4070  153.2500 C   0  0  2  0  0  3  0  0  0  0  0  0
  159.4810  209.1580  157.0080 Cl  0  0  0  0  0  0  0  0  0  0  0  0
  160.9120  208.1840  152.3490 C   0  0  0  0  0  2  0  0  0  0  0  0
  160.9290  207.4710  155.5310 C   0  0  0  0  0  3  0  0  0  0  0  0
  160.2410  208.6320  155.5130 C   0  0  0  0  0  0  0  0  0  0  0  0
  159.9680  209.4660  154.2820 C   0  0  0  0  0  2  0  0  0  0  0  0
  161.0740  210.6730  152.4050 C   0  0  0  0  0  2  0  0  0  0  0  0
  159.2360  212.4070  152.4700 C   0  0  0  0  0  0  0  0  0  0  0  0
  160.3260  211.7170  153.0920 N   0  0  0  0  0  2  0  0  0  0  0  0
  159.1160  212.3750  151.2160 O   0  0  0  0  0  0  0  0  0  0  0  0
  157.5590  212.2610  154.3050 C   0  0  0  0  0  1  0  0  0  0  0  0
  157.1960  213.8480  152.4530 C   0  0  0  0  0  1  0  0  0  0  0  0
  158.2540  213.1740  153.3110 C   0  0  0  0  0  3  0  0  0  0  0  0
  161.4220  210.8550  147.5890 C   0  0  2  0  0  3  0  0  0  0  0  0
  162.0310  211.9780  148.2890 N   0  0  0  0  0  2  0  0  0  0  0  0
  161.4420  214.2150  149.0550 C   0  0  0  0  0  1  0  0  0  0  0  0
  160.9680  212.7890  148.8630 C   0  0  0  0  0  2  0  0  0  0  0  0
  160.0320  211.2790  147.0980 C   0  0  0  0  0  2  0  0  0  0  0  0
  160.0420  212.6620  146.4550 C   0  0  0  0  0  2  0  0  0  0  0  0
  160.7670  212.6310  145.1170 C   0  0  0  0  0  2  0  0  0  0  0  0
  159.7620  212.3190  144.0270 C   0  0  0  0  0  2  0  0  0  0  0  0
  161.0150  214.0790  143.0380 O   0  0  0  0  0  1  0  0  0  0  0  0
  159.7890  213.4120  142.9670 C   0  0  1  0  0  3  0  0  0  0  0  0
  159.6350  212.8060  141.5760 C   0  0  0  0  0  2  0  0  0  0  0  0
  158.5590  214.0730  139.6910 C   0  0  0  0  0  1  0  0  0  0  0  0
  159.8350  213.8380  140.4750 C   0  0  2  0  0  3  0  0  0  0  0  0
  161.0760  213.5840  139.6020 C   0  0  0  0  0  2  0  0  0  0  0  0
  161.5430  213.0420  137.2870 O   0  0  0  0  0  1  0  0  0  0  0  0
  160.9900  212.5330  138.4730 C   0  0  1  0  0  0  0  0  0  0  0  0
  163.0680  211.3500  138.1860 O   0  0  0  0  0  1  0  0  0  0  0  0
  161.8610  211.3530  138.8870 C   0  0  0  0  0  2  0  0  0  0  0  0
  159.6720  212.0410  138.2830 O   0  0  0  0  0  0  0  0  0  0  0  0
  159.6140  210.6490  138.4960 C   0  0  0  0  0  2  0  0  0  0  0  0
  158.2730  210.2510  139.1040 C   0  0  0  0  0  2  0  0  0  0  0  0
  157.1340  210.4900  138.1160 C   0  0  0  0  0  2  0  0  0  0  0  0
  154.9170  210.3560  139.0090 O   0  0  0  0  0  0  0  0  0  0  0  0
  154.1330  211.9350  137.4490 C   0  0  0  0  0  2  0  0  0  0  0  0
  153.7570  211.0130  138.5710 C   0  0  1  0  0  3  0  0  0  0  0  0
  152.7300  210.0050  138.1040 C   0  0  0  0  0  1  0  0  0  0  0  0
  155.9830  211.2480  138.7670 C   0  0  2  0  0  3  0  0  0  0  0  0
  155.5070  212.3610  137.8470 C   0  0  0  0  0  2  0  0  0  0  0  0
  1  4  1  1  0  0  0
  1  3  1  0  0  0  0
  2 35  1  6  0  0  0
  2  1  1  0  0  0  0
  2  3  1  0  0  0  0
  5  9  1  0  0  0  0
  6  5  2  0  0  0  0
  6  8  1  0  0  0  0
  7 11  1  0  0  0  0
  8 10  2  0  0  0  0
  9  7  2  0  0  0  0
 10  7  1  0  0  0  0
 10  4  1  0  0  0  0
 11 12  1  6  0  0  0
 11 18  1  0  0  0  0
 13 14  2  0  0  0  0
 14 12  2  0  0  0  0
 15 13  1  0  0  0  0
 16 15  1  0  0  0  0
 17 16  1  0  0  0  0
 18 19  1  0  0  0  0
 20 19  1  6  0  0  0
 20 21  1  0  0  0  0
 21 25  1  0  0  0  0
 22 28  1  6  0  0  0
 22 27  1  0  0  0  0
 24 20  1  0  0  0  0
 24 22  1  0  0  0  0
 26 25  2  0  0  0  0
 26 23  1  0  0  0  0
 27 26  1  0  0  0  0
 28 30  1  0  0  0  0
 29 30  1  0  0  0  0
 29 34  1  0  0  0  0
 31 29  2  0  0  0  0
 33 34  1  0  0  0  0
 34 32  1  0  0  0  0
 35 39  1  1  0  0  0
 35 36  1  0  0  0  0
 36 38  1  0  0  0  0
 38 37  1  0  0  0  0
 40 39  1  0  0  0  0
 41 40  1  0  0  0  0
 42 41  1  0  0  0  0
 44 43  1  6  0  0  0
 44 42  1  0  0  0  0
 45 44  1  0  0  0  0
 47 46  1  6  0  0  0
 47 45  1  0  0  0  0
 48 47  1  0  0  0  0
 50 49  1  6  0  0  0
 50 52  1  0  0  0  0
 50 48  1  0  0  0  0
 51 52  1  0  0  0  0
 53 50  1  0  0  0  0
 53 54  1  0  0  0  0
 54 55  1  0  0  0  0
 56 55  1  0  0  0  0
 58 62  1  0  0  0  0
 58 59  1  0  0  0  0
 59 60  1  6  0  0  0
 59 57  1  0  0  0  0
 61 56  1  6  0  0  0
 61 57  1  0  0  0  0
 62 61  1  0  0  0  0
M  END
>  <MODEL>
1

>  <REMARK>
 VINA RESULT:      -3.9      0.000      0.000
  Name = 
  30 active torsions:
  status: ('A' for Active; 'I' for Inactive)
    1  A    between atoms: C_1  and  C_51
    2  A    between atoms: C_2  and  C_50
    3  A    between atoms: C_2  and  C_60
    4  A    between atoms: C_4  and  C_33
    5  A    between atoms: C_4  and  C_47
    6  A    between atoms: C_5  and  C_12
    7  A    between atoms: C_5  and  C_44
    8  A    between atoms: O_6  and  C_30
    9  A    between atoms: O_6  and  C_42
   10  A    between atoms: C_10  and  C_16
   11  A    between atoms: C_10  and  N_20
   12  A    between atoms: C_12  and  C_31
   13  A    between atoms: C_13  and  C_35
   14  A    between atoms: C_19  and  C_54
   15  A    between atoms: C_21  and  N_58
   16  A    between atoms: C_22  and  C_56
   17  A    between atoms: N_24  and  C_34
   18  A    between atoms: N_24  and  C_51
   19  A    between atoms: C_26  and  C_47
   20  A    between atoms: C_26  and  C_56
   21  A    between atoms: C_29  and  C_34
   22  A    between atoms: C_30  and  C_50
   23  A    between atoms: C_31  and  C_42
   24  A    between atoms: C_33  and  C_44
   25  A    between atoms: C_34  and  C_55
   26  A    between atoms: C_35  and  C_59
   27  A    between atoms: C_42  and  C_48
   28  A    between atoms: N_45  and  C_53
   29  A    between atoms: N_45  and  C_56
   30  A    between atoms: C_46  and  N_58
                            x       y       z     vdW  Elec       q    Type
                         _______ _______ _______ _____ _____    ______ ____

>  <TORSDO>
F 30

$$$$
=
 OpenBabel11072414033D

 62 65  0  0  1  0  0  0  0  0999 V2000
  162.1430  205.9430  148.1870 C   0  0  1  0  0  3  0  0  0  0  0  0
  161.1550  206.4870  147.1650 C   0  0  1  0  0  3  0  0  0  0  0  0
  162.4570  207.2280  147.4310 C   0  0  0  0  0  2  0  0  0  0  0  0
  161.6180  206.2400  149.5100 N   0  0  0  0  0  2  0  0  0  0  0  0
  160.6300  203.1580  152.1820 C   0  0  0  0  0  3  0  0  0  0  0  0
  160.5030  202.9420  150.8090 C   0  0  0  0  0  3  0  0  0  0  0  0
  161.2900  205.4110  151.8090 C   0  0  0  0  0  0  0  0  0  0  0  0
  160.7830  203.9840  149.9230 C   0  0  0  0  0  3  0  0  0  0  0  0
  161.0140  204.3750  152.6480 N   0  0  0  0  0  0  0  0  0  0  0  0
  161.1710  205.2290  150.4130 C   0  0  0  0  0  0  0  0  0  0  0  0
  161.7220  206.7200  152.4000 C   0  0  2  0  0  3  0  0  0  0  0  0
  161.1070  206.9140  153.7540 C   0  0  0  0  0  3  0  0  0  0  0  0
  161.6570  209.0320  155.1800 C   0  0  0  0  0  3  0  0  0  0  0  0
  161.3800  207.9590  154.4890 C   0  0  0  0  0  0  0  0  0  0  0  0
  160.7510  210.2160  155.1060 C   0  0  0  0  0  2  0  0  0  0  0  0
  159.4830  209.9700  155.9110 C   0  0  0  0  0  2  0  0  0  0  0  0
  159.8280  209.5480  157.2540 N   0  0  0  0  0  1  0  0  0  0  0  0
  161.3950  207.8120  151.4860 N   0  0  0  0  0  2  0  0  0  0  0  0
  162.1000  209.0090  151.9290 C   0  0  0  0  0  2  0  0  0  0  0  0
  161.9790  210.1440  150.9240 C   0  0  1  0  0  3  0  0  0  0  0  0
  161.2850  209.6790  149.6440 C   0  0  0  0  0  2  0  0  0  0  0  0
  160.5310  212.2400  150.6010 C   0  0  2  0  0  3  0  0  0  0  0  0
  162.2220  212.5980  146.8910 Cl  0  0  0  0  0  0  0  0  0  0  0  0
  161.2250  211.2970  151.5830 C   0  0  0  0  0  2  0  0  0  0  0  0
  161.6950  210.5010  148.4560 C   0  0  0  0  0  3  0  0  0  0  0  0
  161.7400  211.8500  148.4060 C   0  0  0  0  0  0  0  0  0  0  0  0
  161.5250  212.7730  149.5830 C   0  0  0  0  0  2  0  0  0  0  0  0
  159.8930  213.3950  151.3590 C   0  0  0  0  0  2  0  0  0  0  0  0
  158.4800  212.9880  153.4130 C   0  0  0  0  0  0  0  0  0  0  0  0
  158.6620  212.9470  151.9940 N   0  0  0  0  0  2  0  0  0  0  0  0
  159.4860  213.0850  154.1660 O   0  0  0  0  0  0  0  0  0  0  0  0
  156.7470  211.4680  154.3540 C   0  0  0  0  0  1  0  0  0  0  0  0
  156.0500  213.4270  153.0280 C   0  0  0  0  0  1  0  0  0  0  0  0
  157.0970  212.9010  153.9970 C   0  0  0  0  0  3  0  0  0  0  0  0
  161.1800  205.7840  145.7920 C   0  0  2  0  0  3  0  0  0  0  0  0
  160.1860  204.7180  145.7730 N   0  0  0  0  0  2  0  0  0  0  0  0
  161.1510  202.5450  146.3100 C   0  0  0  0  0  1  0  0  0  0  0  0
  160.8050  203.5280  145.2090 C   0  0  0  0  0  2  0  0  0  0  0  0
  162.5280  205.2060  145.3450 C   0  0  0  0  0  2  0  0  0  0  0  0
  162.7400  205.3280  143.8390 C   0  0  0  0  0  2  0  0  0  0  0  0
  161.7940  206.3610  143.2430 C   0  0  0  0  0  2  0  0  0  0  0  0
  161.5590  206.0210  141.7860 C   0  0  0  0  0  2  0  0  0  0  0  0
  163.0100  206.4310  139.9500 O   0  0  0  0  0  1  0  0  0  0  0  0
  162.2050  207.0730  140.8960 C   0  0  1  0  0  3  0  0  0  0  0  0
  161.1360  207.8810  140.1680 C   0  0  0  0  0  2  0  0  0  0  0  0
  162.3320  207.0370  138.1240 C   0  0  0  0  0  1  0  0  0  0  0  0
  161.5170  208.1670  138.7220 C   0  0  2  0  0  3  0  0  0  0  0  0
  162.1180  209.5650  138.5010 C   0  0  0  0  0  2  0  0  0  0  0  0
  161.1400  211.5140  139.5580 O   0  0  0  0  0  1  0  0  0  0  0  0
  161.1650  210.7740  138.3660 C   0  0  1  0  0  0  0  0  0  0  0  0
  161.1320  212.9440  137.3220 O   0  0  0  0  0  1  0  0  0  0  0  0
  161.7470  211.6900  137.2960 C   0  0  0  0  0  2  0  0  0  0  0  0
  159.8630  210.3980  137.9390 O   0  0  0  0  0  0  0  0  0  0  0  0
  158.9410  210.4690  139.0030 C   0  0  0  0  0  2  0  0  0  0  0  0
  157.7630  211.3660  138.6380 C   0  0  0  0  0  2  0  0  0  0  0  0
  156.4490  210.7730  139.1430 C   0  0  0  0  0  2  0  0  0  0  0  0
  155.0470  212.6960  139.3980 O   0  0  0  0  0  0  0  0  0  0  0  0
  153.1440  211.3400  139.6850 C   0  0  0  0  0  2  0  0  0  0  0  0
  153.6700  212.7450  139.6640 C   0  0  1  0  0  3  0  0  0  0  0  0
  153.4180  213.4230  140.9930 C   0  0  0  0  0  1  0  0  0  0  0  0
  155.2490  211.5450  138.6080 C   0  0  2  0  0  3  0  0  0  0  0  0
  154.0040  210.6740  138.6630 C   0  0  0  0  0  2  0  0  0  0  0  0
  1  4  1  1  0  0  0
  2 35  1  6  0  0  0
  2  3  1  0  0  0  0
  2  1  1  0  0  0  0
  3  1  1  0  0  0  0
  4 10  1  0  0  0  0
  5  9  1  0  0  0  0
  6  5  2  0  0  0  0
  7 11  1  0  0  0  0
  7  9  2  0  0  0  0
  8 10  2  0  0  0  0
  8  6  1  0  0  0  0
 10  7  1  0  0  0  0
 11 12  1  1  0  0  0
 12 14  2  0  0  0  0
 14 13  2  0  0  0  0
 15 13  1  0  0  0  0
 15 16  1  0  0  0  0
 16 17  1  0  0  0  0
 18 19  1  0  0  0  0
 18 11  1  0  0  0  0
 20 24  1  0  0  0  0
 20 19  1  1  0  0  0
 21 20  1  0  0  0  0
 22 28  1  1  0  0  0
 22 24  1  0  0  0  0
 23 26  1  0  0  0  0
 25 21  1  0  0  0  0
 26 25  2  0  0  0  0
 26 27  1  0  0  0  0
 27 22  1  0  0  0  0
 28 30  1  0  0  0  0
 29 34  1  0  0  0  0
 29 31  2  0  0  0  0
 30 29  1  0  0  0  0
 33 34  1  0  0  0  0
 34 32  1  0  0  0  0
 35 39  1  1  0  0  0
 36 35  1  0  0  0  0
 38 36  1  0  0  0  0
 38 37  1  0  0  0  0
 40 39  1  0  0  0  0
 41 40  1  0  0  0  0
 42 41  1  0  0  0  0
 44 43  1  6  0  0  0
 44 42  1  0  0  0  0
 45 44  1  0  0  0  0
 47 46  1  1  0  0  0
 47 45  1  0  0  0  0
 48 47  1  0  0  0  0
 50 48  1  0  0  0  0
 50 49  1  1  0  0  0
 52 51  1  0  0  0  0
 52 50  1  0  0  0  0
 53 50  1  0  0  0  0
 53 54  1  0  0  0  0
 55 54  1  0  0  0  0
 55 56  1  0  0  0  0
 57 59  1  0  0  0  0
 59 58  1  0  0  0  0
 59 60  1  1  0  0  0
 61 62  1  0  0  0  0
 61 56  1  1  0  0  0
 61 57  1  0  0  0  0
 62 58  1  0  0  0  0
M  END
>  <MODEL>
2

>  <REMARK>
 VINA RESULT:      -3.3      2.601      5.929
  Name = 
  30 active torsions:
  status: ('A' for Active; 'I' for Inactive)
    1  A    between atoms: C_1  and  C_51
    2  A    between atoms: C_2  and  C_50
    3  A    between atoms: C_2  and  C_60
    4  A    between atoms: C_4  and  C_33
    5  A    between atoms: C_4  and  C_47
    6  A    between atoms: C_5  and  C_12
    7  A    between atoms: C_5  and  C_44
    8  A    between atoms: O_6  and  C_30
    9  A    between atoms: O_6  and  C_42
   10  A    between atoms: C_10  and  C_16
   11  A    between atoms: C_10  and  N_20
   12  A    between atoms: C_12  and  C_31
   13  A    between atoms: C_13  and  C_35
   14  A    between atoms: C_19  and  C_54
   15  A    between atoms: C_21  and  N_58
   16  A    between atoms: C_22  and  C_56
   17  A    between atoms: N_24  and  C_34
   18  A    between atoms: N_24  and  C_51
   19  A    between atoms: C_26  and  C_47
   20  A    between atoms: C_26  and  C_56
   21  A    between atoms: C_29  and  C_34
   22  A    between atoms: C_30  and  C_50
   23  A    between atoms: C_31  and  C_42
   24  A    between atoms: C_33  and  C_44
   25  A    between atoms: C_34  and  C_55
   26  A    between atoms: C_35  and  C_59
   27  A    between atoms: C_42  and  C_48
   28  A    between atoms: N_45  and  C_53
   29  A    between atoms: N_45  and  C_56
   30  A    between atoms: C_46  and  N_58
                            x       y       z     vdW  Elec       q    Type
                         _______ _______ _______ _____ _____    ______ ____

>  <TORSDO>
F 30

$$$$
=
 OpenBabel11072414033D

 62 65  0  0  1  0  0  0  0  0999 V2000
  161.0220  210.0820  150.1920 C   0  0  1  0  0  3  0  0  0  0  0  0
  162.3440  209.3340  150.0940 C   0  0  1  0  0  3  0  0  0  0  0  0
  162.2470  210.5960  150.9390 C   0  0  0  0  0  2  0  0  0  0  0  0
  160.8370  210.8120  148.9480 N   0  0  0  0  0  2  0  0  0  0  0  0
  162.6020  214.4530  147.8320 C   0  0  0  0  0  3  0  0  0  0  0  0
  163.3740  213.2910  147.8410 C   0  0  0  0  0  3  0  0  0  0  0  0
  160.7190  213.2590  148.6570 C   0  0  0  0  0  0  0  0  0  0  0  0
  162.8000  212.0900  148.2600 C   0  0  0  0  0  3  0  0  0  0  0  0
  161.3070  214.4130  148.2380 N   0  0  0  0  0  0  0  0  0  0  0  0
  161.4720  212.0630  148.6790 C   0  0  0  0  0  0  0  0  0  0  0  0
  159.2810  213.2930  149.0760 C   0  0  2  0  0  3  0  0  0  0  0  0
  158.4110  213.7310  147.9360 C   0  0  0  0  0  3  0  0  0  0  0  0
  159.4020  214.0340  145.5390 C   0  0  0  0  0  3  0  0  0  0  0  0
  158.8900  213.9020  146.7330 C   0  0  0  0  0  0  0  0  0  0  0  0
  159.3180  212.9040  144.5670 C   0  0  0  0  0  2  0  0  0  0  0  0
  160.3450  213.0760  143.4570 C   0  0  0  0  0  2  0  0  0  0  0  0
  159.8940  212.3930  142.2610 N   0  0  0  0  0  1  0  0  0  0  0  0
  159.1230  214.1500  150.2490 N   0  0  0  0  0  2  0  0  0  0  0  0
  159.6240  213.4330  151.4150 C   0  0  0  0  0  2  0  0  0  0  0  0
  158.7630  213.6760  152.6450 C   0  0  1  0  0  3  0  0  0  0  0  0
  157.5800  212.7100  152.6930 C   0  0  0  0  0  2  0  0  0  0  0  0
  158.8840  213.1930  155.1640 C   0  0  2  0  0  3  0  0  0  0  0  0
  154.9930  214.4440  155.3920 Cl  0  0  0  0  0  0  0  0  0  0  0  0
  159.6440  213.5450  153.8860 C   0  0  0  0  0  2  0  0  0  0  0  0
  156.4220  213.2830  153.4590 C   0  0  0  0  0  3  0  0  0  0  0  0
  156.4910  213.8740  154.6710 C   0  0  0  0  0  0  0  0  0  0  0  0
  157.7680  214.1960  155.4120 C   0  0  0  0  0  2  0  0  0  0  0  0
  159.8420  213.1800  156.3470 C   0  0  0  0  0  2  0  0  0  0  0  0
  160.2180  210.6960  156.0840 C   0  0  0  0  0  0  0  0  0  0  0  0
  160.7230  212.0240  156.2530 N   0  0  0  0  0  2  0  0  0  0  0  0
  159.0120  210.4510  156.3540 O   0  0  0  0  0  0  0  0  0  0  0  0
  162.0590  209.1400  156.7090 C   0  0  0  0  0  1  0  0  0  0  0  0
  161.9720  210.0580  154.4220 C   0  0  0  0  0  1  0  0  0  0  0  0
  161.1290  209.6010  155.6020 C   0  0  0  0  0  3  0  0  0  0  0  0
  162.4490  208.0730  150.9770 C   0  0  2  0  0  3  0  0  0  0  0  0
  162.9770  206.9680  150.1880 N   0  0  0  0  0  2  0  0  0  0  0  0
  162.8230  207.3840  147.7910 C   0  0  0  0  0  1  0  0  0  0  0  0
  163.6740  207.5220  149.0370 C   0  0  0  0  0  2  0  0  0  0  0  0
  161.1580  207.6120  151.6660 C   0  0  0  0  0  2  0  0  0  0  0  0
  161.3180  206.2570  152.3470 C   0  0  0  0  0  2  0  0  0  0  0  0
  160.6990  205.1520  151.5040 C   0  0  0  0  0  2  0  0  0  0  0  0
  161.7120  204.7020  150.4720 C   0  0  0  0  0  2  0  0  0  0  0  0
  160.2060  202.8640  150.4750 O   0  0  0  0  0  1  0  0  0  0  0  0
  161.1690  203.5110  149.6950 C   0  0  1  0  0  3  0  0  0  0  0  0
  160.5210  203.9770  148.3950 C   0  0  0  0  0  2  0  0  0  0  0  0
  160.1190  206.4380  148.7090 C   0  0  0  0  0  1  0  0  0  0  0  0
  160.9540  205.3840  148.0090 C   0  0  2  0  0  3  0  0  0  0  0  0
  161.0980  205.5970  146.4930 C   0  0  0  0  0  2  0  0  0  0  0  0
  162.3600  203.5310  146.3890 O   0  0  0  0  0  1  0  0  0  0  0  0
  161.5980  204.4240  145.6200 C   0  0  1  0  0  0  0  0  0  0  0  0
  160.6330  202.2860  145.0760 O   0  0  0  0  0  1  0  0  0  0  0  0
  160.3700  203.6560  145.1490 C   0  0  0  0  0  2  0  0  0  0  0  0
  162.2930  204.8640  144.4610 O   0  0  0  0  0  0  0  0  0  0  0  0
  161.4010  205.3810  143.5010 C   0  0  0  0  0  2  0  0  0  0  0  0
  162.1400  205.7400  142.2150 C   0  0  0  0  0  2  0  0  0  0  0  0
  161.5000  206.9510  141.5390 C   0  0  0  0  0  2  0  0  0  0  0  0
  161.9470  208.7890  140.0730 O   0  0  0  0  0  0  0  0  0  0  0  0
  161.6200  207.4310  138.1780 C   0  0  0  0  0  2  0  0  0  0  0  0
  161.9110  208.8180  138.6710 C   0  0  1  0  0  3  0  0  0  0  0  0
  160.8470  209.7820  138.1940 C   0  0  0  0  0  1  0  0  0  0  0  0
  162.3850  207.4960  140.4240 C   0  0  2  0  0  3  0  0  0  0  0  0
  162.3030  206.5900  139.2050 C   0  0  0  0  0  2  0  0  0  0  0  0
  1  4  1  6  0  0  0
  1  3  1  0  0  0  0
  2  1  1  0  0  0  0
  2  3  1  0  0  0  0
  2 35  1  1  0  0  0
  5  6  2  0  0  0  0
  5  9  1  0  0  0  0
  6  8  1  0  0  0  0
  7 10  1  0  0  0  0
  7 11  1  0  0  0  0
  8 10  2  0  0  0  0
  9  7  2  0  0  0  0
 10  4  1  0  0  0  0
 11 12  1  6  0  0  0
 11 18  1  0  0  0  0
 13 14  2  0  0  0  0
 14 12  2  0  0  0  0
 15 13  1  0  0  0  0
 16 15  1  0  0  0  0
 17 16  1  0  0  0  0
 18 19  1  0  0  0  0
 20 19  1  6  0  0  0
 20 21  1  0  0  0  0
 20 24  1  0  0  0  0
 21 25  1  0  0  0  0
 22 27  1  0  0  0  0
 22 28  1  1  0  0  0
 24 22  1  0  0  0  0
 25 26  2  0  0  0  0
 26 23  1  0  0  0  0
 26 27  1  0  0  0  0
 29 30  1  0  0  0  0
 29 31  2  0  0  0  0
 30 28  1  0  0  0  0
 33 34  1  0  0  0  0
 34 29  1  0  0  0  0
 34 32  1  0  0  0  0
 35 39  1  6  0  0  0
 36 35  1  0  0  0  0
 37 38  1  0  0  0  0
 38 36  1  0  0  0  0
 39 40  1  0  0  0  0
 41 40  1  0  0  0  0
 42 41  1  0  0  0  0
 44 42  1  0  0  0  0
 44 43  1  1  0  0  0
 45 44  1  0  0  0  0
 47 45  1  0  0  0  0
 47 46  1  6  0  0  0
 48 47  1  0  0  0  0
 50 49  1  1  0  0  0
 50 48  1  0  0  0  0
 51 52  1  0  0  0  0
 52 50  1  0  0  0  0
 53 50  1  0  0  0  0
 54 53  1  0  0  0  0
 55 54  1  0  0  0  0
 56 55  1  0  0  0  0
 57 61  1  0  0  0  0
 58 59  1  0  0  0  0
 58 62  1  0  0  0  0
 59 60  1  1  0  0  0
 59 57  1  0  0  0  0
 61 56  1  1  0  0  0
 62 61  1  0  0  0  0
M  END
>  <MODEL>
3

>  <REMARK>
 VINA RESULT:      -1.5      3.583      8.548
  Name = 
  30 active torsions:
  status: ('A' for Active; 'I' for Inactive)
    1  A    between atoms: C_1  and  C_51
    2  A    between atoms: C_2  and  C_50
    3  A    between atoms: C_2  and  C_60
    4  A    between atoms: C_4  and  C_33
    5  A    between atoms: C_4  and  C_47
    6  A    between atoms: C_5  and  C_12
    7  A    between atoms: C_5  and  C_44
    8  A    between atoms: O_6  and  C_30
    9  A    between atoms: O_6  and  C_42
   10  A    between atoms: C_10  and  C_16
   11  A    between atoms: C_10  and  N_20
   12  A    between atoms: C_12  and  C_31
   13  A    between atoms: C_13  and  C_35
   14  A    between atoms: C_19  and  C_54
   15  A    between atoms: C_21  and  N_58
   16  A    between atoms: C_22  and  C_56
   17  A    between atoms: N_24  and  C_34
   18  A    between atoms: N_24  and  C_51
   19  A    between atoms: C_26  and  C_47
   20  A    between atoms: C_26  and  C_56
   21  A    between atoms: C_29  and  C_34
   22  A    between atoms: C_30  and  C_50
   23  A    between atoms: C_31  and  C_42
   24  A    between atoms: C_33  and  C_44
   25  A    between atoms: C_34  and  C_55
   26  A    between atoms: C_35  and  C_59
   27  A    between atoms: C_42  and  C_48
   28  A    between atoms: N_45  and  C_53
   29  A    between atoms: N_45  and  C_56
   30  A    between atoms: C_46  and  N_58
                            x       y       z     vdW  Elec       q    Type
                         _______ _______ _______ _____ _____    ______ ____

>  <TORSDO>
F 30

$$$$
