=
 OpenBabel11072413553D

 46 49  0  0  1  0  0  0  0  0999 V2000
  162.1970  207.9190  150.8300 C   0  0  0  0  0  2  0  0  0  0  0  0
  161.4950  210.2490  150.7410 O   0  0  0  0  0  1  0  0  0  0  0  0
  162.2330  209.3140  151.4840 C   0  0  1  0  0  3  0  0  0  0  0  0
  161.0730  211.4450  153.9450 C   0  0  0  0  0  3  0  0  0  0  0  0
  160.2570  208.8480  153.0720 C   0  0  0  0  0  2  0  0  0  0  0  0
  162.0300  210.5560  153.6490 C   0  0  0  0  0  3  0  0  0  0  0  0
  161.7370  209.2570  152.9450 C   0  0  2  0  0  3  0  0  0  0  0  0
  159.5990  211.2060  153.6990 C   0  0  2  0  0  3  0  0  0  0  0  0
  159.3330  210.0180  152.7620 C   0  0  0  0  0  2  0  0  0  0  0  0
  158.8200  212.4830  153.2920 C   0  0  1  0  0  3  0  0  0  0  0  0
  158.4600  212.4500  151.8760 N   0  0  0  0  0  2  0  0  0  0  0  0
  160.1200  213.8400  151.0150 O   0  0  0  0  0  0  0  0  0  0  0  0
  158.9350  213.4280  150.9530 C   0  0  0  0  0  0  0  0  0  0  0  0
  158.0110  214.0190  150.0860 O   0  0  0  0  0  0  0  0  0  0  0  0
  157.4270  213.3560  148.9660 C   0  0  0  0  0  2  0  0  0  0  0  0
  158.1550  213.6170  147.6260 C   0  0  0  0  0  3  0  0  0  0  0  0
  159.3910  213.0230  145.1040 C   0  0  0  0  0  0  0  0  0  0  0  0
  159.6170  213.1470  147.5750 C   0  0  0  0  0  2  0  0  0  0  0  0
  160.2620  213.5100  146.2270 C   0  0  0  0  0  2  0  0  0  0  0  0
  157.3490  213.0070  146.4800 C   0  0  0  0  0  2  0  0  0  0  0  0
  157.9450  213.4150  145.1370 C   0  0  0  0  0  2  0  0  0  0  0  0
  159.7260  211.9680  144.4410 N   0  0  0  0  0  2  0  0  0  0  0  0
  156.6250  213.3080  153.6780 O   0  0  0  0  0  0  0  0  0  0  0  0
  157.5880  212.7090  154.1340 C   0  0  0  0  0  3  0  0  0  0  0  0
  161.6840  207.9670  149.3930 C   0  0  0  0  0  2  0  0  0  0  0  0
  161.3940  204.9660  146.8810 C   0  0  1  0  0  3  0  0  0  0  0  0
  161.1720  204.1580  149.1840 C   0  0  2  0  0  3  0  0  0  0  0  0
  161.6010  203.7360  147.7930 C   0  0  1  0  0  3  0  0  0  0  0  0
  160.9320  206.1650  147.7260 C   0  0  1  0  0  3  0  0  0  0  0  0
  160.8740  205.6520  149.1240 C   0  0  2  0  0  0  0  0  0  0  0  0
  161.9890  206.6250  148.7420 C   0  0  2  0  0  3  0  0  0  0  0  0
  159.7270  206.1280  149.7640 O   0  0  0  0  0  1  0  0  0  0  0  0
  162.5810  205.2660  146.0070 C   0  0  0  0  0  0  0  0  0  0  0  0
  161.1670  206.0710  144.2140 O   0  0  0  0  0  1  0  0  0  0  0  0
  163.7610  205.1130  146.4380 O   0  0  0  0  0  0  0  0  0  0  0  0
  162.3960  205.7380  144.6770 N   0  0  0  0  0  2  0  0  0  0  0  0
  161.6970  204.3890  151.2580 F   0  0  0  0  0  0  0  0  0  0  0  0
  162.1680  203.8720  150.1270 O   0  0  0  0  0  0  0  0  0  0  0  0
  160.7160  202.5280  147.3910 C   0  0  2  0  0  3  0  0  0  0  0  0
  161.3390  200.2020  147.4500 O   0  0  0  0  0  1  0  0  0  0  0  0
  161.0180  201.2940  148.2640 C   0  0  2  0  0  3  0  0  0  0  0  0
  159.8510  200.9030  149.1740 C   0  0  0  0  0  2  0  0  0  0  0  0
  159.9890  201.5370  150.4130 O   0  0  0  0  0  0  0  0  0  0  0  0
  161.1760  201.0240  150.9490 C   0  0  0  0  0  1  0  0  0  0  0  0
  160.8410  202.1790  145.8850 C   0  0  0  0  0  2  0  0  0  0  0  0
  159.5930  201.8530  145.3400 O   0  0  0  0  0  1  0  0  0  0  0  0
  1  3  1  0  0  0  0
  3  2  1  6  0  0  0
  6  4  2  0  0  0  0
  7  3  1  6  0  0  0
  7  5  1  0  0  0  0
  7  6  1  0  0  0  0
  8 10  1  6  0  0  0
  8  4  1  0  0  0  0
  9  5  1  0  0  0  0
  9  8  1  0  0  0  0
 10 24  1  1  0  0  0
 11 10  1  0  0  0  0
 13 12  2  0  0  0  0
 13 11  1  0  0  0  0
 14 13  1  0  0  0  0
 15 14  1  0  0  0  0
 16 15  1  0  0  0  0
 17 21  1  0  0  0  0
 17 19  1  0  0  0  0
 18 16  1  0  0  0  0
 19 18  1  0  0  0  0
 20 16  1  0  0  0  0
 21 20  1  0  0  0  0
 22 17  2  0  0  0  0
 23 24  2  0  0  0  0
 25  1  1  0  0  0  0
 26 33  1  1  0  0  0
 26 29  1  0  0  0  0
 26 28  1  0  0  0  0
 27 38  1  1  0  0  0
 28 39  1  6  0  0  0
 28 27  1  0  0  0  0
 29 31  1  0  0  0  0
 29 30  1  0  0  0  0
 30 27  1  0  0  0  0
 30 32  1  0  0  0  0
 31 30  1  0  0  0  0
 31 25  1  0  0  0  0
 33 35  2  0  0  0  0
 34 36  1  0  0  0  0
 36 33  1  0  0  0  0
 38 37  1  0  0  0  0
 39 41  1  0  0  0  0
 40 41  1  0  0  0  0
 41 42  1  0  0  0  0
 42 43  1  0  0  0  0
 43 44  1  0  0  0  0
 45 39  1  0  0  0  0
 46 45  1  0  0  0  0
M  END
>  <MODEL>
1

>  <REMARK>
 VINA RESULT:      -5.5      0.000      0.000
  Name = 
  17 active torsions:
  status: ('A' for Active; 'I' for Inactive)
    1  A    between atoms: C_1  and  C_14
    2  A    between atoms: N_2  and  CA_43
    3  A    between atoms: C_3  and  C_5
    4  A    between atoms: C_6  and  C_15
    5  A    between atoms: C_6  and  C_16
    6  A    between atoms: C_6  and  C_40
    7  A    between atoms: C_9  and  O_25
    8  A    between atoms: C_12  and  C_17
    9  A    between atoms: C_12  and  C_42
   10  A    between atoms: C_14  and  O_23
   11  A    between atoms: C_17  and  C_27
   12  A    between atoms: C_22  and  C_42
   13  A    between atoms: O_23  and  C_45
   14  A    between atoms: C_31  and  CA_43
   15  A    between atoms: C_33  and  CA_43
   16  A    between atoms: C_34  and  O_36
   17  A    between atoms: C_34  and  C_40
                            x       y       z     vdW  Elec       q    Type
                         _______ _______ _______ _____ _____    ______ ____

>  <TORSDO>
F 17

$$$$
=
 OpenBabel11072413553D

 46 49  0  0  1  0  0  0  0  0999 V2000
  161.8030  208.8180  152.1860 C   0  0  0  0  0  2  0  0  0  0  0  0
  160.9410  211.0770  151.9000 O   0  0  0  0  0  1  0  0  0  0  0  0
  161.6490  210.2340  152.7710 C   0  0  1  0  0  3  0  0  0  0  0  0
  160.0050  212.3490  154.9550 C   0  0  0  0  0  3  0  0  0  0  0  0
  159.5370  209.6530  154.1280 C   0  0  0  0  0  2  0  0  0  0  0  0
  161.0650  211.5420  154.8260 C   0  0  0  0  0  3  0  0  0  0  0  0
  160.9790  210.1930  154.1610 C   0  0  2  0  0  3  0  0  0  0  0  0
  158.6000  211.9630  154.5440 C   0  0  2  0  0  3  0  0  0  0  0  0
  158.5600  210.7170  153.6460 C   0  0  0  0  0  2  0  0  0  0  0  0
  157.7710  213.1430  153.9770 C   0  0  1  0  0  3  0  0  0  0  0  0
  157.5490  212.9880  152.5410 N   0  0  0  0  0  2  0  0  0  0  0  0
  159.4260  214.1050  151.7290 O   0  0  0  0  0  0  0  0  0  0  0  0
  158.2140  213.8060  151.5810 C   0  0  0  0  0  0  0  0  0  0  0  0
  157.4490  214.3840  150.5640 O   0  0  0  0  0  0  0  0  0  0  0  0
  156.8220  213.6460  149.5160 C   0  0  0  0  0  2  0  0  0  0  0  0
  157.4650  213.8530  148.1240 C   0  0  0  0  0  3  0  0  0  0  0  0
  159.1000  213.2910  145.8330 C   0  0  0  0  0  0  0  0  0  0  0  0
  158.9620  214.1990  148.1410 C   0  0  0  0  0  2  0  0  0  0  0  0
  159.4830  214.4450  146.7160 C   0  0  0  0  0  2  0  0  0  0  0  0
  157.2020  212.6260  147.2530 C   0  0  0  0  0  2  0  0  0  0  0  0
  157.6580  212.8840  145.8220 C   0  0  0  0  0  2  0  0  0  0  0  0
  159.9880  212.4160  145.4970 N   0  0  0  0  0  2  0  0  0  0  0  0
  156.3270  214.1710  155.5610 O   0  0  0  0  0  0  0  0  0  0  0  0
  156.4510  213.3240  154.6880 C   0  0  0  0  0  3  0  0  0  0  0  0
  161.4690  208.7680  150.6960 C   0  0  0  0  0  2  0  0  0  0  0  0
  161.6780  204.8700  150.2960 C   0  0  1  0  0  3  0  0  0  0  0  0
  161.0720  205.9020  148.1580 C   0  0  2  0  0  3  0  0  0  0  0  0
  160.9420  204.6230  148.9610 C   0  0  1  0  0  3  0  0  0  0  0  0
  162.1760  206.3240  150.3520 C   0  0  1  0  0  3  0  0  0  0  0  0
  161.7310  206.9340  149.0670 C   0  0  2  0  0  0  0  0  0  0  0  0
  161.0310  207.3490  150.3610 C   0  0  2  0  0  3  0  0  0  0  0  0
  162.7450  207.7360  148.5380 O   0  0  0  0  0  1  0  0  0  0  0  0
  160.8800  204.4590  151.5030 C   0  0  0  0  0  0  0  0  0  0  0  0
  162.3460  205.6740  152.9970 O   0  0  0  0  0  1  0  0  0  0  0  0
  159.8130  203.7880  151.3780 O   0  0  0  0  0  0  0  0  0  0  0  0
  161.3060  204.8270  152.8100 N   0  0  0  0  0  2  0  0  0  0  0  0
  160.1080  207.0670  146.6270 F   0  0  0  0  0  0  0  0  0  0  0  0
  159.8220  206.3430  147.7050 O   0  0  0  0  0  0  0  0  0  0  0  0
  161.5790  203.4890  148.1170 C   0  0  2  0  0  3  0  0  0  0  0  0
  161.4330  202.7280  145.8360 O   0  0  0  0  0  1  0  0  0  0  0  0
  161.6420  203.8660  146.6240 C   0  0  2  0  0  3  0  0  0  0  0  0
  162.9730  204.5040  146.2210 C   0  0  0  0  0  2  0  0  0  0  0  0
  162.7360  205.5850  145.3660 O   0  0  0  0  0  0  0  0  0  0  0  0
  161.5860  205.2320  144.6500 C   0  0  0  0  0  1  0  0  0  0  0  0
  160.8570  202.1310  148.3110 C   0  0  0  0  0  2  0  0  0  0  0  0
  161.3430  201.4610  149.4410 O   0  0  0  0  0  1  0  0  0  0  0  0
  1  3  1  0  0  0  0
  3  2  1  6  0  0  0
  5  7  1  0  0  0  0
  6  4  2  0  0  0  0
  7  3  1  6  0  0  0
  7  6  1  0  0  0  0
  8 10  1  6  0  0  0
  8  4  1  0  0  0  0
  9  5  1  0  0  0  0
  9  8  1  0  0  0  0
 10 24  1  1  0  0  0
 11 10  1  0  0  0  0
 13 12  2  0  0  0  0
 13 11  1  0  0  0  0
 14 13  1  0  0  0  0
 15 14  1  0  0  0  0
 16 18  1  0  0  0  0
 16 15  1  0  0  0  0
 17 19  1  0  0  0  0
 19 18  1  0  0  0  0
 20 16  1  0  0  0  0
 21 17  1  0  0  0  0
 21 20  1  0  0  0  0
 22 17  2  0  0  0  0
 24 23  2  0  0  0  0
 25  1  1  0  0  0  0
 26 29  1  0  0  0  0
 26 33  1  1  0  0  0
 27 38  1  1  0  0  0
 27 28  1  0  0  0  0
 27 30  1  0  0  0  0
 28 39  1  6  0  0  0
 28 26  1  0  0  0  0
 29 31  1  0  0  0  0
 30 29  1  0  0  0  0
 30 31  1  0  0  0  0
 31 25  1  0  0  0  0
 32 30  1  0  0  0  0
 33 36  1  0  0  0  0
 35 33  2  0  0  0  0
 36 34  1  0  0  0  0
 37 38  1  0  0  0  0
 39 45  1  0  0  0  0
 40 41  1  0  0  0  0
 41 39  1  0  0  0  0
 42 41  1  0  0  0  0
 43 42  1  0  0  0  0
 44 43  1  0  0  0  0
 45 46  1  0  0  0  0
M  END
>  <MODEL>
2

>  <REMARK>
 VINA RESULT:      -5.5      2.061      3.459
  Name = 
  17 active torsions:
  status: ('A' for Active; 'I' for Inactive)
    1  A    between atoms: C_1  and  C_14
    2  A    between atoms: N_2  and  CA_43
    3  A    between atoms: C_3  and  C_5
    4  A    between atoms: C_6  and  C_15
    5  A    between atoms: C_6  and  C_16
    6  A    between atoms: C_6  and  C_40
    7  A    between atoms: C_9  and  O_25
    8  A    between atoms: C_12  and  C_17
    9  A    between atoms: C_12  and  C_42
   10  A    between atoms: C_14  and  O_23
   11  A    between atoms: C_17  and  C_27
   12  A    between atoms: C_22  and  C_42
   13  A    between atoms: O_23  and  C_45
   14  A    between atoms: C_31  and  CA_43
   15  A    between atoms: C_33  and  CA_43
   16  A    between atoms: C_34  and  O_36
   17  A    between atoms: C_34  and  C_40
                            x       y       z     vdW  Elec       q    Type
                         _______ _______ _______ _____ _____    ______ ____

>  <TORSDO>
F 17

$$$$
=
 OpenBabel11072413553D

 46 49  0  0  1  0  0  0  0  0999 V2000
  162.1460  209.6450  153.1380 C   0  0  0  0  0  2  0  0  0  0  0  0
  160.6200  211.5200  153.4260 O   0  0  0  0  0  1  0  0  0  0  0  0
  161.6970  210.8340  154.0090 C   0  0  1  0  0  3  0  0  0  0  0  0
  159.9960  211.9820  156.7900 C   0  0  0  0  0  3  0  0  0  0  0  0
  160.1270  209.4350  155.4990 C   0  0  0  0  0  2  0  0  0  0  0  0
  161.1900  211.5650  156.3500 C   0  0  0  0  0  3  0  0  0  0  0  0
  161.3460  210.3750  155.4410 C   0  0  2  0  0  3  0  0  0  0  0  0
  158.6970  211.2580  156.5090 C   0  0  2  0  0  3  0  0  0  0  0  0
  158.8240  210.2150  155.3880 C   0  0  0  0  0  2  0  0  0  0  0  0
  157.4850  212.2040  156.3190 C   0  0  1  0  0  3  0  0  0  0  0  0
  157.8460  213.3660  155.5100 N   0  0  0  0  0  2  0  0  0  0  0  0
  155.7210  214.0800  154.8740 O   0  0  0  0  0  0  0  0  0  0  0  0
  156.9370  213.9530  154.5820 C   0  0  0  0  0  0  0  0  0  0  0  0
  157.4020  214.2390  153.2940 O   0  0  0  0  0  0  0  0  0  0  0  0
  157.7200  213.2470  152.3200 C   0  0  0  0  0  2  0  0  0  0  0  0
  158.2670  213.8190  150.9900 C   0  0  0  0  0  3  0  0  0  0  0  0
  159.1950  213.8300  148.2740 C   0  0  0  0  0  0  0  0  0  0  0  0
  159.7250  213.4510  150.6710 C   0  0  0  0  0  2  0  0  0  0  0  0
  160.1850  214.1200  149.3660 C   0  0  0  0  0  2  0  0  0  0  0  0
  157.3420  213.4180  149.8420 C   0  0  0  0  0  2  0  0  0  0  0  0
  157.7540  214.1270  148.5570 C   0  0  0  0  0  2  0  0  0  0  0  0
  159.4750  212.9560  147.3670 N   0  0  0  0  0  2  0  0  0  0  0  0
  155.3650  211.1320  156.4260 O   0  0  0  0  0  0  0  0  0  0  0  0
  156.2880  211.5070  155.7170 C   0  0  0  0  0  3  0  0  0  0  0  0
  161.3460  209.5430  151.8420 C   0  0  0  0  0  2  0  0  0  0  0  0
  161.1620  206.3790  149.5270 C   0  0  1  0  0  3  0  0  0  0  0  0
  161.9600  205.7430  151.7550 C   0  0  2  0  0  3  0  0  0  0  0  0
  162.0140  205.3440  150.2940 C   0  0  1  0  0  3  0  0  0  0  0  0
  160.6660  207.4640  150.4980 C   0  0  1  0  0  3  0  0  0  0  0  0
  161.2250  207.0780  151.8240 C   0  0  2  0  0  0  0  0  0  0  0  0
  161.8080  208.2940  151.1040 C   0  0  2  0  0  3  0  0  0  0  0  0
  160.2640  207.2580  152.8230 O   0  0  0  0  0  1  0  0  0  0  0  0
  161.8490  206.9310  148.3080 C   0  0  0  0  0  0  0  0  0  0  0  0
  159.9980  206.3130  146.8760 O   0  0  0  0  0  1  0  0  0  0  0  0
  162.9620  207.5280  148.4030 O   0  0  0  0  0  0  0  0  0  0  0  0
  161.2540  206.7980  147.0220 N   0  0  0  0  0  2  0  0  0  0  0  0
  163.0320  206.1080  153.5860 F   0  0  0  0  0  0  0  0  0  0  0  0
  163.2470  205.8380  152.3010 O   0  0  0  0  0  0  0  0  0  0  0  0
  161.4510  203.9030  150.1950 C   0  0  2  0  0  3  0  0  0  0  0  0
  159.9490  202.5350  148.9010 O   0  0  0  0  0  1  0  0  0  0  0  0
  160.7930  203.6490  148.8240 C   0  0  2  0  0  3  0  0  0  0  0  0
  161.8100  203.4180  147.7040 C   0  0  0  0  0  2  0  0  0  0  0  0
  161.2350  202.6290  146.7030 O   0  0  0  0  0  0  0  0  0  0  0  0
  161.3530  203.3890  145.5340 C   0  0  0  0  0  1  0  0  0  0  0  0
  160.4650  203.5730  151.3470 C   0  0  0  0  0  2  0  0  0  0  0  0
  160.9500  202.5210  152.1350 O   0  0  0  0  0  1  0  0  0  0  0  0
  1  3  1  0  0  0  0
  3  2  1  6  0  0  0
  6  4  2  0  0  0  0
  7  3  1  6  0  0  0
  7  5  1  0  0  0  0
  7  6  1  0  0  0  0
  8 10  1  6  0  0  0
  8  4  1  0  0  0  0
  9  5  1  0  0  0  0
  9  8  1  0  0  0  0
 10 24  1  6  0  0  0
 11 10  1  0  0  0  0
 13 12  2  0  0  0  0
 13 11  1  0  0  0  0
 14 13  1  0  0  0  0
 15 14  1  0  0  0  0
 16 15  1  0  0  0  0
 17 21  1  0  0  0  0
 17 19  1  0  0  0  0
 18 16  1  0  0  0  0
 19 18  1  0  0  0  0
 20 16  1  0  0  0  0
 21 20  1  0  0  0  0
 22 17  2  0  0  0  0
 24 23  2  0  0  0  0
 25  1  1  0  0  0  0
 26 33  1  6  0  0  0
 26 28  1  0  0  0  0
 26 29  1  0  0  0  0
 27 30  1  0  0  0  0
 27 38  1  6  0  0  0
 28 39  1  1  0  0  0
 28 27  1  0  0  0  0
 29 31  1  0  0  0  0
 29 30  1  0  0  0  0
 30 32  1  0  0  0  0
 31 30  1  0  0  0  0
 31 25  1  0  0  0  0
 33 35  2  0  0  0  0
 34 36  1  0  0  0  0
 36 33  1  0  0  0  0
 38 37  1  0  0  0  0
 39 45  1  0  0  0  0
 41 40  1  0  0  0  0
 41 39  1  0  0  0  0
 42 41  1  0  0  0  0
 43 42  1  0  0  0  0
 44 43  1  0  0  0  0
 45 46  1  0  0  0  0
M  END
>  <MODEL>
3

>  <REMARK>
 VINA RESULT:      -5.4      2.197      3.517
  Name = 
  17 active torsions:
  status: ('A' for Active; 'I' for Inactive)
    1  A    between atoms: C_1  and  C_14
    2  A    between atoms: N_2  and  CA_43
    3  A    between atoms: C_3  and  C_5
    4  A    between atoms: C_6  and  C_15
    5  A    between atoms: C_6  and  C_16
    6  A    between atoms: C_6  and  C_40
    7  A    between atoms: C_9  and  O_25
    8  A    between atoms: C_12  and  C_17
    9  A    between atoms: C_12  and  C_42
   10  A    between atoms: C_14  and  O_23
   11  A    between atoms: C_17  and  C_27
   12  A    between atoms: C_22  and  C_42
   13  A    between atoms: O_23  and  C_45
   14  A    between atoms: C_31  and  CA_43
   15  A    between atoms: C_33  and  CA_43
   16  A    between atoms: C_34  and  O_36
   17  A    between atoms: C_34  and  C_40
                            x       y       z     vdW  Elec       q    Type
                         _______ _______ _______ _____ _____    ______ ____

>  <TORSDO>
F 17

$$$$
=
 OpenBabel11072413553D

 46 49  0  0  1  0  0  0  0  0999 V2000
  161.8250  210.6660  148.4980 C   0  0  0  0  0  2  0  0  0  0  0  0
  163.6320  212.1880  147.9100 O   0  0  0  0  0  1  0  0  0  0  0  0
  162.4470  212.0670  148.6520 C   0  0  1  0  0  3  0  0  0  0  0  0
  161.8910  214.3250  146.0950 C   0  0  0  0  0  3  0  0  0  0  0  0
  160.1590  212.6200  147.6000 C   0  0  0  0  0  2  0  0  0  0  0  0
  162.1110  214.2160  147.4110 C   0  0  0  0  0  3  0  0  0  0  0  0
  161.4390  213.1690  148.2590 C   0  0  2  0  0  3  0  0  0  0  0  0
  160.8840  213.4860  145.3390 C   0  0  2  0  0  3  0  0  0  0  0  0
  160.4000  212.2670  146.1390 C   0  0  0  0  0  2  0  0  0  0  0  0
  161.3290  213.1250  143.8990 C   0  0  1  0  0  3  0  0  0  0  0  0
  160.1790  213.0220  143.0030 N   0  0  0  0  0  2  0  0  0  0  0  0
  160.7840  211.1180  141.8030 O   0  0  0  0  0  0  0  0  0  0  0  0
  160.2180  212.2400  141.8110 C   0  0  0  0  0  0  0  0  0  0  0  0
  159.7470  212.8180  140.6280 O   0  0  0  0  0  0  0  0  0  0  0  0
  159.3740  212.0750  139.4690 C   0  0  0  0  0  2  0  0  0  0  0  0
  157.9260  211.5310  139.5050 C   0  0  0  0  0  3  0  0  0  0  0  0
  155.3040  210.8620  138.5470 C   0  0  0  0  0  0  0  0  0  0  0  0
  156.8240  212.6020  139.4590 C   0  0  0  0  0  2  0  0  0  0  0  0
  155.4320  211.9590  139.5650 C   0  0  0  0  0  2  0  0  0  0  0  0
  157.7350  210.5080  138.3860 C   0  0  0  0  0  2  0  0  0  0  0  0
  156.3820  209.8210  138.5200 C   0  0  0  0  0  2  0  0  0  0  0  0
  154.6110  211.0560  137.4760 N   0  0  0  0  0  2  0  0  0  0  0  0
  163.5170  213.7930  143.2520 O   0  0  0  0  0  0  0  0  0  0  0  0
  162.3360  214.1000  143.3380 C   0  0  0  0  0  3  0  0  0  0  0  0
  161.7580  209.9140  149.8260 C   0  0  0  0  0  2  0  0  0  0  0  0
  161.1980  206.1890  148.7280 C   0  0  1  0  0  3  0  0  0  0  0  0
  162.0300  206.2690  151.0320 C   0  0  2  0  0  3  0  0  0  0  0  0
  161.9870  205.3960  149.7940 C   0  0  1  0  0  3  0  0  0  0  0  0
  160.8410  207.5800  149.2760 C   0  0  1  0  0  3  0  0  0  0  0  0
  161.4190  207.6130  150.6500 C   0  0  2  0  0  0  0  0  0  0  0  0
  162.0760  208.4510  149.5530 C   0  0  2  0  0  3  0  0  0  0  0  0
  160.5210  208.2130  151.5360 O   0  0  0  0  0  1  0  0  0  0  0  0
  161.8800  206.2260  147.3880 C   0  0  0  0  0  0  0  0  0  0  0  0
  159.7640  206.3280  146.2170 O   0  0  0  0  0  1  0  0  0  0  0  0
  163.1420  206.2730  147.3010 O   0  0  0  0  0  0  0  0  0  0  0  0
  161.1130  206.2180  146.1880 N   0  0  0  0  0  2  0  0  0  0  0  0
  163.4320  205.5300  152.4880 F   0  0  0  0  0  0  0  0  0  0  0  0
  163.3420  206.4170  151.5010 O   0  0  0  0  0  0  0  0  0  0  0  0
  161.2950  204.0680  150.1970 C   0  0  2  0  0  3  0  0  0  0  0  0
  159.8740  202.2870  149.4180 O   0  0  0  0  0  1  0  0  0  0  0  0
  160.5780  203.4200  148.9960 C   0  0  2  0  0  3  0  0  0  0  0  0
  161.5340  203.0150  147.8730 C   0  0  0  0  0  2  0  0  0  0  0  0
  160.8610  202.2060  146.9520 O   0  0  0  0  0  0  0  0  0  0  0  0
  161.1820  202.7430  145.7000 C   0  0  0  0  0  1  0  0  0  0  0  0
  160.3180  204.2480  151.3890 C   0  0  0  0  0  2  0  0  0  0  0  0
  160.6650  203.4070  152.4530 O   0  0  0  0  0  1  0  0  0  0  0  0
  1  3  1  0  0  0  0
  1 25  1  0  0  0  0
  3  2  1  6  0  0  0
  4  6  2  0  0  0  0
  5  7  1  0  0  0  0
  6  7  1  0  0  0  0
  7  3  1  6  0  0  0
  8 10  1  6  0  0  0
  8  4  1  0  0  0  0
  8  9  1  0  0  0  0
  9  5  1  0  0  0  0
 10 24  1  6  0  0  0
 11 10  1  0  0  0  0
 12 13  2  0  0  0  0
 13 11  1  0  0  0  0
 14 13  1  0  0  0  0
 15 16  1  0  0  0  0
 15 14  1  0  0  0  0
 17 19  1  0  0  0  0
 18 16  1  0  0  0  0
 18 19  1  0  0  0  0
 20 21  1  0  0  0  0
 20 16  1  0  0  0  0
 21 17  1  0  0  0  0
 22 17  2  0  0  0  0
 23 24  2  0  0  0  0
 26 33  1  6  0  0  0
 26 29  1  0  0  0  0
 26 28  1  0  0  0  0
 27 38  1  6  0  0  0
 28 39  1  1  0  0  0
 28 27  1  0  0  0  0
 29 31  1  0  0  0  0
 29 30  1  0  0  0  0
 30 27  1  0  0  0  0
 30 32  1  0  0  0  0
 31 25  1  0  0  0  0
 31 30  1  0  0  0  0
 35 33  2  0  0  0  0
 36 34  1  0  0  0  0
 36 33  1  0  0  0  0
 38 37  1  0  0  0  0
 39 45  1  0  0  0  0
 41 40  1  0  0  0  0
 41 39  1  0  0  0  0
 42 41  1  0  0  0  0
 43 42  1  0  0  0  0
 44 43  1  0  0  0  0
 45 46  1  0  0  0  0
M  END
>  <MODEL>
4

>  <REMARK>
 VINA RESULT:      -5.4      3.893      6.514
  Name = 
  17 active torsions:
  status: ('A' for Active; 'I' for Inactive)
    1  A    between atoms: C_1  and  C_14
    2  A    between atoms: N_2  and  CA_43
    3  A    between atoms: C_3  and  C_5
    4  A    between atoms: C_6  and  C_15
    5  A    between atoms: C_6  and  C_16
    6  A    between atoms: C_6  and  C_40
    7  A    between atoms: C_9  and  O_25
    8  A    between atoms: C_12  and  C_17
    9  A    between atoms: C_12  and  C_42
   10  A    between atoms: C_14  and  O_23
   11  A    between atoms: C_17  and  C_27
   12  A    between atoms: C_22  and  C_42
   13  A    between atoms: O_23  and  C_45
   14  A    between atoms: C_31  and  CA_43
   15  A    between atoms: C_33  and  CA_43
   16  A    between atoms: C_34  and  O_36
   17  A    between atoms: C_34  and  C_40
                            x       y       z     vdW  Elec       q    Type
                         _______ _______ _______ _____ _____    ______ ____

>  <TORSDO>
F 17

$$$$
=
 OpenBabel11072413553D

 46 49  0  0  1  0  0  0  0  0999 V2000
  162.3170  208.7920  151.5100 C   0  0  0  0  0  2  0  0  0  0  0  0
  162.5420  206.3700  151.6310 O   0  0  0  0  0  1  0  0  0  0  0  0
  162.3450  207.4490  150.7550 C   0  0  1  0  0  3  0  0  0  0  0  0
  161.3830  207.1240  147.4510 C   0  0  0  0  0  3  0  0  0  0  0  0
  160.5970  205.7850  149.8520 C   0  0  0  0  0  2  0  0  0  0  0  0
  161.2210  207.8640  148.5560 C   0  0  0  0  0  3  0  0  0  0  0  0
  161.0600  207.2520  149.9220 C   0  0  2  0  0  3  0  0  0  0  0  0
  161.3240  205.6110  147.4370 C   0  0  2  0  0  3  0  0  0  0  0  0
  161.4190  204.9960  148.8410 C   0  0  0  0  0  2  0  0  0  0  0  0
  162.2990  204.9590  146.4240 C   0  0  1  0  0  3  0  0  0  0  0  0
  162.2070  203.5020  146.4680 N   0  0  0  0  0  2  0  0  0  0  0  0
  160.5360  203.1640  144.8800 O   0  0  0  0  0  0  0  0  0  0  0  0
  161.0770  202.8000  145.9550 C   0  0  0  0  0  0  0  0  0  0  0  0
  160.5020  201.8030  146.7490 O   0  0  0  0  0  0  0  0  0  0  0  0
  161.2500  200.8490  147.5000 C   0  0  0  0  0  2  0  0  0  0  0  0
  161.1210  201.0100  149.0340 C   0  0  0  0  0  3  0  0  0  0  0  0
  160.8180  202.3430  151.5580 C   0  0  0  0  0  0  0  0  0  0  0  0
  162.3420  201.6320  149.7300 C   0  0  0  0  0  2  0  0  0  0  0  0
  162.1350  201.6870  151.2520 C   0  0  0  0  0  2  0  0  0  0  0  0
  159.8520  201.7960  149.3600 C   0  0  0  0  0  2  0  0  0  0  0  0
  159.6050  201.8020  150.8640 C   0  0  0  0  0  2  0  0  0  0  0  0
  160.7890  203.5600  151.9870 N   0  0  0  0  0  2  0  0  0  0  0  0
  161.0950  206.1020  144.7220 O   0  0  0  0  0  0  0  0  0  0  0  0
  162.0880  205.4490  145.0120 C   0  0  0  0  0  3  0  0  0  0  0  0
  160.9040  209.1910  151.9280 C   0  0  0  0  0  2  0  0  0  0  0  0
  160.4250  210.4400  155.6170 C   0  0  1  0  0  3  0  0  0  0  0  0
  159.5850  212.1230  154.0450 C   0  0  2  0  0  3  0  0  0  0  0  0
  160.1650  211.9520  155.4350 C   0  0  1  0  0  3  0  0  0  0  0  0
  160.0960  209.6970  154.3120 C   0  0  1  0  0  3  0  0  0  0  0  0
  159.6530  210.7600  153.3640 C   0  0  2  0  0  0  0  0  0  0  0  0
  161.0140  210.0970  153.1460 C   0  0  2  0  0  3  0  0  0  0  0  0
  158.5440  210.3240  152.6350 O   0  0  0  0  0  1  0  0  0  0  0  0
  161.7940  210.1310  156.1570 C   0  0  0  0  0  0  0  0  0  0  0  0
  161.1300  207.8960  156.8060 O   0  0  0  0  0  1  0  0  0  0  0  0
  162.7410  210.9650  156.0460 O   0  0  0  0  0  0  0  0  0  0  0  0
  162.0530  208.8860  156.7970 N   0  0  0  0  0  2  0  0  0  0  0  0
  159.7050  213.0870  152.1250 F   0  0  0  0  0  0  0  0  0  0  0  0
  160.2890  213.0930  153.3200 O   0  0  0  0  0  0  0  0  0  0  0  0
  159.1220  212.5130  156.4360 C   0  0  2  0  0  3  0  0  0  0  0  0
  157.4780  214.2220  156.0150 O   0  0  0  0  0  1  0  0  0  0  0  0
  157.8090  212.8930  155.7240 C   0  0  2  0  0  3  0  0  0  0  0  0
  156.6320  211.9980  156.1170 C   0  0  0  0  0  2  0  0  0  0  0  0
  156.5290  210.9350  155.2140 O   0  0  0  0  0  0  0  0  0  0  0  0
  155.2670  210.3790  155.4540 C   0  0  0  0  0  1  0  0  0  0  0  0
  159.6720  213.7110  157.2530 C   0  0  0  0  0  2  0  0  0  0  0  0
  161.0720  213.7300  157.2350 O   0  0  0  0  0  1  0  0  0  0  0  0
  1 25  1  0  0  0  0
  3  1  1  0  0  0  0
  3  2  1  1  0  0  0
  4  6  2  0  0  0  0
  5  7  1  0  0  0  0
  6  7  1  0  0  0  0
  7  3  1  6  0  0  0
  8 10  1  6  0  0  0
  8  4  1  0  0  0  0
  8  9  1  0  0  0  0
  9  5  1  0  0  0  0
 10 24  1  6  0  0  0
 10 11  1  0  0  0  0
 12 13  2  0  0  0  0
 13 11  1  0  0  0  0
 13 14  1  0  0  0  0
 14 15  1  0  0  0  0
 15 16  1  0  0  0  0
 16 20  1  0  0  0  0
 16 18  1  0  0  0  0
 17 22  2  0  0  0  0
 18 19  1  0  0  0  0
 19 17  1  0  0  0  0
 20 21  1  0  0  0  0
 21 17  1  0  0  0  0
 23 24  2  0  0  0  0
 25 31  1  0  0  0  0
 26 33  1  6  0  0  0
 27 38  1  6  0  0  0
 27 28  1  0  0  0  0
 28 26  1  0  0  0  0
 28 39  1  1  0  0  0
 29 26  1  0  0  0  0
 30 27  1  0  0  0  0
 30 29  1  0  0  0  0
 31 30  1  0  0  0  0
 31 29  1  0  0  0  0
 32 30  1  0  0  0  0
 33 36  1  0  0  0  0
 35 33  2  0  0  0  0
 36 34  1  0  0  0  0
 37 38  1  0  0  0  0
 39 45  1  0  0  0  0
 41 40  1  0  0  0  0
 41 42  1  0  0  0  0
 41 39  1  0  0  0  0
 43 44  1  0  0  0  0
 43 42  1  0  0  0  0
 46 45  1  0  0  0  0
M  END
>  <MODEL>
5

>  <REMARK>
 VINA RESULT:      -4.9      3.724     10.879
  Name = 
  17 active torsions:
  status: ('A' for Active; 'I' for Inactive)
    1  A    between atoms: C_1  and  C_14
    2  A    between atoms: N_2  and  CA_43
    3  A    between atoms: C_3  and  C_5
    4  A    between atoms: C_6  and  C_15
    5  A    between atoms: C_6  and  C_16
    6  A    between atoms: C_6  and  C_40
    7  A    between atoms: C_9  and  O_25
    8  A    between atoms: C_12  and  C_17
    9  A    between atoms: C_12  and  C_42
   10  A    between atoms: C_14  and  O_23
   11  A    between atoms: C_17  and  C_27
   12  A    between atoms: C_22  and  C_42
   13  A    between atoms: O_23  and  C_45
   14  A    between atoms: C_31  and  CA_43
   15  A    between atoms: C_33  and  CA_43
   16  A    between atoms: C_34  and  O_36
   17  A    between atoms: C_34  and  C_40
                            x       y       z     vdW  Elec       q    Type
                         _______ _______ _______ _____ _____    ______ ____

>  <TORSDO>
F 17

$$$$
=
 OpenBabel11072413553D

 46 49  0  0  1  0  0  0  0  0999 V2000
  160.1970  209.3600  154.9540 C   0  0  0  0  0  2  0  0  0  0  0  0
  160.9670  211.4850  154.0500 O   0  0  0  0  0  1  0  0  0  0  0  0
  160.7220  210.7800  155.2380 C   0  0  1  0  0  3  0  0  0  0  0  0
  159.0810  213.8210  155.3320 C   0  0  0  0  0  3  0  0  0  0  0  0
  158.2760  211.1510  155.9640 C   0  0  0  0  0  2  0  0  0  0  0  0
  159.9530  213.0430  155.9860 C   0  0  0  0  0  3  0  0  0  0  0  0
  159.7490  211.5600  156.1500 C   0  0  2  0  0  3  0  0  0  0  0  0
  157.7640  213.3230  154.7770 C   0  0  2  0  0  3  0  0  0  0  0  0
  157.6800  211.7900  154.7160 C   0  0  0  0  0  2  0  0  0  0  0  0
  157.3520  214.0030  153.4460 C   0  0  1  0  0  3  0  0  0  0  0  0
  157.6850  213.1620  152.3000 N   0  0  0  0  0  2  0  0  0  0  0  0
  159.6340  214.2200  151.5860 O   0  0  0  0  0  0  0  0  0  0  0  0
  158.5890  213.5910  151.2840 C   0  0  0  0  0  0  0  0  0  0  0  0
  158.2080  213.4290  149.9490 O   0  0  0  0  0  0  0  0  0  0  0  0
  158.7220  214.2070  148.8700 C   0  0  0  0  0  2  0  0  0  0  0  0
  159.7190  213.4480  147.9620 C   0  0  0  0  0  3  0  0  0  0  0  0
  161.8730  213.0650  146.1030 C   0  0  0  0  0  0  0  0  0  0  0  0
  159.4720  213.5980  146.4520 C   0  0  0  0  0  2  0  0  0  0  0  0
  160.4750  212.7570  145.6470 C   0  0  0  0  0  2  0  0  0  0  0  0
  161.1480  213.8540  148.3200 C   0  0  0  0  0  2  0  0  0  0  0  0
  162.1500  212.9810  147.5740 C   0  0  0  0  0  2  0  0  0  0  0  0
  162.6370  213.8090  145.3760 N   0  0  0  0  0  2  0  0  0  0  0  0
  155.1280  213.9950  154.2880 O   0  0  0  0  0  0  0  0  0  0  0  0
  155.8880  214.3730  153.4090 C   0  0  0  0  0  3  0  0  0  0  0  0
  161.3060  208.3120  155.0080 C   0  0  0  0  0  2  0  0  0  0  0  0
  161.1990  208.1720  151.0880 C   0  0  1  0  0  3  0  0  0  0  0  0
  161.6790  205.9460  151.9940 C   0  0  2  0  0  3  0  0  0  0  0  0
  161.8840  206.8230  150.7750 C   0  0  1  0  0  3  0  0  0  0  0  0
  160.6610  208.1580  152.5280 C   0  0  1  0  0  3  0  0  0  0  0  0
  161.0290  206.8170  153.0640 C   0  0  2  0  0  0  0  0  0  0  0  0
  161.7720  208.0490  153.5830 C   0  0  2  0  0  3  0  0  0  0  0  0
  159.9690  206.2850  153.8020 O   0  0  0  0  0  1  0  0  0  0  0  0
  162.0630  209.3640  150.7790 C   0  0  0  0  0  0  0  0  0  0  0  0
  161.3560  209.3880  148.4640 O   0  0  0  0  0  1  0  0  0  0  0  0
  162.7180  209.9470  151.6930 O   0  0  0  0  0  0  0  0  0  0  0  0
  162.1510  209.8660  149.4500 N   0  0  0  0  0  2  0  0  0  0  0  0
  163.8110  206.0470  151.7160 F   0  0  0  0  0  0  0  0  0  0  0  0
  162.8940  205.4090  152.4390 O   0  0  0  0  0  0  0  0  0  0  0  0
  161.2450  206.0840  149.5710 C   0  0  2  0  0  3  0  0  0  0  0  0
  161.9290  204.0940  148.3980 O   0  0  0  0  0  1  0  0  0  0  0  0
  161.4990  204.5650  149.6440 C   0  0  2  0  0  3  0  0  0  0  0  0
  160.2630  203.7690  150.0690 C   0  0  0  0  0  2  0  0  0  0  0  0
  160.6310  202.4520  150.3610 O   0  0  0  0  0  0  0  0  0  0  0  0
  159.9450  201.6710  149.4230 C   0  0  0  0  0  1  0  0  0  0  0  0
  161.7170  206.6550  148.2080 C   0  0  0  0  0  2  0  0  0  0  0  0
  160.7100  206.5430  147.2420 O   0  0  0  0  0  1  0  0  0  0  0  0
  1 25  1  0  0  0  0
  1  3  1  0  0  0  0
  3  2  1  6  0  0  0
  4  6  2  0  0  0  0
  5  7  1  0  0  0  0
  6  7  1  0  0  0  0
  7  3  1  6  0  0  0
  8 10  1  6  0  0  0
  8  4  1  0  0  0  0
  9  8  1  0  0  0  0
  9  5  1  0  0  0  0
 10 24  1  1  0  0  0
 11 10  1  0  0  0  0
 13 12  2  0  0  0  0
 13 11  1  0  0  0  0
 14 13  1  0  0  0  0
 15 14  1  0  0  0  0
 16 20  1  0  0  0  0
 16 15  1  0  0  0  0
 17 21  1  0  0  0  0
 18 16  1  0  0  0  0
 19 17  1  0  0  0  0
 19 18  1  0  0  0  0
 21 20  1  0  0  0  0
 22 17  2  0  0  0  0
 24 23  2  0  0  0  0
 26 33  1  1  0  0  0
 26 29  1  0  0  0  0
 27 38  1  1  0  0  0
 27 30  1  0  0  0  0
 28 39  1  6  0  0  0
 28 26  1  0  0  0  0
 28 27  1  0  0  0  0
 29 30  1  0  0  0  0
 29 31  1  0  0  0  0
 30 31  1  0  0  0  0
 30 32  1  0  0  0  0
 31 25  1  0  0  0  0
 33 35  2  0  0  0  0
 34 36  1  0  0  0  0
 36 33  1  0  0  0  0
 37 38  1  0  0  0  0
 39 41  1  0  0  0  0
 40 41  1  0  0  0  0
 41 42  1  0  0  0  0
 42 43  1  0  0  0  0
 44 43  1  0  0  0  0
 45 39  1  0  0  0  0
 46 45  1  0  0  0  0
M  END
>  <MODEL>
6

>  <REMARK>
 VINA RESULT:      -4.9      2.193      3.875
  Name = 
  17 active torsions:
  status: ('A' for Active; 'I' for Inactive)
    1  A    between atoms: C_1  and  C_14
    2  A    between atoms: N_2  and  CA_43
    3  A    between atoms: C_3  and  C_5
    4  A    between atoms: C_6  and  C_15
    5  A    between atoms: C_6  and  C_16
    6  A    between atoms: C_6  and  C_40
    7  A    between atoms: C_9  and  O_25
    8  A    between atoms: C_12  and  C_17
    9  A    between atoms: C_12  and  C_42
   10  A    between atoms: C_14  and  O_23
   11  A    between atoms: C_17  and  C_27
   12  A    between atoms: C_22  and  C_42
   13  A    between atoms: O_23  and  C_45
   14  A    between atoms: C_31  and  CA_43
   15  A    between atoms: C_33  and  CA_43
   16  A    between atoms: C_34  and  O_36
   17  A    between atoms: C_34  and  C_40
                            x       y       z     vdW  Elec       q    Type
                         _______ _______ _______ _____ _____    ______ ____

>  <TORSDO>
F 17

$$$$
=
 OpenBabel11072413553D

 46 49  0  0  1  0  0  0  0  0999 V2000
  160.4730  208.9200  155.1340 C   0  0  0  0  0  2  0  0  0  0  0  0
  161.7520  210.9390  154.6670 O   0  0  0  0  0  1  0  0  0  0  0  0
  161.3020  210.0920  155.6920 C   0  0  1  0  0  3  0  0  0  0  0  0
  159.8620  213.2080  156.1000 C   0  0  0  0  0  3  0  0  0  0  0  0
  158.9970  210.5610  156.7460 C   0  0  0  0  0  2  0  0  0  0  0  0
  160.7670  212.3620  156.6070 C   0  0  0  0  0  3  0  0  0  0  0  0
  160.5030  210.8860  156.7490 C   0  0  2  0  0  3  0  0  0  0  0  0
  158.4580  212.8020  155.7080 C   0  0  2  0  0  3  0  0  0  0  0  0
  158.2810  211.2790  155.6100 C   0  0  0  0  0  2  0  0  0  0  0  0
  157.9150  213.5540  154.4670 C   0  0  1  0  0  3  0  0  0  0  0  0
  157.8940  212.6850  153.2920 N   0  0  0  0  0  2  0  0  0  0  0  0
  159.7990  213.4590  152.1960 O   0  0  0  0  0  0  0  0  0  0  0  0
  158.6360  212.9910  152.1130 C   0  0  0  0  0  0  0  0  0  0  0  0
  157.9830  212.8990  150.8800 O   0  0  0  0  0  0  0  0  0  0  0  0
  157.4250  214.0130  150.1860 C   0  0  0  0  0  2  0  0  0  0  0  0
  157.8570  214.1150  148.7030 C   0  0  0  0  0  3  0  0  0  0  0  0
  158.9080  213.2720  146.1690 C   0  0  0  0  0  0  0  0  0  0  0  0
  159.3750  214.1040  148.4630 C   0  0  0  0  0  2  0  0  0  0  0  0
  159.6930  214.2740  146.9690 C   0  0  0  0  0  2  0  0  0  0  0  0
  157.1720  213.0140  147.8950 C   0  0  0  0  0  2  0  0  0  0  0  0
  157.4300  213.2110  146.4060 C   0  0  0  0  0  2  0  0  0  0  0  0
  159.4980  212.2280  145.6900 N   0  0  0  0  0  2  0  0  0  0  0  0
  155.5610  213.4250  154.7780 O   0  0  0  0  0  0  0  0  0  0  0  0
  156.5450  214.1470  154.6960 C   0  0  0  0  0  3  0  0  0  0  0  0
  161.2950  207.6390  155.0080 C   0  0  0  0  0  2  0  0  0  0  0  0
  161.1070  207.5490  151.0900 C   0  0  1  0  0  3  0  0  0  0  0  0
  162.1450  205.4930  151.9280 C   0  0  2  0  0  3  0  0  0  0  0  0
  162.0910  206.4160  150.7270 C   0  0  1  0  0  3  0  0  0  0  0  0
  160.6320  207.3770  152.5420 C   0  0  1  0  0  3  0  0  0  0  0  0
  161.3340  206.1580  153.0360 C   0  0  2  0  0  0  0  0  0  0  0  0
  161.7680  207.5250  153.5660 C   0  0  2  0  0  3  0  0  0  0  0  0
  160.4590  205.3690  153.7860 O   0  0  0  0  0  1  0  0  0  0  0  0
  161.6420  208.9220  150.7900 C   0  0  0  0  0  0  0  0  0  0  0  0
  160.0160  209.9700  152.2450 O   0  0  0  0  0  1  0  0  0  0  0  0
  162.6640  209.0770  150.0590 O   0  0  0  0  0  0  0  0  0  0  0  0
  161.0110  210.0770  151.3330 N   0  0  0  0  0  2  0  0  0  0  0  0
  164.1800  206.1040  151.5830 F   0  0  0  0  0  0  0  0  0  0  0  0
  163.4670  205.2630  152.3290 O   0  0  0  0  0  0  0  0  0  0  0  0
  161.6170  205.5640  149.5210 C   0  0  2  0  0  3  0  0  0  0  0  0
  159.8940  206.4750  148.1050 O   0  0  0  0  0  1  0  0  0  0  0  0
  161.2790  206.4500  148.3050 C   0  0  2  0  0  3  0  0  0  0  0  0
  161.9530  205.9800  147.0140 C   0  0  0  0  0  2  0  0  0  0  0  0
  161.2000  204.9500  146.4400 O   0  0  0  0  0  0  0  0  0  0  0  0
  162.1240  204.1910  145.7130 C   0  0  0  0  0  1  0  0  0  0  0  0
  160.4200  204.6450  149.8800 C   0  0  0  0  0  2  0  0  0  0  0  0
  160.7220  203.3030  149.6170 O   0  0  0  0  0  1  0  0  0  0  0  0
  1  3  1  0  0  0  0
  3  2  1  6  0  0  0
  4  6  2  0  0  0  0
  5  7  1  0  0  0  0
  6  7  1  0  0  0  0
  7  3  1  6  0  0  0
  8 10  1  6  0  0  0
  8  4  1  0  0  0  0
  9  8  1  0  0  0  0
  9  5  1  0  0  0  0
 10 24  1  1  0  0  0
 11 10  1  0  0  0  0
 13 12  2  0  0  0  0
 13 11  1  0  0  0  0
 14 13  1  0  0  0  0
 15 14  1  0  0  0  0
 16 15  1  0  0  0  0
 17 21  1  0  0  0  0
 17 19  1  0  0  0  0
 18 16  1  0  0  0  0
 19 18  1  0  0  0  0
 20 16  1  0  0  0  0
 21 20  1  0  0  0  0
 22 17  2  0  0  0  0
 24 23  2  0  0  0  0
 25  1  1  0  0  0  0
 26 33  1  1  0  0  0
 26 29  1  0  0  0  0
 27 38  1  1  0  0  0
 27 30  1  0  0  0  0
 28 39  1  6  0  0  0
 28 26  1  0  0  0  0
 28 27  1  0  0  0  0
 29 30  1  0  0  0  0
 29 31  1  0  0  0  0
 30 31  1  0  0  0  0
 30 32  1  0  0  0  0
 31 25  1  0  0  0  0
 33 36  1  0  0  0  0
 35 33  2  0  0  0  0
 36 34  1  0  0  0  0
 37 38  1  0  0  0  0
 39 45  1  0  0  0  0
 40 41  1  0  0  0  0
 41 39  1  0  0  0  0
 42 41  1  0  0  0  0
 43 42  1  0  0  0  0
 44 43  1  0  0  0  0
 46 45  1  0  0  0  0
M  END
>  <MODEL>
7

>  <REMARK>
 VINA RESULT:      -4.5      2.285      4.146
  Name = 
  17 active torsions:
  status: ('A' for Active; 'I' for Inactive)
    1  A    between atoms: C_1  and  C_14
    2  A    between atoms: N_2  and  CA_43
    3  A    between atoms: C_3  and  C_5
    4  A    between atoms: C_6  and  C_15
    5  A    between atoms: C_6  and  C_16
    6  A    between atoms: C_6  and  C_40
    7  A    between atoms: C_9  and  O_25
    8  A    between atoms: C_12  and  C_17
    9  A    between atoms: C_12  and  C_42
   10  A    between atoms: C_14  and  O_23
   11  A    between atoms: C_17  and  C_27
   12  A    between atoms: C_22  and  C_42
   13  A    between atoms: O_23  and  C_45
   14  A    between atoms: C_31  and  CA_43
   15  A    between atoms: C_33  and  CA_43
   16  A    between atoms: C_34  and  O_36
   17  A    between atoms: C_34  and  C_40
                            x       y       z     vdW  Elec       q    Type
                         _______ _______ _______ _____ _____    ______ ____

>  <TORSDO>
F 17

$$$$
=
 OpenBabel11072413553D

 46 49  0  0  1  0  0  0  0  0999 V2000
  161.4930  206.5900  153.8960 C   0  0  0  0  0  2  0  0  0  0  0  0
  160.5460  208.6880  153.1040 O   0  0  0  0  0  1  0  0  0  0  0  0
  161.5450  208.1290  153.9160 C   0  0  1  0  0  3  0  0  0  0  0  0
  161.1740  211.1420  155.5680 C   0  0  0  0  0  3  0  0  0  0  0  0
  160.0350  208.5500  155.9620 C   0  0  0  0  0  2  0  0  0  0  0  0
  161.9760  210.0790  155.4280 C   0  0  0  0  0  3  0  0  0  0  0  0
  161.4470  208.6710  155.3590 C   0  0  2  0  0  3  0  0  0  0  0  0
  159.6770  211.0450  155.7710 C   0  0  2  0  0  3  0  0  0  0  0  0
  159.1190  209.6510  155.4450 C   0  0  0  0  0  2  0  0  0  0  0  0
  158.8810  212.1880  155.0920 C   0  0  1  0  0  3  0  0  0  0  0  0
  158.3560  211.7670  153.7960 N   0  0  0  0  0  2  0  0  0  0  0  0
  160.2450  212.1070  152.4750 O   0  0  0  0  0  0  0  0  0  0  0  0
  158.9920  212.1230  152.5710 C   0  0  0  0  0  0  0  0  0  0  0  0
  158.1980  212.6320  151.5380 O   0  0  0  0  0  0  0  0  0  0  0  0
  158.2540  213.9810  151.0770 C   0  0  0  0  0  2  0  0  0  0  0  0
  158.7270  214.1280  149.6110 C   0  0  0  0  0  3  0  0  0  0  0  0
  159.5440  213.3250  146.9790 C   0  0  0  0  0  0  0  0  0  0  0  0
  160.1830  213.7100  149.3490 C   0  0  0  0  0  2  0  0  0  0  0  0
  160.5660  213.9570  147.8810 C   0  0  0  0  0  2  0  0  0  0  0  0
  157.7710  213.3750  148.6870 C   0  0  0  0  0  2  0  0  0  0  0  0
  158.1060  213.6640  147.2290 C   0  0  0  0  0  2  0  0  0  0  0  0
  159.8180  212.2200  146.3710 N   0  0  0  0  0  2  0  0  0  0  0  0
  156.7680  213.2170  155.4530 O   0  0  0  0  0  0  0  0  0  0  0  0
  157.7620  212.7140  155.9580 C   0  0  0  0  0  3  0  0  0  0  0  0
  160.4570  206.0590  152.9070 C   0  0  0  0  0  2  0  0  0  0  0  0
  161.0790  205.2040  149.1280 C   0  0  1  0  0  3  0  0  0  0  0  0
  161.5670  203.2480  150.5220 C   0  0  2  0  0  3  0  0  0  0  0  0
  161.9180  203.9090  149.2040 C   0  0  1  0  0  3  0  0  0  0  0  0
  160.2900  205.3880  150.4340 C   0  0  1  0  0  3  0  0  0  0  0  0
  160.6630  204.2170  151.2780 C   0  0  2  0  0  0  0  0  0  0  0  0
  161.1950  205.5990  151.6570 C   0  0  2  0  0  3  0  0  0  0  0  0
  159.5330  203.7080  151.9230 O   0  0  0  0  0  1  0  0  0  0  0  0
  161.8840  206.4130  148.7350 C   0  0  0  0  0  0  0  0  0  0  0  0
  160.4460  206.8640  146.8410 O   0  0  0  0  0  1  0  0  0  0  0  0
  162.8530  206.8080  149.4470 O   0  0  0  0  0  0  0  0  0  0  0  0
  161.5630  207.1410  147.5550 N   0  0  0  0  0  2  0  0  0  0  0  0
  162.3310  201.9720  152.0780 F   0  0  0  0  0  0  0  0  0  0  0  0
  162.7200  202.9440  151.2570 O   0  0  0  0  0  0  0  0  0  0  0  0
  161.5720  202.8960  148.0820 C   0  0  2  0  0  3  0  0  0  0  0  0
  159.9640  202.7200  146.2970 O   0  0  0  0  0  1  0  0  0  0  0  0
  160.8870  203.5910  146.8880 C   0  0  2  0  0  3  0  0  0  0  0  0
  161.8750  204.0600  145.8180 C   0  0  0  0  0  2  0  0  0  0  0  0
  161.2060  204.2230  144.6010 O   0  0  0  0  0  0  0  0  0  0  0  0
  161.6590  205.4500  144.1030 C   0  0  0  0  0  1  0  0  0  0  0  0
  160.7110  201.7140  148.5970 C   0  0  0  0  0  2  0  0  0  0  0  0
  161.3660  200.4920  148.3980 O   0  0  0  0  0  1  0  0  0  0  0  0
  1  3  1  0  0  0  0
  3  2  1  6  0  0  0
  4  8  1  0  0  0  0
  6  4  2  0  0  0  0
  7  3  1  6  0  0  0
  7  6  1  0  0  0  0
  7  5  1  0  0  0  0
  8 10  1  6  0  0  0
  9  8  1  0  0  0  0
  9  5  1  0  0  0  0
 10 24  1  1  0  0  0
 11 10  1  0  0  0  0
 12 13  2  0  0  0  0
 13 11  1  0  0  0  0
 14 13  1  0  0  0  0
 15 14  1  0  0  0  0
 16 15  1  0  0  0  0
 17 21  1  0  0  0  0
 17 19  1  0  0  0  0
 18 16  1  0  0  0  0
 19 18  1  0  0  0  0
 20 16  1  0  0  0  0
 21 20  1  0  0  0  0
 22 17  2  0  0  0  0
 23 24  2  0  0  0  0
 25  1  1  0  0  0  0
 26 33  1  1  0  0  0
 26 28  1  0  0  0  0
 26 29  1  0  0  0  0
 27 38  1  1  0  0  0
 27 30  1  0  0  0  0
 28 39  1  6  0  0  0
 28 27  1  0  0  0  0
 29 30  1  0  0  0  0
 29 31  1  0  0  0  0
 30 31  1  0  0  0  0
 30 32  1  0  0  0  0
 31 25  1  0  0  0  0
 33 35  2  0  0  0  0
 34 36  1  0  0  0  0
 36 33  1  0  0  0  0
 38 37  1  0  0  0  0
 39 45  1  0  0  0  0
 40 41  1  0  0  0  0
 41 39  1  0  0  0  0
 42 41  1  0  0  0  0
 43 42  1  0  0  0  0
 44 43  1  0  0  0  0
 46 45  1  0  0  0  0
M  END
>  <MODEL>
8

>  <REMARK>
 VINA RESULT:      -4.4      1.929      2.988
  Name = 
  17 active torsions:
  status: ('A' for Active; 'I' for Inactive)
    1  A    between atoms: C_1  and  C_14
    2  A    between atoms: N_2  and  CA_43
    3  A    between atoms: C_3  and  C_5
    4  A    between atoms: C_6  and  C_15
    5  A    between atoms: C_6  and  C_16
    6  A    between atoms: C_6  and  C_40
    7  A    between atoms: C_9  and  O_25
    8  A    between atoms: C_12  and  C_17
    9  A    between atoms: C_12  and  C_42
   10  A    between atoms: C_14  and  O_23
   11  A    between atoms: C_17  and  C_27
   12  A    between atoms: C_22  and  C_42
   13  A    between atoms: O_23  and  C_45
   14  A    between atoms: C_31  and  CA_43
   15  A    between atoms: C_33  and  CA_43
   16  A    between atoms: C_34  and  O_36
   17  A    between atoms: C_34  and  C_40
                            x       y       z     vdW  Elec       q    Type
                         _______ _______ _______ _____ _____    ______ ____

>  <TORSDO>
F 17

$$$$
=
 OpenBabel11072413553D

 46 49  0  0  1  0  0  0  0  0999 V2000
  161.0240  208.0210  149.7600 C   0  0  0  0  0  2  0  0  0  0  0  0
  159.9220  206.2050  148.5710 O   0  0  0  0  0  1  0  0  0  0  0  0
  161.1720  206.7390  148.9200 C   0  0  1  0  0  3  0  0  0  0  0  0
  162.7060  204.9590  146.3850 C   0  0  0  0  0  3  0  0  0  0  0  0
  161.2010  207.3890  146.4260 C   0  0  0  0  0  2  0  0  0  0  0  0
  162.9280  205.8140  147.3910 C   0  0  0  0  0  3  0  0  0  0  0  0
  162.0310  206.9930  147.6610 C   0  0  2  0  0  3  0  0  0  0  0  0
  161.6050  205.1320  145.3610 C   0  0  2  0  0  3  0  0  0  0  0  0
  160.5530  206.1690  145.7840 C   0  0  0  0  0  2  0  0  0  0  0  0
  160.9790  203.7960  144.8870 C   0  0  1  0  0  3  0  0  0  0  0  0
  161.5190  202.6650  145.6390 N   0  0  0  0  0  2  0  0  0  0  0  0
  160.2470  200.9400  144.7260 O   0  0  0  0  0  0  0  0  0  0  0  0
  160.8310  201.4200  145.7300 C   0  0  0  0  0  0  0  0  0  0  0  0
  160.6960  200.8310  146.9910 O   0  0  0  0  0  0  0  0  0  0  0  0
  159.9520  201.4030  148.0660 C   0  0  0  0  0  2  0  0  0  0  0  0
  160.8270  202.0190  149.1830 C   0  0  0  0  0  3  0  0  0  0  0  0
  161.4740  203.1810  151.7270 C   0  0  0  0  0  0  0  0  0  0  0  0
  160.6220  203.5240  149.4190 C   0  0  0  0  0  2  0  0  0  0  0  0
  161.5810  204.0440  150.5010 C   0  0  0  0  0  2  0  0  0  0  0  0
  160.6270  201.2350  150.4800 C   0  0  0  0  0  2  0  0  0  0  0  0
  161.6180  201.7020  151.5400 C   0  0  0  0  0  2  0  0  0  0  0  0
  160.8320  203.6100  152.7610 N   0  0  0  0  0  2  0  0  0  0  0  0
  158.7960  203.5910  143.9670 O   0  0  0  0  0  0  0  0  0  0  0  0
  159.4710  203.7970  144.9660 C   0  0  0  0  0  3  0  0  0  0  0  0
  162.3450  208.4520  150.3940 C   0  0  0  0  0  2  0  0  0  0  0  0
  160.4790  208.3830  153.8460 C   0  0  1  0  0  3  0  0  0  0  0  0
  161.7680  210.4560  153.6300 C   0  0  2  0  0  3  0  0  0  0  0  0
  161.2040  209.4860  154.6480 C   0  0  1  0  0  3  0  0  0  0  0  0
  160.6780  208.6230  152.3400 C   0  0  1  0  0  3  0  0  0  0  0  0
  161.5200  209.8500  152.2530 C   0  0  2  0  0  0  0  0  0  0  0  0
  162.1460  208.5000  151.9030 C   0  0  2  0  0  3  0  0  0  0  0  0
  161.0520  210.6830  151.2330 O   0  0  0  0  0  1  0  0  0  0  0  0
  160.8370  206.9910  154.2880 C   0  0  0  0  0  0  0  0  0  0  0  0
  159.2780  207.0810  156.1370 O   0  0  0  0  0  1  0  0  0  0  0  0
  161.6460  206.2840  153.6170 O   0  0  0  0  0  0  0  0  0  0  0  0
  160.2640  206.4390  155.4670 N   0  0  0  0  0  2  0  0  0  0  0  0
  163.2450  210.7000  155.1760 F   0  0  0  0  0  0  0  0  0  0  0  0
  163.1330  210.6830  153.8510 O   0  0  0  0  0  0  0  0  0  0  0  0
  160.2510  210.2940  155.5670 C   0  0  2  0  0  3  0  0  0  0  0  0
  160.7820  212.5810  156.1050 O   0  0  0  0  0  1  0  0  0  0  0  0
  160.1750  211.7730  155.1370 C   0  0  2  0  0  3  0  0  0  0  0  0
  158.7410  212.2610  154.9170 C   0  0  0  0  0  2  0  0  0  0  0  0
  158.6820  213.0330  153.7520 O   0  0  0  0  0  0  0  0  0  0  0  0
  158.5510  212.1040  152.7130 C   0  0  0  0  0  1  0  0  0  0  0  0
  160.6330  210.1770  157.0650 C   0  0  0  0  0  2  0  0  0  0  0  0
  161.6230  209.2050  157.2550 O   0  0  0  0  0  1  0  0  0  0  0  0
  1 25  1  0  0  0  0
  3  2  1  6  0  0  0
  3  1  1  0  0  0  0
  4  6  2  0  0  0  0
  5  7  1  0  0  0  0
  6  7  1  0  0  0  0
  7  3  1  1  0  0  0
  8 10  1  1  0  0  0
  8  9  1  0  0  0  0
  8  4  1  0  0  0  0
  9  5  1  0  0  0  0
 10 24  1  1  0  0  0
 10 11  1  0  0  0  0
 11 13  1  0  0  0  0
 12 13  2  0  0  0  0
 13 14  1  0  0  0  0
 14 15  1  0  0  0  0
 15 16  1  0  0  0  0
 16 18  1  0  0  0  0
 16 20  1  0  0  0  0
 17 22  2  0  0  0  0
 18 19  1  0  0  0  0
 19 17  1  0  0  0  0
 20 21  1  0  0  0  0
 21 17  1  0  0  0  0
 23 24  2  0  0  0  0
 25 31  1  0  0  0  0
 26 33  1  1  0  0  0
 26 28  1  0  0  0  0
 27 38  1  1  0  0  0
 27 28  1  0  0  0  0
 28 39  1  1  0  0  0
 29 26  1  0  0  0  0
 30 29  1  0  0  0  0
 30 27  1  0  0  0  0
 31 30  1  0  0  0  0
 31 29  1  0  0  0  0
 32 30  1  0  0  0  0
 33 36  1  0  0  0  0
 35 33  2  0  0  0  0
 36 34  1  0  0  0  0
 38 37  1  0  0  0  0
 39 45  1  0  0  0  0
 41 39  1  0  0  0  0
 41 40  1  0  0  0  0
 42 41  1  0  0  0  0
 43 42  1  0  0  0  0
 44 43  1  0  0  0  0
 45 46  1  0  0  0  0
M  END
>  <MODEL>
9

>  <REMARK>
 VINA RESULT:      -4.2      3.548     10.415
  Name = 
  17 active torsions:
  status: ('A' for Active; 'I' for Inactive)
    1  A    between atoms: C_1  and  C_14
    2  A    between atoms: N_2  and  CA_43
    3  A    between atoms: C_3  and  C_5
    4  A    between atoms: C_6  and  C_15
    5  A    between atoms: C_6  and  C_16
    6  A    between atoms: C_6  and  C_40
    7  A    between atoms: C_9  and  O_25
    8  A    between atoms: C_12  and  C_17
    9  A    between atoms: C_12  and  C_42
   10  A    between atoms: C_14  and  O_23
   11  A    between atoms: C_17  and  C_27
   12  A    between atoms: C_22  and  C_42
   13  A    between atoms: O_23  and  C_45
   14  A    between atoms: C_31  and  CA_43
   15  A    between atoms: C_33  and  CA_43
   16  A    between atoms: C_34  and  O_36
   17  A    between atoms: C_34  and  C_40
                            x       y       z     vdW  Elec       q    Type
                         _______ _______ _______ _____ _____    ______ ____

>  <TORSDO>
F 17

$$$$
