=
 OpenBabel11072410283D

 32 35  0  0  1  0  0  0  0  0999 V2000
  160.7020  209.0550  154.6700 O   0  0  0  0  0  0  0  0  0  0  0  0
  159.6200  210.8770  153.1270 C   0  0  2  0  0  3  0  0  0  0  0  0
  161.5260  210.4790  151.5050 C   0  0  0  0  0  1  0  0  0  0  0  0
  160.4030  211.4610  154.3010 C   0  0  0  0  0  2  0  0  0  0  0  0
  161.1190  208.8520  153.3280 C   0  0  2  0  0  3  0  0  0  0  0  0
  161.0700  210.3520  155.1290 C   0  0  2  0  0  0  0  0  0  0  0  0
  162.5860  210.5530  155.1020 C   0  0  0  0  0  1  0  0  0  0  0  0
  160.4410  209.8370  152.3560 C   0  0  1  0  0  3  0  0  0  0  0  0
  160.5820  210.5200  156.5660 C   0  0  0  0  0  2  0  0  0  0  0  0
  160.1130  209.2080  157.1800 C   0  0  0  0  0  1  0  0  0  0  0  0
  160.9960  206.5140  154.1800 C   0  0  0  0  0  1  0  0  0  0  0  0
  160.8820  207.3840  152.9350 C   0  0  2  0  0  3  0  0  0  0  0  0
  161.1730  206.7190  150.5520 C   0  0  1  0  0  3  0  0  0  0  0  0
  161.3580  205.2850  150.6850 N   0  0  0  0  0  2  0  0  0  0  0  0
  161.8710  206.8910  151.8680 C   0  0  2  0  0  3  0  0  0  0  0  0
  162.0090  205.4420  151.9250 N   0  0  0  0  0  2  0  0  0  0  0  0
  162.0430  207.2440  149.4220 C   0  0  0  0  0  2  0  0  0  0  0  0
  161.2310  207.3420  148.1400 C   0  0  0  0  0  2  0  0  0  0  0  0
  160.6160  206.2600  146.1440 C   0  0  0  0  0  2  0  0  0  0  0  0
  161.2350  206.0600  147.4530 N   0  0  0  0  0  0  0  0  0  0  0  0
  161.2860  205.4030  144.0320 O   0  0  0  0  0  0  0  0  0  0  0  0
  162.5900  205.6940  147.2540 N   0  0  0  0  0  2  0  0  0  0  0  0
  161.5140  205.5820  145.2170 C   0  0  0  0  0  0  0  0  0  0  0  0
  162.7200  205.1410  145.9090 C   0  0  0  0  0  2  0  0  0  0  0  0
  158.8800  211.9070  152.2680 C   0  0  0  0  0  2  0  0  0  0  0  0
  158.8010  213.5670  153.0170 S   0  0  0  0  0  0  0  0  0  0  0  0
  156.9980  213.4770  153.2220 C   0  0  0  0  0  2  0  0  0  0  0  0
  157.7440  213.5180  155.4990 O   0  0  0  0  0  0  0  0  0  0  0  0
  157.5970  212.6860  156.6180 C   0  0  0  0  0  2  0  0  0  0  0  0
  156.9250  211.4060  156.1790 C   0  0  0  0  0  2  0  0  0  0  0  0
  156.3110  211.7550  154.8560 C   0  0  0  0  0  2  0  0  0  0  0  0
  156.6500  213.2150  154.6740 C   0  0  2  0  0  3  0  0  0  0  0  0
  1  6  1  0  0  0  0
  2 25  1  6  0  0  0
  2  4  1  0  0  0  0
  4  6  1  0  0  0  0
  5 12  1  6  0  0  0
  5  1  1  0  0  0  0
  6  7  1  6  0  0  0
  6  9  1  0  0  0  0
  8  3  1  1  0  0  0
  8  2  1  0  0  0  0
  8  5  1  0  0  0  0
  9 10  1  0  0  0  0
 12 11  1  1  0  0  0
 13 17  1  6  0  0  0
 13 14  1  0  0  0  0
 13 15  1  0  0  0  0
 14 16  1  0  0  0  0
 15 16  1  0  0  0  0
 15 12  1  1  0  0  0
 18 17  1  0  0  0  0
 19 20  1  0  0  0  0
 20 18  1  0  0  0  0
 21 23  2  0  0  0  0
 22 20  1  0  0  0  0
 23 24  1  0  0  0  0
 23 19  1  0  0  0  0
 24 22  1  0  0  0  0
 25 26  1  0  0  0  0
 26 27  1  0  0  0  0
 28 29  1  0  0  0  0
 30 29  1  0  0  0  0
 31 30  1  0  0  0  0
 32 27  1  6  0  0  0
 32 31  1  0  0  0  0
 32 28  1  0  0  0  0
M  END
>  <MODEL>
1

>  <REMARK>
 VINA RESULT:      -6.7      0.000      0.000
  Name = 
  10 active torsions:
  status: ('A' for Active; 'I' for Inactive)
    1  A    between atoms: C_1  and  C_24
    2  A    between atoms: S_2  and  C_7
    3  A    between atoms: S_2  and  C_11
    4  A    between atoms: C_3  and  C_12
    5  A    between atoms: C_7  and  C_14
    6  A    between atoms: C_10  and  C_12
    7  A    between atoms: C_10  and  N_27
    8  A    between atoms: C_11  and  C_22
    9  A    between atoms: C_18  and  C_19
   10  A    between atoms: C_19  and  C_20
                            x       y       z     vdW  Elec       q    Type
                         _______ _______ _______ _____ _____    ______ ____

>  <TORSDO>
F 10

$$$$
=
 OpenBabel11072410283D

 32 35  0  0  1  0  0  0  0  0999 V2000
  160.5730  209.1370  154.7950 O   0  0  0  0  0  0  0  0  0  0  0  0
  159.4770  210.8320  153.1230 C   0  0  2  0  0  3  0  0  0  0  0  0
  161.4290  210.3920  151.5670 C   0  0  0  0  0  1  0  0  0  0  0  0
  160.2180  211.5080  154.2740 C   0  0  0  0  0  2  0  0  0  0  0  0
  161.0250  208.8660  153.4770 C   0  0  2  0  0  3  0  0  0  0  0  0
  160.8960  210.4700  155.1820 C   0  0  2  0  0  0  0  0  0  0  0  0
  162.4060  210.7120  155.1730 C   0  0  0  0  0  1  0  0  0  0  0  0
  160.3430  209.7710  152.4330 C   0  0  1  0  0  3  0  0  0  0  0  0
  160.3720  210.7100  156.5960 C   0  0  0  0  0  2  0  0  0  0  0  0
  160.4980  212.1650  157.0260 C   0  0  0  0  0  1  0  0  0  0  0  0
  161.1300  206.5660  154.4280 C   0  0  0  0  0  1  0  0  0  0  0  0
  160.8370  207.3710  153.1690 C   0  0  2  0  0  3  0  0  0  0  0  0
  160.9090  206.5440  150.8200 C   0  0  1  0  0  3  0  0  0  0  0  0
  161.2510  205.1480  151.0280 N   0  0  0  0  0  2  0  0  0  0  0  0
  161.7370  206.8860  152.0230 C   0  0  2  0  0  3  0  0  0  0  0  0
  162.0250  205.4640  152.1630 N   0  0  0  0  0  2  0  0  0  0  0  0
  161.5830  207.0530  149.5560 C   0  0  0  0  0  2  0  0  0  0  0  0
  160.9110  206.4570  148.3300 C   0  0  0  0  0  2  0  0  0  0  0  0
  161.4190  204.3340  147.4520 C   0  0  0  0  0  2  0  0  0  0  0  0
  161.8860  205.7160  147.5440 N   0  0  0  0  0  0  0  0  0  0  0  0
  161.4180  202.8820  145.5710 O   0  0  0  0  0  0  0  0  0  0  0  0
  161.8840  206.2730  146.2400 N   0  0  0  0  0  2  0  0  0  0  0  0
  161.5740  203.9960  146.0420 C   0  0  0  0  0  0  0  0  0  0  0  0
  161.9510  205.1780  145.2760 C   0  0  0  0  0  2  0  0  0  0  0  0
  158.7290  211.7870  152.1880 C   0  0  0  0  0  2  0  0  0  0  0  0
  159.6290  213.3360  151.8470 S   0  0  0  0  0  0  0  0  0  0  0  0
  158.5490  213.7500  150.4450 C   0  0  0  0  0  2  0  0  0  0  0  0
  158.7300  213.2370  148.1120 O   0  0  0  0  0  0  0  0  0  0  0  0
  159.7650  212.8580  147.2450 C   0  0  0  0  0  2  0  0  0  0  0  0
  161.0010  212.5810  148.0670 C   0  0  0  0  0  2  0  0  0  0  0  0
  160.7220  213.2520  149.3780 C   0  0  0  0  0  2  0  0  0  0  0  0
  159.3690  213.8890  149.1780 C   0  0  2  0  0  3  0  0  0  0  0  0
  1  6  1  0  0  0  0
  2 25  1  6  0  0  0
  2  4  1  0  0  0  0
  4  6  1  0  0  0  0
  5 12  1  6  0  0  0
  5  1  1  0  0  0  0
  6  7  1  6  0  0  0
  6  9  1  0  0  0  0
  8  3  1  1  0  0  0
  8  2  1  0  0  0  0
  8  5  1  0  0  0  0
  9 10  1  0  0  0  0
 12 11  1  1  0  0  0
 13 17  1  6  0  0  0
 13 14  1  0  0  0  0
 13 15  1  0  0  0  0
 14 16  1  0  0  0  0
 15 16  1  0  0  0  0
 15 12  1  1  0  0  0
 18 17  1  0  0  0  0
 19 20  1  0  0  0  0
 20 18  1  0  0  0  0
 21 23  2  0  0  0  0
 22 20  1  0  0  0  0
 23 19  1  0  0  0  0
 24 23  1  0  0  0  0
 24 22  1  0  0  0  0
 26 25  1  0  0  0  0
 27 26  1  0  0  0  0
 28 32  1  0  0  0  0
 29 30  1  0  0  0  0
 29 28  1  0  0  0  0
 30 31  1  0  0  0  0
 32 31  1  0  0  0  0
 32 27  1  1  0  0  0
M  END
>  <MODEL>
2

>  <REMARK>
 VINA RESULT:      -6.2      2.226      3.384
  Name = 
  10 active torsions:
  status: ('A' for Active; 'I' for Inactive)
    1  A    between atoms: C_1  and  C_24
    2  A    between atoms: S_2  and  C_7
    3  A    between atoms: S_2  and  C_11
    4  A    between atoms: C_3  and  C_12
    5  A    between atoms: C_7  and  C_14
    6  A    between atoms: C_10  and  C_12
    7  A    between atoms: C_10  and  N_27
    8  A    between atoms: C_11  and  C_22
    9  A    between atoms: C_18  and  C_19
   10  A    between atoms: C_19  and  C_20
                            x       y       z     vdW  Elec       q    Type
                         _______ _______ _______ _____ _____    ______ ____

>  <TORSDO>
F 10

$$$$
=
 OpenBabel11072410283D

 32 35  0  0  1  0  0  0  0  0999 V2000
  160.6140  209.1200  154.7740 O   0  0  0  0  0  0  0  0  0  0  0  0
  159.6120  210.9260  153.1600 C   0  0  2  0  0  3  0  0  0  0  0  0
  161.4890  210.3720  151.5500 C   0  0  0  0  0  1  0  0  0  0  0  0
  160.4270  211.5210  154.3060 C   0  0  0  0  0  2  0  0  0  0  0  0
  161.0140  208.8420  153.4400 C   0  0  2  0  0  3  0  0  0  0  0  0
  161.0450  210.4160  155.1780 C   0  0  2  0  0  0  0  0  0  0  0  0
  162.5690  210.5440  155.1370 C   0  0  0  0  0  1  0  0  0  0  0  0
  160.3790  209.8180  152.4300 C   0  0  1  0  0  3  0  0  0  0  0  0
  160.5730  210.6660  156.6080 C   0  0  0  0  0  2  0  0  0  0  0  0
  160.8680  212.0820  157.0810 C   0  0  0  0  0  1  0  0  0  0  0  0
  161.1830  206.4960  154.2590 C   0  0  0  0  0  1  0  0  0  0  0  0
  160.7060  207.3730  153.1090 C   0  0  2  0  0  3  0  0  0  0  0  0
  160.8770  205.5440  151.4260 C   0  0  1  0  0  3  0  0  0  0  0  0
  162.2080  205.0340  151.7040 N   0  0  0  0  0  2  0  0  0  0  0  0
  161.3640  206.9120  151.8000 C   0  0  2  0  0  3  0  0  0  0  0  0
  162.6690  206.3170  152.0620 N   0  0  0  0  0  2  0  0  0  0  0  0
  160.6040  205.4720  149.9320 C   0  0  0  0  0  2  0  0  0  0  0  0
  161.4370  204.3690  149.3010 C   0  0  0  0  0  2  0  0  0  0  0  0
  161.1410  202.4720  147.9420 C   0  0  0  0  0  2  0  0  0  0  0  0
  160.6200  203.1810  149.1090 N   0  0  0  0  0  0  0  0  0  0  0  0
  161.4780  200.1390  147.6420 O   0  0  0  0  0  0  0  0  0  0  0  0
  160.8030  202.3560  150.2480 N   0  0  0  0  0  2  0  0  0  0  0  0
  161.2140  201.0800  148.3720 C   0  0  0  0  0  0  0  0  0  0  0  0
  160.9210  200.9730  149.7960 C   0  0  0  0  0  2  0  0  0  0  0  0
  158.9170  211.9540  152.2610 C   0  0  0  0  0  2  0  0  0  0  0  0
  158.8150  213.6200  152.9950 S   0  0  0  0  0  0  0  0  0  0  0  0
  157.0010  213.5540  153.0920 C   0  0  0  0  0  2  0  0  0  0  0  0
  157.5550  213.7610  155.4150 O   0  0  0  0  0  0  0  0  0  0  0  0
  157.3980  212.9660  156.5590 C   0  0  0  0  0  2  0  0  0  0  0  0
  156.8860  211.6090  156.1330 C   0  0  0  0  0  2  0  0  0  0  0  0
  156.3500  211.8420  154.7520 C   0  0  0  0  0  2  0  0  0  0  0  0
  156.5640  213.3190  154.5250 C   0  0  2  0  0  3  0  0  0  0  0  0
  1  6  1  0  0  0  0
  2 25  1  6  0  0  0
  2  4  1  0  0  0  0
  4  6  1  0  0  0  0
  5 12  1  6  0  0  0
  5  1  1  0  0  0  0
  6  7  1  6  0  0  0
  6  9  1  0  0  0  0
  8  3  1  1  0  0  0
  8  2  1  0  0  0  0
  8  5  1  0  0  0  0
  9 10  1  0  0  0  0
 12 11  1  1  0  0  0
 13 17  1  6  0  0  0
 13 14  1  0  0  0  0
 13 15  1  0  0  0  0
 14 16  1  0  0  0  0
 15 16  1  0  0  0  0
 15 12  1  1  0  0  0
 18 17  1  0  0  0  0
 19 23  1  0  0  0  0
 19 20  1  0  0  0  0
 20 18  1  0  0  0  0
 20 22  1  0  0  0  0
 21 23  2  0  0  0  0
 23 24  1  0  0  0  0
 24 22  1  0  0  0  0
 25 26  1  0  0  0  0
 26 27  1  0  0  0  0
 28 29  1  0  0  0  0
 30 29  1  0  0  0  0
 31 30  1  0  0  0  0
 32 27  1  6  0  0  0
 32 31  1  0  0  0  0
 32 28  1  0  0  0  0
M  END
>  <MODEL>
3

>  <REMARK>
 VINA RESULT:      -6.2      2.138      2.437
  Name = 
  10 active torsions:
  status: ('A' for Active; 'I' for Inactive)
    1  A    between atoms: C_1  and  C_24
    2  A    between atoms: S_2  and  C_7
    3  A    between atoms: S_2  and  C_11
    4  A    between atoms: C_3  and  C_12
    5  A    between atoms: C_7  and  C_14
    6  A    between atoms: C_10  and  C_12
    7  A    between atoms: C_10  and  N_27
    8  A    between atoms: C_11  and  C_22
    9  A    between atoms: C_18  and  C_19
   10  A    between atoms: C_19  and  C_20
                            x       y       z     vdW  Elec       q    Type
                         _______ _______ _______ _____ _____    ______ ____

>  <TORSDO>
F 10

$$$$
=
 OpenBabel11072410283D

 32 35  0  0  1  0  0  0  0  0999 V2000
  161.9180  204.5400  146.9950 O   0  0  0  0  0  0  0  0  0  0  0  0
  162.2180  206.8270  148.2410 C   0  0  2  0  0  3  0  0  0  0  0  0
  159.9890  206.3830  149.3630 C   0  0  0  0  0  1  0  0  0  0  0  0
  161.7490  206.9790  146.7960 C   0  0  0  0  0  2  0  0  0  0  0  0
  161.1510  204.5360  148.1890 C   0  0  2  0  0  3  0  0  0  0  0  0
  161.5250  205.6080  146.1380 C   0  0  2  0  0  0  0  0  0  0  0  0
  160.0580  205.4890  145.7220 C   0  0  0  0  0  1  0  0  0  0  0  0
  161.3590  205.8200  149.0160 C   0  0  1  0  0  3  0  0  0  0  0  0
  162.3930  205.5740  144.8820 C   0  0  0  0  0  2  0  0  0  0  0  0
  161.5680  205.5780  143.6030 C   0  0  0  0  0  1  0  0  0  0  0  0
  161.0830  202.0460  148.1630 C   0  0  0  0  0  1  0  0  0  0  0  0
  161.4640  203.2640  148.9940 C   0  0  2  0  0  3  0  0  0  0  0  0
  161.6580  203.6060  151.4550 C   0  0  1  0  0  3  0  0  0  0  0  0
  161.5940  202.2360  151.9310 N   0  0  0  0  0  2  0  0  0  0  0  0
  160.7290  203.2210  150.3420 C   0  0  2  0  0  3  0  0  0  0  0  0
  160.7260  201.8680  150.8830 N   0  0  0  0  0  2  0  0  0  0  0  0
  160.9500  204.5230  152.4390 C   0  0  0  0  0  2  0  0  0  0  0  0
  161.7510  205.8000  152.6320 C   0  0  0  0  0  2  0  0  0  0  0  0
  160.9020  207.1390  154.3690 C   0  0  0  0  0  2  0  0  0  0  0  0
  160.8540  206.9060  152.9270 N   0  0  0  0  0  0  0  0  0  0  0  0
  160.9870  209.2020  155.5450 O   0  0  0  0  0  0  0  0  0  0  0  0
  161.3730  208.0530  152.2750 N   0  0  0  0  0  2  0  0  0  0  0  0
  161.0430  208.5850  154.4940 C   0  0  0  0  0  0  0  0  0  0  0  0
  161.2530  209.1890  153.1840 C   0  0  0  0  0  2  0  0  0  0  0  0
  162.5120  208.1430  148.9660 C   0  0  0  0  0  2  0  0  0  0  0  0
  161.6750  209.5880  148.2340 S   0  0  0  0  0  0  0  0  0  0  0  0
  162.2290  210.6880  149.5690 C   0  0  0  0  0  2  0  0  0  0  0  0
  160.9260  212.4820  148.6590 O   0  0  0  0  0  0  0  0  0  0  0  0
  161.1320  213.4880  147.7040 C   0  0  0  0  0  2  0  0  0  0  0  0
  162.4540  213.2330  147.0180 C   0  0  0  0  0  2  0  0  0  0  0  0
  163.1690  212.2970  147.9450 C   0  0  0  0  0  2  0  0  0  0  0  0
  162.2120  212.1300  149.1000 C   0  0  2  0  0  3  0  0  0  0  0  0
  1  5  1  0  0  0  0
  2 25  1  1  0  0  0
  2  8  1  0  0  0  0
  4  2  1  0  0  0  0
  5 12  1  1  0  0  0
  5  8  1  0  0  0  0
  6  7  1  6  0  0  0
  6  4  1  0  0  0  0
  6  1  1  0  0  0  0
  8  3  1  6  0  0  0
  9  6  1  0  0  0  0
 10  9  1  0  0  0  0
 12 11  1  6  0  0  0
 13 14  1  0  0  0  0
 13 17  1  1  0  0  0
 15 12  1  6  0  0  0
 15 16  1  0  0  0  0
 15 13  1  0  0  0  0
 16 14  1  0  0  0  0
 17 18  1  0  0  0  0
 18 20  1  0  0  0  0
 19 23  1  0  0  0  0
 20 19  1  0  0  0  0
 22 20  1  0  0  0  0
 22 24  1  0  0  0  0
 23 21  2  0  0  0  0
 24 23  1  0  0  0  0
 26 25  1  0  0  0  0
 26 27  1  0  0  0  0
 28 32  1  0  0  0  0
 29 28  1  0  0  0  0
 30 29  1  0  0  0  0
 30 31  1  0  0  0  0
 31 32  1  0  0  0  0
 32 27  1  6  0  0  0
M  END
>  <MODEL>
4

>  <REMARK>
 VINA RESULT:      -5.8      3.536      8.062
  Name = 
  10 active torsions:
  status: ('A' for Active; 'I' for Inactive)
    1  A    between atoms: C_1  and  C_24
    2  A    between atoms: S_2  and  C_7
    3  A    between atoms: S_2  and  C_11
    4  A    between atoms: C_3  and  C_12
    5  A    between atoms: C_7  and  C_14
    6  A    between atoms: C_10  and  C_12
    7  A    between atoms: C_10  and  N_27
    8  A    between atoms: C_11  and  C_22
    9  A    between atoms: C_18  and  C_19
   10  A    between atoms: C_19  and  C_20
                            x       y       z     vdW  Elec       q    Type
                         _______ _______ _______ _____ _____    ______ ____

>  <TORSDO>
F 10

$$$$
=
 OpenBabel11072410283D

 32 35  0  0  1  0  0  0  0  0999 V2000
  161.4260  206.4430  150.7720 O   0  0  0  0  0  0  0  0  0  0  0  0
  160.7030  208.7070  151.8770 C   0  0  2  0  0  3  0  0  0  0  0  0
  162.9960  209.6070  151.2790 C   0  0  0  0  0  1  0  0  0  0  0  0
  161.1050  207.6380  152.8900 C   0  0  0  0  0  2  0  0  0  0  0  0
  162.2010  207.5040  150.2350 C   0  0  2  0  0  3  0  0  0  0  0  0
  161.5840  206.3590  152.1860 C   0  0  2  0  0  0  0  0  0  0  0  0
  163.0370  206.0880  152.5780 C   0  0  0  0  0  1  0  0  0  0  0  0
  161.7580  208.8770  150.7780 C   0  0  1  0  0  3  0  0  0  0  0  0
  160.7170  205.2160  152.7080 C   0  0  0  0  0  2  0  0  0  0  0  0
  160.8600  203.9490  151.8770 C   0  0  0  0  0  1  0  0  0  0  0  0
  161.5530  208.7310  148.1660 C   0  0  0  0  0  1  0  0  0  0  0  0
  162.1610  207.4410  148.7000 C   0  0  2  0  0  3  0  0  0  0  0  0
  162.1770  205.4570  147.1910 C   0  0  1  0  0  3  0  0  0  0  0  0
  161.2660  205.8940  146.1490 N   0  0  0  0  0  2  0  0  0  0  0  0
  161.3610  206.2380  148.1780 C   0  0  2  0  0  3  0  0  0  0  0  0
  160.5000  206.6340  147.0710 N   0  0  0  0  0  2  0  0  0  0  0  0
  162.0060  203.9660  147.4290 C   0  0  0  0  0  2  0  0  0  0  0  0
  161.0140  203.7270  148.5560 C   0  0  0  0  0  2  0  0  0  0  0  0
  160.8120  201.8690  147.1280 C   0  0  0  0  0  2  0  0  0  0  0  0
  160.4540  202.3880  148.4460 N   0  0  0  0  0  0  0  0  0  0  0  0
  161.5650  199.6940  146.5360 O   0  0  0  0  0  0  0  0  0  0  0  0
  161.0880  201.5860  149.4270 N   0  0  0  0  0  2  0  0  0  0  0  0
  161.2910  200.5170  147.3940 C   0  0  0  0  0  0  0  0  0  0  0  0
  161.3900  200.2880  148.8300 C   0  0  0  0  0  2  0  0  0  0  0  0
  160.1670  210.0060  152.4880 C   0  0  0  0  0  2  0  0  0  0  0  0
  161.0400  210.5190  154.0040 S   0  0  0  0  0  0  0  0  0  0  0  0
  159.6020  210.1540  155.0530 C   0  0  0  0  0  2  0  0  0  0  0  0
  161.4260  209.6310  156.5150 O   0  0  0  0  0  0  0  0  0  0  0  0
  161.8340  208.5070  157.2500 C   0  0  0  0  0  2  0  0  0  0  0  0
  160.9540  207.3400  156.8680 C   0  0  0  0  0  2  0  0  0  0  0  0
  159.7630  207.9810  156.2210 C   0  0  0  0  0  2  0  0  0  0  0  0
  160.0460  209.4600  156.3250 C   0  0  2  0  0  3  0  0  0  0  0  0
  1  6  1  0  0  0  0
  2 25  1  1  0  0  0
  2  4  1  0  0  0  0
  5 12  1  6  0  0  0
  5  1  1  0  0  0  0
  5  8  1  0  0  0  0
  6  7  1  1  0  0  0
  6  9  1  0  0  0  0
  6  4  1  0  0  0  0
  8  3  1  1  0  0  0
  8  2  1  0  0  0  0
 10  9  1  0  0  0  0
 12 11  1  6  0  0  0
 13 17  1  1  0  0  0
 13 15  1  0  0  0  0
 14 16  1  0  0  0  0
 14 13  1  0  0  0  0
 15 12  1  6  0  0  0
 16 15  1  0  0  0  0
 17 18  1  0  0  0  0
 19 23  1  0  0  0  0
 19 20  1  0  0  0  0
 20 18  1  0  0  0  0
 20 22  1  0  0  0  0
 21 23  2  0  0  0  0
 23 24  1  0  0  0  0
 24 22  1  0  0  0  0
 25 26  1  0  0  0  0
 26 27  1  0  0  0  0
 28 29  1  0  0  0  0
 30 29  1  0  0  0  0
 31 32  1  0  0  0  0
 31 30  1  0  0  0  0
 32 27  1  6  0  0  0
 32 28  1  0  0  0  0
M  END
>  <MODEL>
5

>  <REMARK>
 VINA RESULT:      -5.6      2.794      4.819
  Name = 
  10 active torsions:
  status: ('A' for Active; 'I' for Inactive)
    1  A    between atoms: C_1  and  C_24
    2  A    between atoms: S_2  and  C_7
    3  A    between atoms: S_2  and  C_11
    4  A    between atoms: C_3  and  C_12
    5  A    between atoms: C_7  and  C_14
    6  A    between atoms: C_10  and  C_12
    7  A    between atoms: C_10  and  N_27
    8  A    between atoms: C_11  and  C_22
    9  A    between atoms: C_18  and  C_19
   10  A    between atoms: C_19  and  C_20
                            x       y       z     vdW  Elec       q    Type
                         _______ _______ _______ _____ _____    ______ ____

>  <TORSDO>
F 10

$$$$
=
 OpenBabel11072410283D

 32 35  0  0  1  0  0  0  0  0999 V2000
  161.4120  206.2860  150.7530 O   0  0  0  0  0  0  0  0  0  0  0  0
  160.6410  208.4520  152.0120 C   0  0  2  0  0  3  0  0  0  0  0  0
  162.9300  209.4230  151.5200 C   0  0  0  0  0  1  0  0  0  0  0  0
  161.0420  207.3160  152.9490 C   0  0  0  0  0  2  0  0  0  0  0  0
  162.1800  207.3950  150.3100 C   0  0  2  0  0  3  0  0  0  0  0  0
  161.5490  206.0990  152.1590 C   0  0  2  0  0  0  0  0  0  0  0  0
  162.9990  205.8180  152.5540 C   0  0  0  0  0  1  0  0  0  0  0  0
  161.7110  208.7170  150.9460 C   0  0  1  0  0  3  0  0  0  0  0  0
  160.6890  204.9090  152.5800 C   0  0  0  0  0  2  0  0  0  0  0  0
  161.2180  203.5880  152.0390 C   0  0  0  0  0  1  0  0  0  0  0  0
  161.5970  208.7870  148.3280 C   0  0  0  0  0  1  0  0  0  0  0  0
  162.1650  207.4460  148.7730 C   0  0  2  0  0  3  0  0  0  0  0  0
  162.1400  205.6160  147.0820 C   0  0  1  0  0  3  0  0  0  0  0  0
  161.2180  206.1580  146.1000 N   0  0  0  0  0  2  0  0  0  0  0  0
  161.3460  206.3050  148.1510 C   0  0  2  0  0  3  0  0  0  0  0  0
  160.4720  206.8130  147.1010 N   0  0  0  0  0  2  0  0  0  0  0  0
  161.9570  204.1100  147.1780 C   0  0  0  0  0  2  0  0  0  0  0  0
  161.2420  203.7520  148.4710 C   0  0  0  0  0  2  0  0  0  0  0  0
  160.7790  202.0160  146.9530 C   0  0  0  0  0  2  0  0  0  0  0  0
  160.5820  202.4630  148.3300 N   0  0  0  0  0  0  0  0  0  0  0  0
  161.3210  199.8450  146.1530 O   0  0  0  0  0  0  0  0  0  0  0  0
  161.2470  201.5550  149.1920 N   0  0  0  0  0  2  0  0  0  0  0  0
  161.1860  200.6220  147.0840 C   0  0  0  0  0  0  0  0  0  0  0  0
  161.4010  200.2860  148.4860 C   0  0  0  0  0  2  0  0  0  0  0  0
  160.0780  209.6950  152.7090 C   0  0  0  0  0  2  0  0  0  0  0  0
  161.1780  210.3790  153.9920 S   0  0  0  0  0  0  0  0  0  0  0  0
  159.7980  211.1770  154.8640 C   0  0  0  0  0  2  0  0  0  0  0  0
  158.9710  213.0210  153.5770 O   0  0  0  0  0  0  0  0  0  0  0  0
  157.7040  213.5160  153.2330 C   0  0  0  0  0  2  0  0  0  0  0  0
  156.6620  212.7470  154.0100 C   0  0  0  0  0  2  0  0  0  0  0  0
  157.3830  211.5140  154.4620 C   0  0  0  0  0  2  0  0  0  0  0  0
  158.7630  211.6640  153.8700 C   0  0  2  0  0  3  0  0  0  0  0  0
  1  6  1  0  0  0  0
  2 25  1  1  0  0  0
  2  4  1  0  0  0  0
  5 12  1  6  0  0  0
  5  1  1  0  0  0  0
  5  8  1  0  0  0  0
  6  7  1  1  0  0  0
  6  9  1  0  0  0  0
  6  4  1  0  0  0  0
  8  3  1  1  0  0  0
  8  2  1  0  0  0  0
 10  9  1  0  0  0  0
 12 11  1  1  0  0  0
 13 17  1  1  0  0  0
 13 15  1  0  0  0  0
 14 13  1  0  0  0  0
 14 16  1  0  0  0  0
 15 12  1  6  0  0  0
 16 15  1  0  0  0  0
 17 18  1  0  0  0  0
 19 23  1  0  0  0  0
 19 20  1  0  0  0  0
 20 18  1  0  0  0  0
 20 22  1  0  0  0  0
 21 23  2  0  0  0  0
 23 24  1  0  0  0  0
 24 22  1  0  0  0  0
 25 26  1  0  0  0  0
 26 27  1  0  0  0  0
 28 32  1  0  0  0  0
 29 28  1  0  0  0  0
 29 30  1  0  0  0  0
 30 31  1  0  0  0  0
 32 31  1  0  0  0  0
 32 27  1  1  0  0  0
M  END
>  <MODEL>
6

>  <REMARK>
 VINA RESULT:      -5.3      2.739      4.409
  Name = 
  10 active torsions:
  status: ('A' for Active; 'I' for Inactive)
    1  A    between atoms: C_1  and  C_24
    2  A    between atoms: S_2  and  C_7
    3  A    between atoms: S_2  and  C_11
    4  A    between atoms: C_3  and  C_12
    5  A    between atoms: C_7  and  C_14
    6  A    between atoms: C_10  and  C_12
    7  A    between atoms: C_10  and  N_27
    8  A    between atoms: C_11  and  C_22
    9  A    between atoms: C_18  and  C_19
   10  A    between atoms: C_19  and  C_20
                            x       y       z     vdW  Elec       q    Type
                         _______ _______ _______ _____ _____    ______ ____

>  <TORSDO>
F 10

$$$$
=
 OpenBabel11072410283D

 32 35  0  0  1  0  0  0  0  0999 V2000
  161.0560  207.5630  149.0040 O   0  0  0  0  0  0  0  0  0  0  0  0
  160.5950  205.3550  150.3390 C   0  0  2  0  0  3  0  0  0  0  0  0
  162.7210  205.8240  151.6370 C   0  0  0  0  0  1  0  0  0  0  0  0
  161.1910  205.1140  148.9540 C   0  0  0  0  0  2  0  0  0  0  0  0
  161.7100  207.6210  150.2620 C   0  0  2  0  0  3  0  0  0  0  0  0
  161.5020  206.4420  148.2470 C   0  0  2  0  0  0  0  0  0  0  0  0
  163.0040  206.5140  147.9610 C   0  0  0  0  0  1  0  0  0  0  0  0
  161.4010  206.3890  151.1340 C   0  0  1  0  0  3  0  0  0  0  0  0
  160.7540  206.4200  146.9160 C   0  0  0  0  0  2  0  0  0  0  0  0
  161.2560  205.3270  145.9830 C   0  0  0  0  0  1  0  0  0  0  0  0
  161.9560  210.0990  150.1810 C   0  0  0  0  0  1  0  0  0  0  0  0
  161.3520  208.9410  150.9650 C   0  0  2  0  0  3  0  0  0  0  0  0
  160.7610  209.5050  153.3180 C   0  0  1  0  0  3  0  0  0  0  0  0
  161.5530  210.7030  153.5240 N   0  0  0  0  0  2  0  0  0  0  0  0
  161.8440  208.9890  152.4190 C   0  0  2  0  0  3  0  0  0  0  0  0
  162.5710  210.2260  152.6750 N   0  0  0  0  0  2  0  0  0  0  0  0
  160.7140  208.6950  154.6040 C   0  0  0  0  0  2  0  0  0  0  0  0
  161.5860  209.3480  155.6640 C   0  0  0  0  0  2  0  0  0  0  0  0
  161.1610  211.2990  156.9060 C   0  0  0  0  0  2  0  0  0  0  0  0
  160.7500  209.9100  156.7140 N   0  0  0  0  0  0  0  0  0  0  0  0
  159.8040  213.2240  157.2280 O   0  0  0  0  0  0  0  0  0  0  0  0
  159.4150  209.9030  156.2370 N   0  0  0  0  0  2  0  0  0  0  0  0
  159.9050  212.0410  156.9490 C   0  0  0  0  0  0  0  0  0  0  0  0
  158.7880  211.1650  156.6170 C   0  0  0  0  0  2  0  0  0  0  0  0
  160.2080  204.0850  151.1050 C   0  0  0  0  0  2  0  0  0  0  0  0
  161.4330  202.7420  150.9660 S   0  0  0  0  0  0  0  0  0  0  0  0
  160.4220  201.8360  149.7580 C   0  0  0  0  0  2  0  0  0  0  0  0
  160.3550  202.0650  147.3740 O   0  0  0  0  0  0  0  0  0  0  0  0
  160.8320  201.3260  146.2810 C   0  0  0  0  0  2  0  0  0  0  0  0
  161.3760  200.0120  146.7910 C   0  0  0  0  0  2  0  0  0  0  0  0
  161.5810  200.2500  148.2570 C   0  0  0  0  0  2  0  0  0  0  0  0
  161.1750  201.6910  148.4500 C   0  0  2  0  0  3  0  0  0  0  0  0
  1  5  1  0  0  0  0
  2 25  1  1  0  0  0
  2  8  1  0  0  0  0
  4  2  1  0  0  0  0
  5 12  1  1  0  0  0
  5  8  1  0  0  0  0
  6  7  1  6  0  0  0
  6  4  1  0  0  0  0
  6  1  1  0  0  0  0
  8  3  1  6  0  0  0
  9  6  1  0  0  0  0
 10  9  1  0  0  0  0
 12 11  1  6  0  0  0
 13 14  1  0  0  0  0
 13 17  1  1  0  0  0
 15 12  1  6  0  0  0
 15 16  1  0  0  0  0
 15 13  1  0  0  0  0
 16 14  1  0  0  0  0
 17 18  1  0  0  0  0
 18 20  1  0  0  0  0
 19 23  1  0  0  0  0
 20 19  1  0  0  0  0
 22 24  1  0  0  0  0
 22 20  1  0  0  0  0
 23 21  2  0  0  0  0
 24 23  1  0  0  0  0
 26 25  1  0  0  0  0
 27 26  1  0  0  0  0
 28 32  1  0  0  0  0
 29 30  1  0  0  0  0
 29 28  1  0  0  0  0
 30 31  1  0  0  0  0
 31 32  1  0  0  0  0
 32 27  1  1  0  0  0
M  END
>  <MODEL>
7

>  <REMARK>
 VINA RESULT:      -5.3      3.946      9.930
  Name = 
  10 active torsions:
  status: ('A' for Active; 'I' for Inactive)
    1  A    between atoms: C_1  and  C_24
    2  A    between atoms: S_2  and  C_7
    3  A    between atoms: S_2  and  C_11
    4  A    between atoms: C_3  and  C_12
    5  A    between atoms: C_7  and  C_14
    6  A    between atoms: C_10  and  C_12
    7  A    between atoms: C_10  and  N_27
    8  A    between atoms: C_11  and  C_22
    9  A    between atoms: C_18  and  C_19
   10  A    between atoms: C_19  and  C_20
                            x       y       z     vdW  Elec       q    Type
                         _______ _______ _______ _____ _____    ______ ____

>  <TORSDO>
F 10

$$$$
=
 OpenBabel11072410283D

 32 35  0  0  1  0  0  0  0  0999 V2000
  159.5600  209.7930  153.6100 O   0  0  0  0  0  0  0  0  0  0  0  0
  160.6800  211.0530  151.6030 C   0  0  2  0  0  3  0  0  0  0  0  0
  162.9160  210.2540  152.4910 C   0  0  0  0  0  1  0  0  0  0  0  0
  160.2680  211.9770  152.7460 C   0  0  0  0  0  2  0  0  0  0  0  0
  160.8290  209.2190  153.3360 C   0  0  2  0  0  3  0  0  0  0  0  0
  159.6810  211.1780  153.9200 C   0  0  2  0  0  0  0  0  0  0  0  0
  160.5470  211.4070  155.1610 C   0  0  0  0  0  1  0  0  0  0  0  0
  161.4990  209.8570  152.1040 C   0  0  1  0  0  3  0  0  0  0  0  0
  158.2880  211.7440  154.1880 C   0  0  0  0  0  2  0  0  0  0  0  0
  158.0270  213.0350  153.4230 C   0  0  0  0  0  1  0  0  0  0  0  0
  160.7870  207.0630  154.5820 C   0  0  0  0  0  1  0  0  0  0  0  0
  160.6830  207.6950  153.2010 C   0  0  2  0  0  3  0  0  0  0  0  0
  161.0780  206.2820  151.1870 C   0  0  1  0  0  3  0  0  0  0  0  0
  161.6200  205.0790  151.7940 N   0  0  0  0  0  2  0  0  0  0  0  0
  161.7390  207.0800  152.2700 C   0  0  2  0  0  3  0  0  0  0  0  0
  162.2380  205.8250  152.8170 N   0  0  0  0  0  2  0  0  0  0  0  0
  161.7620  206.5350  149.8540 C   0  0  0  0  0  2  0  0  0  0  0  0
  160.7310  206.9090  148.8010 C   0  0  0  0  0  2  0  0  0  0  0  0
  161.8970  206.2320  146.8730 C   0  0  0  0  0  2  0  0  0  0  0  0
  160.7470  205.9300  147.7240 N   0  0  0  0  0  0  0  0  0  0  0  0
  163.4550  204.7330  145.8870 O   0  0  0  0  0  0  0  0  0  0  0  0
  160.9530  204.6590  148.3150 N   0  0  0  0  0  2  0  0  0  0  0  0
  162.5310  204.9360  146.6570 C   0  0  0  0  0  0  0  0  0  0  0  0
  161.8990  203.9170  147.4860 C   0  0  0  0  0  2  0  0  0  0  0  0
  161.2360  211.7650  150.3660 C   0  0  0  0  0  2  0  0  0  0  0  0
  161.8830  210.6290  149.0940 S   0  0  0  0  0  0  0  0  0  0  0  0
  162.6330  211.9870  148.1480 C   0  0  0  0  0  2  0  0  0  0  0  0
  160.5290  211.8860  147.0060 O   0  0  0  0  0  0  0  0  0  0  0  0
  159.9860  212.4650  145.8490 C   0  0  0  0  0  2  0  0  0  0  0  0
  161.0870  213.1960  145.1180 C   0  0  0  0  0  2  0  0  0  0  0  0
  162.1590  213.3650  146.1510 C   0  0  0  0  0  2  0  0  0  0  0  0
  161.5620  212.7520  147.3950 C   0  0  2  0  0  3  0  0  0  0  0  0
  1  6  1  0  0  0  0
  2 25  1  6  0  0  0
  2  8  1  0  0  0  0
  2  4  1  0  0  0  0
  4  6  1  0  0  0  0
  5 12  1  6  0  0  0
  5  1  1  0  0  0  0
  6  9  1  0  0  0  0
  6  7  1  1  0  0  0
  8  3  1  1  0  0  0
  8  5  1  0  0  0  0
 10  9  1  0  0  0  0
 12 11  1  1  0  0  0
 13 17  1  6  0  0  0
 13 14  1  0  0  0  0
 13 15  1  0  0  0  0
 14 16  1  0  0  0  0
 15 16  1  0  0  0  0
 15 12  1  1  0  0  0
 18 17  1  0  0  0  0
 19 20  1  0  0  0  0
 20 22  1  0  0  0  0
 20 18  1  0  0  0  0
 21 23  2  0  0  0  0
 23 19  1  0  0  0  0
 23 24  1  0  0  0  0
 24 22  1  0  0  0  0
 26 25  1  0  0  0  0
 27 26  1  0  0  0  0
 28 32  1  0  0  0  0
 29 28  1  0  0  0  0
 30 29  1  0  0  0  0
 30 31  1  0  0  0  0
 31 32  1  0  0  0  0
 32 27  1  6  0  0  0
M  END
>  <MODEL>
8

>  <REMARK>
 VINA RESULT:      -5.1      2.950      4.800
  Name = 
  10 active torsions:
  status: ('A' for Active; 'I' for Inactive)
    1  A    between atoms: C_1  and  C_24
    2  A    between atoms: S_2  and  C_7
    3  A    between atoms: S_2  and  C_11
    4  A    between atoms: C_3  and  C_12
    5  A    between atoms: C_7  and  C_14
    6  A    between atoms: C_10  and  C_12
    7  A    between atoms: C_10  and  N_27
    8  A    between atoms: C_11  and  C_22
    9  A    between atoms: C_18  and  C_19
   10  A    between atoms: C_19  and  C_20
                            x       y       z     vdW  Elec       q    Type
                         _______ _______ _______ _____ _____    ______ ____

>  <TORSDO>
F 10

$$$$
=
 OpenBabel11072410283D

 32 35  0  0  1  0  0  0  0  0999 V2000
  160.6230  210.2170  152.2170 O   0  0  0  0  0  0  0  0  0  0  0  0
  160.8300  207.7280  153.0100 C   0  0  2  0  0  3  0  0  0  0  0  0
  161.9600  208.6020  155.1030 C   0  0  0  0  0  1  0  0  0  0  0  0
  161.8770  208.1230  151.9720 C   0  0  0  0  0  2  0  0  0  0  0  0
  160.7360  210.1760  153.6310 C   0  0  2  0  0  3  0  0  0  0  0  0
  161.7510  209.6070  151.5950 C   0  0  2  0  0  0  0  0  0  0  0  0
  163.0520  210.3250  151.9560 C   0  0  0  0  0  1  0  0  0  0  0  0
  160.7680  208.7310  154.1680 C   0  0  1  0  0  3  0  0  0  0  0  0
  161.5660  209.6650  150.0810 C   0  0  0  0  0  2  0  0  0  0  0  0
  162.0870  208.4170  149.3820 C   0  0  0  0  0  1  0  0  0  0  0  0
  158.9330  210.1880  155.3490 C   0  0  0  0  0  1  0  0  0  0  0  0
  159.6080  211.0100  154.2600 C   0  0  2  0  0  3  0  0  0  0  0  0
  158.6390  212.9450  153.0240 C   0  0  1  0  0  3  0  0  0  0  0  0
  157.3430  213.0630  153.6670 N   0  0  0  0  0  2  0  0  0  0  0  0
  158.5620  211.4610  153.2290 C   0  0  2  0  0  3  0  0  0  0  0  0
  157.2690  211.6710  153.8680 N   0  0  0  0  0  2  0  0  0  0  0  0
  158.5100  213.2790  151.5470 C   0  0  0  0  0  2  0  0  0  0  0  0
  159.8780  213.2550  150.8850 C   0  0  0  0  0  2  0  0  0  0  0  0
  160.9460  213.4650  148.8000 C   0  0  0  0  0  2  0  0  0  0  0  0
  159.8170  213.9350  149.5990 N   0  0  0  0  0  0  0  0  0  0  0  0
  161.0000  212.8760  146.4980 O   0  0  0  0  0  0  0  0  0  0  0  0
  158.6190  213.5230  148.9630 N   0  0  0  0  0  2  0  0  0  0  0  0
  160.3630  213.1700  147.4960 C   0  0  0  0  0  0  0  0  0  0  0  0
  158.9100  213.2850  147.5530 C   0  0  0  0  0  2  0  0  0  0  0  0
  160.8480  206.2500  153.4150 C   0  0  0  0  0  2  0  0  0  0  0  0
  161.9970  205.2330  152.4290 S   0  0  0  0  0  0  0  0  0  0  0  0
  160.8420  203.8320  152.3790 C   0  0  0  0  0  2  0  0  0  0  0  0
  160.9080  202.4040  150.4560 O   0  0  0  0  0  0  0  0  0  0  0  0
  160.9760  202.5940  149.0680 C   0  0  0  0  0  2  0  0  0  0  0  0
  161.2100  204.0610  148.7950 C   0  0  0  0  0  2  0  0  0  0  0  0
  160.8250  204.7340  150.0780 C   0  0  0  0  0  2  0  0  0  0  0  0
  160.3660  203.5970  150.9590 C   0  0  2  0  0  3  0  0  0  0  0  0
  1  5  1  0  0  0  0
  2 25  1  1  0  0  0
  2  8  1  0  0  0  0
  4  2  1  0  0  0  0
  5  8  1  0  0  0  0
  5 12  1  1  0  0  0
  6  7  1  1  0  0  0
  6  4  1  0  0  0  0
  6  1  1  0  0  0  0
  8  3  1  1  0  0  0
  9  6  1  0  0  0  0
 10  9  1  0  0  0  0
 12 11  1  1  0  0  0
 13 17  1  6  0  0  0
 13 15  1  0  0  0  0
 13 14  1  0  0  0  0
 14 16  1  0  0  0  0
 15 16  1  0  0  0  0
 15 12  1  1  0  0  0
 18 17  1  0  0  0  0
 19 20  1  0  0  0  0
 20 18  1  0  0  0  0
 21 23  2  0  0  0  0
 22 20  1  0  0  0  0
 23 24  1  0  0  0  0
 23 19  1  0  0  0  0
 24 22  1  0  0  0  0
 26 25  1  0  0  0  0
 27 26  1  0  0  0  0
 28 32  1  0  0  0  0
 29 28  1  0  0  0  0
 30 29  1  0  0  0  0
 30 31  1  0  0  0  0
 31 32  1  0  0  0  0
 32 27  1  1  0  0  0
M  END
>  <MODEL>
9

>  <REMARK>
 VINA RESULT:      -5.1      4.447      7.653
  Name = 
  10 active torsions:
  status: ('A' for Active; 'I' for Inactive)
    1  A    between atoms: C_1  and  C_24
    2  A    between atoms: S_2  and  C_7
    3  A    between atoms: S_2  and  C_11
    4  A    between atoms: C_3  and  C_12
    5  A    between atoms: C_7  and  C_14
    6  A    between atoms: C_10  and  C_12
    7  A    between atoms: C_10  and  N_27
    8  A    between atoms: C_11  and  C_22
    9  A    between atoms: C_18  and  C_19
   10  A    between atoms: C_19  and  C_20
                            x       y       z     vdW  Elec       q    Type
                         _______ _______ _______ _____ _____    ______ ____

>  <TORSDO>
F 10

$$$$
