=
 OpenBabel11072413153D

 27 28  0  0  1  0  0  0  0  0999 V2000
  160.5920  209.1390  152.1140 C   0  0  1  0  0  3  0  0  0  0  0  0
  161.6960  205.7040  153.2380 C   0  0  2  0  0  3  0  0  0  0  0  0
  162.6320  206.0550  152.0670 C   0  0  0  0  0  2  0  0  0  0  0  0
  161.1490  206.9390  148.8650 O   0  0  0  0  0  0  0  0  0  0  0  0
  162.6010  208.2440  150.8720 C   0  0  0  0  0  2  0  0  0  0  0  0
  159.6970  210.3020  152.4990 C   0  0  0  0  0  2  0  0  0  0  0  0
  161.5230  207.9220  155.4210 O   0  0  0  0  0  0  0  0  0  0  0  0
  161.5220  209.3320  150.9070 C   0  0  2  0  0  3  0  0  0  0  0  0
  161.2100  206.3600  149.9820 C   0  0  0  0  0  0  0  0  0  0  0  0
  161.1770  207.9660  154.2110 C   0  0  0  0  0  0  0  0  0  0  0  0
  161.0040  204.5240  152.9760 O   0  0  0  0  0  1  0  0  0  0  0  0
  160.3420  210.3200  153.8780 C   0  0  0  0  0  2  0  0  0  0  0  0
  162.0340  206.9040  151.0300 N   0  0  0  0  0  0  0  0  0  0  0  0
  160.7580  206.7720  153.5460 N   0  0  0  0  0  2  0  0  0  0  0  0
  161.3200  209.2410  153.4410 C   0  0  2  0  0  3  0  0  0  0  0  0
  160.3600  205.1530  150.2050 C   0  0  0  0  0  2  0  0  0  0  0  0
  160.8170  204.0110  149.3100 C   0  0  0  0  0  2  0  0  0  0  0  0
  160.7320  202.6820  150.0440 C   0  0  0  0  0  2  0  0  0  0  0  0
  161.2360  200.7300  148.7690 O   0  0  0  0  0  1  0  0  0  0  0  0
  160.2060  201.6050  149.1140 C   0  0  0  0  0  2  0  0  0  0  0  0
  162.1880  210.7060  150.8370 C   0  0  0  0  0  2  0  0  0  0  0  0
  161.9030  210.1710  148.5340 O   0  0  0  0  0  1  0  0  0  0  0  0
  162.2470  211.2060  149.4030 C   0  0  1  0  0  3  0  0  0  0  0  0
  161.2900  212.3740  149.2100 C   0  0  0  0  0  2  0  0  0  0  0  0
  161.9440  213.4740  148.3840 C   0  0  0  0  0  2  0  0  0  0  0  0
  160.4850  212.7390  146.4900 C   0  0  0  0  0  1  0  0  0  0  0  0
  161.8860  213.1570  146.8960 C   0  0  0  0  0  2  0  0  0  0  0  0
  1  6  1  1  0  0  0
  1 15  1  0  0  0  0
  2 11  1  6  0  0  0
  2 14  1  0  0  0  0
  3  2  1  0  0  0  0
  4  9  2  0  0  0  0
  5  8  1  0  0  0  0
  5 13  1  0  0  0  0
  6 12  1  0  0  0  0
  8 21  1  1  0  0  0
  8  1  1  0  0  0  0
  9 16  1  0  0  0  0
  9 13  1  0  0  0  0
 10  7  2  0  0  0  0
 13  3  1  0  0  0  0
 14 10  1  0  0  0  0
 15 12  1  1  0  0  0
 15 10  1  0  0  0  0
 17 18  1  0  0  0  0
 17 16  1  0  0  0  0
 19 20  1  0  0  0  0
 20 18  1  0  0  0  0
 23 22  1  6  0  0  0
 23 21  1  0  0  0  0
 24 23  1  0  0  0  0
 25 24  1  0  0  0  0
 26 27  1  0  0  0  0
 27 25  1  0  0  0  0
M  END
>  <MODEL>
1

>  <REMARK>
 VINA RESULT:      -6.5      0.000      0.000
  Name = 
  9 active torsions:
  status: ('A' for Active; 'I' for Inactive)
    1  A    between atoms: C_4  and  C_22
    2  A    between atoms: C_4  and  C_24
    3  A    between atoms: C_10  and  C_26
    4  A    between atoms: C_11  and  C_20
    5  A    between atoms: C_11  and  C_27
    6  A    between atoms: C_12  and  C_14
    7  A    between atoms: C_14  and  C_27
    8  A    between atoms: C_22  and  C_26
    9  A    between atoms: C_24  and  C_25
                            x       y       z     vdW  Elec       q    Type
                         _______ _______ _______ _____ _____    ______ ____

>  <TORSDO>
F 9

$$$$
=
 OpenBabel11072413153D

 27 28  0  0  1  0  0  0  0  0999 V2000
  160.8630  206.5580  150.1630 C   0  0  1  0  0  3  0  0  0  0  0  0
  162.0940  210.0350  150.9840 C   0  0  2  0  0  3  0  0  0  0  0  0
  162.6970  209.1360  152.0780 C   0  0  0  0  0  2  0  0  0  0  0  0
  160.4480  207.0830  154.0700 O   0  0  0  0  0  0  0  0  0  0  0  0
  162.4320  206.6570  152.1410 C   0  0  0  0  0  2  0  0  0  0  0  0
  160.1480  205.7560  149.0930 C   0  0  0  0  0  2  0  0  0  0  0  0
  162.5940  209.0020  148.0870 O   0  0  0  0  0  0  0  0  0  0  0  0
  161.4430  205.7850  151.3570 C   0  0  2  0  0  3  0  0  0  0  0  0
  160.7830  208.0810  153.3770 C   0  0  0  0  0  0  0  0  0  0  0  0
  161.9410  208.4690  149.0210 C   0  0  0  0  0  0  0  0  0  0  0  0
  161.3130  211.0400  151.5510 O   0  0  0  0  0  1  0  0  0  0  0  0
  161.1380  206.2810  148.0620 C   0  0  0  0  0  2  0  0  0  0  0  0
  161.8760  207.9760  152.4470 N   0  0  0  0  0  0  0  0  0  0  0  0
  161.3130  209.2890  150.0100 N   0  0  0  0  0  2  0  0  0  0  0  0
  161.9210  206.9790  149.1620 C   0  0  2  0  0  3  0  0  0  0  0  0
  159.9780  209.3320  153.4970 C   0  0  0  0  0  2  0  0  0  0  0  0
  160.1140  209.9180  154.8950 C   0  0  0  0  0  2  0  0  0  0  0  0
  161.1620  211.0180  154.9190 C   0  0  0  0  0  2  0  0  0  0  0  0
  162.1010  209.3430  156.3340 O   0  0  0  0  0  1  0  0  0  0  0  0
  162.3490  210.5900  155.7620 C   0  0  0  0  0  2  0  0  0  0  0  0
  162.1190  204.4660  150.9850 C   0  0  0  0  0  2  0  0  0  0  0  0
  160.5160  203.7220  152.5830 O   0  0  0  0  0  1  0  0  0  0  0  0
  161.3470  203.2850  151.5510 C   0  0  1  0  0  3  0  0  0  0  0  0
  160.5080  202.6310  150.4620 C   0  0  0  0  0  2  0  0  0  0  0  0
  161.0330  201.2370  150.1440 C   0  0  0  0  0  2  0  0  0  0  0  0
  161.0940  202.3470  147.9030 C   0  0  0  0  0  1  0  0  0  0  0  0
  161.1560  201.0230  148.6410 C   0  0  0  0  0  2  0  0  0  0  0  0
  1  6  1  6  0  0  0
  1  8  1  0  0  0  0
  2 11  1  1  0  0  0
  2  3  1  0  0  0  0
  3 13  1  0  0  0  0
  5 13  1  0  0  0  0
  7 10  2  0  0  0  0
  8 21  1  6  0  0  0
  8  5  1  0  0  0  0
  9 16  1  0  0  0  0
  9  4  2  0  0  0  0
 10 15  1  0  0  0  0
 10 14  1  0  0  0  0
 12  6  1  0  0  0  0
 13  9  1  0  0  0  0
 14  2  1  0  0  0  0
 15 12  1  6  0  0  0
 15  1  1  0  0  0  0
 16 17  1  0  0  0  0
 17 18  1  0  0  0  0
 18 20  1  0  0  0  0
 20 19  1  0  0  0  0
 21 23  1  0  0  0  0
 23 22  1  1  0  0  0
 24 23  1  0  0  0  0
 25 24  1  0  0  0  0
 26 27  1  0  0  0  0
 27 25  1  0  0  0  0
M  END
>  <MODEL>
2

>  <REMARK>
 VINA RESULT:      -6.1      2.364      7.429
  Name = 
  9 active torsions:
  status: ('A' for Active; 'I' for Inactive)
    1  A    between atoms: C_4  and  C_22
    2  A    between atoms: C_4  and  C_24
    3  A    between atoms: C_10  and  C_26
    4  A    between atoms: C_11  and  C_20
    5  A    between atoms: C_11  and  C_27
    6  A    between atoms: C_12  and  C_14
    7  A    between atoms: C_14  and  C_27
    8  A    between atoms: C_22  and  C_26
    9  A    between atoms: C_24  and  C_25
                            x       y       z     vdW  Elec       q    Type
                         _______ _______ _______ _____ _____    ______ ____

>  <TORSDO>
F 9

$$$$
=
 OpenBabel11072413153D

 27 28  0  0  1  0  0  0  0  0999 V2000
  160.5150  209.2790  152.1490 C   0  0  1  0  0  3  0  0  0  0  0  0
  161.7530  205.9330  153.3930 C   0  0  2  0  0  3  0  0  0  0  0  0
  162.6670  206.2730  152.2010 C   0  0  0  0  0  2  0  0  0  0  0  0
  161.1260  206.9760  148.9810 O   0  0  0  0  0  0  0  0  0  0  0  0
  162.5450  208.4100  150.9230 C   0  0  0  0  0  2  0  0  0  0  0  0
  159.5810  210.4230  152.4970 C   0  0  0  0  0  2  0  0  0  0  0  0
  161.5150  208.2260  155.4910 O   0  0  0  0  0  0  0  0  0  0  0  0
  161.4270  209.4590  150.9260 C   0  0  2  0  0  3  0  0  0  0  0  0
  161.2180  206.4440  150.1190 C   0  0  0  0  0  0  0  0  0  0  0  0
  161.1590  208.2100  154.2830 C   0  0  0  0  0  0  0  0  0  0  0  0
  161.1030  204.7190  153.1830 O   0  0  0  0  0  1  0  0  0  0  0  0
  160.2350  210.5170  153.8680 C   0  0  0  0  0  2  0  0  0  0  0  0
  162.0290  207.0580  151.1380 N   0  0  0  0  0  0  0  0  0  0  0  0
  160.7790  206.9770  153.6690 N   0  0  0  0  0  2  0  0  0  0  0  0
  161.2480  209.4590  153.4630 C   0  0  2  0  0  3  0  0  0  0  0  0
  160.4150  205.2160  150.3960 C   0  0  0  0  0  2  0  0  0  0  0  0
  161.2370  203.9690  150.1070 C   0  0  0  0  0  2  0  0  0  0  0  0
  160.4730  203.0170  149.2010 C   0  0  0  0  0  2  0  0  0  0  0  0
  161.9710  203.9210  147.5800 O   0  0  0  0  0  1  0  0  0  0  0  0
  161.2520  202.7760  147.9210 C   0  0  0  0  0  2  0  0  0  0  0  0
  162.0420  210.8530  150.7970 C   0  0  0  0  0  2  0  0  0  0  0  0
  161.8870  210.1580  148.5240 O   0  0  0  0  0  1  0  0  0  0  0  0
  162.1610  211.2580  149.3370 C   0  0  1  0  0  3  0  0  0  0  0  0
  161.1880  212.3830  149.0190 C   0  0  0  0  0  2  0  0  0  0  0  0
  160.6470  213.0050  150.2990 C   0  0  0  0  0  2  0  0  0  0  0  0
  158.1990  213.3760  150.6520 C   0  0  0  0  0  1  0  0  0  0  0  0
  159.4640  213.9190  150.0130 C   0  0  0  0  0  2  0  0  0  0  0  0
  1  6  1  6  0  0  0
  1 15  1  0  0  0  0
  2 11  1  6  0  0  0
  2 14  1  0  0  0  0
  3  2  1  0  0  0  0
  4  9  2  0  0  0  0
  5  8  1  0  0  0  0
  5 13  1  0  0  0  0
  6 12  1  0  0  0  0
  8 21  1  1  0  0  0
  8  1  1  0  0  0  0
  9 16  1  0  0  0  0
  9 13  1  0  0  0  0
 10  7  2  0  0  0  0
 13  3  1  0  0  0  0
 14 10  1  0  0  0  0
 15 12  1  1  0  0  0
 15 10  1  0  0  0  0
 17 16  1  0  0  0  0
 18 17  1  0  0  0  0
 19 20  1  0  0  0  0
 20 18  1  0  0  0  0
 23 22  1  6  0  0  0
 23 21  1  0  0  0  0
 24 23  1  0  0  0  0
 24 25  1  0  0  0  0
 27 25  1  0  0  0  0
 27 26  1  0  0  0  0
M  END
>  <MODEL>
3

>  <REMARK>
 VINA RESULT:      -5.9      1.197      1.531
  Name = 
  9 active torsions:
  status: ('A' for Active; 'I' for Inactive)
    1  A    between atoms: C_4  and  C_22
    2  A    between atoms: C_4  and  C_24
    3  A    between atoms: C_10  and  C_26
    4  A    between atoms: C_11  and  C_20
    5  A    between atoms: C_11  and  C_27
    6  A    between atoms: C_12  and  C_14
    7  A    between atoms: C_14  and  C_27
    8  A    between atoms: C_22  and  C_26
    9  A    between atoms: C_24  and  C_25
                            x       y       z     vdW  Elec       q    Type
                         _______ _______ _______ _____ _____    ______ ____

>  <TORSDO>
F 9

$$$$
=
 OpenBabel11072413153D

 27 28  0  0  1  0  0  0  0  0999 V2000
  160.6420  206.0980  149.3480 C   0  0  1  0  0  3  0  0  0  0  0  0
  162.4550  208.7330  151.3600 C   0  0  2  0  0  3  0  0  0  0  0  0
  162.9950  207.3920  151.8900 C   0  0  0  0  0  2  0  0  0  0  0  0
  160.6180  204.9370  153.1380 O   0  0  0  0  0  0  0  0  0  0  0  0
  162.3560  205.1710  150.9550 C   0  0  0  0  0  2  0  0  0  0  0  0
  159.7310  205.9140  148.1490 C   0  0  0  0  0  2  0  0  0  0  0  0
  162.5630  208.9970  148.2560 O   0  0  0  0  0  0  0  0  0  0  0  0
  161.1870  204.8310  150.0230 C   0  0  2  0  0  3  0  0  0  0  0  0
  161.0480  206.0930  152.8820 C   0  0  0  0  0  0  0  0  0  0  0  0
  161.9100  208.1870  148.9650 C   0  0  0  0  0  0  0  0  0  0  0  0
  161.8850  209.4750  152.3930 O   0  0  0  0  0  1  0  0  0  0  0  0
  160.7060  206.7230  147.3050 C   0  0  0  0  0  2  0  0  0  0  0  0
  162.0370  206.2810  151.8520 N   0  0  0  0  0  0  0  0  0  0  0  0
  161.4960  208.5650  150.2810 N   0  0  0  0  0  2  0  0  0  0  0  0
  161.6710  206.7920  148.4770 C   0  0  2  0  0  3  0  0  0  0  0  0
  160.4580  207.2500  153.6180 C   0  0  0  0  0  2  0  0  0  0  0  0
  160.6510  207.0780  155.1170 C   0  0  0  0  0  2  0  0  0  0  0  0
  161.0170  208.4020  155.7690 C   0  0  0  0  0  2  0  0  0  0  0  0
  159.8010  210.3290  156.4770 O   0  0  0  0  0  1  0  0  0  0  0  0
  159.9970  209.4640  155.4000 C   0  0  0  0  0  2  0  0  0  0  0  0
  161.6200  203.7350  149.0490 C   0  0  0  0  0  2  0  0  0  0  0  0
  160.2810  202.5420  150.6160 O   0  0  0  0  0  1  0  0  0  0  0  0
  161.0570  202.3870  149.4680 C   0  0  1  0  0  3  0  0  0  0  0  0
  160.2070  201.7970  148.3520 C   0  0  0  0  0  2  0  0  0  0  0  0
  161.0870  201.2850  147.2200 C   0  0  0  0  0  2  0  0  0  0  0  0
  161.2240  203.1790  145.5920 C   0  0  0  0  0  1  0  0  0  0  0  0
  160.6190  201.8160  145.8720 C   0  0  0  0  0  2  0  0  0  0  0  0
  1  6  1  6  0  0  0
  1  8  1  0  0  0  0
  2  3  1  0  0  0  0
  2 11  1  1  0  0  0
  5 13  1  0  0  0  0
  7 10  2  0  0  0  0
  8 21  1  6  0  0  0
  8  5  1  0  0  0  0
  9  4  2  0  0  0  0
  9 16  1  0  0  0  0
 10 14  1  0  0  0  0
 12  6  1  0  0  0  0
 13  3  1  0  0  0  0
 13  9  1  0  0  0  0
 14  2  1  0  0  0  0
 15 12  1  6  0  0  0
 15 10  1  0  0  0  0
 15  1  1  0  0  0  0
 16 17  1  0  0  0  0
 17 18  1  0  0  0  0
 20 18  1  0  0  0  0
 20 19  1  0  0  0  0
 21 23  1  0  0  0  0
 23 22  1  1  0  0  0
 24 23  1  0  0  0  0
 25 24  1  0  0  0  0
 26 27  1  0  0  0  0
 27 25  1  0  0  0  0
M  END
>  <MODEL>
4

>  <REMARK>
 VINA RESULT:      -4.9      2.587      7.218
  Name = 
  9 active torsions:
  status: ('A' for Active; 'I' for Inactive)
    1  A    between atoms: C_4  and  C_22
    2  A    between atoms: C_4  and  C_24
    3  A    between atoms: C_10  and  C_26
    4  A    between atoms: C_11  and  C_20
    5  A    between atoms: C_11  and  C_27
    6  A    between atoms: C_12  and  C_14
    7  A    between atoms: C_14  and  C_27
    8  A    between atoms: C_22  and  C_26
    9  A    between atoms: C_24  and  C_25
                            x       y       z     vdW  Elec       q    Type
                         _______ _______ _______ _____ _____    ______ ____

>  <TORSDO>
F 9

$$$$
=
 OpenBabel11072413153D

 27 28  0  0  1  0  0  0  0  0999 V2000
  161.7450  204.7170  148.4300 C   0  0  1  0  0  3  0  0  0  0  0  0
  161.1410  205.5670  152.0620 C   0  0  2  0  0  3  0  0  0  0  0  0
  160.2960  206.5840  151.2740 C   0  0  0  0  0  2  0  0  0  0  0  0
  161.9550  208.6590  148.7880 O   0  0  0  0  0  0  0  0  0  0  0  0
  160.0790  206.5810  148.7900 C   0  0  0  0  0  2  0  0  0  0  0  0
  162.3730  203.6730  147.5260 C   0  0  0  0  0  2  0  0  0  0  0  0
  160.6740  202.6070  151.2020 O   0  0  0  0  0  0  0  0  0  0  0  0
  160.9390  205.8400  147.7600 C   0  0  2  0  0  3  0  0  0  0  0  0
  161.8700  207.9790  149.8450 C   0  0  0  0  0  0  0  0  0  0  0  0
  161.1410  203.5670  150.5340 C   0  0  0  0  0  0  0  0  0  0  0  0
  162.0540  206.2210  152.8870 O   0  0  0  0  0  1  0  0  0  0  0  0
  161.5840  202.5940  148.2530 C   0  0  0  0  0  2  0  0  0  0  0  0
  160.8500  206.9700  149.9710 N   0  0  0  0  0  0  0  0  0  0  0  0
  161.8360  204.6250  151.1980 N   0  0  0  0  0  2  0  0  0  0  0  0
  160.8660  203.6590  149.0660 C   0  0  2  0  0  3  0  0  0  0  0  0
  162.8870  208.1980  150.9160 C   0  0  0  0  0  2  0  0  0  0  0  0
  162.7050  209.5690  151.5470 C   0  0  0  0  0  2  0  0  0  0  0  0
  161.5310  209.5660  152.5140 C   0  0  0  0  0  2  0  0  0  0  0  0
  159.4410  210.7100  152.6410 O   0  0  0  0  0  1  0  0  0  0  0  0
  160.8120  210.9020  152.4660 C   0  0  0  0  0  2  0  0  0  0  0  0
  160.0550  205.3770  146.6020 C   0  0  0  0  0  2  0  0  0  0  0  0
  161.9630  206.1980  145.4370 O   0  0  0  0  0  1  0  0  0  0  0  0
  160.6280  205.8300  145.2700 C   0  0  1  0  0  3  0  0  0  0  0  0
  160.5300  204.7110  144.2430 C   0  0  0  0  0  2  0  0  0  0  0  0
  160.8340  203.3640  144.8860 C   0  0  0  0  0  2  0  0  0  0  0  0
  160.0790  200.9970  145.1770 C   0  0  0  0  0  1  0  0  0  0  0  0
  159.7110  202.3670  144.6370 C   0  0  0  0  0  2  0  0  0  0  0  0
  1  6  1  6  0  0  0
  1 15  1  0  0  0  0
  2 11  1  6  0  0  0
  3  2  1  0  0  0  0
  4  9  2  0  0  0  0
  5 13  1  0  0  0  0
  6 12  1  0  0  0  0
  8 21  1  6  0  0  0
  8  1  1  0  0  0  0
  8  5  1  0  0  0  0
  9 13  1  0  0  0  0
  9 16  1  0  0  0  0
 10 14  1  0  0  0  0
 10  7  2  0  0  0  0
 13  3  1  0  0  0  0
 14  2  1  0  0  0  0
 15 12  1  6  0  0  0
 15 10  1  0  0  0  0
 16 17  1  0  0  0  0
 17 18  1  0  0  0  0
 20 18  1  0  0  0  0
 20 19  1  0  0  0  0
 23 22  1  1  0  0  0
 23 21  1  0  0  0  0
 24 25  1  0  0  0  0
 24 23  1  0  0  0  0
 27 25  1  0  0  0  0
 27 26  1  0  0  0  0
M  END
>  <MODEL>
5

>  <REMARK>
 VINA RESULT:      -4.6      2.706      6.987
  Name = 
  9 active torsions:
  status: ('A' for Active; 'I' for Inactive)
    1  A    between atoms: C_4  and  C_22
    2  A    between atoms: C_4  and  C_24
    3  A    between atoms: C_10  and  C_26
    4  A    between atoms: C_11  and  C_20
    5  A    between atoms: C_11  and  C_27
    6  A    between atoms: C_12  and  C_14
    7  A    between atoms: C_14  and  C_27
    8  A    between atoms: C_22  and  C_26
    9  A    between atoms: C_24  and  C_25
                            x       y       z     vdW  Elec       q    Type
                         _______ _______ _______ _____ _____    ______ ____

>  <TORSDO>
F 9

$$$$
=
 OpenBabel11072413153D

 27 28  0  0  1  0  0  0  0  0999 V2000
  159.8850  212.8130  145.9080 C   0  0  1  0  0  3  0  0  0  0  0  0
  159.5780  213.7190  149.5630 C   0  0  2  0  0  3  0  0  0  0  0  0
  160.9170  214.3320  149.1170 C   0  0  0  0  0  2  0  0  0  0  0  0
  163.4050  212.1500  147.6050 O   0  0  0  0  0  0  0  0  0  0  0  0
  161.7650  214.2620  146.7730 C   0  0  0  0  0  2  0  0  0  0  0  0
  159.1110  212.2230  144.7450 C   0  0  0  0  0  2  0  0  0  0  0  0
  157.1780  214.4530  147.7150 O   0  0  0  0  0  0  0  0  0  0  0  0
  161.2780  213.3890  145.6100 C   0  0  2  0  0  3  0  0  0  0  0  0
  162.4370  212.4420  148.3570 C   0  0  0  0  0  0  0  0  0  0  0  0
  158.2180  213.7950  147.4480 C   0  0  0  0  0  0  0  0  0  0  0  0
  159.7720  212.8310  150.6200 O   0  0  0  0  0  1  0  0  0  0  0  0
  157.9910  213.2210  145.0050 C   0  0  0  0  0  2  0  0  0  0  0  0
  161.6180  213.5880  148.0640 N   0  0  0  0  0  0  0  0  0  0  0  0
  158.8750  213.0530  148.4780 N   0  0  0  0  0  2  0  0  0  0  0  0
  158.8290  213.8870  146.0850 C   0  0  2  0  0  3  0  0  0  0  0  0
  162.1300  211.5340  149.5020 C   0  0  0  0  0  2  0  0  0  0  0  0
  161.9830  210.1000  149.0170 C   0  0  0  0  0  2  0  0  0  0  0  0
  162.0580  209.1260  150.1820 C   0  0  0  0  0  2  0  0  0  0  0  0
  162.5880  207.7070  148.3390 O   0  0  0  0  0  1  0  0  0  0  0  0
  162.1580  207.7020  149.6660 C   0  0  0  0  0  2  0  0  0  0  0  0
  161.3650  214.1860  144.3090 C   0  0  0  0  0  2  0  0  0  0  0  0
  163.4730  213.0870  144.1500 O   0  0  0  0  0  1  0  0  0  0  0  0
  162.4240  213.6020  143.3880 C   0  0  1  0  0  3  0  0  0  0  0  0
  161.8260  212.4980  142.5290 C   0  0  0  0  0  2  0  0  0  0  0  0
  161.7210  212.9440  141.0770 C   0  0  0  0  0  2  0  0  0  0  0  0
  162.2990  210.6880  140.1640 C   0  0  0  0  0  1  0  0  0  0  0  0
  162.6730  212.1580  140.1860 C   0  0  0  0  0  2  0  0  0  0  0  0
  1  6  1  6  0  0  0
  1 15  1  0  0  0  0
  2 11  1  1  0  0  0
  3  2  1  0  0  0  0
  4  9  2  0  0  0  0
  5 13  1  0  0  0  0
  6 12  1  0  0  0  0
  8 21  1  6  0  0  0
  8  1  1  0  0  0  0
  8  5  1  0  0  0  0
  9 16  1  0  0  0  0
 10  7  2  0  0  0  0
 10 14  1  0  0  0  0
 13  9  1  0  0  0  0
 13  3  1  0  0  0  0
 14  2  1  0  0  0  0
 15 12  1  6  0  0  0
 15 10  1  0  0  0  0
 17 16  1  0  0  0  0
 17 18  1  0  0  0  0
 19 20  1  0  0  0  0
 20 18  1  0  0  0  0
 23 22  1  1  0  0  0
 23 21  1  0  0  0  0
 24 23  1  0  0  0  0
 25 24  1  0  0  0  0
 26 27  1  0  0  0  0
 27 25  1  0  0  0  0
M  END
>  <MODEL>
6

>  <REMARK>
 VINA RESULT:      -4.6      4.151      7.633
  Name = 
  9 active torsions:
  status: ('A' for Active; 'I' for Inactive)
    1  A    between atoms: C_4  and  C_22
    2  A    between atoms: C_4  and  C_24
    3  A    between atoms: C_10  and  C_26
    4  A    between atoms: C_11  and  C_20
    5  A    between atoms: C_11  and  C_27
    6  A    between atoms: C_12  and  C_14
    7  A    between atoms: C_14  and  C_27
    8  A    between atoms: C_22  and  C_26
    9  A    between atoms: C_24  and  C_25
                            x       y       z     vdW  Elec       q    Type
                         _______ _______ _______ _____ _____    ______ ____

>  <TORSDO>
F 9

$$$$
=
 OpenBabel11072413153D

 27 28  0  0  1  0  0  0  0  0999 V2000
  161.9420  204.6920  151.0160 C   0  0  1  0  0  3  0  0  0  0  0  0
  161.2160  207.7050  148.8530 C   0  0  2  0  0  3  0  0  0  0  0  0
  160.3750  206.5690  148.2420 C   0  0  0  0  0  2  0  0  0  0  0  0
  162.0650  203.5090  147.2350 O   0  0  0  0  0  0  0  0  0  0  0  0
  160.2300  204.2740  149.2060 C   0  0  0  0  0  2  0  0  0  0  0  0
  162.6160  204.2720  152.3080 C   0  0  0  0  0  2  0  0  0  0  0  0
  160.8320  208.0420  151.9280 O   0  0  0  0  0  0  0  0  0  0  0  0
  161.1340  203.6260  150.2610 C   0  0  2  0  0  3  0  0  0  0  0  0
  161.9630  204.7440  147.4590 C   0  0  0  0  0  0  0  0  0  0  0  0
  161.3000  207.0650  151.2850 C   0  0  0  0  0  0  0  0  0  0  0  0
  162.0920  208.2310  147.9060 O   0  0  0  0  0  1  0  0  0  0  0  0
  161.8260  205.3430  153.0480 C   0  0  0  0  0  2  0  0  0  0  0  0
  160.9590  205.2290  148.3710 N   0  0  0  0  0  0  0  0  0  0  0  0
  161.9540  207.2840  150.0330 N   0  0  0  0  0  2  0  0  0  0  0  0
  161.0650  205.6700  151.7730 C   0  0  2  0  0  3  0  0  0  0  0  0
  162.9440  205.6670  146.8160 C   0  0  0  0  0  2  0  0  0  0  0  0
  162.7210  205.7130  145.3120 C   0  0  0  0  0  2  0  0  0  0  0  0
  161.2450  205.8780  144.9900 C   0  0  0  0  0  2  0  0  0  0  0  0
  160.3250  203.7270  144.5220 O   0  0  0  0  0  1  0  0  0  0  0  0
  160.8280  204.8820  143.9230 C   0  0  0  0  0  2  0  0  0  0  0  0
  160.2920  202.7190  151.1590 C   0  0  0  0  0  2  0  0  0  0  0  0
  158.9040  201.3610  149.7810 O   0  0  0  0  0  1  0  0  0  0  0  0
  160.0900  201.3580  150.5140 C   0  0  1  0  0  3  0  0  0  0  0  0
  161.2580  201.0280  149.5960 C   0  0  0  0  0  2  0  0  0  0  0  0
  160.7830  200.8720  148.1570 C   0  0  0  0  0  2  0  0  0  0  0  0
  161.1770  199.7460  145.9590 C   0  0  0  0  0  1  0  0  0  0  0  0
  161.6180  199.8430  147.4080 C   0  0  0  0  0  2  0  0  0  0  0  0
  1 15  1  0  0  0  0
  1  6  1  1  0  0  0
  2 11  1  6  0  0  0
  2 14  1  0  0  0  0
  3 13  1  0  0  0  0
  3  2  1  0  0  0  0
  4  9  2  0  0  0  0
  5  8  1  0  0  0  0
  6 12  1  0  0  0  0
  8  1  1  0  0  0  0
  8 21  1  1  0  0  0
  9 13  1  0  0  0  0
 10 15  1  0  0  0  0
 10  7  2  0  0  0  0
 13  5  1  0  0  0  0
 14 10  1  0  0  0  0
 15 12  1  1  0  0  0
 16  9  1  0  0  0  0
 17 16  1  0  0  0  0
 18 17  1  0  0  0  0
 20 19  1  0  0  0  0
 20 18  1  0  0  0  0
 23 22  1  6  0  0  0
 23 21  1  0  0  0  0
 24 23  1  0  0  0  0
 25 24  1  0  0  0  0
 26 27  1  0  0  0  0
 27 25  1  0  0  0  0
M  END
>  <MODEL>
7

>  <REMARK>
 VINA RESULT:      -4.4      3.216      7.102
  Name = 
  9 active torsions:
  status: ('A' for Active; 'I' for Inactive)
    1  A    between atoms: C_4  and  C_22
    2  A    between atoms: C_4  and  C_24
    3  A    between atoms: C_10  and  C_26
    4  A    between atoms: C_11  and  C_20
    5  A    between atoms: C_11  and  C_27
    6  A    between atoms: C_12  and  C_14
    7  A    between atoms: C_14  and  C_27
    8  A    between atoms: C_22  and  C_26
    9  A    between atoms: C_24  and  C_25
                            x       y       z     vdW  Elec       q    Type
                         _______ _______ _______ _____ _____    ______ ____

>  <TORSDO>
F 9

$$$$
=
 OpenBabel11072413153D

 27 28  0  0  1  0  0  0  0  0999 V2000
  160.6250  204.7260  150.6570 C   0  0  1  0  0  3  0  0  0  0  0  0
  161.3810  202.8660  147.4560 C   0  0  2  0  0  3  0  0  0  0  0  0
  162.3330  204.0760  147.4420 C   0  0  0  0  0  2  0  0  0  0  0  0
  160.9050  207.4080  147.7520 O   0  0  0  0  0  0  0  0  0  0  0  0
  162.5130  205.7220  149.3060 C   0  0  0  0  0  2  0  0  0  0  0  0
  159.8610  204.6140  151.9630 C   0  0  0  0  0  2  0  0  0  0  0  0
  161.4690  201.2240  150.1040 O   0  0  0  0  0  0  0  0  0  0  0  0
  161.5530  205.9370  150.4830 C   0  0  2  0  0  3  0  0  0  0  0  0
  160.9220  206.1900  147.4290 C   0  0  0  0  0  0  0  0  0  0  0  0
  161.1140  202.4170  149.9170 C   0  0  0  0  0  0  0  0  0  0  0  0
  160.5670  202.8690  146.3250 O   0  0  0  0  0  1  0  0  0  0  0  0
  160.5230  203.2660  152.2150 C   0  0  0  0  0  2  0  0  0  0  0  0
  161.8120  205.2800  148.1000 N   0  0  0  0  0  0  0  0  0  0  0  0
  160.5640  202.8080  148.6570 N   0  0  0  0  0  2  0  0  0  0  0  0
  161.3770  203.4470  150.9710 C   0  0  2  0  0  3  0  0  0  0  0  0
  159.9540  205.7160  146.3950 C   0  0  0  0  0  2  0  0  0  0  0  0
  160.3610  206.2190  145.0180 C   0  0  0  0  0  2  0  0  0  0  0  0
  160.8210  205.0680  144.1380 C   0  0  0  0  0  2  0  0  0  0  0  0
  161.5810  206.2030  142.1820 O   0  0  0  0  0  1  0  0  0  0  0  0
  162.0150  205.4950  143.3030 C   0  0  0  0  0  2  0  0  0  0  0  0
  162.3580  206.3000  151.7300 C   0  0  0  0  0  2  0  0  0  0  0  0
  162.3270  208.5550  150.9630 O   0  0  0  0  0  1  0  0  0  0  0  0
  162.1560  207.7620  152.0970 C   0  0  1  0  0  3  0  0  0  0  0  0
  160.7610  207.9770  152.6660 C   0  0  0  0  0  2  0  0  0  0  0  0
  160.8370  208.4440  154.1140 C   0  0  0  0  0  2  0  0  0  0  0  0
  160.9200  207.6500  156.4840 C   0  0  0  0  0  1  0  0  0  0  0  0
  160.4540  207.3290  155.0760 C   0  0  0  0  0  2  0  0  0  0  0  0
  1 15  1  0  0  0  0
  1  6  1  1  0  0  0
  2 11  1  6  0  0  0
  2 14  1  0  0  0  0
  3  2  1  0  0  0  0
  3 13  1  0  0  0  0
  5  8  1  0  0  0  0
  6 12  1  0  0  0  0
  8  1  1  0  0  0  0
  8 21  1  1  0  0  0
  9  4  2  0  0  0  0
  9 13  1  0  0  0  0
 10  7  2  0  0  0  0
 10 15  1  0  0  0  0
 13  5  1  0  0  0  0
 14 10  1  0  0  0  0
 15 12  1  1  0  0  0
 16  9  1  0  0  0  0
 17 16  1  0  0  0  0
 18 17  1  0  0  0  0
 19 20  1  0  0  0  0
 20 18  1  0  0  0  0
 21 23  1  0  0  0  0
 23 22  1  6  0  0  0
 23 24  1  0  0  0  0
 24 25  1  0  0  0  0
 25 27  1  0  0  0  0
 27 26  1  0  0  0  0
M  END
>  <MODEL>
8

>  <REMARK>
 VINA RESULT:      -4.2      3.473      6.192
  Name = 
  9 active torsions:
  status: ('A' for Active; 'I' for Inactive)
    1  A    between atoms: C_4  and  C_22
    2  A    between atoms: C_4  and  C_24
    3  A    between atoms: C_10  and  C_26
    4  A    between atoms: C_11  and  C_20
    5  A    between atoms: C_11  and  C_27
    6  A    between atoms: C_12  and  C_14
    7  A    between atoms: C_14  and  C_27
    8  A    between atoms: C_22  and  C_26
    9  A    between atoms: C_24  and  C_25
                            x       y       z     vdW  Elec       q    Type
                         _______ _______ _______ _____ _____    ______ ____

>  <TORSDO>
F 9

$$$$
=
 OpenBabel11072413153D

 27 28  0  0  1  0  0  0  0  0999 V2000
  160.8590  206.9500  150.3480 C   0  0  1  0  0  3  0  0  0  0  0  0
  162.2860  210.4380  150.0680 C   0  0  2  0  0  3  0  0  0  0  0  0
  162.8170  209.9030  151.4100 C   0  0  0  0  0  2  0  0  0  0  0  0
  160.4190  208.7100  153.8730 O   0  0  0  0  0  0  0  0  0  0  0  0
  162.4020  207.5890  152.2440 C   0  0  0  0  0  2  0  0  0  0  0  0
  160.1130  205.8880  149.5630 C   0  0  0  0  0  2  0  0  0  0  0  0
  162.7650  208.5140  147.6640 O   0  0  0  0  0  0  0  0  0  0  0  0
  161.3740  206.5670  151.7440 C   0  0  2  0  0  3  0  0  0  0  0  0
  160.8240  209.4170  152.9110 C   0  0  0  0  0  0  0  0  0  0  0  0
  162.0670  208.3400  148.6970 C   0  0  0  0  0  0  0  0  0  0  0  0
  161.5580  211.6110  150.2610 O   0  0  0  0  0  1  0  0  0  0  0  0
  161.1480  206.0070  148.4530 C   0  0  0  0  0  2  0  0  0  0  0  0
  161.9230  208.9640  152.0990 N   0  0  0  0  0  0  0  0  0  0  0  0
  161.4760  209.4630  149.3550 N   0  0  0  0  0  2  0  0  0  0  0  0
  161.9550  206.9750  149.3010 C   0  0  2  0  0  3  0  0  0  0  0  0
  160.0940  210.6830  152.6030 C   0  0  0  0  0  2  0  0  0  0  0  0
  159.1780  211.0600  153.7570 C   0  0  0  0  0  2  0  0  0  0  0  0
  157.9630  211.8240  153.2540 C   0  0  0  0  0  2  0  0  0  0  0  0
  158.8010  213.5480  154.6740 O   0  0  0  0  0  1  0  0  0  0  0  0
  157.6280  212.9560  154.2070 C   0  0  0  0  0  2  0  0  0  0  0  0
  161.9750  205.1640  151.8310 C   0  0  0  0  0  2  0  0  0  0  0  0
  160.1350  205.0200  153.3370 O   0  0  0  0  0  1  0  0  0  0  0  0
  161.1070  204.2580  152.6890 C   0  0  1  0  0  3  0  0  0  0  0  0
  160.4350  203.1980  151.8280 C   0  0  0  0  0  2  0  0  0  0  0  0
  161.4760  202.3590  151.0980 C   0  0  0  0  0  2  0  0  0  0  0  0
  159.7470  201.9650  149.3340 C   0  0  0  0  0  1  0  0  0  0  0  0
  161.1990  202.3140  149.6020 C   0  0  0  0  0  2  0  0  0  0  0  0
  1  6  1  6  0  0  0
  1  8  1  0  0  0  0
  2 11  1  1  0  0  0
  2  3  1  0  0  0  0
  3 13  1  0  0  0  0
  7 10  2  0  0  0  0
  8 21  1  6  0  0  0
  8  5  1  0  0  0  0
  9  4  2  0  0  0  0
 10 15  1  0  0  0  0
 10 14  1  0  0  0  0
 12  6  1  0  0  0  0
 13  5  1  0  0  0  0
 13  9  1  0  0  0  0
 14  2  1  0  0  0  0
 15 12  1  6  0  0  0
 15  1  1  0  0  0  0
 16  9  1  0  0  0  0
 16 17  1  0  0  0  0
 18 17  1  0  0  0  0
 18 20  1  0  0  0  0
 20 19  1  0  0  0  0
 21 23  1  0  0  0  0
 23 22  1  6  0  0  0
 24 23  1  0  0  0  0
 25 24  1  0  0  0  0
 26 27  1  0  0  0  0
 27 25  1  0  0  0  0
M  END
>  <MODEL>
9

>  <REMARK>
 VINA RESULT:      -4.1      2.356      7.673
  Name = 
  9 active torsions:
  status: ('A' for Active; 'I' for Inactive)
    1  A    between atoms: C_4  and  C_22
    2  A    between atoms: C_4  and  C_24
    3  A    between atoms: C_10  and  C_26
    4  A    between atoms: C_11  and  C_20
    5  A    between atoms: C_11  and  C_27
    6  A    between atoms: C_12  and  C_14
    7  A    between atoms: C_14  and  C_27
    8  A    between atoms: C_22  and  C_26
    9  A    between atoms: C_24  and  C_25
                            x       y       z     vdW  Elec       q    Type
                         _______ _______ _______ _____ _____    ______ ____

>  <TORSDO>
F 9

$$$$
