=
 OpenBabel11072411133D

 30 32  0  0  1  0  0  0  0  0999 V2000
  161.5230  202.9000  151.3790 C   0  0  0  0  0  3  0  0  0  0  0  0
  161.0290  202.7490  150.0830 C   0  0  0  0  0  0  0  0  0  0  0  0
  161.3980  205.3110  151.2020 C   0  0  0  0  0  0  0  0  0  0  0  0
  160.7580  203.9010  149.3020 C   0  0  0  0  0  0  0  0  0  0  0  0
  160.9120  205.1870  149.8810 C   0  0  0  0  0  0  0  0  0  0  0  0
  160.5980  206.4170  149.0850 C   0  0  0  0  0  1  0  0  0  0  0  0
  161.7140  204.1620  151.9290 C   0  0  0  0  0  3  0  0  0  0  0  0
  161.8590  209.7850  151.5120 C   0  0  2  0  0  3  0  0  0  0  0  0
  161.0030  208.3980  153.4550 C   0  0  0  0  0  2  0  0  0  0  0  0
  162.1970  208.6160  150.5940 C   0  0  0  0  0  2  0  0  0  0  0  0
  160.6650  209.4780  152.4310 C   0  0  1  0  0  3  0  0  0  0  0  0
  162.7110  207.4210  151.3800 C   0  0  0  0  0  2  0  0  0  0  0  0
  160.6960  207.0070  152.9090 C   0  0  0  0  0  2  0  0  0  0  0  0
  161.5870  206.5960  151.8190 N   0  0  0  0  0  0  0  0  0  0  0  0
  161.5840  210.9000  150.7190 O   0  0  0  0  0  1  0  0  0  0  0  0
  160.1490  210.7120  153.1340 C   0  0  0  0  0  3  0  0  0  0  0  0
  161.9140  210.7370  154.9040 C   0  0  0  0  0  1  0  0  0  0  0  0
  160.6950  211.2710  154.2240 C   0  0  0  0  0  3  0  0  0  0  0  0
  160.7970  201.3330  149.6220 C   0  0  1  0  0  3  0  0  0  0  0  0
  159.4690  201.0840  149.2630 O   0  0  0  0  0  1  0  0  0  0  0  0
  161.7990  200.8350  148.5780 C   0  0  0  0  0  2  0  0  0  0  0  0
  161.1460  200.2000  147.3620 C   0  0  0  0  0  2  0  0  0  0  0  0
  161.1090  201.1000  146.3130 F   0  0  0  0  0  0  0  0  0  0  0  0
  160.2780  203.7550  147.8780 C   0  0  0  0  0  2  0  0  0  0  0  0
  161.5930  205.4560  144.7570 C   0  0  0  0  0  3  0  0  0  0  0  0
  160.7250  204.9490  145.7300 C   0  0  0  0  0  3  0  0  0  0  0  0
  162.9750  205.3160  144.9120 C   0  0  0  0  0  3  0  0  0  0  0  0
  161.2350  204.3080  146.8640 C   0  0  0  0  0  0  0  0  0  0  0  0
  163.4910  204.6680  146.0380 C   0  0  0  0  0  3  0  0  0  0  0  0
  162.6240  204.1620  147.0100 C   0  0  0  0  0  3  0  0  0  0  0  0
  1  7  1  0  0  0  0
  2  1  2  0  0  0  0
  3 14  1  0  0  0  0
  3  7  2  0  0  0  0
  4  5  2  0  0  0  0
  4  2  1  0  0  0  0
  5  3  1  0  0  0  0
  6  5  1  0  0  0  0
  8 15  1  6  0  0  0
  8 11  1  0  0  0  0
 10 12  1  0  0  0  0
 10  8  1  0  0  0  0
 11 16  1  1  0  0  0
 11  9  1  0  0  0  0
 12 14  1  0  0  0  0
 13  9  1  0  0  0  0
 14 13  1  0  0  0  0
 16 18  2  0  0  0  0
 18 17  1  0  0  0  0
 19 20  1  6  0  0  0
 19  2  1  0  0  0  0
 21 19  1  0  0  0  0
 22 21  1  0  0  0  0
 23 22  1  0  0  0  0
 24  4  1  0  0  0  0
 25 27  2  0  0  0  0
 25 26  1  0  0  0  0
 26 28  2  0  0  0  0
 27 29  1  0  0  0  0
 28 30  1  0  0  0  0
 28 24  1  0  0  0  0
 29 30  2  0  0  0  0
M  END
>  <MODEL>
1

>  <REMARK>
 VINA RESULT:      -7.8      0.000      0.000
  Name = 
  7 active torsions:
  status: ('A' for Active; 'I' for Inactive)
    1  A    between atoms: C_1  and  C_25
    2  A    between atoms: C_3  and  C_17
    3  A    between atoms: C_4  and  C_16
    4  A    between atoms: C_4  and  C_17
    5  A    between atoms: C_12  and  C_14
    6  A    between atoms: C_14  and  C_21
    7  A    between atoms: C_20  and  N_29
                            x       y       z     vdW  Elec       q    Type
                         _______ _______ _______ _____ _____    ______ ____

>  <TORSDO>
F 7

$$$$
=
 OpenBabel11072411133D

 30 32  0  0  1  0  0  0  0  0999 V2000
  160.8360  206.8910  154.4210 C   0  0  0  0  0  3  0  0  0  0  0  0
  160.9250  208.2520  154.7130 C   0  0  0  0  0  0  0  0  0  0  0  0
  161.4930  207.2880  152.1240 C   0  0  0  0  0  0  0  0  0  0  0  0
  161.2570  209.1670  153.6820 C   0  0  0  0  0  0  0  0  0  0  0  0
  161.5750  208.6740  152.3900 C   0  0  0  0  0  0  0  0  0  0  0  0
  161.9620  209.6190  151.2940 C   0  0  0  0  0  1  0  0  0  0  0  0
  161.1070  206.4150  153.1430 C   0  0  0  0  0  3  0  0  0  0  0  0
  161.3030  204.4630  148.6170 C   0  0  2  0  0  3  0  0  0  0  0  0
  161.9640  206.8950  148.3320 C   0  0  0  0  0  2  0  0  0  0  0  0
  161.2380  204.4740  150.1390 C   0  0  0  0  0  2  0  0  0  0  0  0
  160.9260  205.8250  148.0080 C   0  0  1  0  0  3  0  0  0  0  0  0
  162.2990  205.3840  150.7360 C   0  0  0  0  0  2  0  0  0  0  0  0
  161.6330  207.6040  149.6420 C   0  0  0  0  0  2  0  0  0  0  0  0
  161.7880  206.7500  150.8250 N   0  0  0  0  0  0  0  0  0  0  0  0
  160.4420  203.4690  148.1480 O   0  0  0  0  0  1  0  0  0  0  0  0
  160.7140  205.7470  146.5150 C   0  0  0  0  0  3  0  0  0  0  0  0
  162.9970  204.8760  145.9910 C   0  0  0  0  0  1  0  0  0  0  0  0
  161.6220  205.3300  145.6200 C   0  0  0  0  0  3  0  0  0  0  0  0
  160.6780  208.6400  156.1490 C   0  0  1  0  0  3  0  0  0  0  0  0
  159.6670  207.8890  156.7540 O   0  0  0  0  0  1  0  0  0  0  0  0
  161.9430  208.7340  157.0050 C   0  0  0  0  0  2  0  0  0  0  0  0
  162.4000  210.1600  157.2610 C   0  0  0  0  0  2  0  0  0  0  0  0
  163.4770  210.4700  156.4510 F   0  0  0  0  0  0  0  0  0  0  0  0
  161.3020  210.6490  153.9690 C   0  0  0  0  0  2  0  0  0  0  0  0
  158.5190  212.7310  152.4580 C   0  0  0  0  0  3  0  0  0  0  0  0
  159.7370  212.0660  152.6340 C   0  0  0  0  0  3  0  0  0  0  0  0
  157.5380  212.6680  153.4510 C   0  0  0  0  0  3  0  0  0  0  0  0
  159.9760  211.3300  153.7990 C   0  0  0  0  0  0  0  0  0  0  0  0
  157.7740  211.9420  154.6230 C   0  0  0  0  0  3  0  0  0  0  0  0
  158.9910  211.2780  154.7980 C   0  0  0  0  0  3  0  0  0  0  0  0
  1  2  1  0  0  0  0
  2 19  1  0  0  0  0
  3  5  2  0  0  0  0
  3  7  1  0  0  0  0
  4 24  1  0  0  0  0
  4  2  2  0  0  0  0
  5  4  1  0  0  0  0
  6  5  1  0  0  0  0
  7  1  2  0  0  0  0
  8 15  1  6  0  0  0
  8 10  1  0  0  0  0
  9 13  1  0  0  0  0
 10 12  1  0  0  0  0
 11 16  1  6  0  0  0
 11  9  1  0  0  0  0
 11  8  1  0  0  0  0
 12 14  1  0  0  0  0
 13 14  1  0  0  0  0
 14  3  1  0  0  0  0
 18 17  1  0  0  0  0
 18 16  2  0  0  0  0
 19 20  1  1  0  0  0
 19 21  1  0  0  0  0
 21 22  1  0  0  0  0
 23 22  1  0  0  0  0
 25 26  2  0  0  0  0
 25 27  1  0  0  0  0
 26 28  1  0  0  0  0
 27 29  2  0  0  0  0
 28 24  1  0  0  0  0
 28 30  2  0  0  0  0
 29 30  1  0  0  0  0
M  END
>  <MODEL>
2

>  <REMARK>
 VINA RESULT:      -7.4      3.324      8.636
  Name = 
  7 active torsions:
  status: ('A' for Active; 'I' for Inactive)
    1  A    between atoms: C_1  and  C_25
    2  A    between atoms: C_3  and  C_17
    3  A    between atoms: C_4  and  C_16
    4  A    between atoms: C_4  and  C_17
    5  A    between atoms: C_12  and  C_14
    6  A    between atoms: C_14  and  C_21
    7  A    between atoms: C_20  and  N_29
                            x       y       z     vdW  Elec       q    Type
                         _______ _______ _______ _____ _____    ______ ____

>  <TORSDO>
F 7

$$$$
=
 OpenBabel11072411133D

 30 32  0  0  1  0  0  0  0  0999 V2000
  162.7760  207.3690  148.2830 C   0  0  0  0  0  3  0  0  0  0  0  0
  162.0120  206.3180  147.7720 C   0  0  0  0  0  0  0  0  0  0  0  0
  161.8710  207.0160  150.5010 C   0  0  0  0  0  0  0  0  0  0  0  0
  161.1170  205.6260  148.6280 C   0  0  0  0  0  0  0  0  0  0  0  0
  161.0750  205.9590  150.0060 C   0  0  0  0  0  0  0  0  0  0  0  0
  160.1620  205.2180  150.9350 C   0  0  0  0  0  1  0  0  0  0  0  0
  162.7000  207.7200  149.6260 C   0  0  0  0  0  3  0  0  0  0  0  0
  160.5660  209.2020  154.2210 C   0  0  2  0  0  3  0  0  0  0  0  0
  161.6510  206.9130  154.3360 C   0  0  0  0  0  2  0  0  0  0  0  0
  160.7440  209.4090  152.7220 C   0  0  0  0  0  2  0  0  0  0  0  0
  160.3810  207.7200  154.5870 C   0  0  1  0  0  3  0  0  0  0  0  0
  162.0480  208.8040  152.2270 C   0  0  0  0  0  2  0  0  0  0  0  0
  161.6800  206.3610  152.9140 C   0  0  0  0  0  2  0  0  0  0  0  0
  161.8430  207.3970  151.8870 N   0  0  0  0  0  0  0  0  0  0  0  0
  159.4590  209.9450  154.6380 O   0  0  0  0  0  1  0  0  0  0  0  0
  159.9250  207.5330  156.0150 C   0  0  0  0  0  3  0  0  0  0  0  0
  161.9430  208.5830  157.0510 C   0  0  0  0  0  1  0  0  0  0  0  0
  160.6090  207.9110  157.1060 C   0  0  0  0  0  3  0  0  0  0  0  0
  162.2310  205.9840  146.3190 C   0  0  1  0  0  3  0  0  0  0  0  0
  163.0500  204.8670  146.1310 O   0  0  0  0  0  1  0  0  0  0  0  0
  160.9520  205.9320  145.4820 C   0  0  0  0  0  2  0  0  0  0  0  0
  161.0470  205.0050  144.2820 C   0  0  0  0  0  2  0  0  0  0  0  0
  160.4400  203.7950  144.5620 F   0  0  0  0  0  0  0  0  0  0  0  0
  160.2420  204.5250  148.0780 C   0  0  0  0  0  2  0  0  0  0  0  0
  161.5480  200.9880  147.7020 C   0  0  0  0  0  3  0  0  0  0  0  0
  161.1170  202.2840  147.4040 C   0  0  0  0  0  3  0  0  0  0  0  0
  161.5780  200.5470  149.0280 C   0  0  0  0  0  3  0  0  0  0  0  0
  160.7220  203.1480  148.4320 C   0  0  0  0  0  0  0  0  0  0  0  0
  161.1750  201.4020  150.0580 C   0  0  0  0  0  3  0  0  0  0  0  0
  160.7450  202.6980  149.7610 C   0  0  0  0  0  3  0  0  0  0  0  0
  1  7  1  0  0  0  0
  2  1  2  0  0  0  0
  2  4  1  0  0  0  0
  3 14  1  0  0  0  0
  4  5  2  0  0  0  0
  5  3  1  0  0  0  0
  5  6  1  0  0  0  0
  7  3  2  0  0  0  0
  8 11  1  0  0  0  0
  8 15  1  6  0  0  0
  9 11  1  0  0  0  0
 10  8  1  0  0  0  0
 11 16  1  1  0  0  0
 12 10  1  0  0  0  0
 13  9  1  0  0  0  0
 14 12  1  0  0  0  0
 14 13  1  0  0  0  0
 16 18  2  0  0  0  0
 17 18  1  0  0  0  0
 19 20  1  1  0  0  0
 19  2  1  0  0  0  0
 21 19  1  0  0  0  0
 22 23  1  0  0  0  0
 22 21  1  0  0  0  0
 24 28  1  0  0  0  0
 24  4  1  0  0  0  0
 25 27  1  0  0  0  0
 26 25  2  0  0  0  0
 26 28  1  0  0  0  0
 27 29  2  0  0  0  0
 28 30  2  0  0  0  0
 30 29  1  0  0  0  0
M  END
>  <MODEL>
3

>  <REMARK>
 VINA RESULT:      -6.9      2.147      3.936
  Name = 
  7 active torsions:
  status: ('A' for Active; 'I' for Inactive)
    1  A    between atoms: C_1  and  C_25
    2  A    between atoms: C_3  and  C_17
    3  A    between atoms: C_4  and  C_16
    4  A    between atoms: C_4  and  C_17
    5  A    between atoms: C_12  and  C_14
    6  A    between atoms: C_14  and  C_21
    7  A    between atoms: C_20  and  N_29
                            x       y       z     vdW  Elec       q    Type
                         _______ _______ _______ _____ _____    ______ ____

>  <TORSDO>
F 7

$$$$
=
 OpenBabel11072411133D

 30 32  0  0  1  0  0  0  0  0999 V2000
  161.1670  203.9250  151.1280 C   0  0  0  0  0  3  0  0  0  0  0  0
  160.8080  204.2610  149.8220 C   0  0  0  0  0  0  0  0  0  0  0  0
  161.2630  206.2620  151.7560 C   0  0  0  0  0  0  0  0  0  0  0  0
  160.7200  205.6270  149.4510 C   0  0  0  0  0  0  0  0  0  0  0  0
  160.9160  206.6290  150.4360 C   0  0  0  0  0  0  0  0  0  0  0  0
  160.7950  208.0780  150.0750 C   0  0  0  0  0  1  0  0  0  0  0  0
  161.4000  204.9110  152.0800 C   0  0  0  0  0  3  0  0  0  0  0  0
  161.3390  210.3150  153.7290 C   0  0  2  0  0  3  0  0  0  0  0  0
  161.2150  208.1770  155.0870 C   0  0  0  0  0  2  0  0  0  0  0  0
  161.5180  209.6510  152.3680 C   0  0  0  0  0  2  0  0  0  0  0  0
  160.4930  209.4600  154.6870 C   0  0  1  0  0  3  0  0  0  0  0  0
  162.3520  208.3850  152.4710 C   0  0  0  0  0  2  0  0  0  0  0  0
  160.9070  207.0450  154.1110 C   0  0  0  0  0  2  0  0  0  0  0  0
  161.4890  207.2460  152.7780 N   0  0  0  0  0  0  0  0  0  0  0  0
  160.7390  211.5600  153.5340 O   0  0  0  0  0  1  0  0  0  0  0  0
  160.0760  210.2230  155.9220 C   0  0  0  0  0  3  0  0  0  0  0  0
  157.7900  210.7980  155.0900 C   0  0  0  0  0  1  0  0  0  0  0  0
  158.8870  210.8160  156.1060 C   0  0  0  0  0  3  0  0  0  0  0  0
  160.5110  203.1070  148.8980 C   0  0  1  0  0  3  0  0  0  0  0  0
  161.6300  202.6800  148.1770 O   0  0  0  0  0  1  0  0  0  0  0  0
  159.7490  201.9530  149.5530 C   0  0  0  0  0  2  0  0  0  0  0  0
  160.5750  200.6870  149.7060 C   0  0  0  0  0  2  0  0  0  0  0  0
  161.6510  200.9160  150.5430 F   0  0  0  0  0  0  0  0  0  0  0  0
  160.3890  206.0060  148.0270 C   0  0  0  0  0  2  0  0  0  0  0  0
  161.7730  204.4330  144.8700 C   0  0  0  0  0  3  0  0  0  0  0  0
  160.8870  204.9580  145.8150 C   0  0  0  0  0  3  0  0  0  0  0  0
  163.1460  204.4130  145.1330 C   0  0  0  0  0  3  0  0  0  0  0  0
  161.3680  205.4720  147.0240 C   0  0  0  0  0  0  0  0  0  0  0  0
  163.6330  204.9150  146.3440 C   0  0  0  0  0  3  0  0  0  0  0  0
  162.7460  205.4400  147.2880 C   0  0  0  0  0  3  0  0  0  0  0  0
  1  7  1  0  0  0  0
  2  1  2  0  0  0  0
  3  7  2  0  0  0  0
  3 14  1  0  0  0  0
  4  2  1  0  0  0  0
  4  5  2  0  0  0  0
  5  3  1  0  0  0  0
  6  5  1  0  0  0  0
  8 15  1  6  0  0  0
  8 11  1  0  0  0  0
 10 12  1  0  0  0  0
 10  8  1  0  0  0  0
 11  9  1  0  0  0  0
 11 16  1  1  0  0  0
 12 14  1  0  0  0  0
 13  9  1  0  0  0  0
 14 13  1  0  0  0  0
 16 18  2  0  0  0  0
 17 18  1  0  0  0  0
 19 20  1  1  0  0  0
 19 21  1  0  0  0  0
 19  2  1  0  0  0  0
 21 22  1  0  0  0  0
 22 23  1  0  0  0  0
 24  4  1  0  0  0  0
 25 27  2  0  0  0  0
 25 26  1  0  0  0  0
 26 28  2  0  0  0  0
 27 29  1  0  0  0  0
 28 30  1  0  0  0  0
 28 24  1  0  0  0  0
 29 30  2  0  0  0  0
M  END
>  <MODEL>
4

>  <REMARK>
 VINA RESULT:      -6.5      1.705      2.099
  Name = 
  7 active torsions:
  status: ('A' for Active; 'I' for Inactive)
    1  A    between atoms: C_1  and  C_25
    2  A    between atoms: C_3  and  C_17
    3  A    between atoms: C_4  and  C_16
    4  A    between atoms: C_4  and  C_17
    5  A    between atoms: C_12  and  C_14
    6  A    between atoms: C_14  and  C_21
    7  A    between atoms: C_20  and  N_29
                            x       y       z     vdW  Elec       q    Type
                         _______ _______ _______ _____ _____    ______ ____

>  <TORSDO>
F 7

$$$$
=
 OpenBabel11072411133D

 30 32  0  0  1  0  0  0  0  0999 V2000
  160.1330  212.1150  152.2820 C   0  0  0  0  0  3  0  0  0  0  0  0
  160.9280  210.9680  152.2710 C   0  0  0  0  0  0  0  0  0  0  0  0
  160.6710  212.5730  149.9660 C   0  0  0  0  0  0  0  0  0  0  0  0
  161.6550  210.6350  151.0990 C   0  0  0  0  0  0  0  0  0  0  0  0
  161.4950  211.4260  149.9330 C   0  0  0  0  0  0  0  0  0  0  0  0
  162.2270  211.0730  148.6740 C   0  0  0  0  0  1  0  0  0  0  0  0
  160.0120  212.9120  151.1500 C   0  0  0  0  0  3  0  0  0  0  0  0
  161.5860  214.4400  145.9660 C   0  0  2  0  0  3  0  0  0  0  0  0
  159.2120  214.2670  146.8410 C   0  0  0  0  0  2  0  0  0  0  0  0
  162.2770  213.9210  147.2220 C   0  0  0  0  0  2  0  0  0  0  0  0
  160.1950  213.8140  145.7660 C   0  0  1  0  0  3  0  0  0  0  0  0
  161.5530  214.3680  148.4810 C   0  0  0  0  0  2  0  0  0  0  0  0
  159.2480  213.3330  148.0480 C   0  0  0  0  0  2  0  0  0  0  0  0
  160.4980  213.4120  148.8120 N   0  0  0  0  0  0  0  0  0  0  0  0
  162.4030  214.1610  144.8690 O   0  0  0  0  0  1  0  0  0  0  0  0
  159.6280  214.1010  144.3960 C   0  0  0  0  0  3  0  0  0  0  0  0
  160.0570  211.8160  143.4750 C   0  0  0  0  0  1  0  0  0  0  0  0
  159.5640  213.2250  143.3810 C   0  0  0  0  0  3  0  0  0  0  0  0
  160.9240  210.1450  153.5340 C   0  0  1  0  0  3  0  0  0  0  0  0
  161.8840  210.5610  154.4620 O   0  0  0  0  0  1  0  0  0  0  0  0
  159.5400  209.9490  154.1560 C   0  0  0  0  0  2  0  0  0  0  0  0
  159.4240  210.5000  155.5670 C   0  0  0  0  0  2  0  0  0  0  0  0
  159.2760  211.8750  155.5330 F   0  0  0  0  0  0  0  0  0  0  0  0
  162.5640  209.4290  151.0900 C   0  0  0  0  0  2  0  0  0  0  0  0
  160.9590  206.0110  151.4090 C   0  0  0  0  0  3  0  0  0  0  0  0
  161.5920  207.2170  151.7250 C   0  0  0  0  0  3  0  0  0  0  0  0
  160.6010  205.7340  150.0860 C   0  0  0  0  0  3  0  0  0  0  0  0
  161.8620  208.1550  150.7220 C   0  0  0  0  0  0  0  0  0  0  0  0
  160.8770  206.6630  149.0780 C   0  0  0  0  0  3  0  0  0  0  0  0
  161.5090  207.8680  149.3940 C   0  0  0  0  0  3  0  0  0  0  0  0
  2  1  1  0  0  0  0
  2 19  1  0  0  0  0
  3  7  1  0  0  0  0
  4  2  2  0  0  0  0
  5  3  2  0  0  0  0
  5  4  1  0  0  0  0
  6  5  1  0  0  0  0
  7  1  2  0  0  0  0
  8 15  1  6  0  0  0
  8 10  1  0  0  0  0
  9 13  1  0  0  0  0
 10 12  1  0  0  0  0
 11 16  1  6  0  0  0
 11  8  1  0  0  0  0
 11  9  1  0  0  0  0
 12 14  1  0  0  0  0
 13 14  1  0  0  0  0
 14  3  1  0  0  0  0
 18 17  1  0  0  0  0
 18 16  2  0  0  0  0
 19 21  1  0  0  0  0
 19 20  1  1  0  0  0
 21 22  1  0  0  0  0
 23 22  1  0  0  0  0
 24  4  1  0  0  0  0
 25 26  1  0  0  0  0
 27 25  2  0  0  0  0
 28 24  1  0  0  0  0
 28 26  2  0  0  0  0
 29 30  2  0  0  0  0
 29 27  1  0  0  0  0
 30 28  1  0  0  0  0
M  END
>  <MODEL>
5

>  <REMARK>
 VINA RESULT:      -6.3      5.198      8.506
  Name = 
  7 active torsions:
  status: ('A' for Active; 'I' for Inactive)
    1  A    between atoms: C_1  and  C_25
    2  A    between atoms: C_3  and  C_17
    3  A    between atoms: C_4  and  C_16
    4  A    between atoms: C_4  and  C_17
    5  A    between atoms: C_12  and  C_14
    6  A    between atoms: C_14  and  C_21
    7  A    between atoms: C_20  and  N_29
                            x       y       z     vdW  Elec       q    Type
                         _______ _______ _______ _____ _____    ______ ____

>  <TORSDO>
F 7

$$$$
=
 OpenBabel11072411133D

 30 32  0  0  1  0  0  0  0  0999 V2000
  162.7050  207.7100  148.0850 C   0  0  0  0  0  3  0  0  0  0  0  0
  161.9160  206.5770  147.8850 C   0  0  0  0  0  0  0  0  0  0  0  0
  161.9150  207.9230  150.3640 C   0  0  0  0  0  0  0  0  0  0  0  0
  161.0640  206.1270  148.9270 C   0  0  0  0  0  0  0  0  0  0  0  0
  161.0940  206.7870  150.1820 C   0  0  0  0  0  0  0  0  0  0  0  0
  160.2290  206.3090  151.3080 C   0  0  0  0  0  1  0  0  0  0  0  0
  162.6990  208.3800  149.3030 C   0  0  0  0  0  3  0  0  0  0  0  0
  160.7620  210.9280  153.5200 C   0  0  2  0  0  3  0  0  0  0  0  0
  161.9350  208.7590  154.1130 C   0  0  0  0  0  2  0  0  0  0  0  0
  160.8400  210.7640  152.0070 C   0  0  0  0  0  2  0  0  0  0  0  0
  160.6540  209.5770  154.2480 C   0  0  1  0  0  3  0  0  0  0  0  0
  162.1320  210.0820  151.5860 C   0  0  0  0  0  2  0  0  0  0  0  0
  161.8970  207.8760  152.8700 C   0  0  0  0  0  2  0  0  0  0  0  0
  161.9580  208.6310  151.6130 N   0  0  0  0  0  0  0  0  0  0  0  0
  159.6570  211.7260  153.8190 O   0  0  0  0  0  1  0  0  0  0  0  0
  160.2950  209.7360  155.7060 C   0  0  0  0  0  3  0  0  0  0  0  0
  159.7300  207.3300  156.0800 C   0  0  0  0  0  1  0  0  0  0  0  0
  159.8860  208.7500  156.5190 C   0  0  0  0  0  3  0  0  0  0  0  0
  162.0600  205.8950  146.5490 C   0  0  1  0  0  3  0  0  0  0  0  0
  162.7600  204.6870  146.6220 O   0  0  0  0  0  1  0  0  0  0  0  0
  160.7580  205.7800  145.7530 C   0  0  0  0  0  2  0  0  0  0  0  0
  160.8540  204.8440  144.5610 C   0  0  0  0  0  2  0  0  0  0  0  0
  161.5880  205.4330  143.5480 F   0  0  0  0  0  0  0  0  0  0  0  0
  160.1620  204.9370  148.7070 C   0  0  0  0  0  2  0  0  0  0  0  0
  161.2720  201.3360  149.1020 C   0  0  0  0  0  3  0  0  0  0  0  0
  160.8190  202.5330  148.5400 C   0  0  0  0  0  3  0  0  0  0  0  0
  161.5770  201.2740  150.4650 C   0  0  0  0  0  3  0  0  0  0  0  0
  160.6740  203.6750  149.3350 C   0  0  0  0  0  0  0  0  0  0  0  0
  161.4250  202.4090  151.2680 C   0  0  0  0  0  3  0  0  0  0  0  0
  160.9710  203.6050  150.7050 C   0  0  0  0  0  3  0  0  0  0  0  0
  1  7  1  0  0  0  0
  2  1  2  0  0  0  0
  2  4  1  0  0  0  0
  3 14  1  0  0  0  0
  4  5  2  0  0  0  0
  5  3  1  0  0  0  0
  5  6  1  0  0  0  0
  7  3  2  0  0  0  0
  8 15  1  6  0  0  0
  8 11  1  0  0  0  0
  9 11  1  0  0  0  0
 10  8  1  0  0  0  0
 11 16  1  1  0  0  0
 12 14  1  0  0  0  0
 12 10  1  0  0  0  0
 13  9  1  0  0  0  0
 14 13  1  0  0  0  0
 16 18  2  0  0  0  0
 17 18  1  0  0  0  0
 19 20  1  1  0  0  0
 19  2  1  0  0  0  0
 21 19  1  0  0  0  0
 22 21  1  0  0  0  0
 23 22  1  0  0  0  0
 24  4  1  0  0  0  0
 24 28  1  0  0  0  0
 25 27  1  0  0  0  0
 26 25  2  0  0  0  0
 26 28  1  0  0  0  0
 27 29  2  0  0  0  0
 28 30  2  0  0  0  0
 30 29  1  0  0  0  0
M  END
>  <MODEL>
6

>  <REMARK>
 VINA RESULT:      -6.0      2.139      4.086
  Name = 
  7 active torsions:
  status: ('A' for Active; 'I' for Inactive)
    1  A    between atoms: C_1  and  C_25
    2  A    between atoms: C_3  and  C_17
    3  A    between atoms: C_4  and  C_16
    4  A    between atoms: C_4  and  C_17
    5  A    between atoms: C_12  and  C_14
    6  A    between atoms: C_14  and  C_21
    7  A    between atoms: C_20  and  N_29
                            x       y       z     vdW  Elec       q    Type
                         _______ _______ _______ _____ _____    ______ ____

>  <TORSDO>
F 7

$$$$
=
 OpenBabel11072411133D

 30 32  0  0  1  0  0  0  0  0999 V2000
  161.0830  206.9420  154.6270 C   0  0  0  0  0  3  0  0  0  0  0  0
  161.2490  208.3220  154.7560 C   0  0  0  0  0  0  0  0  0  0  0  0
  160.8830  207.1400  152.2210 C   0  0  0  0  0  0  0  0  0  0  0  0
  161.1820  209.1440  153.6020 C   0  0  0  0  0  0  0  0  0  0  0  0
  161.0320  208.5410  152.3270 C   0  0  0  0  0  0  0  0  0  0  0  0
  160.9940  209.3880  151.0910 C   0  0  0  0  0  1  0  0  0  0  0  0
  160.8930  206.3590  153.3790 C   0  0  0  0  0  3  0  0  0  0  0  0
  161.8880  205.7550  148.0510 C   0  0  2  0  0  3  0  0  0  0  0  0
  160.2140  204.5140  149.4980 C   0  0  0  0  0  2  0  0  0  0  0  0
  162.1080  206.9270  149.0000 C   0  0  0  0  0  2  0  0  0  0  0  0
  161.5700  204.4500  148.8010 C   0  0  1  0  0  3  0  0  0  0  0  0
  160.8310  207.2970  149.7360 C   0  0  0  0  0  2  0  0  0  0  0  0
  160.3480  205.0710  150.9120 C   0  0  0  0  0  2  0  0  0  0  0  0
  160.7080  206.4930  150.9500 N   0  0  0  0  0  0  0  0  0  0  0  0
  163.0360  205.5970  147.2730 O   0  0  0  0  0  1  0  0  0  0  0  0
  161.6290  203.2400  147.8990 C   0  0  0  0  0  3  0  0  0  0  0  0
  160.6070  201.6610  149.5470 C   0  0  0  0  0  1  0  0  0  0  0  0
  161.2070  202.0080  148.2220 C   0  0  0  0  0  3  0  0  0  0  0  0
  161.5190  208.8300  156.1490 C   0  0  1  0  0  3  0  0  0  0  0  0
  161.5660  207.8110  157.1050 O   0  0  0  0  0  1  0  0  0  0  0  0
  162.7000  209.7970  156.2520 C   0  0  0  0  0  2  0  0  0  0  0  0
  162.4850  210.9130  157.2600 C   0  0  0  0  0  2  0  0  0  0  0  0
  161.3190  211.6000  156.9740 F   0  0  0  0  0  0  0  0  0  0  0  0
  161.3030  210.6430  153.7320 C   0  0  0  0  0  2  0  0  0  0  0  0
  157.7310  211.5280  154.6350 C   0  0  0  0  0  3  0  0  0  0  0  0
  158.9810  210.9030  154.6170 C   0  0  0  0  0  3  0  0  0  0  0  0
  157.4710  212.5990  153.7750 C   0  0  0  0  0  3  0  0  0  0  0  0
  159.9800  211.3500  153.7450 C   0  0  0  0  0  0  0  0  0  0  0  0
  158.4610  213.0450  152.8950 C   0  0  0  0  0  3  0  0  0  0  0  0
  159.7110  212.4200  152.8770 C   0  0  0  0  0  3  0  0  0  0  0  0
  1  2  1  0  0  0  0
  2 19  1  0  0  0  0
  3  5  2  0  0  0  0
  3  7  1  0  0  0  0
  4 24  1  0  0  0  0
  4  2  2  0  0  0  0
  5  4  1  0  0  0  0
  6  5  1  0  0  0  0
  7  1  2  0  0  0  0
  8 15  1  1  0  0  0
  8 11  1  0  0  0  0
  8 10  1  0  0  0  0
  9 13  1  0  0  0  0
 10 12  1  0  0  0  0
 11 16  1  6  0  0  0
 11  9  1  0  0  0  0
 12 14  1  0  0  0  0
 13 14  1  0  0  0  0
 14  3  1  0  0  0  0
 16 18  2  0  0  0  0
 18 17  1  0  0  0  0
 19 21  1  0  0  0  0
 19 20  1  1  0  0  0
 21 22  1  0  0  0  0
 23 22  1  0  0  0  0
 24 28  1  0  0  0  0
 26 25  1  0  0  0  0
 27 25  2  0  0  0  0
 28 26  2  0  0  0  0
 29 27  1  0  0  0  0
 30 29  2  0  0  0  0
 30 28  1  0  0  0  0
M  END
>  <MODEL>
7

>  <REMARK>
 VINA RESULT:      -5.8      3.591      8.763
  Name = 
  7 active torsions:
  status: ('A' for Active; 'I' for Inactive)
    1  A    between atoms: C_1  and  C_25
    2  A    between atoms: C_3  and  C_17
    3  A    between atoms: C_4  and  C_16
    4  A    between atoms: C_4  and  C_17
    5  A    between atoms: C_12  and  C_14
    6  A    between atoms: C_14  and  C_21
    7  A    between atoms: C_20  and  N_29
                            x       y       z     vdW  Elec       q    Type
                         _______ _______ _______ _____ _____    ______ ____

>  <TORSDO>
F 7

$$$$
=
 OpenBabel11072411133D

 30 32  0  0  1  0  0  0  0  0999 V2000
  160.6070  204.2020  150.5300 C   0  0  0  0  0  3  0  0  0  0  0  0
  161.2910  204.5570  149.3670 C   0  0  0  0  0  0  0  0  0  0  0  0
  160.9210  206.4190  151.4520 C   0  0  0  0  0  0  0  0  0  0  0  0
  161.8490  205.8560  149.2540 C   0  0  0  0  0  0  0  0  0  0  0  0
  161.6310  206.7990  150.2910 C   0  0  0  0  0  0  0  0  0  0  0  0
  162.1820  208.1880  150.1780 C   0  0  0  0  0  1  0  0  0  0  0  0
  160.4320  205.1160  151.5630 C   0  0  0  0  0  3  0  0  0  0  0  0
  161.3920  208.2990  155.5220 C   0  0  2  0  0  3  0  0  0  0  0  0
  160.5660  209.6320  153.5290 C   0  0  0  0  0  2  0  0  0  0  0  0
  161.4210  206.9420  154.8290 C   0  0  0  0  0  2  0  0  0  0  0  0
  161.6850  209.4560  154.5520 C   0  0  1  0  0  3  0  0  0  0  0  0
  160.2840  206.8020  153.8300 C   0  0  0  0  0  2  0  0  0  0  0  0
  160.8160  208.7800  152.2880 C   0  0  0  0  0  2  0  0  0  0  0  0
  160.6950  207.3380  152.5340 N   0  0  0  0  0  0  0  0  0  0  0  0
  162.3310  208.2850  156.5550 O   0  0  0  0  0  1  0  0  0  0  0  0
  161.9360  210.7600  155.2710 C   0  0  0  0  0  3  0  0  0  0  0  0
  159.6500  210.9300  156.2690 C   0  0  0  0  0  1  0  0  0  0  0  0
  161.0440  211.4150  156.0290 C   0  0  0  0  0  3  0  0  0  0  0  0
  161.3550  203.5060  148.2880 C   0  0  1  0  0  3  0  0  0  0  0  0
  162.6630  203.1320  147.9650 O   0  0  0  0  0  1  0  0  0  0  0  0
  160.4330  202.3070  148.5180 C   0  0  0  0  0  2  0  0  0  0  0  0
  161.1760  201.0010  148.7400 C   0  0  0  0  0  2  0  0  0  0  0  0
  161.5800  200.8980  150.0590 F   0  0  0  0  0  0  0  0  0  0  0  0
  162.6400  206.2370  148.0260 C   0  0  0  0  0  2  0  0  0  0  0  0
  159.8710  206.2030  145.4390 C   0  0  0  0  0  3  0  0  0  0  0  0
  160.5880  206.4410  146.6160 C   0  0  0  0  0  3  0  0  0  0  0  0
  160.4670  205.5050  144.3850 C   0  0  0  0  0  3  0  0  0  0  0  0
  161.9060  205.9870  146.7410 C   0  0  0  0  0  0  0  0  0  0  0  0
  161.7800  205.0400  144.5080 C   0  0  0  0  0  3  0  0  0  0  0  0
  162.4960  205.2780  145.6840 C   0  0  0  0  0  3  0  0  0  0  0  0
  1  7  1  0  0  0  0
  2  1  2  0  0  0  0
  3  7  2  0  0  0  0
  3 14  1  0  0  0  0
  4  2  1  0  0  0  0
  4  5  2  0  0  0  0
  5  3  1  0  0  0  0
  6  5  1  0  0  0  0
  8 15  1  1  0  0  0
  9 11  1  0  0  0  0
 10  8  1  0  0  0  0
 11 16  1  1  0  0  0
 11  8  1  0  0  0  0
 12 10  1  0  0  0  0
 13 14  1  0  0  0  0
 13  9  1  0  0  0  0
 14 12  1  0  0  0  0
 16 18  2  0  0  0  0
 18 17  1  0  0  0  0
 19 20  1  1  0  0  0
 19 21  1  0  0  0  0
 19  2  1  0  0  0  0
 21 22  1  0  0  0  0
 22 23  1  0  0  0  0
 24  4  1  0  0  0  0
 25 26  1  0  0  0  0
 26 28  2  0  0  0  0
 27 29  1  0  0  0  0
 27 25  2  0  0  0  0
 28 24  1  0  0  0  0
 29 30  2  0  0  0  0
 30 28  1  0  0  0  0
M  END
>  <MODEL>
8

>  <REMARK>
 VINA RESULT:      -5.8      2.043      2.779
  Name = 
  7 active torsions:
  status: ('A' for Active; 'I' for Inactive)
    1  A    between atoms: C_1  and  C_25
    2  A    between atoms: C_3  and  C_17
    3  A    between atoms: C_4  and  C_16
    4  A    between atoms: C_4  and  C_17
    5  A    between atoms: C_12  and  C_14
    6  A    between atoms: C_14  and  C_21
    7  A    between atoms: C_20  and  N_29
                            x       y       z     vdW  Elec       q    Type
                         _______ _______ _______ _____ _____    ______ ____

>  <TORSDO>
F 7

$$$$
=
 OpenBabel11072411133D

 30 32  0  0  1  0  0  0  0  0999 V2000
  160.1160  211.8390  152.4440 C   0  0  0  0  0  3  0  0  0  0  0  0
  159.6450  211.9960  153.7490 C   0  0  0  0  0  0  0  0  0  0  0  0
  160.8130  209.5680  152.9140 C   0  0  0  0  0  0  0  0  0  0  0  0
  159.8020  210.9370  154.6790 C   0  0  0  0  0  0  0  0  0  0  0  0
  160.3590  209.7060  154.2450 C   0  0  0  0  0  0  0  0  0  0  0  0
  160.5020  208.5620  155.2020 C   0  0  0  0  0  1  0  0  0  0  0  0
  160.7000  210.6460  152.0340 C   0  0  0  0  0  3  0  0  0  0  0  0
  161.3200  205.1350  152.2740 C   0  0  2  0  0  3  0  0  0  0  0  0
  162.2720  206.8310  150.6460 C   0  0  0  0  0  2  0  0  0  0  0  0
  160.8390  206.1380  153.3150 C   0  0  0  0  0  2  0  0  0  0  0  0
  161.2630  205.7040  150.8460 C   0  0  1  0  0  3  0  0  0  0  0  0
  161.7780  207.3280  153.4190 C   0  0  0  0  0  2  0  0  0  0  0  0
  161.6640  208.1840  151.0050 C   0  0  0  0  0  2  0  0  0  0  0  0
  161.4000  208.3450  152.4400 N   0  0  0  0  0  0  0  0  0  0  0  0
  160.5290  203.9890  152.3690 O   0  0  0  0  0  1  0  0  0  0  0  0
  161.4650  204.6390  149.7940 C   0  0  0  0  0  3  0  0  0  0  0  0
  160.6200  206.0190  147.8890 C   0  0  0  0  0  1  0  0  0  0  0  0
  161.1830  204.7710  148.4890 C   0  0  0  0  0  3  0  0  0  0  0  0
  158.9680  213.3070  154.0560 C   0  0  1  0  0  3  0  0  0  0  0  0
  159.7060  214.1150  154.9260 O   0  0  0  0  0  1  0  0  0  0  0  0
  158.4650  214.0630  152.8250 C   0  0  0  0  0  2  0  0  0  0  0  0
  156.9520  214.0620  152.6860 C   0  0  0  0  0  2  0  0  0  0  0  0
  156.3580  213.8770  153.9210 F   0  0  0  0  0  0  0  0  0  0  0  0
  159.3490  211.1120  156.1090 C   0  0  0  0  0  2  0  0  0  0  0  0
  155.6180  210.9000  155.4840 C   0  0  0  0  0  3  0  0  0  0  0  0
  156.9950  210.6740  155.3980 C   0  0  0  0  0  3  0  0  0  0  0  0
  155.1160  211.8170  156.4120 C   0  0  0  0  0  3  0  0  0  0  0  0
  157.8760  211.3590  156.2430 C   0  0  0  0  0  0  0  0  0  0  0  0
  155.9910  212.5120  157.2520 C   0  0  0  0  0  3  0  0  0  0  0  0
  157.3680  212.2860  157.1660 C   0  0  0  0  0  3  0  0  0  0  0  0
  1  2  1  0  0  0  0
  2 19  1  0  0  0  0
  2  4  2  0  0  0  0
  3  5  2  0  0  0  0
  4 24  1  0  0  0  0
  5  4  1  0  0  0  0
  5  6  1  0  0  0  0
  7  1  2  0  0  0  0
  7  3  1  0  0  0  0
  8 15  1  6  0  0  0
  8 10  1  0  0  0  0
  9 11  1  0  0  0  0
  9 13  1  0  0  0  0
 10 12  1  0  0  0  0
 11 16  1  6  0  0  0
 11  8  1  0  0  0  0
 13 14  1  0  0  0  0
 14  3  1  0  0  0  0
 14 12  1  0  0  0  0
 17 18  1  0  0  0  0
 18 16  2  0  0  0  0
 19 20  1  6  0  0  0
 21 19  1  0  0  0  0
 22 21  1  0  0  0  0
 22 23  1  0  0  0  0
 24 28  1  0  0  0  0
 25 27  1  0  0  0  0
 26 25  2  0  0  0  0
 26 28  1  0  0  0  0
 27 29  2  0  0  0  0
 28 30  2  0  0  0  0
 30 29  1  0  0  0  0
M  END
>  <MODEL>
9

>  <REMARK>
 VINA RESULT:      -5.6      4.127     10.106
  Name = 
  7 active torsions:
  status: ('A' for Active; 'I' for Inactive)
    1  A    between atoms: C_1  and  C_25
    2  A    between atoms: C_3  and  C_17
    3  A    between atoms: C_4  and  C_16
    4  A    between atoms: C_4  and  C_17
    5  A    between atoms: C_12  and  C_14
    6  A    between atoms: C_14  and  C_21
    7  A    between atoms: C_20  and  N_29
                            x       y       z     vdW  Elec       q    Type
                         _______ _______ _______ _____ _____    ______ ____

>  <TORSDO>
F 7

$$$$
