=
 OpenBabel11072415153D

 40 44  0  0  1  0  0  0  0  0999 V2000
  161.9800  210.2420  150.8270 C   0  0  0  0  0  3  0  0  0  0  0  0
  161.9660  207.8240  150.3840 N   0  0  0  0  0  0  0  0  0  0  0  0
  161.7330  210.4640  148.0390 N   0  0  0  0  0  0  0  0  0  0  0  0
  161.7640  207.9980  148.0770 C   0  0  0  0  0  3  0  0  0  0  0  0
  161.8730  207.1590  149.1980 C   0  0  0  0  0  0  0  0  0  0  0  0
  161.9280  209.1130  150.0320 C   0  0  0  0  0  0  0  0  0  0  0  0
  161.9080  211.4540  150.1990 N   0  0  0  0  0  2  0  0  0  0  0  0
  161.7790  211.5800  148.8340 C   0  0  0  0  0  0  0  0  0  0  0  0
  161.8060  209.2520  148.6310 C   0  0  0  0  0  0  0  0  0  0  0  0
  160.5240  202.8110  151.3640 C   0  0  0  0  0  2  0  0  0  0  0  0
  161.5810  202.6590  148.2750 C   0  0  0  0  0  2  0  0  0  0  0  0
  160.8260  205.1150  150.1340 C   0  0  0  0  0  2  0  0  0  0  0  0
  160.5110  202.9360  149.2150 N   0  0  2  0  0  0  0  0  0  0  0  0
  161.1560  203.6580  150.2850 C   0  0  2  0  0  3  0  0  0  0  0  0
  160.9200  200.6460  150.1680 C   0  0  0  0  0  1  0  0  0  0  0  0
  161.6380  203.8260  147.3210 C   0  0  0  0  0  3  0  0  0  0  0  0
  161.6880  205.1440  147.6580 C   0  0  0  0  0  0  0  0  0  0  0  0
  160.0900  201.9300  150.2010 C   0  0  1  0  0  3  0  0  0  0  0  0
  161.8250  205.6650  149.1050 C   0  0  1  0  0  3  0  0  0  0  0  0
  161.7000  206.1400  146.5270 C   0  0  1  0  0  3  0  0  0  0  0  0
  162.8240  205.9570  145.7170 O   0  0  0  0  0  1  0  0  0  0  0  0
  160.4250  206.0530  145.7000 C   0  0  0  0  0  2  0  0  0  0  0  0
  160.6700  205.2680  144.4590 C   0  0  0  0  0  0  0  0  0  0  0  0
  161.2860  205.8670  143.3690 O   0  0  0  0  0  0  0  0  0  0  0  0
  160.3510  204.0520  144.4110 O   0  0  0  0  0  1  0  0  0  0  0  0
  161.7250  212.9360  148.2390 C   0  0  0  0  0  0  0  0  0  0  0  0
  161.7890  213.9270  149.0160 O   0  0  0  0  0  0  0  0  0  0  0  0
  159.7790  213.5590  144.9370 C   0  0  0  0  0  0  0  0  0  0  0  0
  161.6070  213.1980  146.7830 C   0  0  0  0  0  0  0  0  0  0  0  0
  162.7120  213.2690  146.0420 C   0  0  0  0  0  3  0  0  0  0  0  0
  158.3680  213.6440  144.7790 N   0  0  0  0  0  1  0  0  0  0  0  0
  162.8810  213.4920  144.6070 C   0  0  0  0  0  3  0  0  0  0  0  0
  160.2840  213.3110  146.2500 N   0  0  0  0  0  2  0  0  0  0  0  0
  161.9750  213.6870  143.6470 C   0  0  0  0  0  0  0  0  0  0  0  0
  160.5230  213.7180  143.8460 C   0  0  0  0  0  3  0  0  0  0  0  0
  162.3980  213.8850  142.3240 O   0  0  0  0  0  0  0  0  0  0  0  0
  160.5620  213.5540  140.2480 O   0  0  0  0  0  1  0  0  0  0  0  0
  161.9260  212.8920  140.9950 P   0  0  0  0  0  0  0  0  0  0  0  0
  163.0590  212.8200  139.9980 O   0  0  0  0  0  0  0  0  0  0  0  0
  161.5670  211.3350  141.5480 O   0  0  0  0  0  1  0  0  0  0  0  0
  3  9  1  0  0  0  0
  3  8  2  0  0  0  0
  4  9  2  0  0  0  0
  4  5  1  0  0  0  0
  5  2  2  0  0  0  0
  6  2  1  0  0  0  0
  6  1  2  0  0  0  0
  7  1  1  0  0  0  0
  8  7  1  0  0  0  0
  9  6  1  0  0  0  0
 13 11  1  6  0  0  0
 13 18  1  0  0  0  0
 13 14  1  0  0  0  0
 14 12  1  1  0  0  0
 14 10  1  0  0  0  0
 16 17  2  0  0  0  0
 16 11  1  0  0  0  0
 17 19  1  0  0  0  0
 18 15  1  6  0  0  0
 18 10  1  0  0  0  0
 19  5  1  6  0  0  0
 19 12  1  0  0  0  0
 20 21  1  6  0  0  0
 20 17  1  0  0  0  0
 22 20  1  0  0  0  0
 23 22  1  0  0  0  0
 24 23  2  0  0  0  0
 25 23  1  0  0  0  0
 26  8  1  0  0  0  0
 26 27  2  0  0  0  0
 28 33  1  0  0  0  0
 29 26  1  0  0  0  0
 30 29  2  0  0  0  0
 31 28  1  0  0  0  0
 32 30  1  0  0  0  0
 33 29  1  0  0  0  0
 34 35  1  0  0  0  0
 34 32  2  0  0  0  0
 35 28  2  0  0  0  0
 36 34  1  0  0  0  0
 37 38  1  0  0  0  0
 38 40  1  0  0  0  0
 38 36  1  0  0  0  0
 39 38  2  0  0  0  0
M  END
>  <MODEL>
1

>  <REMARK>
 VINA RESULT:      -8.3      0.000      0.000
  Name = 
  8 active torsions:
  status: ('A' for Active; 'I' for Inactive)
    1  A    between atoms: C_3  and  C_12
    2  A    between atoms: C_9  and  C_39
    3  A    between atoms: C_10  and  C_29
    4  A    between atoms: C_10  and  C_39
    5  A    between atoms: C_12  and  C_34
    6  A    between atoms: P_18  and  O_37
    7  A    between atoms: C_23  and  C_31
    8  A    between atoms: C_32  and  O_37
                            x       y       z     vdW  Elec       q    Type
                         _______ _______ _______ _____ _____    ______ ____

>  <TORSDO>
F 8

$$$$
=
 OpenBabel11072415153D

 40 44  0  0  1  0  0  0  0  0999 V2000
  161.5450  211.5830  150.2790 C   0  0  0  0  0  3  0  0  0  0  0  0
  160.3180  212.3110  152.2810 N   0  0  0  0  0  0  0  0  0  0  0  0
  161.0210  209.0000  151.2460 N   0  0  0  0  0  0  0  0  0  0  0  0
  159.8810  210.1780  153.0890 C   0  0  0  0  0  3  0  0  0  0  0  0
  159.7440  211.5630  153.2660 C   0  0  2  0  0  3  0  0  0  0  0  0
  160.8450  211.4000  151.4560 C   0  0  0  0  0  0  0  0  0  0  0  0
  161.9650  210.4620  149.6190 N   0  0  0  0  0  0  0  0  0  0  0  0
  161.7100  209.1890  150.0750 C   0  0  0  0  0  0  0  0  0  0  0  0
  160.5960  210.0890  151.9230 C   0  0  0  0  0  0  0  0  0  0  0  0
  155.4200  213.6050  154.8660 C   0  0  0  0  0  2  0  0  0  0  0  0
  157.6820  212.9610  157.1370 C   0  0  0  0  0  2  0  0  0  0  0  0
  157.4790  212.1760  154.0700 C   0  0  0  0  0  2  0  0  0  0  0  0
  156.6150  212.4940  156.2710 N   0  0  2  0  0  0  0  0  0  0  0  0
  156.8570  213.1630  155.0160 C   0  0  2  0  0  3  0  0  0  0  0  0
  155.1840  214.3110  157.2580 C   0  0  0  0  0  1  0  0  0  0  0  0
  158.8350  212.0050  156.9630 C   0  0  0  0  0  3  0  0  0  0  0  0
  159.3800  211.6020  155.7820 C   0  0  0  0  0  0  0  0  0  0  0  0
  155.2850  213.1200  156.3030 C   0  0  1  0  0  3  0  0  0  0  0  0
  158.9790  212.1680  154.4030 C   0  0  1  0  0  3  0  0  0  0  0  0
  160.5090  210.6050  155.8540 C   0  0  1  0  0  3  0  0  0  0  0  0
  161.6870  211.2200  156.2860 O   0  0  0  0  0  1  0  0  0  0  0  0
  160.1540  209.4330  156.7580 C   0  0  0  0  0  2  0  0  0  0  0  0
  160.8550  208.2010  156.3020 C   0  0  0  0  0  0  0  0  0  0  0  0
  160.2430  207.3530  155.3880 O   0  0  0  0  0  0  0  0  0  0  0  0
  162.0150  207.9470  156.7160 O   0  0  0  0  0  1  0  0  0  0  0  0
  162.2190  208.0320  149.3020 C   0  0  0  0  0  0  0  0  0  0  0  0
  163.0950  208.2480  148.4210 O   0  0  0  0  0  0  0  0  0  0  0  0
  161.2640  204.9370  151.4430 C   0  0  0  0  0  0  0  0  0  0  0  0
  161.7660  206.6330  149.5070 C   0  0  0  0  0  0  0  0  0  0  0  0
  161.5280  205.8630  148.4460 C   0  0  0  0  0  3  0  0  0  0  0  0
  161.2420  204.8530  152.8620 N   0  0  0  0  0  1  0  0  0  0  0  0
  161.0990  204.4680  148.3630 C   0  0  0  0  0  3  0  0  0  0  0  0
  161.6600  206.1790  150.8600 N   0  0  0  0  0  2  0  0  0  0  0  0
  160.8280  203.5840  149.3250 C   0  0  0  0  0  0  0  0  0  0  0  0
  160.9120  203.8480  150.7640 C   0  0  0  0  0  3  0  0  0  0  0  0
  160.4260  202.2860  148.9810 O   0  0  0  0  0  0  0  0  0  0  0  0
  161.5580  200.0490  147.7540 O   0  0  0  0  0  1  0  0  0  0  0  0
  160.7820  201.5250  147.4750 P   0  0  0  0  0  0  0  0  0  0  0  0
  159.4960  201.2800  146.7210 O   0  0  0  0  0  1  0  0  0  0  0  0
  161.7890  202.5270  146.5560 O   0  0  0  0  0  0  0  0  0  0  0  0
  1  6  1  0  0  0  0
  2  5  1  0  0  0  0
  3  9  1  0  0  0  0
  5  4  1  6  0  0  0
  5 19  1  0  0  0  0
  6  9  1  0  0  0  0
  6  2  2  0  0  0  0
  7  8  1  0  0  0  0
  7  1  2  0  0  0  0
  8  3  2  0  0  0  0
  9  4  2  0  0  0  0
 10 14  1  0  0  0  0
 10 18  1  0  0  0  0
 13 18  1  0  0  0  0
 13 11  1  1  0  0  0
 14 12  1  6  0  0  0
 14 13  1  0  0  0  0
 16 11  1  0  0  0  0
 17 20  1  0  0  0  0
 17 16  2  0  0  0  0
 18 15  1  1  0  0  0
 19 12  1  6  0  0  0
 19 17  1  0  0  0  0
 20 21  1  1  0  0  0
 20 22  1  0  0  0  0
 23 25  1  0  0  0  0
 23 22  1  0  0  0  0
 24 23  2  0  0  0  0
 26 29  1  0  0  0  0
 26  8  1  0  0  0  0
 27 26  2  0  0  0  0
 28 31  1  0  0  0  0
 29 33  1  0  0  0  0
 30 29  2  0  0  0  0
 32 30  1  0  0  0  0
 32 34  2  0  0  0  0
 33 28  1  0  0  0  0
 34 35  1  0  0  0  0
 35 28  2  0  0  0  0
 36 34  1  0  0  0  0
 38 37  1  0  0  0  0
 38 36  1  0  0  0  0
 39 38  1  0  0  0  0
 40 38  2  0  0  0  0
M  END
>  <MODEL>
2

>  <REMARK>
 VINA RESULT:      -6.7      5.607     10.383
  Name = 
  8 active torsions:
  status: ('A' for Active; 'I' for Inactive)
    1  A    between atoms: C_3  and  C_12
    2  A    between atoms: C_9  and  C_39
    3  A    between atoms: C_10  and  C_29
    4  A    between atoms: C_10  and  C_39
    5  A    between atoms: C_12  and  C_34
    6  A    between atoms: P_18  and  O_37
    7  A    between atoms: C_23  and  C_31
    8  A    between atoms: C_32  and  O_37
                            x       y       z     vdW  Elec       q    Type
                         _______ _______ _______ _____ _____    ______ ____

>  <TORSDO>
F 8

$$$$
=
 OpenBabel11072415153D

 40 44  0  0  1  0  0  0  0  0999 V2000
  161.3570  207.1080  152.0690 C   0  0  0  0  0  3  0  0  0  0  0  0
  160.5710  208.9040  153.5520 N   0  0  0  0  0  0  0  0  0  0  0  0
  161.5930  209.1660  150.1740 N   0  0  0  0  0  0  0  0  0  0  0  0
  160.7620  210.6120  151.9910 C   0  0  0  0  0  3  0  0  0  0  0  0
  160.4140  210.2340  153.2960 C   0  0  2  0  0  3  0  0  0  0  0  0
  161.0190  208.4070  152.3940 C   0  0  0  0  0  0  0  0  0  0  0  0
  161.8050  206.8770  150.7980 N   0  0  0  0  0  0  0  0  0  0  0  0
  161.9330  207.8750  149.8590 C   0  0  0  0  0  0  0  0  0  0  0  0
  161.1440  209.4250  151.4210 C   0  0  0  0  0  0  0  0  0  0  0  0
  156.6280  212.9300  155.2520 C   0  0  0  0  0  2  0  0  0  0  0  0
  159.4440  212.9120  156.9120 C   0  0  0  0  0  2  0  0  0  0  0  0
  158.4360  211.2030  154.4370 C   0  0  0  0  0  2  0  0  0  0  0  0
  158.1970  212.2570  156.5640 N   0  0  2  0  0  0  0  0  0  0  0  0
  158.0640  212.4750  155.1440 C   0  0  2  0  0  3  0  0  0  0  0  0
  157.0320  214.3740  157.2580 C   0  0  0  0  0  1  0  0  0  0  0  0
  160.5360  211.8840  156.7530 C   0  0  0  0  0  3  0  0  0  0  0  0
  160.7510  211.0940  155.6650 C   0  0  0  0  0  0  0  0  0  0  0  0
  156.9070  212.9370  156.7480 C   0  0  1  0  0  3  0  0  0  0  0  0
  159.9700  211.2140  154.3380 C   0  0  1  0  0  3  0  0  0  0  0  0
  161.8880  210.1080  155.7480 C   0  0  1  0  0  3  0  0  0  0  0  0
  163.1180  210.7580  155.6160 O   0  0  0  0  0  1  0  0  0  0  0  0
  161.8370  209.3150  157.0470 C   0  0  0  0  0  2  0  0  0  0  0  0
  161.2760  207.9590  156.8000 C   0  0  0  0  0  0  0  0  0  0  0  0
  160.0050  207.6390  157.2600 O   0  0  0  0  0  1  0  0  0  0  0  0
  161.9370  207.1140  156.1430 O   0  0  0  0  0  0  0  0  0  0  0  0
  162.4120  207.5280  148.5000 C   0  0  0  0  0  0  0  0  0  0  0  0
  163.1750  208.3430  147.9150 O   0  0  0  0  0  0  0  0  0  0  0  0
  161.5930  205.3910  145.3640 C   0  0  0  0  0  0  0  0  0  0  0  0
  162.0530  206.2750  147.7900 C   0  0  0  0  0  0  0  0  0  0  0  0
  161.8360  205.1650  148.4950 C   0  0  0  0  0  3  0  0  0  0  0  0
  161.5800  205.8280  144.0120 N   0  0  0  0  0  1  0  0  0  0  0  0
  161.4560  203.8230  148.0590 C   0  0  0  0  0  3  0  0  0  0  0  0
  161.9130  206.3550  146.3680 N   0  0  0  0  0  2  0  0  0  0  0  0
  161.2240  203.3400  146.8370 C   0  0  0  0  0  0  0  0  0  0  0  0
  161.3060  204.1120  145.5930 C   0  0  0  0  0  3  0  0  0  0  0  0
  160.8710  201.9930  146.6780 O   0  0  0  0  0  0  0  0  0  0  0  0
  162.3830  201.1410  148.8650 O   0  0  0  0  0  1  0  0  0  0  0  0
  161.0300  200.7960  147.9100 P   0  0  0  0  0  0  0  0  0  0  0  0
  159.7920  200.8010  148.7750 O   0  0  0  0  0  1  0  0  0  0  0  0
  161.2130  199.2720  147.2020 O   0  0  0  0  0  0  0  0  0  0  0  0
  1  6  1  0  0  0  0
  3  9  1  0  0  0  0
  5  4  1  1  0  0  0
  5  2  1  0  0  0  0
  5 19  1  0  0  0  0
  6  2  2  0  0  0  0
  7  1  2  0  0  0  0
  8  3  2  0  0  0  0
  8  7  1  0  0  0  0
  9  4  2  0  0  0  0
  9  6  1  0  0  0  0
 10 18  1  0  0  0  0
 13 18  1  0  0  0  0
 13 11  1  1  0  0  0
 14 12  1  6  0  0  0
 14 10  1  0  0  0  0
 14 13  1  0  0  0  0
 16 11  1  0  0  0  0
 17 20  1  0  0  0  0
 17 16  2  0  0  0  0
 18 15  1  6  0  0  0
 19 12  1  1  0  0  0
 19 17  1  0  0  0  0
 20 21  1  1  0  0  0
 20 22  1  0  0  0  0
 23 22  1  0  0  0  0
 23 24  1  0  0  0  0
 25 23  2  0  0  0  0
 26  8  1  0  0  0  0
 27 26  2  0  0  0  0
 28 35  2  0  0  0  0
 28 33  1  0  0  0  0
 29 30  2  0  0  0  0
 29 26  1  0  0  0  0
 31 28  1  0  0  0  0
 32 30  1  0  0  0  0
 33 29  1  0  0  0  0
 34 32  2  0  0  0  0
 35 34  1  0  0  0  0
 36 34  1  0  0  0  0
 36 38  1  0  0  0  0
 38 39  1  0  0  0  0
 38 37  1  0  0  0  0
 40 38  2  0  0  0  0
M  END
>  <MODEL>
3

>  <REMARK>
 VINA RESULT:      -6.3      5.583     10.105
  Name = 
  8 active torsions:
  status: ('A' for Active; 'I' for Inactive)
    1  A    between atoms: C_3  and  C_12
    2  A    between atoms: C_9  and  C_39
    3  A    between atoms: C_10  and  C_29
    4  A    between atoms: C_10  and  C_39
    5  A    between atoms: C_12  and  C_34
    6  A    between atoms: P_18  and  O_37
    7  A    between atoms: C_23  and  C_31
    8  A    between atoms: C_32  and  O_37
                            x       y       z     vdW  Elec       q    Type
                         _______ _______ _______ _____ _____    ______ ____

>  <TORSDO>
F 8

$$$$
=
 OpenBabel11072415153D

 40 44  0  0  1  0  0  0  0  0999 V2000
  161.2970  206.9660  152.4710 C   0  0  0  0  0  3  0  0  0  0  0  0
  160.4830  208.8320  153.8480 N   0  0  0  0  0  0  0  0  0  0  0  0
  161.2580  208.8560  150.3950 N   0  0  0  0  0  0  0  0  0  0  0  0
  160.4470  210.4020  152.1370 C   0  0  0  0  0  3  0  0  0  0  0  0
  160.2140  210.1200  153.4920 C   0  0  2  0  0  3  0  0  0  0  0  0
  160.8880  208.2640  152.7070 C   0  0  0  0  0  0  0  0  0  0  0  0
  161.6750  206.6510  151.1950 N   0  0  0  0  0  0  0  0  0  0  0  0
  161.6690  207.5670  150.1680 C   0  0  0  0  0  0  0  0  0  0  0  0
  160.8750  209.1960  151.6450 C   0  0  0  0  0  0  0  0  0  0  0  0
  156.4030  212.8330  155.3750 C   0  0  0  0  0  2  0  0  0  0  0  0
  159.2680  213.0200  156.9400 C   0  0  0  0  0  2  0  0  0  0  0  0
  158.2420  211.1080  154.6260 C   0  0  0  0  0  2  0  0  0  0  0  0
  158.0330  212.3040  156.6800 N   0  0  2  0  0  0  0  0  0  0  0  0
  157.8500  212.4150  155.2530 C   0  0  2  0  0  3  0  0  0  0  0  0
  156.8210  214.4280  157.2600 C   0  0  0  0  0  1  0  0  0  0  0  0
  160.3880  212.0170  156.8170 C   0  0  0  0  0  3  0  0  0  0  0  0
  160.5950  211.1580  155.7820 C   0  0  0  0  0  0  0  0  0  0  0  0
  156.7270  212.9560  156.8580 C   0  0  1  0  0  3  0  0  0  0  0  0
  159.7700  211.1580  154.4760 C   0  0  1  0  0  3  0  0  0  0  0  0
  161.7650  210.2160  155.8970 C   0  0  1  0  0  3  0  0  0  0  0  0
  162.9730  210.9120  155.8020 O   0  0  0  0  0  1  0  0  0  0  0  0
  161.7070  209.4180  157.1920 C   0  0  0  0  0  2  0  0  0  0  0  0
  161.1330  208.0680  156.9390 C   0  0  0  0  0  0  0  0  0  0  0  0
  159.7880  207.8280  157.1910 O   0  0  0  0  0  1  0  0  0  0  0  0
  161.8560  207.1550  156.4640 O   0  0  0  0  0  0  0  0  0  0  0  0
  162.0810  207.1320  148.8120 C   0  0  0  0  0  0  0  0  0  0  0  0
  162.7170  207.9500  148.0950 O   0  0  0  0  0  0  0  0  0  0  0  0
  160.9780  203.4150  149.0110 C   0  0  0  0  0  0  0  0  0  0  0  0
  161.7960  205.7880  148.2510 C   0  0  0  0  0  0  0  0  0  0  0  0
  162.0100  205.5640  146.9550 C   0  0  0  0  0  3  0  0  0  0  0  0
  160.5340  202.7150  150.1670 N   0  0  0  0  0  1  0  0  0  0  0  0
  161.8360  204.3490  146.1600 C   0  0  0  0  0  3  0  0  0  0  0  0
  161.3480  204.7850  149.1690 N   0  0  0  0  0  2  0  0  0  0  0  0
  161.4150  203.1330  146.5140 C   0  0  0  0  0  0  0  0  0  0  0  0
  161.0140  202.7370  147.8670 C   0  0  0  0  0  3  0  0  0  0  0  0
  161.3310  202.1200  145.5480 O   0  0  0  0  0  0  0  0  0  0  0  0
  159.2430  202.7060  143.7900 O   0  0  0  0  0  0  0  0  0  0  0  0
  159.8540  201.5510  144.8630 P   0  0  0  0  0  0  0  0  0  0  0  0
  160.1130  200.2620  144.1180 O   0  0  0  0  0  1  0  0  0  0  0  0
  158.7280  201.2720  146.0930 O   0  0  0  0  0  1  0  0  0  0  0  0
  1  6  1  0  0  0  0
  3  9  1  0  0  0  0
  5  4  1  1  0  0  0
  5  2  1  0  0  0  0
  5 19  1  0  0  0  0
  6  2  2  0  0  0  0
  7  1  2  0  0  0  0
  8  3  2  0  0  0  0
  8  7  1  0  0  0  0
  9  4  2  0  0  0  0
  9  6  1  0  0  0  0
 10 18  1  0  0  0  0
 13 18  1  0  0  0  0
 13 11  1  1  0  0  0
 14 12  1  6  0  0  0
 14 10  1  0  0  0  0
 14 13  1  0  0  0  0
 16 11  1  0  0  0  0
 17 20  1  0  0  0  0
 17 16  2  0  0  0  0
 18 15  1  6  0  0  0
 19 12  1  1  0  0  0
 19 17  1  0  0  0  0
 20 21  1  1  0  0  0
 20 22  1  0  0  0  0
 23 24  1  0  0  0  0
 23 22  1  0  0  0  0
 25 23  2  0  0  0  0
 26  8  1  0  0  0  0
 27 26  2  0  0  0  0
 28 33  1  0  0  0  0
 28 31  1  0  0  0  0
 29 26  1  0  0  0  0
 29 33  1  0  0  0  0
 30 29  2  0  0  0  0
 32 34  2  0  0  0  0
 32 30  1  0  0  0  0
 34 35  1  0  0  0  0
 35 28  2  0  0  0  0
 36 34  1  0  0  0  0
 37 38  2  0  0  0  0
 38 36  1  0  0  0  0
 38 40  1  0  0  0  0
 39 38  1  0  0  0  0
M  END
>  <MODEL>
4

>  <REMARK>
 VINA RESULT:      -6.2      5.294     10.106
  Name = 
  8 active torsions:
  status: ('A' for Active; 'I' for Inactive)
    1  A    between atoms: C_3  and  C_12
    2  A    between atoms: C_9  and  C_39
    3  A    between atoms: C_10  and  C_29
    4  A    between atoms: C_10  and  C_39
    5  A    between atoms: C_12  and  C_34
    6  A    between atoms: P_18  and  O_37
    7  A    between atoms: C_23  and  C_31
    8  A    between atoms: C_32  and  O_37
                            x       y       z     vdW  Elec       q    Type
                         _______ _______ _______ _____ _____    ______ ____

>  <TORSDO>
F 8

$$$$
=
 OpenBabel11072415153D

 40 44  0  0  1  0  0  0  0  0999 V2000
  162.1630  209.3240  151.3420 C   0  0  0  0  0  3  0  0  0  0  0  0
  162.0790  207.1740  150.1530 N   0  0  0  0  0  0  0  0  0  0  0  0
  160.8600  207.9150  153.3920 N   0  0  0  0  0  0  0  0  0  0  0  0
  160.9990  206.0020  151.8420 C   0  0  0  0  0  3  0  0  0  0  0  0
  161.5590  205.9800  150.5550 C   0  0  0  0  0  0  0  0  0  0  0  0
  161.8460  207.9880  151.1880 C   0  0  0  0  0  0  0  0  0  0  0  0
  161.8160  209.9170  152.5240 N   0  0  0  0  0  2  0  0  0  0  0  0
  161.1830  209.2400  153.5410 C   0  0  0  0  0  0  0  0  0  0  0  0
  161.1880  207.3020  152.2340 C   0  0  0  0  0  0  0  0  0  0  0  0
  160.8230  200.9990  150.2720 C   0  0  0  0  0  2  0  0  0  0  0  0
  161.5800  202.5440  147.4920 C   0  0  0  0  0  2  0  0  0  0  0  0
  160.7950  203.6270  150.3680 C   0  0  0  0  0  2  0  0  0  0  0  0
  160.5880  202.1770  148.4840 N   0  0  2  0  0  0  0  0  0  0  0  0
  161.2670  202.3440  149.7460 C   0  0  2  0  0  3  0  0  0  0  0  0
  161.2900  199.7900  148.1290 C   0  0  0  0  0  1  0  0  0  0  0  0
  161.4390  204.0280  147.2600 C   0  0  0  0  0  3  0  0  0  0  0  0
  161.4040  204.9960  148.2160 C   0  0  0  0  0  0  0  0  0  0  0  0
  160.3570  200.7700  148.8410 C   0  0  1  0  0  3  0  0  0  0  0  0
  161.6360  204.7380  149.7200 C   0  0  1  0  0  3  0  0  0  0  0  0
  161.2170  206.4160  147.7460 C   0  0  1  0  0  3  0  0  0  0  0  0
  162.4500  207.0510  147.5820 O   0  0  0  0  0  1  0  0  0  0  0  0
  160.4120  206.4690  146.4550 C   0  0  0  0  0  2  0  0  0  0  0  0
  161.2960  206.2050  145.2860 C   0  0  0  0  0  0  0  0  0  0  0  0
  162.6120  205.8110  145.4870 O   0  0  0  0  0  1  0  0  0  0  0  0
  160.8420  206.3050  144.1180 O   0  0  0  0  0  0  0  0  0  0  0  0
  160.8300  209.9700  154.7820 C   0  0  0  0  0  0  0  0  0  0  0  0
  161.2740  209.5270  155.8760 O   0  0  0  0  0  0  0  0  0  0  0  0
  159.8260  213.4950  156.0610 C   0  0  0  0  0  0  0  0  0  0  0  0
  159.9930  211.1940  154.8130 C   0  0  0  0  0  0  0  0  0  0  0  0
  158.9250  211.2750  154.0190 C   0  0  0  0  0  3  0  0  0  0  0  0
  160.4960  214.2690  157.0470 N   0  0  0  0  0  1  0  0  0  0  0  0
  157.9340  212.3380  153.8660 C   0  0  0  0  0  3  0  0  0  0  0  0
  160.3660  212.2100  155.7490 N   0  0  0  0  0  2  0  0  0  0  0  0
  157.8270  213.5190  154.4780 C   0  0  0  0  0  0  0  0  0  0  0  0
  158.7440  214.0290  155.5010 C   0  0  0  0  0  3  0  0  0  0  0  0
  156.7690  214.3780  154.1460 O   0  0  0  0  0  0  0  0  0  0  0  0
  154.2050  214.4140  155.2500 O   0  0  0  0  0  1  0  0  0  0  0  0
  155.1330  213.8710  153.9440 P   0  0  0  0  0  0  0  0  0  0  0  0
  154.5840  214.4530  152.6630 O   0  0  0  0  0  0  0  0  0  0  0  0
  155.0660  212.1830  153.8670 O   0  0  0  0  0  1  0  0  0  0  0  0
  1  7  1  0  0  0  0
  2  5  2  0  0  0  0
  2  6  1  0  0  0  0
  3  8  2  0  0  0  0
  4  9  2  0  0  0  0
  5  4  1  0  0  0  0
  6  1  2  0  0  0  0
  6  9  1  0  0  0  0
  7  8  1  0  0  0  0
  8 26  1  0  0  0  0
  9  3  1  0  0  0  0
 13 11  1  6  0  0  0
 13 18  1  0  0  0  0
 13 14  1  0  0  0  0
 14 10  1  1  0  0  0
 14 12  1  0  0  0  0
 16 11  1  0  0  0  0
 16 17  2  0  0  0  0
 17 19  1  0  0  0  0
 18 15  1  6  0  0  0
 18 10  1  0  0  0  0
 19 12  1  0  0  0  0
 19  5  1  1  0  0  0
 20 21  1  6  0  0  0
 20 17  1  0  0  0  0
 22 20  1  0  0  0  0
 23 24  1  0  0  0  0
 23 22  1  0  0  0  0
 25 23  2  0  0  0  0
 26 29  1  0  0  0  0
 26 27  2  0  0  0  0
 28 31  1  0  0  0  0
 29 33  1  0  0  0  0
 30 29  2  0  0  0  0
 32 30  1  0  0  0  0
 32 34  2  0  0  0  0
 33 28  1  0  0  0  0
 34 35  1  0  0  0  0
 35 28  2  0  0  0  0
 36 34  1  0  0  0  0
 38 36  1  0  0  0  0
 38 37  1  0  0  0  0
 39 38  2  0  0  0  0
 40 38  1  0  0  0  0
M  END
>  <MODEL>
5

>  <REMARK>
 VINA RESULT:      -6.0      5.075      7.528
  Name = 
  8 active torsions:
  status: ('A' for Active; 'I' for Inactive)
    1  A    between atoms: C_3  and  C_12
    2  A    between atoms: C_9  and  C_39
    3  A    between atoms: C_10  and  C_29
    4  A    between atoms: C_10  and  C_39
    5  A    between atoms: C_12  and  C_34
    6  A    between atoms: P_18  and  O_37
    7  A    between atoms: C_23  and  C_31
    8  A    between atoms: C_32  and  O_37
                            x       y       z     vdW  Elec       q    Type
                         _______ _______ _______ _____ _____    ______ ____

>  <TORSDO>
F 8

$$$$
=
 OpenBabel11072415153D

 40 44  0  0  1  0  0  0  0  0999 V2000
  161.2460  212.2560  149.9320 C   0  0  0  0  0  3  0  0  0  0  0  0
  160.0720  212.8250  152.0150 N   0  0  0  0  0  0  0  0  0  0  0  0
  161.1770  209.6380  150.9440 N   0  0  0  0  0  0  0  0  0  0  0  0
  160.0110  210.6630  152.8610 C   0  0  0  0  0  3  0  0  0  0  0  0
  159.6850  212.0160  153.0420 C   0  0  2  0  0  3  0  0  0  0  0  0
  160.6660  211.9890  151.1570 C   0  0  0  0  0  0  0  0  0  0  0  0
  161.7770  211.1990  149.2470 N   0  0  0  0  0  0  0  0  0  0  0  0
  161.7450  209.9090  149.7250 C   0  0  0  0  0  0  0  0  0  0  0  0
  160.6460  210.6630  151.6450 C   0  0  0  0  0  0  0  0  0  0  0  0
  155.3980  213.9960  154.8090 C   0  0  0  0  0  2  0  0  0  0  0  0
  157.6150  213.0550  157.0200 C   0  0  0  0  0  2  0  0  0  0  0  0
  157.4280  212.6020  153.8860 C   0  0  0  0  0  2  0  0  0  0  0  0
  156.5470  212.7110  156.1010 N   0  0  2  0  0  0  0  0  0  0  0  0
  156.8200  213.5010  154.9250 C   0  0  2  0  0  3  0  0  0  0  0  0
  155.1520  214.4520  157.2600 C   0  0  0  0  0  1  0  0  0  0  0  0
  158.7450  212.0920  156.7570 C   0  0  0  0  0  3  0  0  0  0  0  0
  159.2930  211.8000  155.5450 C   0  0  0  0  0  0  0  0  0  0  0  0
  155.2330  213.3660  156.1860 C   0  0  1  0  0  3  0  0  0  0  0  0
  158.9230  212.5190  154.2300 C   0  0  1  0  0  3  0  0  0  0  0  0
  160.3940  210.7710  155.5220 C   0  0  1  0  0  3  0  0  0  0  0  0
  161.6220  211.3510  155.8530 O   0  0  0  0  0  1  0  0  0  0  0  0
  160.0830  209.6070  156.4520 C   0  0  0  0  0  2  0  0  0  0  0  0
  160.8880  208.4140  156.0700 C   0  0  0  0  0  0  0  0  0  0  0  0
  161.1550  208.1570  154.7320 O   0  0  0  0  0  0  0  0  0  0  0  0
  161.3550  207.6590  156.9610 O   0  0  0  0  0  1  0  0  0  0  0  0
  162.3620  208.8270  148.9210 C   0  0  0  0  0  0  0  0  0  0  0  0
  163.3270  209.1270  148.1670 O   0  0  0  0  0  0  0  0  0  0  0  0
  161.2850  205.4550  147.3270 C   0  0  0  0  0  0  0  0  0  0  0  0
  161.9160  207.4120  148.9550 C   0  0  0  0  0  0  0  0  0  0  0  0
  161.6980  206.8250  150.1310 C   0  0  0  0  0  3  0  0  0  0  0  0
  161.2100  205.1500  145.9410 N   0  0  0  0  0  1  0  0  0  0  0  0
  161.2430  205.4720  150.4470 C   0  0  0  0  0  3  0  0  0  0  0  0
  161.6980  206.7720  147.6940 N   0  0  0  0  0  0  0  0  0  0  0  0
  160.9230  204.4550  149.6460 C   0  0  0  0  0  0  0  0  0  0  0  0
  160.9630  204.4860  148.1810 C   0  0  0  0  0  2  0  0  0  0  0  0
  160.5120  203.2360  150.2030 O   0  0  0  0  0  0  0  0  0  0  0  0
  161.2240  201.9230  147.8440 O   0  0  0  0  0  0  0  0  0  0  0  0
  160.4590  201.7420  149.3410 P   0  0  0  0  0  0  0  0  0  0  0  0
  161.1700  200.6770  150.1420 O   0  0  0  0  0  1  0  0  0  0  0  0
  158.8490  201.2820  149.1010 O   0  0  0  0  0  1  0  0  0  0  0  0
  1  6  1  0  0  0  0
  2  5  1  0  0  0  0
  3  9  1  0  0  0  0
  5  4  1  6  0  0  0
  5 19  1  0  0  0  0
  6  9  1  0  0  0  0
  6  2  2  0  0  0  0
  7  8  1  0  0  0  0
  7  1  2  0  0  0  0
  8  3  2  0  0  0  0
  9  4  2  0  0  0  0
 10 14  1  0  0  0  0
 10 18  1  0  0  0  0
 13 18  1  0  0  0  0
 13 11  1  1  0  0  0
 14 12  1  6  0  0  0
 14 13  1  0  0  0  0
 16 11  1  0  0  0  0
 17 16  2  0  0  0  0
 18 15  1  1  0  0  0
 19 12  1  6  0  0  0
 19 17  1  0  0  0  0
 20 17  1  0  0  0  0
 20 21  1  1  0  0  0
 20 22  1  0  0  0  0
 23 22  1  0  0  0  0
 23 25  1  0  0  0  0
 24 23  2  0  0  0  0
 26 29  1  0  0  0  0
 26  8  1  0  0  0  0
 27 26  2  0  0  0  0
 28 33  2  0  0  0  0
 28 35  1  0  0  0  0
 29 30  2  0  0  0  0
 30 32  1  0  0  0  0
 31 28  1  0  0  0  0
 33 29  1  0  0  0  0
 34 36  1  0  0  0  0
 34 32  2  0  0  0  0
 35 34  1  0  0  0  0
 37 38  2  0  0  0  0
 38 39  1  0  0  0  0
 38 36  1  0  0  0  0
 40 38  1  0  0  0  0
M  END
>  <MODEL>
6

>  <REMARK>
 VINA RESULT:      -5.7      5.742     10.236
  Name = 
  8 active torsions:
  status: ('A' for Active; 'I' for Inactive)
    1  A    between atoms: C_3  and  C_12
    2  A    between atoms: C_9  and  C_39
    3  A    between atoms: C_10  and  C_29
    4  A    between atoms: C_10  and  C_39
    5  A    between atoms: C_12  and  C_34
    6  A    between atoms: P_18  and  O_37
    7  A    between atoms: C_23  and  C_31
    8  A    between atoms: C_32  and  O_37
                            x       y       z     vdW  Elec       q    Type
                         _______ _______ _______ _____ _____    ______ ____

>  <TORSDO>
F 8

$$$$
=
 OpenBabel11072415153D

 40 44  0  0  1  0  0  0  0  0999 V2000
  161.2360  206.2490  154.0720 C   0  0  0  0  0  3  0  0  0  0  0  0
  161.1310  205.3750  151.7770 N   0  0  0  0  0  0  0  0  0  0  0  0
  161.2780  208.7570  152.8100 N   0  0  0  0  0  0  0  0  0  0  0  0
  161.1670  207.4450  150.7240 C   0  0  0  0  0  3  0  0  0  0  0  0
  161.1170  206.0490  150.5910 C   0  0  0  0  0  0  0  0  0  0  0  0
  161.2000  206.3450  152.6940 C   0  0  0  0  0  0  0  0  0  0  0  0
  161.2940  207.4170  154.7800 N   0  0  0  0  0  2  0  0  0  0  0  0
  161.3080  208.6550  154.1770 C   0  0  0  0  0  0  0  0  0  0  0  0
  161.2240  207.6190  152.0830 C   0  0  0  0  0  0  0  0  0  0  0  0
  161.8380  206.2700  145.6060 C   0  0  0  0  0  2  0  0  0  0  0  0
  160.9340  203.3820  146.8440 C   0  0  0  0  0  2  0  0  0  0  0  0
  161.8700  206.0780  148.2280 C   0  0  0  0  0  2  0  0  0  0  0  0
  161.9780  204.3550  146.5810 N   0  0  2  0  0  0  0  0  0  0  0  0
  161.3660  205.6250  146.8880 C   0  0  2  0  0  3  0  0  0  0  0  0
  161.2580  204.2990  144.1730 C   0  0  0  0  0  1  0  0  0  0  0  0
  161.0630  202.9830  148.2920 C   0  0  0  0  0  3  0  0  0  0  0  0
  161.1480  203.8250  149.3580 C   0  0  0  0  0  0  0  0  0  0  0  0
  162.2280  204.8500  145.2200 C   0  0  1  0  0  3  0  0  0  0  0  0
  160.9960  205.3590  149.2670 C   0  0  1  0  0  3  0  0  0  0  0  0
  161.3100  203.1950  150.7180 C   0  0  1  0  0  3  0  0  0  0  0  0
  160.1150  203.2560  151.4390 O   0  0  0  0  0  1  0  0  0  0  0  0
  161.7940  201.7560  150.6050 C   0  0  0  0  0  2  0  0  0  0  0  0
  160.8530  200.9610  149.7690 C   0  0  0  0  0  0  0  0  0  0  0  0
  161.2950  200.3810  148.5870 O   0  0  0  0  0  0  0  0  0  0  0  0
  159.6680  200.7840  150.1500 O   0  0  0  0  0  1  0  0  0  0  0  0
  161.3880  209.8670  155.0250 C   0  0  0  0  0  0  0  0  0  0  0  0
  162.3200  209.9370  155.8730 O   0  0  0  0  0  0  0  0  0  0  0  0
  159.8570  213.2490  156.1630 C   0  0  0  0  0  0  0  0  0  0  0  0
  160.4440  211.0080  154.9320 C   0  0  0  0  0  0  0  0  0  0  0  0
  159.5180  211.0110  153.9740 C   0  0  0  0  0  3  0  0  0  0  0  0
  160.2800  214.0540  157.2550 N   0  0  0  0  0  1  0  0  0  0  0  0
  158.4680  211.9830  153.6720 C   0  0  0  0  0  3  0  0  0  0  0  0
  160.5610  212.0280  155.9290 N   0  0  0  0  0  2  0  0  0  0  0  0
  158.1500  213.1320  154.2710 C   0  0  0  0  0  0  0  0  0  0  0  0
  158.8350  213.6960  155.4380 C   0  0  0  0  0  3  0  0  0  0  0  0
  157.0840  213.8980  153.7790 O   0  0  0  0  0  0  0  0  0  0  0  0
  154.9910  214.4410  155.5440 O   0  0  0  0  0  1  0  0  0  0  0  0
  155.4250  213.6000  154.1430 P   0  0  0  0  0  0  0  0  0  0  0  0
  154.5680  214.0700  152.9910 O   0  0  0  0  0  0  0  0  0  0  0  0
  155.1840  211.9430  154.3810 O   0  0  0  0  0  1  0  0  0  0  0  0
  1  7  1  0  0  0  0
  2  6  1  0  0  0  0
  3  8  2  0  0  0  0
  4  9  2  0  0  0  0
  5  4  1  0  0  0  0
  5  2  2  0  0  0  0
  6  1  2  0  0  0  0
  8  7  1  0  0  0  0
  8 26  1  0  0  0  0
  9  6  1  0  0  0  0
  9  3  1  0  0  0  0
 11 16  1  0  0  0  0
 12 19  1  0  0  0  0
 13 11  1  6  0  0  0
 13 14  1  0  0  0  0
 14 10  1  6  0  0  0
 14 12  1  0  0  0  0
 16 17  2  0  0  0  0
 17 20  1  0  0  0  0
 18 15  1  6  0  0  0
 18 10  1  0  0  0  0
 18 13  1  0  0  0  0
 19 17  1  0  0  0  0
 19  5  1  1  0  0  0
 20 21  1  6  0  0  0
 22 20  1  0  0  0  0
 23 25  1  0  0  0  0
 23 22  1  0  0  0  0
 24 23  2  0  0  0  0
 26 27  2  0  0  0  0
 28 31  1  0  0  0  0
 29 26  1  0  0  0  0
 29 33  1  0  0  0  0
 30 29  2  0  0  0  0
 32 30  1  0  0  0  0
 32 34  2  0  0  0  0
 33 28  1  0  0  0  0
 34 35  1  0  0  0  0
 35 28  2  0  0  0  0
 36 38  1  0  0  0  0
 36 34  1  0  0  0  0
 38 40  1  0  0  0  0
 38 37  1  0  0  0  0
 39 38  2  0  0  0  0
M  END
>  <MODEL>
7

>  <REMARK>
 VINA RESULT:      -5.3      6.678      8.262
  Name = 
  8 active torsions:
  status: ('A' for Active; 'I' for Inactive)
    1  A    between atoms: C_3  and  C_12
    2  A    between atoms: C_9  and  C_39
    3  A    between atoms: C_10  and  C_29
    4  A    between atoms: C_10  and  C_39
    5  A    between atoms: C_12  and  C_34
    6  A    between atoms: P_18  and  O_37
    7  A    between atoms: C_23  and  C_31
    8  A    between atoms: C_32  and  O_37
                            x       y       z     vdW  Elec       q    Type
                         _______ _______ _______ _____ _____    ______ ____

>  <TORSDO>
F 8

$$$$
