=
 OpenBabel11072410093D

 43 47  0  0  1  0  0  0  0  0999 V2000
  162.0100  208.5920  149.8900 O   0  0  0  0  0  0  0  0  0  0  0  0
  161.9900  208.7740  151.1370 C   0  0  0  0  0  0  0  0  0  0  0  0
  161.2340  205.2820  152.3620 C   0  0  0  0  0  0  0  0  0  0  0  0
  161.3060  207.8720  153.3160 N   0  0  0  0  0  0  0  0  0  0  0  0
  160.9540  206.8680  154.1650 C   0  0  0  0  0  0  0  0  0  0  0  0
  161.6450  207.6380  152.0160 C   0  0  0  0  0  0  0  0  0  0  0  0
  161.6020  206.3300  151.5200 C   0  0  0  0  0  3  0  0  0  0  0  0
  160.9190  205.5490  153.6990 C   0  0  0  0  0  3  0  0  0  0  0  0
  160.6110  207.1930  155.5560 C   0  0  0  0  0  3  0  0  0  0  0  0
  159.4150  207.5550  155.8900 N   0  0  0  0  0  2  0  0  0  0  0  0
  161.1950  203.8890  151.8280 C   0  0  0  0  0  2  0  0  0  0  0  0
  160.3830  201.8860  149.9820 O   0  0  0  0  0  0  0  0  0  0  0  0
  161.5040  203.8890  150.4030 N   0  0  0  0  0  2  0  0  0  0  0  0
  160.9760  202.8980  149.5180 C   0  0  0  0  0  0  0  0  0  0  0  0
  160.7600  202.2790  145.8060 C   0  0  0  0  0  0  0  0  0  0  0  0
  162.3330  205.4690  145.7920 O   0  0  0  0  0  0  0  0  0  0  0  0
  161.6850  204.2000  147.5590 N   0  0  0  0  0  0  0  0  0  0  0  0
  160.3090  201.3360  144.9480 F   0  0  0  0  0  0  0  0  0  0  0  0
  160.6390  202.0850  147.1840 C   0  0  0  0  0  3  0  0  0  0  0  0
  161.3460  203.4470  145.3170 C   0  0  0  0  0  2  0  0  0  0  0  0
  161.8070  204.4090  146.2190 C   0  0  0  0  0  0  0  0  0  0  0  0
  161.1150  203.0690  148.0620 C   0  0  0  0  0  0  0  0  0  0  0  0
  162.3110  210.0450  151.6300 O   0  0  0  0  0  0  0  0  0  0  0  0
  161.3330  211.0310  151.9280 C   0  0  0  0  0  2  0  0  0  0  0  0
  159.2370  211.2580  156.3170 C   0  0  0  0  0  0  0  0  0  0  0  0
  160.3540  210.4890  152.9490 C   0  0  2  0  0  3  0  0  0  0  0  0
  158.8460  213.8700  155.1390 O   0  0  0  0  0  1  0  0  0  0  0  0
  158.2720  211.8990  157.2600 C   0  0  0  0  0  2  0  0  0  0  0  0
  158.8310  211.4800  154.9140 C   0  0  2  0  0  3  0  0  0  0  0  0
  158.9660  211.0470  152.7160 C   0  0  1  0  0  3  0  0  0  0  0  0
  159.8550  211.6220  153.8160 C   0  0  2  0  0  3  0  0  0  0  0  0
  157.2500  212.5840  156.3320 C   0  0  1  0  0  3  0  0  0  0  0  0
  158.0480  213.3600  152.6240 O   0  0  0  0  0  0  0  0  0  0  0  0
  158.5740  212.2680  151.8690 C   0  0  0  0  0  2  0  0  0  0  0  0
  160.1760  210.5600  156.6650 O   0  0  0  0  0  0  0  0  0  0  0  0
  157.1820  212.9310  153.6730 C   0  0  1  0  0  3  0  0  0  0  0  0
  157.9980  212.7590  154.9930 C   0  0  1  0  0  0  0  0  0  0  0  0
  155.8690  210.8750  155.3480 O   0  0  0  0  0  0  0  0  0  0  0  0
  154.9650  211.9390  157.2010 N   0  0  0  0  0  1  0  0  0  0  0  0
  155.9990  211.7540  156.2400 C   0  0  0  0  0  0  0  0  0  0  0  0
  156.0650  213.9180  153.8220 C   0  0  0  0  0  0  0  0  0  0  0  0
  155.4250  214.4050  152.6910 O   0  0  0  0  0  0  0  0  0  0  0  0
  155.7110  214.3170  154.9620 O   0  0  0  0  0  1  0  0  0  0  0  0
  1  2  2  0  0  0  0
  2 23  1  0  0  0  0
  2  6  1  0  0  0  0
  3  8  1  0  0  0  0
  4  5  1  0  0  0  0
  5  9  1  0  0  0  0
  6  4  2  0  0  0  0
  7  6  1  0  0  0  0
  7  3  2  0  0  0  0
  8  5  2  0  0  0  0
  9 10  2  0  0  0  0
 11  3  1  0  0  0  0
 13 11  1  0  0  0  0
 14 12  2  0  0  0  0
 14 13  1  0  0  0  0
 15 19  2  0  0  0  0
 16 21  2  0  0  0  0
 17 22  2  0  0  0  0
 18 15  1  0  0  0  0
 19 22  1  0  0  0  0
 20 15  1  0  0  0  0
 20 21  1  0  0  0  0
 21 17  1  0  0  0  0
 22 14  1  0  0  0  0
 23 24  1  0  0  0  0
 25 35  2  0  0  0  0
 25 28  1  0  0  0  0
 26 24  1  6  0  0  0
 26 31  1  0  0  0  0
 29 37  1  0  0  0  0
 29 25  1  1  0  0  0
 30 34  1  6  0  0  0
 30 26  1  0  0  0  0
 30 31  1  0  0  0  0
 31 29  1  0  0  0  0
 32 28  1  0  0  0  0
 33 36  1  0  0  0  0
 34 33  1  0  0  0  0
 36 41  1  0  0  0  0
 36 37  1  0  0  0  0
 37 27  1  0  0  0  0
 37 32  1  0  0  0  0
 38 40  2  0  0  0  0
 40 32  1  0  0  0  0
 40 39  1  0  0  0  0
 41 43  1  0  0  0  0
 42 41  2  0  0  0  0
M  END
>  <MODEL>
1

>  <REMARK>
 VINA RESULT:      -8.8      0.000      0.000
  Name = 
  10 active torsions:
  status: ('A' for Active; 'I' for Inactive)
    1  A    between atoms: C_4  and  C_19
    2  A    between atoms: C_7  and  C_13
    3  A    between atoms: C_7  and  O_42
    4  A    between atoms: C_8  and  C_39
    5  A    between atoms: C_9  and  C_38
    6  A    between atoms: C_17  and  C_30
    7  A    between atoms: N_22  and  C_39
    8  A    between atoms: C_23  and  C_26
    9  A    between atoms: C_26  and  O_42
   10  A    between atoms: C_36  and  C_40
                            x       y       z     vdW  Elec       q    Type
                         _______ _______ _______ _____ _____    ______ ____

>  <TORSDO>
F 10

$$$$
=
 OpenBabel11072410093D

 43 47  0  0  1  0  0  0  0  0999 V2000
  162.3830  207.3040  151.3140 O   0  0  0  0  0  0  0  0  0  0  0  0
  161.8370  206.9270  152.3840 C   0  0  0  0  0  0  0  0  0  0  0  0
  160.3630  210.1690  153.6450 C   0  0  0  0  0  0  0  0  0  0  0  0
  160.9990  207.6490  154.5780 N   0  0  0  0  0  0  0  0  0  0  0  0
  160.4570  208.5520  155.4390 C   0  0  0  0  0  0  0  0  0  0  0  0
  161.2190  207.9410  153.2640 C   0  0  0  0  0  0  0  0  0  0  0  0
  160.9090  209.2180  152.7830 C   0  0  0  0  0  3  0  0  0  0  0  0
  160.1230  209.8320  154.9820 C   0  0  0  0  0  3  0  0  0  0  0  0
  160.2390  208.1650  156.8400 C   0  0  0  0  0  3  0  0  0  0  0  0
  160.2660  206.9260  157.2090 N   0  0  0  0  0  2  0  0  0  0  0  0
  160.0320  211.5280  153.1250 C   0  0  0  0  0  2  0  0  0  0  0  0
  159.2650  213.6590  151.4080 O   0  0  0  0  0  0  0  0  0  0  0  0
  160.3470  211.6130  151.7040 N   0  0  0  0  0  2  0  0  0  0  0  0
  160.0140  212.7650  150.9250 C   0  0  0  0  0  0  0  0  0  0  0  0
  162.2870  212.4910  147.9320 C   0  0  0  0  0  0  0  0  0  0  0  0
  159.5930  214.3000  146.4760 O   0  0  0  0  0  0  0  0  0  0  0  0
  159.8360  213.5640  148.6090 N   0  0  0  0  0  0  0  0  0  0  0  0
  163.4900  211.9670  147.6010 F   0  0  0  0  0  0  0  0  0  0  0  0
  161.8020  212.3590  149.2360 C   0  0  0  0  0  3  0  0  0  0  0  0
  161.5280  213.1610  146.9720 C   0  0  0  0  0  2  0  0  0  0  0  0
  160.2890  213.6970  147.3330 C   0  0  0  0  0  0  0  0  0  0  0  0
  160.5560  212.9110  149.5650 C   0  0  0  0  0  0  0  0  0  0  0  0
  161.8290  205.5580  152.6830 O   0  0  0  0  0  0  0  0  0  0  0  0
  161.3640  204.5700  151.7750 C   0  0  0  0  0  2  0  0  0  0  0  0
  162.2050  206.1360  147.2410 C   0  0  0  0  0  0  0  0  0  0  0  0
  160.8830  205.2320  150.5000 C   0  0  2  0  0  3  0  0  0  0  0  0
  162.9890  203.3530  147.2540 O   0  0  0  0  0  1  0  0  0  0  0  0
  162.4140  205.8500  145.7900 C   0  0  0  0  0  2  0  0  0  0  0  0
  161.4240  205.0590  147.8840 C   0  0  2  0  0  3  0  0  0  0  0  0
  160.2210  204.2240  149.5850 C   0  0  1  0  0  3  0  0  0  0  0  0
  161.6550  204.6780  149.3250 C   0  0  2  0  0  3  0  0  0  0  0  0
  161.7400  204.4800  145.5830 C   0  0  1  0  0  3  0  0  0  0  0  0
  160.9920  202.0980  148.5420 O   0  0  0  0  0  0  0  0  0  0  0  0
  160.3140  202.6920  149.6510 C   0  0  0  0  0  2  0  0  0  0  0  0
  162.5470  207.1690  147.7940 O   0  0  0  0  0  0  0  0  0  0  0  0
  160.6650  202.7250  147.3030 C   0  0  1  0  0  3  0  0  0  0  0  0
  161.7010  203.8500  146.9920 C   0  0  1  0  0  0  0  0  0  0  0  0
  159.9410  203.8160  144.1280 O   0  0  0  0  0  0  0  0  0  0  0  0
  159.5910  205.7820  145.3090 N   0  0  0  0  0  1  0  0  0  0  0  0
  160.3900  204.6610  144.9480 C   0  0  0  0  0  0  0  0  0  0  0  0
  160.6160  201.6860  146.2260 C   0  0  0  0  0  0  0  0  0  0  0  0
  159.5490  201.6690  145.3380 O   0  0  0  0  0  0  0  0  0  0  0  0
  161.5270  200.8230  146.1260 O   0  0  0  0  0  1  0  0  0  0  0  0
  1  2  2  0  0  0  0
  2 23  1  0  0  0  0
  2  6  1  0  0  0  0
  3  8  1  0  0  0  0
  4  5  1  0  0  0  0
  5  9  1  0  0  0  0
  6  4  2  0  0  0  0
  7  6  1  0  0  0  0
  7  3  2  0  0  0  0
  8  5  2  0  0  0  0
  9 10  2  0  0  0  0
 11  3  1  0  0  0  0
 13 11  1  0  0  0  0
 14 12  2  0  0  0  0
 14 13  1  0  0  0  0
 15 19  2  0  0  0  0
 16 21  2  0  0  0  0
 17 22  2  0  0  0  0
 18 15  1  0  0  0  0
 19 22  1  0  0  0  0
 20 21  1  0  0  0  0
 20 15  1  0  0  0  0
 21 17  1  0  0  0  0
 22 14  1  0  0  0  0
 24 23  1  0  0  0  0
 25 35  2  0  0  0  0
 26 24  1  1  0  0  0
 28 25  1  0  0  0  0
 29 25  1  6  0  0  0
 29 31  1  0  0  0  0
 30 34  1  1  0  0  0
 30 26  1  0  0  0  0
 31 30  1  0  0  0  0
 31 26  1  0  0  0  0
 32 28  1  0  0  0  0
 32 37  1  0  0  0  0
 33 34  1  0  0  0  0
 36 33  1  0  0  0  0
 37 27  1  0  0  0  0
 37 36  1  0  0  0  0
 37 29  1  0  0  0  0
 38 40  2  0  0  0  0
 40 39  1  0  0  0  0
 40 32  1  0  0  0  0
 41 36  1  0  0  0  0
 42 41  2  0  0  0  0
 43 41  1  0  0  0  0
M  END
>  <MODEL>
2

>  <REMARK>
 VINA RESULT:      -8.0      3.470      9.987
  Name = 
  10 active torsions:
  status: ('A' for Active; 'I' for Inactive)
    1  A    between atoms: C_4  and  C_19
    2  A    between atoms: C_7  and  C_13
    3  A    between atoms: C_7  and  O_42
    4  A    between atoms: C_8  and  C_39
    5  A    between atoms: C_9  and  C_38
    6  A    between atoms: C_17  and  C_30
    7  A    between atoms: N_22  and  C_39
    8  A    between atoms: C_23  and  C_26
    9  A    between atoms: C_26  and  O_42
   10  A    between atoms: C_36  and  C_40
                            x       y       z     vdW  Elec       q    Type
                         _______ _______ _______ _____ _____    ______ ____

>  <TORSDO>
F 10

$$$$
=
 OpenBabel11072410093D

 43 47  0  0  1  0  0  0  0  0999 V2000
  162.4840  212.4580  148.6420 O   0  0  0  0  0  0  0  0  0  0  0  0
  161.6090  211.8370  149.3030 C   0  0  0  0  0  0  0  0  0  0  0  0
  162.1270  208.1220  148.8560 C   0  0  0  0  0  0  0  0  0  0  0  0
  161.8100  209.9680  150.8840 N   0  0  0  0  0  0  0  0  0  0  0  0
  161.9740  208.6570  151.2080 C   0  0  0  0  0  0  0  0  0  0  0  0
  161.8190  210.4040  149.5920 C   0  0  0  0  0  0  0  0  0  0  0  0
  161.9690  209.4750  148.5550 C   0  0  0  0  0  3  0  0  0  0  0  0
  162.1410  207.7090  150.1930 C   0  0  0  0  0  3  0  0  0  0  0  0
  161.9630  208.2610  152.6230 C   0  0  0  0  0  3  0  0  0  0  0  0
  160.8680  208.2420  153.3100 N   0  0  0  0  0  2  0  0  0  0  0  0
  162.2900  207.1380  147.7460 C   0  0  0  0  0  2  0  0  0  0  0  0
  161.2610  205.1020  146.0500 O   0  0  0  0  0  0  0  0  0  0  0  0
  161.8770  205.8110  148.1870 N   0  0  0  0  0  2  0  0  0  0  0  0
  161.4620  204.8040  147.2600 C   0  0  0  0  0  0  0  0  0  0  0  0
  161.1710  201.0470  147.2610 C   0  0  0  0  0  0  0  0  0  0  0  0
  160.8160  201.6770  150.7440 O   0  0  0  0  0  0  0  0  0  0  0  0
  161.1100  203.1530  149.0440 N   0  0  0  0  0  0  0  0  0  0  0  0
  161.1990  200.0150  146.3860 F   0  0  0  0  0  0  0  0  0  0  0  0
  161.3200  202.3570  146.8010 C   0  0  0  0  0  2  0  0  0  0  0  0
  160.9970  200.8030  148.6240 C   0  0  0  0  0  3  0  0  0  0  0  0
  160.9690  201.8820  149.5120 C   0  0  0  0  0  0  0  0  0  0  0  0
  161.2840  203.4170  147.7180 C   0  0  0  0  0  0  0  0  0  0  0  0
  160.4820  212.5430  149.7450 O   0  0  0  0  0  0  0  0  0  0  0  0
  160.3820  213.1050  151.0460 C   0  0  0  0  0  2  0  0  0  0  0  0
  159.1210  211.7240  155.5420 C   0  0  0  0  0  0  0  0  0  0  0  0
  159.7200  212.1150  151.9830 C   0  0  2  0  0  3  0  0  0  0  0  0
  158.0610  214.3960  155.2300 O   0  0  0  0  0  1  0  0  0  0  0  0
  158.2480  211.8700  156.7440 C   0  0  0  0  0  2  0  0  0  0  0  0
  158.4320  212.2040  154.3270 C   0  0  2  0  0  3  0  0  0  0  0  0
  158.2360  212.3920  152.0990 C   0  0  1  0  0  3  0  0  0  0  0  0
  159.1950  212.8470  153.1960 C   0  0  2  0  0  3  0  0  0  0  0  0
  156.9670  212.5250  156.1930 C   0  0  1  0  0  3  0  0  0  0  0  0
  156.9190  214.3860  152.7980 O   0  0  0  0  0  0  0  0  0  0  0  0
  157.4840  213.6700  151.6980 C   0  0  0  0  0  2  0  0  0  0  0  0
  160.2180  211.1870  155.5510 O   0  0  0  0  0  0  0  0  0  0  0  0
  156.3510  213.5200  153.7790 C   0  0  1  0  0  3  0  0  0  0  0  0
  157.4130  213.2000  154.8780 C   0  0  1  0  0  0  0  0  0  0  0  0
  155.7470  210.8750  154.9340 O   0  0  0  0  0  0  0  0  0  0  0  0
  155.0450  211.1740  157.1250 N   0  0  0  0  0  1  0  0  0  0  0  0
  155.8890  211.4900  156.0240 C   0  0  0  0  0  0  0  0  0  0  0  0
  155.1230  214.1610  154.3470 C   0  0  0  0  0  0  0  0  0  0  0  0
  154.0510  214.4480  153.5140 O   0  0  0  0  0  0  0  0  0  0  0  0
  155.0600  214.4520  155.5700 O   0  0  0  0  0  1  0  0  0  0  0  0
  1  2  2  0  0  0  0
  2  6  1  0  0  0  0
  2 23  1  0  0  0  0
  3  8  1  0  0  0  0
  4  5  1  0  0  0  0
  5  9  1  0  0  0  0
  6  4  2  0  0  0  0
  7  3  2  0  0  0  0
  7  6  1  0  0  0  0
  8  5  2  0  0  0  0
  9 10  2  0  0  0  0
 11 13  1  0  0  0  0
 11  3  1  0  0  0  0
 12 14  2  0  0  0  0
 14 22  1  0  0  0  0
 14 13  1  0  0  0  0
 15 20  2  0  0  0  0
 17 21  1  0  0  0  0
 18 15  1  0  0  0  0
 19 15  1  0  0  0  0
 19 22  1  0  0  0  0
 20 21  1  0  0  0  0
 21 16  2  0  0  0  0
 22 17  2  0  0  0  0
 23 24  1  0  0  0  0
 25 35  2  0  0  0  0
 25 28  1  0  0  0  0
 26 24  1  6  0  0  0
 26 30  1  0  0  0  0
 26 31  1  0  0  0  0
 29 37  1  0  0  0  0
 29 25  1  1  0  0  0
 30 34  1  6  0  0  0
 30 31  1  0  0  0  0
 31 29  1  0  0  0  0
 32 28  1  0  0  0  0
 33 36  1  0  0  0  0
 34 33  1  0  0  0  0
 36 41  1  0  0  0  0
 36 37  1  0  0  0  0
 37 27  1  0  0  0  0
 37 32  1  0  0  0  0
 38 40  2  0  0  0  0
 40 32  1  0  0  0  0
 40 39  1  0  0  0  0
 41 43  1  0  0  0  0
 42 41  2  0  0  0  0
M  END
>  <MODEL>
3

>  <REMARK>
 VINA RESULT:      -7.9      1.772      2.871
  Name = 
  10 active torsions:
  status: ('A' for Active; 'I' for Inactive)
    1  A    between atoms: C_4  and  C_19
    2  A    between atoms: C_7  and  C_13
    3  A    between atoms: C_7  and  O_42
    4  A    between atoms: C_8  and  C_39
    5  A    between atoms: C_9  and  C_38
    6  A    between atoms: C_17  and  C_30
    7  A    between atoms: N_22  and  C_39
    8  A    between atoms: C_23  and  C_26
    9  A    between atoms: C_26  and  O_42
   10  A    between atoms: C_36  and  C_40
                            x       y       z     vdW  Elec       q    Type
                         _______ _______ _______ _____ _____    ______ ____

>  <TORSDO>
F 10

$$$$
=
 OpenBabel11072410093D

 43 47  0  0  1  0  0  0  0  0999 V2000
  160.1260  203.9900  150.7780 O   0  0  0  0  0  0  0  0  0  0  0  0
  161.1230  204.7610  150.7820 C   0  0  0  0  0  0  0  0  0  0  0  0
  162.1770  207.5580  148.4720 C   0  0  0  0  0  0  0  0  0  0  0  0
  161.1610  204.9940  148.3370 N   0  0  0  0  0  0  0  0  0  0  0  0
  161.3990  205.6690  147.1800 C   0  0  0  0  0  0  0  0  0  0  0  0
  161.4290  205.5340  149.5610 C   0  0  0  0  0  0  0  0  0  0  0  0
  161.9350  206.8370  149.6410 C   0  0  0  0  0  3  0  0  0  0  0  0
  161.9190  206.9680  147.2300 C   0  0  0  0  0  3  0  0  0  0  0  0
  161.0960  205.0210  145.8970 C   0  0  0  0  0  3  0  0  0  0  0  0
  161.4880  203.8150  145.6410 N   0  0  0  0  0  2  0  0  0  0  0  0
  162.7200  208.9460  148.5640 C   0  0  0  0  0  2  0  0  0  0  0  0
  163.0540  211.7440  148.2020 O   0  0  0  0  0  0  0  0  0  0  0  0
  161.6340  209.9150  148.4960 N   0  0  0  0  0  2  0  0  0  0  0  0
  161.8740  211.2960  148.2120 C   0  0  0  0  0  0  0  0  0  0  0  0
  159.1110  213.0840  146.3740 C   0  0  0  0  0  0  0  0  0  0  0  0
  158.6530  214.4520  149.6250 O   0  0  0  0  0  0  0  0  0  0  0  0
  160.1970  212.9510  148.9090 N   0  0  0  0  0  0  0  0  0  0  0  0
  158.5810  213.1500  145.1310 F   0  0  0  0  0  0  0  0  0  0  0  0
  160.2000  212.2450  146.6250 C   0  0  0  0  0  2  0  0  0  0  0  0
  158.5700  213.8510  147.4070 C   0  0  0  0  0  3  0  0  0  0  0  0
  159.1330  213.7700  148.6840 C   0  0  0  0  0  0  0  0  0  0  0  0
  160.7420  212.1900  147.9170 C   0  0  0  0  0  0  0  0  0  0  0  0
  161.8860  204.8590  151.9530 O   0  0  0  0  0  0  0  0  0  0  0  0
  162.3660  206.0950  152.4630 C   0  0  0  0  0  2  0  0  0  0  0  0
  161.5380  209.0090  156.2750 C   0  0  0  0  0  0  0  0  0  0  0  0
  161.4700  206.5670  153.5890 C   0  0  2  0  0  3  0  0  0  0  0  0
  162.2130  210.7750  154.0870 O   0  0  0  0  0  1  0  0  0  0  0  0
  161.2000  210.3550  156.8270 C   0  0  0  0  0  2  0  0  0  0  0  0
  161.0210  208.8570  154.9000 C   0  0  2  0  0  3  0  0  0  0  0  0
  160.4990  207.6210  153.1010 C   0  0  1  0  0  3  0  0  0  0  0  0
  161.7510  208.0240  153.8770 C   0  0  2  0  0  3  0  0  0  0  0  0
  160.4670  211.0560  155.6670 C   0  0  1  0  0  3  0  0  0  0  0  0
  160.7930  209.8380  152.0070 O   0  0  0  0  0  0  0  0  0  0  0  0
  160.5770  208.4410  151.8040 C   0  0  0  0  0  2  0  0  0  0  0  0
  162.0800  208.1210  156.9150 O   0  0  0  0  0  0  0  0  0  0  0  0
  160.0520  210.3510  153.1130 C   0  0  1  0  0  3  0  0  0  0  0  0
  160.9290  210.2990  154.4040 C   0  0  1  0  0  0  0  0  0  0  0  0
  158.3280  209.9560  155.7690 O   0  0  0  0  0  0  0  0  0  0  0  0
  158.3140  212.2100  156.3160 N   0  0  0  0  0  1  0  0  0  0  0  0
  158.9820  211.0240  155.9010 C   0  0  0  0  0  0  0  0  0  0  0  0
  159.5930  211.7400  152.7950 C   0  0  0  0  0  0  0  0  0  0  0  0
  158.2620  212.0830  152.9870 O   0  0  0  0  0  1  0  0  0  0  0  0
  160.4000  212.5940  152.3450 O   0  0  0  0  0  0  0  0  0  0  0  0
  1  2  2  0  0  0  0
  2 23  1  0  0  0  0
  3 11  1  0  0  0  0
  3  7  1  0  0  0  0
  4  6  1  0  0  0  0
  5  8  1  0  0  0  0
  5  4  2  0  0  0  0
  6  7  2  0  0  0  0
  6  2  1  0  0  0  0
  8  3  2  0  0  0  0
  9  5  1  0  0  0  0
 10  9  2  0  0  0  0
 12 14  2  0  0  0  0
 13 11  1  0  0  0  0
 14 13  1  0  0  0  0
 15 19  1  0  0  0  0
 15 20  2  0  0  0  0
 18 15  1  0  0  0  0
 19 22  1  0  0  0  0
 20 21  1  0  0  0  0
 21 17  1  0  0  0  0
 21 16  2  0  0  0  0
 22 14  1  0  0  0  0
 22 17  2  0  0  0  0
 23 24  1  0  0  0  0
 25 28  1  0  0  0  0
 25 35  2  0  0  0  0
 26 24  1  6  0  0  0
 26 31  1  0  0  0  0
 27 37  1  0  0  0  0
 29 25  1  1  0  0  0
 30 34  1  6  0  0  0
 30 26  1  0  0  0  0
 30 31  1  0  0  0  0
 31 29  1  0  0  0  0
 32 40  1  0  0  0  0
 32 28  1  0  0  0  0
 33 36  1  0  0  0  0
 34 33  1  0  0  0  0
 36 37  1  0  0  0  0
 37 29  1  0  0  0  0
 37 32  1  0  0  0  0
 38 40  2  0  0  0  0
 40 39  1  0  0  0  0
 41 42  1  0  0  0  0
 41 36  1  0  0  0  0
 43 41  2  0  0  0  0
M  END
>  <MODEL>
4

>  <REMARK>
 VINA RESULT:      -7.8      3.418      6.625
  Name = 
  10 active torsions:
  status: ('A' for Active; 'I' for Inactive)
    1  A    between atoms: C_4  and  C_19
    2  A    between atoms: C_7  and  C_13
    3  A    between atoms: C_7  and  O_42
    4  A    between atoms: C_8  and  C_39
    5  A    between atoms: C_9  and  C_38
    6  A    between atoms: C_17  and  C_30
    7  A    between atoms: N_22  and  C_39
    8  A    between atoms: C_23  and  C_26
    9  A    between atoms: C_26  and  O_42
   10  A    between atoms: C_36  and  C_40
                            x       y       z     vdW  Elec       q    Type
                         _______ _______ _______ _____ _____    ______ ____

>  <TORSDO>
F 10

$$$$
=
 OpenBabel11072410093D

 43 47  0  0  1  0  0  0  0  0999 V2000
  162.5660  212.3400  148.3690 O   0  0  0  0  0  0  0  0  0  0  0  0
  161.7210  211.7400  149.0860 C   0  0  0  0  0  0  0  0  0  0  0  0
  162.2730  208.0430  148.5410 C   0  0  0  0  0  0  0  0  0  0  0  0
  161.7600  209.8070  150.6020 N   0  0  0  0  0  0  0  0  0  0  0  0
  161.8880  208.4830  150.8860 C   0  0  0  0  0  0  0  0  0  0  0  0
  161.8990  210.2940  149.3350 C   0  0  0  0  0  0  0  0  0  0  0  0
  162.1490  209.4070  148.2820 C   0  0  0  0  0  3  0  0  0  0  0  0
  162.1540  207.5760  149.8550 C   0  0  0  0  0  3  0  0  0  0  0  0
  161.7360  208.0310  152.2760 C   0  0  0  0  0  3  0  0  0  0  0  0
  161.4440  206.8030  152.5580 N   0  0  0  0  0  2  0  0  0  0  0  0
  162.5440  207.1030  147.4140 C   0  0  0  0  0  2  0  0  0  0  0  0
  162.9750  204.7120  145.9380 O   0  0  0  0  0  0  0  0  0  0  0  0
  161.8250  205.8520  147.6200 N   0  0  0  0  0  2  0  0  0  0  0  0
  162.1660  204.6600  146.9060 C   0  0  0  0  0  0  0  0  0  0  0  0
  160.6330  201.9270  149.0000 C   0  0  0  0  0  0  0  0  0  0  0  0
  160.6330  200.3230  145.8260 O   0  0  0  0  0  0  0  0  0  0  0  0
  161.3760  202.3940  146.3830 N   0  0  0  0  0  0  0  0  0  0  0  0
  160.2720  201.6990  150.2840 F   0  0  0  0  0  0  0  0  0  0  0  0
  161.2080  203.1500  148.6430 C   0  0  0  0  0  3  0  0  0  0  0  0
  160.4310  200.9440  148.0310 C   0  0  0  0  0  2  0  0  0  0  0  0
  160.8130  201.1980  146.7100 C   0  0  0  0  0  0  0  0  0  0  0  0
  161.5820  203.3720  147.3110 C   0  0  0  0  0  0  0  0  0  0  0  0
  160.6590  212.4780  149.6240 O   0  0  0  0  0  0  0  0  0  0  0  0
  160.6790  213.0190  150.9370 C   0  0  0  0  0  2  0  0  0  0  0  0
  159.5360  211.7070  155.4850 C   0  0  0  0  0  0  0  0  0  0  0  0
  160.0640  212.0320  151.9080 C   0  0  2  0  0  3  0  0  0  0  0  0
  158.3880  214.3370  155.1290 O   0  0  0  0  0  1  0  0  0  0  0  0
  158.6780  211.8550  156.6980 C   0  0  0  0  0  2  0  0  0  0  0  0
  158.8120  212.1360  154.2710 C   0  0  2  0  0  3  0  0  0  0  0  0
  158.5740  212.2640  152.0430 C   0  0  1  0  0  3  0  0  0  0  0  0
  159.5360  212.7750  153.1130 C   0  0  2  0  0  3  0  0  0  0  0  0
  157.3680  212.4560  156.1530 C   0  0  1  0  0  3  0  0  0  0  0  0
  157.2070  214.2330  152.7170 O   0  0  0  0  0  0  0  0  0  0  0  0
  157.7760  213.5090  151.6250 C   0  0  0  0  0  2  0  0  0  0  0  0
  160.6490  211.2050  155.4880 O   0  0  0  0  0  0  0  0  0  0  0  0
  156.6820  213.3740  153.7280 C   0  0  1  0  0  3  0  0  0  0  0  0
  157.7710  213.1130  154.8160 C   0  0  1  0  0  0  0  0  0  0  0  0
  156.4710  210.4240  155.2270 O   0  0  0  0  0  0  0  0  0  0  0  0
  155.1640  211.4380  156.8530 N   0  0  0  0  0  1  0  0  0  0  0  0
  156.3210  211.3850  156.0270 C   0  0  0  0  0  0  0  0  0  0  0  0
  155.4440  213.9900  154.3020 C   0  0  0  0  0  0  0  0  0  0  0  0
  154.2920  214.0610  153.5310 O   0  0  0  0  0  0  0  0  0  0  0  0
  155.4430  214.4530  155.4720 O   0  0  0  0  0  1  0  0  0  0  0  0
  1  2  2  0  0  0  0
  2  6  1  0  0  0  0
  2 23  1  0  0  0  0
  3  8  1  0  0  0  0
  4  5  1  0  0  0  0
  5  9  1  0  0  0  0
  6  4  2  0  0  0  0
  7  3  2  0  0  0  0
  7  6  1  0  0  0  0
  8  5  2  0  0  0  0
  9 10  2  0  0  0  0
 11 13  1  0  0  0  0
 11  3  1  0  0  0  0
 12 14  2  0  0  0  0
 14 22  1  0  0  0  0
 14 13  1  0  0  0  0
 15 18  1  0  0  0  0
 16 21  2  0  0  0  0
 17 21  1  0  0  0  0
 17 22  2  0  0  0  0
 19 15  2  0  0  0  0
 20 15  1  0  0  0  0
 21 20  1  0  0  0  0
 22 19  1  0  0  0  0
 23 24  1  0  0  0  0
 25 35  2  0  0  0  0
 25 28  1  0  0  0  0
 26 24  1  6  0  0  0
 26 30  1  0  0  0  0
 26 31  1  0  0  0  0
 29 37  1  0  0  0  0
 29 25  1  1  0  0  0
 30 34  1  6  0  0  0
 30 31  1  0  0  0  0
 31 29  1  0  0  0  0
 32 28  1  0  0  0  0
 33 36  1  0  0  0  0
 34 33  1  0  0  0  0
 36 41  1  0  0  0  0
 36 37  1  0  0  0  0
 37 27  1  0  0  0  0
 37 32  1  0  0  0  0
 38 40  2  0  0  0  0
 40 32  1  0  0  0  0
 40 39  1  0  0  0  0
 41 43  1  0  0  0  0
 42 41  2  0  0  0  0
M  END
>  <MODEL>
5

>  <REMARK>
 VINA RESULT:      -7.5      2.103      3.014
  Name = 
  10 active torsions:
  status: ('A' for Active; 'I' for Inactive)
    1  A    between atoms: C_4  and  C_19
    2  A    between atoms: C_7  and  C_13
    3  A    between atoms: C_7  and  O_42
    4  A    between atoms: C_8  and  C_39
    5  A    between atoms: C_9  and  C_38
    6  A    between atoms: C_17  and  C_30
    7  A    between atoms: N_22  and  C_39
    8  A    between atoms: C_23  and  C_26
    9  A    between atoms: C_26  and  O_42
   10  A    between atoms: C_36  and  C_40
                            x       y       z     vdW  Elec       q    Type
                         _______ _______ _______ _____ _____    ______ ____

>  <TORSDO>
F 10

$$$$
=
 OpenBabel11072410093D

 43 47  0  0  1  0  0  0  0  0999 V2000
  160.5560  207.1490  156.1480 O   0  0  0  0  0  0  0  0  0  0  0  0
  161.3970  207.5260  155.2880 C   0  0  0  0  0  0  0  0  0  0  0  0
  161.1020  207.3300  151.5280 C   0  0  0  0  0  0  0  0  0  0  0  0
  161.2000  205.6490  153.7160 N   0  0  0  0  0  0  0  0  0  0  0  0
  161.0780  205.1060  152.4740 C   0  0  0  0  0  0  0  0  0  0  0  0
  161.2960  206.9950  153.9130 C   0  0  0  0  0  0  0  0  0  0  0  0
  161.2380  207.8570  152.8120 C   0  0  0  0  0  3  0  0  0  0  0  0
  161.0330  205.9430  151.3540 C   0  0  0  0  0  3  0  0  0  0  0  0
  160.9900  203.6460  152.3370 C   0  0  0  0  0  3  0  0  0  0  0  0
  160.7340  203.0900  151.1970 N   0  0  0  0  0  2  0  0  0  0  0  0
  161.0440  208.2540  150.3570 C   0  0  0  0  0  2  0  0  0  0  0  0
  163.1890  206.8240  149.1610 O   0  0  0  0  0  0  0  0  0  0  0  0
  160.9530  207.4900  149.1190 N   0  0  0  0  0  2  0  0  0  0  0  0
  162.0500  206.7140  148.6300 C   0  0  0  0  0  0  0  0  0  0  0  0
  161.4980  203.5310  146.6880 C   0  0  0  0  0  0  0  0  0  0  0  0
  161.4340  205.8800  144.0190 O   0  0  0  0  0  0  0  0  0  0  0  0
  161.7440  206.2430  146.2380 N   0  0  0  0  0  0  0  0  0  0  0  0
  161.3800  202.2010  146.9100 F   0  0  0  0  0  0  0  0  0  0  0  0
  161.7180  204.4000  147.7600 C   0  0  0  0  0  3  0  0  0  0  0  0
  161.3990  204.0350  145.3910 C   0  0  0  0  0  2  0  0  0  0  0  0
  161.5260  205.4120  145.1830 C   0  0  0  0  0  0  0  0  0  0  0  0
  161.8430  205.7750  147.5160 C   0  0  0  0  0  0  0  0  0  0  0  0
  162.3820  208.4440  155.6770 O   0  0  0  0  0  0  0  0  0  0  0  0
  162.1120  209.5640  156.5070 C   0  0  0  0  0  2  0  0  0  0  0  0
  160.2160  211.5780  152.5000 C   0  0  0  0  0  0  0  0  0  0  0  0
  161.8360  210.7820  155.6500 C   0  0  2  0  0  3  0  0  0  0  0  0
  158.0450  210.1170  153.7290 O   0  0  0  0  0  1  0  0  0  0  0  0
  159.0290  212.0410  151.7200 C   0  0  0  0  0  2  0  0  0  0  0  0
  159.9320  211.5840  153.9490 C   0  0  2  0  0  3  0  0  0  0  0  0
  160.5710  211.4820  156.0980 C   0  0  1  0  0  3  0  0  0  0  0  0
  160.5570  210.5700  154.8740 C   0  0  2  0  0  3  0  0  0  0  0  0
  157.9570  212.2960  152.7970 C   0  0  1  0  0  3  0  0  0  0  0  0
  158.2040  210.7470  156.3370 O   0  0  0  0  0  0  0  0  0  0  0  0
  159.4570  210.9260  156.9990 C   0  0  0  0  0  2  0  0  0  0  0  0
  161.3050  211.3260  152.0070 O   0  0  0  0  0  0  0  0  0  0  0  0
  157.9060  211.8110  155.4350 C   0  0  1  0  0  3  0  0  0  0  0  0
  158.4100  211.4460  154.0040 C   0  0  1  0  0  0  0  0  0  0  0  0
  158.8650  214.4420  153.4000 O   0  0  0  0  0  0  0  0  0  0  0  0
  156.5900  214.4160  152.9500 N   0  0  0  0  0  1  0  0  0  0  0  0
  157.8500  213.7680  153.0820 C   0  0  0  0  0  0  0  0  0  0  0  0
  156.4330  212.0810  155.4650 C   0  0  0  0  0  0  0  0  0  0  0  0
  155.9520  213.1830  156.1570 O   0  0  0  0  0  1  0  0  0  0  0  0
  155.6290  211.3120  154.8770 O   0  0  0  0  0  0  0  0  0  0  0  0
  2 23  1  0  0  0  0
  2  1  2  0  0  0  0
  3  7  1  0  0  0  0
  4  6  1  0  0  0  0
  5  4  2  0  0  0  0
  6  2  1  0  0  0  0
  7  6  2  0  0  0  0
  8  3  2  0  0  0  0
  8  5  1  0  0  0  0
  9  5  1  0  0  0  0
 10  9  2  0  0  0  0
 11  3  1  0  0  0  0
 13 11  1  0  0  0  0
 14 13  1  0  0  0  0
 14 12  2  0  0  0  0
 15 18  1  0  0  0  0
 15 19  2  0  0  0  0
 16 21  2  0  0  0  0
 17 22  2  0  0  0  0
 20 15  1  0  0  0  0
 21 20  1  0  0  0  0
 21 17  1  0  0  0  0
 22 19  1  0  0  0  0
 22 14  1  0  0  0  0
 23 24  1  0  0  0  0
 26 30  1  0  0  0  0
 26 24  1  1  0  0  0
 27 37  1  0  0  0  0
 28 25  1  0  0  0  0
 28 32  1  0  0  0  0
 29 25  1  6  0  0  0
 29 37  1  0  0  0  0
 29 31  1  0  0  0  0
 30 34  1  1  0  0  0
 31 26  1  0  0  0  0
 31 30  1  0  0  0  0
 32 40  1  0  0  0  0
 32 37  1  0  0  0  0
 33 34  1  0  0  0  0
 35 25  2  0  0  0  0
 36 41  1  0  0  0  0
 36 33  1  0  0  0  0
 37 36  1  0  0  0  0
 39 40  1  0  0  0  0
 40 38  2  0  0  0  0
 41 42  1  0  0  0  0
 43 41  2  0  0  0  0
M  END
>  <MODEL>
6

>  <REMARK>
 VINA RESULT:      -7.4      1.972      3.762
  Name = 
  10 active torsions:
  status: ('A' for Active; 'I' for Inactive)
    1  A    between atoms: C_4  and  C_19
    2  A    between atoms: C_7  and  C_13
    3  A    between atoms: C_7  and  O_42
    4  A    between atoms: C_8  and  C_39
    5  A    between atoms: C_9  and  C_38
    6  A    between atoms: C_17  and  C_30
    7  A    between atoms: N_22  and  C_39
    8  A    between atoms: C_23  and  C_26
    9  A    between atoms: C_26  and  O_42
   10  A    between atoms: C_36  and  C_40
                            x       y       z     vdW  Elec       q    Type
                         _______ _______ _______ _____ _____    ______ ____

>  <TORSDO>
F 10

$$$$
=
 OpenBabel11072410093D

 43 47  0  0  1  0  0  0  0  0999 V2000
  161.2010  206.9420  155.7110 O   0  0  0  0  0  0  0  0  0  0  0  0
  161.0910  207.7190  154.7260 C   0  0  0  0  0  0  0  0  0  0  0  0
  161.4970  205.3380  151.8220 C   0  0  0  0  0  0  0  0  0  0  0  0
  161.7300  208.0330  152.3750 N   0  0  0  0  0  0  0  0  0  0  0  0
  161.9930  207.5950  151.1140 C   0  0  0  0  0  0  0  0  0  0  0  0
  161.3350  207.1870  153.3690 C   0  0  0  0  0  0  0  0  0  0  0  0
  161.2230  205.8180  153.1020 C   0  0  0  0  0  3  0  0  0  0  0  0
  161.8740  206.2330  150.8150 C   0  0  0  0  0  3  0  0  0  0  0  0
  162.4050  208.5650  150.0900 C   0  0  0  0  0  3  0  0  0  0  0  0
  161.9930  208.4720  148.8680 N   0  0  0  0  0  2  0  0  0  0  0  0
  161.3720  203.8770  151.5430 C   0  0  0  0  0  2  0  0  0  0  0  0
  159.9790  201.9680  149.9650 O   0  0  0  0  0  0  0  0  0  0  0  0
  161.6280  203.6120  150.1330 N   0  0  0  0  0  2  0  0  0  0  0  0
  160.8180  202.7060  149.3780 C   0  0  0  0  0  0  0  0  0  0  0  0
  160.5240  201.5600  145.8000 C   0  0  0  0  0  0  0  0  0  0  0  0
  162.3310  204.5840  145.3140 O   0  0  0  0  0  0  0  0  0  0  0  0
  161.6060  203.6450  147.2490 N   0  0  0  0  0  0  0  0  0  0  0  0
  159.9960  200.5350  145.0900 F   0  0  0  0  0  0  0  0  0  0  0  0
  160.4000  201.5820  147.1910 C   0  0  0  0  0  3  0  0  0  0  0  0
  161.1910  202.5940  145.1430 C   0  0  0  0  0  2  0  0  0  0  0  0
  161.7320  203.6430  145.8940 C   0  0  0  0  0  0  0  0  0  0  0  0
  160.9570  202.6470  147.9140 C   0  0  0  0  0  0  0  0  0  0  0  0
  160.7280  209.0510  154.9650 O   0  0  0  0  0  0  0  0  0  0  0  0
  161.6710  210.0680  155.2720 C   0  0  0  0  0  2  0  0  0  0  0  0
  158.5210  213.2500  153.3580 C   0  0  0  0  0  0  0  0  0  0  0  0
  160.9810  211.4160  155.2990 C   0  0  2  0  0  3  0  0  0  0  0  0
  157.0150  210.8130  153.7460 O   0  0  0  0  0  1  0  0  0  0  0  0
  157.1160  213.6930  153.1110 C   0  0  0  0  0  2  0  0  0  0  0  0
  158.6050  212.4100  154.5700 C   0  0  2  0  0  3  0  0  0  0  0  0
  159.7610  211.3790  156.1940 C   0  0  1  0  0  3  0  0  0  0  0  0
  159.6090  211.2900  154.6780 C   0  0  2  0  0  3  0  0  0  0  0  0
  156.3140  213.0230  154.2430 C   0  0  1  0  0  3  0  0  0  0  0  0
  157.6960  209.9880  156.2120 O   0  0  0  0  0  0  0  0  0  0  0  0
  159.0200  210.1410  156.7240 C   0  0  0  0  0  2  0  0  0  0  0  0
  159.4830  213.6190  152.7010 O   0  0  0  0  0  0  0  0  0  0  0  0
  157.0000  211.2300  156.1170 C   0  0  1  0  0  3  0  0  0  0  0  0
  157.1940  211.8360  154.6920 C   0  0  1  0  0  0  0  0  0  0  0  0
  154.8510  214.4530  155.5120 O   0  0  0  0  0  0  0  0  0  0  0  0
  157.0710  214.4530  156.1850 N   0  0  0  0  0  1  0  0  0  0  0  0
  156.0200  214.0210  155.3280 C   0  0  0  0  0  0  0  0  0  0  0  0
  155.5560  211.0100  156.4480 C   0  0  0  0  0  0  0  0  0  0  0  0
  154.8640  209.9710  155.8420 O   0  0  0  0  0  0  0  0  0  0  0  0
  154.9630  211.7660  157.2610 O   0  0  0  0  0  1  0  0  0  0  0  0
  2 23  1  0  0  0  0
  2  1  2  0  0  0  0
  3  7  1  0  0  0  0
  4  6  1  0  0  0  0
  5  4  2  0  0  0  0
  6  2  1  0  0  0  0
  7  6  2  0  0  0  0
  8  5  1  0  0  0  0
  8  3  2  0  0  0  0
  9  5  1  0  0  0  0
 10  9  2  0  0  0  0
 11  3  1  0  0  0  0
 13 11  1  0  0  0  0
 14 12  2  0  0  0  0
 14 13  1  0  0  0  0
 15 19  2  0  0  0  0
 16 21  2  0  0  0  0
 17 22  2  0  0  0  0
 18 15  1  0  0  0  0
 19 22  1  0  0  0  0
 20 15  1  0  0  0  0
 20 21  1  0  0  0  0
 21 17  1  0  0  0  0
 22 14  1  0  0  0  0
 23 24  1  0  0  0  0
 26 24  1  1  0  0  0
 26 30  1  0  0  0  0
 27 37  1  0  0  0  0
 28 25  1  0  0  0  0
 28 32  1  0  0  0  0
 29 25  1  6  0  0  0
 29 31  1  0  0  0  0
 29 37  1  0  0  0  0
 30 34  1  1  0  0  0
 31 26  1  0  0  0  0
 31 30  1  0  0  0  0
 32 37  1  0  0  0  0
 32 40  1  0  0  0  0
 33 34  1  0  0  0  0
 35 25  2  0  0  0  0
 36 33  1  0  0  0  0
 36 41  1  0  0  0  0
 37 36  1  0  0  0  0
 40 38  2  0  0  0  0
 40 39  1  0  0  0  0
 41 43  1  0  0  0  0
 42 41  2  0  0  0  0
M  END
>  <MODEL>
7

>  <REMARK>
 VINA RESULT:      -7.3      1.819      3.263
  Name = 
  10 active torsions:
  status: ('A' for Active; 'I' for Inactive)
    1  A    between atoms: C_4  and  C_19
    2  A    between atoms: C_7  and  C_13
    3  A    between atoms: C_7  and  O_42
    4  A    between atoms: C_8  and  C_39
    5  A    between atoms: C_9  and  C_38
    6  A    between atoms: C_17  and  C_30
    7  A    between atoms: N_22  and  C_39
    8  A    between atoms: C_23  and  C_26
    9  A    between atoms: C_26  and  O_42
   10  A    between atoms: C_36  and  C_40
                            x       y       z     vdW  Elec       q    Type
                         _______ _______ _______ _____ _____    ______ ____

>  <TORSDO>
F 10

$$$$
=
 OpenBabel11072410093D

 43 47  0  0  1  0  0  0  0  0999 V2000
  161.6240  206.4560  152.5070 O   0  0  0  0  0  0  0  0  0  0  0  0
  161.0850  207.5460  152.1760 C   0  0  0  0  0  0  0  0  0  0  0  0
  160.2270  210.7630  153.9600 C   0  0  0  0  0  0  0  0  0  0  0  0
  160.6520  208.0950  154.5310 N   0  0  0  0  0  0  0  0  0  0  0  0
  160.3520  208.9460  155.5500 C   0  0  0  0  0  0  0  0  0  0  0  0
  160.7280  208.5130  153.2350 C   0  0  0  0  0  0  0  0  0  0  0  0
  160.5240  209.8650  152.9360 C   0  0  0  0  0  3  0  0  0  0  0  0
  160.1280  210.3000  155.2770 C   0  0  0  0  0  3  0  0  0  0  0  0
  160.2770  208.4240  156.9210 C   0  0  0  0  0  3  0  0  0  0  0  0
  160.2140  207.1540  157.1570 N   0  0  0  0  0  2  0  0  0  0  0  0
  160.0060  212.2030  153.6340 C   0  0  0  0  0  2  0  0  0  0  0  0
  158.2380  214.3800  153.1740 O   0  0  0  0  0  0  0  0  0  0  0  0
  159.1130  212.3270  152.4890 N   0  0  0  0  0  2  0  0  0  0  0  0
  158.3240  213.5000  152.2730 C   0  0  0  0  0  0  0  0  0  0  0  0
  155.6120  214.1660  149.7420 C   0  0  0  0  0  0  0  0  0  0  0  0
  158.3780  213.7170  147.5520 O   0  0  0  0  0  0  0  0  0  0  0  0
  158.3130  213.6020  149.8190 N   0  0  0  0  0  0  0  0  0  0  0  0
  154.2870  214.4410  149.7060 F   0  0  0  0  0  0  0  0  0  0  0  0
  156.2510  213.9720  150.9690 C   0  0  0  0  0  3  0  0  0  0  0  0
  156.3410  214.0790  148.5560 C   0  0  0  0  0  2  0  0  0  0  0  0
  157.7080  213.7940  148.6140 C   0  0  0  0  0  0  0  0  0  0  0  0
  157.6230  213.6840  150.9920 C   0  0  0  0  0  0  0  0  0  0  0  0
  160.8620  207.7940  150.8160 O   0  0  0  0  0  0  0  0  0  0  0  0
  161.8820  207.6880  149.8320 C   0  0  0  0  0  2  0  0  0  0  0  0
  162.2810  205.2530  145.6340 C   0  0  0  0  0  0  0  0  0  0  0  0
  161.2840  207.2110  148.5240 C   0  0  2  0  0  3  0  0  0  0  0  0
  163.0190  203.3640  147.6950 O   0  0  0  0  0  1  0  0  0  0  0  0
  162.3370  203.9610  144.8870 C   0  0  0  0  0  2  0  0  0  0  0  0
  161.5530  205.0940  146.9090 C   0  0  2  0  0  3  0  0  0  0  0  0
  160.5170  205.9210  148.7200 C   0  0  1  0  0  3  0  0  0  0  0  0
  161.9240  205.9000  148.1280 C   0  0  2  0  0  3  0  0  0  0  0  0
  161.6240  202.9640  145.8190 C   0  0  1  0  0  3  0  0  0  0  0  0
  161.1430  203.6760  149.5950 O   0  0  0  0  0  0  0  0  0  0  0  0
  160.5910  204.9550  149.9120 C   0  0  0  0  0  2  0  0  0  0  0  0
  162.6950  206.3170  145.1990 O   0  0  0  0  0  0  0  0  0  0  0  0
  160.7020  203.1900  148.3280 C   0  0  1  0  0  3  0  0  0  0  0  0
  161.7190  203.6070  147.2190 C   0  0  1  0  0  0  0  0  0  0  0  0
  159.5110  203.6730  144.9080 O   0  0  0  0  0  0  0  0  0  0  0  0
  159.6960  201.4010  145.3410 N   0  0  0  0  0  1  0  0  0  0  0  0
  160.2190  202.7250  145.3410 C   0  0  0  0  0  0  0  0  0  0  0  0
  160.5270  201.7050  148.4070 C   0  0  0  0  0  0  0  0  0  0  0  0
  161.6080  200.8720  148.1550 O   0  0  0  0  0  0  0  0  0  0  0  0
  159.4060  201.2060  148.6880 O   0  0  0  0  0  1  0  0  0  0  0  0
  2  1  2  0  0  0  0
  2  6  1  0  0  0  0
  3  8  1  0  0  0  0
  4  5  1  0  0  0  0
  5  9  1  0  0  0  0
  6  4  2  0  0  0  0
  7  6  1  0  0  0  0
  7  3  2  0  0  0  0
  8  5  2  0  0  0  0
  9 10  2  0  0  0  0
 11  3  1  0  0  0  0
 13 11  1  0  0  0  0
 14 13  1  0  0  0  0
 14 12  2  0  0  0  0
 15 19  2  0  0  0  0
 16 21  2  0  0  0  0
 17 22  2  0  0  0  0
 18 15  1  0  0  0  0
 19 22  1  0  0  0  0
 20 21  1  0  0  0  0
 20 15  1  0  0  0  0
 21 17  1  0  0  0  0
 22 14  1  0  0  0  0
 23  2  1  0  0  0  0
 24 23  1  0  0  0  0
 26 30  1  0  0  0  0
 26 24  1  1  0  0  0
 28 25  1  0  0  0  0
 28 32  1  0  0  0  0
 29 25  1  6  0  0  0
 29 37  1  0  0  0  0
 29 31  1  0  0  0  0
 30 34  1  1  0  0  0
 31 26  1  0  0  0  0
 31 30  1  0  0  0  0
 32 37  1  0  0  0  0
 33 34  1  0  0  0  0
 35 25  2  0  0  0  0
 36 41  1  0  0  0  0
 36 33  1  0  0  0  0
 37 27  1  0  0  0  0
 37 36  1  0  0  0  0
 38 40  2  0  0  0  0
 40 39  1  0  0  0  0
 40 32  1  0  0  0  0
 41 43  1  0  0  0  0
 42 41  2  0  0  0  0
M  END
>  <MODEL>
8

>  <REMARK>
 VINA RESULT:      -7.2      3.509     10.530
  Name = 
  10 active torsions:
  status: ('A' for Active; 'I' for Inactive)
    1  A    between atoms: C_4  and  C_19
    2  A    between atoms: C_7  and  C_13
    3  A    between atoms: C_7  and  O_42
    4  A    between atoms: C_8  and  C_39
    5  A    between atoms: C_9  and  C_38
    6  A    between atoms: C_17  and  C_30
    7  A    between atoms: N_22  and  C_39
    8  A    between atoms: C_23  and  C_26
    9  A    between atoms: C_26  and  O_42
   10  A    between atoms: C_36  and  C_40
                            x       y       z     vdW  Elec       q    Type
                         _______ _______ _______ _____ _____    ______ ____

>  <TORSDO>
F 10

$$$$
=
 OpenBabel11072410093D

 43 47  0  0  1  0  0  0  0  0999 V2000
  162.8000  213.3220  147.7460 O   0  0  0  0  0  0  0  0  0  0  0  0
  162.1100  212.5080  148.4160 C   0  0  0  0  0  0  0  0  0  0  0  0
  159.1000  213.3790  150.5260 C   0  0  0  0  0  0  0  0  0  0  0  0
  159.7800  213.0580  147.8690 N   0  0  0  0  0  0  0  0  0  0  0  0
  158.4990  213.3910  148.1840 C   0  0  0  0  0  0  0  0  0  0  0  0
  160.7440  212.8980  148.8200 C   0  0  0  0  0  0  0  0  0  0  0  0
  160.4080  213.0490  150.1710 C   0  0  0  0  0  3  0  0  0  0  0  0
  158.1390  213.5640  149.5260 C   0  0  0  0  0  3  0  0  0  0  0  0
  157.5150  213.5570  147.1060 C   0  0  0  0  0  3  0  0  0  0  0  0
  157.5070  212.7780  146.0740 N   0  0  0  0  0  2  0  0  0  0  0  0
  158.7490  213.5420  151.9670 C   0  0  0  0  0  2  0  0  0  0  0  0
  158.2710  212.9290  154.7010 O   0  0  0  0  0  0  0  0  0  0  0  0
  159.5850  212.6750  152.7880 N   0  0  0  0  0  2  0  0  0  0  0  0
  159.2260  212.3330  154.1300 C   0  0  0  0  0  0  0  0  0  0  0  0
  160.0650  209.0610  155.8030 C   0  0  0  0  0  0  0  0  0  0  0  0
  163.2080  210.7010  156.0820 O   0  0  0  0  0  0  0  0  0  0  0  0
  161.2740  211.4600  155.1680 N   0  0  0  0  0  0  0  0  0  0  0  0
  159.4700  207.8870  156.1160 F   0  0  0  0  0  0  0  0  0  0  0  0
  159.3370  210.0600  155.1520 C   0  0  0  0  0  2  0  0  0  0  0  0
  161.4040  209.2760  156.1290 C   0  0  0  0  0  3  0  0  0  0  0  0
  162.0000  210.4960  155.7990 C   0  0  0  0  0  0  0  0  0  0  0  0
  159.9640  211.2740  154.8370 C   0  0  0  0  0  0  0  0  0  0  0  0
  162.6700  211.2640  148.7350 O   0  0  0  0  0  0  0  0  0  0  0  0
  161.9560  210.0410  148.6180 C   0  0  0  0  0  2  0  0  0  0  0  0
  160.9090  206.8850  152.1750 C   0  0  0  0  0  0  0  0  0  0  0  0
  162.4040  209.0810  149.7010 C   0  0  2  0  0  3  0  0  0  0  0  0
  159.4860  205.9250  149.8480 O   0  0  0  0  0  1  0  0  0  0  0  0
  160.4410  205.5360  152.6130 C   0  0  0  0  0  2  0  0  0  0  0  0
  161.4870  206.8280  150.8170 C   0  0  2  0  0  3  0  0  0  0  0  0
  162.6730  207.7070  149.1270 C   0  0  1  0  0  3  0  0  0  0  0  0
  161.3690  207.9930  149.8670 C   0  0  2  0  0  3  0  0  0  0  0  0
  160.7310  204.6330  151.3990 C   0  0  1  0  0  3  0  0  0  0  0  0
  161.2780  206.0850  147.8520 O   0  0  0  0  0  0  0  0  0  0  0  0
  162.2230  207.1520  147.7660 C   0  0  0  0  0  2  0  0  0  0  0  0
  160.9040  207.8780  152.8860 O   0  0  0  0  0  0  0  0  0  0  0  0
  161.5750  205.1770  148.9120 C   0  0  1  0  0  3  0  0  0  0  0  0
  160.8080  205.6050  150.2030 C   0  0  1  0  0  0  0  0  0  0  0  0
  163.0820  204.4130  151.8660 O   0  0  0  0  0  0  0  0  0  0  0  0
  161.9240  202.4170  151.6350 N   0  0  0  0  0  1  0  0  0  0  0  0
  161.9860  203.8390  151.6340 C   0  0  0  0  0  0  0  0  0  0  0  0
  161.2250  203.7870  148.4800 C   0  0  0  0  0  0  0  0  0  0  0  0
  160.1980  203.1080  149.1190 O   0  0  0  0  0  1  0  0  0  0  0  0
  161.8630  203.2260  147.5500 O   0  0  0  0  0  0  0  0  0  0  0  0
  1  2  2  0  0  0  0
  2 23  1  0  0  0  0
  2  6  1  0  0  0  0
  3 11  1  0  0  0  0
  4  5  2  0  0  0  0
  4  6  1  0  0  0  0
  5  8  1  0  0  0  0
  6  7  2  0  0  0  0
  7  3  1  0  0  0  0
  8  3  2  0  0  0  0
  9  5  1  0  0  0  0
 10  9  2  0  0  0  0
 11 13  1  0  0  0  0
 13 14  1  0  0  0  0
 14 12  2  0  0  0  0
 14 22  1  0  0  0  0
 15 18  1  0  0  0  0
 15 20  2  0  0  0  0
 17 21  1  0  0  0  0
 19 15  1  0  0  0  0
 21 16  2  0  0  0  0
 21 20  1  0  0  0  0
 22 19  1  0  0  0  0
 22 17  2  0  0  0  0
 24 23  1  0  0  0  0
 25 28  1  0  0  0  0
 25 35  2  0  0  0  0
 26 24  1  6  0  0  0
 26 31  1  0  0  0  0
 27 37  1  0  0  0  0
 29 25  1  1  0  0  0
 30 34  1  6  0  0  0
 30 26  1  0  0  0  0
 30 31  1  0  0  0  0
 31 29  1  0  0  0  0
 32 40  1  0  0  0  0
 32 28  1  0  0  0  0
 33 36  1  0  0  0  0
 34 33  1  0  0  0  0
 36 37  1  0  0  0  0
 37 29  1  0  0  0  0
 37 32  1  0  0  0  0
 40 39  1  0  0  0  0
 40 38  2  0  0  0  0
 41 36  1  0  0  0  0
 41 42  1  0  0  0  0
 43 41  2  0  0  0  0
M  END
>  <MODEL>
9

>  <REMARK>
 VINA RESULT:      -7.1      3.791      9.588
  Name = 
  10 active torsions:
  status: ('A' for Active; 'I' for Inactive)
    1  A    between atoms: C_4  and  C_19
    2  A    between atoms: C_7  and  C_13
    3  A    between atoms: C_7  and  O_42
    4  A    between atoms: C_8  and  C_39
    5  A    between atoms: C_9  and  C_38
    6  A    between atoms: C_17  and  C_30
    7  A    between atoms: N_22  and  C_39
    8  A    between atoms: C_23  and  C_26
    9  A    between atoms: C_26  and  O_42
   10  A    between atoms: C_36  and  C_40
                            x       y       z     vdW  Elec       q    Type
                         _______ _______ _______ _____ _____    ______ ____

>  <TORSDO>
F 10

$$$$
