=
 OpenBabel11072413143D

 34 36  0  0  1  0  0  0  0  0999 V2000
  159.7260  208.4150  156.1990 O   0  0  0  0  0  0  0  0  0  0  0  0
  161.2720  205.0320  153.4180 O   0  0  0  0  0  0  0  0  0  0  0  0
  160.4240  211.8420  155.1760 C   0  0  0  0  0  3  0  0  0  0  0  0
  160.6350  209.4260  154.1680 C   0  0  0  0  0  0  0  0  0  0  0  0
  161.1880  207.1060  152.2690 C   0  0  1  0  0  3  0  0  0  0  0  0
  160.5380  210.6750  154.6540 C   0  0  0  0  0  0  0  0  0  0  0  0
  161.1450  206.4430  153.6550 C   0  0  0  0  0  0  0  0  0  0  0  0
  160.9440  205.9810  151.2010 C   0  0  2  0  0  3  0  0  0  0  0  0
  161.8230  203.5840  151.7100 N   0  0  0  0  0  1  0  0  0  0  0  0
  160.8900  204.6460  152.0900 C   0  0  1  0  0  3  0  0  0  0  0  0
  161.2650  208.7820  150.5750 O   0  0  0  0  0  1  0  0  0  0  0  0
  160.3800  208.2580  155.0980 C   0  0  0  0  0  0  0  0  0  0  0  0
  160.7810  206.8660  154.8020 N   0  0  0  0  0  0  0  0  0  0  0  0
  161.1950  208.4210  151.9380 C   0  0  2  0  0  3  0  0  0  0  0  0
  161.5120  209.4460  152.9590 C   0  0  0  0  0  2  0  0  0  0  0  0
  159.1230  213.7640  155.3680 O   0  0  0  0  0  1  0  0  0  0  0  0
  159.4010  212.7610  154.6430 C   0  0  0  0  0  0  0  0  0  0  0  0
  158.4330  212.2880  153.6860 O   0  0  0  0  0  0  0  0  0  0  0  0
  161.6090  205.8970  149.6780 C   0  0  0  0  0  2  0  0  0  0  0  0
  160.5700  205.8350  148.3840 C   0  0  0  0  0  2  0  0  0  0  0  0
  160.7340  206.9390  147.1580 C   0  0  2  0  0  3  0  0  0  0  0  0
  160.5550  206.2500  145.7350 C   0  0  1  0  0  3  0  0  0  0  0  0
  161.7570  206.5100  146.3230 O   0  0  0  0  0  0  0  0  0  0  0  0
  161.6790  203.7160  146.2200 N   0  0  0  0  0  0  0  0  0  0  0  0
  160.8580  204.6860  145.3800 C   0  0  0  0  0  0  0  0  0  0  0  0
  160.3710  204.1900  144.3560 O   0  0  0  0  0  0  0  0  0  0  0  0
  163.9250  204.3270  145.6170 O   0  0  0  0  0  1  0  0  0  0  0  0
  163.0090  204.1410  146.6660 C   0  0  0  0  0  2  0  0  0  0  0  0
  161.0040  202.5200  146.7700 C   0  0  0  0  0  2  0  0  0  0  0  0
  161.2560  202.5160  148.2600 C   0  0  0  0  0  2  0  0  0  0  0  0
  161.2040  200.1750  147.9490 F   0  0  0  0  0  0  0  0  0  0  0  0
  159.5050  201.1260  149.1720 F   0  0  0  0  0  0  0  0  0  0  0  0
  161.5750  200.9220  150.1580 F   0  0  0  0  0  0  0  0  0  0  0  0
  160.8950  201.1540  148.9240 C   0  0  0  0  0  0  0  0  0  0  0  0
  2  7  1  0  0  0  0
  4  6  2  0  0  0  0
  4 12  1  0  0  0  0
  5  7  1  1  0  0  0
  6  3  2  0  0  0  0
  7 13  2  0  0  0  0
  8 19  1  6  0  0  0
  8 10  1  0  0  0  0
  8  5  1  0  0  0  0
 10  9  1  6  0  0  0
 10  2  1  0  0  0  0
 12  1  2  0  0  0  0
 13 12  1  0  0  0  0
 14 11  1  6  0  0  0
 14  5  1  0  0  0  0
 14 15  1  0  0  0  0
 15  4  1  0  0  0  0
 17  3  1  0  0  0  0
 17 16  1  0  0  0  0
 18 17  2  0  0  0  0
 20 19  1  0  0  0  0
 21 20  1  1  0  0  0
 22 25  1  1  0  0  0
 22 23  1  0  0  0  0
 22 21  1  0  0  0  0
 23 21  1  0  0  0  0
 24 28  1  0  0  0  0
 24 29  1  0  0  0  0
 25 24  1  0  0  0  0
 26 25  2  0  0  0  0
 27 28  1  0  0  0  0
 29 30  1  0  0  0  0
 30 34  1  0  0  0  0
 31 34  1  0  0  0  0
 34 32  1  0  0  0  0
 34 33  1  0  0  0  0
M  END
>  <MODEL>
1

>  <REMARK>
 VINA RESULT:      -8.4      0.000      0.000
  Name = 
  9 active torsions:
  status: ('A' for Active; 'I' for Inactive)
    1  A    between atoms: N_2  and  C_3
    2  A    between atoms: N_2  and  C_14
    3  A    between atoms: C_3  and  C_9
    4  A    between atoms: C_5  and  C_15
    5  A    between atoms: C_6  and  C_22
    6  A    between atoms: C_8  and  C_21
    7  A    between atoms: C_9  and  C_30
    8  A    between atoms: C_10  and  C_22
    9  A    between atoms: C_10  and  C_23
                            x       y       z     vdW  Elec       q    Type
                         _______ _______ _______ _____ _____    ______ ____

>  <TORSDO>
F 9

$$$$
=
 OpenBabel11072413143D

 34 36  0  0  1  0  0  0  0  0999 V2000
  161.6000  203.6260  151.9400 O   0  0  0  0  0  0  0  0  0  0  0  0
  161.5400  208.2690  152.0240 O   0  0  0  0  0  0  0  0  0  0  0  0
  160.3340  202.0120  148.9290 C   0  0  0  0  0  3  0  0  0  0  0  0
  160.9300  204.4390  149.7350 C   0  0  0  0  0  0  0  0  0  0  0  0
  161.3660  207.4550  149.8020 C   0  0  1  0  0  3  0  0  0  0  0  0
  160.6170  203.2100  149.2920 C   0  0  0  0  0  0  0  0  0  0  0  0
  161.2710  207.0660  151.2860 C   0  0  0  0  0  0  0  0  0  0  0  0
  162.0950  208.8450  149.7260 C   0  0  2  0  0  3  0  0  0  0  0  0
  161.7290  210.5390  151.6670 N   0  0  0  0  0  1  0  0  0  0  0  0
  162.2780  209.2410  151.2700 C   0  0  1  0  0  3  0  0  0  0  0  0
  161.2520  207.3160  147.4240 O   0  0  0  0  0  1  0  0  0  0  0  0
  161.2530  204.6260  151.2030 C   0  0  0  0  0  0  0  0  0  0  0  0
  161.2710  205.9390  151.8840 N   0  0  0  0  0  0  0  0  0  0  0  0
  161.1150  206.7150  148.6950 C   0  0  2  0  0  3  0  0  0  0  0  0
  160.3510  205.4510  148.8000 C   0  0  0  0  0  2  0  0  0  0  0  0
  161.1440  201.8170  146.7540 O   0  0  0  0  0  0  0  0  0  0  0  0
  161.1960  201.3500  147.9320 C   0  0  0  0  0  0  0  0  0  0  0  0
  161.6240  199.9890  148.1360 O   0  0  0  0  0  1  0  0  0  0  0  0
  161.8100  210.0560  148.6210 C   0  0  0  0  0  2  0  0  0  0  0  0
  162.1330  211.6170  149.0850 C   0  0  0  0  0  2  0  0  0  0  0  0
  163.3180  212.4700  148.2980 C   0  0  2  0  0  3  0  0  0  0  0  0
  162.7070  213.7060  147.5050 C   0  0  1  0  0  3  0  0  0  0  0  0
  163.0040  212.4990  146.9450 O   0  0  0  0  0  0  0  0  0  0  0  0
  160.7200  213.3370  145.5480 N   0  0  0  0  0  0  0  0  0  0  0  0
  161.1890  213.8140  146.9150 C   0  0  0  0  0  0  0  0  0  0  0  0
  160.2950  214.2960  147.6230 O   0  0  0  0  0  0  0  0  0  0  0  0
  162.2330  212.7210  143.7840 O   0  0  0  0  0  1  0  0  0  0  0  0
  161.4830  213.7550  144.3690 C   0  0  0  0  0  2  0  0  0  0  0  0
  159.6970  212.2690  145.4900 C   0  0  0  0  0  2  0  0  0  0  0  0
  158.3810  212.9330  145.1610 C   0  0  0  0  0  2  0  0  0  0  0  0
  156.5570  213.8830  146.3220 F   0  0  0  0  0  0  0  0  0  0  0  0
  157.9300  212.4480  147.4820 F   0  0  0  0  0  0  0  0  0  0  0  0
  156.4570  211.5520  145.9570 F   0  0  0  0  0  0  0  0  0  0  0  0
  157.2910  212.6740  146.2430 C   0  0  0  0  0  0  0  0  0  0  0  0
  3  6  2  0  0  0  0
  4 12  1  0  0  0  0
  5  7  1  1  0  0  0
  6  4  2  0  0  0  0
  7 13  2  0  0  0  0
  7  2  1  0  0  0  0
  8 19  1  6  0  0  0
  8  5  1  0  0  0  0
  8 10  1  0  0  0  0
 10  9  1  6  0  0  0
 10  2  1  0  0  0  0
 12 13  1  0  0  0  0
 12  1  2  0  0  0  0
 14 11  1  6  0  0  0
 14 15  1  0  0  0  0
 14  5  1  0  0  0  0
 15  4  1  0  0  0  0
 16 17  2  0  0  0  0
 17 18  1  0  0  0  0
 17  3  1  0  0  0  0
 19 20  1  0  0  0  0
 21 20  1  1  0  0  0
 22 25  1  1  0  0  0
 22 21  1  0  0  0  0
 23 22  1  0  0  0  0
 23 21  1  0  0  0  0
 24 25  1  0  0  0  0
 25 26  2  0  0  0  0
 27 28  1  0  0  0  0
 28 24  1  0  0  0  0
 29 24  1  0  0  0  0
 30 29  1  0  0  0  0
 30 34  1  0  0  0  0
 33 34  1  0  0  0  0
 34 31  1  0  0  0  0
 34 32  1  0  0  0  0
M  END
>  <MODEL>
2

>  <REMARK>
 VINA RESULT:      -8.2      5.673      8.832
  Name = 
  9 active torsions:
  status: ('A' for Active; 'I' for Inactive)
    1  A    between atoms: N_2  and  C_3
    2  A    between atoms: N_2  and  C_14
    3  A    between atoms: C_3  and  C_9
    4  A    between atoms: C_5  and  C_15
    5  A    between atoms: C_6  and  C_22
    6  A    between atoms: C_8  and  C_21
    7  A    between atoms: C_9  and  C_30
    8  A    between atoms: C_10  and  C_22
    9  A    between atoms: C_10  and  C_23
                            x       y       z     vdW  Elec       q    Type
                         _______ _______ _______ _____ _____    ______ ____

>  <TORSDO>
F 9

$$$$
=
 OpenBabel11072413143D

 34 36  0  0  1  0  0  0  0  0999 V2000
  161.3320  202.7720  149.0630 O   0  0  0  0  0  0  0  0  0  0  0  0
  160.8770  205.3200  152.9200 O   0  0  0  0  0  0  0  0  0  0  0  0
  160.8590  204.4890  145.8850 C   0  0  0  0  0  3  0  0  0  0  0  0
  161.0730  205.1170  148.4260 C   0  0  0  0  0  0  0  0  0  0  0  0
  161.2380  206.7010  151.0250 C   0  0  1  0  0  3  0  0  0  0  0  0
  160.9620  204.8300  147.1180 C   0  0  0  0  0  0  0  0  0  0  0  0
  160.8670  205.2820  151.4840 C   0  0  0  0  0  0  0  0  0  0  0  0
  161.8500  207.4500  152.2620 C   0  0  2  0  0  3  0  0  0  0  0  0
  160.9500  206.8620  154.6320 N   0  0  0  0  0  1  0  0  0  0  0  0
  161.6740  206.3880  153.4510 C   0  0  1  0  0  3  0  0  0  0  0  0
  161.6350  208.5810  149.6130 O   0  0  0  0  0  1  0  0  0  0  0  0
  161.0660  203.9810  149.4270 C   0  0  0  0  0  0  0  0  0  0  0  0
  160.8340  204.1600  150.8770 N   0  0  0  0  0  0  0  0  0  0  0  0
  161.2840  207.2230  149.7750 C   0  0  2  0  0  3  0  0  0  0  0  0
  160.6210  206.5240  148.6500 C   0  0  0  0  0  2  0  0  0  0  0  0
  163.1210  204.8650  145.4760 O   0  0  0  0  0  1  0  0  0  0  0  0
  161.9620  204.8220  144.9630 C   0  0  0  0  0  0  0  0  0  0  0  0
  161.6950  205.5560  143.7510 O   0  0  0  0  0  0  0  0  0  0  0  0
  161.7040  209.0700  152.6130 C   0  0  0  0  0  2  0  0  0  0  0  0
  160.1710  209.6950  152.7530 C   0  0  0  0  0  2  0  0  0  0  0  0
  159.8340  211.1760  152.0880 C   0  0  2  0  0  3  0  0  0  0  0  0
  160.0490  212.3440  153.1450 C   0  0  1  0  0  3  0  0  0  0  0  0
  158.8440  211.7790  152.8520 O   0  0  0  0  0  0  0  0  0  0  0  0
  158.7980  212.7490  155.6320 N   0  0  0  0  0  0  0  0  0  0  0  0
  159.9270  212.2070  154.7670 C   0  0  0  0  0  0  0  0  0  0  0  0
  160.7990  211.5880  155.3910 O   0  0  0  0  0  0  0  0  0  0  0  0
  157.6640  214.3940  154.2950 O   0  0  0  0  0  1  0  0  0  0  0  0
  158.4060  214.1510  155.4630 C   0  0  0  0  0  2  0  0  0  0  0  0
  157.9760  211.7840  156.3960 C   0  0  0  0  0  2  0  0  0  0  0  0
  157.2960  210.8860  155.3880 C   0  0  0  0  0  2  0  0  0  0  0  0
  155.2430  209.9560  154.6850 F   0  0  0  0  0  0  0  0  0  0  0  0
  155.4900  212.2380  154.5290 F   0  0  0  0  0  0  0  0  0  0  0  0
  155.1610  211.3170  156.6130 F   0  0  0  0  0  0  0  0  0  0  0  0
  155.7560  211.1070  155.3320 C   0  0  0  0  0  0  0  0  0  0  0  0
  1 12  2  0  0  0  0
  2 10  1  0  0  0  0
  3  6  2  0  0  0  0
  4 15  1  0  0  0  0
  4 12  1  0  0  0  0
  5  7  1  6  0  0  0
  5  8  1  0  0  0  0
  6  4  2  0  0  0  0
  7  2  1  0  0  0  0
  8 19  1  1  0  0  0
  8 10  1  0  0  0  0
 10  9  1  1  0  0  0
 12 13  1  0  0  0  0
 13  7  2  0  0  0  0
 14 11  1  1  0  0  0
 14  5  1  0  0  0  0
 15 14  1  0  0  0  0
 17 16  1  0  0  0  0
 17  3  1  0  0  0  0
 18 17  2  0  0  0  0
 19 20  1  0  0  0  0
 21 20  1  1  0  0  0
 21 23  1  0  0  0  0
 21 22  1  0  0  0  0
 22 25  1  1  0  0  0
 23 22  1  0  0  0  0
 24 29  1  0  0  0  0
 25 26  2  0  0  0  0
 25 24  1  0  0  0  0
 27 28  1  0  0  0  0
 28 24  1  0  0  0  0
 30 29  1  0  0  0  0
 31 34  1  0  0  0  0
 32 34  1  0  0  0  0
 34 30  1  0  0  0  0
 34 33  1  0  0  0  0
M  END
>  <MODEL>
3

>  <REMARK>
 VINA RESULT:      -7.9      4.250      9.755
  Name = 
  9 active torsions:
  status: ('A' for Active; 'I' for Inactive)
    1  A    between atoms: N_2  and  C_3
    2  A    between atoms: N_2  and  C_14
    3  A    between atoms: C_3  and  C_9
    4  A    between atoms: C_5  and  C_15
    5  A    between atoms: C_6  and  C_22
    6  A    between atoms: C_8  and  C_21
    7  A    between atoms: C_9  and  C_30
    8  A    between atoms: C_10  and  C_22
    9  A    between atoms: C_10  and  C_23
                            x       y       z     vdW  Elec       q    Type
                         _______ _______ _______ _____ _____    ______ ____

>  <TORSDO>
F 9

$$$$
=
 OpenBabel11072413143D

 34 36  0  0  1  0  0  0  0  0999 V2000
  159.8270  213.1940  151.2550 O   0  0  0  0  0  0  0  0  0  0  0  0
  160.7820  209.4950  153.8950 O   0  0  0  0  0  0  0  0  0  0  0  0
  161.5870  213.4530  148.0750 C   0  0  0  0  0  3  0  0  0  0  0  0
  161.2730  211.6840  149.9910 C   0  0  0  0  0  0  0  0  0  0  0  0
  161.4460  209.1310  151.6470 C   0  0  1  0  0  3  0  0  0  0  0  0
  161.4520  212.5650  148.9930 C   0  0  0  0  0  0  0  0  0  0  0  0
  161.0150  210.1990  152.6640 C   0  0  0  0  0  0  0  0  0  0  0  0
  161.0660  207.7290  152.2460 C   0  0  2  0  0  3  0  0  0  0  0  0
  161.1640  207.4220  154.8290 N   0  0  0  0  0  1  0  0  0  0  0  0
  160.5130  208.0990  153.7060 C   0  0  1  0  0  3  0  0  0  0  0  0
  162.2360  208.1250  149.6340 O   0  0  0  0  0  1  0  0  0  0  0  0
  160.5700  212.1400  151.2520 C   0  0  0  0  0  0  0  0  0  0  0  0
  160.6120  211.4020  152.5330 N   0  0  0  0  0  0  0  0  0  0  0  0
  161.8650  209.2740  150.3660 C   0  0  2  0  0  3  0  0  0  0  0  0
  162.2940  210.6000  149.8650 C   0  0  0  0  0  2  0  0  0  0  0  0
  161.7350  213.0460  145.7860 O   0  0  0  0  0  0  0  0  0  0  0  0
  160.9480  213.2200  146.7650 C   0  0  0  0  0  0  0  0  0  0  0  0
  159.6070  213.6890  146.5220 O   0  0  0  0  0  1  0  0  0  0  0  0
  161.9040  206.3050  152.0490 C   0  0  0  0  0  2  0  0  0  0  0  0
  161.0800  205.0040  151.4250 C   0  0  0  0  0  2  0  0  0  0  0  0
  161.6080  203.4700  151.7650 C   0  0  2  0  0  3  0  0  0  0  0  0
  161.7210  202.5940  150.4420 C   0  0  1  0  0  3  0  0  0  0  0  0
  160.6590  202.5710  151.2960 O   0  0  0  0  0  0  0  0  0  0  0  0
  161.1760  203.7710  147.9450 N   0  0  0  0  0  0  0  0  0  0  0  0
  160.8540  202.8020  149.0750 C   0  0  0  0  0  0  0  0  0  0  0  0
  159.8470  202.1070  148.8830 O   0  0  0  0  0  0  0  0  0  0  0  0
  160.3090  205.9860  148.2950 O   0  0  0  0  0  1  0  0  0  0  0  0
  161.4520  205.1680  148.2880 C   0  0  0  0  0  2  0  0  0  0  0  0
  161.4600  203.2140  146.6040 C   0  0  0  0  0  2  0  0  0  0  0  0
  161.9250  204.3610  145.7380 C   0  0  0  0  0  2  0  0  0  0  0  0
  160.0730  203.6500  144.4570 F   0  0  0  0  0  0  0  0  0  0  0  0
  161.4940  205.1920  143.5130 F   0  0  0  0  0  0  0  0  0  0  0  0
  160.0490  205.9050  145.1560 F   0  0  0  0  0  0  0  0  0  0  0  0
  160.8470  204.8090  144.7080 C   0  0  0  0  0  0  0  0  0  0  0  0
  3  6  2  0  0  0  0
  4 12  1  0  0  0  0
  5  8  1  0  0  0  0
  5  7  1  6  0  0  0
  6  4  2  0  0  0  0
  7  2  1  0  0  0  0
  8 19  1  1  0  0  0
  8 10  1  0  0  0  0
 10  2  1  0  0  0  0
 10  9  1  1  0  0  0
 12  1  2  0  0  0  0
 12 13  1  0  0  0  0
 13  7  2  0  0  0  0
 14 11  1  1  0  0  0
 14  5  1  0  0  0  0
 15  4  1  0  0  0  0
 15 14  1  0  0  0  0
 16 17  2  0  0  0  0
 17  3  1  0  0  0  0
 18 17  1  0  0  0  0
 20 19  1  0  0  0  0
 21 20  1  6  0  0  0
 22 25  1  6  0  0  0
 22 23  1  0  0  0  0
 22 21  1  0  0  0  0
 23 21  1  0  0  0  0
 24 28  1  0  0  0  0
 24 25  1  0  0  0  0
 26 25  2  0  0  0  0
 28 27  1  0  0  0  0
 29 24  1  0  0  0  0
 30 29  1  0  0  0  0
 31 34  1  0  0  0  0
 32 34  1  0  0  0  0
 34 33  1  0  0  0  0
 34 30  1  0  0  0  0
M  END
>  <MODEL>
4

>  <REMARK>
 VINA RESULT:      -7.9      3.621      5.179
  Name = 
  9 active torsions:
  status: ('A' for Active; 'I' for Inactive)
    1  A    between atoms: N_2  and  C_3
    2  A    between atoms: N_2  and  C_14
    3  A    between atoms: C_3  and  C_9
    4  A    between atoms: C_5  and  C_15
    5  A    between atoms: C_6  and  C_22
    6  A    between atoms: C_8  and  C_21
    7  A    between atoms: C_9  and  C_30
    8  A    between atoms: C_10  and  C_22
    9  A    between atoms: C_10  and  C_23
                            x       y       z     vdW  Elec       q    Type
                         _______ _______ _______ _____ _____    ______ ____

>  <TORSDO>
F 9

$$$$
=
 OpenBabel11072413143D

 34 36  0  0  1  0  0  0  0  0999 V2000
  160.7470  206.3700  145.7440 O   0  0  0  0  0  0  0  0  0  0  0  0
  161.7760  208.6010  149.6850 O   0  0  0  0  0  0  0  0  0  0  0  0
  161.3250  202.7730  145.6830 C   0  0  0  0  0  3  0  0  0  0  0  0
  161.3340  204.7180  147.4480 C   0  0  0  0  0  0  0  0  0  0  0  0
  161.5410  206.2700  150.0630 C   0  0  1  0  0  3  0  0  0  0  0  0
  161.3360  203.7010  146.5700 C   0  0  0  0  0  0  0  0  0  0  0  0
  161.7100  207.3500  148.9820 C   0  0  0  0  0  0  0  0  0  0  0  0
  161.1130  206.9950  151.3890 C   0  0  2  0  0  3  0  0  0  0  0  0
  162.0240  209.3910  151.8370 N   0  0  0  0  0  1  0  0  0  0  0  0
  161.1800  208.5470  150.9890 C   0  0  1  0  0  3  0  0  0  0  0  0
  161.3720  204.1320  151.1040 O   0  0  0  0  0  1  0  0  0  0  0  0
  161.2130  206.1350  146.9230 C   0  0  0  0  0  0  0  0  0  0  0  0
  161.5400  207.3390  147.7180 N   0  0  0  0  0  0  0  0  0  0  0  0
  161.5150  204.9200  149.9420 C   0  0  2  0  0  3  0  0  0  0  0  0
  162.0070  204.2730  148.7050 C   0  0  0  0  0  2  0  0  0  0  0  0
  160.0010  201.2540  146.8520 O   0  0  0  0  0  1  0  0  0  0  0  0
  160.2430  201.7700  145.7190 C   0  0  0  0  0  0  0  0  0  0  0  0
  159.8830  201.0530  144.5220 O   0  0  0  0  0  0  0  0  0  0  0  0
  161.5240  206.5530  152.9390 C   0  0  0  0  0  3  0  0  0  0  0  0
  160.5200  207.0350  154.1720 C   0  0  0  0  0  3  0  0  0  0  0  0
  161.0760  206.9940  155.7340 C   0  0  2  0  0  3  0  0  0  0  0  0
  160.4440  208.1680  156.6000 C   0  0  1  0  0  3  0  0  0  0  0  0
  161.6730  208.2160  156.0140 O   0  0  0  0  0  0  0  0  0  0  0  0
  160.7610  210.8470  155.7980 N   0  0  0  0  0  0  0  0  0  0  0  0
  159.9130  209.6030  156.0320 C   0  0  0  0  0  0  0  0  0  0  0  0
  158.7210  209.7310  155.7220 O   0  0  0  0  0  0  0  0  0  0  0  0
  162.9980  211.0990  156.6400 O   0  0  0  0  0  1  0  0  0  0  0  0
  161.6300  211.3060  156.8840 C   0  0  0  0  0  2  0  0  0  0  0  0
  160.8750  211.3670  154.4180 C   0  0  0  0  0  2  0  0  0  0  0  0
  159.7550  212.3630  154.2260 C   0  0  0  0  0  2  0  0  0  0  0  0
  157.5130  212.0250  153.5670 F   0  0  0  0  0  0  0  0  0  0  0  0
  159.1180  210.6780  152.6190 F   0  0  0  0  0  0  0  0  0  0  0  0
  158.9690  212.8620  151.9070 F   0  0  0  0  0  0  0  0  0  0  0  0
  158.8240  211.9960  153.0330 C   0  0  0  0  0  0  0  0  0  0  0  0
  1 12  2  0  0  0  0
  2 10  1  0  0  0  0
  3 17  1  0  0  0  0
  3  6  2  0  0  0  0
  4 15  1  0  0  0  0
  5  7  1  6  0  0  0
  5  8  1  0  0  0  0
  6  4  2  0  0  0  0
  7  2  1  0  0  0  0
  8 19  1  1  0  0  0
 10  8  1  0  0  0  0
 10  9  1  1  0  0  0
 12  4  1  0  0  0  0
 12 13  1  0  0  0  0
 13  7  2  0  0  0  0
 14  5  1  0  0  0  0
 14 11  1  1  0  0  0
 15 14  1  0  0  0  0
 17 16  1  0  0  0  0
 18 17  2  0  0  0  0
 19 20  2  0  0  0  0
 21 20  1  6  0  0  0
 21 23  1  0  0  0  0
 21 22  1  0  0  0  0
 22 25  1  6  0  0  0
 23 22  1  0  0  0  0
 24 25  1  0  0  0  0
 24 28  1  0  0  0  0
 26 25  2  0  0  0  0
 27 28  1  0  0  0  0
 29 24  1  0  0  0  0
 30 29  1  0  0  0  0
 32 34  1  0  0  0  0
 33 34  1  0  0  0  0
 34 31  1  0  0  0  0
 34 30  1  0  0  0  0
M  END
>  <MODEL>
5

>  <REMARK>
 VINA RESULT:      -7.7      3.967      9.981
  Name = 
  9 active torsions:
  status: ('A' for Active; 'I' for Inactive)
    1  A    between atoms: N_2  and  C_3
    2  A    between atoms: N_2  and  C_14
    3  A    between atoms: C_3  and  C_9
    4  A    between atoms: C_5  and  C_15
    5  A    between atoms: C_6  and  C_22
    6  A    between atoms: C_8  and  C_21
    7  A    between atoms: C_9  and  C_30
    8  A    between atoms: C_10  and  C_22
    9  A    between atoms: C_10  and  C_23
                            x       y       z     vdW  Elec       q    Type
                         _______ _______ _______ _____ _____    ______ ____

>  <TORSDO>
F 9

$$$$
=
 OpenBabel11072413143D

 34 36  0  0  1  0  0  0  0  0999 V2000
  161.8780  203.6420  151.9520 O   0  0  0  0  0  0  0  0  0  0  0  0
  161.6580  208.2800  152.0590 O   0  0  0  0  0  0  0  0  0  0  0  0
  160.4270  201.9870  149.0480 C   0  0  0  0  0  3  0  0  0  0  0  0
  160.9990  204.4340  149.8130 C   0  0  0  0  0  0  0  0  0  0  0  0
  161.3310  207.4630  149.8560 C   0  0  1  0  0  3  0  0  0  0  0  0
  160.6960  203.1950  149.3920 C   0  0  0  0  0  0  0  0  0  0  0  0
  161.3720  207.0690  151.3410 C   0  0  0  0  0  0  0  0  0  0  0  0
  162.0000  208.8790  149.7260 C   0  0  2  0  0  3  0  0  0  0  0  0
  161.7350  210.5560  151.6980 N   0  0  0  0  0  1  0  0  0  0  0  0
  162.2950  209.2790  151.2510 C   0  0  1  0  0  3  0  0  0  0  0  0
  161.0260  207.3220  147.4950 O   0  0  0  0  0  1  0  0  0  0  0  0
  161.4360  204.6300  151.2500 C   0  0  0  0  0  0  0  0  0  0  0  0
  161.4620  205.9420  151.9320 N   0  0  0  0  0  0  0  0  0  0  0  0
  161.0160  206.7160  148.7700 C   0  0  2  0  0  3  0  0  0  0  0  0
  160.3090  205.4250  148.9330 C   0  0  0  0  0  2  0  0  0  0  0  0
  161.1760  201.9180  146.8440 O   0  0  0  0  0  0  0  0  0  0  0  0
  161.2280  201.3580  147.9810 C   0  0  0  0  0  0  0  0  0  0  0  0
  161.5810  199.9640  148.0690 O   0  0  0  0  0  1  0  0  0  0  0  0
  161.5810  210.0800  148.6530 C   0  0  0  0  0  2  0  0  0  0  0  0
  162.3910  211.5260  148.7580 C   0  0  0  0  0  2  0  0  0  0  0  0
  161.5240  212.9340  148.8820 C   0  0  2  0  0  3  0  0  0  0  0  0
  161.0800  213.4640  147.4500 C   0  0  1  0  0  3  0  0  0  0  0  0
  162.1720  213.9090  148.1340 O   0  0  0  0  0  0  0  0  0  0  0  0
  161.2010  213.0850  144.6640 N   0  0  0  0  0  0  0  0  0  0  0  0
  161.8490  213.1800  146.0390 C   0  0  0  0  0  0  0  0  0  0  0  0
  163.0810  213.0510  146.0340 O   0  0  0  0  0  0  0  0  0  0  0  0
  158.8100  212.8820  144.5190 O   0  0  0  0  0  1  0  0  0  0  0  0
  160.0410  212.2040  144.5050 C   0  0  0  0  0  2  0  0  0  0  0  0
  161.5910  214.0740  143.6350 C   0  0  0  0  0  2  0  0  0  0  0  0
  162.7190  213.4620  142.8380 C   0  0  0  0  0  2  0  0  0  0  0  0
  163.0290  213.3270  140.5000 F   0  0  0  0  0  0  0  0  0  0  0  0
  160.8810  213.1510  141.3040 F   0  0  0  0  0  0  0  0  0  0  0  0
  162.2930  211.3530  141.5670 F   0  0  0  0  0  0  0  0  0  0  0  0
  162.2240  212.7780  141.5290 C   0  0  0  0  0  0  0  0  0  0  0  0
  3  6  2  0  0  0  0
  4 12  1  0  0  0  0
  5  7  1  1  0  0  0
  6  4  2  0  0  0  0
  7 13  2  0  0  0  0
  7  2  1  0  0  0  0
  8 19  1  1  0  0  0
  8  5  1  0  0  0  0
  8 10  1  0  0  0  0
 10  9  1  1  0  0  0
 10  2  1  0  0  0  0
 12 13  1  0  0  0  0
 12  1  2  0  0  0  0
 14 11  1  6  0  0  0
 14 15  1  0  0  0  0
 14  5  1  0  0  0  0
 15  4  1  0  0  0  0
 16 17  2  0  0  0  0
 17 18  1  0  0  0  0
 17  3  1  0  0  0  0
 19 20  1  0  0  0  0
 21 20  1  6  0  0  0
 22 25  1  6  0  0  0
 22 23  1  0  0  0  0
 22 21  1  0  0  0  0
 23 21  1  0  0  0  0
 24 25  1  0  0  0  0
 26 25  2  0  0  0  0
 28 27  1  0  0  0  0
 28 24  1  0  0  0  0
 29 24  1  0  0  0  0
 30 29  1  0  0  0  0
 31 34  1  0  0  0  0
 32 34  1  0  0  0  0
 34 33  1  0  0  0  0
 34 30  1  0  0  0  0
M  END
>  <MODEL>
6

>  <REMARK>
 VINA RESULT:      -7.7      6.190      9.157
  Name = 
  9 active torsions:
  status: ('A' for Active; 'I' for Inactive)
    1  A    between atoms: N_2  and  C_3
    2  A    between atoms: N_2  and  C_14
    3  A    between atoms: C_3  and  C_9
    4  A    between atoms: C_5  and  C_15
    5  A    between atoms: C_6  and  C_22
    6  A    between atoms: C_8  and  C_21
    7  A    between atoms: C_9  and  C_30
    8  A    between atoms: C_10  and  C_22
    9  A    between atoms: C_10  and  C_23
                            x       y       z     vdW  Elec       q    Type
                         _______ _______ _______ _____ _____    ______ ____

>  <TORSDO>
F 9

$$$$
=
 OpenBabel11072413143D

 34 36  0  0  1  0  0  0  0  0999 V2000
  161.7130  203.1460  151.1880 O   0  0  0  0  0  0  0  0  0  0  0  0
  160.8470  206.4220  154.3650 O   0  0  0  0  0  0  0  0  0  0  0  0
  161.1890  204.0510  147.6980 C   0  0  0  0  0  3  0  0  0  0  0  0
  161.2370  205.2480  150.0350 C   0  0  0  0  0  0  0  0  0  0  0  0
  161.1360  207.3780  152.2130 C   0  0  1  0  0  3  0  0  0  0  0  0
  161.2070  204.6660  148.8250 C   0  0  0  0  0  0  0  0  0  0  0  0
  160.8970  206.0650  152.9740 C   0  0  0  0  0  0  0  0  0  0  0  0
  161.6190  208.4470  153.2580 C   0  0  2  0  0  3  0  0  0  0  0  0
  160.6940  208.3050  155.6870 N   0  0  0  0  0  1  0  0  0  0  0  0
  161.5080  207.6620  154.6530 C   0  0  1  0  0  3  0  0  0  0  0  0
  161.3900  208.9280  150.4190 O   0  0  0  0  0  1  0  0  0  0  0  0
  161.3100  204.3690  151.2670 C   0  0  0  0  0  0  0  0  0  0  0  0
  161.0040  204.8390  152.6350 N   0  0  0  0  0  0  0  0  0  0  0  0
  161.1770  207.6110  150.8780 C   0  0  2  0  0  3  0  0  0  0  0  0
  160.6340  206.6110  149.9300 C   0  0  0  0  0  2  0  0  0  0  0  0
  162.8770  205.4070  146.8410 O   0  0  0  0  0  1  0  0  0  0  0  0
  162.2860  204.2890  146.7410 C   0  0  0  0  0  0  0  0  0  0  0  0
  162.3180  203.5800  145.4870 O   0  0  0  0  0  0  0  0  0  0  0  0
  161.2920  210.0780  153.2330 C   0  0  0  0  0  2  0  0  0  0  0  0
  159.7000  210.5460  153.1500 C   0  0  0  0  0  2  0  0  0  0  0  0
  159.3210  212.0260  152.5070 C   0  0  2  0  0  3  0  0  0  0  0  0
  159.4230  213.1730  153.6040 C   0  0  1  0  0  3  0  0  0  0  0  0
  158.2640  212.5570  153.2340 O   0  0  0  0  0  0  0  0  0  0  0  0
  157.9240  213.1410  155.9850 N   0  0  0  0  0  0  0  0  0  0  0  0
  159.2270  212.9840  155.2130 C   0  0  0  0  0  0  0  0  0  0  0  0
  160.1970  212.6530  155.9080 O   0  0  0  0  0  0  0  0  0  0  0  0
  155.8320  214.2860  156.2910 O   0  0  0  0  0  1  0  0  0  0  0  0
  157.1360  214.3580  155.7720 C   0  0  0  0  0  2  0  0  0  0  0  0
  157.3830  211.9610  156.6940 C   0  0  0  0  0  2  0  0  0  0  0  0
  157.0680  210.9200  155.6450 C   0  0  0  0  0  2  0  0  0  0  0  0
  155.2580  211.7460  154.3730 F   0  0  0  0  0  0  0  0  0  0  0  0
  154.8410  211.1310  156.5500 F   0  0  0  0  0  0  0  0  0  0  0  0
  155.1430  209.4680  154.9870 F   0  0  0  0  0  0  0  0  0  0  0  0
  155.5410  210.7840  155.3740 C   0  0  0  0  0  0  0  0  0  0  0  0
  1 12  2  0  0  0  0
  2 10  1  0  0  0  0
  3  6  2  0  0  0  0
  4 12  1  0  0  0  0
  5  7  1  6  0  0  0
  5  8  1  0  0  0  0
  6  4  2  0  0  0  0
  7  2  1  0  0  0  0
  8 19  1  1  0  0  0
  8 10  1  0  0  0  0
 10  9  1  1  0  0  0
 12 13  1  0  0  0  0
 13  7  2  0  0  0  0
 14 11  1  1  0  0  0
 14  5  1  0  0  0  0
 15  4  1  0  0  0  0
 15 14  1  0  0  0  0
 17 16  1  0  0  0  0
 17  3  1  0  0  0  0
 18 17  2  0  0  0  0
 20 19  1  0  0  0  0
 21 20  1  1  0  0  0
 21 23  1  0  0  0  0
 21 22  1  0  0  0  0
 22 25  1  1  0  0  0
 23 22  1  0  0  0  0
 24 29  1  0  0  0  0
 25 26  2  0  0  0  0
 25 24  1  0  0  0  0
 28 24  1  0  0  0  0
 28 27  1  0  0  0  0
 30 29  1  0  0  0  0
 31 34  1  0  0  0  0
 33 34  1  0  0  0  0
 34 30  1  0  0  0  0
 34 32  1  0  0  0  0
M  END
>  <MODEL>
7

>  <REMARK>
 VINA RESULT:      -7.7      4.254      9.865
  Name = 
  9 active torsions:
  status: ('A' for Active; 'I' for Inactive)
    1  A    between atoms: N_2  and  C_3
    2  A    between atoms: N_2  and  C_14
    3  A    between atoms: C_3  and  C_9
    4  A    between atoms: C_5  and  C_15
    5  A    between atoms: C_6  and  C_22
    6  A    between atoms: C_8  and  C_21
    7  A    between atoms: C_9  and  C_30
    8  A    between atoms: C_10  and  C_22
    9  A    between atoms: C_10  and  C_23
                            x       y       z     vdW  Elec       q    Type
                         _______ _______ _______ _____ _____    ______ ____

>  <TORSDO>
F 9

$$$$
=
 OpenBabel11072413143D

 34 36  0  0  1  0  0  0  0  0999 V2000
  161.5240  202.5850  149.1420 O   0  0  0  0  0  0  0  0  0  0  0  0
  160.8470  205.1070  152.9830 O   0  0  0  0  0  0  0  0  0  0  0  0
  161.0850  204.2870  145.9510 C   0  0  0  0  0  3  0  0  0  0  0  0
  161.1930  204.9190  148.4980 C   0  0  0  0  0  0  0  0  0  0  0  0
  161.2140  206.5040  151.1010 C   0  0  1  0  0  3  0  0  0  0  0  0
  161.1350  204.6290  147.1870 C   0  0  0  0  0  0  0  0  0  0  0  0
  160.8840  205.0710  151.5480 C   0  0  0  0  0  0  0  0  0  0  0  0
  161.7560  207.2750  152.3580 C   0  0  2  0  0  3  0  0  0  0  0  0
  160.8050  206.6480  154.6980 N   0  0  0  0  0  1  0  0  0  0  0  0
  161.5840  206.2050  153.5400 C   0  0  1  0  0  3  0  0  0  0  0  0
  161.5810  208.4000  149.7030 O   0  0  0  0  0  1  0  0  0  0  0  0
  161.1990  203.7820  149.4980 C   0  0  0  0  0  0  0  0  0  0  0  0
  160.9140  203.9500  150.9400 N   0  0  0  0  0  0  0  0  0  0  0  0
  161.2790  207.0290  149.8530 C   0  0  2  0  0  3  0  0  0  0  0  0
  160.6800  206.3070  148.7080 C   0  0  0  0  0  2  0  0  0  0  0  0
  163.3500  204.7030  145.6030 O   0  0  0  0  0  1  0  0  0  0  0  0
  162.2030  204.6640  145.0650 C   0  0  0  0  0  0  0  0  0  0  0  0
  161.9520  205.4360  143.8740 O   0  0  0  0  0  0  0  0  0  0  0  0
  161.5360  208.8880  152.7040 C   0  0  0  0  0  2  0  0  0  0  0  0
  160.7850  209.2750  154.1350 C   0  0  0  0  0  2  0  0  0  0  0  0
  161.5800  210.2230  155.2380 C   0  0  2  0  0  3  0  0  0  0  0  0
  160.5600  210.9160  156.2420 C   0  0  1  0  0  3  0  0  0  0  0  0
  161.0830  211.5160  155.1360 O   0  0  0  0  0  0  0  0  0  0  0  0
  158.4310  212.6730  155.6950 N   0  0  0  0  0  0  0  0  0  0  0  0
  159.0000  211.2800  155.9280 C   0  0  0  0  0  0  0  0  0  0  0  0
  158.1700  210.3660  155.8330 O   0  0  0  0  0  0  0  0  0  0  0  0
  160.0340  214.2680  156.5110 O   0  0  0  0  0  1  0  0  0  0  0  0
  158.7490  213.7220  156.6670 C   0  0  0  0  0  2  0  0  0  0  0  0
  157.8230  212.9700  154.3790 C   0  0  0  0  0  2  0  0  0  0  0  0
  158.9530  213.3070  153.4350 C   0  0  0  0  0  2  0  0  0  0  0  0
  158.4180  212.8400  151.1820 F   0  0  0  0  0  0  0  0  0  0  0  0
  158.4420  211.0780  152.6610 F   0  0  0  0  0  0  0  0  0  0  0  0
  160.4580  211.9500  151.9720 F   0  0  0  0  0  0  0  0  0  0  0  0
  159.1010  212.2690  152.2840 C   0  0  0  0  0  0  0  0  0  0  0  0
  1 12  2  0  0  0  0
  2 10  1  0  0  0  0
  3  6  2  0  0  0  0
  4 15  1  0  0  0  0
  4 12  1  0  0  0  0
  5  7  1  6  0  0  0
  5  8  1  0  0  0  0
  6  4  2  0  0  0  0
  7  2  1  0  0  0  0
  8 19  1  1  0  0  0
  8 10  1  0  0  0  0
 10  9  1  1  0  0  0
 12 13  1  0  0  0  0
 13  7  2  0  0  0  0
 14 11  1  1  0  0  0
 14  5  1  0  0  0  0
 15 14  1  0  0  0  0
 17 16  1  0  0  0  0
 17  3  1  0  0  0  0
 18 17  2  0  0  0  0
 19 20  1  0  0  0  0
 21 20  1  6  0  0  0
 21 22  1  0  0  0  0
 22 25  1  6  0  0  0
 23 21  1  0  0  0  0
 23 22  1  0  0  0  0
 24 25  1  0  0  0  0
 24 28  1  0  0  0  0
 26 25  2  0  0  0  0
 27 28  1  0  0  0  0
 29 24  1  0  0  0  0
 30 29  1  0  0  0  0
 31 34  1  0  0  0  0
 33 34  1  0  0  0  0
 34 32  1  0  0  0  0
 34 30  1  0  0  0  0
M  END
>  <MODEL>
8

>  <REMARK>
 VINA RESULT:      -7.6      3.848      9.779
  Name = 
  9 active torsions:
  status: ('A' for Active; 'I' for Inactive)
    1  A    between atoms: N_2  and  C_3
    2  A    between atoms: N_2  and  C_14
    3  A    between atoms: C_3  and  C_9
    4  A    between atoms: C_5  and  C_15
    5  A    between atoms: C_6  and  C_22
    6  A    between atoms: C_8  and  C_21
    7  A    between atoms: C_9  and  C_30
    8  A    between atoms: C_10  and  C_22
    9  A    between atoms: C_10  and  C_23
                            x       y       z     vdW  Elec       q    Type
                         _______ _______ _______ _____ _____    ______ ____

>  <TORSDO>
F 9

$$$$
=
 OpenBabel11072413143D

 34 36  0  0  1  0  0  0  0  0999 V2000
  161.5060  206.2030  145.3070 O   0  0  0  0  0  0  0  0  0  0  0  0
  162.2990  208.1990  149.4250 O   0  0  0  0  0  0  0  0  0  0  0  0
  161.2060  202.5720  145.2620 C   0  0  0  0  0  3  0  0  0  0  0  0
  161.3580  204.4930  147.0460 C   0  0  0  0  0  0  0  0  0  0  0  0
  161.4480  206.0010  149.6940 C   0  0  1  0  0  3  0  0  0  0  0  0
  161.2770  203.4880  146.1590 C   0  0  0  0  0  0  0  0  0  0  0  0
  162.0660  206.9870  148.6900 C   0  0  0  0  0  0  0  0  0  0  0  0
  160.9700  206.8340  150.9370 C   0  0  2  0  0  3  0  0  0  0  0  0
  162.3310  208.9490  151.6050 N   0  0  0  0  0  1  0  0  0  0  0  0
  161.4790  208.3160  150.5960 C   0  0  1  0  0  3  0  0  0  0  0  0
  160.5820  203.9870  150.6320 O   0  0  0  0  0  1  0  0  0  0  0  0
  161.6780  205.8860  146.5450 C   0  0  0  0  0  0  0  0  0  0  0  0
  162.1330  206.9920  147.4160 N   0  0  0  0  0  0  0  0  0  0  0  0
  161.1220  204.6950  149.5370 C   0  0  2  0  0  3  0  0  0  0  0  0
  161.6620  203.9240  148.3940 C   0  0  0  0  0  2  0  0  0  0  0  0
  160.0050  200.5980  144.9750 O   0  0  0  0  0  1  0  0  0  0  0  0
  159.9280  201.8600  145.0740 C   0  0  0  0  0  0  0  0  0  0  0  0
  158.7930  202.5470  144.5110 O   0  0  0  0  0  0  0  0  0  0  0  0
  160.9710  206.3360  152.5250 C   0  0  0  0  0  2  0  0  0  0  0  0
  161.1720  207.4950  153.6980 C   0  0  0  0  0  2  0  0  0  0  0  0
  160.4560  207.2850  155.1780 C   0  0  2  0  0  3  0  0  0  0  0  0
  159.9370  208.6670  155.7690 C   0  0  1  0  0  3  0  0  0  0  0  0
  161.1230  208.0820  156.0990 O   0  0  0  0  0  0  0  0  0  0  0  0
  159.9680  211.1560  154.4570 N   0  0  0  0  0  0  0  0  0  0  0  0
  160.5480  210.1440  155.4360 C   0  0  0  0  0  0  0  0  0  0  0  0
  161.5610  210.5310  156.0320 O   0  0  0  0  0  0  0  0  0  0  0  0
  158.8270  211.5950  152.3870 O   0  0  0  0  0  1  0  0  0  0  0  0
  159.6420  210.7020  153.1030 C   0  0  0  0  0  2  0  0  0  0  0  0
  159.5120  212.4610  154.9860 C   0  0  0  0  0  2  0  0  0  0  0  0
  158.4850  212.1690  156.0560 C   0  0  0  0  0  2  0  0  0  0  0  0
  156.8970  213.4260  154.8410 F   0  0  0  0  0  0  0  0  0  0  0  0
  156.1330  212.1560  156.5990 F   0  0  0  0  0  0  0  0  0  0  0  0
  156.7270  211.0780  154.6540 F   0  0  0  0  0  0  0  0  0  0  0  0
  157.0280  212.1830  155.5070 C   0  0  0  0  0  0  0  0  0  0  0  0
  1 12  2  0  0  0  0
  2 10  1  0  0  0  0
  3  6  2  0  0  0  0
  4 15  1  0  0  0  0
  5  7  1  6  0  0  0
  5  8  1  0  0  0  0
  6  4  2  0  0  0  0
  7  2  1  0  0  0  0
  8 19  1  1  0  0  0
 10  8  1  0  0  0  0
 10  9  1  1  0  0  0
 12  4  1  0  0  0  0
 12 13  1  0  0  0  0
 13  7  2  0  0  0  0
 14  5  1  0  0  0  0
 14 11  1  1  0  0  0
 15 14  1  0  0  0  0
 16 17  1  0  0  0  0
 17  3  1  0  0  0  0
 18 17  2  0  0  0  0
 19 20  1  0  0  0  0
 21 20  1  6  0  0  0
 21 22  1  0  0  0  0
 21 23  1  0  0  0  0
 22 25  1  6  0  0  0
 22 23  1  0  0  0  0
 24 29  1  0  0  0  0
 24 25  1  0  0  0  0
 25 26  2  0  0  0  0
 27 28  1  0  0  0  0
 28 24  1  0  0  0  0
 29 30  1  0  0  0  0
 31 34  1  0  0  0  0
 33 34  1  0  0  0  0
 34 30  1  0  0  0  0
 34 32  1  0  0  0  0
M  END
>  <MODEL>
9

>  <REMARK>
 VINA RESULT:      -7.6      4.365     10.252
  Name = 
  9 active torsions:
  status: ('A' for Active; 'I' for Inactive)
    1  A    between atoms: N_2  and  C_3
    2  A    between atoms: N_2  and  C_14
    3  A    between atoms: C_3  and  C_9
    4  A    between atoms: C_5  and  C_15
    5  A    between atoms: C_6  and  C_22
    6  A    between atoms: C_8  and  C_21
    7  A    between atoms: C_9  and  C_30
    8  A    between atoms: C_10  and  C_22
    9  A    between atoms: C_10  and  C_23
                            x       y       z     vdW  Elec       q    Type
                         _______ _______ _______ _____ _____    ______ ____

>  <TORSDO>
F 9

$$$$
