=
 OpenBabel11072411013D

 30 33  0  0  1  0  0  0  0  0999 V2000
  160.5660  207.7170  151.2620 O   0  0  0  0  0  0  0  0  0  0  0  0
  160.7340  208.4110  155.2000 C   0  0  1  0  0  3  0  0  0  0  0  0
  161.3660  207.8500  152.4330 C   0  0  1  0  0  3  0  0  0  0  0  0
  160.4020  212.5840  155.6240 O   0  0  0  0  0  1  0  0  0  0  0  0
  160.2270  209.2380  154.0720 N   0  0  2  0  0  0  0  0  0  0  0  0
  161.2050  209.2630  152.9890 C   0  0  0  0  0  2  0  0  0  0  0  0
  161.3610  207.2050  154.7710 O   0  0  0  0  0  0  0  0  0  0  0  0
  160.9180  206.8230  153.4880 C   0  0  2  0  0  3  0  0  0  0  0  0
  160.8870  211.3280  155.2590 C   0  0  1  0  0  3  0  0  0  0  0  0
  161.2110  210.5170  156.5020 C   0  0  1  0  0  3  0  0  0  0  0  0
  161.4660  205.4500  153.1570 C   0  0  0  0  0  1  0  0  0  0  0  0
  161.7460  209.1640  156.0700 C   0  0  0  0  0  2  0  0  0  0  0  0
  159.8190  210.5960  154.4540 C   0  0  0  0  0  2  0  0  0  0  0  0
  163.3280  210.7520  156.7730 O   0  0  0  0  0  1  0  0  0  0  0  0
  162.1810  211.1740  157.2610 O   0  0  0  0  0  0  0  0  0  0  0  0
  162.1480  206.6230  147.5500 C   0  0  0  0  0  0  0  0  0  0  0  0
  162.6320  206.3600  146.4160 O   0  0  0  0  0  0  0  0  0  0  0  0
  161.7660  208.2500  149.2430 C   0  0  0  0  0  3  0  0  0  0  0  0
  161.0840  207.3220  150.0250 C   0  0  0  0  0  0  0  0  0  0  0  0
  160.9430  206.0150  149.5480 C   0  0  0  0  0  3  0  0  0  0  0  0
  162.2760  207.8860  148.0390 N   0  0  0  0  0  0  0  0  0  0  0  0
  161.4720  205.6330  148.3070 C   0  0  1  0  0  3  0  0  0  0  0  0
  160.7830  200.9370  149.1800 O   0  0  0  0  0  0  0  0  0  0  0  0
  161.2850  204.2230  147.8550 C   0  0  0  0  0  0  0  0  0  0  0  0
  161.1270  202.4820  145.9890 C   0  0  0  0  0  3  0  0  0  0  0  0
  161.1420  203.2310  148.7450 C   0  0  0  0  0  3  0  0  0  0  0  0
  160.9550  201.8400  148.3200 C   0  0  0  0  0  0  0  0  0  0  0  0
  161.1740  203.9420  146.3650 C   0  0  0  0  0  2  0  0  0  0  0  0
  161.0010  201.5100  146.8910 C   0  0  0  0  0  0  0  0  0  0  0  0
  160.9280  200.1880  146.4730 O   0  0  0  0  0  1  0  0  0  0  0  0
  2 12  1  6  0  0  0
  3  1  1  6  0  0  0
  3  6  1  0  0  0  0
  3  8  1  0  0  0  0
  5  6  1  6  0  0  0
  5 13  1  0  0  0  0
  5  2  1  0  0  0  0
  7  2  1  0  0  0  0
  8 11  1  6  0  0  0
  8  7  1  0  0  0  0
  9  4  1  1  0  0  0
  9 10  1  0  0  0  0
 10 15  1  6  0  0  0
 12 10  1  0  0  0  0
 13  9  1  0  0  0  0
 14 15  1  0  0  0  0
 16 21  1  0  0  0  0
 16 22  1  0  0  0  0
 17 16  2  0  0  0  0
 18 19  1  0  0  0  0
 19  1  1  0  0  0  0
 20 19  2  0  0  0  0
 21 18  2  0  0  0  0
 22 24  1  6  0  0  0
 22 20  1  0  0  0  0
 24 26  2  0  0  0  0
 25 28  1  0  0  0  0
 25 29  2  0  0  0  0
 27 26  1  0  0  0  0
 27 23  2  0  0  0  0
 28 24  1  0  0  0  0
 29 27  1  0  0  0  0
 30 29  1  0  0  0  0
M  END
>  <MODEL>
1

>  <REMARK>
 VINA RESULT:      -9.4      0.000      0.000
  Name = 
  4 active torsions:
  status: ('A' for Active; 'I' for Inactive)
    1  A    between atoms: C_2  and  C_23
    2  A    between atoms: C_5  and  O_9
    3  A    between atoms: O_9  and  C_17
    4  A    between atoms: C_26  and  O_30
                            x       y       z     vdW  Elec       q    Type
                         _______ _______ _______ _____ _____    ______ ____

>  <TORSDO>
F 4

$$$$
=
 OpenBabel11072411013D

 30 33  0  0  1  0  0  0  0  0999 V2000
  161.7070  207.0650  152.6560 O   0  0  0  0  0  0  0  0  0  0  0  0
  161.2010  210.9470  153.4940 C   0  0  1  0  0  3  0  0  0  0  0  0
  160.9530  208.2570  152.4560 C   0  0  1  0  0  3  0  0  0  0  0  0
  159.3290  211.0500  157.2610 O   0  0  0  0  0  1  0  0  0  0  0  0
  161.2090  209.7400  154.3650 N   0  0  2  0  0  0  0  0  0  0  0  0
  160.3600  208.7020  153.7910 C   0  0  0  0  0  2  0  0  0  0  0  0
  161.2880  210.6340  152.1060 O   0  0  0  0  0  0  0  0  0  0  0  0
  161.8660  209.3640  151.9000 C   0  0  2  0  0  3  0  0  0  0  0  0
  159.5630  210.7990  155.9090 C   0  0  1  0  0  3  0  0  0  0  0  0
  159.7040  212.1100  155.1550 C   0  0  1  0  0  3  0  0  0  0  0  0
  162.1070  209.1580  150.4180 C   0  0  0  0  0  1  0  0  0  0  0  0
  159.9450  211.8010  153.6890 C   0  0  0  0  0  2  0  0  0  0  0  0
  160.8560  210.0050  155.7650 C   0  0  0  0  0  2  0  0  0  0  0  0
  157.6110  212.1400  154.6790 O   0  0  0  0  0  1  0  0  0  0  0  0
  158.5340  212.8610  155.2800 O   0  0  0  0  0  0  0  0  0  0  0  0
  160.9380  203.4670  150.6700 C   0  0  0  0  0  0  0  0  0  0  0  0
  160.7170  202.3490  150.1320 O   0  0  0  0  0  0  0  0  0  0  0  0
  161.1960  204.7120  152.6820 C   0  0  0  0  0  3  0  0  0  0  0  0
  161.4540  205.8770  151.9640 C   0  0  0  0  0  0  0  0  0  0  0  0
  161.4430  205.8230  150.5670 C   0  0  0  0  0  3  0  0  0  0  0  0
  160.9480  203.5480  152.0280 N   0  0  0  0  0  0  0  0  0  0  0  0
  161.1830  204.6240  149.8890 C   0  0  1  0  0  3  0  0  0  0  0  0
  161.2370  202.3820  145.6150 O   0  0  0  0  0  0  0  0  0  0  0  0
  161.1900  204.6330  148.3960 C   0  0  0  0  0  0  0  0  0  0  0  0
  161.2200  205.8990  146.1740 C   0  0  0  0  0  3  0  0  0  0  0  0
  161.2320  203.4870  147.7020 C   0  0  0  0  0  3  0  0  0  0  0  0
  161.2380  203.4760  146.2370 C   0  0  0  0  0  0  0  0  0  0  0  0
  161.0640  205.9650  147.6730 C   0  0  0  0  0  2  0  0  0  0  0  0
  161.2760  204.7480  145.5060 C   0  0  0  0  0  0  0  0  0  0  0  0
  161.3850  204.7610  144.1220 O   0  0  0  0  0  1  0  0  0  0  0  0
  2 12  1  6  0  0  0
  2  5  1  0  0  0  0
  3  1  1  1  0  0  0
  3  6  1  0  0  0  0
  5  6  1  6  0  0  0
  5 13  1  0  0  0  0
  7  2  1  0  0  0  0
  8 11  1  6  0  0  0
  8  7  1  0  0  0  0
  8  3  1  0  0  0  0
  9  4  1  1  0  0  0
 10 15  1  6  0  0  0
 10  9  1  0  0  0  0
 12 10  1  0  0  0  0
 13  9  1  0  0  0  0
 14 15  1  0  0  0  0
 16 21  1  0  0  0  0
 17 16  2  0  0  0  0
 19  1  1  0  0  0  0
 19 18  1  0  0  0  0
 20 19  2  0  0  0  0
 21 18  2  0  0  0  0
 22 24  1  6  0  0  0
 22 20  1  0  0  0  0
 22 16  1  0  0  0  0
 23 27  2  0  0  0  0
 25 28  1  0  0  0  0
 26 24  2  0  0  0  0
 27 26  1  0  0  0  0
 28 24  1  0  0  0  0
 29 25  2  0  0  0  0
 29 27  1  0  0  0  0
 30 29  1  0  0  0  0
M  END
>  <MODEL>
2

>  <REMARK>
 VINA RESULT:      -9.1      2.047      3.500
  Name = 
  4 active torsions:
  status: ('A' for Active; 'I' for Inactive)
    1  A    between atoms: C_2  and  C_23
    2  A    between atoms: C_5  and  O_9
    3  A    between atoms: O_9  and  C_17
    4  A    between atoms: C_26  and  O_30
                            x       y       z     vdW  Elec       q    Type
                         _______ _______ _______ _____ _____    ______ ____

>  <TORSDO>
F 4

$$$$
=
 OpenBabel11072411013D

 30 33  0  0  1  0  0  0  0  0999 V2000
  162.0640  207.7480  151.7930 O   0  0  0  0  0  0  0  0  0  0  0  0
  160.8280  211.3380  153.0600 C   0  0  1  0  0  3  0  0  0  0  0  0
  161.0930  208.7870  151.7200 C   0  0  1  0  0  3  0  0  0  0  0  0
  159.0050  210.6500  156.7890 O   0  0  0  0  0  1  0  0  0  0  0  0
  161.0760  210.0640  153.7880 N   0  0  2  0  0  0  0  0  0  0  0  0
  160.4370  208.9540  153.0890 C   0  0  0  0  0  2  0  0  0  0  0  0
  160.9620  211.2080  151.6470 O   0  0  0  0  0  0  0  0  0  0  0  0
  161.7710  210.1050  151.3060 C   0  0  2  0  0  3  0  0  0  0  0  0
  159.2700  210.6040  155.4200 C   0  0  1  0  0  3  0  0  0  0  0  0
  159.1500  211.9950  154.8220 C   0  0  1  0  0  3  0  0  0  0  0  0
  162.0340  210.1190  149.8130 C   0  0  0  0  0  1  0  0  0  0  0  0
  159.4330  211.9080  153.3340 C   0  0  0  0  0  2  0  0  0  0  0  0
  160.6910  210.0950  155.2050 C   0  0  0  0  0  2  0  0  0  0  0  0
  157.9280  213.7530  154.6620 O   0  0  0  0  0  1  0  0  0  0  0  0
  157.8580  212.4880  155.0160 O   0  0  0  0  0  0  0  0  0  0  0  0
  161.0700  203.6870  151.7330 C   0  0  0  0  0  0  0  0  0  0  0  0
  160.7850  202.4600  151.7830 O   0  0  0  0  0  0  0  0  0  0  0  0
  161.5020  205.6990  152.9280 C   0  0  0  0  0  3  0  0  0  0  0  0
  161.7330  206.3900  151.7420 C   0  0  0  0  0  0  0  0  0  0  0  0
  161.6210  205.7030  150.5290 C   0  0  0  0  0  3  0  0  0  0  0  0
  161.1810  204.3810  152.8980 N   0  0  0  0  0  0  0  0  0  0  0  0
  161.2840  204.3420  150.4950 C   0  0  1  0  0  3  0  0  0  0  0  0
  161.7820  204.2860  145.6940 O   0  0  0  0  0  0  0  0  0  0  0  0
  161.1830  203.6660  149.1670 C   0  0  0  0  0  0  0  0  0  0  0  0
  160.5630  201.6370  147.7400 C   0  0  0  0  0  3  0  0  0  0  0  0
  161.5150  204.3120  148.0410 C   0  0  0  0  0  3  0  0  0  0  0  0
  161.4230  203.6650  146.7290 C   0  0  0  0  0  0  0  0  0  0  0  0
  160.7760  202.2020  149.1220 C   0  0  0  0  0  2  0  0  0  0  0  0
  160.8850  202.3040  146.6330 C   0  0  0  0  0  0  0  0  0  0  0  0
  160.6950  201.7090  145.3920 O   0  0  0  0  0  1  0  0  0  0  0  0
  2 12  1  6  0  0  0
  2  5  1  0  0  0  0
  3  1  1  1  0  0  0
  3  6  1  0  0  0  0
  5  6  1  6  0  0  0
  5 13  1  0  0  0  0
  7  2  1  0  0  0  0
  8 11  1  6  0  0  0
  8  7  1  0  0  0  0
  8  3  1  0  0  0  0
  9  4  1  1  0  0  0
 10 15  1  6  0  0  0
 10  9  1  0  0  0  0
 12 10  1  0  0  0  0
 13  9  1  0  0  0  0
 14 15  1  0  0  0  0
 16 17  2  0  0  0  0
 16 21  1  0  0  0  0
 19  1  1  0  0  0  0
 19 18  1  0  0  0  0
 20 19  2  0  0  0  0
 21 18  2  0  0  0  0
 22 24  1  1  0  0  0
 22 20  1  0  0  0  0
 22 16  1  0  0  0  0
 23 27  2  0  0  0  0
 25 28  1  0  0  0  0
 26 24  2  0  0  0  0
 27 26  1  0  0  0  0
 28 24  1  0  0  0  0
 29 27  1  0  0  0  0
 29 25  2  0  0  0  0
 30 29  1  0  0  0  0
M  END
>  <MODEL>
3

>  <REMARK>
 VINA RESULT:      -8.5      2.150      3.660
  Name = 
  4 active torsions:
  status: ('A' for Active; 'I' for Inactive)
    1  A    between atoms: C_2  and  C_23
    2  A    between atoms: C_5  and  O_9
    3  A    between atoms: O_9  and  C_17
    4  A    between atoms: C_26  and  O_30
                            x       y       z     vdW  Elec       q    Type
                         _______ _______ _______ _____ _____    ______ ____

>  <TORSDO>
F 4

$$$$
=
 OpenBabel11072411013D

 30 33  0  0  1  0  0  0  0  0999 V2000
  161.6820  205.4120  151.0150 O   0  0  0  0  0  0  0  0  0  0  0  0
  161.4710  202.6360  148.1390 C   0  0  1  0  0  3  0  0  0  0  0  0
  160.8690  204.5550  150.2190 C   0  0  1  0  0  3  0  0  0  0  0  0
  161.8400  204.7410  144.5140 O   0  0  0  0  0  1  0  0  0  0  0  0
  162.0010  204.0270  148.1330 N   0  0  2  0  0  0  0  0  0  0  0  0
  161.0360  204.9330  148.7480 C   0  0  0  0  0  2  0  0  0  0  0  0
  160.8380  202.2840  149.3660 O   0  0  0  0  0  0  0  0  0  0  0  0
  161.2930  203.0910  150.4290 C   0  0  2  0  0  3  0  0  0  0  0  0
  161.3470  204.3050  145.7440 C   0  0  1  0  0  3  0  0  0  0  0  0
  161.0000  202.8280  145.6700 C   0  0  1  0  0  3  0  0  0  0  0  0
  160.7350  202.5600  151.7340 C   0  0  0  0  0  1  0  0  0  0  0  0
  160.4560  202.3910  147.0170 C   0  0  0  0  0  2  0  0  0  0  0  0
  162.4170  204.5090  146.8100 C   0  0  0  0  0  2  0  0  0  0  0  0
  159.7030  201.3460  144.8140 O   0  0  0  0  0  1  0  0  0  0  0  0
  160.0270  202.6160  144.6910 O   0  0  0  0  0  0  0  0  0  0  0  0
  161.8600  209.5440  150.4020 C   0  0  0  0  0  0  0  0  0  0  0  0
  161.9560  210.7770  150.1630 O   0  0  0  0  0  0  0  0  0  0  0  0
  162.2180  207.3170  149.6430 C   0  0  0  0  0  3  0  0  0  0  0  0
  161.7290  206.7980  150.8390 C   0  0  0  0  0  0  0  0  0  0  0  0
  161.2930  207.6840  151.8290 C   0  0  0  0  0  3  0  0  0  0  0  0
  162.2730  208.6600  149.4540 N   0  0  0  0  0  0  0  0  0  0  0  0
  161.3430  209.0720  151.6340 C   0  0  1  0  0  3  0  0  0  0  0  0
  158.0930  212.0590  153.5840 O   0  0  0  0  0  0  0  0  0  0  0  0
  160.8640  209.9630  152.7320 C   0  0  0  0  0  0  0  0  0  0  0  0
  161.2060  211.0780  155.0080 C   0  0  0  0  0  3  0  0  0  0  0  0
  159.6980  210.6150  152.6280 C   0  0  0  0  0  3  0  0  0  0  0  0
  159.2110  211.4930  153.6960 C   0  0  0  0  0  0  0  0  0  0  0  0
  161.6840  210.0530  154.0100 C   0  0  0  0  0  2  0  0  0  0  0  0
  160.0510  211.7270  154.8760 C   0  0  0  0  0  0  0  0  0  0  0  0
  159.6550  212.6330  155.8510 O   0  0  0  0  0  1  0  0  0  0  0  0
  2 12  1  6  0  0  0
  2  7  1  0  0  0  0
  3  8  1  0  0  0  0
  3  1  1  1  0  0  0
  5 13  1  6  0  0  0
  5  2  1  0  0  0  0
  5  6  1  0  0  0  0
  6  3  1  0  0  0  0
  7  8  1  0  0  0  0
  8 11  1  1  0  0  0
  9  4  1  6  0  0  0
  9 13  1  0  0  0  0
 10 15  1  6  0  0  0
 10  9  1  0  0  0  0
 10 12  1  0  0  0  0
 15 14  1  0  0  0  0
 16 22  1  0  0  0  0
 17 16  2  0  0  0  0
 18 19  1  0  0  0  0
 19  1  1  0  0  0  0
 19 20  2  0  0  0  0
 21 18  2  0  0  0  0
 21 16  1  0  0  0  0
 22 20  1  0  0  0  0
 22 24  1  1  0  0  0
 23 27  2  0  0  0  0
 24 28  1  0  0  0  0
 26 24  2  0  0  0  0
 26 27  1  0  0  0  0
 27 29  1  0  0  0  0
 28 25  1  0  0  0  0
 29 25  2  0  0  0  0
 29 30  1  0  0  0  0
M  END
>  <MODEL>
4

>  <REMARK>
 VINA RESULT:      -8.2      2.135      9.431
  Name = 
  4 active torsions:
  status: ('A' for Active; 'I' for Inactive)
    1  A    between atoms: C_2  and  C_23
    2  A    between atoms: C_5  and  O_9
    3  A    between atoms: O_9  and  C_17
    4  A    between atoms: C_26  and  O_30
                            x       y       z     vdW  Elec       q    Type
                         _______ _______ _______ _____ _____    ______ ____

>  <TORSDO>
F 4

$$$$
=
 OpenBabel11072411013D

 30 33  0  0  1  0  0  0  0  0999 V2000
  161.6700  205.5440  150.9920 O   0  0  0  0  0  0  0  0  0  0  0  0
  161.4560  202.6910  148.1920 C   0  0  1  0  0  3  0  0  0  0  0  0
  160.8550  204.6740  150.2120 C   0  0  1  0  0  3  0  0  0  0  0  0
  161.8820  204.6900  144.5140 O   0  0  0  0  0  1  0  0  0  0  0  0
  162.0010  204.0760  148.1530 N   0  0  2  0  0  0  0  0  0  0  0  0
  161.0410  205.0090  148.7330 C   0  0  0  0  0  2  0  0  0  0  0  0
  160.8080  202.3810  149.4220 O   0  0  0  0  0  0  0  0  0  0  0  0
  161.2620  203.2120  150.4670 C   0  0  2  0  0  3  0  0  0  0  0  0
  161.3730  204.2940  145.7510 C   0  0  1  0  0  3  0  0  0  0  0  0
  161.0100  202.8200  145.7140 C   0  0  1  0  0  3  0  0  0  0  0  0
  160.6860  202.7240  151.7810 C   0  0  0  0  0  1  0  0  0  0  0  0
  160.4490  202.4270  147.0680 C   0  0  0  0  0  2  0  0  0  0  0  0
  162.4350  204.5160  146.8210 C   0  0  0  0  0  2  0  0  0  0  0  0
  159.7030  201.3290  144.8900 O   0  0  0  0  0  1  0  0  0  0  0  0
  160.0450  202.5900  144.7330 O   0  0  0  0  0  0  0  0  0  0  0  0
  161.8580  209.6630  150.2960 C   0  0  0  0  0  0  0  0  0  0  0  0
  161.9550  210.8910  150.0310 O   0  0  0  0  0  0  0  0  0  0  0  0
  162.1740  207.4190  149.5670 C   0  0  0  0  0  3  0  0  0  0  0  0
  161.7220  206.9260  150.7880 C   0  0  0  0  0  0  0  0  0  0  0  0
  161.3250  207.8340  151.7750 C   0  0  0  0  0  3  0  0  0  0  0  0
  162.2330  208.7580  149.3510 N   0  0  0  0  0  0  0  0  0  0  0  0
  161.3790  209.2170  151.5540 C   0  0  1  0  0  3  0  0  0  0  0  0
  161.8840  211.1340  155.9540 O   0  0  0  0  0  0  0  0  0  0  0  0
  160.9440  210.1330  152.6500 C   0  0  0  0  0  0  0  0  0  0  0  0
  159.3100  211.8540  153.6000 C   0  0  0  0  0  3  0  0  0  0  0  0
  161.6180  210.1850  153.8080 C   0  0  0  0  0  3  0  0  0  0  0  0
  161.2060  211.0780  154.8950 C   0  0  0  0  0  0  0  0  0  0  0  0
  159.7720  211.0670  152.3990 C   0  0  0  0  0  2  0  0  0  0  0  0
  159.9870  211.8800  154.7470 C   0  0  0  0  0  0  0  0  0  0  0  0
  159.5230  212.6550  155.8020 O   0  0  0  0  0  1  0  0  0  0  0  0
  2 12  1  6  0  0  0
  2  7  1  0  0  0  0
  3  8  1  0  0  0  0
  3  1  1  1  0  0  0
  5 13  1  6  0  0  0
  5  2  1  0  0  0  0
  5  6  1  0  0  0  0
  6  3  1  0  0  0  0
  7  8  1  0  0  0  0
  8 11  1  1  0  0  0
  9  4  1  6  0  0  0
  9 13  1  0  0  0  0
 10 15  1  6  0  0  0
 10  9  1  0  0  0  0
 10 12  1  0  0  0  0
 15 14  1  0  0  0  0
 16 22  1  0  0  0  0
 17 16  2  0  0  0  0
 18 19  1  0  0  0  0
 19  1  1  0  0  0  0
 19 20  2  0  0  0  0
 21 18  2  0  0  0  0
 21 16  1  0  0  0  0
 22 20  1  0  0  0  0
 22 24  1  1  0  0  0
 24 26  2  0  0  0  0
 25 29  2  0  0  0  0
 26 27  1  0  0  0  0
 27 23  2  0  0  0  0
 28 24  1  0  0  0  0
 28 25  1  0  0  0  0
 29 27  1  0  0  0  0
 29 30  1  0  0  0  0
M  END
>  <MODEL>
5

>  <REMARK>
 VINA RESULT:      -8.2      1.963      9.405
  Name = 
  4 active torsions:
  status: ('A' for Active; 'I' for Inactive)
    1  A    between atoms: C_2  and  C_23
    2  A    between atoms: C_5  and  O_9
    3  A    between atoms: O_9  and  C_17
    4  A    between atoms: C_26  and  O_30
                            x       y       z     vdW  Elec       q    Type
                         _______ _______ _______ _____ _____    ______ ____

>  <TORSDO>
F 4

$$$$
=
 OpenBabel11072411013D

 30 33  0  0  1  0  0  0  0  0999 V2000
  160.4310  208.0590  154.1280 O   0  0  0  0  0  0  0  0  0  0  0  0
  159.4020  210.7000  156.9540 C   0  0  1  0  0  3  0  0  0  0  0  0
  160.7880  209.1970  154.9060 C   0  0  1  0  0  3  0  0  0  0  0  0
  156.8970  213.4830  155.0340 O   0  0  0  0  0  1  0  0  0  0  0  0
  158.7890  210.3700  155.6390 N   0  0  2  0  0  0  0  0  0  0  0  0
  159.8140  210.3340  154.6020 C   0  0  0  0  0  2  0  0  0  0  0  0
  160.6310  210.0170  157.1830 O   0  0  0  0  0  0  0  0  0  0  0  0
  160.7230  208.8460  156.4030 C   0  0  2  0  0  3  0  0  0  0  0  0
  158.0210  212.7260  155.3640 C   0  0  1  0  0  3  0  0  0  0  0  0
  158.4500  213.0280  156.7890 C   0  0  1  0  0  3  0  0  0  0  0  0
  161.9530  208.0630  156.8170 C   0  0  0  0  0  1  0  0  0  0  0  0
  159.6790  212.1990  157.1110 C   0  0  0  0  0  2  0  0  0  0  0  0
  157.6740  211.2450  155.2560 C   0  0  0  0  0  2  0  0  0  0  0  0
  160.0500  214.4530  156.6430 O   0  0  0  0  0  1  0  0  0  0  0  0
  158.7640  214.3830  156.9150 O   0  0  0  0  0  0  0  0  0  0  0  0
  161.9390  207.4620  150.2740 C   0  0  0  0  0  0  0  0  0  0  0  0
  162.3960  207.3520  149.1050 O   0  0  0  0  0  0  0  0  0  0  0  0
  161.5380  208.8710  152.1490 C   0  0  0  0  0  3  0  0  0  0  0  0
  160.9260  207.8290  152.8410 C   0  0  0  0  0  0  0  0  0  0  0  0
  160.8310  206.5770  152.2250 C   0  0  0  0  0  3  0  0  0  0  0  0
  162.0230  208.6690  150.8980 N   0  0  0  0  0  0  0  0  0  0  0  0
  161.3360  206.3630  150.9340 C   0  0  1  0  0  3  0  0  0  0  0  0
  161.2970  203.3620  147.1540 O   0  0  0  0  0  0  0  0  0  0  0  0
  161.2000  205.0030  150.3330 C   0  0  0  0  0  0  0  0  0  0  0  0
  160.7660  202.4940  150.5670 C   0  0  0  0  0  3  0  0  0  0  0  0
  161.2930  204.8270  149.0070 C   0  0  0  0  0  3  0  0  0  0  0  0
  161.1630  203.5000  148.3980 C   0  0  0  0  0  0  0  0  0  0  0  0
  161.0370  203.8080  151.2580 C   0  0  0  0  0  2  0  0  0  0  0  0
  160.8490  202.3450  149.2470 C   0  0  0  0  0  0  0  0  0  0  0  0
  160.6220  201.0980  148.6800 O   0  0  0  0  0  1  0  0  0  0  0  0
  2 12  1  6  0  0  0
  2  7  1  0  0  0  0
  3  1  1  6  0  0  0
  3  8  1  0  0  0  0
  5  6  1  6  0  0  0
  5  2  1  0  0  0  0
  6  3  1  0  0  0  0
  8 11  1  1  0  0  0
  8  7  1  0  0  0  0
  9  4  1  1  0  0  0
  9 10  1  0  0  0  0
 10 15  1  6  0  0  0
 10 12  1  0  0  0  0
 13  9  1  0  0  0  0
 13  5  1  0  0  0  0
 14 15  1  0  0  0  0
 16 21  1  0  0  0  0
 16 22  1  0  0  0  0
 17 16  2  0  0  0  0
 18 19  1  0  0  0  0
 19  1  1  0  0  0  0
 20 19  2  0  0  0  0
 21 18  2  0  0  0  0
 22 24  1  6  0  0  0
 22 20  1  0  0  0  0
 23 27  2  0  0  0  0
 24 28  1  0  0  0  0
 25 28  1  0  0  0  0
 26 24  2  0  0  0  0
 27 26  1  0  0  0  0
 27 29  1  0  0  0  0
 29 25  2  0  0  0  0
 30 29  1  0  0  0  0
M  END
>  <MODEL>
6

>  <REMARK>
 VINA RESULT:      -8.1      2.029      3.301
  Name = 
  4 active torsions:
  status: ('A' for Active; 'I' for Inactive)
    1  A    between atoms: C_2  and  C_23
    2  A    between atoms: C_5  and  O_9
    3  A    between atoms: O_9  and  C_17
    4  A    between atoms: C_26  and  O_30
                            x       y       z     vdW  Elec       q    Type
                         _______ _______ _______ _____ _____    ______ ____

>  <TORSDO>
F 4

$$$$
=
 OpenBabel11072411013D

 30 33  0  0  1  0  0  0  0  0999 V2000
  160.7830  210.7260  152.9040 O   0  0  0  0  0  0  0  0  0  0  0  0
  158.2880  213.8350  153.2660 C   0  0  1  0  0  3  0  0  0  0  0  0
  159.5790  211.3650  152.4890 C   0  0  1  0  0  3  0  0  0  0  0  0
  156.0400  213.0760  156.7410 O   0  0  0  0  0  1  0  0  0  0  0  0
  158.7560  212.8240  154.2510 N   0  0  2  0  0  0  0  0  0  0  0  0
  158.6390  211.4830  153.6880 C   0  0  0  0  0  2  0  0  0  0  0  0
  158.7380  213.5730  151.9400 O   0  0  0  0  0  0  0  0  0  0  0  0
  159.8950  212.7670  151.9390 C   0  0  2  0  0  3  0  0  0  0  0  0
  156.5790  212.9430  155.4610 C   0  0  1  0  0  3  0  0  0  0  0  0
  156.1680  214.1230  154.5990 C   0  0  1  0  0  3  0  0  0  0  0  0
  160.4390  212.6710  150.5280 C   0  0  0  0  0  1  0  0  0  0  0  0
  156.7600  213.9400  153.2140 C   0  0  0  0  0  2  0  0  0  0  0  0
  158.1000  212.9100  155.5620 C   0  0  0  0  0  2  0  0  0  0  0  0
  154.5170  213.8250  153.2590 O   0  0  0  0  0  1  0  0  0  0  0  0
  154.7760  214.1790  154.5000 O   0  0  0  0  0  0  0  0  0  0  0  0
  161.1710  206.5840  153.3180 C   0  0  0  0  0  0  0  0  0  0  0  0
  161.3070  205.3450  153.5090 O   0  0  0  0  0  0  0  0  0  0  0  0
  160.9990  208.7560  154.2730 C   0  0  0  0  0  3  0  0  0  0  0  0
  160.9120  209.3380  153.0110 C   0  0  0  0  0  0  0  0  0  0  0  0
  160.9500  208.5110  151.8840 C   0  0  0  0  0  3  0  0  0  0  0  0
  161.1260  207.4110  154.3970 N   0  0  0  0  0  0  0  0  0  0  0  0
  161.0760  207.1200  152.0090 C   0  0  1  0  0  3  0  0  0  0  0  0
  160.7400  202.9020  149.6870 O   0  0  0  0  0  0  0  0  0  0  0  0
  161.1130  206.2930  150.7660 C   0  0  0  0  0  0  0  0  0  0  0  0
  161.4510  206.0780  148.2410 C   0  0  0  0  0  3  0  0  0  0  0  0
  160.9270  204.9670  150.8180 C   0  0  0  0  0  3  0  0  0  0  0  0
  160.9590  204.1390  149.6090 C   0  0  0  0  0  0  0  0  0  0  0  0
  161.2830  206.9940  149.4280 C   0  0  0  0  0  2  0  0  0  0  0  0
  161.2770  204.7600  148.3180 C   0  0  0  0  0  0  0  0  0  0  0  0
  161.4130  203.9800  147.1780 O   0  0  0  0  0  1  0  0  0  0  0  0
  1 19  1  0  0  0  0
  2 12  1  6  0  0  0
  2  5  1  0  0  0  0
  3  1  1  1  0  0  0
  3  6  1  0  0  0  0
  5  6  1  6  0  0  0
  5 13  1  0  0  0  0
  7  2  1  0  0  0  0
  8 11  1  6  0  0  0
  8  7  1  0  0  0  0
  8  3  1  0  0  0  0
  9 13  1  0  0  0  0
  9  4  1  1  0  0  0
 10 15  1  6  0  0  0
 10  9  1  0  0  0  0
 12 10  1  0  0  0  0
 14 15  1  0  0  0  0
 16 17  2  0  0  0  0
 16 21  1  0  0  0  0
 18 21  2  0  0  0  0
 19 18  1  0  0  0  0
 20 22  1  0  0  0  0
 20 19  2  0  0  0  0
 22 24  1  6  0  0  0
 22 16  1  0  0  0  0
 24 26  2  0  0  0  0
 25 29  2  0  0  0  0
 25 28  1  0  0  0  0
 27 23  2  0  0  0  0
 27 26  1  0  0  0  0
 28 24  1  0  0  0  0
 29 27  1  0  0  0  0
 30 29  1  0  0  0  0
M  END
>  <MODEL>
7

>  <REMARK>
 VINA RESULT:      -8.1      3.150      5.354
  Name = 
  4 active torsions:
  status: ('A' for Active; 'I' for Inactive)
    1  A    between atoms: C_2  and  C_23
    2  A    between atoms: C_5  and  O_9
    3  A    between atoms: O_9  and  C_17
    4  A    between atoms: C_26  and  O_30
                            x       y       z     vdW  Elec       q    Type
                         _______ _______ _______ _____ _____    ______ ____

>  <TORSDO>
F 4

$$$$
=
 OpenBabel11072411013D

 30 33  0  0  1  0  0  0  0  0999 V2000
  161.8580  206.2310  150.7320 O   0  0  0  0  0  0  0  0  0  0  0  0
  161.5700  203.1000  148.2540 C   0  0  1  0  0  3  0  0  0  0  0  0
  161.0240  205.2770  150.0810 C   0  0  1  0  0  3  0  0  0  0  0  0
  161.8210  204.7090  144.3740 O   0  0  0  0  0  1  0  0  0  0  0  0
  162.0940  204.4780  148.0500 N   0  0  2  0  0  0  0  0  0  0  0  0
  161.1450  205.4580  148.5690 C   0  0  0  0  0  2  0  0  0  0  0  0
  160.9760  202.9140  149.5360 O   0  0  0  0  0  0  0  0  0  0  0  0
  161.4610  203.8530  150.4700 C   0  0  2  0  0  3  0  0  0  0  0  0
  161.3670  204.4400  145.6650 C   0  0  1  0  0  3  0  0  0  0  0  0
  161.0230  202.9660  145.7970 C   0  0  1  0  0  3  0  0  0  0  0  0
  160.9450  203.5000  151.8500 C   0  0  0  0  0  1  0  0  0  0  0  0
  160.5230  202.7110  147.2070 C   0  0  0  0  0  2  0  0  0  0  0  0
  162.4680  204.7820  146.6630 C   0  0  0  0  0  2  0  0  0  0  0  0
  160.0010  201.3100  144.8890 O   0  0  0  0  0  1  0  0  0  0  0  0
  160.0220  202.6260  144.8860 O   0  0  0  0  0  0  0  0  0  0  0  0
  160.6920  208.2900  154.1790 C   0  0  0  0  0  0  0  0  0  0  0  0
  160.3420  208.8500  155.2530 O   0  0  0  0  0  0  0  0  0  0  0  0
  161.5820  206.3540  153.1210 C   0  0  0  0  0  3  0  0  0  0  0  0
  161.4590  206.9440  151.8670 C   0  0  0  0  0  0  0  0  0  0  0  0
  160.9450  208.2420  151.7810 C   0  0  0  0  0  3  0  0  0  0  0  0
  161.2000  207.0290  154.2350 N   0  0  0  0  0  0  0  0  0  0  0  0
  160.5540  208.9450  152.9300 C   0  0  1  0  0  3  0  0  0  0  0  0
  157.3570  212.4100  153.9620 O   0  0  0  0  0  0  0  0  0  0  0  0
  160.0100  210.3260  152.7690 C   0  0  0  0  0  0  0  0  0  0  0  0
  160.0810  212.6370  151.6790 C   0  0  0  0  0  3  0  0  0  0  0  0
  158.9130  210.7130  153.4360 C   0  0  0  0  0  3  0  0  0  0  0  0
  158.3640  212.0650  153.2910 C   0  0  0  0  0  0  0  0  0  0  0  0
  160.7700  211.3140  151.9000 C   0  0  0  0  0  2  0  0  0  0  0  0
  158.9820  212.9960  152.3410 C   0  0  0  0  0  0  0  0  0  0  0  0
  158.4180  214.2450  152.1140 O   0  0  0  0  0  1  0  0  0  0  0  0
  1 19  1  0  0  0  0
  2 12  1  6  0  0  0
  2  7  1  0  0  0  0
  3  8  1  0  0  0  0
  3  1  1  1  0  0  0
  5 13  1  6  0  0  0
  5  2  1  0  0  0  0
  5  6  1  0  0  0  0
  6  3  1  0  0  0  0
  7  8  1  0  0  0  0
  8 11  1  1  0  0  0
  9  4  1  6  0  0  0
  9 10  1  0  0  0  0
  9 13  1  0  0  0  0
 10 15  1  6  0  0  0
 10 12  1  0  0  0  0
 15 14  1  0  0  0  0
 16 21  1  0  0  0  0
 16 17  2  0  0  0  0
 18 21  2  0  0  0  0
 19 18  1  0  0  0  0
 20 19  2  0  0  0  0
 20 22  1  0  0  0  0
 22 24  1  6  0  0  0
 22 16  1  0  0  0  0
 24 26  2  0  0  0  0
 25 28  1  0  0  0  0
 25 29  2  0  0  0  0
 27 26  1  0  0  0  0
 27 23  2  0  0  0  0
 28 24  1  0  0  0  0
 29 27  1  0  0  0  0
 30 29  1  0  0  0  0
M  END
>  <MODEL>
8

>  <REMARK>
 VINA RESULT:      -8.0      2.169      9.614
  Name = 
  4 active torsions:
  status: ('A' for Active; 'I' for Inactive)
    1  A    between atoms: C_2  and  C_23
    2  A    between atoms: C_5  and  O_9
    3  A    between atoms: O_9  and  C_17
    4  A    between atoms: C_26  and  O_30
                            x       y       z     vdW  Elec       q    Type
                         _______ _______ _______ _____ _____    ______ ____

>  <TORSDO>
F 4

$$$$
=
 OpenBabel11072411013D

 30 33  0  0  1  0  0  0  0  0999 V2000
  161.9820  207.7210  150.9890 O   0  0  0  0  0  0  0  0  0  0  0  0
  161.4310  210.2120  154.0730 C   0  0  1  0  0  3  0  0  0  0  0  0
  161.1580  208.6930  151.6260 C   0  0  1  0  0  3  0  0  0  0  0  0
  160.0860  207.7960  157.2450 O   0  0  0  0  0  1  0  0  0  0  0  0
  161.6090  208.7360  154.0140 N   0  0  2  0  0  0  0  0  0  0  0  0
  160.7340  208.1660  152.9950 C   0  0  0  0  0  2  0  0  0  0  0  0
  161.3420  210.8150  152.7850 O   0  0  0  0  0  0  0  0  0  0  0  0
  161.9400  210.0070  151.7960 C   0  0  2  0  0  3  0  0  0  0  0  0
  160.1440  208.4440  156.0110 C   0  0  1  0  0  3  0  0  0  0  0  0
  160.1260  209.9490  156.2140 C   0  0  1  0  0  3  0  0  0  0  0  0
  161.9850  210.7690  150.4870 C   0  0  0  0  0  1  0  0  0  0  0  0
  160.1780  210.6210  154.8540 C   0  0  0  0  0  2  0  0  0  0  0  0
  161.4380  208.0560  155.3050 C   0  0  0  0  0  2  0  0  0  0  0  0
  158.1460  210.7200  155.9050 O   0  0  0  0  0  1  0  0  0  0  0  0
  158.9530  210.3280  156.8680 O   0  0  0  0  0  0  0  0  0  0  0  0
  161.2180  206.3330  147.1200 C   0  0  0  0  0  0  0  0  0  0  0  0
  160.9680  205.9790  145.9360 O   0  0  0  0  0  0  0  0  0  0  0  0
  161.5690  208.1210  148.6500 C   0  0  0  0  0  3  0  0  0  0  0  0
  161.7270  207.2270  149.7060 C   0  0  0  0  0  0  0  0  0  0  0  0
  161.6330  205.8560  149.4470 C   0  0  0  0  0  3  0  0  0  0  0  0
  161.3200  207.6610  147.3980 N   0  0  0  0  0  0  0  0  0  0  0  0
  161.3810  205.3770  148.1540 C   0  0  1  0  0  3  0  0  0  0  0  0
  160.9980  200.8580  149.8040 O   0  0  0  0  0  0  0  0  0  0  0  0
  161.2880  203.9020  147.9450 C   0  0  0  0  0  0  0  0  0  0  0  0
  161.2530  201.8660  146.3980 C   0  0  0  0  0  3  0  0  0  0  0  0
  161.2070  203.0650  148.9890 C   0  0  0  0  0  3  0  0  0  0  0  0
  161.1140  201.6140  148.8040 C   0  0  0  0  0  0  0  0  0  0  0  0
  161.2030  203.3690  146.5240 C   0  0  0  0  0  2  0  0  0  0  0  0
  161.1880  201.0530  147.4510 C   0  0  0  0  0  0  0  0  0  0  0  0
  161.2040  199.6780  147.2600 O   0  0  0  0  0  1  0  0  0  0  0  0
  2 12  1  1  0  0  0
  3  1  1  1  0  0  0
  3  8  1  0  0  0  0
  3  6  1  0  0  0  0
  5  6  1  6  0  0  0
  5  2  1  0  0  0  0
  5 13  1  0  0  0  0
  7  2  1  0  0  0  0
  8 11  1  6  0  0  0
  8  7  1  0  0  0  0
  9 10  1  0  0  0  0
  9  4  1  1  0  0  0
 10 15  1  6  0  0  0
 12 10  1  0  0  0  0
 13  9  1  0  0  0  0
 14 15  1  0  0  0  0
 16 21  1  0  0  0  0
 16 22  1  0  0  0  0
 17 16  2  0  0  0  0
 18 19  1  0  0  0  0
 19  1  1  0  0  0  0
 20 19  2  0  0  0  0
 21 18  2  0  0  0  0
 22 24  1  1  0  0  0
 22 20  1  0  0  0  0
 24 26  2  0  0  0  0
 25 28  1  0  0  0  0
 25 29  2  0  0  0  0
 27 26  1  0  0  0  0
 27 23  2  0  0  0  0
 28 24  1  0  0  0  0
 29 27  1  0  0  0  0
 30 29  1  0  0  0  0
M  END
>  <MODEL>
9

>  <REMARK>
 VINA RESULT:      -7.5      1.632      2.455
  Name = 
  4 active torsions:
  status: ('A' for Active; 'I' for Inactive)
    1  A    between atoms: C_2  and  C_23
    2  A    between atoms: C_5  and  O_9
    3  A    between atoms: O_9  and  C_17
    4  A    between atoms: C_26  and  O_30
                            x       y       z     vdW  Elec       q    Type
                         _______ _______ _______ _____ _____    ______ ____

>  <TORSDO>
F 4

$$$$
