=
 OpenBabel11072411143D

 30 34  0  0  1  0  0  0  0  0999 V2000
  161.8890  207.7690  151.2520 C   0  0  0  0  0  0  0  0  0  0  0  0
  161.9650  205.1480  152.4100 C   0  0  0  0  0  2  0  0  0  0  0  0
  161.4570  208.9650  153.3800 C   0  0  2  0  0  3  0  0  0  0  0  0
  161.5560  206.1500  149.3640 C   0  0  2  0  0  3  0  0  0  0  0  0
  161.8810  207.4690  149.9910 C   0  0  0  0  0  0  0  0  0  0  0  0
  161.7180  207.7300  152.5410 C   0  0  0  0  0  0  0  0  0  0  0  0
  160.9910  206.8650  148.2540 C   0  0  1  0  0  3  0  0  0  0  0  0
  161.0690  204.6070  151.3120 C   0  0  0  0  0  0  0  0  0  0  0  0
  159.5590  207.1730  156.2230 C   0  0  0  0  0  1  0  0  0  0  0  0
  160.4800  205.4590  150.2100 C   0  0  0  0  0  2  0  0  0  0  0  0
  161.4130  208.1500  148.7690 N   0  0  0  0  0  2  0  0  0  0  0  0
  160.8690  203.4010  151.2690 O   0  0  0  0  0  0  0  0  0  0  0  0
  160.8460  206.2700  154.2440 N   0  0  0  0  0  0  0  0  0  0  0  0
  161.4720  206.3860  153.1160 C   0  0  0  0  0  0  0  0  0  0  0  0
  160.3680  207.4010  154.9960 C   0  0  0  0  0  0  0  0  0  0  0  0
  160.6320  208.6540  154.6050 C   0  0  0  0  0  3  0  0  0  0  0  0
  160.7830  206.5630  145.7410 C   0  0  0  0  0  2  0  0  0  0  0  0
  160.0010  203.3520  144.1990 N   0  0  0  0  0  2  0  0  0  0  0  0
  162.0200  203.8800  145.2040 O   0  0  0  0  0  0  0  0  0  0  0  0
  162.9240  204.7750  145.8460 C   0  0  0  0  0  2  0  0  0  0  0  0
  159.9280  205.3050  145.5960 C   0  0  0  0  0  2  0  0  0  0  0  0
  160.6670  204.1600  144.9570 C   0  0  0  0  0  0  0  0  0  0  0  0
  162.3700  205.2060  147.1200 N   0  0  0  0  0  2  0  0  0  0  0  0
  161.7230  206.5100  146.9620 C   0  0  2  0  0  3  0  0  0  0  0  0
  160.8760  210.1210  152.6060 C   0  0  0  0  0  0  0  0  0  0  0  0
  159.6480  210.6540  153.0050 C   0  0  0  0  0  3  0  0  0  0  0  0
  159.8080  212.3400  151.2760 C   0  0  0  0  0  3  0  0  0  0  0  0
  161.0390  211.8160  150.8780 C   0  0  0  0  0  3  0  0  0  0  0  0
  159.1110  211.7570  152.3390 C   0  0  0  0  0  3  0  0  0  0  0  0
  161.5750  210.7160  151.5440 C   0  0  0  0  0  3  0  0  0  0  0  0
  1  6  2  0  0  0  0
  2 14  1  0  0  0  0
  3 25  1  6  0  0  0
  3 16  1  0  0  0  0
  4  5  1  0  0  0  0
  4 10  1  1  0  0  0
  5  1  2  0  0  0  0
  6 14  1  0  0  0  0
  6  3  1  0  0  0  0
  7 11  1  1  0  0  0
  7  4  1  0  0  0  0
  8  2  1  0  0  0  0
 10  8  1  0  0  0  0
 11  5  1  0  0  0  0
 12  8  2  0  0  0  0
 13 15  1  0  0  0  0
 14 13  2  0  0  0  0
 15  9  1  0  0  0  0
 16 15  2  0  0  0  0
 18 22  2  0  0  0  0
 19 20  1  0  0  0  0
 20 23  1  0  0  0  0
 21 17  1  0  0  0  0
 22 19  1  0  0  0  0
 22 21  1  0  0  0  0
 24 17  1  6  0  0  0
 24 23  1  0  0  0  0
 24  7  1  0  0  0  0
 25 26  1  0  0  0  0
 27 29  1  0  0  0  0
 28 27  2  0  0  0  0
 28 30  1  0  0  0  0
 29 26  2  0  0  0  0
 30 25  2  0  0  0  0
M  END
>  <MODEL>
1

>  <REMARK>
 VINA RESULT:      -8.2      0.000      0.000
  Name = 
  2 active torsions:
  status: ('A' for Active; 'I' for Inactive)
    1  A    between atoms: C_3  and  C_5
    2  A    between atoms: C_13  and  C_30
                            x       y       z     vdW  Elec       q    Type
                         _______ _______ _______ _____ _____    ______ ____

>  <TORSDO>
F 2

$$$$
=
 OpenBabel11072411143D

 30 34  0  0  1  0  0  0  0  0999 V2000
  160.6310  205.9070  149.5570 C   0  0  0  0  0  0  0  0  0  0  0  0
  160.2350  204.6290  152.0910 C   0  0  0  0  0  2  0  0  0  0  0  0
  160.4960  203.8300  148.2100 C   0  0  2  0  0  3  0  0  0  0  0  0
  161.4380  207.5220  151.2990 C   0  0  2  0  0  3  0  0  0  0  0  0
  160.9690  207.0970  149.9430 C   0  0  0  0  0  0  0  0  0  0  0  0
  160.4560  204.6190  149.5030 C   0  0  0  0  0  0  0  0  0  0  0  0
  162.2810  208.4920  150.6570 C   0  0  1  0  0  3  0  0  0  0  0  0
  161.3850  205.4120  152.6970 C   0  0  0  0  0  0  0  0  0  0  0  0
  161.5660  200.4690  149.7770 C   0  0  0  0  0  1  0  0  0  0  0  0
  162.2490  206.3760  151.9160 C   0  0  0  0  0  2  0  0  0  0  0  0
  161.7460  208.1980  149.3440 N   0  0  0  0  0  2  0  0  0  0  0  0
  161.5810  205.3150  153.9010 O   0  0  0  0  0  0  0  0  0  0  0  0
  160.8400  202.6480  150.8310 N   0  0  0  0  0  0  0  0  0  0  0  0
  160.5340  203.9070  150.8010 C   0  0  0  0  0  0  0  0  0  0  0  0
  161.1100  201.8780  149.6450 C   0  0  0  0  0  0  0  0  0  0  0  0
  160.9670  202.4120  148.4260 C   0  0  0  0  0  3  0  0  0  0  0  0
  162.9340  210.4640  152.1170 C   0  0  0  0  0  2  0  0  0  0  0  0
  161.7350  210.8670  155.5380 N   0  0  0  0  0  2  0  0  0  0  0  0
  160.4340  211.1310  153.6400 O   0  0  0  0  0  0  0  0  0  0  0  0
  160.2420  211.1880  152.2290 C   0  0  0  0  0  2  0  0  0  0  0  0
  162.7060  209.9530  153.5400 C   0  0  0  0  0  2  0  0  0  0  0  0
  161.6120  210.6920  154.2630 C   0  0  0  0  0  0  0  0  0  0  0  0
  160.5460  209.8960  151.6360 N   0  0  0  0  0  2  0  0  0  0  0  0
  161.9120  209.9030  151.1090 C   0  0  2  0  0  3  0  0  0  0  0  0
  161.2680  204.5030  147.1040 C   0  0  0  0  0  0  0  0  0  0  0  0
  162.6490  204.3080  147.0260 C   0  0  0  0  0  3  0  0  0  0  0  0
  162.7330  205.6360  145.0050 C   0  0  0  0  0  3  0  0  0  0  0  0
  161.3520  205.8280  145.0740 C   0  0  0  0  0  3  0  0  0  0  0  0
  163.3820  204.8770  145.9830 C   0  0  0  0  0  3  0  0  0  0  0  0
  160.6210  205.2590  146.1140 C   0  0  0  0  0  3  0  0  0  0  0  0
  1  5  2  0  0  0  0
  2  8  1  0  0  0  0
  3 25  1  6  0  0  0
  3 16  1  0  0  0  0
  3  6  1  0  0  0  0
  4 10  1  6  0  0  0
  5  4  1  0  0  0  0
  6  1  2  0  0  0  0
  6 14  1  0  0  0  0
  7 11  1  6  0  0  0
  7 24  1  0  0  0  0
  7  4  1  0  0  0  0
  8 12  2  0  0  0  0
 10  8  1  0  0  0  0
 11  5  1  0  0  0  0
 14 13  2  0  0  0  0
 14  2  1  0  0  0  0
 15  9  1  0  0  0  0
 15 13  1  0  0  0  0
 16 15  2  0  0  0  0
 17 21  1  0  0  0  0
 19 22  1  0  0  0  0
 20 19  1  0  0  0  0
 21 22  1  0  0  0  0
 22 18  2  0  0  0  0
 23 20  1  0  0  0  0
 24 23  1  0  0  0  0
 24 17  1  1  0  0  0
 26 25  1  0  0  0  0
 27 28  2  0  0  0  0
 27 29  1  0  0  0  0
 28 30  1  0  0  0  0
 29 26  2  0  0  0  0
 30 25  2  0  0  0  0
M  END
>  <MODEL>
2

>  <REMARK>
 VINA RESULT:      -7.0      2.798      7.359
  Name = 
  2 active torsions:
  status: ('A' for Active; 'I' for Inactive)
    1  A    between atoms: C_3  and  C_5
    2  A    between atoms: C_13  and  C_30
                            x       y       z     vdW  Elec       q    Type
                         _______ _______ _______ _____ _____    ______ ____

>  <TORSDO>
F 2

$$$$
=
 OpenBabel11072411143D

 30 34  0  0  1  0  0  0  0  0999 V2000
  162.0960  206.4320  151.2540 C   0  0  0  0  0  0  0  0  0  0  0  0
  162.3320  208.9570  149.9200 C   0  0  0  0  0  2  0  0  0  0  0  0
  162.0490  205.0640  149.1860 C   0  0  2  0  0  3  0  0  0  0  0  0
  161.4230  208.1810  152.9230 C   0  0  2  0  0  3  0  0  0  0  0  0
  161.8680  206.8260  152.4680 C   0  0  0  0  0  0  0  0  0  0  0  0
  162.1470  206.3660  149.9560 C   0  0  0  0  0  0  0  0  0  0  0  0
  160.6860  207.5370  153.9750 C   0  0  1  0  0  3  0  0  0  0  0  0
  161.2540  209.5560  150.8040 C   0  0  0  0  0  0  0  0  0  0  0  0
  160.6400  206.5810  145.9290 C   0  0  0  0  0  1  0  0  0  0  0  0
  160.4970  208.7750  151.8540 C   0  0  0  0  0  2  0  0  0  0  0  0
  161.2080  206.2290  153.6430 N   0  0  0  0  0  2  0  0  0  0  0  0
  161.0330  210.7560  150.7150 O   0  0  0  0  0  0  0  0  0  0  0  0
  161.5570  207.6680  148.0190 N   0  0  0  0  0  0  0  0  0  0  0  0
  161.9830  207.6550  149.2420 C   0  0  0  0  0  0  0  0  0  0  0  0
  161.2300  206.4700  147.2890 C   0  0  0  0  0  0  0  0  0  0  0  0
  161.4410  205.2590  147.8180 C   0  0  0  0  0  3  0  0  0  0  0  0
  160.0190  208.2180  156.3290 C   0  0  0  0  0  2  0  0  0  0  0  0
  159.3240  211.6750  157.2600 N   0  0  0  0  0  2  0  0  0  0  0  0
  161.4280  210.8310  156.7820 O   0  0  0  0  0  0  0  0  0  0  0  0
  162.3310  209.7750  156.4630 C   0  0  0  0  0  2  0  0  0  0  0  0
  159.3040  209.5550  156.1310 C   0  0  0  0  0  2  0  0  0  0  0  0
  160.0300  210.7100  156.7670 C   0  0  0  0  0  0  0  0  0  0  0  0
  161.9960  209.2150  155.1630 N   0  0  0  0  0  2  0  0  0  0  0  0
  161.1830  208.0100  155.3400 C   0  0  2  0  0  3  0  0  0  0  0  0
  161.3610  203.9560  149.9420 C   0  0  0  0  0  0  0  0  0  0  0  0
  160.7070  202.9520  149.2230 C   0  0  0  0  0  3  0  0  0  0  0  0
  160.1660  201.8130  151.2880 C   0  0  0  0  0  3  0  0  0  0  0  0
  160.8240  202.8090  152.0110 C   0  0  0  0  0  3  0  0  0  0  0  0
  160.1050  201.8860  149.8930 C   0  0  0  0  0  3  0  0  0  0  0  0
  161.4250  203.8730  151.3410 C   0  0  0  0  0  3  0  0  0  0  0  0
  1  5  2  0  0  0  0
  2  8  1  0  0  0  0
  3 25  1  1  0  0  0
  3  6  1  0  0  0  0
  4 10  1  6  0  0  0
  4  7  1  0  0  0  0
  5  4  1  0  0  0  0
  5 11  1  0  0  0  0
  6  1  2  0  0  0  0
  7 11  1  1  0  0  0
  7 24  1  0  0  0  0
  8 10  1  0  0  0  0
  9 15  1  0  0  0  0
 12  8  2  0  0  0  0
 13 14  2  0  0  0  0
 14  2  1  0  0  0  0
 14  6  1  0  0  0  0
 15 16  2  0  0  0  0
 15 13  1  0  0  0  0
 16  3  1  0  0  0  0
 20 19  1  0  0  0  0
 21 17  1  0  0  0  0
 21 22  1  0  0  0  0
 22 19  1  0  0  0  0
 22 18  2  0  0  0  0
 23 24  1  0  0  0  0
 23 20  1  0  0  0  0
 24 17  1  1  0  0  0
 25 30  1  0  0  0  0
 26 29  1  0  0  0  0
 26 25  2  0  0  0  0
 27 28  1  0  0  0  0
 29 27  2  0  0  0  0
 30 28  2  0  0  0  0
M  END
>  <MODEL>
3

>  <REMARK>
 VINA RESULT:      -6.4      2.984      8.433
  Name = 
  2 active torsions:
  status: ('A' for Active; 'I' for Inactive)
    1  A    between atoms: C_3  and  C_5
    2  A    between atoms: C_13  and  C_30
                            x       y       z     vdW  Elec       q    Type
                         _______ _______ _______ _____ _____    ______ ____

>  <TORSDO>
F 2

$$$$
=
 OpenBabel11072411143D

 30 34  0  0  1  0  0  0  0  0999 V2000
  160.8420  207.5080  149.3100 C   0  0  0  0  0  0  0  0  0  0  0  0
  160.7450  207.3900  152.1720 C   0  0  0  0  0  2  0  0  0  0  0  0
  160.5850  205.0680  148.9530 C   0  0  2  0  0  3  0  0  0  0  0  0
  161.8180  209.6650  150.1420 C   0  0  2  0  0  3  0  0  0  0  0  0
  161.2060  208.7400  149.1370 C   0  0  0  0  0  0  0  0  0  0  0  0
  160.6780  206.3170  149.8070 C   0  0  0  0  0  0  0  0  0  0  0  0
  162.5720  210.2580  149.0730 C   0  0  1  0  0  3  0  0  0  0  0  0
  161.9460  208.3120  152.2780 C   0  0  0  0  0  0  0  0  0  0  0  0
  161.8630  202.6050  151.6360 C   0  0  0  0  0  1  0  0  0  0  0  0
  162.7060  208.8440  151.0840 C   0  0  0  0  0  2  0  0  0  0  0  0
  161.8990  209.4730  148.0610 N   0  0  0  0  0  2  0  0  0  0  0  0
  162.2750  208.7080  153.3880 O   0  0  0  0  0  0  0  0  0  0  0  0
  161.2310  205.0480  151.7760 N   0  0  0  0  0  0  0  0  0  0  0  0
  160.9080  206.1940  151.2660 C   0  0  0  0  0  0  0  0  0  0  0  0
  161.3780  203.8520  150.9880 C   0  0  0  0  0  0  0  0  0  0  0  0
  161.0940  203.8460  149.6800 C   0  0  0  0  0  3  0  0  0  0  0  0
  160.8310  211.9630  148.3550 C   0  0  0  0  0  2  0  0  0  0  0  0
  160.7210  213.3700  144.9920 N   0  0  0  0  0  2  0  0  0  0  0  0
  162.3320  213.8650  146.5810 O   0  0  0  0  0  0  0  0  0  0  0  0
  162.8980  213.7770  147.8860 C   0  0  0  0  0  2  0  0  0  0  0  0
  160.7990  211.8280  146.8320 C   0  0  0  0  0  2  0  0  0  0  0  0
  161.2730  213.0680  146.1210 C   0  0  0  0  0  0  0  0  0  0  0  0
  163.2870  212.4040  148.1650 N   0  0  0  0  0  2  0  0  0  0  0  0
  162.2380  211.7430  148.9450 C   0  0  2  0  0  3  0  0  0  0  0  0
  161.2210  205.2050  147.5940 C   0  0  0  0  0  0  0  0  0  0  0  0
  162.4800  204.6410  147.3760 C   0  0  0  0  0  3  0  0  0  0  0  0
  162.3980  205.3290  145.0580 C   0  0  0  0  0  3  0  0  0  0  0  0
  161.1360  205.8880  145.2680 C   0  0  0  0  0  3  0  0  0  0  0  0
  163.0710  204.7070  146.1130 C   0  0  0  0  0  3  0  0  0  0  0  0
  160.5460  205.8210  146.5280 C   0  0  0  0  0  3  0  0  0  0  0  0
  1  6  2  0  0  0  0
  2  8  1  0  0  0  0
  3 25  1  6  0  0  0
  3 16  1  0  0  0  0
  3  6  1  0  0  0  0
  4 10  1  1  0  0  0
  5  1  2  0  0  0  0
  5  4  1  0  0  0  0
  6 14  1  0  0  0  0
  7 11  1  6  0  0  0
  7  4  1  0  0  0  0
  8 12  2  0  0  0  0
 10  8  1  0  0  0  0
 11  5  1  0  0  0  0
 14 13  2  0  0  0  0
 14  2  1  0  0  0  0
 15  9  1  0  0  0  0
 15 13  1  0  0  0  0
 16 15  2  0  0  0  0
 18 22  2  0  0  0  0
 19 20  1  0  0  0  0
 20 23  1  0  0  0  0
 21 17  1  0  0  0  0
 22 19  1  0  0  0  0
 22 21  1  0  0  0  0
 23 24  1  0  0  0  0
 24 17  1  6  0  0  0
 24  7  1  0  0  0  0
 26 25  1  0  0  0  0
 27 28  2  0  0  0  0
 27 29  1  0  0  0  0
 28 30  1  0  0  0  0
 29 26  2  0  0  0  0
 30 25  2  0  0  0  0
M  END
>  <MODEL>
4

>  <REMARK>
 VINA RESULT:      -6.3      3.260      6.507
  Name = 
  2 active torsions:
  status: ('A' for Active; 'I' for Inactive)
    1  A    between atoms: C_3  and  C_5
    2  A    between atoms: C_13  and  C_30
                            x       y       z     vdW  Elec       q    Type
                         _______ _______ _______ _____ _____    ______ ____

>  <TORSDO>
F 2

$$$$
=
 OpenBabel11072411143D

 30 34  0  0  1  0  0  0  0  0999 V2000
  162.3020  208.2230  151.5760 C   0  0  0  0  0  0  0  0  0  0  0  0
  162.8330  206.4520  149.3860 C   0  0  0  0  0  2  0  0  0  0  0  0
  161.8600  206.4360  153.2370 C   0  0  2  0  0  3  0  0  0  0  0  0
  162.0640  209.5900  149.4850 C   0  0  2  0  0  3  0  0  0  0  0  0
  162.2440  209.3580  150.9530 C   0  0  0  0  0  0  0  0  0  0  0  0
  162.2330  206.9560  151.8630 C   0  0  0  0  0  0  0  0  0  0  0  0
  161.3230  210.7780  149.8070 C   0  0  1  0  0  3  0  0  0  0  0  0
  161.9440  207.2740  148.4710 C   0  0  0  0  0  0  0  0  0  0  0  0
  160.4490  203.0440  152.0570 C   0  0  0  0  0  1  0  0  0  0  0  0
  161.1610  208.4850  148.9240 C   0  0  0  0  0  2  0  0  0  0  0  0
  161.5960  210.6560  151.2230 N   0  0  0  0  0  2  0  0  0  0  0  0
  161.9140  206.9860  147.2820 O   0  0  0  0  0  0  0  0  0  0  0  0
  161.7020  204.8550  150.8170 N   0  0  0  0  0  0  0  0  0  0  0  0
  162.2210  206.0360  150.7010 C   0  0  0  0  0  0  0  0  0  0  0  0
  161.1250  204.3680  152.0430 C   0  0  0  0  0  0  0  0  0  0  0  0
  161.1800  205.0910  153.1690 C   0  0  0  0  0  3  0  0  0  0  0  0
  161.0220  213.1900  149.0710 C   0  0  0  0  0  2  0  0  0  0  0  0
  160.1180  214.1110  145.6600 N   0  0  0  0  0  2  0  0  0  0  0  0
  162.1820  213.2790  146.3030 O   0  0  0  0  0  0  0  0  0  0  0  0
  163.1260  212.8340  147.2730 C   0  0  0  0  0  2  0  0  0  0  0  0
  160.1350  213.0820  147.8300 C   0  0  0  0  0  2  0  0  0  0  0  0
  160.8270  213.5300  146.5710 C   0  0  0  0  0  0  0  0  0  0  0  0
  162.6270  211.6410  147.9370 N   0  0  0  0  0  2  0  0  0  0  0  0
  162.0020  212.0080  149.2100 C   0  0  2  0  0  3  0  0  0  0  0  0
  161.0670  207.4120  154.0680 C   0  0  0  0  0  0  0  0  0  0  0  0
  160.3470  206.9360  155.1660 C   0  0  0  0  0  3  0  0  0  0  0  0
  159.6710  209.1940  155.7130 C   0  0  0  0  0  3  0  0  0  0  0  0
  160.3950  209.6760  154.6220 C   0  0  0  0  0  3  0  0  0  0  0  0
  159.6450  207.8230  155.9850 C   0  0  0  0  0  3  0  0  0  0  0  0
  161.0960  208.7910  153.8060 C   0  0  0  0  0  3  0  0  0  0  0  0
  1  6  2  0  0  0  0
  2 14  1  0  0  0  0
  3 25  1  6  0  0  0
  4 10  1  1  0  0  0
  4  7  1  0  0  0  0
  4  5  1  0  0  0  0
  5 11  1  0  0  0  0
  5  1  2  0  0  0  0
  6  3  1  0  0  0  0
  7 11  1  1  0  0  0
  8 10  1  0  0  0  0
  8  2  1  0  0  0  0
 12  8  2  0  0  0  0
 13 15  1  0  0  0  0
 14 13  2  0  0  0  0
 14  6  1  0  0  0  0
 15  9  1  0  0  0  0
 15 16  2  0  0  0  0
 16  3  1  0  0  0  0
 18 22  2  0  0  0  0
 19 22  1  0  0  0  0
 19 20  1  0  0  0  0
 20 23  1  0  0  0  0
 21 17  1  0  0  0  0
 22 21  1  0  0  0  0
 23 24  1  0  0  0  0
 24 17  1  6  0  0  0
 24  7  1  0  0  0  0
 25 26  1  0  0  0  0
 26 29  2  0  0  0  0
 27 29  1  0  0  0  0
 28 27  2  0  0  0  0
 30 25  2  0  0  0  0
 30 28  1  0  0  0  0
M  END
>  <MODEL>
5

>  <REMARK>
 VINA RESULT:      -5.7      3.068      5.453
  Name = 
  2 active torsions:
  status: ('A' for Active; 'I' for Inactive)
    1  A    between atoms: C_3  and  C_5
    2  A    between atoms: C_13  and  C_30
                            x       y       z     vdW  Elec       q    Type
                         _______ _______ _______ _____ _____    ______ ____

>  <TORSDO>
F 2

$$$$
=
 OpenBabel11072411143D

 30 34  0  0  1  0  0  0  0  0999 V2000
  162.3030  205.8590  149.9020 C   0  0  0  0  0  0  0  0  0  0  0  0
  162.7390  208.1280  148.2070 C   0  0  0  0  0  2  0  0  0  0  0  0
  162.0750  204.2150  148.0600 C   0  0  2  0  0  3  0  0  0  0  0  0
  161.8390  207.8890  151.3020 C   0  0  2  0  0  3  0  0  0  0  0  0
  162.1450  206.4470  151.0460 C   0  0  0  0  0  0  0  0  0  0  0  0
  162.3140  205.6000  148.6270 C   0  0  0  0  0  0  0  0  0  0  0  0
  161.0740  207.4800  152.4460 C   0  0  1  0  0  3  0  0  0  0  0  0
  161.7440  208.9500  149.0050 C   0  0  0  0  0  0  0  0  0  0  0  0
  160.7300  205.3690  144.6310 C   0  0  0  0  0  1  0  0  0  0  0  0
  160.9460  208.4070  150.1680 C   0  0  0  0  0  2  0  0  0  0  0  0
  161.4630  206.0930  152.3050 N   0  0  0  0  0  2  0  0  0  0  0  0
  161.6340  210.1400  148.7430 O   0  0  0  0  0  0  0  0  0  0  0  0
  161.7980  206.6560  146.5260 N   0  0  0  0  0  0  0  0  0  0  0  0
  162.2530  206.7810  147.7330 C   0  0  0  0  0  0  0  0  0  0  0  0
  161.3420  205.4010  145.9860 C   0  0  0  0  0  0  0  0  0  0  0  0
  161.4530  204.2650  146.6850 C   0  0  0  0  0  3  0  0  0  0  0  0
  160.8150  207.7180  154.9610 C   0  0  0  0  0  2  0  0  0  0  0  0
  158.9330  210.4370  156.5000 N   0  0  0  0  0  2  0  0  0  0  0  0
  160.9870  210.6750  155.4560 O   0  0  0  0  0  0  0  0  0  0  0  0
  162.1450  210.1660  154.7990 C   0  0  0  0  0  2  0  0  0  0  0  0
  159.5590  208.5760  155.1170 C   0  0  0  0  0  2  0  0  0  0  0  0
  159.8360  209.9210  155.7330 C   0  0  0  0  0  0  0  0  0  0  0  0
  161.7660  209.5450  153.5400 N   0  0  0  0  0  2  0  0  0  0  0  0
  161.6470  208.0970  153.7200 C   0  0  2  0  0  3  0  0  0  0  0  0
  161.3070  203.3000  148.9780 C   0  0  0  0  0  0  0  0  0  0  0  0
  161.3710  203.5160  150.3570 C   0  0  0  0  0  3  0  0  0  0  0  0
  159.8090  201.7040  150.7220 C   0  0  0  0  0  3  0  0  0  0  0  0
  159.7350  201.4890  149.3450 C   0  0  0  0  0  3  0  0  0  0  0  0
  160.6290  202.7170  151.2280 C   0  0  0  0  0  3  0  0  0  0  0  0
  160.4750  202.2870  148.4760 C   0  0  0  0  0  3  0  0  0  0  0  0
  1  5  2  0  0  0  0
  2  8  1  0  0  0  0
  3  6  1  0  0  0  0
  3 25  1  1  0  0  0
  4 10  1  6  0  0  0
  4  7  1  0  0  0  0
  5  4  1  0  0  0  0
  5 11  1  0  0  0  0
  6  1  2  0  0  0  0
  7 11  1  1  0  0  0
  7 24  1  0  0  0  0
  8 10  1  0  0  0  0
  9 15  1  0  0  0  0
 12  8  2  0  0  0  0
 13 14  2  0  0  0  0
 14  2  1  0  0  0  0
 14  6  1  0  0  0  0
 15 13  1  0  0  0  0
 15 16  2  0  0  0  0
 16  3  1  0  0  0  0
 17 21  1  0  0  0  0
 19 22  1  0  0  0  0
 20 19  1  0  0  0  0
 21 22  1  0  0  0  0
 22 18  2  0  0  0  0
 23 24  1  0  0  0  0
 23 20  1  0  0  0  0
 24 17  1  1  0  0  0
 25 26  1  0  0  0  0
 26 29  2  0  0  0  0
 27 29  1  0  0  0  0
 28 27  2  0  0  0  0
 30 25  2  0  0  0  0
 30 28  1  0  0  0  0
M  END
>  <MODEL>
6

>  <REMARK>
 VINA RESULT:      -5.6      2.923      8.277
  Name = 
  2 active torsions:
  status: ('A' for Active; 'I' for Inactive)
    1  A    between atoms: C_3  and  C_5
    2  A    between atoms: C_13  and  C_30
                            x       y       z     vdW  Elec       q    Type
                         _______ _______ _______ _____ _____    ______ ____

>  <TORSDO>
F 2

$$$$
