=
 OpenBabel11072412173D

 38 43  0  0  1  0  0  0  0  0999 V2000
  158.3040  212.1800  153.3310 C   0  0  1  0  0  3  0  0  0  0  0  0
  159.7680  210.5240  154.4530 C   0  0  0  0  0  2  0  0  0  0  0  0
  159.5160  212.0120  151.4630 C   0  0  2  0  0  3  0  0  0  0  0  0
  159.7070  211.9020  153.8260 C   0  0  1  0  0  3  0  0  0  0  0  0
  160.2340  209.5930  153.4340 N   0  0  1  0  0  0  0  0  0  0  0  0
  157.6550  213.2420  154.1950 C   0  0  0  0  0  1  0  0  0  0  0  0
  161.0570  210.3960  152.5420 C   0  0  0  0  0  2  0  0  0  0  0  0
  158.3730  212.6280  152.0030 O   0  0  0  0  0  0  0  0  0  0  0  0
  160.5250  211.8120  152.5770 C   0  0  1  0  0  3  0  0  0  0  0  0
  162.0230  213.1260  148.5930 C   0  0  2  0  0  3  0  0  0  0  0  0
  159.5590  213.8380  147.9880 C   0  0  1  0  0  3  0  0  0  0  0  0
  163.0110  212.3070  147.7810 C   0  0  0  0  0  1  0  0  0  0  0  0
  160.1270  212.8180  150.3090 C   0  0  2  0  0  0  0  0  0  0  0  0
  159.1330  213.5950  149.4520 C   0  0  1  0  0  3  0  0  0  0  0  0
  161.3290  212.1990  149.5840 C   0  0  0  0  0  2  0  0  0  0  0  0
  161.0400  213.8250  147.6910 C   0  0  0  0  0  0  0  0  0  0  0  0
  160.0480  214.3310  150.4360 C   0  0  0  0  0  2  0  0  0  0  0  0
  161.4500  214.4500  146.7260 O   0  0  0  0  0  0  0  0  0  0  0  0
  158.7880  212.9370  147.0300 C   0  0  0  0  0  2  0  0  0  0  0  0
  159.6620  212.2340  146.1980 O   0  0  0  0  0  1  0  0  0  0  0  0
  160.5370  207.3450  154.0260 O   0  0  0  0  0  0  0  0  0  0  0  0
  161.6300  207.5680  153.1670 C   0  0  2  0  0  3  0  0  0  0  0  0
  161.1130  208.6290  154.0890 C   0  0  1  0  0  3  0  0  0  0  0  0
  161.9430  206.8530  149.5790 C   0  0  2  0  0  3  0  0  0  0  0  0
  161.1360  207.6590  151.7240 C   0  0  2  0  0  3  0  0  0  0  0  0
  162.3380  208.2670  149.8230 C   0  0  0  0  0  2  0  0  0  0  0  0
  160.6400  206.8500  148.3490 Cl  0  0  0  0  0  0  0  0  0  0  0  0
  161.4770  206.3870  150.9650 C   0  0  1  0  0  3  0  0  0  0  0  0
  161.8930  208.7100  150.9910 C   0  0  0  0  0  2  0  0  0  0  0  0
  160.3100  205.3990  150.9570 C   0  0  0  0  0  2  0  0  0  0  0  0
  160.7840  203.9480  150.8920 C   0  0  2  0  0  3  0  0  0  0  0  0
  161.9620  203.7890  151.6240 O   0  0  0  0  0  1  0  0  0  0  0  0
  160.9950  203.4670  149.4600 C   0  0  0  0  0  2  0  0  0  0  0  0
  160.3520  202.1700  149.2450 N   0  0  0  0  0  0  0  0  0  0  0  0
  160.8530  201.2320  150.2410 C   0  0  0  0  0  1  0  0  0  0  0  0
  160.6700  201.6450  147.9070 C   0  0  2  0  0  3  0  0  0  0  0  0
  161.5590  200.4010  147.9290 C   0  0  0  0  0  1  0  0  0  0  0  0
  161.2610  202.6380  147.1250 O   0  0  0  0  0  1  0  0  0  0  0  0
  1  4  1  0  0  0  0
  1  6  1  1  0  0  0
  3  8  1  1  0  0  0
  3  9  1  0  0  0  0
  4  2  1  6  0  0  0
  5  7  1  6  0  0  0
  5 23  1  0  0  0  0
  5  2  1  0  0  0  0
  8  1  1  0  0  0  0
  9  7  1  6  0  0  0
  9  4  1  0  0  0  0
 10 12  1  6  0  0  0
 10 15  1  0  0  0  0
 11 19  1  6  0  0  0
 11 14  1  0  0  0  0
 13 15  1  6  0  0  0
 13 17  1  0  0  0  0
 13  3  1  0  0  0  0
 14 13  1  0  0  0  0
 14 17  1  1  0  0  0
 16 11  1  0  0  0  0
 16 10  1  0  0  0  0
 18 16  2  0  0  0  0
 20 19  1  0  0  0  0
 22 21  1  1  0  0  0
 22 23  1  0  0  0  0
 23 21  1  1  0  0  0
 24 27  1  6  0  0  0
 24 26  1  0  0  0  0
 24 28  1  0  0  0  0
 25 29  1  6  0  0  0
 25 22  1  0  0  0  0
 26 29  1  0  0  0  0
 28 30  1  6  0  0  0
 28 25  1  0  0  0  0
 31 30  1  0  0  0  0
 31 32  1  1  0  0  0
 33 31  1  0  0  0  0
 34 33  1  0  0  0  0
 34 35  1  0  0  0  0
 36 37  1  1  0  0  0
 36 34  1  0  0  0  0
 38 36  1  0  0  0  0
M  END
>  <MODEL>
1

>  <REMARK>
 VINA RESULT:      -7.5      0.000      0.000
  Name = 
  9 active torsions:
  status: ('A' for Active; 'I' for Inactive)
    1  A    between atoms: C_5  and  C_24
    2  A    between atoms: C_6  and  C_8
    3  A    between atoms: C_6  and  C_14
    4  A    between atoms: C_8  and  C_32
    5  A    between atoms: N_9  and  C_36
    6  A    between atoms: C_11  and  C_21
    7  A    between atoms: C_14  and  N_23
    8  A    between atoms: C_15  and  N_23
    9  A    between atoms: C_16  and  C_17
                            x       y       z     vdW  Elec       q    Type
                         _______ _______ _______ _____ _____    ______ ____

>  <TORSDO>
F 9

$$$$
=
 OpenBabel11072412173D

 38 43  0  0  1  0  0  0  0  0999 V2000
  161.5860  210.3580  150.3850 C   0  0  1  0  0  3  0  0  0  0  0  0
  161.8470  210.4740  152.8480 C   0  0  0  0  0  2  0  0  0  0  0  0
  161.2150  208.1600  150.5100 C   0  0  2  0  0  3  0  0  0  0  0  0
  162.4230  209.9100  151.5640 C   0  0  1  0  0  3  0  0  0  0  0  0
  160.9760  209.4600  153.4260 N   0  0  1  0  0  0  0  0  0  0  0  0
  162.3670  211.3520  149.5490 C   0  0  0  0  0  1  0  0  0  0  0  0
  161.5240  208.1900  152.9700 C   0  0  0  0  0  2  0  0  0  0  0  0
  161.2630  209.2370  149.6060 O   0  0  0  0  0  0  0  0  0  0  0  0
  162.1940  208.4340  151.6350 C   0  0  1  0  0  3  0  0  0  0  0  0
  161.2260  204.2560  149.7850 C   0  0  2  0  0  3  0  0  0  0  0  0
  161.4570  205.6090  147.5350 C   0  0  1  0  0  3  0  0  0  0  0  0
  160.2170  203.1860  150.1600 C   0  0  0  0  0  1  0  0  0  0  0  0
  161.5180  206.8150  149.8360 C   0  0  2  0  0  0  0  0  0  0  0  0
  161.8060  206.8790  148.3390 C   0  0  1  0  0  3  0  0  0  0  0  0
  160.7410  205.5910  150.3380 C   0  0  0  0  0  2  0  0  0  0  0  0
  161.4260  204.3020  148.2930 C   0  0  0  0  0  0  0  0  0  0  0  0
  162.9420  206.6240  149.3360 C   0  0  0  0  0  2  0  0  0  0  0  0
  161.6270  203.2650  147.6810 O   0  0  0  0  0  0  0  0  0  0  0  0
  160.1930  205.8070  146.7080 C   0  0  0  0  0  2  0  0  0  0  0  0
  160.4930  206.3930  145.4760 O   0  0  0  0  0  1  0  0  0  0  0  0
  161.2290  210.8540  155.2930 O   0  0  0  0  0  0  0  0  0  0  0  0
  160.0180  210.1980  155.5840 C   0  0  2  0  0  3  0  0  0  0  0  0
  161.1440  209.5110  154.8750 C   0  0  1  0  0  3  0  0  0  0  0  0
  157.2410  212.4940  154.8770 C   0  0  2  0  0  3  0  0  0  0  0  0
  158.9120  210.7420  154.6820 C   0  0  2  0  0  3  0  0  0  0  0  0
  156.6830  211.1570  155.2200 C   0  0  0  0  0  2  0  0  0  0  0  0
  156.5960  212.9660  153.2740 Cl  0  0  0  0  0  0  0  0  0  0  0  0
  158.7550  212.2410  154.8780 C   0  0  1  0  0  3  0  0  0  0  0  0
  157.5930  210.1990  155.1070 C   0  0  0  0  0  2  0  0  0  0  0  0
  159.5440  213.0370  153.8380 C   0  0  0  0  0  2  0  0  0  0  0  0
  158.8980  212.9790  152.4560 C   0  0  2  0  0  3  0  0  0  0  0  0
  159.0950  211.7220  151.8800 O   0  0  0  0  0  1  0  0  0  0  0  0
  159.4210  214.0640  151.5210 C   0  0  0  0  0  2  0  0  0  0  0  0
  159.4160  213.6050  150.1310 N   0  0  0  0  0  0  0  0  0  0  0  0
  160.5870  214.1510  149.4580 C   0  0  0  0  0  1  0  0  0  0  0  0
  158.2120  214.0750  149.4290 C   0  0  2  0  0  3  0  0  0  0  0  0
  157.0710  213.0570  149.4140 C   0  0  0  0  0  1  0  0  0  0  0  0
  158.5290  214.4530  148.1240 O   0  0  0  0  0  1  0  0  0  0  0  0
  1  6  1  6  0  0  0
  1  4  1  0  0  0  0
  3  8  1  6  0  0  0
  3  9  1  0  0  0  0
  4  9  1  0  0  0  0
  4  2  1  1  0  0  0
  5  2  1  6  0  0  0
  5 23  1  0  0  0  0
  7  5  1  0  0  0  0
  8  1  1  0  0  0  0
  9  7  1  1  0  0  0
 10 12  1  6  0  0  0
 10 15  1  0  0  0  0
 11 19  1  1  0  0  0
 11 16  1  0  0  0  0
 11 14  1  0  0  0  0
 13 17  1  1  0  0  0
 13 15  1  0  0  0  0
 13  3  1  0  0  0  0
 14 17  1  1  0  0  0
 14 13  1  0  0  0  0
 16 10  1  0  0  0  0
 18 16  2  0  0  0  0
 20 19  1  0  0  0  0
 22 21  1  6  0  0  0
 23 21  1  6  0  0  0
 23 22  1  0  0  0  0
 24 27  1  6  0  0  0
 24 28  1  0  0  0  0
 24 26  1  0  0  0  0
 25 28  1  0  0  0  0
 25 29  1  1  0  0  0
 25 22  1  0  0  0  0
 28 30  1  6  0  0  0
 29 26  1  0  0  0  0
 31 32  1  6  0  0  0
 31 30  1  0  0  0  0
 33 31  1  0  0  0  0
 34 33  1  0  0  0  0
 35 34  1  0  0  0  0
 36 37  1  6  0  0  0
 36 34  1  0  0  0  0
 38 36  1  0  0  0  0
M  END
>  <MODEL>
2

>  <REMARK>
 VINA RESULT:      -6.2      2.717      8.005
  Name = 
  9 active torsions:
  status: ('A' for Active; 'I' for Inactive)
    1  A    between atoms: C_5  and  C_24
    2  A    between atoms: C_6  and  C_8
    3  A    between atoms: C_6  and  C_14
    4  A    between atoms: C_8  and  C_32
    5  A    between atoms: N_9  and  C_36
    6  A    between atoms: C_11  and  C_21
    7  A    between atoms: C_14  and  N_23
    8  A    between atoms: C_15  and  N_23
    9  A    between atoms: C_16  and  C_17
                            x       y       z     vdW  Elec       q    Type
                         _______ _______ _______ _____ _____    ______ ____

>  <TORSDO>
F 9

$$$$
=
 OpenBabel11072412173D

 38 43  0  0  1  0  0  0  0  0999 V2000
  161.6260  208.0680  149.2010 C   0  0  1  0  0  3  0  0  0  0  0  0
  162.1670  209.1620  151.3590 C   0  0  0  0  0  2  0  0  0  0  0  0
  160.6540  206.3750  150.2840 C   0  0  2  0  0  3  0  0  0  0  0  0
  162.4170  207.9490  150.4860 C   0  0  1  0  0  3  0  0  0  0  0  0
  161.1070  208.8220  152.2980 N   0  0  1  0  0  0  0  0  0  0  0  0
  162.5670  208.3070  148.0380 C   0  0  0  0  0  1  0  0  0  0  0  0
  161.2160  207.3810  152.4800 C   0  0  0  0  0  2  0  0  0  0  0  0
  160.9140  206.8770  148.9960 O   0  0  0  0  0  0  0  0  0  0  0  0
  161.7830  206.8010  151.2020 C   0  0  1  0  0  3  0  0  0  0  0  0
  160.4740  202.6190  149.0090 C   0  0  2  0  0  3  0  0  0  0  0  0
  161.2980  202.7020  151.5100 C   0  0  1  0  0  3  0  0  0  0  0  0
  161.1260  201.9590  147.8060 C   0  0  0  0  0  1  0  0  0  0  0  0
  160.4840  204.8490  150.2960 C   0  0  2  0  0  0  0  0  0  0  0  0
  160.8130  204.1630  151.6180 C   0  0  1  0  0  3  0  0  0  0  0  0
  160.8570  204.0940  149.0140 C   0  0  0  0  0  2  0  0  0  0  0  0
  160.8790  201.9260  150.2830 C   0  0  0  0  0  0  0  0  0  0  0  0
  159.3570  204.3100  151.1640 C   0  0  0  0  0  2  0  0  0  0  0  0
  160.8140  200.7090  150.3530 O   0  0  0  0  0  0  0  0  0  0  0  0
  162.7990  202.5970  151.7540 C   0  0  0  0  0  2  0  0  0  0  0  0
  163.1330  201.3390  152.2590 O   0  0  0  0  0  1  0  0  0  0  0  0
  161.8100  210.7890  153.3620 O   0  0  0  0  0  0  0  0  0  0  0  0
  160.5370  210.5920  153.9300 C   0  0  2  0  0  3  0  0  0  0  0  0
  161.4350  209.4470  153.5760 C   0  0  1  0  0  3  0  0  0  0  0  0
  158.4080  212.9620  152.1040 C   0  0  2  0  0  3  0  0  0  0  0  0
  159.4600  210.9210  152.8970 C   0  0  2  0  0  3  0  0  0  0  0  0
  157.5890  212.2870  153.1480 C   0  0  0  0  0  2  0  0  0  0  0  0
  157.6010  212.7110  150.5240 Cl  0  0  0  0  0  0  0  0  0  0  0  0
  159.7620  212.2480  152.2200 C   0  0  1  0  0  3  0  0  0  0  0  0
  158.1600  211.1700  153.5770 C   0  0  0  0  0  2  0  0  0  0  0  0
  160.5070  212.0560  150.8990 C   0  0  0  0  0  2  0  0  0  0  0  0
  160.8950  213.3870  150.2580 C   0  0  2  0  0  3  0  0  0  0  0  0
  160.4000  214.4520  151.0120 O   0  0  0  0  0  1  0  0  0  0  0  0
  160.4090  213.5030  148.8170 C   0  0  0  0  0  2  0  0  0  0  0  0
  161.4280  213.0250  147.8810 N   0  0  0  0  0  0  0  0  0  0  0  0
  162.6430  213.8050  148.0790 C   0  0  0  0  0  1  0  0  0  0  0  0
  160.9830  213.2000  146.4890 C   0  0  2  0  0  3  0  0  0  0  0  0
  159.8500  212.2550  146.0830 C   0  0  0  0  0  1  0  0  0  0  0  0
  162.0600  213.0540  145.6140 O   0  0  0  0  0  1  0  0  0  0  0  0
  1  6  1  6  0  0  0
  1  4  1  0  0  0  0
  3  8  1  6  0  0  0
  3 13  1  0  0  0  0
  3  9  1  0  0  0  0
  4  9  1  0  0  0  0
  4  2  1  1  0  0  0
  5  2  1  6  0  0  0
  5  7  1  0  0  0  0
  5 23  1  0  0  0  0
  8  1  1  0  0  0  0
  9  7  1  1  0  0  0
 10 12  1  6  0  0  0
 10 15  1  0  0  0  0
 10 16  1  0  0  0  0
 11 14  1  0  0  0  0
 11 19  1  6  0  0  0
 13 15  1  6  0  0  0
 13 17  1  0  0  0  0
 13 14  1  0  0  0  0
 14 17  1  1  0  0  0
 16 18  2  0  0  0  0
 16 11  1  0  0  0  0
 19 20  1  0  0  0  0
 22 21  1  6  0  0  0
 23 21  1  6  0  0  0
 23 22  1  0  0  0  0
 24 27  1  6  0  0  0
 24 28  1  0  0  0  0
 24 26  1  0  0  0  0
 25 29  1  1  0  0  0
 25 22  1  0  0  0  0
 26 29  1  0  0  0  0
 28 30  1  6  0  0  0
 28 25  1  0  0  0  0
 31 30  1  0  0  0  0
 31 32  1  1  0  0  0
 33 31  1  0  0  0  0
 34 35  1  0  0  0  0
 34 33  1  0  0  0  0
 36 37  1  6  0  0  0
 36 34  1  0  0  0  0
 38 36  1  0  0  0  0
M  END
>  <MODEL>
3

>  <REMARK>
 VINA RESULT:      -6.0      2.283      8.816
  Name = 
  9 active torsions:
  status: ('A' for Active; 'I' for Inactive)
    1  A    between atoms: C_5  and  C_24
    2  A    between atoms: C_6  and  C_8
    3  A    between atoms: C_6  and  C_14
    4  A    between atoms: C_8  and  C_32
    5  A    between atoms: N_9  and  C_36
    6  A    between atoms: C_11  and  C_21
    7  A    between atoms: C_14  and  N_23
    8  A    between atoms: C_15  and  N_23
    9  A    between atoms: C_16  and  C_17
                            x       y       z     vdW  Elec       q    Type
                         _______ _______ _______ _____ _____    ______ ____

>  <TORSDO>
F 9

$$$$
=
 OpenBabel11072412173D

 38 43  0  0  1  0  0  0  0  0999 V2000
  161.7750  206.4470  152.4730 C   0  0  1  0  0  3  0  0  0  0  0  0
  161.0810  208.8240  152.6040 C   0  0  0  0  0  2  0  0  0  0  0  0
  161.9640  206.6060  150.2540 C   0  0  2  0  0  3  0  0  0  0  0  0
  160.7100  207.4500  152.0830 C   0  0  1  0  0  3  0  0  0  0  0  0
  161.7620  209.5360  151.5300 N   0  0  1  0  0  0  0  0  0  0  0  0
  161.2280  205.4980  153.5210 C   0  0  0  0  0  1  0  0  0  0  0  0
  161.2180  208.9710  150.3030 C   0  0  0  0  0  2  0  0  0  0  0  0
  162.1550  205.7240  151.3330 O   0  0  0  0  0  0  0  0  0  0  0  0
  160.8200  207.5410  150.5950 C   0  0  1  0  0  3  0  0  0  0  0  0
  162.5400  205.0950  146.6280 C   0  0  2  0  0  3  0  0  0  0  0  0
  160.8280  203.6150  147.9790 C   0  0  1  0  0  3  0  0  0  0  0  0
  163.8230  204.6800  145.9300 C   0  0  0  0  0  1  0  0  0  0  0  0
  161.6960  205.8700  148.9340 C   0  0  2  0  0  0  0  0  0  0  0  0
  160.6550  204.7570  149.0030 C   0  0  1  0  0  3  0  0  0  0  0  0
  162.8950  205.6390  148.0070 C   0  0  0  0  0  2  0  0  0  0  0  0
  161.5780  203.9390  146.7080 C   0  0  0  0  0  0  0  0  0  0  0  0
  160.3220  206.0860  148.3170 C   0  0  0  0  0  2  0  0  0  0  0  0
  161.3480  203.2780  145.7080 O   0  0  0  0  0  0  0  0  0  0  0  0
  161.3680  202.3540  148.6420 C   0  0  0  0  0  2  0  0  0  0  0  0
  160.9440  202.2710  149.9700 O   0  0  0  0  0  1  0  0  0  0  0  0
  160.0880  211.0170  152.2370 O   0  0  0  0  0  0  0  0  0  0  0  0
  161.1950  211.4520  152.9890 C   0  0  2  0  0  3  0  0  0  0  0  0
  161.3380  210.9310  151.5920 C   0  0  1  0  0  3  0  0  0  0  0  0
  161.6860  210.5530  156.5150 C   0  0  2  0  0  3  0  0  0  0  0  0
  161.4900  210.4420  154.0960 C   0  0  2  0  0  3  0  0  0  0  0  0
  163.0150  210.6250  155.8490 C   0  0  0  0  0  2  0  0  0  0  0  0
  161.5300  208.9310  157.2600 Cl  0  0  0  0  0  0  0  0  0  0  0  0
  160.7110  210.7900  155.3540 C   0  0  1  0  0  3  0  0  0  0  0  0
  162.9100  210.5580  154.5290 C   0  0  0  0  0  2  0  0  0  0  0  0
  159.3980  210.0110  155.4430 C   0  0  0  0  0  2  0  0  0  0  0  0
  158.2160  210.9120  155.7940 C   0  0  2  0  0  3  0  0  0  0  0  0
  157.0180  210.3250  155.3830 O   0  0  0  0  0  1  0  0  0  0  0  0
  158.3450  212.3060  155.1870 C   0  0  0  0  0  2  0  0  0  0  0  0
  157.0590  212.7690  154.6630 N   0  0  0  0  0  0  0  0  0  0  0  0
  157.2840  213.3940  153.3670 C   0  0  0  0  0  1  0  0  0  0  0  0
  156.4550  213.7640  155.5640 C   0  0  2  0  0  3  0  0  0  0  0  0
  157.4380  214.3530  156.5770 C   0  0  0  0  0  1  0  0  0  0  0  0
  155.3590  213.2130  156.2290 O   0  0  0  0  0  1  0  0  0  0  0  0
  1  6  1  1  0  0  0
  3  9  1  0  0  0  0
  3  8  1  1  0  0  0
  4  1  1  0  0  0  0
  4  2  1  1  0  0  0
  5  7  1  6  0  0  0
  5 23  1  0  0  0  0
  5  2  1  0  0  0  0
  8  1  1  0  0  0  0
  9  7  1  1  0  0  0
  9  4  1  0  0  0  0
 10 12  1  1  0  0  0
 10 16  1  0  0  0  0
 10 15  1  0  0  0  0
 11 19  1  1  0  0  0
 11 14  1  0  0  0  0
 13 15  1  6  0  0  0
 13 14  1  0  0  0  0
 13  3  1  0  0  0  0
 14 17  1  6  0  0  0
 16 11  1  0  0  0  0
 17 13  1  0  0  0  0
 18 16  2  0  0  0  0
 19 20  1  0  0  0  0
 22 21  1  1  0  0  0
 22 25  1  0  0  0  0
 23 21  1  1  0  0  0
 23 22  1  0  0  0  0
 24 27  1  6  0  0  0
 25 29  1  1  0  0  0
 25 28  1  0  0  0  0
 26 24  1  0  0  0  0
 28 30  1  1  0  0  0
 28 24  1  0  0  0  0
 29 26  1  0  0  0  0
 30 31  1  0  0  0  0
 31 32  1  6  0  0  0
 33 31  1  0  0  0  0
 34 33  1  0  0  0  0
 34 36  1  0  0  0  0
 35 34  1  0  0  0  0
 36 38  1  0  0  0  0
 36 37  1  1  0  0  0
M  END
>  <MODEL>
4

>  <REMARK>
 VINA RESULT:      -5.6      3.474      8.769
  Name = 
  9 active torsions:
  status: ('A' for Active; 'I' for Inactive)
    1  A    between atoms: C_5  and  C_24
    2  A    between atoms: C_6  and  C_8
    3  A    between atoms: C_6  and  C_14
    4  A    between atoms: C_8  and  C_32
    5  A    between atoms: N_9  and  C_36
    6  A    between atoms: C_11  and  C_21
    7  A    between atoms: C_14  and  N_23
    8  A    between atoms: C_15  and  N_23
    9  A    between atoms: C_16  and  C_17
                            x       y       z     vdW  Elec       q    Type
                         _______ _______ _______ _____ _____    ______ ____

>  <TORSDO>
F 9

$$$$
=
 OpenBabel11072412173D

 38 43  0  0  1  0  0  0  0  0999 V2000
  161.6790  210.0040  155.3360 C   0  0  1  0  0  3  0  0  0  0  0  0
  162.2830  209.9550  152.9320 C   0  0  0  0  0  2  0  0  0  0  0  0
  159.6060  210.6530  154.8190 C   0  0  2  0  0  3  0  0  0  0  0  0
  161.8540  210.8400  154.0850 C   0  0  1  0  0  3  0  0  0  0  0  0
  161.0860  209.5840  152.1890 N   0  0  1  0  0  0  0  0  0  0  0  0
  162.7760  210.3280  156.3290 C   0  0  0  0  0  1  0  0  0  0  0  0
  160.1580  210.6850  152.4010 C   0  0  0  0  0  2  0  0  0  0  0  0
  160.4290  210.2950  155.9020 O   0  0  0  0  0  0  0  0  0  0  0  0
  160.4700  211.2940  153.7510 C   0  0  1  0  0  3  0  0  0  0  0  0
  156.7590  213.4110  154.5940 C   0  0  2  0  0  3  0  0  0  0  0  0
  156.1530  211.6130  156.4210 C   0  0  1  0  0  3  0  0  0  0  0  0
  155.9410  213.8820  153.4040 C   0  0  0  0  0  1  0  0  0  0  0  0
  158.4640  211.5910  155.2340 C   0  0  2  0  0  0  0  0  0  0  0  0
  157.6120  211.1090  156.4050 C   0  0  1  0  0  3  0  0  0  0  0  0
  157.7360  212.3450  154.1140 C   0  0  0  0  0  2  0  0  0  0  0  0
  155.8610  212.9030  155.6910 C   0  0  0  0  0  0  0  0  0  0  0  0
  158.6080  212.2570  156.5940 C   0  0  0  0  0  2  0  0  0  0  0  0
  154.9050  213.5730  156.0450 O   0  0  0  0  0  0  0  0  0  0  0  0
  155.1820  210.5090  156.0190 C   0  0  0  0  0  2  0  0  0  0  0  0
  155.2050  210.3070  154.6370 O   0  0  0  0  0  1  0  0  0  0  0  0
  162.8040  209.2780  150.6240 O   0  0  0  0  0  0  0  0  0  0  0  0
  161.9120  208.2440  150.2810 C   0  0  2  0  0  3  0  0  0  0  0  0
  161.4350  209.5760  150.7710 C   0  0  1  0  0  3  0  0  0  0  0  0
  160.3810  205.5680  152.2740 C   0  0  2  0  0  3  0  0  0  0  0  0
  161.9760  207.1430  151.3370 C   0  0  2  0  0  3  0  0  0  0  0  0
  160.5320  206.7770  153.1300 C   0  0  0  0  0  2  0  0  0  0  0  0
  161.2090  204.2070  153.0940 Cl  0  0  0  0  0  0  0  0  0  0  0  0
  161.0540  205.9930  150.9620 C   0  0  1  0  0  3  0  0  0  0  0  0
  161.4070  207.6340  152.6220 C   0  0  0  0  0  2  0  0  0  0  0  0
  161.8020  204.8800  150.2280 C   0  0  0  0  0  2  0  0  0  0  0  0
  160.9820  204.2940  149.0810 C   0  0  2  0  0  3  0  0  0  0  0  0
  160.5310  203.0140  149.4110 O   0  0  0  0  0  1  0  0  0  0  0  0
  161.7610  204.2480  147.7710 C   0  0  0  0  0  2  0  0  0  0  0  0
  161.8680  205.5820  147.1790 N   0  0  0  0  0  0  0  0  0  0  0  0
  160.5540  206.2110  147.2090 C   0  0  0  0  0  1  0  0  0  0  0  0
  162.3140  205.4980  145.7790 C   0  0  2  0  0  3  0  0  0  0  0  0
  161.2380  204.9840  144.8200 C   0  0  0  0  0  1  0  0  0  0  0  0
  163.4560  204.7020  145.6810 O   0  0  0  0  0  1  0  0  0  0  0  0
  1  8  1  0  0  0  0
  1  6  1  1  0  0  0
  3 13  1  0  0  0  0
  3  8  1  1  0  0  0
  4  2  1  6  0  0  0
  4  1  1  0  0  0  0
  5  7  1  6  0  0  0
  5  2  1  0  0  0  0
  9  7  1  6  0  0  0
  9  4  1  0  0  0  0
  9  3  1  0  0  0  0
 10 12  1  6  0  0  0
 10 16  1  0  0  0  0
 11 19  1  6  0  0  0
 13 15  1  6  0  0  0
 13 14  1  0  0  0  0
 13 17  1  0  0  0  0
 14 11  1  0  0  0  0
 14 17  1  1  0  0  0
 15 10  1  0  0  0  0
 16 18  2  0  0  0  0
 16 11  1  0  0  0  0
 20 19  1  0  0  0  0
 22 21  1  1  0  0  0
 22 23  1  0  0  0  0
 22 25  1  0  0  0  0
 23 21  1  1  0  0  0
 23  5  1  0  0  0  0
 24 27  1  1  0  0  0
 24 26  1  0  0  0  0
 25 29  1  1  0  0  0
 28 30  1  1  0  0  0
 28 25  1  0  0  0  0
 28 24  1  0  0  0  0
 29 26  1  0  0  0  0
 31 32  1  1  0  0  0
 31 30  1  0  0  0  0
 33 31  1  0  0  0  0
 34 35  1  0  0  0  0
 34 33  1  0  0  0  0
 36 37  1  6  0  0  0
 36 34  1  0  0  0  0
 38 36  1  0  0  0  0
M  END
>  <MODEL>
5

>  <REMARK>
 VINA RESULT:      -5.0      3.298      5.551
  Name = 
  9 active torsions:
  status: ('A' for Active; 'I' for Inactive)
    1  A    between atoms: C_5  and  C_24
    2  A    between atoms: C_6  and  C_8
    3  A    between atoms: C_6  and  C_14
    4  A    between atoms: C_8  and  C_32
    5  A    between atoms: N_9  and  C_36
    6  A    between atoms: C_11  and  C_21
    7  A    between atoms: C_14  and  N_23
    8  A    between atoms: C_15  and  N_23
    9  A    between atoms: C_16  and  C_17
                            x       y       z     vdW  Elec       q    Type
                         _______ _______ _______ _____ _____    ______ ____

>  <TORSDO>
F 9

$$$$
=
 OpenBabel11072412173D

 38 43  0  0  1  0  0  0  0  0999 V2000
  161.5660  206.2420  152.3610 C   0  0  1  0  0  3  0  0  0  0  0  0
  160.8020  208.6000  152.3990 C   0  0  0  0  0  2  0  0  0  0  0  0
  162.2090  206.4660  150.2350 C   0  0  2  0  0  3  0  0  0  0  0  0
  160.5810  207.2340  151.7810 C   0  0  1  0  0  3  0  0  0  0  0  0
  161.6730  209.3550  151.5080 N   0  0  1  0  0  0  0  0  0  0  0  0
  160.8370  205.2540  153.2490 C   0  0  0  0  0  1  0  0  0  0  0  0
  161.4110  208.8140  150.1820 C   0  0  0  0  0  2  0  0  0  0  0  0
  162.1930  205.5580  151.3080 O   0  0  0  0  0  0  0  0  0  0  0  0
  160.9960  207.3680  150.3510 C   0  0  1  0  0  3  0  0  0  0  0  0
  161.7820  203.6540  147.4640 C   0  0  2  0  0  3  0  0  0  0  0  0
  161.5030  206.0470  146.3960 C   0  0  1  0  0  3  0  0  0  0  0  0
  160.8400  202.4650  147.4100 C   0  0  0  0  0  1  0  0  0  0  0  0
  162.2390  205.7620  148.8710 C   0  0  2  0  0  0  0  0  0  0  0  0
  162.1300  206.6790  147.6560 C   0  0  1  0  0  3  0  0  0  0  0  0
  161.5440  204.3990  148.7720 C   0  0  0  0  0  2  0  0  0  0  0  0
  161.5880  204.5440  146.2640 C   0  0  0  0  0  0  0  0  0  0  0  0
  163.4680  206.0230  148.0130 C   0  0  0  0  0  2  0  0  0  0  0  0
  161.5560  204.0500  145.1480 O   0  0  0  0  0  0  0  0  0  0  0  0
  160.0810  206.5490  146.1720 C   0  0  0  0  0  2  0  0  0  0  0  0
  159.4140  205.7520  145.2400 O   0  0  0  0  0  1  0  0  0  0  0  0
  159.9740  210.8220  152.1810 O   0  0  0  0  0  0  0  0  0  0  0  0
  161.0850  211.3230  152.8850 C   0  0  2  0  0  3  0  0  0  0  0  0
  161.2110  210.7390  151.5120 C   0  0  1  0  0  3  0  0  0  0  0  0
  161.6560  210.6060  156.4400 C   0  0  2  0  0  3  0  0  0  0  0  0
  161.4320  210.3770  154.0330 C   0  0  2  0  0  3  0  0  0  0  0  0
  162.9730  210.6970  155.7520 C   0  0  0  0  0  2  0  0  0  0  0  0
  161.5720  209.0160  157.2610 Cl  0  0  0  0  0  0  0  0  0  0  0  0
  160.6570  210.7530  155.2850 C   0  0  1  0  0  3  0  0  0  0  0  0
  162.8520  210.5650  154.4380 C   0  0  0  0  0  2  0  0  0  0  0  0
  159.3760  209.9320  155.4300 C   0  0  0  0  0  2  0  0  0  0  0  0
  158.2070  210.7730  155.9370 C   0  0  2  0  0  3  0  0  0  0  0  0
  157.0080  210.3240  155.3800 O   0  0  0  0  0  1  0  0  0  0  0  0
  158.3880  212.2590  155.6460 C   0  0  0  0  0  2  0  0  0  0  0  0
  157.3600  212.7400  154.7210 N   0  0  0  0  0  0  0  0  0  0  0  0
  158.0160  213.2600  153.5280 C   0  0  0  0  0  1  0  0  0  0  0  0
  156.5730  213.8230  155.3310 C   0  0  2  0  0  3  0  0  0  0  0  0
  156.7160  213.9070  156.8510 C   0  0  0  0  0  1  0  0  0  0  0  0
  155.2260  213.6960  154.9870 O   0  0  0  0  0  1  0  0  0  0  0  0
  1  6  1  1  0  0  0
  3  9  1  0  0  0  0
  3  8  1  1  0  0  0
  4  1  1  0  0  0  0
  4  2  1  1  0  0  0
  5  7  1  6  0  0  0
  5 23  1  0  0  0  0
  5  2  1  0  0  0  0
  8  1  1  0  0  0  0
  9  7  1  1  0  0  0
  9  4  1  0  0  0  0
 10 12  1  6  0  0  0
 10 15  1  0  0  0  0
 11 19  1  1  0  0  0
 11 14  1  0  0  0  0
 13 17  1  6  0  0  0
 13  3  1  0  0  0  0
 14 17  1  6  0  0  0
 14 13  1  0  0  0  0
 15 13  1  0  0  0  0
 16 11  1  0  0  0  0
 16 10  1  0  0  0  0
 18 16  2  0  0  0  0
 20 19  1  0  0  0  0
 22 21  1  1  0  0  0
 22 25  1  0  0  0  0
 23 21  1  1  0  0  0
 23 22  1  0  0  0  0
 24 27  1  6  0  0  0
 25 29  1  1  0  0  0
 25 28  1  0  0  0  0
 26 24  1  0  0  0  0
 28 30  1  1  0  0  0
 28 24  1  0  0  0  0
 29 26  1  0  0  0  0
 30 31  1  0  0  0  0
 31 32  1  6  0  0  0
 33 31  1  0  0  0  0
 34 36  1  0  0  0  0
 34 33  1  0  0  0  0
 35 34  1  0  0  0  0
 36 37  1  1  0  0  0
 38 36  1  0  0  0  0
M  END
>  <MODEL>
6

>  <REMARK>
 VINA RESULT:      -4.9      3.510      8.540
  Name = 
  9 active torsions:
  status: ('A' for Active; 'I' for Inactive)
    1  A    between atoms: C_5  and  C_24
    2  A    between atoms: C_6  and  C_8
    3  A    between atoms: C_6  and  C_14
    4  A    between atoms: C_8  and  C_32
    5  A    between atoms: N_9  and  C_36
    6  A    between atoms: C_11  and  C_21
    7  A    between atoms: C_14  and  N_23
    8  A    between atoms: C_15  and  N_23
    9  A    between atoms: C_16  and  C_17
                            x       y       z     vdW  Elec       q    Type
                         _______ _______ _______ _____ _____    ______ ____

>  <TORSDO>
F 9

$$$$
=
 OpenBabel11072412173D

 38 43  0  0  1  0  0  0  0  0999 V2000
  159.7410  207.2560  155.4040 C   0  0  1  0  0  3  0  0  0  0  0  0
  161.8220  206.3180  154.4350 C   0  0  0  0  0  2  0  0  0  0  0  0
  159.8620  209.0020  154.0170 C   0  0  2  0  0  3  0  0  0  0  0  0
  161.2270  207.4740  155.2140 C   0  0  1  0  0  3  0  0  0  0  0  0
  161.8610  206.7030  153.0310 N   0  0  1  0  0  0  0  0  0  0  0  0
  159.4480  206.9560  156.8600 C   0  0  0  0  0  1  0  0  0  0  0  0
  161.9800  208.1540  153.0430 C   0  0  0  0  0  2  0  0  0  0  0  0
  159.0600  208.4190  155.0150 O   0  0  0  0  0  0  0  0  0  0  0  0
  161.3110  208.6570  154.3040 C   0  0  1  0  0  3  0  0  0  0  0  0
  159.5270  212.6430  152.4680 C   0  0  2  0  0  3  0  0  0  0  0  0
  158.0850  212.4420  154.6650 C   0  0  1  0  0  3  0  0  0  0  0  0
  159.1000  213.0820  151.0790 C   0  0  0  0  0  1  0  0  0  0  0  0
  159.6700  210.5220  153.9230 C   0  0  2  0  0  0  0  0  0  0  0  0
  158.8410  211.1500  155.0390 C   0  0  1  0  0  3  0  0  0  0  0  0
  159.5050  211.1190  152.5200 C   0  0  0  0  0  2  0  0  0  0  0  0
  158.6380  213.2560  153.5180 C   0  0  0  0  0  0  0  0  0  0  0  0
  160.3590  211.3500  154.9960 C   0  0  0  0  0  2  0  0  0  0  0  0
  158.4020  214.4530  153.4820 O   0  0  0  0  0  0  0  0  0  0  0  0
  156.5920  212.1820  154.4980 C   0  0  0  0  0  2  0  0  0  0  0  0
  156.1850  211.1070  155.2910 O   0  0  0  0  0  1  0  0  0  0  0  0
  162.8280  204.9480  151.8140 O   0  0  0  0  0  0  0  0  0  0  0  0
  163.0660  206.0500  150.9710 C   0  0  2  0  0  3  0  0  0  0  0  0
  163.0950  206.1700  152.4640 C   0  0  1  0  0  3  0  0  0  0  0  0
  160.8710  206.3920  148.0480 C   0  0  2  0  0  3  0  0  0  0  0  0
  161.7580  206.4780  150.3070 C   0  0  2  0  0  3  0  0  0  0  0  0
  161.4670  207.7210  148.3570 C   0  0  0  0  0  2  0  0  0  0  0  0
  159.0890  206.5780  148.0360 Cl  0  0  0  0  0  0  0  0  0  0  0  0
  161.3870  205.5120  149.1940 C   0  0  1  0  0  3  0  0  0  0  0  0
  161.9460  207.7700  149.5930 C   0  0  0  0  0  2  0  0  0  0  0  0
  160.4110  204.4370  149.6740 C   0  0  0  0  0  2  0  0  0  0  0  0
  160.6980  203.0760  149.0440 C   0  0  2  0  0  3  0  0  0  0  0  0
  161.2190  202.2000  149.9980 O   0  0  0  0  0  1  0  0  0  0  0  0
  161.6490  203.1720  147.8550 C   0  0  0  0  0  2  0  0  0  0  0  0
  160.9270  203.0070  146.5930 N   0  0  0  0  0  0  0  0  0  0  0  0
  160.8230  201.5830  146.3000 C   0  0  0  0  0  1  0  0  0  0  0  0
  161.6490  203.6590  145.4890 C   0  0  2  0  0  3  0  0  0  0  0  0
  162.9270  204.3760  145.9270 C   0  0  0  0  0  1  0  0  0  0  0  0
  160.8080  204.5510  144.8220 O   0  0  0  0  0  1  0  0  0  0  0  0
  1  6  1  1  0  0  0
  3  9  1  0  0  0  0
  3  8  1  1  0  0  0
  4  2  1  6  0  0  0
  4  1  1  0  0  0  0
  5  7  1  1  0  0  0
  5  2  1  0  0  0  0
  8  1  1  0  0  0  0
  9  7  1  6  0  0  0
  9  4  1  0  0  0  0
 10 12  1  6  0  0  0
 10 15  1  0  0  0  0
 10 16  1  0  0  0  0
 11 19  1  6  0  0  0
 11 14  1  0  0  0  0
 13 15  1  6  0  0  0
 13  3  1  0  0  0  0
 13 17  1  0  0  0  0
 13 14  1  0  0  0  0
 14 17  1  1  0  0  0
 16 11  1  0  0  0  0
 18 16  2  0  0  0  0
 19 20  1  0  0  0  0
 22 21  1  1  0  0  0
 22 23  1  0  0  0  0
 23 21  1  1  0  0  0
 23  5  1  0  0  0  0
 24 27  1  1  0  0  0
 24 26  1  0  0  0  0
 24 28  1  0  0  0  0
 25 29  1  6  0  0  0
 25 22  1  0  0  0  0
 26 29  1  0  0  0  0
 28 30  1  1  0  0  0
 28 25  1  0  0  0  0
 31 30  1  0  0  0  0
 31 32  1  1  0  0  0
 33 31  1  0  0  0  0
 34 33  1  0  0  0  0
 35 34  1  0  0  0  0
 36 37  1  1  0  0  0
 36 34  1  0  0  0  0
 38 36  1  0  0  0  0
M  END
>  <MODEL>
7

>  <REMARK>
 VINA RESULT:      -4.6      2.755      4.550
  Name = 
  9 active torsions:
  status: ('A' for Active; 'I' for Inactive)
    1  A    between atoms: C_5  and  C_24
    2  A    between atoms: C_6  and  C_8
    3  A    between atoms: C_6  and  C_14
    4  A    between atoms: C_8  and  C_32
    5  A    between atoms: N_9  and  C_36
    6  A    between atoms: C_11  and  C_21
    7  A    between atoms: C_14  and  N_23
    8  A    between atoms: C_15  and  N_23
    9  A    between atoms: C_16  and  C_17
                            x       y       z     vdW  Elec       q    Type
                         _______ _______ _______ _____ _____    ______ ____

>  <TORSDO>
F 9

$$$$
