=
 OpenBabel11072411493D

 53 57  0  0  1  0  0  0  0  0999 V2000
  161.0000  207.1330  149.6470 C   0  0  2  0  0  3  0  0  0  0  0  0
  161.1940  204.8540  149.0550 O   0  0  0  0  0  0  0  0  0  0  0  0
  161.8740  206.0500  149.0340 C   0  0  1  0  0  3  0  0  0  0  0  0
  162.5310  205.4760  146.9800 C   0  0  0  0  0  2  0  0  0  0  0  0
  161.6430  204.3100  146.9220 C   0  0  0  0  0  2  0  0  0  0  0  0
  161.2270  205.5050  147.7940 C   0  0  0  0  0  0  0  0  0  0  0  0
  162.5910  208.5910  150.6500 O   0  0  0  0  0  0  0  0  0  0  0  0
  161.7520  208.4230  149.7240 C   0  0  0  0  0  0  0  0  0  0  0  0
  161.5000  209.4400  148.7980 O   0  0  0  0  0  0  0  0  0  0  0  0
  162.3320  210.5880  148.6940 C   0  0  0  0  0  2  0  0  0  0  0  0
  161.6590  211.7420  149.2710 N   0  0  0  0  0  2  0  0  0  0  0  0
  162.1820  212.8840  148.6520 N   0  0  0  0  0  2  0  0  0  0  0  0
  161.0520  213.7340  148.3220 C   0  0  0  0  0  2  0  0  0  0  0  0
  159.3310  212.4000  144.5470 C   0  0  0  0  0  3  0  0  0  0  0  0
  160.4420  213.2980  147.0350 C   0  0  0  0  0  0  0  0  0  0  0  0
  159.1340  213.0330  146.9890 C   0  0  0  0  0  3  0  0  0  0  0  0
  160.6450  212.6490  144.5690 C   0  0  0  0  0  0  0  0  0  0  0  0
  158.5080  212.5780  145.7460 C   0  0  0  0  0  0  0  0  0  0  0  0
  161.3400  213.1220  145.8310 C   0  0  0  0  0  2  0  0  0  0  0  0
  157.2750  212.3380  145.7090 O   0  0  0  0  0  0  0  0  0  0  0  0
  160.8580  211.8210  142.2040 N   0  0  0  0  0  2  0  0  0  0  0  0
  161.4440  212.4520  143.3460 C   0  0  0  0  0  0  0  0  0  0  0  0
  162.6460  212.8360  143.3050 O   0  0  0  0  0  0  0  0  0  0  0  0
  161.5720  211.6560  140.9480 C   0  0  0  0  0  2  0  0  0  0  0  0
  160.9710  210.5040  140.1640 C   0  0  0  0  0  2  0  0  0  0  0  0
  162.0030  209.9620  139.1870 C   0  0  0  0  0  2  0  0  0  0  0  0
  161.5920  208.6130  138.5890 C   0  0  2  0  0  3  0  0  0  0  0  0
  160.2050  208.4470  138.6230 O   0  0  0  0  0  1  0  0  0  0  0  0
  161.7370  207.1100  140.4600 O   0  0  0  0  0  1  0  0  0  0  0  0
  162.2390  206.2930  138.3890 O   0  0  0  0  0  1  0  0  0  0  0  0
  162.3020  207.4120  139.2210 C   0  0  0  0  0  3  0  0  0  0  0  0
  160.5240  206.6910  151.0250 C   0  0  0  0  0  2  0  0  0  0  0  0
  162.2540  206.3440  152.7810 C   0  0  0  0  0  1  0  0  0  0  0  0
  161.3420  207.3600  152.1210 C   0  0  2  0  0  3  0  0  0  0  0  0
  160.4810  207.9200  153.1050 O   0  0  0  0  0  0  0  0  0  0  0  0
  161.3370  208.5000  155.1490 O   0  0  0  0  0  0  0  0  0  0  0  0
  160.9030  208.8800  154.0290 C   0  0  0  0  0  0  0  0  0  0  0  0
  159.4410  210.7260  151.8000 F   0  0  0  0  0  0  0  0  0  0  0  0
  162.5140  210.7050  155.4520 O   0  0  0  0  0  1  0  0  0  0  0  0
  160.0310  212.9930  155.9660 C   0  0  1  0  0  3  0  0  0  0  0  0
  161.3640  211.2320  154.8590 C   0  0  1  0  0  3  0  0  0  0  0  0
  159.0030  212.0720  155.3110 C   0  0  2  0  0  0  0  0  0  0  0  0
  160.8670  210.3480  153.7010 C   0  0  2  0  0  3  0  0  0  0  0  0
  159.6490  213.3490  157.2610 O   0  0  0  0  0  1  0  0  0  0  0  0
  160.2890  211.4940  155.9110 C   0  0  2  0  0  3  0  0  0  0  0  0
  159.4750  210.7390  153.1810 C   0  0  1  0  0  3  0  0  0  0  0  0
  158.9100  212.0470  153.7660 C   0  0  2  0  0  3  0  0  0  0  0  0
  156.9320  210.6440  155.4180 C   0  0  0  0  0  1  0  0  0  0  0  0
  157.7500  211.7130  156.1190 C   0  0  0  0  0  3  0  0  0  0  0  0
  156.8930  212.9420  156.3500 C   0  0  0  0  0  1  0  0  0  0  0  0
  159.9980  213.1000  151.8650 O   0  0  0  0  0  1  0  0  0  0  0  0
  159.3600  213.3480  153.0820 C   0  0  1  0  0  3  0  0  0  0  0  0
  158.1800  214.2740  152.8620 C   0  0  0  0  0  1  0  0  0  0  0  0
  1  8  1  0  0  0  0
  1 32  1  1  0  0  0
  3  2  1  0  0  0  0
  3  1  1  1  0  0  0
  4  6  1  0  0  0  0
  5  4  1  0  0  0  0
  5  6  1  0  0  0  0
  6  3  1  0  0  0  0
  6  2  1  0  0  0  0
  8  7  2  0  0  0  0
  9  8  1  0  0  0  0
 10  9  1  0  0  0  0
 10 11  1  0  0  0  0
 12 11  1  0  0  0  0
 13 12  1  0  0  0  0
 14 17  2  0  0  0  0
 14 18  1  0  0  0  0
 15 13  1  0  0  0  0
 16 15  2  0  0  0  0
 17 19  1  0  0  0  0
 18 16  1  0  0  0  0
 19 15  1  0  0  0  0
 20 18  2  0  0  0  0
 21 22  1  0  0  0  0
 22 17  1  0  0  0  0
 23 22  2  0  0  0  0
 24 21  1  0  0  0  0
 25 24  1  0  0  0  0
 26 25  1  0  0  0  0
 27 28  1  1  0  0  0
 27 26  1  0  0  0  0
 27 31  1  0  0  0  0
 30 31  1  0  0  0  0
 31 29  1  0  0  0  0
 32 34  1  0  0  0  0
 34 33  1  1  0  0  0
 34 35  1  0  0  0  0
 35 37  1  0  0  0  0
 37 36  2  0  0  0  0
 38 46  1  0  0  0  0
 40 44  1  1  0  0  0
 41 39  1  1  0  0  0
 41 45  1  0  0  0  0
 42 45  1  0  0  0  0
 42 40  1  0  0  0  0
 42 49  1  1  0  0  0
 43 37  1  1  0  0  0
 43 41  1  0  0  0  0
 45 40  1  0  0  0  0
 46 43  1  0  0  0  0
 46 47  1  0  0  0  0
 47 42  1  0  0  0  0
 48 49  1  0  0  0  0
 49 50  1  0  0  0  0
 51 52  1  0  0  0  0
 52 47  1  0  0  0  0
 53 52  1  0  0  0  0
M  END
>  <MODEL>
1

>  <REMARK>
 VINA RESULT:      -6.4      0.000      0.000
  Name = 
  21 active torsions:
  status: ('A' for Active; 'I' for Inactive)
    1  A    between atoms: C_5  and  C_6
    2  A    between atoms: C_5  and  N_49
    3  A    between atoms: C_10  and  C_23
    4  A    between atoms: C_10  and  C_46
    5  A    between atoms: C_11  and  C_26
    6  A    between atoms: N_13  and  C_31
    7  A    between atoms: C_14  and  C_32
    8  A    between atoms: C_21  and  C_23
    9  A    between atoms: C_21  and  C_31
   10  A    between atoms: C_24  and  C_27
   11  A    between atoms: C_24  and  C_33
   12  A    between atoms: C_25  and  C_53
   13  A    between atoms: C_27  and  C_39
   14  A    between atoms: C_27  and  C_45
   15  A    between atoms: C_33  and  O_36
   16  A    between atoms: N_35  and  C_41
   17  A    between atoms: N_35  and  N_49
   18  A    between atoms: O_36  and  C_38
   19  A    between atoms: C_37  and  C_38
   20  A    between atoms: C_41  and  O_42
   21  A    between atoms: O_42  and  C_45
                            x       y       z     vdW  Elec       q    Type
                         _______ _______ _______ _____ _____    ______ ____

>  <TORSDO>
F 21

$$$$
=
 OpenBabel11072411493D

 53 57  0  0  1  0  0  0  0  0999 V2000
  161.3030  207.3980  152.1420 C   0  0  2  0  0  3  0  0  0  0  0  0
  161.6430  209.5180  151.1560 O   0  0  0  0  0  0  0  0  0  0  0  0
  161.0120  208.3110  150.9610 C   0  0  1  0  0  3  0  0  0  0  0  0
  161.6820  208.4670  148.8380 C   0  0  0  0  0  2  0  0  0  0  0  0
  162.5260  209.6390  149.0930 C   0  0  0  0  0  2  0  0  0  0  0  0
  162.2860  208.6440  150.2400 C   0  0  0  0  0  0  0  0  0  0  0  0
  160.5650  205.7120  150.6340 O   0  0  0  0  0  0  0  0  0  0  0  0
  161.0260  205.9750  151.7770 C   0  0  0  0  0  0  0  0  0  0  0  0
  161.2470  204.9550  152.7070 O   0  0  0  0  0  0  0  0  0  0  0  0
  160.7640  203.6330  152.5060 C   0  0  0  0  0  2  0  0  0  0  0  0
  161.4890  203.0000  151.4160 N   0  0  0  0  0  2  0  0  0  0  0  0
  160.5450  202.6050  150.4590 N   0  0  0  0  0  2  0  0  0  0  0  0
  161.0950  201.4420  149.7860 C   0  0  0  0  0  2  0  0  0  0  0  0
  161.0690  202.0600  145.4720 C   0  0  0  0  0  3  0  0  0  0  0  0
  161.0600  201.6400  148.3100 C   0  0  0  0  0  0  0  0  0  0  0  0
  160.7680  200.6040  147.5190 C   0  0  0  0  0  3  0  0  0  0  0  0
  161.3750  203.1110  146.2410 C   0  0  0  0  0  0  0  0  0  0  0  0
  160.7490  200.7590  146.0630 C   0  0  0  0  0  0  0  0  0  0  0  0
  161.4070  203.0020  147.7540 C   0  0  0  0  0  2  0  0  0  0  0  0
  160.4660  199.7810  145.3260 O   0  0  0  0  0  0  0  0  0  0  0  0
  161.2410  204.6880  144.2870 N   0  0  0  0  0  2  0  0  0  0  0  0
  161.6980  204.4050  145.6130 C   0  0  0  0  0  0  0  0  0  0  0  0
  162.3800  205.2620  146.2400 O   0  0  0  0  0  0  0  0  0  0  0  0
  161.4710  205.9680  143.6360 C   0  0  0  0  0  2  0  0  0  0  0  0
  161.6090  205.7650  142.1390 C   0  0  0  0  0  2  0  0  0  0  0  0
  161.5050  207.1070  141.4320 C   0  0  0  0  0  2  0  0  0  0  0  0
  162.1120  207.0780  140.0270 C   0  0  2  0  0  3  0  0  0  0  0  0
  163.4980  206.9040  140.0790 O   0  0  0  0  0  1  0  0  0  0  0  0
  160.3610  208.4560  139.1220 O   0  0  0  0  0  1  0  0  0  0  0  0
  162.3430  209.4560  139.6560 O   0  0  0  0  0  1  0  0  0  0  0  0
  161.7460  208.2920  139.1670 C   0  0  0  0  0  3  0  0  0  0  0  0
  160.4700  207.8300  153.3420 C   0  0  0  0  0  2  0  0  0  0  0  0
  160.5700  207.1840  155.7450 C   0  0  0  0  0  1  0  0  0  0  0  0
  161.3170  207.8530  154.6080 C   0  0  2  0  0  3  0  0  0  0  0  0
  161.6150  209.1950  154.9740 O   0  0  0  0  0  0  0  0  0  0  0  0
  160.0660  209.7120  156.5800 O   0  0  0  0  0  0  0  0  0  0  0  0
  160.6680  210.0600  155.5300 C   0  0  0  0  0  0  0  0  0  0  0  0
  159.6210  211.0970  152.6420 F   0  0  0  0  0  0  0  0  0  0  0  0
  161.1880  212.4430  156.9440 O   0  0  0  0  0  1  0  0  0  0  0  0
  158.1830  213.9020  156.2340 C   0  0  1  0  0  3  0  0  0  0  0  0
  160.2110  212.5190  155.9490 C   0  0  1  0  0  3  0  0  0  0  0  0
  157.7030  212.6400  155.5180 C   0  0  2  0  0  0  0  0  0  0  0  0
  160.3720  211.3980  154.9080 C   0  0  2  0  0  3  0  0  0  0  0  0
  157.3110  214.2700  157.2610 O   0  0  0  0  0  1  0  0  0  0  0  0
  158.8150  212.5580  156.5690 C   0  0  2  0  0  3  0  0  0  0  0  0
  159.1860  211.2800  153.9400 C   0  0  1  0  0  3  0  0  0  0  0  0
  158.1450  212.4100  154.0520 C   0  0  2  0  0  3  0  0  0  0  0  0
  156.1630  210.6580  155.3350 C   0  0  0  0  0  1  0  0  0  0  0  0
  156.3870  212.0100  155.9870 C   0  0  0  0  0  3  0  0  0  0  0  0
  155.2180  212.9250  155.6800 C   0  0  0  0  0  1  0  0  0  0  0  0
  159.3110  213.4590  152.1970 O   0  0  0  0  0  1  0  0  0  0  0  0
  158.4520  213.6980  153.2710 C   0  0  1  0  0  3  0  0  0  0  0  0
  157.1730  214.3410  152.7720 C   0  0  0  0  0  1  0  0  0  0  0  0
  1 32  1  1  0  0  0
  3  2  1  0  0  0  0
  3  1  1  1  0  0  0
  4  5  1  0  0  0  0
  4  6  1  0  0  0  0
  5  6  1  0  0  0  0
  6  3  1  0  0  0  0
  6  2  1  0  0  0  0
  7  8  2  0  0  0  0
  8  1  1  0  0  0  0
  8  9  1  0  0  0  0
 10  9  1  0  0  0  0
 11 10  1  0  0  0  0
 12 11  1  0  0  0  0
 13 12  1  0  0  0  0
 14 18  1  0  0  0  0
 14 17  2  0  0  0  0
 15 13  1  0  0  0  0
 16 15  2  0  0  0  0
 17 19  1  0  0  0  0
 18 16  1  0  0  0  0
 19 15  1  0  0  0  0
 20 18  2  0  0  0  0
 21 22  1  0  0  0  0
 22 23  2  0  0  0  0
 22 17  1  0  0  0  0
 24 21  1  0  0  0  0
 25 24  1  0  0  0  0
 26 25  1  0  0  0  0
 27 28  1  1  0  0  0
 27 26  1  0  0  0  0
 29 31  1  0  0  0  0
 31 30  1  0  0  0  0
 31 27  1  0  0  0  0
 32 34  1  0  0  0  0
 34 35  1  0  0  0  0
 34 33  1  1  0  0  0
 35 37  1  0  0  0  0
 37 36  2  0  0  0  0
 38 46  1  0  0  0  0
 40 45  1  0  0  0  0
 40 44  1  1  0  0  0
 41 45  1  0  0  0  0
 41 39  1  1  0  0  0
 42 49  1  1  0  0  0
 42 40  1  0  0  0  0
 42 45  1  0  0  0  0
 43 37  1  1  0  0  0
 43 41  1  0  0  0  0
 46 47  1  0  0  0  0
 46 43  1  0  0  0  0
 47 42  1  0  0  0  0
 48 49  1  0  0  0  0
 50 49  1  0  0  0  0
 51 52  1  0  0  0  0
 52 47  1  0  0  0  0
 53 52  1  0  0  0  0
M  END
>  <MODEL>
2

>  <REMARK>
 VINA RESULT:      -5.7      3.429      5.967
  Name = 
  21 active torsions:
  status: ('A' for Active; 'I' for Inactive)
    1  A    between atoms: C_5  and  C_6
    2  A    between atoms: C_5  and  N_49
    3  A    between atoms: C_10  and  C_23
    4  A    between atoms: C_10  and  C_46
    5  A    between atoms: C_11  and  C_26
    6  A    between atoms: N_13  and  C_31
    7  A    between atoms: C_14  and  C_32
    8  A    between atoms: C_21  and  C_23
    9  A    between atoms: C_21  and  C_31
   10  A    between atoms: C_24  and  C_27
   11  A    between atoms: C_24  and  C_33
   12  A    between atoms: C_25  and  C_53
   13  A    between atoms: C_27  and  C_39
   14  A    between atoms: C_27  and  C_45
   15  A    between atoms: C_33  and  O_36
   16  A    between atoms: N_35  and  C_41
   17  A    between atoms: N_35  and  N_49
   18  A    between atoms: O_36  and  C_38
   19  A    between atoms: C_37  and  C_38
   20  A    between atoms: C_41  and  O_42
   21  A    between atoms: O_42  and  C_45
                            x       y       z     vdW  Elec       q    Type
                         _______ _______ _______ _____ _____    ______ ____

>  <TORSDO>
F 21

$$$$
=
 OpenBabel11072411493D

 53 57  0  0  1  0  0  0  0  0999 V2000
  161.1570  205.5670  148.0890 C   0  0  2  0  0  3  0  0  0  0  0  0
  161.7350  203.6920  149.4050 O   0  0  0  0  0  0  0  0  0  0  0  0
  161.6640  204.1330  148.1030 C   0  0  1  0  0  3  0  0  0  0  0  0
  160.8300  202.1210  147.6180 C   0  0  0  0  0  2  0  0  0  0  0  0
  160.7100  201.7290  149.0250 C   0  0  0  0  0  2  0  0  0  0  0  0
  160.6150  203.2210  148.6700 C   0  0  0  0  0  0  0  0  0  0  0  0
  160.1940  207.0540  146.5000 O   0  0  0  0  0  0  0  0  0  0  0  0
  160.8470  205.9920  146.6890 C   0  0  0  0  0  0  0  0  0  0  0  0
  161.2480  205.2010  145.6090 O   0  0  0  0  0  0  0  0  0  0  0  0
  162.1540  205.6750  144.6220 C   0  0  0  0  0  2  0  0  0  0  0  0
  161.7140  205.2560  143.3010 N   0  0  0  0  0  2  0  0  0  0  0  0
  161.5970  206.4090  142.5140 N   0  0  0  0  0  2  0  0  0  0  0  0
  162.3320  206.1540  141.2880 C   0  0  0  0  0  2  0  0  0  0  0  0
  161.6670  209.3580  138.4110 C   0  0  0  0  0  3  0  0  0  0  0  0
  162.0770  207.2390  140.3000 C   0  0  0  0  0  0  0  0  0  0  0  0
  161.5320  206.9330  139.1200 C   0  0  0  0  0  3  0  0  0  0  0  0
  162.2230  209.6900  139.5820 C   0  0  0  0  0  0  0  0  0  0  0  0
  161.2920  207.9730  138.1180 C   0  0  0  0  0  0  0  0  0  0  0  0
  162.4920  208.6490  140.6530 C   0  0  0  0  0  2  0  0  0  0  0  0
  160.7710  207.6790  137.0120 O   0  0  0  0  0  0  0  0  0  0  0  0
  161.6800  211.9600  140.5180 N   0  0  0  0  0  2  0  0  0  0  0  0
  162.5950  211.0920  139.8410 C   0  0  0  0  0  0  0  0  0  0  0  0
  163.7160  211.5310  139.4650 O   0  0  0  0  0  0  0  0  0  0  0  0
  162.0110  213.3340  140.8610 C   0  0  0  0  0  2  0  0  0  0  0  0
  161.0690  213.8350  141.9390 C   0  0  0  0  0  2  0  0  0  0  0  0
  160.7490  212.7020  142.9010 C   0  0  0  0  0  2  0  0  0  0  0  0
  160.6710  213.1730  144.3560 C   0  0  2  0  0  3  0  0  0  0  0  0
  161.9150  213.0750  144.9860 O   0  0  0  0  0  1  0  0  0  0  0  0
  160.1240  211.9640  146.3610 O   0  0  0  0  0  1  0  0  0  0  0  0
  158.5360  213.3450  145.4750 O   0  0  0  0  0  1  0  0  0  0  0  0
  159.5850  212.4730  145.1780 C   0  0  0  0  0  3  0  0  0  0  0  0
  162.1930  206.4850  148.7250 C   0  0  0  0  0  2  0  0  0  0  0  0
  161.7330  208.9170  148.9990 C   0  0  0  0  0  1  0  0  0  0  0  0
  161.5200  207.5390  149.5950 C   0  0  2  0  0  3  0  0  0  0  0  0
  162.0650  207.5110  150.9090 O   0  0  0  0  0  0  0  0  0  0  0  0
  162.5110  209.6140  151.7020 O   0  0  0  0  0  0  0  0  0  0  0  0
  161.8670  208.5400  151.8350 C   0  0  0  0  0  0  0  0  0  0  0  0
  161.4610  206.4620  154.2910 F   0  0  0  0  0  0  0  0  0  0  0  0
  159.6550  210.2740  152.0580 O   0  0  0  0  0  1  0  0  0  0  0  0
  160.0700  210.9010  155.3890 C   0  0  1  0  0  3  0  0  0  0  0  0
  160.0890  209.6760  153.2430 C   0  0  1  0  0  3  0  0  0  0  0  0
  161.3560  210.0760  155.4170 C   0  0  2  0  0  0  0  0  0  0  0  0
  160.8910  208.3910  152.9700 C   0  0  2  0  0  3  0  0  0  0  0  0
  160.2880  212.2030  155.8450 O   0  0  0  0  0  1  0  0  0  0  0  0
  160.8530  210.6820  154.1020 C   0  0  2  0  0  3  0  0  0  0  0  0
  161.6040  207.8340  154.2120 C   0  0  1  0  0  3  0  0  0  0  0  0
  161.2430  208.5360  155.5340 C   0  0  2  0  0  3  0  0  0  0  0  0
  163.7310  210.7300  154.9020 C   0  0  0  0  0  1  0  0  0  0  0  0
  162.6270  210.7520  155.9420 C   0  0  0  0  0  3  0  0  0  0  0  0
  163.1070  210.0740  157.2110 C   0  0  0  0  0  1  0  0  0  0  0  0
  159.0280  207.5560  155.3290 O   0  0  0  0  0  1  0  0  0  0  0  0
  159.9680  208.0440  156.2390 C   0  0  1  0  0  3  0  0  0  0  0  0
  160.2980  206.9730  157.2590 C   0  0  0  0  0  1  0  0  0  0  0  0
  1 32  1  6  0  0  0
  3  1  1  1  0  0  0
  3  6  1  0  0  0  0
  3  2  1  0  0  0  0
  4  6  1  0  0  0  0
  4  5  1  0  0  0  0
  6  5  1  0  0  0  0
  6  2  1  0  0  0  0
  7  8  2  0  0  0  0
  8  1  1  0  0  0  0
  9  8  1  0  0  0  0
 10  9  1  0  0  0  0
 11 10  1  0  0  0  0
 12 11  1  0  0  0  0
 13 12  1  0  0  0  0
 14 17  2  0  0  0  0
 15 19  1  0  0  0  0
 15 13  1  0  0  0  0
 16 15  2  0  0  0  0
 17 22  1  0  0  0  0
 17 19  1  0  0  0  0
 18 14  1  0  0  0  0
 18 16  1  0  0  0  0
 20 18  2  0  0  0  0
 21 24  1  0  0  0  0
 22 21  1  0  0  0  0
 23 22  2  0  0  0  0
 24 25  1  0  0  0  0
 25 26  1  0  0  0  0
 26 27  1  0  0  0  0
 27 28  1  1  0  0  0
 27 31  1  0  0  0  0
 31 30  1  0  0  0  0
 31 29  1  0  0  0  0
 32 34  1  0  0  0  0
 34 33  1  6  0  0  0
 34 35  1  0  0  0  0
 35 37  1  0  0  0  0
 36 37  2  0  0  0  0
 40 42  1  0  0  0  0
 40 44  1  1  0  0  0
 41 39  1  6  0  0  0
 41 45  1  0  0  0  0
 42 47  1  0  0  0  0
 42 49  1  1  0  0  0
 43 37  1  6  0  0  0
 43 41  1  0  0  0  0
 43 46  1  0  0  0  0
 45 40  1  0  0  0  0
 45 42  1  0  0  0  0
 46 38  1  0  0  0  0
 46 47  1  0  0  0  0
 47 52  1  0  0  0  0
 48 49  1  0  0  0  0
 49 50  1  0  0  0  0
 51 52  1  0  0  0  0
 52 53  1  0  0  0  0
M  END
>  <MODEL>
3

>  <REMARK>
 VINA RESULT:      -5.3      2.684      5.894
  Name = 
  21 active torsions:
  status: ('A' for Active; 'I' for Inactive)
    1  A    between atoms: C_5  and  C_6
    2  A    between atoms: C_5  and  N_49
    3  A    between atoms: C_10  and  C_23
    4  A    between atoms: C_10  and  C_46
    5  A    between atoms: C_11  and  C_26
    6  A    between atoms: N_13  and  C_31
    7  A    between atoms: C_14  and  C_32
    8  A    between atoms: C_21  and  C_23
    9  A    between atoms: C_21  and  C_31
   10  A    between atoms: C_24  and  C_27
   11  A    between atoms: C_24  and  C_33
   12  A    between atoms: C_25  and  C_53
   13  A    between atoms: C_27  and  C_39
   14  A    between atoms: C_27  and  C_45
   15  A    between atoms: C_33  and  O_36
   16  A    between atoms: N_35  and  C_41
   17  A    between atoms: N_35  and  N_49
   18  A    between atoms: O_36  and  C_38
   19  A    between atoms: C_37  and  C_38
   20  A    between atoms: C_41  and  O_42
   21  A    between atoms: O_42  and  C_45
                            x       y       z     vdW  Elec       q    Type
                         _______ _______ _______ _____ _____    ______ ____

>  <TORSDO>
F 21

$$$$
=
 OpenBabel11072411493D

 53 57  0  0  1  0  0  0  0  0999 V2000
  160.9960  205.3600  148.3800 C   0  0  2  0  0  3  0  0  0  0  0  0
  161.0110  203.5350  149.8810 O   0  0  0  0  0  0  0  0  0  0  0  0
  161.5070  203.9570  148.6690 C   0  0  1  0  0  3  0  0  0  0  0  0
  161.0680  201.8950  147.9340 C   0  0  0  0  0  2  0  0  0  0  0  0
  160.3510  201.5130  149.1550 C   0  0  0  0  0  2  0  0  0  0  0  0
  160.3570  202.9930  148.7420 C   0  0  0  0  0  0  0  0  0  0  0  0
  160.0800  206.3670  146.4290 O   0  0  0  0  0  0  0  0  0  0  0  0
  160.9640  205.6060  146.9060 C   0  0  0  0  0  0  0  0  0  0  0  0
  161.8860  204.9710  146.0670 O   0  0  0  0  0  0  0  0  0  0  0  0
  162.3830  205.5900  144.8880 C   0  0  0  0  0  2  0  0  0  0  0  0
  161.4890  205.3220  143.7720 N   0  0  0  0  0  2  0  0  0  0  0  0
  161.5870  206.4050  142.8880 N   0  0  0  0  0  2  0  0  0  0  0  0
  162.1640  205.8890  141.6600 C   0  0  0  0  0  2  0  0  0  0  0  0
  161.8690  208.8950  138.5190 C   0  0  0  0  0  3  0  0  0  0  0  0
  162.0420  206.9000  140.5720 C   0  0  0  0  0  0  0  0  0  0  0  0
  162.0910  206.4990  139.2990 C   0  0  0  0  0  3  0  0  0  0  0  0
  161.8280  209.3240  139.7850 C   0  0  0  0  0  0  0  0  0  0  0  0
  162.0000  207.4700  138.2080 C   0  0  0  0  0  0  0  0  0  0  0  0
  161.9180  208.3580  140.9510 C   0  0  0  0  0  2  0  0  0  0  0  0
  162.0390  207.0840  137.0120 O   0  0  0  0  0  0  0  0  0  0  0  0
  161.2570  211.2100  141.3470 N   0  0  0  0  0  2  0  0  0  0  0  0
  161.7030  210.7660  140.0630 C   0  0  0  0  0  0  0  0  0  0  0  0
  161.9850  211.6110  139.1680 O   0  0  0  0  0  0  0  0  0  0  0  0
  161.1730  212.6170  141.7050 C   0  0  0  0  0  2  0  0  0  0  0  0
  161.7280  212.8260  143.1010 C   0  0  0  0  0  2  0  0  0  0  0  0
  160.7980  213.7380  143.8860 C   0  0  0  0  0  2  0  0  0  0  0  0
  161.0060  213.6250  145.3990 C   0  0  2  0  0  3  0  0  0  0  0  0
  162.3650  213.5500  145.7180 O   0  0  0  0  0  1  0  0  0  0  0  0
  160.9510  211.9430  147.1160 O   0  0  0  0  0  1  0  0  0  0  0  0
  158.9760  212.9070  146.4960 O   0  0  0  0  0  1  0  0  0  0  0  0
  160.2270  212.4780  146.0490 C   0  0  0  0  0  3  0  0  0  0  0  0
  161.8740  206.3820  149.0900 C   0  0  0  0  0  2  0  0  0  0  0  0
  162.1270  208.8580  149.0280 C   0  0  0  0  0  1  0  0  0  0  0  0
  161.1500  207.7150  149.2240 C   0  0  2  0  0  3  0  0  0  0  0  0
  160.5600  207.8250  150.5140 O   0  0  0  0  0  0  0  0  0  0  0  0
  162.1110  207.5440  152.1760 O   0  0  0  0  0  0  0  0  0  0  0  0
  161.2560  208.2920  151.6320 C   0  0  0  0  0  0  0  0  0  0  0  0
  158.6520  210.0790  152.3640 F   0  0  0  0  0  0  0  0  0  0  0  0
  163.4180  210.0390  152.1110 O   0  0  0  0  0  1  0  0  0  0  0  0
  162.3740  211.0010  155.2170 C   0  0  1  0  0  3  0  0  0  0  0  0
  162.2610  210.2720  152.8590 C   0  0  1  0  0  3  0  0  0  0  0  0
  161.2020  210.0220  155.1610 C   0  0  2  0  0  0  0  0  0  0  0  0
  161.0160  209.6730  152.1810 C   0  0  2  0  0  3  0  0  0  0  0  0
  163.1760  210.7760  156.3380 O   0  0  0  0  0  1  0  0  0  0  0  0
  162.4450  209.7910  154.2960 C   0  0  2  0  0  3  0  0  0  0  0  0
  159.7660  209.6770  153.0730 C   0  0  1  0  0  3  0  0  0  0  0  0
  159.9220  210.4440  154.4000 C   0  0  2  0  0  3  0  0  0  0  0  0
  160.7780  207.6150  155.7650 C   0  0  0  0  0  1  0  0  0  0  0  0
  161.0660  209.0060  156.3010 C   0  0  0  0  0  3  0  0  0  0  0  0
  159.9680  209.4220  157.2600 C   0  0  0  0  0  1  0  0  0  0  0  0
  159.6610  212.4290  153.0230 O   0  0  0  0  0  1  0  0  0  0  0  0
  159.6910  211.9630  154.3380 C   0  0  1  0  0  3  0  0  0  0  0  0
  158.4040  212.3390  155.0450 C   0  0  0  0  0  1  0  0  0  0  0  0
  1 32  1  1  0  0  0
  3  1  1  1  0  0  0
  3  6  1  0  0  0  0
  3  2  1  0  0  0  0
  4  6  1  0  0  0  0
  4  5  1  0  0  0  0
  6  5  1  0  0  0  0
  6  2  1  0  0  0  0
  7  8  2  0  0  0  0
  8  1  1  0  0  0  0
  9  8  1  0  0  0  0
 10  9  1  0  0  0  0
 11 10  1  0  0  0  0
 12 11  1  0  0  0  0
 13 12  1  0  0  0  0
 14 17  2  0  0  0  0
 15 19  1  0  0  0  0
 15 13  1  0  0  0  0
 16 15  2  0  0  0  0
 17 22  1  0  0  0  0
 17 19  1  0  0  0  0
 18 14  1  0  0  0  0
 18 16  1  0  0  0  0
 20 18  2  0  0  0  0
 21 24  1  0  0  0  0
 22 21  1  0  0  0  0
 23 22  2  0  0  0  0
 24 25  1  0  0  0  0
 25 26  1  0  0  0  0
 26 27  1  0  0  0  0
 27 28  1  6  0  0  0
 27 31  1  0  0  0  0
 31 30  1  0  0  0  0
 31 29  1  0  0  0  0
 32 34  1  0  0  0  0
 34 33  1  1  0  0  0
 34 35  1  0  0  0  0
 35 37  1  0  0  0  0
 37 36  2  0  0  0  0
 38 46  1  0  0  0  0
 40 44  1  1  0  0  0
 41 39  1  6  0  0  0
 41 45  1  0  0  0  0
 42 40  1  0  0  0  0
 42 49  1  1  0  0  0
 43 37  1  1  0  0  0
 43 41  1  0  0  0  0
 43 46  1  0  0  0  0
 45 42  1  0  0  0  0
 45 40  1  0  0  0  0
 46 47  1  0  0  0  0
 47 42  1  0  0  0  0
 48 49  1  0  0  0  0
 49 50  1  0  0  0  0
 51 52  1  0  0  0  0
 52 47  1  0  0  0  0
 52 53  1  0  0  0  0
M  END
>  <MODEL>
4

>  <REMARK>
 VINA RESULT:      -5.0      2.325      5.648
  Name = 
  21 active torsions:
  status: ('A' for Active; 'I' for Inactive)
    1  A    between atoms: C_5  and  C_6
    2  A    between atoms: C_5  and  N_49
    3  A    between atoms: C_10  and  C_23
    4  A    between atoms: C_10  and  C_46
    5  A    between atoms: C_11  and  C_26
    6  A    between atoms: N_13  and  C_31
    7  A    between atoms: C_14  and  C_32
    8  A    between atoms: C_21  and  C_23
    9  A    between atoms: C_21  and  C_31
   10  A    between atoms: C_24  and  C_27
   11  A    between atoms: C_24  and  C_33
   12  A    between atoms: C_25  and  C_53
   13  A    between atoms: C_27  and  C_39
   14  A    between atoms: C_27  and  C_45
   15  A    between atoms: C_33  and  O_36
   16  A    between atoms: N_35  and  C_41
   17  A    between atoms: N_35  and  N_49
   18  A    between atoms: O_36  and  C_38
   19  A    between atoms: C_37  and  C_38
   20  A    between atoms: C_41  and  O_42
   21  A    between atoms: O_42  and  C_45
                            x       y       z     vdW  Elec       q    Type
                         _______ _______ _______ _____ _____    ______ ____

>  <TORSDO>
F 21

$$$$
=
 OpenBabel11072411493D

 53 57  0  0  1  0  0  0  0  0999 V2000
  161.1900  205.5580  148.2940 C   0  0  2  0  0  3  0  0  0  0  0  0
  161.6370  203.8930  149.9100 O   0  0  0  0  0  0  0  0  0  0  0  0
  161.6480  204.1320  148.5550 C   0  0  1  0  0  3  0  0  0  0  0  0
  160.7760  202.0890  148.3330 C   0  0  0  0  0  2  0  0  0  0  0  0
  160.5700  201.9200  149.7750 C   0  0  0  0  0  2  0  0  0  0  0  0
  160.5420  203.3420  149.1930 C   0  0  0  0  0  0  0  0  0  0  0  0
  159.9960  206.5120  146.4710 O   0  0  0  0  0  0  0  0  0  0  0  0
  160.9430  205.7640  146.8340 C   0  0  0  0  0  0  0  0  0  0  0  0
  161.7350  205.1070  145.8880 O   0  0  0  0  0  0  0  0  0  0  0  0
  162.2500  205.7720  144.7420 C   0  0  0  0  0  2  0  0  0  0  0  0
  161.4960  205.3820  143.5610 N   0  0  0  0  0  2  0  0  0  0  0  0
  161.4790  206.4820  142.6940 N   0  0  0  0  0  2  0  0  0  0  0  0
  162.2150  206.0880  141.5060 C   0  0  0  0  0  2  0  0  0  0  0  0
  161.9290  209.1800  138.4480 C   0  0  0  0  0  3  0  0  0  0  0  0
  162.0900  207.1340  140.4530 C   0  0  0  0  0  0  0  0  0  0  0  0
  161.6980  206.7830  139.2260 C   0  0  0  0  0  3  0  0  0  0  0  0
  162.3350  209.5560  139.6670 C   0  0  0  0  0  0  0  0  0  0  0  0
  161.5890  207.7840  138.1630 C   0  0  0  0  0  0  0  0  0  0  0  0
  162.4630  208.5580  140.8010 C   0  0  0  0  0  2  0  0  0  0  0  0
  161.2110  207.4460  137.0120 O   0  0  0  0  0  0  0  0  0  0  0  0
  161.8000  211.7860  140.6990 N   0  0  0  0  0  2  0  0  0  0  0  0
  162.6750  210.9680  139.9170 C   0  0  0  0  0  0  0  0  0  0  0  0
  163.7360  211.4580  139.4410 O   0  0  0  0  0  0  0  0  0  0  0  0
  162.1090  213.1660  141.0350 C   0  0  0  0  0  2  0  0  0  0  0  0
  161.5250  213.5070  142.3940 C   0  0  0  0  0  2  0  0  0  0  0  0
  161.1120  212.2280  143.1040 C   0  0  0  0  0  2  0  0  0  0  0  0
  159.7410  212.3470  143.7770 C   0  0  2  0  0  3  0  0  0  0  0  0
  158.8380  213.0390  142.9650 O   0  0  0  0  0  1  0  0  0  0  0  0
  158.5040  213.0480  145.7160 O   0  0  0  0  0  1  0  0  0  0  0  0
  160.6010  212.2020  146.0310 O   0  0  0  0  0  1  0  0  0  0  0  0
  159.7900  212.9560  145.1810 C   0  0  0  0  0  3  0  0  0  0  0  0
  162.2320  206.5370  148.8200 C   0  0  0  0  0  2  0  0  0  0  0  0
  161.8000  208.9180  148.2330 C   0  0  0  0  0  1  0  0  0  0  0  0
  161.5750  207.8350  149.2700 C   0  0  2  0  0  3  0  0  0  0  0  0
  162.1270  208.2590  150.5110 O   0  0  0  0  0  0  0  0  0  0  0  0
  160.2320  207.7970  151.7120 O   0  0  0  0  0  0  0  0  0  0  0  0
  161.4370  208.1620  151.7230 C   0  0  0  0  0  0  0  0  0  0  0  0
  163.1560  210.6320  152.9310 F   0  0  0  0  0  0  0  0  0  0  0  0
  161.5080  206.2330  153.7800 O   0  0  0  0  0  1  0  0  0  0  0  0
  160.5780  208.3800  156.2670 C   0  0  1  0  0  3  0  0  0  0  0  0
  161.6230  207.5660  154.1820 C   0  0  1  0  0  3  0  0  0  0  0  0
  160.3890  209.5150  155.2610 C   0  0  2  0  0  0  0  0  0  0  0  0
  162.1130  208.4660  153.0330 C   0  0  2  0  0  3  0  0  0  0  0  0
  159.4150  208.1520  157.0060 O   0  0  0  0  0  1  0  0  0  0  0  0
  160.3170  208.0540  154.8030 C   0  0  2  0  0  3  0  0  0  0  0  0
  162.0170  209.9670  153.3420 C   0  0  1  0  0  3  0  0  0  0  0  0
  161.6360  210.3050  154.7960 C   0  0  2  0  0  3  0  0  0  0  0  0
  158.8890  211.0870  153.9920 C   0  0  0  0  0  1  0  0  0  0  0  0
  159.0290  210.2220  155.2300 C   0  0  0  0  0  3  0  0  0  0  0  0
  158.8400  211.0710  156.4710 C   0  0  0  0  0  1  0  0  0  0  0  0
  163.9180  210.9720  155.3000 O   0  0  0  0  0  1  0  0  0  0  0  0
  162.7890  210.3300  155.8120 C   0  0  1  0  0  3  0  0  0  0  0  0
  162.3550  211.0030  157.0990 C   0  0  0  0  0  1  0  0  0  0  0  0
  1 32  1  6  0  0  0
  3  1  1  1  0  0  0
  3  6  1  0  0  0  0
  3  2  1  0  0  0  0
  4  6  1  0  0  0  0
  4  5  1  0  0  0  0
  6  5  1  0  0  0  0
  6  2  1  0  0  0  0
  7  8  2  0  0  0  0
  8  1  1  0  0  0  0
  9  8  1  0  0  0  0
 10  9  1  0  0  0  0
 11 10  1  0  0  0  0
 12 11  1  0  0  0  0
 13 12  1  0  0  0  0
 14 17  2  0  0  0  0
 15 19  1  0  0  0  0
 15 13  1  0  0  0  0
 16 15  2  0  0  0  0
 17 22  1  0  0  0  0
 17 19  1  0  0  0  0
 18 14  1  0  0  0  0
 18 16  1  0  0  0  0
 20 18  2  0  0  0  0
 21 24  1  0  0  0  0
 22 21  1  0  0  0  0
 23 22  2  0  0  0  0
 24 25  1  0  0  0  0
 25 26  1  0  0  0  0
 26 27  1  0  0  0  0
 27 28  1  6  0  0  0
 27 31  1  0  0  0  0
 31 29  1  0  0  0  0
 31 30  1  0  0  0  0
 32 34  1  0  0  0  0
 34 33  1  6  0  0  0
 34 35  1  0  0  0  0
 35 37  1  0  0  0  0
 36 37  2  0  0  0  0
 38 46  1  0  0  0  0
 40 44  1  1  0  0  0
 41 39  1  6  0  0  0
 41 45  1  0  0  0  0
 42 49  1  1  0  0  0
 42 40  1  0  0  0  0
 43 37  1  6  0  0  0
 43 46  1  0  0  0  0
 43 41  1  0  0  0  0
 45 42  1  0  0  0  0
 45 40  1  0  0  0  0
 46 47  1  0  0  0  0
 47 42  1  0  0  0  0
 47 52  1  0  0  0  0
 48 49  1  0  0  0  0
 49 50  1  0  0  0  0
 51 52  1  0  0  0  0
 52 53  1  0  0  0  0
M  END
>  <MODEL>
5

>  <REMARK>
 VINA RESULT:      -5.0      2.620      5.657
  Name = 
  21 active torsions:
  status: ('A' for Active; 'I' for Inactive)
    1  A    between atoms: C_5  and  C_6
    2  A    between atoms: C_5  and  N_49
    3  A    between atoms: C_10  and  C_23
    4  A    between atoms: C_10  and  C_46
    5  A    between atoms: C_11  and  C_26
    6  A    between atoms: N_13  and  C_31
    7  A    between atoms: C_14  and  C_32
    8  A    between atoms: C_21  and  C_23
    9  A    between atoms: C_21  and  C_31
   10  A    between atoms: C_24  and  C_27
   11  A    between atoms: C_24  and  C_33
   12  A    between atoms: C_25  and  C_53
   13  A    between atoms: C_27  and  C_39
   14  A    between atoms: C_27  and  C_45
   15  A    between atoms: C_33  and  O_36
   16  A    between atoms: N_35  and  C_41
   17  A    between atoms: N_35  and  N_49
   18  A    between atoms: O_36  and  C_38
   19  A    between atoms: C_37  and  C_38
   20  A    between atoms: C_41  and  O_42
   21  A    between atoms: O_42  and  C_45
                            x       y       z     vdW  Elec       q    Type
                         _______ _______ _______ _____ _____    ______ ____

>  <TORSDO>
F 21

$$$$
=
 OpenBabel11072411493D

 53 57  0  0  1  0  0  0  0  0999 V2000
  161.5150  209.0000  153.2730 C   0  0  2  0  0  3  0  0  0  0  0  0
  160.0090  208.5060  155.0260 O   0  0  0  0  0  0  0  0  0  0  0  0
  161.2040  209.1340  154.7560 C   0  0  1  0  0  3  0  0  0  0  0  0
  161.9480  208.2200  156.6510 C   0  0  0  0  0  2  0  0  0  0  0  0
  160.7530  207.3890  156.8280 C   0  0  0  0  0  2  0  0  0  0  0  0
  161.1700  207.7780  155.4010 C   0  0  0  0  0  0  0  0  0  0  0  0
  162.4200  210.5580  151.7190 O   0  0  0  0  0  0  0  0  0  0  0  0
  161.5770  210.3500  152.6330 C   0  0  0  0  0  0  0  0  0  0  0  0
  160.7300  211.3730  153.0690 O   0  0  0  0  0  0  0  0  0  0  0  0
  159.5100  211.6770  152.4050 C   0  0  0  0  0  2  0  0  0  0  0  0
  159.3120  213.1170  152.3650 N   0  0  0  0  0  2  0  0  0  0  0  0
  158.5480  213.4030  151.2260 N   0  0  0  0  0  2  0  0  0  0  0  0
  159.2940  214.3860  150.4600 C   0  0  0  0  0  2  0  0  0  0  0  0
  161.0930  212.5780  146.9260 C   0  0  0  0  0  3  0  0  0  0  0  0
  159.9160  213.7430  149.2680 C   0  0  0  0  0  0  0  0  0  0  0  0
  161.1320  213.2020  149.3780 C   0  0  0  0  0  3  0  0  0  0  0  0
  159.8790  213.1230  146.7870 C   0  0  0  0  0  0  0  0  0  0  0  0
  161.7810  212.5860  148.2190 C   0  0  0  0  0  0  0  0  0  0  0  0
  159.1640  213.7720  147.9570 C   0  0  0  0  0  2  0  0  0  0  0  0
  162.9230  212.0720  148.3320 O   0  0  0  0  0  0  0  0  0  0  0  0
  160.0040  212.9950  144.2790 N   0  0  0  0  0  2  0  0  0  0  0  0
  159.2180  213.1030  145.4690 C   0  0  0  0  0  0  0  0  0  0  0  0
  157.9620  213.1850  145.3890 O   0  0  0  0  0  0  0  0  0  0  0  0
  159.4100  212.9060  142.9540 C   0  0  0  0  0  2  0  0  0  0  0  0
  160.4910  212.6310  141.9250 C   0  0  0  0  0  2  0  0  0  0  0  0
  160.0250  211.5350  140.9800 C   0  0  0  0  0  2  0  0  0  0  0  0
  161.1740  210.6360  140.5130 C   0  0  2  0  0  3  0  0  0  0  0  0
  162.4000  211.3040  140.5870 O   0  0  0  0  0  1  0  0  0  0  0  0
  160.9910  211.0310  138.1480 O   0  0  0  0  0  1  0  0  0  0  0  0
  161.9340  209.0690  138.8370 O   0  0  0  0  0  1  0  0  0  0  0  0
  160.9640  210.0320  139.1220 C   0  0  0  0  0  3  0  0  0  0  0  0
  160.4660  208.1210  152.6050 C   0  0  0  0  0  2  0  0  0  0  0  0
  162.5160  207.5850  151.2980 C   0  0  0  0  0  1  0  0  0  0  0  0
  161.1200  207.1180  151.6640 C   0  0  2  0  0  3  0  0  0  0  0  0
  160.3490  206.9840  150.4760 O   0  0  0  0  0  0  0  0  0  0  0  0
  160.9010  207.4800  148.3090 O   0  0  0  0  0  0  0  0  0  0  0  0
  160.9060  206.6350  149.2420 C   0  0  0  0  0  0  0  0  0  0  0  0
  159.9320  203.5580  149.5530 F   0  0  0  0  0  0  0  0  0  0  0  0
  163.6170  206.4030  148.5010 O   0  0  0  0  0  1  0  0  0  0  0  0
  163.0760  204.1410  146.0000 C   0  0  1  0  0  3  0  0  0  0  0  0
  162.7880  205.3370  148.1430 C   0  0  1  0  0  3  0  0  0  0  0  0
  161.5640  204.2300  146.2040 C   0  0  2  0  0  0  0  0  0  0  0  0
  161.5250  205.2810  149.0200 C   0  0  2  0  0  3  0  0  0  0  0  0
  163.4330  204.4380  144.6840 O   0  0  0  0  0  1  0  0  0  0  0  0
  162.4740  205.3800  146.6500 C   0  0  2  0  0  3  0  0  0  0  0  0
  160.4650  204.2930  148.5120 C   0  0  1  0  0  3  0  0  0  0  0  0
  160.9210  203.4010  147.3420 C   0  0  2  0  0  3  0  0  0  0  0  0
  159.8370  205.8030  145.2640 C   0  0  0  0  0  1  0  0  0  0  0  0
  160.7000  204.5860  144.9880 C   0  0  0  0  0  3  0  0  0  0  0  0
  159.8210  203.4140  144.5970 C   0  0  0  0  0  1  0  0  0  0  0  0
  161.5940  201.8430  149.0810 O   0  0  0  0  0  1  0  0  0  0  0  0
  161.6990  202.1300  147.7190 C   0  0  1  0  0  3  0  0  0  0  0  0
  161.2160  200.9440  146.9070 C   0  0  0  0  0  1  0  0  0  0  0  0
  1 32  1  6  0  0  0
  2  6  1  0  0  0  0
  3  1  1  6  0  0  0
  3  2  1  0  0  0  0
  3  6  1  0  0  0  0
  4  5  1  0  0  0  0
  6  4  1  0  0  0  0
  6  5  1  0  0  0  0
  7  8  2  0  0  0  0
  8  9  1  0  0  0  0
  8  1  1  0  0  0  0
 10  9  1  0  0  0  0
 11 10  1  0  0  0  0
 12 11  1  0  0  0  0
 13 12  1  0  0  0  0
 14 18  1  0  0  0  0
 15 16  2  0  0  0  0
 15 13  1  0  0  0  0
 17 14  2  0  0  0  0
 17 19  1  0  0  0  0
 18 20  2  0  0  0  0
 18 16  1  0  0  0  0
 19 15  1  0  0  0  0
 21 22  1  0  0  0  0
 22 17  1  0  0  0  0
 23 22  2  0  0  0  0
 24 21  1  0  0  0  0
 25 24  1  0  0  0  0
 26 25  1  0  0  0  0
 27 28  1  6  0  0  0
 27 26  1  0  0  0  0
 29 31  1  0  0  0  0
 30 31  1  0  0  0  0
 31 27  1  0  0  0  0
 34 33  1  6  0  0  0
 34 32  1  0  0  0  0
 35 34  1  0  0  0  0
 36 37  2  0  0  0  0
 37 35  1  0  0  0  0
 40 44  1  6  0  0  0
 40 42  1  0  0  0  0
 40 45  1  0  0  0  0
 41 39  1  1  0  0  0
 41 43  1  0  0  0  0
 42 49  1  6  0  0  0
 42 45  1  0  0  0  0
 42 47  1  0  0  0  0
 43 37  1  6  0  0  0
 45 41  1  0  0  0  0
 46 43  1  0  0  0  0
 46 38  1  0  0  0  0
 47 52  1  0  0  0  0
 47 46  1  0  0  0  0
 49 48  1  0  0  0  0
 50 49  1  0  0  0  0
 52 51  1  0  0  0  0
 53 52  1  0  0  0  0
M  END
>  <MODEL>
6

>  <REMARK>
 VINA RESULT:      -4.5      2.534      7.578
  Name = 
  21 active torsions:
  status: ('A' for Active; 'I' for Inactive)
    1  A    between atoms: C_5  and  C_6
    2  A    between atoms: C_5  and  N_49
    3  A    between atoms: C_10  and  C_23
    4  A    between atoms: C_10  and  C_46
    5  A    between atoms: C_11  and  C_26
    6  A    between atoms: N_13  and  C_31
    7  A    between atoms: C_14  and  C_32
    8  A    between atoms: C_21  and  C_23
    9  A    between atoms: C_21  and  C_31
   10  A    between atoms: C_24  and  C_27
   11  A    between atoms: C_24  and  C_33
   12  A    between atoms: C_25  and  C_53
   13  A    between atoms: C_27  and  C_39
   14  A    between atoms: C_27  and  C_45
   15  A    between atoms: C_33  and  O_36
   16  A    between atoms: N_35  and  C_41
   17  A    between atoms: N_35  and  N_49
   18  A    between atoms: O_36  and  C_38
   19  A    between atoms: C_37  and  C_38
   20  A    between atoms: C_41  and  O_42
   21  A    between atoms: O_42  and  C_45
                            x       y       z     vdW  Elec       q    Type
                         _______ _______ _______ _____ _____    ______ ____

>  <TORSDO>
F 21

$$$$
=
 OpenBabel11072411493D

 53 57  0  0  1  0  0  0  0  0999 V2000
  161.1770  205.5250  148.2110 C   0  0  2  0  0  3  0  0  0  0  0  0
  161.7580  203.5120  149.3020 O   0  0  0  0  0  0  0  0  0  0  0  0
  161.8050  204.1470  148.0820 C   0  0  1  0  0  3  0  0  0  0  0  0
  161.2220  202.1820  147.1980 C   0  0  0  0  0  2  0  0  0  0  0  0
  160.9680  201.5650  148.5040 C   0  0  0  0  0  2  0  0  0  0  0  0
  160.7820  203.0840  148.3630 C   0  0  0  0  0  0  0  0  0  0  0  0
  160.7740  207.3920  146.7920 O   0  0  0  0  0  0  0  0  0  0  0  0
  161.0510  206.1650  146.8660 C   0  0  0  0  0  0  0  0  0  0  0  0
  161.2080  205.4000  145.7060 O   0  0  0  0  0  0  0  0  0  0  0  0
  160.8410  205.8900  144.4240 C   0  0  0  0  0  2  0  0  0  0  0  0
  161.7110  205.3210  143.4070 N   0  0  0  0  0  2  0  0  0  0  0  0
  161.3240  205.8630  142.1740 N   0  0  0  0  0  2  0  0  0  0  0  0
  162.3780  206.7780  141.7720 C   0  0  0  0  0  2  0  0  0  0  0  0
  161.7070  208.2730  137.7340 C   0  0  0  0  0  3  0  0  0  0  0  0
  162.1350  207.2630  140.3850 C   0  0  0  0  0  0  0  0  0  0  0  0
  162.4550  206.4770  139.3530 C   0  0  0  0  0  3  0  0  0  0  0  0
  161.3880  209.0830  138.7500 C   0  0  0  0  0  0  0  0  0  0  0  0
  162.2520  206.9350  137.9770 C   0  0  0  0  0  0  0  0  0  0  0  0
  161.5790  208.6550  140.1930 C   0  0  0  0  0  2  0  0  0  0  0  0
  162.5480  206.1870  137.0110 O   0  0  0  0  0  0  0  0  0  0  0  0
  159.4610  210.6980  138.6910 N   0  0  0  0  0  2  0  0  0  0  0  0
  160.8480  210.4250  138.4700 C   0  0  0  0  0  0  0  0  0  0  0  0
  161.6060  211.3340  138.0320 O   0  0  0  0  0  0  0  0  0  0  0  0
  158.8810  212.0170  138.4950 C   0  0  0  0  0  2  0  0  0  0  0  0
  157.4370  211.8810  138.0490 C   0  0  0  0  0  2  0  0  0  0  0  0
  156.5350  211.7930  139.2690 C   0  0  0  0  0  2  0  0  0  0  0  0
  155.5910  210.5880  139.2150 C   0  0  2  0  0  3  0  0  0  0  0  0
  156.2880  209.4140  138.9170 O   0  0  0  0  0  1  0  0  0  0  0  0
  153.3780  209.8820  138.5960 O   0  0  0  0  0  1  0  0  0  0  0  0
  153.9190  212.0820  138.3130 O   0  0  0  0  0  1  0  0  0  0  0  0
  154.4010  210.7730  138.2690 C   0  0  0  0  0  3  0  0  0  0  0  0
  162.0100  206.3840  149.1540 C   0  0  0  0  0  2  0  0  0  0  0  0
  160.0640  205.6790  150.5370 C   0  0  0  0  0  1  0  0  0  0  0  0
  161.3650  206.4570  150.5310 C   0  0  2  0  0  3  0  0  0  0  0  0
  161.0980  207.8110  150.8770 O   0  0  0  0  0  0  0  0  0  0  0  0
  160.6040  207.3450  153.0640 O   0  0  0  0  0  0  0  0  0  0  0  0
  160.8050  208.2200  152.1810 C   0  0  0  0  0  0  0  0  0  0  0  0
  158.4510  210.3720  152.7640 F   0  0  0  0  0  0  0  0  0  0  0  0
  163.1650  209.7560  152.3380 O   0  0  0  0  0  1  0  0  0  0  0  0
  162.3960  211.2240  155.3250 C   0  0  1  0  0  3  0  0  0  0  0  0
  162.0810  210.2140  153.0910 C   0  0  1  0  0  3  0  0  0  0  0  0
  161.1230  210.3860  155.4450 C   0  0  2  0  0  0  0  0  0  0  0  0
  160.7450  209.6780  152.5480 C   0  0  2  0  0  3  0  0  0  0  0  0
  163.2260  211.0560  156.4340 O   0  0  0  0  0  1  0  0  0  0  0  0
  162.2870  209.9050  154.5720 C   0  0  2  0  0  3  0  0  0  0  0  0
  159.5510  209.9400  153.4780 C   0  0  1  0  0  3  0  0  0  0  0  0
  159.8580  210.8500  154.6830 C   0  0  2  0  0  3  0  0  0  0  0  0
  161.2230  208.0810  156.4510 C   0  0  0  0  0  1  0  0  0  0  0  0
  160.9390  209.5480  156.7150 C   0  0  0  0  0  3  0  0  0  0  0  0
  159.5330  209.7070  157.2610 C   0  0  0  0  0  1  0  0  0  0  0  0
  159.7360  212.6570  153.0630 O   0  0  0  0  0  1  0  0  0  0  0  0
  159.7900  212.3640  154.4270 C   0  0  1  0  0  3  0  0  0  0  0  0
  158.5940  212.9740  155.1300 C   0  0  0  0  0  1  0  0  0  0  0  0
  1 32  1  1  0  0  0
  3  1  1  1  0  0  0
  3  6  1  0  0  0  0
  3  2  1  0  0  0  0
  4  6  1  0  0  0  0
  4  5  1  0  0  0  0
  6  5  1  0  0  0  0
  6  2  1  0  0  0  0
  7  8  2  0  0  0  0
  8  1  1  0  0  0  0
  9  8  1  0  0  0  0
 10  9  1  0  0  0  0
 11 10  1  0  0  0  0
 12 11  1  0  0  0  0
 13 12  1  0  0  0  0
 14 18  1  0  0  0  0
 14 17  2  0  0  0  0
 15 13  1  0  0  0  0
 16 15  2  0  0  0  0
 17 19  1  0  0  0  0
 18 16  1  0  0  0  0
 19 15  1  0  0  0  0
 20 18  2  0  0  0  0
 22 21  1  0  0  0  0
 22 17  1  0  0  0  0
 23 22  2  0  0  0  0
 24 21  1  0  0  0  0
 25 24  1  0  0  0  0
 25 26  1  0  0  0  0
 27 28  1  6  0  0  0
 27 26  1  0  0  0  0
 31 30  1  0  0  0  0
 31 29  1  0  0  0  0
 31 27  1  0  0  0  0
 32 34  1  0  0  0  0
 34 33  1  6  0  0  0
 34 35  1  0  0  0  0
 35 37  1  0  0  0  0
 37 36  2  0  0  0  0
 38 46  1  0  0  0  0
 40 42  1  0  0  0  0
 40 44  1  1  0  0  0
 41 39  1  6  0  0  0
 41 45  1  0  0  0  0
 42 49  1  1  0  0  0
 43 37  1  1  0  0  0
 43 41  1  0  0  0  0
 43 46  1  0  0  0  0
 45 40  1  0  0  0  0
 45 42  1  0  0  0  0
 46 47  1  0  0  0  0
 47 42  1  0  0  0  0
 48 49  1  0  0  0  0
 49 50  1  0  0  0  0
 51 52  1  0  0  0  0
 52 47  1  0  0  0  0
 52 53  1  0  0  0  0
M  END
>  <MODEL>
7

>  <REMARK>
 VINA RESULT:      -4.1      3.681      5.568
  Name = 
  21 active torsions:
  status: ('A' for Active; 'I' for Inactive)
    1  A    between atoms: C_5  and  C_6
    2  A    between atoms: C_5  and  N_49
    3  A    between atoms: C_10  and  C_23
    4  A    between atoms: C_10  and  C_46
    5  A    between atoms: C_11  and  C_26
    6  A    between atoms: N_13  and  C_31
    7  A    between atoms: C_14  and  C_32
    8  A    between atoms: C_21  and  C_23
    9  A    between atoms: C_21  and  C_31
   10  A    between atoms: C_24  and  C_27
   11  A    between atoms: C_24  and  C_33
   12  A    between atoms: C_25  and  C_53
   13  A    between atoms: C_27  and  C_39
   14  A    between atoms: C_27  and  C_45
   15  A    between atoms: C_33  and  O_36
   16  A    between atoms: N_35  and  C_41
   17  A    between atoms: N_35  and  N_49
   18  A    between atoms: O_36  and  C_38
   19  A    between atoms: C_37  and  C_38
   20  A    between atoms: C_41  and  O_42
   21  A    between atoms: O_42  and  C_45
                            x       y       z     vdW  Elec       q    Type
                         _______ _______ _______ _____ _____    ______ ____

>  <TORSDO>
F 21

$$$$
=
 OpenBabel11072411493D

 53 57  0  0  1  0  0  0  0  0999 V2000
  161.1860  205.7240  148.4500 C   0  0  2  0  0  3  0  0  0  0  0  0
  161.6100  203.6960  149.5860 O   0  0  0  0  0  0  0  0  0  0  0  0
  161.7750  204.3240  148.3730 C   0  0  1  0  0  3  0  0  0  0  0  0
  161.1960  202.3770  147.4490 C   0  0  0  0  0  2  0  0  0  0  0  0
  160.8190  201.7740  148.7320 C   0  0  0  0  0  2  0  0  0  0  0  0
  160.6970  203.2980  148.5740 C   0  0  0  0  0  0  0  0  0  0  0  0
  160.7790  207.5260  146.9510 O   0  0  0  0  0  0  0  0  0  0  0  0
  161.0360  206.2980  147.0780 C   0  0  0  0  0  0  0  0  0  0  0  0
  161.1480  205.4740  145.9550 O   0  0  0  0  0  0  0  0  0  0  0  0
  160.6950  205.8830  144.6710 C   0  0  0  0  0  2  0  0  0  0  0  0
  161.6000  205.3890  143.6440 N   0  0  0  0  0  2  0  0  0  0  0  0
  161.2060  205.9630  142.4280 N   0  0  0  0  0  2  0  0  0  0  0  0
  162.4000  206.5310  141.8290 C   0  0  0  0  0  2  0  0  0  0  0  0
  161.6160  207.8320  137.7450 C   0  0  0  0  0  3  0  0  0  0  0  0
  162.1220  206.9480  140.4260 C   0  0  0  0  0  0  0  0  0  0  0  0
  162.5450  206.1790  139.4200 C   0  0  0  0  0  3  0  0  0  0  0  0
  161.1900  208.6250  138.7350 C   0  0  0  0  0  0  0  0  0  0  0  0
  162.3100  206.5740  138.0300 C   0  0  0  0  0  0  0  0  0  0  0  0
  161.4090  208.2610  140.1900 C   0  0  0  0  0  2  0  0  0  0  0  0
  162.7050  205.8410  137.0880 O   0  0  0  0  0  0  0  0  0  0  0  0
  159.7710  210.5830  139.4270 N   0  0  0  0  0  2  0  0  0  0  0  0
  160.5010  209.8870  138.4110 C   0  0  0  0  0  0  0  0  0  0  0  0
  160.5500  210.3550  137.2400 O   0  0  0  0  0  0  0  0  0  0  0  0
  159.1240  211.8630  139.1890 C   0  0  0  0  0  2  0  0  0  0  0  0
  158.6080  212.4290  140.4990 C   0  0  0  0  0  2  0  0  0  0  0  0
  159.6490  213.3640  141.0930 C   0  0  0  0  0  2  0  0  0  0  0  0
  160.3620  212.7550  142.3040 C   0  0  2  0  0  3  0  0  0  0  0  0
  160.2790  213.5980  143.4160 O   0  0  0  0  0  1  0  0  0  0  0  0
  162.2790  212.9630  140.8670 O   0  0  0  0  0  1  0  0  0  0  0  0
  162.6420  212.6860  143.1040 O   0  0  0  0  0  1  0  0  0  0  0  0
  161.8140  212.3500  142.0310 C   0  0  0  0  0  3  0  0  0  0  0  0
  162.0690  206.6060  149.3230 C   0  0  0  0  0  2  0  0  0  0  0  0
  160.3480  205.7400  150.9000 C   0  0  0  0  0  1  0  0  0  0  0  0
  161.5100  206.7000  150.7370 C   0  0  2  0  0  3  0  0  0  0  0  0
  161.0590  208.0240  150.9980 O   0  0  0  0  0  0  0  0  0  0  0  0
  160.7520  207.6980  153.2450 O   0  0  0  0  0  0  0  0  0  0  0  0
  160.8490  208.5140  152.2910 C   0  0  0  0  0  0  0  0  0  0  0  0
  158.5450  210.7810  152.0410 F   0  0  0  0  0  0  0  0  0  0  0  0
  163.1290  209.9680  153.0910 O   0  0  0  0  0  1  0  0  0  0  0  0
  161.5760  211.6290  155.6380 C   0  0  1  0  0  3  0  0  0  0  0  0
  161.8950  210.5080  153.4600 C   0  0  1  0  0  3  0  0  0  0  0  0
  160.2840  210.8470  155.4030 C   0  0  2  0  0  0  0  0  0  0  0  0
  160.7580  209.9920  152.5600 C   0  0  2  0  0  3  0  0  0  0  0  0
  162.0240  211.4930  156.9530 O   0  0  0  0  0  1  0  0  0  0  0  0
  161.6300  210.2740  154.9450 C   0  0  2  0  0  3  0  0  0  0  0  0
  159.3550  210.3500  153.0730 C   0  0  1  0  0  3  0  0  0  0  0  0
  159.3330  211.3140  154.2750 C   0  0  2  0  0  3  0  0  0  0  0  0
  160.1190  208.6350  156.5940 C   0  0  0  0  0  1  0  0  0  0  0  0
  159.6830  210.0890  156.5920 C   0  0  0  0  0  3  0  0  0  0  0  0
  158.1690  210.1680  156.5650 C   0  0  0  0  0  1  0  0  0  0  0  0
  158.5470  213.1730  152.9210 O   0  0  0  0  0  1  0  0  0  0  0  0
  159.4240  212.8130  153.9460 C   0  0  1  0  0  3  0  0  0  0  0  0
  159.1450  213.6500  155.1780 C   0  0  0  0  0  1  0  0  0  0  0  0
  1 32  1  1  0  0  0
  3  1  1  1  0  0  0
  3  6  1  0  0  0  0
  3  2  1  0  0  0  0
  4  6  1  0  0  0  0
  4  5  1  0  0  0  0
  6  5  1  0  0  0  0
  6  2  1  0  0  0  0
  7  8  2  0  0  0  0
  8  1  1  0  0  0  0
  9  8  1  0  0  0  0
 10  9  1  0  0  0  0
 11 10  1  0  0  0  0
 12 11  1  0  0  0  0
 13 12  1  0  0  0  0
 14 18  1  0  0  0  0
 14 17  2  0  0  0  0
 15 13  1  0  0  0  0
 16 15  2  0  0  0  0
 17 19  1  0  0  0  0
 18 16  1  0  0  0  0
 19 15  1  0  0  0  0
 20 18  2  0  0  0  0
 22 17  1  0  0  0  0
 22 21  1  0  0  0  0
 23 22  2  0  0  0  0
 24 21  1  0  0  0  0
 24 25  1  0  0  0  0
 25 26  1  0  0  0  0
 26 27  1  0  0  0  0
 27 28  1  1  0  0  0
 29 31  1  0  0  0  0
 31 27  1  0  0  0  0
 31 30  1  0  0  0  0
 32 34  1  0  0  0  0
 34 33  1  6  0  0  0
 34 35  1  0  0  0  0
 35 37  1  0  0  0  0
 37 36  2  0  0  0  0
 38 46  1  0  0  0  0
 40 44  1  1  0  0  0
 41 39  1  6  0  0  0
 41 45  1  0  0  0  0
 42 40  1  0  0  0  0
 42 49  1  1  0  0  0
 43 37  1  1  0  0  0
 43 46  1  0  0  0  0
 43 41  1  0  0  0  0
 45 42  1  0  0  0  0
 45 40  1  0  0  0  0
 46 47  1  0  0  0  0
 47 42  1  0  0  0  0
 49 48  1  0  0  0  0
 50 49  1  0  0  0  0
 51 52  1  0  0  0  0
 52 47  1  0  0  0  0
 52 53  1  0  0  0  0
M  END
>  <MODEL>
8

>  <REMARK>
 VINA RESULT:      -4.0      2.844      5.265
  Name = 
  21 active torsions:
  status: ('A' for Active; 'I' for Inactive)
    1  A    between atoms: C_5  and  C_6
    2  A    between atoms: C_5  and  N_49
    3  A    between atoms: C_10  and  C_23
    4  A    between atoms: C_10  and  C_46
    5  A    between atoms: C_11  and  C_26
    6  A    between atoms: N_13  and  C_31
    7  A    between atoms: C_14  and  C_32
    8  A    between atoms: C_21  and  C_23
    9  A    between atoms: C_21  and  C_31
   10  A    between atoms: C_24  and  C_27
   11  A    between atoms: C_24  and  C_33
   12  A    between atoms: C_25  and  C_53
   13  A    between atoms: C_27  and  C_39
   14  A    between atoms: C_27  and  C_45
   15  A    between atoms: C_33  and  O_36
   16  A    between atoms: N_35  and  C_41
   17  A    between atoms: N_35  and  N_49
   18  A    between atoms: O_36  and  C_38
   19  A    between atoms: C_37  and  C_38
   20  A    between atoms: C_41  and  O_42
   21  A    between atoms: O_42  and  C_45
                            x       y       z     vdW  Elec       q    Type
                         _______ _______ _______ _____ _____    ______ ____

>  <TORSDO>
F 21

$$$$
=
 OpenBabel11072411493D

 53 57  0  0  1  0  0  0  0  0999 V2000
  161.8540  210.1240  149.3580 C   0  0  2  0  0  3  0  0  0  0  0  0
  161.3420  212.4310  149.3110 O   0  0  0  0  0  0  0  0  0  0  0  0
  161.5010  211.3300  148.5010 C   0  0  1  0  0  3  0  0  0  0  0  0
  162.5850  212.6930  147.1050 C   0  0  0  0  0  2  0  0  0  0  0  0
  162.5990  213.8080  148.0570 C   0  0  0  0  0  2  0  0  0  0  0  0
  162.5750  212.3730  148.6090 C   0  0  0  0  0  0  0  0  0  0  0  0
  161.2070  208.7330  147.5390 O   0  0  0  0  0  0  0  0  0  0  0  0
  162.0010  208.9070  148.5030 C   0  0  0  0  0  0  0  0  0  0  0  0
  162.9870  207.9590  148.7930 O   0  0  0  0  0  0  0  0  0  0  0  0
  162.8240  206.5820  148.4810 C   0  0  0  0  0  2  0  0  0  0  0  0
  162.0650  206.4380  147.2480 N   0  0  0  0  0  2  0  0  0  0  0  0
  162.8510  205.6930  146.3590 N   0  0  0  0  0  2  0  0  0  0  0  0
  161.9370  205.0790  145.4120 C   0  0  0  0  0  2  0  0  0  0  0  0
  160.4840  201.2940  147.0120 C   0  0  0  0  0  3  0  0  0  0  0  0
  161.4560  203.7700  145.9380 C   0  0  0  0  0  0  0  0  0  0  0  0
  160.9640  202.8660  145.0880 C   0  0  0  0  0  3  0  0  0  0  0  0
  160.9630  202.1880  147.8860 C   0  0  0  0  0  0  0  0  0  0  0  0
  160.4600  201.5810  145.5760 C   0  0  0  0  0  0  0  0  0  0  0  0
  161.4970  203.5320  147.4300 C   0  0  0  0  0  2  0  0  0  0  0  0
  160.0050  200.7310  144.7680 O   0  0  0  0  0  0  0  0  0  0  0  0
  161.7560  202.6500  150.2270 N   0  0  0  0  0  2  0  0  0  0  0  0
  160.9660  201.8690  149.3250 C   0  0  0  0  0  0  0  0  0  0  0  0
  160.2760  200.9080  149.7630 O   0  0  0  0  0  0  0  0  0  0  0  0
  161.7530  202.4280  151.6640 C   0  0  0  0  0  2  0  0  0  0  0  0
  160.6350  203.2290  152.3040 C   0  0  0  0  0  2  0  0  0  0  0  0
  161.1790  204.5620  152.7920 C   0  0  0  0  0  2  0  0  0  0  0  0
  160.5690  205.7530  152.0460 C   0  0  2  0  0  3  0  0  0  0  0  0
  160.3540  205.4480  150.6990 O   0  0  0  0  0  1  0  0  0  0  0  0
  161.3330  207.4970  153.5130 O   0  0  0  0  0  1  0  0  0  0  0  0
  162.6910  206.8790  151.7860 O   0  0  0  0  0  1  0  0  0  0  0  0
  161.3670  207.0520  152.1910 C   0  0  0  0  0  3  0  0  0  0  0  0
  160.7870  209.9220  150.4250 C   0  0  0  0  0  2  0  0  0  0  0  0
  162.1520  210.4760  152.4320 C   0  0  0  0  0  1  0  0  0  0  0  0
  160.9780  210.9040  151.5740 C   0  0  2  0  0  3  0  0  0  0  0  0
  159.8060  210.9500  152.3800 O   0  0  0  0  0  0  0  0  0  0  0  0
  158.4760  212.1730  150.9710 O   0  0  0  0  0  0  0  0  0  0  0  0
  158.7640  211.8540  152.1550 C   0  0  0  0  0  0  0  0  0  0  0  0
  156.1700  210.9500  153.8790 F   0  0  0  0  0  0  0  0  0  0  0  0
  159.3760  214.4140  153.1670 O   0  0  0  0  0  1  0  0  0  0  0  0
  159.2950  213.4910  156.4540 C   0  0  1  0  0  3  0  0  0  0  0  0
  158.7320  213.5420  154.0480 C   0  0  1  0  0  3  0  0  0  0  0  0
  159.0630  212.0290  156.0700 C   0  0  2  0  0  0  0  0  0  0  0  0
  157.9740  212.4330  153.2970 C   0  0  2  0  0  3  0  0  0  0  0  0
  160.4250  213.6340  157.2610 O   0  0  0  0  0  1  0  0  0  0  0  0
  159.7180  212.9950  155.0780 C   0  0  2  0  0  3  0  0  0  0  0  0
  157.4620  211.3090  154.2110 C   0  0  1  0  0  3  0  0  0  0  0  0
  157.6240  211.5770  155.7190 C   0  0  2  0  0  3  0  0  0  0  0  0
  161.4590  211.2660  156.1750 C   0  0  0  0  0  1  0  0  0  0  0  0
  160.0370  210.9830  156.6230 C   0  0  0  0  0  3  0  0  0  0  0  0
  159.6300  209.5900  156.1850 C   0  0  0  0  0  1  0  0  0  0  0  0
  156.0180  213.3910  155.5260 O   0  0  0  0  0  1  0  0  0  0  0  0
  156.5160  212.4090  156.3850 C   0  0  1  0  0  3  0  0  0  0  0  0
  155.3840  211.5170  156.8540 C   0  0  0  0  0  1  0  0  0  0  0  0
  1 32  1  1  0  0  0
  3  6  1  0  0  0  0
  3  2  1  0  0  0  0
  3  1  1  1  0  0  0
  4  5  1  0  0  0  0
  4  6  1  0  0  0  0
  5  6  1  0  0  0  0
  6  2  1  0  0  0  0
  7  8  2  0  0  0  0
  8  9  1  0  0  0  0
  8  1  1  0  0  0  0
 10  9  1  0  0  0  0
 11 10  1  0  0  0  0
 12 11  1  0  0  0  0
 13 15  1  0  0  0  0
 13 12  1  0  0  0  0
 14 17  2  0  0  0  0
 15 19  1  0  0  0  0
 16 18  1  0  0  0  0
 16 15  2  0  0  0  0
 17 22  1  0  0  0  0
 18 14  1  0  0  0  0
 19 17  1  0  0  0  0
 20 18  2  0  0  0  0
 21 24  1  0  0  0  0
 22 23  2  0  0  0  0
 22 21  1  0  0  0  0
 24 25  1  0  0  0  0
 25 26  1  0  0  0  0
 27 28  1  6  0  0  0
 27 31  1  0  0  0  0
 27 26  1  0  0  0  0
 30 31  1  0  0  0  0
 31 29  1  0  0  0  0
 32 34  1  0  0  0  0
 34 35  1  0  0  0  0
 34 33  1  1  0  0  0
 36 37  2  0  0  0  0
 37 35  1  0  0  0  0
 38 46  1  0  0  0  0
 40 44  1  1  0  0  0
 41 39  1  6  0  0  0
 41 45  1  0  0  0  0
 42 40  1  0  0  0  0
 42 49  1  1  0  0  0
 43 37  1  6  0  0  0
 43 41  1  0  0  0  0
 43 46  1  0  0  0  0
 45 42  1  0  0  0  0
 45 40  1  0  0  0  0
 46 47  1  0  0  0  0
 47 42  1  0  0  0  0
 47 52  1  0  0  0  0
 48 49  1  0  0  0  0
 50 49  1  0  0  0  0
 51 52  1  0  0  0  0
 52 53  1  0  0  0  0
M  END
>  <MODEL>
9

>  <REMARK>
 VINA RESULT:      -3.9      3.995      8.245
  Name = 
  21 active torsions:
  status: ('A' for Active; 'I' for Inactive)
    1  A    between atoms: C_5  and  C_6
    2  A    between atoms: C_5  and  N_49
    3  A    between atoms: C_10  and  C_23
    4  A    between atoms: C_10  and  C_46
    5  A    between atoms: C_11  and  C_26
    6  A    between atoms: N_13  and  C_31
    7  A    between atoms: C_14  and  C_32
    8  A    between atoms: C_21  and  C_23
    9  A    between atoms: C_21  and  C_31
   10  A    between atoms: C_24  and  C_27
   11  A    between atoms: C_24  and  C_33
   12  A    between atoms: C_25  and  C_53
   13  A    between atoms: C_27  and  C_39
   14  A    between atoms: C_27  and  C_45
   15  A    between atoms: C_33  and  O_36
   16  A    between atoms: N_35  and  C_41
   17  A    between atoms: N_35  and  N_49
   18  A    between atoms: O_36  and  C_38
   19  A    between atoms: C_37  and  C_38
   20  A    between atoms: C_41  and  O_42
   21  A    between atoms: O_42  and  C_45
                            x       y       z     vdW  Elec       q    Type
                         _______ _______ _______ _____ _____    ______ ____

>  <TORSDO>
F 21

$$$$
