=
 OpenBabel11072411343D

 52 55  0  0  1  0  0  0  0  0999 V2000
  161.3770  207.9150  153.6940 C   0  0  1  0  0  3  0  0  0  0  0  0
  159.7830  207.6310  155.4830 C   0  0  0  0  0  0  0  0  0  0  0  0
  158.9520  206.8860  156.0170 O   0  0  0  0  0  0  0  0  0  0  0  0
  160.6540  208.4210  154.9100 C   0  0  0  0  0  0  0  0  0  0  0  0
  158.4230  212.0040  153.7770 C   0  0  2  0  0  0  0  0  0  0  0  0
  160.8150  209.8260  155.3400 C   0  0  0  0  0  3  0  0  0  0  0  0
  159.0050  210.7410  154.0570 O   0  0  0  0  0  0  0  0  0  0  0  0
  160.3420  212.2520  155.2910 C   0  0  0  0  0  2  0  0  0  0  0  0
  160.0870  210.8540  154.9050 C   0  0  0  0  0  0  0  0  0  0  0  0
  159.3770  213.0330  154.4020 C   0  0  0  0  0  2  0  0  0  0  0  0
  156.8570  211.5620  155.5370 O   0  0  0  0  0  0  0  0  0  0  0  0
  157.0750  212.1340  154.4310 C   0  0  0  0  0  0  0  0  0  0  0  0
  155.8080  214.2210  154.1390 C   0  0  0  0  0  1  0  0  0  0  0  0
  156.0650  212.8650  153.8070 O   0  0  0  0  0  0  0  0  0  0  0  0
  158.3400  212.2260  152.2650 C   0  0  0  0  0  2  0  0  0  0  0  0
  157.7500  214.2240  150.9600 C   0  0  0  0  0  3  0  0  0  0  0  0
  158.2750  214.4500  149.7820 C   0  0  0  0  0  3  0  0  0  0  0  0
  158.7790  213.6270  151.8380 C   0  0  2  0  0  3  0  0  0  0  0  0
  159.6890  214.0180  149.7980 C   0  0  1  0  0  3  0  0  0  0  0  0
  159.9850  213.5630  151.1030 O   0  0  0  0  0  0  0  0  0  0  0  0
  159.8760  212.9290  148.8490 N   0  0  0  0  0  2  0  0  0  0  0  0
  159.7290  212.9860  146.3390 C   0  0  0  0  0  2  0  0  0  0  0  0
  160.3390  213.4880  147.5860 C   0  0  1  0  0  0  0  0  0  0  0  0
  159.3020  214.1870  146.9480 O   0  0  0  0  0  0  0  0  0  0  0  0
  161.6310  214.2900  147.5680 C   0  0  0  0  0  2  0  0  0  0  0  0
  162.6680  213.5500  148.1340 O   0  0  0  0  0  0  0  0  0  0  0  0
  162.5350  212.3440  147.6210 O   0  0  0  0  0  1  0  0  0  0  0  0
  161.8630  206.4760  153.8570 C   0  0  0  0  0  2  0  0  0  0  0  0
  162.7870  206.1380  152.8650 O   0  0  0  0  0  1  0  0  0  0  0  0
  160.5340  208.0870  152.4330 C   0  0  0  0  0  2  0  0  0  0  0  0
  161.2940  208.8580  151.3600 C   0  0  0  0  0  2  0  0  0  0  0  0
  161.5020  208.0420  150.0900 C   0  0  0  0  0  2  0  0  0  0  0  0
  160.7950  206.6950  150.1710 C   0  0  1  0  0  3  0  0  0  0  0  0
  159.9470  206.5240  149.0920 F   0  0  0  0  0  0  0  0  0  0  0  0
  161.7370  205.6290  150.2270 O   0  0  0  0  0  0  0  0  0  0  0  0
  161.3870  204.3570  150.6810 C   0  0  0  0  0  0  0  0  0  0  0  0
  160.3730  203.6940  152.6080 O   0  0  0  0  0  1  0  0  0  0  0  0
  161.3580  203.3780  151.6780 C   0  0  1  0  0  3  0  0  0  0  0  0
  160.7580  203.0770  150.4520 C   0  0  0  0  0  0  0  0  0  0  0  0
  159.9990  202.1490  149.5660 C   0  0  0  0  0  2  0  0  0  0  0  0
  160.8310  201.7090  148.3610 C   0  0  1  0  0  3  0  0  0  0  0  0
  161.4910  200.3680  148.6240 C   0  0  0  0  0  1  0  0  0  0  0  0
  160.0280  201.6330  147.1850 O   0  0  0  0  0  0  0  0  0  0  0  0
  160.5180  201.9430  145.9120 C   0  0  0  0  0  0  0  0  0  0  0  0
  159.8660  201.5830  144.8960 O   0  0  0  0  0  0  0  0  0  0  0  0
  161.8080  202.6800  145.7300 C   0  0  0  0  0  2  0  0  0  0  0  0
  162.2600  204.5610  147.2860 C   0  0  0  0  0  1  0  0  0  0  0  0
  161.6090  204.1670  145.9760 C   0  0  1  0  0  3  0  0  0  0  0  0
  162.2410  204.9630  144.8490 C   0  0  0  0  0  2  0  0  0  0  0  0
  160.0520  205.8780  144.6260 O   0  0  0  0  0  1  0  0  0  0  0  0
  161.2020  205.7530  144.1280 C   0  0  0  0  0  0  0  0  0  0  0  0
  161.4900  206.3240  142.8930 O   0  0  0  0  0  0  0  0  0  0  0  0
  1 30  1  6  0  0  0
  1 28  1  0  0  0  0
  1  4  1  0  0  0  0
  2  3  2  0  0  0  0
  4  6  1  0  0  0  0
  4  2  2  0  0  0  0
  5 15  1  6  0  0  0
  5  7  1  0  0  0  0
  5 10  1  0  0  0  0
  5 12  1  0  0  0  0
  7  9  1  0  0  0  0
  9  8  1  0  0  0  0
  9  6  2  0  0  0  0
 10  8  1  0  0  0  0
 12 11  2  0  0  0  0
 14 13  1  0  0  0  0
 14 12  1  0  0  0  0
 16 18  1  0  0  0  0
 17 19  1  0  0  0  0
 17 16  2  0  0  0  0
 18 15  1  6  0  0  0
 19 21  1  6  0  0  0
 19 20  1  0  0  0  0
 20 18  1  0  0  0  0
 22 24  1  0  0  0  0
 22 23  1  0  0  0  0
 23 25  1  6  0  0  0
 23 21  1  0  0  0  0
 24 23  1  0  0  0  0
 25 26  1  0  0  0  0
 27 26  1  0  0  0  0
 29 28  1  0  0  0  0
 31 30  1  0  0  0  0
 32 33  1  0  0  0  0
 32 31  1  0  0  0  0
 33 34  1  6  0  0  0
 33 35  1  0  0  0  0
 35 36  1  0  0  0  0
 36 38  1  0  0  0  0
 38 37  1  1  0  0  0
 39 36  2  0  0  0  0
 39 38  1  0  0  0  0
 40 39  1  0  0  0  0
 41 42  1  1  0  0  0
 41 40  1  0  0  0  0
 43 41  1  0  0  0  0
 44 43  1  0  0  0  0
 45 44  2  0  0  0  0
 46 44  1  0  0  0  0
 46 48  1  0  0  0  0
 48 47  1  1  0  0  0
 49 48  1  0  0  0  0
 51 50  1  0  0  0  0
 51 49  1  0  0  0  0
 52 51  2  0  0  0  0
M  END
>  <MODEL>
1

>  <REMARK>
 VINA RESULT:      -5.7      0.000      0.000
  Name = 
  25 active torsions:
  status: ('A' for Active; 'I' for Inactive)
    1  A    between atoms: C_1  and  C_19
    2  A    between atoms: C_1  and  C_29
    3  A    between atoms: C_2  and  C_28
    4  A    between atoms: C_3  and  C_11
    5  A    between atoms: C_4  and  C_9
    6  A    between atoms: C_4  and  O_10
    7  A    between atoms: O_5  and  C_33
    8  A    between atoms: N_8  and  C_34
    9  A    between atoms: N_8  and  C_43
   10  A    between atoms: C_9  and  C_27
   11  A    between atoms: O_10  and  C_15
   12  A    between atoms: C_11  and  C_17
   13  A    between atoms: C_11  and  C_28
   14  A    between atoms: C_17  and  C_27
   15  A    between atoms: C_19  and  C_32
   16  A    between atoms: C_21  and  C_36
   17  A    between atoms: C_21  and  O_50
   18  A    between atoms: C_23  and  C_42
   19  A    between atoms: C_23  and  O_50
   20  A    between atoms: O_25  and  C_29
   21  A    between atoms: C_30  and  C_35
   22  A    between atoms: C_30  and  C_51
   23  A    between atoms: C_33  and  C_43
   24  A    between atoms: C_35  and  C_36
   25  A    between atoms: C_42  and  C_48
                            x       y       z     vdW  Elec       q    Type
                         _______ _______ _______ _____ _____    ______ ____

>  <TORSDO>
F 25

$$$$
=
 OpenBabel11072411343D

 52 55  0  0  1  0  0  0  0  0999 V2000
  161.3910  210.4220  150.9350 C   0  0  1  0  0  3  0  0  0  0  0  0
  162.0090  209.6780  148.7250 C   0  0  0  0  0  0  0  0  0  0  0  0
  162.2700  208.7140  147.9940 O   0  0  0  0  0  0  0  0  0  0  0  0
  161.7440  210.6980  149.5010 C   0  0  0  0  0  0  0  0  0  0  0  0
  159.7700  212.9070  146.2890 C   0  0  2  0  0  0  0  0  0  0  0  0
  161.9370  212.0870  149.0350 C   0  0  0  0  0  3  0  0  0  0  0  0
  160.2720  212.0570  147.3080 O   0  0  0  0  0  0  0  0  0  0  0  0
  161.5800  214.0140  147.5290 C   0  0  0  0  0  2  0  0  0  0  0  0
  161.2910  212.6560  148.0180 C   0  0  0  0  0  0  0  0  0  0  0  0
  160.7210  214.1140  146.2700 C   0  0  0  0  0  2  0  0  0  0  0  0
  157.5340  213.5380  145.6980 O   0  0  0  0  0  0  0  0  0  0  0  0
  158.3840  213.3890  146.6210 C   0  0  0  0  0  0  0  0  0  0  0  0
  156.9280  213.0990  148.5810 C   0  0  0  0  0  1  0  0  0  0  0  0
  158.0490  213.6900  147.9410 O   0  0  0  0  0  0  0  0  0  0  0  0
  159.8110  212.1940  144.9350 C   0  0  0  0  0  2  0  0  0  0  0  0
  159.3560  213.4050  142.8450 C   0  0  0  0  0  3  0  0  0  0  0  0
  159.6700  212.8980  141.6800 C   0  0  0  0  0  3  0  0  0  0  0  0
  160.4100  213.0540  143.8210 C   0  0  2  0  0  3  0  0  0  0  0  0
  160.9530  212.1750  141.8040 C   0  0  1  0  0  3  0  0  0  0  0  0
  161.4120  212.3370  143.1300 O   0  0  0  0  0  0  0  0  0  0  0  0
  160.7430  210.7590  141.5310 N   0  0  0  0  0  2  0  0  0  0  0  0
  162.5940  210.6370  139.8330 C   0  0  0  0  0  2  0  0  0  0  0  0
  161.1640  210.4810  140.1640 C   0  0  1  0  0  0  0  0  0  0  0  0
  162.0300  209.3770  140.1310 O   0  0  0  0  0  0  0  0  0  0  0  0
  160.1060  210.3780  139.0770 C   0  0  0  0  0  2  0  0  0  0  0  0
  160.5900  209.6400  137.9980 O   0  0  0  0  0  0  0  0  0  0  0  0
  160.1050  208.4280  138.1800 O   0  0  0  0  0  1  0  0  0  0  0  0
  162.5250  209.7400  151.6990 C   0  0  0  0  0  2  0  0  0  0  0  0
  162.6330  210.2410  152.9980 O   0  0  0  0  0  1  0  0  0  0  0  0
  160.9130  211.6860  151.6430 C   0  0  0  0  0  2  0  0  0  0  0  0
  159.5860  211.4540  152.3560 C   0  0  0  0  0  2  0  0  0  0  0  0
  159.5010  212.1870  153.6890 C   0  0  0  0  0  2  0  0  0  0  0  0
  160.1730  211.3960  154.8040 C   0  0  1  0  0  3  0  0  0  0  0  0
  159.9650  212.0060  156.0280 F   0  0  0  0  0  0  0  0  0  0  0  0
  159.6940  210.0560  154.8360 O   0  0  0  0  0  0  0  0  0  0  0  0
  160.5120  208.9880  155.2030 C   0  0  0  0  0  0  0  0  0  0  0  0
  161.2980  208.3490  157.2420 O   0  0  0  0  0  1  0  0  0  0  0  0
  161.6110  208.4670  155.8910 C   0  0  1  0  0  3  0  0  0  0  0  0
  160.8230  207.5780  155.1550 C   0  0  0  0  0  0  0  0  0  0  0  0
  160.5050  206.1980  154.6880 C   0  0  0  0  0  2  0  0  0  0  0  0
  161.0310  205.9420  153.2750 C   0  0  1  0  0  3  0  0  0  0  0  0
  162.4610  206.4300  153.1370 C   0  0  0  0  0  1  0  0  0  0  0  0
  160.9560  204.5580  152.9430 O   0  0  0  0  0  0  0  0  0  0  0  0
  161.2450  204.0680  151.6650 C   0  0  0  0  0  0  0  0  0  0  0  0
  160.9460  202.8790  151.3790 O   0  0  0  0  0  0  0  0  0  0  0  0
  161.9150  204.9220  150.6350 C   0  0  0  0  0  2  0  0  0  0  0  0
  160.2280  206.1680  149.3060 C   0  0  0  0  0  1  0  0  0  0  0  0
  161.1070  204.9340  149.3470 C   0  0  1  0  0  3  0  0  0  0  0  0
  162.0430  204.9520  148.1540 C   0  0  0  0  0  2  0  0  0  0  0  0
  161.0030  202.8850  147.5810 O   0  0  0  0  0  1  0  0  0  0  0  0
  161.6700  203.8780  147.1870 C   0  0  0  0  0  0  0  0  0  0  0  0
  162.0840  203.9570  145.8620 O   0  0  0  0  0  0  0  0  0  0  0  0
  1 30  1  1  0  0  0
  1 28  1  0  0  0  0
  2  4  2  0  0  0  0
  3  2  2  0  0  0  0
  4  1  1  0  0  0  0
  5 15  1  6  0  0  0
  5 12  1  0  0  0  0
  5  7  1  0  0  0  0
  6  4  1  0  0  0  0
  7  9  1  0  0  0  0
  8  9  1  0  0  0  0
  9  6  2  0  0  0  0
 10  5  1  0  0  0  0
 10  8  1  0  0  0  0
 11 12  2  0  0  0  0
 12 14  1  0  0  0  0
 14 13  1  0  0  0  0
 16 18  1  0  0  0  0
 17 19  1  0  0  0  0
 17 16  2  0  0  0  0
 18 15  1  1  0  0  0
 19 21  1  1  0  0  0
 19 20  1  0  0  0  0
 20 18  1  0  0  0  0
 22 24  1  0  0  0  0
 22 23  1  0  0  0  0
 23 25  1  6  0  0  0
 23 21  1  0  0  0  0
 24 23  1  0  0  0  0
 26 27  1  0  0  0  0
 26 25  1  0  0  0  0
 28 29  1  0  0  0  0
 30 31  1  0  0  0  0
 31 32  1  0  0  0  0
 32 33  1  0  0  0  0
 33 35  1  0  0  0  0
 33 34  1  1  0  0  0
 35 36  1  0  0  0  0
 36 38  1  0  0  0  0
 38 37  1  1  0  0  0
 39 36  2  0  0  0  0
 39 38  1  0  0  0  0
 40 39  1  0  0  0  0
 41 42  1  1  0  0  0
 41 40  1  0  0  0  0
 43 41  1  0  0  0  0
 44 43  1  0  0  0  0
 45 44  2  0  0  0  0
 46 44  1  0  0  0  0
 48 47  1  1  0  0  0
 48 46  1  0  0  0  0
 49 48  1  0  0  0  0
 51 50  1  0  0  0  0
 51 49  1  0  0  0  0
 52 51  2  0  0  0  0
M  END
>  <MODEL>
2

>  <REMARK>
 VINA RESULT:      -4.9      3.295      6.999
  Name = 
  25 active torsions:
  status: ('A' for Active; 'I' for Inactive)
    1  A    between atoms: C_1  and  C_19
    2  A    between atoms: C_1  and  C_29
    3  A    between atoms: C_2  and  C_28
    4  A    between atoms: C_3  and  C_11
    5  A    between atoms: C_4  and  C_9
    6  A    between atoms: C_4  and  O_10
    7  A    between atoms: O_5  and  C_33
    8  A    between atoms: N_8  and  C_34
    9  A    between atoms: N_8  and  C_43
   10  A    between atoms: C_9  and  C_27
   11  A    between atoms: O_10  and  C_15
   12  A    between atoms: C_11  and  C_17
   13  A    between atoms: C_11  and  C_28
   14  A    between atoms: C_17  and  C_27
   15  A    between atoms: C_19  and  C_32
   16  A    between atoms: C_21  and  C_36
   17  A    between atoms: C_21  and  O_50
   18  A    between atoms: C_23  and  C_42
   19  A    between atoms: C_23  and  O_50
   20  A    between atoms: O_25  and  C_29
   21  A    between atoms: C_30  and  C_35
   22  A    between atoms: C_30  and  C_51
   23  A    between atoms: C_33  and  C_43
   24  A    between atoms: C_35  and  C_36
   25  A    between atoms: C_42  and  C_48
                            x       y       z     vdW  Elec       q    Type
                         _______ _______ _______ _____ _____    ______ ____

>  <TORSDO>
F 25

$$$$
=
 OpenBabel11072411343D

 52 55  0  0  1  0  0  0  0  0999 V2000
  161.4610  209.2320  150.7270 C   0  0  1  0  0  3  0  0  0  0  0  0
  161.8980  208.5130  148.4660 C   0  0  0  0  0  0  0  0  0  0  0  0
  161.8840  207.5740  147.6590 O   0  0  0  0  0  0  0  0  0  0  0  0
  161.9230  209.5010  149.3230 C   0  0  0  0  0  0  0  0  0  0  0  0
  160.5090  212.6720  146.6700 C   0  0  2  0  0  0  0  0  0  0  0  0
  162.5320  210.8030  148.9770 C   0  0  0  0  0  3  0  0  0  0  0  0
  160.7900  211.5670  147.5150 O   0  0  0  0  0  0  0  0  0  0  0  0
  162.7060  212.9350  147.7390 C   0  0  0  0  0  2  0  0  0  0  0  0
  162.0190  211.6910  148.1260 C   0  0  0  0  0  0  0  0  0  0  0  0
  161.8090  213.4900  146.6350 C   0  0  0  0  0  2  0  0  0  0  0  0
  158.2350  213.4190  146.8050 O   0  0  0  0  0  0  0  0  0  0  0  0
  159.4140  213.5280  147.2460 C   0  0  0  0  0  0  0  0  0  0  0  0
  159.4790  214.1650  149.6200 C   0  0  0  0  0  1  0  0  0  0  0  0
  159.7070  214.4520  148.2490 O   0  0  0  0  0  0  0  0  0  0  0  0
  160.1630  212.1870  145.2600 C   0  0  0  0  0  2  0  0  0  0  0  0
  159.3620  213.5250  143.3600 C   0  0  0  0  0  3  0  0  0  0  0  0
  159.5670  213.1450  142.1230 C   0  0  0  0  0  3  0  0  0  0  0  0
  160.5520  213.1850  144.1690 C   0  0  2  0  0  3  0  0  0  0  0  0
  160.9070  212.5290  142.0280 C   0  0  1  0  0  3  0  0  0  0  0  0
  161.5130  212.6180  143.3020 O   0  0  0  0  0  0  0  0  0  0  0  0
  160.7730  211.1280  141.6510 N   0  0  0  0  0  2  0  0  0  0  0  0
  162.4040  211.4920  139.7720 C   0  0  0  0  0  2  0  0  0  0  0  0
  161.0950  210.9950  140.2370 C   0  0  1  0  0  0  0  0  0  0  0  0
  162.1840  210.1280  140.0590 O   0  0  0  0  0  0  0  0  0  0  0  0
  159.9760  210.6740  139.2570 C   0  0  0  0  0  2  0  0  0  0  0  0
  159.5810  211.8270  138.5790 O   0  0  0  0  0  0  0  0  0  0  0  0
  158.4290  212.1560  139.1290 O   0  0  0  0  0  1  0  0  0  0  0  0
  162.1230  207.9970  151.3370 C   0  0  0  0  0  2  0  0  0  0  0  0
  163.1550  207.5230  150.5240 O   0  0  0  0  0  1  0  0  0  0  0  0
  161.6330  210.4610  151.6150 C   0  0  0  0  0  2  0  0  0  0  0  0
  160.2890  210.9670  152.1250 C   0  0  0  0  0  2  0  0  0  0  0  0
  160.3990  211.6580  153.4790 C   0  0  0  0  0  2  0  0  0  0  0  0
  160.6660  210.6560  154.5950 C   0  0  1  0  0  3  0  0  0  0  0  0
  160.1860  211.1310  155.8020 F   0  0  0  0  0  0  0  0  0  0  0  0
  160.0780  209.3940  154.2970 O   0  0  0  0  0  0  0  0  0  0  0  0
  160.7080  208.1910  154.6160 C   0  0  0  0  0  0  0  0  0  0  0  0
  161.2480  207.2850  156.6330 O   0  0  0  0  0  1  0  0  0  0  0  0
  161.6700  207.4620  155.3200 C   0  0  1  0  0  3  0  0  0  0  0  0
  160.8200  206.7590  154.4620 C   0  0  0  0  0  0  0  0  0  0  0  0
  160.3440  205.4820  153.8560 C   0  0  0  0  0  2  0  0  0  0  0  0
  161.0400  205.1920  152.5260 C   0  0  1  0  0  3  0  0  0  0  0  0
  161.1430  203.6970  152.2870 C   0  0  0  0  0  1  0  0  0  0  0  0
  160.3500  205.8110  151.4420 O   0  0  0  0  0  0  0  0  0  0  0  0
  160.5450  205.4380  150.1080 C   0  0  0  0  0  0  0  0  0  0  0  0
  159.7780  205.8970  149.2210 O   0  0  0  0  0  0  0  0  0  0  0  0
  161.6360  204.4920  149.7130 C   0  0  0  0  0  2  0  0  0  0  0  0
  161.7640  204.1210  147.2610 C   0  0  0  0  0  1  0  0  0  0  0  0
  161.1820  203.6080  148.5630 C   0  0  1  0  0  3  0  0  0  0  0  0
  161.6570  202.1850  148.7910 C   0  0  0  0  0  2  0  0  0  0  0  0
  160.9750  200.5070  150.3400 O   0  0  0  0  0  1  0  0  0  0  0  0
  160.6230  201.4080  149.5340 C   0  0  0  0  0  0  0  0  0  0  0  0
  159.2720  201.6540  149.3140 O   0  0  0  0  0  0  0  0  0  0  0  0
  1 28  1  1  0  0  0
  1 30  1  0  0  0  0
  2  4  2  0  0  0  0
  3  2  2  0  0  0  0
  4  1  1  0  0  0  0
  5 15  1  6  0  0  0
  5 12  1  0  0  0  0
  5  7  1  0  0  0  0
  6  4  1  0  0  0  0
  7  9  1  0  0  0  0
  8  9  1  0  0  0  0
  9  6  2  0  0  0  0
 10  5  1  0  0  0  0
 10  8  1  0  0  0  0
 11 12  2  0  0  0  0
 12 14  1  0  0  0  0
 14 13  1  0  0  0  0
 16 18  1  0  0  0  0
 17 16  2  0  0  0  0
 18 15  1  1  0  0  0
 19 21  1  1  0  0  0
 19 17  1  0  0  0  0
 19 20  1  0  0  0  0
 20 18  1  0  0  0  0
 22 24  1  0  0  0  0
 22 23  1  0  0  0  0
 23 25  1  6  0  0  0
 23 21  1  0  0  0  0
 24 23  1  0  0  0  0
 26 27  1  0  0  0  0
 26 25  1  0  0  0  0
 29 28  1  0  0  0  0
 30 31  1  0  0  0  0
 31 32  1  0  0  0  0
 32 33  1  0  0  0  0
 33 34  1  1  0  0  0
 35 33  1  0  0  0  0
 35 36  1  0  0  0  0
 36 38  1  0  0  0  0
 38 37  1  1  0  0  0
 39 36  2  0  0  0  0
 39 38  1  0  0  0  0
 40 39  1  0  0  0  0
 41 42  1  6  0  0  0
 41 40  1  0  0  0  0
 43 41  1  0  0  0  0
 44 43  1  0  0  0  0
 45 44  2  0  0  0  0
 46 44  1  0  0  0  0
 48 47  1  6  0  0  0
 48 49  1  0  0  0  0
 48 46  1  0  0  0  0
 49 51  1  0  0  0  0
 51 50  1  0  0  0  0
 52 51  2  0  0  0  0
M  END
>  <MODEL>
3

>  <REMARK>
 VINA RESULT:      -4.0      3.382      6.704
  Name = 
  25 active torsions:
  status: ('A' for Active; 'I' for Inactive)
    1  A    between atoms: C_1  and  C_19
    2  A    between atoms: C_1  and  C_29
    3  A    between atoms: C_2  and  C_28
    4  A    between atoms: C_3  and  C_11
    5  A    between atoms: C_4  and  C_9
    6  A    between atoms: C_4  and  O_10
    7  A    between atoms: O_5  and  C_33
    8  A    between atoms: N_8  and  C_34
    9  A    between atoms: N_8  and  C_43
   10  A    between atoms: C_9  and  C_27
   11  A    between atoms: O_10  and  C_15
   12  A    between atoms: C_11  and  C_17
   13  A    between atoms: C_11  and  C_28
   14  A    between atoms: C_17  and  C_27
   15  A    between atoms: C_19  and  C_32
   16  A    between atoms: C_21  and  C_36
   17  A    between atoms: C_21  and  O_50
   18  A    between atoms: C_23  and  C_42
   19  A    between atoms: C_23  and  O_50
   20  A    between atoms: O_25  and  C_29
   21  A    between atoms: C_30  and  C_35
   22  A    between atoms: C_30  and  C_51
   23  A    between atoms: C_33  and  C_43
   24  A    between atoms: C_35  and  C_36
   25  A    between atoms: C_42  and  C_48
                            x       y       z     vdW  Elec       q    Type
                         _______ _______ _______ _____ _____    ______ ____

>  <TORSDO>
F 25

$$$$
=
 OpenBabel11072411343D

 52 55  0  0  1  0  0  0  0  0999 V2000
  160.9790  207.9440  154.5930 C   0  0  1  0  0  3  0  0  0  0  0  0
  161.1190  209.6040  152.8480 C   0  0  0  0  0  0  0  0  0  0  0  0
  161.3430  209.8290  151.6520 O   0  0  0  0  0  0  0  0  0  0  0  0
  160.8940  209.3650  154.1140 C   0  0  0  0  0  0  0  0  0  0  0  0
  158.3100  212.8860  153.9560 C   0  0  2  0  0  0  0  0  0  0  0  0
  160.7160  210.4670  155.0830 C   0  0  0  0  0  3  0  0  0  0  0  0
  159.0460  211.6770  153.8560 O   0  0  0  0  0  0  0  0  0  0  0  0
  159.8330  212.6380  155.8680 C   0  0  0  0  0  2  0  0  0  0  0  0
  159.9100  211.5160  154.9190 C   0  0  0  0  0  0  0  0  0  0  0  0
  158.9290  213.6350  155.1460 C   0  0  0  0  0  2  0  0  0  0  0  0
  155.9640  213.3050  153.6980 O   0  0  0  0  0  0  0  0  0  0  0  0
  156.8620  212.6130  154.2560 C   0  0  0  0  0  0  0  0  0  0  0  0
  155.4300  210.7300  154.9280 C   0  0  0  0  0  1  0  0  0  0  0  0
  156.5150  211.6140  155.1660 O   0  0  0  0  0  0  0  0  0  0  0  0
  158.4760  213.7150  152.6800 C   0  0  0  0  0  2  0  0  0  0  0  0
  160.3980  214.4160  151.3170 C   0  0  0  0  0  3  0  0  0  0  0  0
  160.3310  214.4520  150.0100 C   0  0  0  0  0  3  0  0  0  0  0  0
  159.6380  213.2450  151.8040 C   0  0  2  0  0  3  0  0  0  0  0  0
  159.5220  213.3080  149.5410 C   0  0  1  0  0  3  0  0  0  0  0  0
  159.1530  212.5480  150.6740 O   0  0  0  0  0  0  0  0  0  0  0  0
  158.3240  213.7990  148.8730 N   0  0  0  0  0  2  0  0  0  0  0  0
  159.6420  214.0460  146.7460 C   0  0  0  0  0  2  0  0  0  0  0  0
  158.4470  213.5370  147.4460 C   0  0  1  0  0  0  0  0  0  0  0  0
  159.5510  212.7090  147.1900 O   0  0  0  0  0  0  0  0  0  0  0  0
  157.2210  213.0660  146.6790 C   0  0  0  0  0  2  0  0  0  0  0  0
  156.1900  213.9970  146.7920 O   0  0  0  0  0  0  0  0  0  0  0  0
  155.8610  214.2820  145.5490 O   0  0  0  0  0  1  0  0  0  0  0  0
  160.0610  207.6680  155.7820 C   0  0  0  0  0  2  0  0  0  0  0  0
  160.7270  206.9530  156.7810 O   0  0  0  0  0  1  0  0  0  0  0  0
  160.7370  206.9580  153.4530 C   0  0  0  0  0  2  0  0  0  0  0  0
  161.7480  205.8170  153.4850 C   0  0  0  0  0  2  0  0  0  0  0  0
  161.8780  205.1130  152.1390 C   0  0  0  0  0  2  0  0  0  0  0  0
  160.7350  204.1310  151.9120 C   0  0  1  0  0  3  0  0  0  0  0  0
  160.0460  204.4450  150.7540 F   0  0  0  0  0  0  0  0  0  0  0  0
  161.2200  202.7940  151.8450 O   0  0  0  0  0  0  0  0  0  0  0  0
  160.9640  201.9680  150.7510 C   0  0  0  0  0  0  0  0  0  0  0  0
  159.7080  200.0770  150.5780 O   0  0  0  0  0  1  0  0  0  0  0  0
  160.8810  200.7020  150.1660 C   0  0  1  0  0  3  0  0  0  0  0  0
  160.5620  201.8080  149.3730 C   0  0  0  0  0  0  0  0  0  0  0  0
  160.1080  202.3980  148.0810 C   0  0  0  0  0  2  0  0  0  0  0  0
  161.2830  202.6900  147.1470 C   0  0  1  0  0  3  0  0  0  0  0  0
  161.1500  201.9080  145.8540 C   0  0  0  0  0  1  0  0  0  0  0  0
  161.3790  204.0840  146.8640 O   0  0  0  0  0  0  0  0  0  0  0  0
  162.4010  204.6300  146.0810 C   0  0  0  0  0  0  0  0  0  0  0  0
  163.5090  204.0350  146.0120 O   0  0  0  0  0  0  0  0  0  0  0  0
  162.2120  205.9130  145.3340 C   0  0  0  0  0  2  0  0  0  0  0  0
  159.7430  206.1300  145.1900 C   0  0  0  0  0  1  0  0  0  0  0  0
  160.9960  206.6590  145.8580 C   0  0  1  0  0  3  0  0  0  0  0  0
  160.8800  206.4620  147.3580 C   0  0  0  0  0  2  0  0  0  0  0  0
  163.0730  207.1240  148.0140 O   0  0  0  0  0  0  0  0  0  0  0  0
  161.8370  207.3550  148.0730 C   0  0  0  0  0  0  0  0  0  0  0  0
  161.3650  208.4220  148.8310 O   0  0  0  0  0  1  0  0  0  0  0  0
  1 30  1  6  0  0  0
  1 28  1  0  0  0  0
  2  4  2  0  0  0  0
  3  2  2  0  0  0  0
  4  1  1  0  0  0  0
  4  6  1  0  0  0  0
  5 15  1  6  0  0  0
  5 12  1  0  0  0  0
  5 10  1  0  0  0  0
  7  5  1  0  0  0  0
  7  9  1  0  0  0  0
  9  6  2  0  0  0  0
  9  8  1  0  0  0  0
 10  8  1  0  0  0  0
 11 12  2  0  0  0  0
 12 14  1  0  0  0  0
 13 14  1  0  0  0  0
 16 18  1  0  0  0  0
 17 16  2  0  0  0  0
 18 15  1  1  0  0  0
 19 21  1  1  0  0  0
 19 17  1  0  0  0  0
 19 20  1  0  0  0  0
 20 18  1  0  0  0  0
 22 24  1  0  0  0  0
 22 23  1  0  0  0  0
 23 25  1  6  0  0  0
 23 21  1  0  0  0  0
 24 23  1  0  0  0  0
 25 26  1  0  0  0  0
 27 26  1  0  0  0  0
 28 29  1  0  0  0  0
 30 31  1  0  0  0  0
 32 31  1  0  0  0  0
 33 34  1  6  0  0  0
 33 32  1  0  0  0  0
 35 33  1  0  0  0  0
 36 35  1  0  0  0  0
 38 37  1  1  0  0  0
 38 36  1  0  0  0  0
 39 38  1  0  0  0  0
 39 36  2  0  0  0  0
 40 39  1  0  0  0  0
 41 42  1  6  0  0  0
 41 40  1  0  0  0  0
 43 41  1  0  0  0  0
 44 43  1  0  0  0  0
 45 44  2  0  0  0  0
 46 48  1  0  0  0  0
 46 44  1  0  0  0  0
 48 47  1  6  0  0  0
 48 49  1  0  0  0  0
 49 51  1  0  0  0  0
 50 51  2  0  0  0  0
 51 52  1  0  0  0  0
M  END
>  <MODEL>
4

>  <REMARK>
 VINA RESULT:      -3.8      1.860      3.163
  Name = 
  25 active torsions:
  status: ('A' for Active; 'I' for Inactive)
    1  A    between atoms: C_1  and  C_19
    2  A    between atoms: C_1  and  C_29
    3  A    between atoms: C_2  and  C_28
    4  A    between atoms: C_3  and  C_11
    5  A    between atoms: C_4  and  C_9
    6  A    between atoms: C_4  and  O_10
    7  A    between atoms: O_5  and  C_33
    8  A    between atoms: N_8  and  C_34
    9  A    between atoms: N_8  and  C_43
   10  A    between atoms: C_9  and  C_27
   11  A    between atoms: O_10  and  C_15
   12  A    between atoms: C_11  and  C_17
   13  A    between atoms: C_11  and  C_28
   14  A    between atoms: C_17  and  C_27
   15  A    between atoms: C_19  and  C_32
   16  A    between atoms: C_21  and  C_36
   17  A    between atoms: C_21  and  O_50
   18  A    between atoms: C_23  and  C_42
   19  A    between atoms: C_23  and  O_50
   20  A    between atoms: O_25  and  C_29
   21  A    between atoms: C_30  and  C_35
   22  A    between atoms: C_30  and  C_51
   23  A    between atoms: C_33  and  C_43
   24  A    between atoms: C_35  and  C_36
   25  A    between atoms: C_42  and  C_48
                            x       y       z     vdW  Elec       q    Type
                         _______ _______ _______ _____ _____    ______ ____

>  <TORSDO>
F 25

$$$$
=
 OpenBabel11072411343D

 52 55  0  0  1  0  0  0  0  0999 V2000
  161.7820  208.1950  152.6830 C   0  0  1  0  0  3  0  0  0  0  0  0
  160.3910  207.5240  154.5370 C   0  0  0  0  0  0  0  0  0  0  0  0
  159.6720  206.6420  155.0230 O   0  0  0  0  0  0  0  0  0  0  0  0
  161.1420  208.4610  154.0170 C   0  0  0  0  0  0  0  0  0  0  0  0
  158.4650  211.9040  153.7430 C   0  0  2  0  0  0  0  0  0  0  0  0
  161.2380  209.8000  154.6350 C   0  0  0  0  0  3  0  0  0  0  0  0
  159.1910  210.6850  153.7480 O   0  0  0  0  0  0  0  0  0  0  0  0
  160.5500  212.1420  155.0210 C   0  0  0  0  0  2  0  0  0  0  0  0
  160.3670  210.7940  154.4600 C   0  0  0  0  0  0  0  0  0  0  0  0
  159.4040  212.9320  154.3920 C   0  0  0  0  0  2  0  0  0  0  0  0
  157.2110  211.0570  155.6020 O   0  0  0  0  0  0  0  0  0  0  0  0
  157.2170  211.7940  154.5750 C   0  0  0  0  0  0  0  0  0  0  0  0
  155.8310  213.8250  154.6110 C   0  0  0  0  0  1  0  0  0  0  0  0
  156.0660  212.4860  154.2000 O   0  0  0  0  0  0  0  0  0  0  0  0
  158.1500  212.3260  152.3060 C   0  0  0  0  0  2  0  0  0  0  0  0
  157.9590  214.3200  150.8810 C   0  0  0  0  0  3  0  0  0  0  0  0
  158.6760  214.4530  149.7930 C   0  0  0  0  0  3  0  0  0  0  0  0
  158.7810  213.6650  151.9200 C   0  0  2  0  0  3  0  0  0  0  0  0
  160.0230  213.8950  150.0380 C   0  0  1  0  0  3  0  0  0  0  0  0
  160.0720  213.4640  151.3830 O   0  0  0  0  0  0  0  0  0  0  0  0
  160.2470  212.7590  149.1540 N   0  0  0  0  0  2  0  0  0  0  0  0
  162.6000  212.5290  148.2960 C   0  0  0  0  0  2  0  0  0  0  0  0
  161.2560  213.1260  148.1700 C   0  0  1  0  0  0  0  0  0  0  0  0
  161.6330  212.0090  147.4090 O   0  0  0  0  0  0  0  0  0  0  0  0
  161.0070  214.3340  147.2800 C   0  0  0  0  0  2  0  0  0  0  0  0
  160.3910  213.9420  146.0920 O   0  0  0  0  0  0  0  0  0  0  0  0
  161.2420  214.2870  145.1470 O   0  0  0  0  0  1  0  0  0  0  0  0
  162.2810  206.7580  152.5470 C   0  0  0  0  0  2  0  0  0  0  0  0
  162.4310  206.1530  153.7980 O   0  0  0  0  0  1  0  0  0  0  0  0
  160.8550  208.5820  151.5340 C   0  0  0  0  0  2  0  0  0  0  0  0
  161.5280  208.3650  150.1840 C   0  0  0  0  0  2  0  0  0  0  0  0
  161.3630  206.9390  149.6710 C   0  0  0  0  0  2  0  0  0  0  0  0
  161.8480  206.8050  148.2330 C   0  0  1  0  0  3  0  0  0  0  0  0
  162.5070  205.6020  148.0510 F   0  0  0  0  0  0  0  0  0  0  0  0
  160.7620  206.9110  147.3190 O   0  0  0  0  0  0  0  0  0  0  0  0
  160.6800  206.1210  146.1730 C   0  0  0  0  0  0  0  0  0  0  0  0
  161.0960  206.6190  143.9910 O   0  0  0  0  0  1  0  0  0  0  0  0
  160.2640  205.9150  144.8550 C   0  0  1  0  0  3  0  0  0  0  0  0
  160.9940  204.8960  145.4730 C   0  0  0  0  0  0  0  0  0  0  0  0
  161.6500  203.5580  145.4400 C   0  0  0  0  0  2  0  0  0  0  0  0
  160.8130  202.4990  146.1580 C   0  0  1  0  0  3  0  0  0  0  0  0
  160.1050  201.6030  145.1580 C   0  0  0  0  0  1  0  0  0  0  0  0
  161.6210  201.7100  147.0280 O   0  0  0  0  0  0  0  0  0  0  0  0
  161.0930  200.7220  147.8660 C   0  0  0  0  0  0  0  0  0  0  0  0
  161.5020  199.5360  147.7540 O   0  0  0  0  0  0  0  0  0  0  0  0
  160.0400  201.0400  148.8800 C   0  0  0  0  0  2  0  0  0  0  0  0
  162.1480  201.3770  150.1480 C   0  0  0  0  0  1  0  0  0  0  0  0
  160.6630  201.6780  150.1110 C   0  0  1  0  0  3  0  0  0  0  0  0
  160.4630  203.1810  150.0670 C   0  0  0  0  0  2  0  0  0  0  0  0
  160.7990  203.0100  152.4200 O   0  0  0  0  0  1  0  0  0  0  0  0
  160.4930  203.7480  151.4470 C   0  0  0  0  0  0  0  0  0  0  0  0
  160.1530  205.0790  151.6630 O   0  0  0  0  0  0  0  0  0  0  0  0
  1 30  1  6  0  0  0
  1  4  1  0  0  0  0
  2  3  2  0  0  0  0
  4  2  2  0  0  0  0
  4  6  1  0  0  0  0
  5 15  1  6  0  0  0
  5  7  1  0  0  0  0
  5 10  1  0  0  0  0
  5 12  1  0  0  0  0
  7  9  1  0  0  0  0
  9  6  2  0  0  0  0
  9  8  1  0  0  0  0
 10  8  1  0  0  0  0
 12 11  2  0  0  0  0
 14 12  1  0  0  0  0
 14 13  1  0  0  0  0
 16 18  1  0  0  0  0
 17 19  1  0  0  0  0
 17 16  2  0  0  0  0
 18 15  1  6  0  0  0
 19 21  1  6  0  0  0
 19 20  1  0  0  0  0
 20 18  1  0  0  0  0
 23 25  1  6  0  0  0
 23 22  1  0  0  0  0
 23 21  1  0  0  0  0
 24 23  1  0  0  0  0
 24 22  1  0  0  0  0
 26 25  1  0  0  0  0
 27 26  1  0  0  0  0
 28  1  1  0  0  0  0
 28 29  1  0  0  0  0
 31 30  1  0  0  0  0
 32 31  1  0  0  0  0
 33 34  1  1  0  0  0
 33 32  1  0  0  0  0
 35 33  1  0  0  0  0
 36 35  1  0  0  0  0
 38 37  1  6  0  0  0
 38 39  1  0  0  0  0
 38 36  1  0  0  0  0
 39 36  2  0  0  0  0
 40 39  1  0  0  0  0
 40 41  1  0  0  0  0
 41 42  1  6  0  0  0
 41 43  1  0  0  0  0
 43 44  1  0  0  0  0
 44 46  1  0  0  0  0
 45 44  2  0  0  0  0
 46 48  1  0  0  0  0
 48 47  1  6  0  0  0
 49 48  1  0  0  0  0
 49 51  1  0  0  0  0
 51 52  2  0  0  0  0
 51 50  1  0  0  0  0
M  END
>  <MODEL>
5

>  <REMARK>
 VINA RESULT:      -3.8      1.254      3.511
  Name = 
  25 active torsions:
  status: ('A' for Active; 'I' for Inactive)
    1  A    between atoms: C_1  and  C_19
    2  A    between atoms: C_1  and  C_29
    3  A    between atoms: C_2  and  C_28
    4  A    between atoms: C_3  and  C_11
    5  A    between atoms: C_4  and  C_9
    6  A    between atoms: C_4  and  O_10
    7  A    between atoms: O_5  and  C_33
    8  A    between atoms: N_8  and  C_34
    9  A    between atoms: N_8  and  C_43
   10  A    between atoms: C_9  and  C_27
   11  A    between atoms: O_10  and  C_15
   12  A    between atoms: C_11  and  C_17
   13  A    between atoms: C_11  and  C_28
   14  A    between atoms: C_17  and  C_27
   15  A    between atoms: C_19  and  C_32
   16  A    between atoms: C_21  and  C_36
   17  A    between atoms: C_21  and  O_50
   18  A    between atoms: C_23  and  C_42
   19  A    between atoms: C_23  and  O_50
   20  A    between atoms: O_25  and  C_29
   21  A    between atoms: C_30  and  C_35
   22  A    between atoms: C_30  and  C_51
   23  A    between atoms: C_33  and  C_43
   24  A    between atoms: C_35  and  C_36
   25  A    between atoms: C_42  and  C_48
                            x       y       z     vdW  Elec       q    Type
                         _______ _______ _______ _____ _____    ______ ____

>  <TORSDO>
F 25

$$$$
=
 OpenBabel11072411343D

 52 55  0  0  1  0  0  0  0  0999 V2000
  161.4820  207.3300  152.4420 C   0  0  1  0  0  3  0  0  0  0  0  0
  161.1530  209.6940  152.0910 C   0  0  0  0  0  0  0  0  0  0  0  0
  161.0340  210.6090  151.2660 O   0  0  0  0  0  0  0  0  0  0  0  0
  161.2900  208.7260  152.9610 C   0  0  0  0  0  0  0  0  0  0  0  0
  159.1940  211.6240  155.4720 C   0  0  2  0  0  0  0  0  0  0  0  0
  161.4130  209.0070  154.4070 C   0  0  0  0  0  3  0  0  0  0  0  0
  159.7420  210.7250  154.5210 O   0  0  0  0  0  0  0  0  0  0  0  0
  160.9560  210.2500  156.4940 C   0  0  0  0  0  2  0  0  0  0  0  0
  160.7350  209.9420  155.0720 C   0  0  0  0  0  0  0  0  0  0  0  0
  160.0860  211.4850  156.7150 C   0  0  0  0  0  2  0  0  0  0  0  0
  157.3560  210.0870  155.5290 O   0  0  0  0  0  0  0  0  0  0  0  0
  157.7890  211.2330  155.8390 C   0  0  0  0  0  0  0  0  0  0  0  0
  155.6200  212.3630  156.0930 C   0  0  0  0  0  1  0  0  0  0  0  0
  156.9630  212.1420  156.4980 O   0  0  0  0  0  0  0  0  0  0  0  0
  159.2620  213.0590  154.9440 C   0  0  0  0  0  2  0  0  0  0  0  0
  157.9220  212.2050  153.0690 C   0  0  0  0  0  3  0  0  0  0  0  0
  158.1990  212.5250  151.8300 C   0  0  0  0  0  3  0  0  0  0  0  0
  158.1610  213.3810  153.9330 C   0  0  2  0  0  3  0  0  0  0  0  0
  158.6410  213.9360  151.7880 C   0  0  1  0  0  3  0  0  0  0  0  0
  158.5540  214.4530  153.1010 O   0  0  0  0  0  0  0  0  0  0  0  0
  160.0220  214.0000  151.3310 N   0  0  0  0  0  2  0  0  0  0  0  0
  161.2870  214.4490  149.2040 C   0  0  0  0  0  2  0  0  0  0  0  0
  160.0280  214.0730  149.8760 C   0  0  1  0  0  0  0  0  0  0  0  0
  160.8860  213.1010  149.3370 O   0  0  0  0  0  0  0  0  0  0  0  0
  158.6980  214.0970  149.1380 C   0  0  0  0  0  2  0  0  0  0  0  0
  158.8520  213.5980  147.8460 O   0  0  0  0  0  0  0  0  0  0  0  0
  158.2060  214.4530  147.0800 O   0  0  0  0  0  1  0  0  0  0  0  0
  162.6720  207.2140  151.4910 C   0  0  0  0  0  2  0  0  0  0  0  0
  163.1880  205.9160  151.4810 O   0  0  0  0  0  1  0  0  0  0  0  0
  161.5700  206.3190  153.5820 C   0  0  0  0  0  2  0  0  0  0  0  0
  160.6700  205.1160  153.3270 C   0  0  0  0  0  2  0  0  0  0  0  0
  161.4030  203.9730  152.6350 C   0  0  0  0  0  2  0  0  0  0  0  0
  160.5610  203.3640  151.5210 C   0  0  1  0  0  3  0  0  0  0  0  0
  160.4840  204.2250  150.4410 F   0  0  0  0  0  0  0  0  0  0  0  0
  161.0930  202.1090  151.1100 O   0  0  0  0  0  0  0  0  0  0  0  0
  160.5730  201.4060  150.0230 C   0  0  0  0  0  0  0  0  0  0  0  0
  158.6510  201.7060  148.8420 O   0  0  0  0  0  1  0  0  0  0  0  0
  159.5170  200.7580  149.3760 C   0  0  1  0  0  3  0  0  0  0  0  0
  160.7450  200.8260  148.7120 C   0  0  0  0  0  0  0  0  0  0  0  0
  161.5990  200.5480  147.5220 C   0  0  0  0  0  2  0  0  0  0  0  0
  161.1730  201.3790  146.3110 C   0  0  1  0  0  3  0  0  0  0  0  0
  159.9470  200.7780  145.6510 C   0  0  0  0  0  1  0  0  0  0  0  0
  160.9110  202.7310  146.6840 O   0  0  0  0  0  0  0  0  0  0  0  0
  161.7410  203.7940  146.3130 C   0  0  0  0  0  0  0  0  0  0  0  0
  162.2430  203.8100  145.1580 O   0  0  0  0  0  0  0  0  0  0  0  0
  162.0580  204.9050  147.2640 C   0  0  0  0  0  2  0  0  0  0  0  0
  160.6100  206.5950  146.1640 C   0  0  0  0  0  1  0  0  0  0  0  0
  162.0340  206.2430  146.5440 C   0  0  1  0  0  3  0  0  0  0  0  0
  162.5860  207.3250  147.4530 C   0  0  0  0  0  2  0  0  0  0  0  0
  161.4320  209.1230  148.5090 O   0  0  0  0  0  0  0  0  0  0  0  0
  161.5020  207.8810  148.3130 C   0  0  0  0  0  0  0  0  0  0  0  0
  160.5900  207.0280  148.9260 O   0  0  0  0  0  1  0  0  0  0  0  0
  1 28  1  1  0  0  0
  1  4  1  0  0  0  0
  1 30  1  0  0  0  0
  2  4  2  0  0  0  0
  3  2  2  0  0  0  0
  4  6  1  0  0  0  0
  5 15  1  6  0  0  0
  5 12  1  0  0  0  0
  5 10  1  0  0  0  0
  6  9  2  0  0  0  0
  7  9  1  0  0  0  0
  7  5  1  0  0  0  0
  8 10  1  0  0  0  0
  9  8  1  0  0  0  0
 11 12  2  0  0  0  0
 12 14  1  0  0  0  0
 13 14  1  0  0  0  0
 16 18  1  0  0  0  0
 17 16  2  0  0  0  0
 18 15  1  1  0  0  0
 19 21  1  1  0  0  0
 19 17  1  0  0  0  0
 19 20  1  0  0  0  0
 20 18  1  0  0  0  0
 22 24  1  0  0  0  0
 22 23  1  0  0  0  0
 23 25  1  6  0  0  0
 23 21  1  0  0  0  0
 24 23  1  0  0  0  0
 26 25  1  0  0  0  0
 27 26  1  0  0  0  0
 29 28  1  0  0  0  0
 31 30  1  0  0  0  0
 32 31  1  0  0  0  0
 33 34  1  6  0  0  0
 33 32  1  0  0  0  0
 35 33  1  0  0  0  0
 36 35  1  0  0  0  0
 38 37  1  6  0  0  0
 38 36  1  0  0  0  0
 39 38  1  0  0  0  0
 39 36  2  0  0  0  0
 40 39  1  0  0  0  0
 41 42  1  1  0  0  0
 41 43  1  0  0  0  0
 41 40  1  0  0  0  0
 44 43  1  0  0  0  0
 44 46  1  0  0  0  0
 45 44  2  0  0  0  0
 48 47  1  1  0  0  0
 48 46  1  0  0  0  0
 48 49  1  0  0  0  0
 49 51  1  0  0  0  0
 51 50  2  0  0  0  0
 51 52  1  0  0  0  0
M  END
>  <MODEL>
6

>  <REMARK>
 VINA RESULT:      -3.1      1.791      3.227
  Name = 
  25 active torsions:
  status: ('A' for Active; 'I' for Inactive)
    1  A    between atoms: C_1  and  C_19
    2  A    between atoms: C_1  and  C_29
    3  A    between atoms: C_2  and  C_28
    4  A    between atoms: C_3  and  C_11
    5  A    between atoms: C_4  and  C_9
    6  A    between atoms: C_4  and  O_10
    7  A    between atoms: O_5  and  C_33
    8  A    between atoms: N_8  and  C_34
    9  A    between atoms: N_8  and  C_43
   10  A    between atoms: C_9  and  C_27
   11  A    between atoms: O_10  and  C_15
   12  A    between atoms: C_11  and  C_17
   13  A    between atoms: C_11  and  C_28
   14  A    between atoms: C_17  and  C_27
   15  A    between atoms: C_19  and  C_32
   16  A    between atoms: C_21  and  C_36
   17  A    between atoms: C_21  and  O_50
   18  A    between atoms: C_23  and  C_42
   19  A    between atoms: C_23  and  O_50
   20  A    between atoms: O_25  and  C_29
   21  A    between atoms: C_30  and  C_35
   22  A    between atoms: C_30  and  C_51
   23  A    between atoms: C_33  and  C_43
   24  A    between atoms: C_35  and  C_36
   25  A    between atoms: C_42  and  C_48
                            x       y       z     vdW  Elec       q    Type
                         _______ _______ _______ _____ _____    ______ ____

>  <TORSDO>
F 25

$$$$
