=
 OpenBabel11072413043D

 37 41  0  0  1  0  0  0  0  0999 V2000
  162.7060  206.3130  152.2670 C   0  0  0  0  0  2  0  0  0  0  0  0
  160.3410  207.3990  155.1750 C   0  0  0  0  0  3  0  0  0  0  0  0
  161.9930  206.3430  150.9390 C   0  0  0  0  0  3  0  0  0  0  0  0
  160.0950  208.7050  155.3170 C   0  0  0  0  0  3  0  0  0  0  0  0
  162.3880  210.5780  153.8670 O   0  0  0  0  0  0  0  0  0  0  0  0
  162.1100  207.2980  153.2780 C   0  0  1  0  0  3  0  0  0  0  0  0
  161.2530  207.3830  150.5150 C   0  0  0  0  0  0  0  0  0  0  0  0
  160.2690  205.7540  153.4970 O   0  0  0  0  0  0  0  0  0  0  0  0
  161.9450  208.6560  152.5880 C   0  0  2  0  0  3  0  0  0  0  0  0
  160.2020  209.7120  154.1970 C   0  0  2  0  0  3  0  0  0  0  0  0
  160.8520  206.7780  153.9420 C   0  0  0  0  0  0  0  0  0  0  0  0
  161.5630  209.7330  153.5550 C   0  0  0  0  0  0  0  0  0  0  0  0
  160.9720  208.5650  151.4100 C   0  0  0  0  0  2  0  0  0  0  0  0
  160.1090  211.4160  155.9250 C   0  0  0  0  0  2  0  0  0  0  0  0
  156.3200  212.3550  154.8420 O   0  0  0  0  0  1  0  0  0  0  0  0
  159.7310  211.0600  154.5530 N   0  0  2  0  0  0  0  0  0  0  0  0
  158.2450  213.0590  156.0260 C   0  0  0  0  0  2  0  0  0  0  0  0
  158.2720  211.0900  154.4330 C   0  0  0  0  0  2  0  0  0  0  0  0
  157.7010  212.4940  154.7010 C   0  0  1  0  0  0  0  0  0  0  0  0
  159.7500  212.8700  156.1850 C   0  0  0  0  0  2  0  0  0  0  0  0
  157.9540  213.4400  153.5100 C   0  0  2  0  0  3  0  0  0  0  0  0
  158.1320  213.5820  151.2970 C   0  0  0  0  0  2  0  0  0  0  0  0
  156.9410  214.4530  151.6280 C   0  0  0  0  0  2  0  0  0  0  0  0
  156.7710  214.2970  153.1070 C   0  0  0  0  0  2  0  0  0  0  0  0
  158.3790  212.7270  152.3790 O   0  0  0  0  0  0  0  0  0  0  0  0
  160.6300  207.3630  149.2600 O   0  0  0  0  0  0  0  0  0  0  0  0
  161.0990  206.6540  148.1690 N   0  0  0  0  0  2  0  0  0  0  0  0
  160.8030  205.2960  147.9660 N   0  0  0  0  0  0  0  0  0  0  0  0
  162.8100  205.0560  146.6200 C   0  0  0  0  0  1  0  0  0  0  0  0
  161.5680  204.5160  147.2610 C   0  0  0  0  0  0  0  0  0  0  0  0
  161.1480  200.9610  148.4160 C   0  0  0  0  0  3  0  0  0  0  0  0
  160.5480  201.2760  145.4470 C   0  0  0  0  0  3  0  0  0  0  0  0
  160.8260  200.1550  146.1120 C   0  0  0  0  0  3  0  0  0  0  0  0
  160.9680  202.2760  148.3060 C   0  0  0  0  0  3  0  0  0  0  0  0
  160.9770  202.6310  145.8430 C   0  0  0  0  0  3  0  0  0  0  0  0
  161.7010  200.1180  147.3180 C   0  0  0  0  0  2  0  0  0  0  0  0
  161.2080  203.0880  147.0880 C   0  0  0  0  0  0  0  0  0  0  0  0
  2  4  2  0  0  0  0
  3  1  1  0  0  0  0
  6  1  1  6  0  0  0
  6 11  1  0  0  0  0
  7  3  2  0  0  0  0
  7 13  1  0  0  0  0
  8 11  2  0  0  0  0
  9 13  1  6  0  0  0
  9  6  1  0  0  0  0
  9 12  1  0  0  0  0
 10 16  1  0  0  0  0
 10  4  1  1  0  0  0
 11  2  1  0  0  0  0
 12  5  2  0  0  0  0
 12 10  1  0  0  0  0
 14 20  1  0  0  0  0
 16 18  1  1  0  0  0
 16 14  1  0  0  0  0
 17 20  1  0  0  0  0
 18 19  1  0  0  0  0
 19 15  1  1  0  0  0
 19 17  1  0  0  0  0
 21 24  1  6  0  0  0
 21 19  1  0  0  0  0
 22 23  1  0  0  0  0
 22 25  1  0  0  0  0
 23 24  1  0  0  0  0
 25 21  1  0  0  0  0
 26  7  1  0  0  0  0
 27 26  1  0  0  0  0
 28 27  1  0  0  0  0
 29 30  1  0  0  0  0
 30 28  2  0  0  0  0
 32 35  1  0  0  0  0
 32 33  2  0  0  0  0
 33 36  1  0  0  0  0
 34 31  2  0  0  0  0
 35 37  2  0  0  0  0
 36 31  1  0  0  0  0
 37 30  1  0  0  0  0
 37 34  1  0  0  0  0
M  END
>  <MODEL>
1

>  <REMARK>
 VINA RESULT:      -8.1      0.000      0.000
  Name = 
  6 active torsions:
  status: ('A' for Active; 'I' for Inactive)
    1  A    between atoms: N_8  and  C_26
    2  A    between atoms: C_10  and  C_19
    3  A    between atoms: N_12  and  N_35
    4  A    between atoms: C_13  and  O_14
    5  A    between atoms: O_14  and  N_35
    6  A    between atoms: C_28  and  C_34
                            x       y       z     vdW  Elec       q    Type
                         _______ _______ _______ _____ _____    ______ ____

>  <TORSDO>
F 6

$$$$
=
 OpenBabel11072413043D

 37 41  0  0  1  0  0  0  0  0999 V2000
  160.3880  214.3730  148.4910 C   0  0  0  0  0  2  0  0  0  0  0  0
  158.0950  213.1990  145.5600 C   0  0  0  0  0  3  0  0  0  0  0  0
  161.1550  213.2180  149.0840 C   0  0  0  0  0  3  0  0  0  0  0  0
  158.6750  212.9560  144.3800 C   0  0  0  0  0  3  0  0  0  0  0  0
  161.5990  214.4500  144.0900 O   0  0  0  0  0  0  0  0  0  0  0  0
  160.0210  214.1430  147.0210 C   0  0  1  0  0  3  0  0  0  0  0  0
  161.8360  212.3220  148.3490 C   0  0  0  0  0  0  0  0  0  0  0  0
  158.3500  212.5970  147.8180 O   0  0  0  0  0  0  0  0  0  0  0  0
  161.2740  213.6650  146.2810 C   0  0  2  0  0  3  0  0  0  0  0  0
  160.1290  212.5890  144.2140 C   0  0  2  0  0  3  0  0  0  0  0  0
  158.8110  213.2490  146.8440 C   0  0  0  0  0  0  0  0  0  0  0  0
  161.0640  213.6130  144.8000 C   0  0  0  0  0  0  0  0  0  0  0  0
  161.7740  212.3310  146.8420 C   0  0  0  0  0  2  0  0  0  0  0  0
  161.9520  212.2920  142.6370 C   0  0  0  0  0  2  0  0  0  0  0  0
  159.6750  213.8290  139.6610 O   0  0  0  0  0  1  0  0  0  0  0  0
  160.5020  212.2150  142.8400 N   0  0  2  0  0  0  0  0  0  0  0  0
  161.6090  212.5720  140.1900 C   0  0  0  0  0  2  0  0  0  0  0  0
  159.8380  213.1320  141.9110 C   0  0  0  0  0  2  0  0  0  0  0  0
  160.1010  212.7560  140.4430 C   0  0  1  0  0  0  0  0  0  0  0  0
  162.2990  211.7380  141.2640 C   0  0  0  0  0  2  0  0  0  0  0  0
  159.2790  211.5200  140.0230 C   0  0  2  0  0  3  0  0  0  0  0  0
  157.4930  210.8110  138.9040 C   0  0  0  0  0  2  0  0  0  0  0  0
  158.6580  210.1770  138.1780 C   0  0  0  0  0  2  0  0  0  0  0  0
  159.8660  210.7160  138.8800 C   0  0  0  0  0  2  0  0  0  0  0  0
  157.9690  211.8790  139.6740 O   0  0  0  0  0  0  0  0  0  0  0  0
  162.5500  211.2800  148.9580 O   0  0  0  0  0  0  0  0  0  0  0  0
  161.9640  210.1670  149.5320 N   0  0  0  0  0  2  0  0  0  0  0  0
  161.8160  208.9520  148.8430 N   0  0  0  0  0  0  0  0  0  0  0  0
  161.6830  207.7660  150.9580 C   0  0  0  0  0  1  0  0  0  0  0  0
  161.6770  207.8150  149.4610 C   0  0  0  0  0  0  0  0  0  0  0  0
  160.6870  204.2180  148.9840 C   0  0  0  0  0  3  0  0  0  0  0  0
  162.0220  205.3730  146.5030 C   0  0  0  0  0  3  0  0  0  0  0  0
  161.8520  204.0900  146.8180 C   0  0  0  0  0  3  0  0  0  0  0  0
  160.5940  205.5290  149.2030 C   0  0  0  0  0  3  0  0  0  0  0  0
  162.1010  206.4860  147.4690 C   0  0  0  0  0  3  0  0  0  0  0  0
  161.8070  203.5950  148.2230 C   0  0  0  0  0  2  0  0  0  0  0  0
  161.5170  206.5650  148.6800 C   0  0  0  0  0  0  0  0  0  0  0  0
  1  3  1  0  0  0  0
  2 11  1  0  0  0  0
  4  2  2  0  0  0  0
  5 12  2  0  0  0  0
  6  1  1  1  0  0  0
  7 26  1  0  0  0  0
  7  3  2  0  0  0  0
  9 13  1  1  0  0  0
  9  6  1  0  0  0  0
 10  4  1  6  0  0  0
 10 12  1  0  0  0  0
 11  6  1  0  0  0  0
 11  8  2  0  0  0  0
 12  9  1  0  0  0  0
 13  7  1  0  0  0  0
 14 16  1  0  0  0  0
 16 18  1  6  0  0  0
 16 10  1  0  0  0  0
 17 19  1  0  0  0  0
 17 20  1  0  0  0  0
 19 15  1  6  0  0  0
 19 18  1  0  0  0  0
 20 14  1  0  0  0  0
 21 24  1  6  0  0  0
 21 19  1  0  0  0  0
 22 25  1  0  0  0  0
 23 24  1  0  0  0  0
 23 22  1  0  0  0  0
 25 21  1  0  0  0  0
 26 27  1  0  0  0  0
 28 30  2  0  0  0  0
 28 27  1  0  0  0  0
 30 29  1  0  0  0  0
 31 34  2  0  0  0  0
 32 33  2  0  0  0  0
 32 35  1  0  0  0  0
 33 36  1  0  0  0  0
 35 37  2  0  0  0  0
 36 31  1  0  0  0  0
 37 34  1  0  0  0  0
 37 30  1  0  0  0  0
M  END
>  <MODEL>
2

>  <REMARK>
 VINA RESULT:      -7.6      6.775      9.978
  Name = 
  6 active torsions:
  status: ('A' for Active; 'I' for Inactive)
    1  A    between atoms: N_8  and  C_26
    2  A    between atoms: C_10  and  C_19
    3  A    between atoms: N_12  and  N_35
    4  A    between atoms: C_13  and  O_14
    5  A    between atoms: O_14  and  N_35
    6  A    between atoms: C_28  and  C_34
                            x       y       z     vdW  Elec       q    Type
                         _______ _______ _______ _____ _____    ______ ____

>  <TORSDO>
F 6

$$$$
=
 OpenBabel11072413043D

 37 41  0  0  1  0  0  0  0  0999 V2000
  162.0570  206.4680  154.0640 C   0  0  0  0  0  2  0  0  0  0  0  0
  159.7080  208.5750  156.3580 C   0  0  0  0  0  3  0  0  0  0  0  0
  161.4140  206.1870  152.7290 C   0  0  0  0  0  3  0  0  0  0  0  0
  159.6140  209.8850  156.1100 C   0  0  0  0  0  3  0  0  0  0  0  0
  162.1770  211.0210  154.3760 O   0  0  0  0  0  0  0  0  0  0  0  0
  161.5370  207.7560  154.7090 C   0  0  1  0  0  3  0  0  0  0  0  0
  160.8240  207.1310  151.9750 C   0  0  0  0  0  0  0  0  0  0  0  0
  159.5180  206.5340  155.2080 O   0  0  0  0  0  0  0  0  0  0  0  0
  161.5670  208.8680  153.6560 C   0  0  2  0  0  3  0  0  0  0  0  0
  159.8900  210.5120  154.7650 C   0  0  2  0  0  3  0  0  0  0  0  0
  160.1970  207.5790  155.3930 C   0  0  0  0  0  0  0  0  0  0  0  0
  161.2720  210.2100  154.2500 C   0  0  0  0  0  0  0  0  0  0  0  0
  160.6440  208.5420  152.4790 C   0  0  0  0  0  2  0  0  0  0  0  0
  159.6570  212.5840  156.0080 C   0  0  0  0  0  2  0  0  0  0  0  0
  156.4370  213.6040  153.7730 O   0  0  0  0  0  1  0  0  0  0  0  0
  159.5680  211.9460  154.6910 N   0  0  2  0  0  0  0  0  0  0  0  0
  158.1080  214.3790  155.2590 C   0  0  0  0  0  2  0  0  0  0  0  0
  158.2040  212.0910  154.1790 C   0  0  0  0  0  2  0  0  0  0  0  0
  157.8150  213.5660  153.9840 C   0  0  1  0  0  0  0  0  0  0  0  0
  159.4810  214.0860  155.8530 C   0  0  0  0  0  2  0  0  0  0  0  0
  158.4920  214.1660  152.7350 C   0  0  2  0  0  3  0  0  0  0  0  0
  159.7320  213.7250  150.9420 C   0  0  0  0  0  2  0  0  0  0  0  0
  158.4260  214.2290  150.3720 C   0  0  0  0  0  2  0  0  0  0  0  0
  157.5610  214.4520  151.5740 C   0  0  0  0  0  2  0  0  0  0  0  0
  159.5230  213.3360  152.2720 O   0  0  0  0  0  0  0  0  0  0  0  0
  160.2610  206.8150  150.7310 O   0  0  0  0  0  0  0  0  0  0  0  0
  160.9940  206.5530  149.5880 N   0  0  0  0  0  2  0  0  0  0  0  0
  160.8750  205.3490  148.8740 N   0  0  0  0  0  0  0  0  0  0  0  0
  162.5790  206.1020  147.3150 C   0  0  0  0  0  1  0  0  0  0  0  0
  161.5920  205.0940  147.8180 C   0  0  0  0  0  0  0  0  0  0  0  0
  160.8000  202.9360  144.8410 C   0  0  0  0  0  3  0  0  0  0  0  0
  161.3510  201.2810  147.3370 C   0  0  0  0  0  3  0  0  0  0  0  0
  160.7280  200.8990  146.2230 C   0  0  0  0  0  3  0  0  0  0  0  0
  161.4200  203.8150  145.6270 C   0  0  0  0  0  3  0  0  0  0  0  0
  161.4350  202.6670  147.8350 C   0  0  0  0  0  3  0  0  0  0  0  0
  159.9450  201.8330  145.3660 C   0  0  0  0  0  2  0  0  0  0  0  0
  161.4270  203.8020  147.1100 C   0  0  0  0  0  0  0  0  0  0  0  0
  3  1  1  0  0  0  0
  4  2  2  0  0  0  0
  6  1  1  6  0  0  0
  6 11  1  0  0  0  0
  7 13  1  0  0  0  0
  7  3  2  0  0  0  0
  8 11  2  0  0  0  0
  9 13  1  6  0  0  0
  9 12  1  0  0  0  0
  9  6  1  0  0  0  0
 10  4  1  1  0  0  0
 11  2  1  0  0  0  0
 12  5  2  0  0  0  0
 12 10  1  0  0  0  0
 16 18  1  1  0  0  0
 16 10  1  0  0  0  0
 16 14  1  0  0  0  0
 17 20  1  0  0  0  0
 19 15  1  6  0  0  0
 19 18  1  0  0  0  0
 19 17  1  0  0  0  0
 20 14  1  0  0  0  0
 21 24  1  6  0  0  0
 21 19  1  0  0  0  0
 22 25  1  0  0  0  0
 23 22  1  0  0  0  0
 23 24  1  0  0  0  0
 25 21  1  0  0  0  0
 26  7  1  0  0  0  0
 27 26  1  0  0  0  0
 28 27  1  0  0  0  0
 29 30  1  0  0  0  0
 30 28  2  0  0  0  0
 31 36  1  0  0  0  0
 31 34  2  0  0  0  0
 32 35  1  0  0  0  0
 33 32  2  0  0  0  0
 34 37  1  0  0  0  0
 36 33  1  0  0  0  0
 37 30  1  0  0  0  0
 37 35  2  0  0  0  0
M  END
>  <MODEL>
3

>  <REMARK>
 VINA RESULT:      -6.8      1.161      1.709
  Name = 
  6 active torsions:
  status: ('A' for Active; 'I' for Inactive)
    1  A    between atoms: N_8  and  C_26
    2  A    between atoms: C_10  and  C_19
    3  A    between atoms: N_12  and  N_35
    4  A    between atoms: C_13  and  O_14
    5  A    between atoms: O_14  and  N_35
    6  A    between atoms: C_28  and  C_34
                            x       y       z     vdW  Elec       q    Type
                         _______ _______ _______ _____ _____    ______ ____

>  <TORSDO>
F 6

$$$$
=
 OpenBabel11072413043D

 37 41  0  0  1  0  0  0  0  0999 V2000
  162.6370  210.7570  153.0530 C   0  0  0  0  0  2  0  0  0  0  0  0
  162.0390  209.8710  149.3000 C   0  0  0  0  0  3  0  0  0  0  0  0
  161.3480  210.7290  153.8350 C   0  0  0  0  0  3  0  0  0  0  0  0
  161.8580  208.5840  148.9900 C   0  0  0  0  0  3  0  0  0  0  0  0
  163.0400  206.5580  151.3060 O   0  0  0  0  0  0  0  0  0  0  0  0
  162.6050  209.8310  151.8330 C   0  0  1  0  0  3  0  0  0  0  0  0
  160.4640  209.7180  153.7770 C   0  0  0  0  0  0  0  0  0  0  0  0
  161.1780  211.4730  150.7900 O   0  0  0  0  0  0  0  0  0  0  0  0
  162.0710  208.4660  152.2780 C   0  0  2  0  0  3  0  0  0  0  0  0
  161.3510  207.5440  149.9600 C   0  0  2  0  0  3  0  0  0  0  0  0
  161.8740  210.4330  150.6500 C   0  0  0  0  0  0  0  0  0  0  0  0
  162.1980  207.4360  151.1990 C   0  0  0  0  0  0  0  0  0  0  0  0
  160.6380  208.5770  152.8060 C   0  0  0  0  0  2  0  0  0  0  0  0
  160.9710  205.1800  150.3660 C   0  0  0  0  0  2  0  0  0  0  0  0
  163.1500  204.2310  147.0860 O   0  0  0  0  0  1  0  0  0  0  0  0
  161.0840  206.2320  149.3500 N   0  0  2  0  0  0  0  0  0  0  0  0
  161.5720  203.4610  148.6730 C   0  0  0  0  0  2  0  0  0  0  0  0
  162.1870  205.9060  148.4430 C   0  0  0  0  0  2  0  0  0  0  0  0
  161.9450  204.5870  147.6910 C   0  0  1  0  0  0  0  0  0  0  0  0
  160.5310  203.8850  149.7030 C   0  0  0  0  0  2  0  0  0  0  0  0
  160.8980  204.7610  146.5720 C   0  0  2  0  0  3  0  0  0  0  0  0
  160.3230  205.9450  144.7780 C   0  0  0  0  0  2  0  0  0  0  0  0
  160.5360  204.5460  144.2450 C   0  0  0  0  0  2  0  0  0  0  0  0
  161.0000  203.7650  145.4350 C   0  0  0  0  0  2  0  0  0  0  0  0
  160.9520  206.0510  146.0250 O   0  0  0  0  0  0  0  0  0  0  0  0
  159.2920  209.7370  154.5450 O   0  0  0  0  0  0  0  0  0  0  0  0
  158.3130  210.7100  154.4480 N   0  0  0  0  0  2  0  0  0  0  0  0
  158.0830  211.4360  153.2680 N   0  0  0  0  0  0  0  0  0  0  0  0
  158.0050  213.4980  154.5470 C   0  0  0  0  0  1  0  0  0  0  0  0
  157.9400  212.7280  153.2630 C   0  0  0  0  0  0  0  0  0  0  0  0
  155.8060  214.3520  150.6260 C   0  0  0  0  0  3  0  0  0  0  0  0
  158.7420  214.2670  149.8260 C   0  0  0  0  0  3  0  0  0  0  0  0
  157.6840  214.4500  149.0370 C   0  0  0  0  0  3  0  0  0  0  0  0
  156.4050  214.1260  151.7930 C   0  0  0  0  0  3  0  0  0  0  0  0
  158.7310  213.5530  151.1170 C   0  0  0  0  0  3  0  0  0  0  0  0
  156.3440  213.8650  149.3240 C   0  0  0  0  0  2  0  0  0  0  0  0
  157.7070  213.4410  151.9840 C   0  0  0  0  0  0  0  0  0  0  0  0
  1  3  1  0  0  0  0
  2 11  1  0  0  0  0
  4  2  2  0  0  0  0
  6  9  1  0  0  0  0
  6  1  1  1  0  0  0
  7  3  2  0  0  0  0
  7 26  1  0  0  0  0
  9 13  1  6  0  0  0
 10  4  1  6  0  0  0
 10 12  1  0  0  0  0
 11  8  2  0  0  0  0
 11  6  1  0  0  0  0
 12  5  2  0  0  0  0
 12  9  1  0  0  0  0
 13  7  1  0  0  0  0
 16 18  1  6  0  0  0
 16 10  1  0  0  0  0
 16 14  1  0  0  0  0
 17 20  1  0  0  0  0
 19 15  1  6  0  0  0
 19 18  1  0  0  0  0
 19 17  1  0  0  0  0
 20 14  1  0  0  0  0
 21 24  1  6  0  0  0
 21 19  1  0  0  0  0
 22 25  1  0  0  0  0
 23 22  1  0  0  0  0
 23 24  1  0  0  0  0
 25 21  1  0  0  0  0
 27 26  1  0  0  0  0
 28 27  1  0  0  0  0
 30 28  2  0  0  0  0
 30 29  1  0  0  0  0
 31 34  2  0  0  0  0
 32 35  1  0  0  0  0
 33 36  1  0  0  0  0
 33 32  2  0  0  0  0
 34 37  1  0  0  0  0
 35 37  2  0  0  0  0
 36 31  1  0  0  0  0
 37 30  1  0  0  0  0
M  END
>  <MODEL>
4

>  <REMARK>
 VINA RESULT:      -5.7      2.116      9.750
  Name = 
  6 active torsions:
  status: ('A' for Active; 'I' for Inactive)
    1  A    between atoms: N_8  and  C_26
    2  A    between atoms: C_10  and  C_19
    3  A    between atoms: N_12  and  N_35
    4  A    between atoms: C_13  and  O_14
    5  A    between atoms: O_14  and  N_35
    6  A    between atoms: C_28  and  C_34
                            x       y       z     vdW  Elec       q    Type
                         _______ _______ _______ _____ _____    ______ ____

>  <TORSDO>
F 6

$$$$
