=
 OpenBabel11072410043D

 55 59  0  0  1  0  0  0  0  0999 V2000
  160.8220  210.5770  151.0900 O   0  0  0  0  0  0  0  0  0  0  0  0
  161.6980  209.6800  151.7160 C   0  0  2  0  0  3  0  0  0  0  0  0
  161.7490  208.3040  151.0430 C   0  0  1  0  0  3  0  0  0  0  0  0
  160.8940  208.5180  152.2750 C   0  0  1  0  0  3  0  0  0  0  0  0
  161.7290  208.2700  148.5840 C   0  0  0  0  0  0  0  0  0  0  0  0
  160.2860  206.7910  149.7470 C   0  0  0  0  0  2  0  0  0  0  0  0
  161.9370  206.9540  147.9070 C   0  0  2  0  0  0  0  0  0  0  0  0
  161.0720  205.9790  148.7180 C   0  0  1  0  0  3  0  0  0  0  0  0
  163.2930  206.6100  147.9520 O   0  0  0  0  0  1  0  0  0  0  0  0
  160.8790  208.1870  149.7980 C   0  0  1  0  0  3  0  0  0  0  0  0
  162.1230  209.4390  148.0750 C   0  0  0  0  0  2  0  0  0  0  0  0
  161.1720  205.5340  145.9360 C   0  0  0  0  0  1  0  0  0  0  0  0
  161.4270  206.9400  146.4630 C   0  0  0  0  0  2  0  0  0  0  0  0
  161.8490  204.8530  149.3950 C   0  0  0  0  0  2  0  0  0  0  0  0
  161.3870  203.4890  148.8970 C   0  0  0  0  0  2  0  0  0  0  0  0
  160.6170  202.7430  149.9810 C   0  0  1  0  0  3  0  0  0  0  0  0
  159.0610  201.0960  148.9180 C   0  0  0  0  0  1  0  0  0  0  0  0
  160.4150  201.2820  149.5900 C   0  0  1  0  0  3  0  0  0  0  0  0
  161.5140  200.8150  148.6410 C   0  0  0  0  0  2  0  0  0  0  0  0
  161.4200  199.5620  146.6040 O   0  0  0  0  0  1  0  0  0  0  0  0
  161.0060  200.7520  147.2070 C   0  0  0  0  0  2  0  0  0  0  0  0
  161.3450  202.8230  151.1990 O   0  0  0  0  0  0  0  0  0  0  0  0
  161.3240  204.5960  152.6580 O   0  0  0  0  0  0  0  0  0  0  0  0
  159.8250  202.9180  153.0830 O   0  0  0  0  0  1  0  0  0  0  0  0
  160.8410  203.4840  152.3200 C   0  0  0  0  0  0  0  0  0  0  0  0
  161.6060  207.9300  153.4830 C   0  0  0  0  0  2  0  0  0  0  0  0
  160.2940  207.1270  155.4500 C   0  0  0  0  0  1  0  0  0  0  0  0
  160.9180  208.3340  154.7760 C   0  0  0  0  0  2  0  0  0  0  0  0
  161.6440  211.6010  150.6070 C   0  0  0  0  0  2  0  0  0  0  0  0
  160.8260  212.7330  150.0750 C   0  0  0  0  0  0  0  0  0  0  0  0
  159.7780  213.0350  150.6250 O   0  0  0  0  0  0  0  0  0  0  0  0
  160.6190  212.9470  147.6120 C   0  0  0  0  0  0  0  0  0  0  0  0
  158.6710  212.3330  146.1750 C   0  0  0  0  0  2  0  0  0  0  0  0
  159.2900  212.8460  147.4410 C   0  0  0  0  0  3  0  0  0  0  0  0
  160.4010  212.9490  144.4440 C   0  0  2  0  0  3  0  0  0  0  0  0
  161.6490  212.6500  146.6070 C   0  0  1  0  0  3  0  0  0  0  0  0
  159.0010  213.2280  144.9850 C   0  0  0  0  0  2  0  0  0  0  0  0
  161.4630  213.5240  145.3740 C   0  0  0  0  0  2  0  0  0  0  0  0
  161.2740  213.4410  148.8290 C   0  0  2  0  0  3  0  0  0  0  0  0
  162.7000  213.2340  148.6170 N   0  0  0  0  0  2  0  0  0  0  0  0
  162.9210  212.9910  147.2400 N   0  0  0  0  0  2  0  0  0  0  0  0
  161.8160  213.1510  142.3770 C   0  0  0  0  0  2  0  0  0  0  0  0
  160.4880  212.5790  141.9300 C   0  0  2  0  0  0  0  0  0  0  0  0
  160.5190  213.5950  143.0650 C   0  0  1  0  0  3  0  0  0  0  0  0
  160.2220  211.2500  142.2780 O   0  0  0  0  0  1  0  0  0  0  0  0
  159.9210  213.0670  140.7420 O   0  0  0  0  0  0  0  0  0  0  0  0
  159.7450  211.9680  139.8840 C   0  0  1  0  0  3  0  0  0  0  0  0
  158.4500  212.0890  139.0800 C   0  0  0  0  0  2  0  0  0  0  0  0
  157.8870  213.3600  139.2320 O   0  0  0  0  0  0  0  0  0  0  0  0
  156.6850  213.1350  139.9040 C   0  0  0  0  0  1  0  0  0  0  0  0
  160.9850  211.7350  139.0160 C   0  0  0  0  0  2  0  0  0  0  0  0
  161.3240  207.9940  138.0320 C   0  0  0  0  0  1  0  0  0  0  0  0
  161.8830  209.1830  140.0080 O   0  0  0  0  0  0  0  0  0  0  0  0
  161.4030  209.2330  138.8450 C   0  0  0  0  0  0  0  0  0  0  0  0
  160.9320  210.4650  138.2960 N   0  0  0  0  0  2  0  0  0  0  0  0
  2  1  1  6  0  0  0
  2  4  1  0  0  0  0
  3 10  1  6  0  0  0
  3  2  1  0  0  0  0
  3  4  1  0  0  0  0
  4 26  1  1  0  0  0
  5 10  1  0  0  0  0
  7  9  1  1  0  0  0
  7  5  1  0  0  0  0
  7  8  1  0  0  0  0
  8 14  1  1  0  0  0
  8  6  1  0  0  0  0
 10  6  1  1  0  0  0
 11  5  2  0  0  0  0
 12 13  1  0  0  0  0
 13  7  1  0  0  0  0
 15 14  1  0  0  0  0
 16 15  1  6  0  0  0
 16 22  1  0  0  0  0
 18 17  1  6  0  0  0
 18 16  1  0  0  0  0
 19 18  1  0  0  0  0
 20 21  1  0  0  0  0
 21 19  1  0  0  0  0
 22 25  1  0  0  0  0
 25 23  2  0  0  0  0
 25 24  1  0  0  0  0
 26 28  1  0  0  0  0
 28 27  1  0  0  0  0
 29  1  1  0  0  0  0
 30 29  1  0  0  0  0
 30 31  2  0  0  0  0
 32 39  1  0  0  0  0
 33 34  1  0  0  0  0
 34 32  2  0  0  0  0
 35 37  1  1  0  0  0
 35 38  1  0  0  0  0
 36 38  1  6  0  0  0
 36 41  1  0  0  0  0
 36 32  1  0  0  0  0
 37 33  1  0  0  0  0
 39 30  1  1  0  0  0
 40 39  1  0  0  0  0
 41 40  1  0  0  0  0
 43 45  1  1  0  0  0
 43 42  1  0  0  0  0
 43 44  1  0  0  0  0
 44 42  1  1  0  0  0
 44 35  1  0  0  0  0
 46 43  1  0  0  0  0
 47 51  1  6  0  0  0
 47 46  1  0  0  0  0
 48 49  1  0  0  0  0
 48 47  1  0  0  0  0
 49 50  1  0  0  0  0
 52 54  1  0  0  0  0
 54 53  2  0  0  0  0
 55 54  1  0  0  0  0
 55 51  1  0  0  0  0
M  END
>  <MODEL>
1

>  <REMARK>
 VINA RESULT:      -4.5      0.000      0.000
  Name = 
  23 active torsions:
  status: ('A' for Active; 'I' for Inactive)
    1  A    between atoms: O_4  and  C_48
    2  A    between atoms: C_7  and  C_44
    3  A    between atoms: C_10  and  C_32
    4  A    between atoms: C_10  and  O_33
    5  A    between atoms: C_10  and  C_41
    6  A    between atoms: C_14  and  C_41
    7  A    between atoms: C_14  and  C_43
    8  A    between atoms: C_15  and  C_21
    9  A    between atoms: C_15  and  C_28
   10  A    between atoms: C_16  and  O_37
   11  A    between atoms: C_18  and  C_31
   12  A    between atoms: C_19  and  C_38
   13  A    between atoms: C_21  and  O_37
   14  A    between atoms: C_25  and  O_50
   15  A    between atoms: C_26  and  C_46
   16  A    between atoms: C_26  and  C_48
   17  A    between atoms: C_26  and  O_50
   18  A    between atoms: C_29  and  C_40
   19  A    between atoms: C_32  and  C_40
   20  A    between atoms: O_33  and  C_45
   21  A    between atoms: C_46  and  N_51
   22  A    between atoms: C_53  and  C_54
   23  A    between atoms: C_54  and  C_55
                            x       y       z     vdW  Elec       q    Type
                         _______ _______ _______ _____ _____    ______ ____

>  <TORSDO>
F 23

$$$$
=
 OpenBabel11072410043D

 55 59  0  0  1  0  0  0  0  0999 V2000
  161.9990  210.3550  152.0520 O   0  0  0  0  0  0  0  0  0  0  0  0
  160.6560  210.6320  151.7660 C   0  0  2  0  0  3  0  0  0  0  0  0
  160.4690  211.6160  150.6060 C   0  0  1  0  0  3  0  0  0  0  0  0
  160.3910  212.1040  152.0380 C   0  0  1  0  0  3  0  0  0  0  0  0
  161.9190  211.4110  148.6300 C   0  0  0  0  0  0  0  0  0  0  0  0
  161.6690  213.5450  149.6320 C   0  0  0  0  0  2  0  0  0  0  0  0
  161.6530  212.3240  147.4770 C   0  0  2  0  0  0  0  0  0  0  0  0
  161.4020  213.6880  148.1340 C   0  0  1  0  0  3  0  0  0  0  0  0
  160.5350  211.8730  146.7660 O   0  0  0  0  0  1  0  0  0  0  0  0
  161.7710  212.0660  149.9540 C   0  0  1  0  0  3  0  0  0  0  0  0
  162.4010  210.1740  148.5030 C   0  0  0  0  0  2  0  0  0  0  0  0
  162.8700  213.7950  145.7900 C   0  0  0  0  0  1  0  0  0  0  0  0
  162.8590  212.4710  146.5440 C   0  0  0  0  0  2  0  0  0  0  0  0
  160.0110  214.2670  147.8850 C   0  0  0  0  0  2  0  0  0  0  0  0
  159.0190  213.7880  148.9380 C   0  0  0  0  0  2  0  0  0  0  0  0
  157.5970  214.1960  148.5740 C   0  0  1  0  0  3  0  0  0  0  0  0
  157.4710  212.4940  146.7420 C   0  0  0  0  0  1  0  0  0  0  0  0
  157.3360  213.9720  147.0870 C   0  0  1  0  0  3  0  0  0  0  0  0
  155.9420  214.4530  146.6990 C   0  0  0  0  0  2  0  0  0  0  0  0
  154.5500  213.7110  144.8990 O   0  0  0  0  0  1  0  0  0  0  0  0
  155.7400  214.3810  145.1920 C   0  0  0  0  0  2  0  0  0  0  0  0
  156.6860  213.4250  149.3470 O   0  0  0  0  0  0  0  0  0  0  0  0
  156.0540  214.2600  151.3910 O   0  0  0  0  0  1  0  0  0  0  0  0
  154.4710  214.3260  149.7360 O   0  0  0  0  0  0  0  0  0  0  0  0
  155.7490  214.0180  150.1930 C   0  0  0  0  0  0  0  0  0  0  0  0
  158.9320  212.3060  152.4160 C   0  0  0  0  0  2  0  0  0  0  0  0
  160.0950  212.3240  154.6250 C   0  0  0  0  0  1  0  0  0  0  0  0
  158.7830  212.5730  153.9030 C   0  0  0  0  0  2  0  0  0  0  0  0
  162.0060  209.9770  153.3990 C   0  0  0  0  0  2  0  0  0  0  0  0
  161.1440  208.7760  153.6200 C   0  0  0  0  0  0  0  0  0  0  0  0
  160.0070  208.9160  154.0430 O   0  0  0  0  0  0  0  0  0  0  0  0
  161.1610  206.7530  152.1850 C   0  0  0  0  0  0  0  0  0  0  0  0
  160.5570  206.5780  149.7680 C   0  0  0  0  0  2  0  0  0  0  0  0
  161.1340  207.2920  150.9550 C   0  0  0  0  0  3  0  0  0  0  0  0
  160.9080  204.1550  150.3770 C   0  0  2  0  0  3  0  0  0  0  0  0
  160.7120  205.4020  152.5520 C   0  0  1  0  0  3  0  0  0  0  0  0
  161.3230  205.2980  149.4550 C   0  0  0  0  0  2  0  0  0  0  0  0
  161.4880  204.3500  151.7730 C   0  0  0  0  0  2  0  0  0  0  0  0
  161.7120  207.4090  153.3770 C   0  0  2  0  0  3  0  0  0  0  0  0
  161.3940  206.5250  154.4900 N   0  0  0  0  0  2  0  0  0  0  0  0
  161.0210  205.2620  153.9730 N   0  0  0  0  0  2  0  0  0  0  0  0
  160.3080  201.7970  149.7470 C   0  0  0  0  0  2  0  0  0  0  0  0
  160.7420  202.4820  148.4690 C   0  0  2  0  0  0  0  0  0  0  0  0
  161.4250  202.8460  149.7820 C   0  0  1  0  0  3  0  0  0  0  0  0
  159.8650  203.4280  147.9280 O   0  0  0  0  0  1  0  0  0  0  0  0
  161.5610  201.7670  147.5790 O   0  0  0  0  0  0  0  0  0  0  0  0
  161.3240  202.2840  146.2940 C   0  0  1  0  0  3  0  0  0  0  0  0
  160.0650  201.6780  145.6730 C   0  0  0  0  0  2  0  0  0  0  0  0
  160.3900  200.6160  144.8230 O   0  0  0  0  0  0  0  0  0  0  0  0
  160.9760  199.6640  145.6580 C   0  0  0  0  0  1  0  0  0  0  0  0
  161.3280  203.8150  146.3000 C   0  0  0  0  0  2  0  0  0  0  0  0
  162.0530  205.7340  143.0030 C   0  0  0  0  0  1  0  0  0  0  0  0
  160.1050  205.5430  144.3450 O   0  0  0  0  0  0  0  0  0  0  0  0
  161.3120  205.2240  144.1840 C   0  0  0  0  0  0  0  0  0  0  0  0
  161.9810  204.3770  145.1200 N   0  0  0  0  0  2  0  0  0  0  0  0
  1 29  1  0  0  0  0
  2  4  1  0  0  0  0
  2  1  1  6  0  0  0
  3 10  1  6  0  0  0
  3  2  1  0  0  0  0
  3  4  1  0  0  0  0
  4 26  1  1  0  0  0
  5 10  1  0  0  0  0
  7  9  1  6  0  0  0
  7  8  1  0  0  0  0
  7  5  1  0  0  0  0
  8 14  1  1  0  0  0
  8  6  1  0  0  0  0
 10  6  1  6  0  0  0
 11  5  2  0  0  0  0
 12 13  1  0  0  0  0
 13  7  1  0  0  0  0
 14 15  1  0  0  0  0
 16 15  1  1  0  0  0
 16 22  1  0  0  0  0
 18 17  1  1  0  0  0
 18 16  1  0  0  0  0
 19 18  1  0  0  0  0
 20 21  1  0  0  0  0
 21 19  1  0  0  0  0
 22 25  1  0  0  0  0
 24 25  2  0  0  0  0
 25 23  1  0  0  0  0
 26 28  1  0  0  0  0
 28 27  1  0  0  0  0
 29 30  1  0  0  0  0
 30 31  2  0  0  0  0
 32 36  1  0  0  0  0
 32 39  1  0  0  0  0
 33 34  1  0  0  0  0
 34 32  2  0  0  0  0
 35 37  1  6  0  0  0
 35 38  1  0  0  0  0
 36 38  1  6  0  0  0
 36 41  1  0  0  0  0
 37 33  1  0  0  0  0
 39 30  1  1  0  0  0
 39 40  1  0  0  0  0
 41 40  1  0  0  0  0
 43 45  1  6  0  0  0
 43 42  1  0  0  0  0
 43 44  1  0  0  0  0
 44 42  1  1  0  0  0
 44 35  1  0  0  0  0
 46 43  1  0  0  0  0
 47 48  1  1  0  0  0
 47 51  1  0  0  0  0
 47 46  1  0  0  0  0
 49 50  1  0  0  0  0
 49 48  1  0  0  0  0
 52 54  1  0  0  0  0
 54 53  2  0  0  0  0
 54 55  1  0  0  0  0
 55 51  1  0  0  0  0
M  END
>  <MODEL>
2

>  <REMARK>
 VINA RESULT:      -2.0      3.942      9.552
  Name = 
  23 active torsions:
  status: ('A' for Active; 'I' for Inactive)
    1  A    between atoms: O_4  and  C_48
    2  A    between atoms: C_7  and  C_44
    3  A    between atoms: C_10  and  C_32
    4  A    between atoms: C_10  and  O_33
    5  A    between atoms: C_10  and  C_41
    6  A    between atoms: C_14  and  C_41
    7  A    between atoms: C_14  and  C_43
    8  A    between atoms: C_15  and  C_21
    9  A    between atoms: C_15  and  C_28
   10  A    between atoms: C_16  and  O_37
   11  A    between atoms: C_18  and  C_31
   12  A    between atoms: C_19  and  C_38
   13  A    between atoms: C_21  and  O_37
   14  A    between atoms: C_25  and  O_50
   15  A    between atoms: C_26  and  C_46
   16  A    between atoms: C_26  and  C_48
   17  A    between atoms: C_26  and  O_50
   18  A    between atoms: C_29  and  C_40
   19  A    between atoms: C_32  and  C_40
   20  A    between atoms: O_33  and  C_45
   21  A    between atoms: C_46  and  N_51
   22  A    between atoms: C_53  and  C_54
   23  A    between atoms: C_54  and  C_55
                            x       y       z     vdW  Elec       q    Type
                         _______ _______ _______ _____ _____    ______ ____

>  <TORSDO>
F 23

$$$$
