=
 OpenBabel11072410553D

 42 44  0  0  1  0  0  0  0  0999 V2000
  160.8290  207.3970  152.5510 C   0  0  1  0  0  3  0  0  0  0  0  0
  161.4630  208.0720  149.9590 O   0  0  0  0  0  0  0  0  0  0  0  0
  161.2230  209.0900  150.8710 N   0  0  0  0  0  2  0  0  0  0  0  0
  161.6380  208.6390  152.1970 C   0  0  0  0  0  2  0  0  0  0  0  0
  160.9580  206.3910  151.4980 N   0  0  0  0  0  0  0  0  0  0  0  0
  161.2200  206.7240  150.2680 C   0  0  0  0  0  0  0  0  0  0  0  0
  162.2860  204.7780  147.0950 C   0  0  1  0  0  3  0  0  0  0  0  0
  161.3430  205.6790  149.2240 C   0  0  0  0  0  0  0  0  0  0  0  0
  162.0570  205.8930  148.0910 C   0  0  0  0  0  0  0  0  0  0  0  0
  160.9430  201.8160  147.2850 C   0  0  0  0  0  0  0  0  0  0  0  0
  160.8630  202.0820  148.6970 N   0  0  0  0  0  2  0  0  0  0  0  0
  160.9670  204.2360  146.5240 C   0  0  2  0  0  3  0  0  0  0  0  0
  161.4920  203.1880  149.4090 C   0  0  0  0  0  2  0  0  0  0  0  0
  160.9980  202.7520  146.3270 C   0  0  0  0  0  3  0  0  0  0  0  0
  160.5740  204.3970  149.4340 C   0  0  0  0  0  2  0  0  0  0  0  0
  162.5870  207.1880  147.8090 N   0  0  0  0  0  1  0  0  0  0  0  0
  160.8680  200.3980  146.8460 C   0  0  0  0  0  1  0  0  0  0  0  0
  160.1280  206.3040  145.3700 O   0  0  0  0  0  1  0  0  0  0  0  0
  160.3650  204.3380  144.2170 O   0  0  0  0  0  0  0  0  0  0  0  0
  160.4810  204.9610  145.3050 C   0  0  0  0  0  0  0  0  0  0  0  0
  164.2390  204.2750  145.8530 O   0  0  0  0  0  0  0  0  0  0  0  0
  163.3460  205.0780  146.0720 C   0  0  0  0  0  3  0  0  0  0  0  0
  161.2880  206.8250  153.8820 C   0  0  0  0  0  2  0  0  0  0  0  0
  159.8460  207.0140  156.1560 S   0  0  0  0  0  0  0  0  0  0  0  0
  160.8080  207.6820  155.0050 C   0  0  0  0  0  0  0  0  0  0  0  0
  161.3220  209.0140  155.1420 N   0  0  0  0  0  2  0  0  0  0  0  0
  161.2800  209.7860  156.3810 C   0  0  0  0  0  2  0  0  0  0  0  0
  160.4500  211.0430  156.1950 C   0  0  0  0  0  2  0  0  0  0  0  0
  158.4060  211.8940  157.1070 C   0  0  0  0  0  3  0  0  0  0  0  0
  159.4170  211.1050  157.1990 N   0  0  0  0  0  0  0  0  0  0  0  0
  158.2130  212.8360  155.9480 C   0  0  0  0  0  2  0  0  0  0  0  0
  156.7920  212.8030  155.3850 C   0  0  2  0  0  3  0  0  0  0  0  0
  155.4000  211.7010  157.0000 O   0  0  0  0  0  1  0  0  0  0  0  0
  156.0060  211.6340  155.8980 C   0  0  0  0  0  0  0  0  0  0  0  0
  155.9230  210.4790  155.1330 O   0  0  0  0  0  0  0  0  0  0  0  0
  156.7770  212.9090  153.8610 C   0  0  0  0  0  2  0  0  0  0  0  0
  159.5650  214.3500  151.3110 S   0  0  0  0  0  0  0  0  0  0  0  0
  158.1750  213.1670  153.3150 C   0  0  2  0  0  3  0  0  0  0  0  0
  158.2070  214.4530  152.5150 C   0  0  0  0  0  2  0  0  0  0  0  0
  159.7760  212.5650  151.5930 C   0  0  0  0  0  2  0  0  0  0  0  0
  158.5800  212.0600  152.3720 C   0  0  1  0  0  3  0  0  0  0  0  0
  158.9390  210.9200  153.0930 O   0  0  0  0  0  1  0  0  0  0  0  0
  1 23  1  1  0  0  0
  2  6  1  0  0  0  0
  2  3  1  0  0  0  0
  3  4  1  0  0  0  0
  4  1  1  0  0  0  0
  5  1  1  0  0  0  0
  6  5  2  0  0  0  0
  7 22  1  6  0  0  0
  7  9  1  0  0  0  0
  8 15  1  0  0  0  0
  8  6  1  0  0  0  0
  9  8  2  0  0  0  0
 10 11  1  0  0  0  0
 11 13  1  0  0  0  0
 12 20  1  6  0  0  0
 12  7  1  0  0  0  0
 13 15  1  0  0  0  0
 14 12  1  0  0  0  0
 14 10  2  0  0  0  0
 16  9  1  0  0  0  0
 17 10  1  0  0  0  0
 19 20  2  0  0  0  0
 20 18  1  0  0  0  0
 21 22  2  0  0  0  0
 23 25  1  0  0  0  0
 25 26  1  0  0  0  0
 25 24  2  0  0  0  0
 26 27  1  0  0  0  0
 28 27  1  0  0  0  0
 28 30  1  0  0  0  0
 29 30  2  0  0  0  0
 31 29  1  0  0  0  0
 32 36  1  6  0  0  0
 32 34  1  0  0  0  0
 32 31  1  0  0  0  0
 34 33  1  0  0  0  0
 35 34  2  0  0  0  0
 37 40  1  0  0  0  0
 37 39  1  0  0  0  0
 38 36  1  6  0  0  0
 39 38  1  0  0  0  0
 40 41  1  0  0  0  0
 41 42  1  1  0  0  0
 41 38  1  0  0  0  0
M  END
>  <MODEL>
1

>  <REMARK>
 VINA RESULT:      -6.7      0.000      0.000
  Name = 
  14 active torsions:
  status: ('A' for Active; 'I' for Inactive)
    1  A    between atoms: C_3  and  C_10
    2  A    between atoms: C_3  and  C_16
    3  A    between atoms: C_4  and  C_7
    4  A    between atoms: C_4  and  N_27
    5  A    between atoms: C_5  and  C_20
    6  A    between atoms: C_7  and  N_18
    7  A    between atoms: C_8  and  C_41
    8  A    between atoms: C_9  and  C_23
    9  A    between atoms: C_10  and  C_36
   10  A    between atoms: C_10  and  C_40
   11  A    between atoms: C_12  and  C_40
   12  A    between atoms: C_22  and  C_23
   13  A    between atoms: C_22  and  N_27
   14  A    between atoms: C_29  and  C_37
                            x       y       z     vdW  Elec       q    Type
                         _______ _______ _______ _____ _____    ______ ____

>  <TORSDO>
F 14

$$$$
=
 OpenBabel11072410553D

 42 44  0  0  1  0  0  0  0  0999 V2000
  162.3680  210.0870  149.2410 C   0  0  1  0  0  3  0  0  0  0  0  0
  160.8820  212.1750  150.2470 O   0  0  0  0  0  0  0  0  0  0  0  0
  161.4780  212.3220  149.0020 N   0  0  0  0  0  2  0  0  0  0  0  0
  161.5430  211.0140  148.3560 C   0  0  0  0  0  2  0  0  0  0  0  0
  161.8270  210.0700  150.5990 N   0  0  0  0  0  0  0  0  0  0  0  0
  161.1580  211.0770  151.0780 C   0  0  0  0  0  0  0  0  0  0  0  0
  160.8980  210.7990  154.9310 C   0  0  1  0  0  3  0  0  0  0  0  0
  160.6250  211.0280  152.4600 C   0  0  0  0  0  0  0  0  0  0  0  0
  161.4200  210.7180  153.5130 C   0  0  0  0  0  0  0  0  0  0  0  0
  157.8040  211.4300  155.7350 C   0  0  0  0  0  0  0  0  0  0  0  0
  157.7410  212.0930  154.4590 N   0  0  0  0  0  2  0  0  0  0  0  0
  159.7090  209.8540  155.1620 C   0  0  2  0  0  3  0  0  0  0  0  0
  158.8660  212.4060  153.5870 C   0  0  0  0  0  2  0  0  0  0  0  0
  158.6680  210.4550  156.0550 C   0  0  0  0  0  3  0  0  0  0  0  0
  159.1420  211.2540  152.6380 C   0  0  0  0  0  2  0  0  0  0  0  0
  162.7630  210.2870  153.2990 N   0  0  0  0  0  1  0  0  0  0  0  0
  156.7770  211.7870  156.7480 C   0  0  0  0  0  1  0  0  0  0  0  0
  160.0240  208.0970  156.9280 O   0  0  0  0  0  1  0  0  0  0  0  0
  160.5180  207.6500  154.7350 O   0  0  0  0  0  0  0  0  0  0  0  0
  160.0960  208.4720  155.5910 C   0  0  0  0  0  0  0  0  0  0  0  0
  161.9160  211.4690  156.9620 O   0  0  0  0  0  0  0  0  0  0  0  0
  161.9700  210.7410  155.9840 C   0  0  0  0  0  3  0  0  0  0  0  0
  162.3880  208.6810  148.6660 C   0  0  0  0  0  2  0  0  0  0  0  0
  160.4140  206.9140  149.1860 S   0  0  0  0  0  0  0  0  0  0  0  0
  161.7740  207.7210  149.6290 C   0  0  0  0  0  0  0  0  0  0  0  0
  162.4680  207.4050  150.8450 N   0  0  0  0  0  2  0  0  0  0  0  0
  161.8320  206.8180  152.0220 C   0  0  0  0  0  2  0  0  0  0  0  0
  162.2290  205.3600  152.1670 C   0  0  0  0  0  2  0  0  0  0  0  0
  160.6990  203.7960  151.1930 C   0  0  0  0  0  3  0  0  0  0  0  0
  161.0500  204.5300  152.1900 N   0  0  0  0  0  0  0  0  0  0  0  0
  161.4790  203.7470  149.9060 C   0  0  0  0  0  2  0  0  0  0  0  0
  160.7770  202.9350  148.8170 C   0  0  2  0  0  3  0  0  0  0  0  0
  161.2370  200.7400  149.6720 O   0  0  0  0  0  1  0  0  0  0  0  0
  160.3710  201.5750  149.2960 C   0  0  0  0  0  0  0  0  0  0  0  0
  159.0240  201.2460  149.3550 O   0  0  0  0  0  0  0  0  0  0  0  0
  161.5870  202.8930  147.5220 C   0  0  0  0  0  2  0  0  0  0  0  0
  161.1230  205.1070  144.1690 S   0  0  0  0  0  0  0  0  0  0  0  0
  161.3660  204.1530  146.6960 C   0  0  2  0  0  3  0  0  0  0  0  0
  160.6980  203.8170  145.3770 C   0  0  0  0  0  2  0  0  0  0  0  0
  162.4220  205.7880  145.2460 C   0  0  0  0  0  2  0  0  0  0  0  0
  162.6890  204.7970  146.3580 C   0  0  1  0  0  3  0  0  0  0  0  0
  163.1960  205.4700  147.4720 O   0  0  0  0  0  1  0  0  0  0  0  0
  1 23  1  6  0  0  0
  1  5  1  0  0  0  0
  2  6  1  0  0  0  0
  3  2  1  0  0  0  0
  4  3  1  0  0  0  0
  4  1  1  0  0  0  0
  5  6  2  0  0  0  0
  6  8  1  0  0  0  0
  7 12  1  0  0  0  0
  7 22  1  1  0  0  0
  8 15  1  0  0  0  0
  8  9  2  0  0  0  0
  9  7  1  0  0  0  0
 10 14  2  0  0  0  0
 10 17  1  0  0  0  0
 11 10  1  0  0  0  0
 12 20  1  1  0  0  0
 12 14  1  0  0  0  0
 13 11  1  0  0  0  0
 15 13  1  0  0  0  0
 16  9  1  0  0  0  0
 19 20  2  0  0  0  0
 20 18  1  0  0  0  0
 22 21  2  0  0  0  0
 23 25  1  0  0  0  0
 24 25  2  0  0  0  0
 25 26  1  0  0  0  0
 26 27  1  0  0  0  0
 27 28  1  0  0  0  0
 28 30  1  0  0  0  0
 29 30  2  0  0  0  0
 31 29  1  0  0  0  0
 32 36  1  6  0  0  0
 32 34  1  0  0  0  0
 32 31  1  0  0  0  0
 34 35  2  0  0  0  0
 34 33  1  0  0  0  0
 37 40  1  0  0  0  0
 37 39  1  0  0  0  0
 38 36  1  1  0  0  0
 39 38  1  0  0  0  0
 40 41  1  0  0  0  0
 41 38  1  0  0  0  0
 41 42  1  1  0  0  0
M  END
>  <MODEL>
2

>  <REMARK>
 VINA RESULT:      -6.4      3.366      9.866
  Name = 
  14 active torsions:
  status: ('A' for Active; 'I' for Inactive)
    1  A    between atoms: C_3  and  C_10
    2  A    between atoms: C_3  and  C_16
    3  A    between atoms: C_4  and  C_7
    4  A    between atoms: C_4  and  N_27
    5  A    between atoms: C_5  and  C_20
    6  A    between atoms: C_7  and  N_18
    7  A    between atoms: C_8  and  C_41
    8  A    between atoms: C_9  and  C_23
    9  A    between atoms: C_10  and  C_36
   10  A    between atoms: C_10  and  C_40
   11  A    between atoms: C_12  and  C_40
   12  A    between atoms: C_22  and  C_23
   13  A    between atoms: C_22  and  N_27
   14  A    between atoms: C_29  and  C_37
                            x       y       z     vdW  Elec       q    Type
                         _______ _______ _______ _____ _____    ______ ____

>  <TORSDO>
F 14

$$$$
=
 OpenBabel11072410553D

 42 44  0  0  1  0  0  0  0  0999 V2000
  161.2730  207.5890  151.8850 C   0  0  1  0  0  3  0  0  0  0  0  0
  161.3900  204.8390  151.8180 O   0  0  0  0  0  0  0  0  0  0  0  0
  161.4920  205.4800  153.0450 N   0  0  0  0  0  2  0  0  0  0  0  0
  160.7100  206.7130  152.9970 C   0  0  0  0  0  2  0  0  0  0  0  0
  161.3160  206.8450  150.6270 N   0  0  0  0  0  0  0  0  0  0  0  0
  161.4090  205.5480  150.6060 C   0  0  0  0  0  0  0  0  0  0  0  0
  162.3250  204.4760  147.0000 C   0  0  1  0  0  3  0  0  0  0  0  0
  161.4520  204.8250  149.3130 C   0  0  0  0  0  0  0  0  0  0  0  0
  162.1820  205.2880  148.2690 C   0  0  0  0  0  0  0  0  0  0  0  0
  160.7510  201.6880  146.3960 C   0  0  0  0  0  0  0  0  0  0  0  0
  160.6900  201.5600  147.8280 N   0  0  0  0  0  2  0  0  0  0  0  0
  160.9690  204.2150  146.3280 C   0  0  2  0  0  3  0  0  0  0  0  0
  161.4020  202.3760  148.8040 C   0  0  0  0  0  2  0  0  0  0  0  0
  160.8830  202.8440  145.7300 C   0  0  0  0  0  3  0  0  0  0  0  0
  160.5830  203.5980  149.1780 C   0  0  0  0  0  2  0  0  0  0  0  0
  162.8140  206.5650  148.3430 N   0  0  0  0  0  1  0  0  0  0  0  0
  160.5660  200.4550  145.5860 C   0  0  0  0  0  1  0  0  0  0  0  0
  160.0650  206.5030  145.8240 O   0  0  0  0  0  1  0  0  0  0  0  0
  160.5950  205.0580  144.1270 O   0  0  0  0  0  0  0  0  0  0  0  0
  160.5440  205.2820  145.3650 C   0  0  0  0  0  0  0  0  0  0  0  0
  163.9750  204.1880  145.3250 O   0  0  0  0  0  0  0  0  0  0  0  0
  163.4080  204.9640  146.0780 C   0  0  0  0  0  3  0  0  0  0  0  0
  160.4350  208.8460  151.7230 C   0  0  0  0  0  2  0  0  0  0  0  0
  161.4110  209.3320  154.1930 S   0  0  0  0  0  0  0  0  0  0  0  0
  160.8140  209.8550  152.7550 C   0  0  0  0  0  0  0  0  0  0  0  0
  160.8000  211.2490  152.4140 N   0  0  0  0  0  2  0  0  0  0  0  0
  159.5930  212.0690  152.3650 C   0  0  0  0  0  2  0  0  0  0  0  0
  159.8340  213.3170  151.5340 C   0  0  0  0  0  2  0  0  0  0  0  0
  159.1360  213.6880  149.2740 C   0  0  0  0  0  3  0  0  0  0  0  0
  158.8380  213.4160  150.4960 N   0  0  0  0  0  0  0  0  0  0  0  0
  160.5480  213.9390  148.8180 C   0  0  0  0  0  2  0  0  0  0  0  0
  160.9800  213.0100  147.6830 C   0  0  2  0  0  3  0  0  0  0  0  0
  161.9580  210.9580  148.4540 O   0  0  0  0  0  1  0  0  0  0  0  0
  162.1410  212.1440  148.0700 C   0  0  0  0  0  0  0  0  0  0  0  0
  163.4300  212.6480  147.9730 O   0  0  0  0  0  0  0  0  0  0  0  0
  161.2110  213.7690  146.3780 C   0  0  0  0  0  2  0  0  0  0  0  0
  162.1370  212.5720  142.6270 S   0  0  0  0  0  0  0  0  0  0  0  0
  161.3030  212.8130  145.1960 C   0  0  2  0  0  3  0  0  0  0  0  0
  162.4780  213.1720  144.3090 C   0  0  0  0  0  2  0  0  0  0  0  0
  160.3880  212.2550  143.0180 C   0  0  0  0  0  2  0  0  0  0  0  0
  160.0660  212.9220  144.3380 C   0  0  1  0  0  3  0  0  0  0  0  0
  158.9980  212.2590  144.9480 O   0  0  0  0  0  1  0  0  0  0  0  0
  1 23  1  6  0  0  0
  1  4  1  0  0  0  0
  2  3  1  0  0  0  0
  4  3  1  0  0  0  0
  5  1  1  0  0  0  0
  6  5  2  0  0  0  0
  6  2  1  0  0  0  0
  7 22  1  6  0  0  0
  7  9  1  0  0  0  0
  8  6  1  0  0  0  0
  9 16  1  0  0  0  0
  9  8  2  0  0  0  0
 10 11  1  0  0  0  0
 11 13  1  0  0  0  0
 12 20  1  6  0  0  0
 12  7  1  0  0  0  0
 13 15  1  0  0  0  0
 14 12  1  0  0  0  0
 14 10  2  0  0  0  0
 15  8  1  0  0  0  0
 17 10  1  0  0  0  0
 19 20  2  0  0  0  0
 20 18  1  0  0  0  0
 21 22  2  0  0  0  0
 23 25  1  0  0  0  0
 25 24  2  0  0  0  0
 26 25  1  0  0  0  0
 27 26  1  0  0  0  0
 28 27  1  0  0  0  0
 29 30  2  0  0  0  0
 30 28  1  0  0  0  0
 31 29  1  0  0  0  0
 32 36  1  6  0  0  0
 32 34  1  0  0  0  0
 32 31  1  0  0  0  0
 34 33  1  0  0  0  0
 35 34  2  0  0  0  0
 37 40  1  0  0  0  0
 37 39  1  0  0  0  0
 38 36  1  1  0  0  0
 39 38  1  0  0  0  0
 40 41  1  0  0  0  0
 41 42  1  1  0  0  0
 41 38  1  0  0  0  0
M  END
>  <MODEL>
3

>  <REMARK>
 VINA RESULT:      -6.3      3.585      5.471
  Name = 
  14 active torsions:
  status: ('A' for Active; 'I' for Inactive)
    1  A    between atoms: C_3  and  C_10
    2  A    between atoms: C_3  and  C_16
    3  A    between atoms: C_4  and  C_7
    4  A    between atoms: C_4  and  N_27
    5  A    between atoms: C_5  and  C_20
    6  A    between atoms: C_7  and  N_18
    7  A    between atoms: C_8  and  C_41
    8  A    between atoms: C_9  and  C_23
    9  A    between atoms: C_10  and  C_36
   10  A    between atoms: C_10  and  C_40
   11  A    between atoms: C_12  and  C_40
   12  A    between atoms: C_22  and  C_23
   13  A    between atoms: C_22  and  N_27
   14  A    between atoms: C_29  and  C_37
                            x       y       z     vdW  Elec       q    Type
                         _______ _______ _______ _____ _____    ______ ____

>  <TORSDO>
F 14

$$$$
=
 OpenBabel11072410553D

 42 44  0  0  1  0  0  0  0  0999 V2000
  160.8690  207.1890  152.7210 C   0  0  1  0  0  3  0  0  0  0  0  0
  161.3150  207.9700  150.1190 O   0  0  0  0  0  0  0  0  0  0  0  0
  161.0510  208.9450  151.0700 N   0  0  0  0  0  2  0  0  0  0  0  0
  161.5670  208.4950  152.3610 C   0  0  0  0  0  2  0  0  0  0  0  0
  161.0130  206.2210  151.6350 N   0  0  0  0  0  0  0  0  0  0  0  0
  161.1860  206.6010  150.4030 C   0  0  0  0  0  0  0  0  0  0  0  0
  162.3150  204.7630  147.1880 C   0  0  1  0  0  3  0  0  0  0  0  0
  161.3280  205.5930  149.3260 C   0  0  0  0  0  0  0  0  0  0  0  0
  162.0680  205.8430  148.2180 C   0  0  0  0  0  0  0  0  0  0  0  0
  160.9540  201.8030  147.2430 C   0  0  0  0  0  0  0  0  0  0  0  0
  160.8440  202.0190  148.6620 N   0  0  0  0  0  2  0  0  0  0  0  0
  161.0070  204.2480  146.5680 C   0  0  2  0  0  3  0  0  0  0  0  0
  161.4610  203.0960  149.4260 C   0  0  0  0  0  2  0  0  0  0  0  0
  161.0360  202.7710  146.3200 C   0  0  0  0  0  3  0  0  0  0  0  0
  160.5480  204.3080  149.4730 C   0  0  0  0  0  2  0  0  0  0  0  0
  162.6100  207.1440  147.9940 N   0  0  0  0  0  1  0  0  0  0  0  0
  160.8840  200.4010  146.7530 C   0  0  0  0  0  1  0  0  0  0  0  0
  160.0810  206.3200  145.4910 O   0  0  0  0  0  1  0  0  0  0  0  0
  160.5700  204.4680  144.2330 O   0  0  0  0  0  0  0  0  0  0  0  0
  160.5520  205.0180  145.3660 C   0  0  0  0  0  0  0  0  0  0  0  0
  164.0650  204.2040  145.6930 O   0  0  0  0  0  0  0  0  0  0  0  0
  163.4000  205.0930  146.2000 C   0  0  0  0  0  3  0  0  0  0  0  0
  161.4370  206.6210  154.0100 C   0  0  0  0  0  2  0  0  0  0  0  0
  159.3170  207.2850  155.5440 S   0  0  0  0  0  0  0  0  0  0  0  0
  160.9170  207.3810  155.1840 C   0  0  0  0  0  0  0  0  0  0  0  0
  161.8410  208.0440  156.0580 N   0  0  0  0  0  2  0  0  0  0  0  0
  161.9600  209.4950  156.1770 C   0  0  0  0  0  2  0  0  0  0  0  0
  160.8290  210.1820  155.4330 C   0  0  0  0  0  2  0  0  0  0  0  0
  160.6240  211.6220  153.5310 C   0  0  0  0  0  3  0  0  0  0  0  0
  161.3660  211.0420  154.4070 N   0  0  0  0  0  0  0  0  0  0  0  0
  159.1300  211.4470  153.4870 C   0  0  0  0  0  2  0  0  0  0  0  0
  158.3850  212.7610  153.2490 C   0  0  2  0  0  3  0  0  0  0  0  0
  157.7340  212.8710  150.9410 O   0  0  0  0  0  0  0  0  0  0  0  0
  158.5320  213.2500  151.8400 C   0  0  0  0  0  0  0  0  0  0  0  0
  159.5400  214.1520  151.5320 O   0  0  0  0  0  1  0  0  0  0  0  0
  158.7470  213.8210  154.2890 C   0  0  0  0  0  2  0  0  0  0  0  0
  156.0850  213.1430  157.2570 S   0  0  0  0  0  0  0  0  0  0  0  0
  157.5670  214.1160  155.2050 C   0  0  2  0  0  3  0  0  0  0  0  0
  157.7320  213.4040  156.5340 C   0  0  0  0  0  2  0  0  0  0  0  0
  155.2520  213.5770  155.6980 C   0  0  0  0  0  2  0  0  0  0  0  0
  156.2880  213.5980  154.5940 C   0  0  1  0  0  3  0  0  0  0  0  0
  155.8630  214.4500  153.5720 O   0  0  0  0  0  1  0  0  0  0  0  0
  1 23  1  1  0  0  0
  2  6  1  0  0  0  0
  2  3  1  0  0  0  0
  3  4  1  0  0  0  0
  4  1  1  0  0  0  0
  5  1  1  0  0  0  0
  6  5  2  0  0  0  0
  7 22  1  6  0  0  0
  7  9  1  0  0  0  0
  8 15  1  0  0  0  0
  8  6  1  0  0  0  0
  9  8  2  0  0  0  0
 10 11  1  0  0  0  0
 11 13  1  0  0  0  0
 12 20  1  6  0  0  0
 12  7  1  0  0  0  0
 13 15  1  0  0  0  0
 14 12  1  0  0  0  0
 14 10  2  0  0  0  0
 16  9  1  0  0  0  0
 17 10  1  0  0  0  0
 19 20  2  0  0  0  0
 20 18  1  0  0  0  0
 21 22  2  0  0  0  0
 23 25  1  0  0  0  0
 25 24  2  0  0  0  0
 25 26  1  0  0  0  0
 26 27  1  0  0  0  0
 28 27  1  0  0  0  0
 29 30  2  0  0  0  0
 30 28  1  0  0  0  0
 31 29  1  0  0  0  0
 32 31  1  6  0  0  0
 32 36  1  0  0  0  0
 33 34  2  0  0  0  0
 34 32  1  0  0  0  0
 35 34  1  0  0  0  0
 38 36  1  6  0  0  0
 38 39  1  0  0  0  0
 39 37  1  0  0  0  0
 40 37  1  0  0  0  0
 41 42  1  6  0  0  0
 41 38  1  0  0  0  0
 41 40  1  0  0  0  0
M  END
>  <MODEL>
4

>  <REMARK>
 VINA RESULT:      -6.1      1.763      2.711
  Name = 
  14 active torsions:
  status: ('A' for Active; 'I' for Inactive)
    1  A    between atoms: C_3  and  C_10
    2  A    between atoms: C_3  and  C_16
    3  A    between atoms: C_4  and  C_7
    4  A    between atoms: C_4  and  N_27
    5  A    between atoms: C_5  and  C_20
    6  A    between atoms: C_7  and  N_18
    7  A    between atoms: C_8  and  C_41
    8  A    between atoms: C_9  and  C_23
    9  A    between atoms: C_10  and  C_36
   10  A    between atoms: C_10  and  C_40
   11  A    between atoms: C_12  and  C_40
   12  A    between atoms: C_22  and  C_23
   13  A    between atoms: C_22  and  N_27
   14  A    between atoms: C_29  and  C_37
                            x       y       z     vdW  Elec       q    Type
                         _______ _______ _______ _____ _____    ______ ____

>  <TORSDO>
F 14

$$$$
=
 OpenBabel11072410553D

 42 44  0  0  1  0  0  0  0  0999 V2000
  161.5160  208.3250  151.9270 C   0  0  1  0  0  3  0  0  0  0  0  0
  161.5240  211.0590  151.5960 O   0  0  0  0  0  0  0  0  0  0  0  0
  162.5590  210.3180  151.0430 N   0  0  0  0  0  2  0  0  0  0  0  0
  162.0470  209.0020  150.6690 C   0  0  0  0  0  2  0  0  0  0  0  0
  160.5440  209.1900  152.5960 N   0  0  0  0  0  0  0  0  0  0  0  0
  160.5800  210.4840  152.4630 C   0  0  0  0  0  0  0  0  0  0  0  0
  158.8680  212.8500  155.0040 C   0  0  1  0  0  3  0  0  0  0  0  0
  159.5810  211.3310  153.1550 C   0  0  0  0  0  0  0  0  0  0  0  0
  159.8400  211.8810  154.3670 C   0  0  0  0  0  0  0  0  0  0  0  0
  155.9310  213.5900  153.8030 C   0  0  0  0  0  0  0  0  0  0  0  0
  156.4960  213.2130  152.5340 N   0  0  0  0  0  2  0  0  0  0  0  0
  157.4940  212.2100  155.2500 C   0  0  2  0  0  3  0  0  0  0  0  0
  157.9020  212.9530  152.2530 C   0  0  0  0  0  2  0  0  0  0  0  0
  156.3670  213.1640  154.9980 C   0  0  0  0  0  3  0  0  0  0  0  0
  158.2320  211.4910  152.4950 C   0  0  0  0  0  2  0  0  0  0  0  0
  161.0300  211.5340  155.0750 N   0  0  0  0  0  1  0  0  0  0  0  0
  154.7170  214.4470  153.7900 C   0  0  0  0  0  1  0  0  0  0  0  0
  158.3870  210.7030  157.0500 O   0  0  0  0  0  0  0  0  0  0  0  0
  156.3090  211.6500  157.2440 O   0  0  0  0  0  1  0  0  0  0  0  0
  157.3650  211.5160  156.5720 C   0  0  0  0  0  0  0  0  0  0  0  0
  158.7920  213.7250  157.2040 O   0  0  0  0  0  0  0  0  0  0  0  0
  159.4350  213.6070  156.1730 C   0  0  0  0  0  3  0  0  0  0  0  0
  160.8800  206.9890  151.5840 C   0  0  0  0  0  2  0  0  0  0  0  0
  161.3410  206.4300  154.1850 S   0  0  0  0  0  0  0  0  0  0  0  0
  161.2380  205.9680  152.6120 C   0  0  0  0  0  0  0  0  0  0  0  0
  161.3250  204.5880  152.2310 N   0  0  0  0  0  2  0  0  0  0  0  0
  160.4590  203.9550  151.2400 C   0  0  0  0  0  2  0  0  0  0  0  0
  161.0970  202.6800  150.7170 C   0  0  0  0  0  2  0  0  0  0  0  0
  160.2930  201.5580  148.7610 C   0  0  0  0  0  3  0  0  0  0  0  0
  160.1230  201.9060  149.9880 N   0  0  0  0  0  0  0  0  0  0  0  0
  161.5160  201.9360  147.9700 C   0  0  0  0  0  2  0  0  0  0  0  0
  161.1790  202.5130  146.5940 C   0  0  2  0  0  3  0  0  0  0  0  0
  159.8190  201.8290  144.7380 O   0  0  0  0  0  0  0  0  0  0  0  0
  160.5830  201.4860  145.6800 C   0  0  0  0  0  0  0  0  0  0  0  0
  160.9040  200.1470  145.8560 O   0  0  0  0  0  1  0  0  0  0  0  0
  162.3670  203.2460  145.9740 C   0  0  0  0  0  2  0  0  0  0  0  0
  161.3300  206.8030  147.5970 S   0  0  0  0  0  0  0  0  0  0  0  0
  162.1700  204.7550  146.0300 C   0  0  2  0  0  3  0  0  0  0  0  0
  162.2730  205.2550  147.4580 C   0  0  0  0  0  2  0  0  0  0  0  0
  160.5340  206.5470  145.9800 C   0  0  0  0  0  2  0  0  0  0  0  0
  160.7890  205.1210  145.5430 C   0  0  1  0  0  3  0  0  0  0  0  0
  160.7340  205.0430  144.1490 O   0  0  0  0  0  1  0  0  0  0  0  0
  1 23  1  6  0  0  0
  1  5  1  0  0  0  0
  2  6  1  0  0  0  0
  3  2  1  0  0  0  0
  4  3  1  0  0  0  0
  4  1  1  0  0  0  0
  6  5  2  0  0  0  0
  6  8  1  0  0  0  0
  7 12  1  0  0  0  0
  7 22  1  1  0  0  0
  8  9  2  0  0  0  0
  9  7  1  0  0  0  0
  9 16  1  0  0  0  0
 10 14  2  0  0  0  0
 11 10  1  0  0  0  0
 12 20  1  1  0  0  0
 13 15  1  0  0  0  0
 13 11  1  0  0  0  0
 14 12  1  0  0  0  0
 15  8  1  0  0  0  0
 17 10  1  0  0  0  0
 20 18  2  0  0  0  0
 20 19  1  0  0  0  0
 22 21  2  0  0  0  0
 23 25  1  0  0  0  0
 25 24  2  0  0  0  0
 26 25  1  0  0  0  0
 27 26  1  0  0  0  0
 28 27  1  0  0  0  0
 29 30  2  0  0  0  0
 30 28  1  0  0  0  0
 31 29  1  0  0  0  0
 32 36  1  6  0  0  0
 32 31  1  0  0  0  0
 33 34  2  0  0  0  0
 34 35  1  0  0  0  0
 34 32  1  0  0  0  0
 38 36  1  1  0  0  0
 38 39  1  0  0  0  0
 39 37  1  0  0  0  0
 40 37  1  0  0  0  0
 41 42  1  6  0  0  0
 41 40  1  0  0  0  0
 41 38  1  0  0  0  0
M  END
>  <MODEL>
5

>  <REMARK>
 VINA RESULT:      -5.7      2.436     10.958
  Name = 
  14 active torsions:
  status: ('A' for Active; 'I' for Inactive)
    1  A    between atoms: C_3  and  C_10
    2  A    between atoms: C_3  and  C_16
    3  A    between atoms: C_4  and  C_7
    4  A    between atoms: C_4  and  N_27
    5  A    between atoms: C_5  and  C_20
    6  A    between atoms: C_7  and  N_18
    7  A    between atoms: C_8  and  C_41
    8  A    between atoms: C_9  and  C_23
    9  A    between atoms: C_10  and  C_36
   10  A    between atoms: C_10  and  C_40
   11  A    between atoms: C_12  and  C_40
   12  A    between atoms: C_22  and  C_23
   13  A    between atoms: C_22  and  N_27
   14  A    between atoms: C_29  and  C_37
                            x       y       z     vdW  Elec       q    Type
                         _______ _______ _______ _____ _____    ______ ____

>  <TORSDO>
F 14

$$$$
=
 OpenBabel11072410553D

 42 44  0  0  1  0  0  0  0  0999 V2000
  160.9770  207.3630  155.0900 C   0  0  1  0  0  3  0  0  0  0  0  0
  160.1170  209.4830  156.6220 O   0  0  0  0  0  0  0  0  0  0  0  0
  160.4890  208.3090  157.2610 N   0  0  0  0  0  2  0  0  0  0  0  0
  161.5370  207.6590  156.4770 C   0  0  0  0  0  2  0  0  0  0  0  0
  160.4350  208.5820  154.4920 N   0  0  0  0  0  0  0  0  0  0  0  0
  159.9960  209.5630  155.2250 C   0  0  0  0  0  0  0  0  0  0  0  0
  158.6020  213.1310  154.6630 C   0  0  1  0  0  3  0  0  0  0  0  0
  159.4520  210.7840  154.5870 C   0  0  0  0  0  0  0  0  0  0  0  0
  159.0320  211.8410  155.3260 C   0  0  0  0  0  0  0  0  0  0  0  0
  158.3240  213.5610  151.4460 C   0  0  0  0  0  0  0  0  0  0  0  0
  159.2890  212.4980  151.3490 N   0  0  0  0  0  2  0  0  0  0  0  0
  157.4050  212.9250  153.7240 C   0  0  2  0  0  3  0  0  0  0  0  0
  160.0610  211.9230  152.4440 C   0  0  0  0  0  2  0  0  0  0  0  0
  157.5010  213.7620  152.4850 C   0  0  0  0  0  3  0  0  0  0  0  0
  159.3050  210.7730  153.0840 C   0  0  0  0  0  2  0  0  0  0  0  0
  158.9680  211.7430  156.7480 N   0  0  0  0  0  1  0  0  0  0  0  0
  158.1610  214.4530  150.2680 C   0  0  0  0  0  1  0  0  0  0  0  0
  155.2930  214.1920  154.2180 O   0  0  0  0  0  0  0  0  0  0  0  0
  155.6600  212.1280  155.1420 O   0  0  0  0  0  1  0  0  0  0  0  0
  156.0700  213.0520  154.3920 C   0  0  0  0  0  0  0  0  0  0  0  0
  159.2670  214.4320  156.5280 O   0  0  0  0  0  0  0  0  0  0  0  0
  158.4760  214.2940  155.6090 C   0  0  0  0  0  3  0  0  0  0  0  0
  162.0550  206.7750  154.1960 C   0  0  0  0  0  2  0  0  0  0  0  0
  160.8730  204.7240  152.8980 S   0  0  0  0  0  0  0  0  0  0  0  0
  161.4530  206.2610  152.9310 C   0  0  0  0  0  0  0  0  0  0  0  0
  161.2500  207.1600  151.8330 N   0  0  0  0  0  2  0  0  0  0  0  0
  162.3260  207.8600  151.1360 C   0  0  0  0  0  2  0  0  0  0  0  0
  162.3250  207.4980  149.6620 C   0  0  0  0  0  2  0  0  0  0  0  0
  160.7340  206.6630  148.0790 C   0  0  0  0  0  3  0  0  0  0  0  0
  160.9900  207.1560  149.2400 N   0  0  0  0  0  0  0  0  0  0  0  0
  161.8030  206.4110  147.0500 C   0  0  0  0  0  2  0  0  0  0  0  0
  161.6900  205.0310  146.4010 C   0  0  2  0  0  3  0  0  0  0  0  0
  162.0240  205.9440  144.2070 O   0  0  0  0  0  0  0  0  0  0  0  0
  161.4090  205.1170  144.9320 C   0  0  0  0  0  0  0  0  0  0  0  0
  160.4850  204.2530  144.3610 O   0  0  0  0  0  1  0  0  0  0  0  0
  160.7060  204.1280  147.1440 C   0  0  0  0  0  2  0  0  0  0  0  0
  161.5690  200.1870  147.4310 S   0  0  0  0  0  0  0  0  0  0  0  0
  161.4000  202.8820  147.6780 C   0  0  2  0  0  3  0  0  0  0  0  0
  161.4610  201.8060  146.6120 C   0  0  0  0  0  2  0  0  0  0  0  0
  161.1400  200.8980  149.0510 C   0  0  0  0  0  2  0  0  0  0  0  0
  160.6210  202.3030  148.8330 C   0  0  1  0  0  3  0  0  0  0  0  0
  160.8320  203.0630  149.9860 O   0  0  0  0  0  1  0  0  0  0  0  0
  1 23  1  6  0  0  0
  1  4  1  0  0  0  0
  2  3  1  0  0  0  0
  4  3  1  0  0  0  0
  5  1  1  0  0  0  0
  5  6  2  0  0  0  0
  6  2  1  0  0  0  0
  7  9  1  0  0  0  0
  7 22  1  1  0  0  0
  8  6  1  0  0  0  0
  8  9  2  0  0  0  0
  9 16  1  0  0  0  0
 10 14  2  0  0  0  0
 11 10  1  0  0  0  0
 11 13  1  0  0  0  0
 12 20  1  1  0  0  0
 12  7  1  0  0  0  0
 13 15  1  0  0  0  0
 14 12  1  0  0  0  0
 15  8  1  0  0  0  0
 17 10  1  0  0  0  0
 18 20  2  0  0  0  0
 20 19  1  0  0  0  0
 22 21  2  0  0  0  0
 24 25  2  0  0  0  0
 25 23  1  0  0  0  0
 26 25  1  0  0  0  0
 27 26  1  0  0  0  0
 28 27  1  0  0  0  0
 29 30  2  0  0  0  0
 30 28  1  0  0  0  0
 31 29  1  0  0  0  0
 32 31  1  1  0  0  0
 32 36  1  0  0  0  0
 33 34  2  0  0  0  0
 34 32  1  0  0  0  0
 35 34  1  0  0  0  0
 37 40  1  0  0  0  0
 38 36  1  6  0  0  0
 38 41  1  0  0  0  0
 39 37  1  0  0  0  0
 39 38  1  0  0  0  0
 41 40  1  0  0  0  0
 41 42  1  1  0  0  0
M  END
>  <MODEL>
6

>  <REMARK>
 VINA RESULT:      -5.4      2.703     10.662
  Name = 
  14 active torsions:
  status: ('A' for Active; 'I' for Inactive)
    1  A    between atoms: C_3  and  C_10
    2  A    between atoms: C_3  and  C_16
    3  A    between atoms: C_4  and  C_7
    4  A    between atoms: C_4  and  N_27
    5  A    between atoms: C_5  and  C_20
    6  A    between atoms: C_7  and  N_18
    7  A    between atoms: C_8  and  C_41
    8  A    between atoms: C_9  and  C_23
    9  A    between atoms: C_10  and  C_36
   10  A    between atoms: C_10  and  C_40
   11  A    between atoms: C_12  and  C_40
   12  A    between atoms: C_22  and  C_23
   13  A    between atoms: C_22  and  N_27
   14  A    between atoms: C_29  and  C_37
                            x       y       z     vdW  Elec       q    Type
                         _______ _______ _______ _____ _____    ______ ____

>  <TORSDO>
F 14

$$$$
=
 OpenBabel11072410553D

 42 44  0  0  1  0  0  0  0  0999 V2000
  162.0320  209.9740  149.0280 C   0  0  1  0  0  3  0  0  0  0  0  0
  161.3180  212.2920  150.3310 O   0  0  0  0  0  0  0  0  0  0  0  0
  161.9430  212.3890  149.0970 N   0  0  0  0  0  2  0  0  0  0  0  0
  161.5750  211.2270  148.2910 C   0  0  0  0  0  2  0  0  0  0  0  0
  161.4990  209.9650  150.3900 N   0  0  0  0  0  0  0  0  0  0  0  0
  161.2010  211.0680  151.0110 C   0  0  0  0  0  0  0  0  0  0  0  0
  160.9310  210.7940  154.8630 C   0  0  1  0  0  3  0  0  0  0  0  0
  160.6640  211.0230  152.3910 C   0  0  0  0  0  0  0  0  0  0  0  0
  161.4550  210.7080  153.4470 C   0  0  0  0  0  0  0  0  0  0  0  0
  157.8410  211.4500  155.6610 C   0  0  0  0  0  0  0  0  0  0  0  0
  157.7860  212.1130  154.3850 N   0  0  0  0  0  2  0  0  0  0  0  0
  159.7340  209.8590  155.0920 C   0  0  2  0  0  3  0  0  0  0  0  0
  158.9150  212.4170  153.5150 C   0  0  0  0  0  2  0  0  0  0  0  0
  158.6960  210.4690  155.9840 C   0  0  0  0  0  3  0  0  0  0  0  0
  159.1830  211.2620  152.5670 C   0  0  0  0  0  2  0  0  0  0  0  0
  162.7950  210.2660  153.2350 N   0  0  0  0  0  1  0  0  0  0  0  0
  156.8150  211.8170  156.6730 C   0  0  0  0  0  1  0  0  0  0  0  0
  160.5010  207.5210  154.5900 O   0  0  0  0  0  0  0  0  0  0  0  0
  160.0400  208.1620  156.7410 O   0  0  0  0  0  1  0  0  0  0  0  0
  160.1090  208.4740  155.5230 C   0  0  0  0  0  0  0  0  0  0  0  0
  161.7600  211.0690  157.0650 O   0  0  0  0  0  0  0  0  0  0  0  0
  162.0000  210.7270  155.9180 C   0  0  0  0  0  3  0  0  0  0  0  0
  161.5880  208.7270  148.2830 C   0  0  0  0  0  2  0  0  0  0  0  0
  162.3330  207.3740  150.4970 S   0  0  0  0  0  0  0  0  0  0  0  0
  162.2420  207.5180  148.8630 C   0  0  0  0  0  0  0  0  0  0  0  0
  162.6300  206.4430  147.9960 N   0  0  0  0  0  2  0  0  0  0  0  0
  162.3390  206.4000  146.5650 C   0  0  0  0  0  2  0  0  0  0  0  0
  160.9670  205.7980  146.3210 C   0  0  0  0  0  2  0  0  0  0  0  0
  161.5030  203.5710  145.6220 C   0  0  0  0  0  3  0  0  0  0  0  0
  161.0590  204.7450  145.3400 N   0  0  0  0  0  0  0  0  0  0  0  0
  161.9800  203.1920  146.9980 C   0  0  0  0  0  2  0  0  0  0  0  0
  161.2110  202.0090  147.5890 C   0  0  2  0  0  3  0  0  0  0  0  0
  161.5840  199.7910  146.7510 O   0  0  0  0  0  1  0  0  0  0  0  0
  161.0170  200.9050  146.5940 C   0  0  0  0  0  0  0  0  0  0  0  0
  160.1790  201.1070  145.5060 O   0  0  0  0  0  0  0  0  0  0  0  0
  159.9070  202.4480  148.2540 C   0  0  0  0  0  2  0  0  0  0  0  0
  161.4440  204.0380  151.6410 S   0  0  0  0  0  0  0  0  0  0  0  0
  160.0930  202.6350  149.7540 C   0  0  2  0  0  3  0  0  0  0  0  0
  160.5380  204.0500  150.0650 C   0  0  0  0  0  2  0  0  0  0  0  0
  161.5640  202.2220  151.6390 C   0  0  0  0  0  2  0  0  0  0  0  0
  161.1780  201.7190  150.2650 C   0  0  1  0  0  3  0  0  0  0  0  0
  160.6970  200.4110  150.3650 O   0  0  0  0  0  1  0  0  0  0  0  0
  1 23  1  6  0  0  0
  1  5  1  0  0  0  0
  2  6  1  0  0  0  0
  3  2  1  0  0  0  0
  4  1  1  0  0  0  0
  4  3  1  0  0  0  0
  5  6  2  0  0  0  0
  6  8  1  0  0  0  0
  7 12  1  0  0  0  0
  7 22  1  1  0  0  0
  8 15  1  0  0  0  0
  8  9  2  0  0  0  0
  9  7  1  0  0  0  0
 10 14  2  0  0  0  0
 10 17  1  0  0  0  0
 11 10  1  0  0  0  0
 12 20  1  1  0  0  0
 12 14  1  0  0  0  0
 13 11  1  0  0  0  0
 15 13  1  0  0  0  0
 16  9  1  0  0  0  0
 18 20  2  0  0  0  0
 20 19  1  0  0  0  0
 22 21  2  0  0  0  0
 23 25  1  0  0  0  0
 25 24  2  0  0  0  0
 26 25  1  0  0  0  0
 27 26  1  0  0  0  0
 28 27  1  0  0  0  0
 29 31  1  0  0  0  0
 30 29  2  0  0  0  0
 30 28  1  0  0  0  0
 32 31  1  6  0  0  0
 32 36  1  0  0  0  0
 34 33  1  0  0  0  0
 34 32  1  0  0  0  0
 35 34  2  0  0  0  0
 38 36  1  6  0  0  0
 38 39  1  0  0  0  0
 38 41  1  0  0  0  0
 39 37  1  0  0  0  0
 40 37  1  0  0  0  0
 41 42  1  1  0  0  0
 41 40  1  0  0  0  0
M  END
>  <MODEL>
7

>  <REMARK>
 VINA RESULT:      -4.6      3.000     10.651
  Name = 
  14 active torsions:
  status: ('A' for Active; 'I' for Inactive)
    1  A    between atoms: C_3  and  C_10
    2  A    between atoms: C_3  and  C_16
    3  A    between atoms: C_4  and  C_7
    4  A    between atoms: C_4  and  N_27
    5  A    between atoms: C_5  and  C_20
    6  A    between atoms: C_7  and  N_18
    7  A    between atoms: C_8  and  C_41
    8  A    between atoms: C_9  and  C_23
    9  A    between atoms: C_10  and  C_36
   10  A    between atoms: C_10  and  C_40
   11  A    between atoms: C_12  and  C_40
   12  A    between atoms: C_22  and  C_23
   13  A    between atoms: C_22  and  N_27
   14  A    between atoms: C_29  and  C_37
                            x       y       z     vdW  Elec       q    Type
                         _______ _______ _______ _____ _____    ______ ____

>  <TORSDO>
F 14

$$$$
=
 OpenBabel11072410553D

 42 44  0  0  1  0  0  0  0  0999 V2000
  161.2290  206.7630  154.1760 C   0  0  1  0  0  3  0  0  0  0  0  0
  159.9270  208.2840  156.0660 O   0  0  0  0  0  0  0  0  0  0  0  0
  160.2860  206.9840  156.3910 N   0  0  0  0  0  2  0  0  0  0  0  0
  161.5090  206.6400  155.6690 C   0  0  0  0  0  2  0  0  0  0  0  0
  160.6910  208.0880  153.8690 N   0  0  0  0  0  0  0  0  0  0  0  0
  160.0450  208.7830  154.7580 C   0  0  0  0  0  0  0  0  0  0  0  0
  158.9680  212.4960  154.9620 C   0  0  1  0  0  3  0  0  0  0  0  0
  159.5120  210.1220  154.4130 C   0  0  0  0  0  0  0  0  0  0  0  0
  159.3870  211.0950  155.3490 C   0  0  0  0  0  0  0  0  0  0  0  0
  158.0340  213.3940  151.9720 C   0  0  0  0  0  0  0  0  0  0  0  0
  158.8300  212.2800  151.5280 N   0  0  0  0  0  2  0  0  0  0  0  0
  157.5770  212.5220  154.3110 C   0  0  2  0  0  3  0  0  0  0  0  0
  159.7560  211.4970  152.3360 C   0  0  0  0  0  2  0  0  0  0  0  0
  157.4890  213.5140  153.1920 C   0  0  0  0  0  3  0  0  0  0  0  0
  159.0360  210.3340  152.9950 C   0  0  0  0  0  2  0  0  0  0  0  0
  159.6280  210.8040  156.7250 N   0  0  0  0  0  1  0  0  0  0  0  0
  157.7160  214.4530  150.9790 C   0  0  0  0  0  1  0  0  0  0  0  0
  155.7360  213.8540  155.3810 O   0  0  0  0  0  0  0  0  0  0  0  0
  156.1520  211.6990  156.0400 O   0  0  0  0  0  1  0  0  0  0  0  0
  156.4450  212.6630  155.2830 C   0  0  0  0  0  0  0  0  0  0  0  0
  160.1620  213.4560  156.7690 O   0  0  0  0  0  0  0  0  0  0  0  0
  159.1840  213.5210  156.0410 C   0  0  0  0  0  3  0  0  0  0  0  0
  162.4950  206.5120  153.3750 C   0  0  0  0  0  2  0  0  0  0  0  0
  162.4690  207.3060  150.7950 S   0  0  0  0  0  0  0  0  0  0  0  0
  162.1540  206.1900  151.9580 C   0  0  0  0  0  0  0  0  0  0  0  0
  161.7140  204.8660  151.6240 N   0  0  0  0  0  2  0  0  0  0  0  0
  160.5050  204.2450  152.1590 C   0  0  0  0  0  2  0  0  0  0  0  0
  160.1560  202.9980  151.3670 C   0  0  0  0  0  2  0  0  0  0  0  0
  161.4320  201.4200  150.0960 C   0  0  0  0  0  3  0  0  0  0  0  0
  161.3530  202.2480  151.0780 N   0  0  0  0  0  0  0  0  0  0  0  0
  160.2790  201.1480  149.1670 C   0  0  0  0  0  2  0  0  0  0  0  0
  160.5400  201.6280  147.7390 C   0  0  2  0  0  3  0  0  0  0  0  0
  161.7330  199.5920  147.2990 O   0  0  0  0  0  1  0  0  0  0  0  0
  161.0100  200.5200  146.8460 C   0  0  0  0  0  0  0  0  0  0  0  0
  160.6180  200.5030  145.5150 O   0  0  0  0  0  0  0  0  0  0  0  0
  161.4550  202.8510  147.7030 C   0  0  0  0  0  2  0  0  0  0  0  0
  161.2480  205.2860  144.4810 S   0  0  0  0  0  0  0  0  0  0  0  0
  160.8810  203.9390  146.8050 C   0  0  2  0  0  3  0  0  0  0  0  0
  161.2640  203.6940  145.3590 C   0  0  0  0  0  2  0  0  0  0  0  0
  161.1500  206.2250  146.0370 C   0  0  0  0  0  2  0  0  0  0  0  0
  161.4530  205.2840  147.1820 C   0  0  1  0  0  3  0  0  0  0  0  0
  160.8460  205.7560  148.3480 O   0  0  0  0  0  1  0  0  0  0  0  0
  1 23  1  6  0  0  0
  1  4  1  0  0  0  0
  2  3  1  0  0  0  0
  4  3  1  0  0  0  0
  5  1  1  0  0  0  0
  5  6  2  0  0  0  0
  6  2  1  0  0  0  0
  7  9  1  0  0  0  0
  7 22  1  1  0  0  0
  8  6  1  0  0  0  0
  8  9  2  0  0  0  0
  9 16  1  0  0  0  0
 10 14  2  0  0  0  0
 11 10  1  0  0  0  0
 11 13  1  0  0  0  0
 12  7  1  0  0  0  0
 12 20  1  1  0  0  0
 13 15  1  0  0  0  0
 14 12  1  0  0  0  0
 15  8  1  0  0  0  0
 17 10  1  0  0  0  0
 20 18  2  0  0  0  0
 20 19  1  0  0  0  0
 22 21  2  0  0  0  0
 24 25  2  0  0  0  0
 25 23  1  0  0  0  0
 26 25  1  0  0  0  0
 26 27  1  0  0  0  0
 28 27  1  0  0  0  0
 29 30  2  0  0  0  0
 30 28  1  0  0  0  0
 31 29  1  0  0  0  0
 32 36  1  1  0  0  0
 32 31  1  0  0  0  0
 34 33  1  0  0  0  0
 34 32  1  0  0  0  0
 35 34  2  0  0  0  0
 37 39  1  0  0  0  0
 37 40  1  0  0  0  0
 38 41  1  0  0  0  0
 38 36  1  1  0  0  0
 39 38  1  0  0  0  0
 40 41  1  0  0  0  0
 41 42  1  1  0  0  0
M  END
>  <MODEL>
8

>  <REMARK>
 VINA RESULT:      -4.5      2.942     10.745
  Name = 
  14 active torsions:
  status: ('A' for Active; 'I' for Inactive)
    1  A    between atoms: C_3  and  C_10
    2  A    between atoms: C_3  and  C_16
    3  A    between atoms: C_4  and  C_7
    4  A    between atoms: C_4  and  N_27
    5  A    between atoms: C_5  and  C_20
    6  A    between atoms: C_7  and  N_18
    7  A    between atoms: C_8  and  C_41
    8  A    between atoms: C_9  and  C_23
    9  A    between atoms: C_10  and  C_36
   10  A    between atoms: C_10  and  C_40
   11  A    between atoms: C_12  and  C_40
   12  A    between atoms: C_22  and  C_23
   13  A    between atoms: C_22  and  N_27
   14  A    between atoms: C_29  and  C_37
                            x       y       z     vdW  Elec       q    Type
                         _______ _______ _______ _____ _____    ______ ____

>  <TORSDO>
F 14

$$$$
=
 OpenBabel11072410553D

 42 44  0  0  1  0  0  0  0  0999 V2000
  161.2720  209.6180  150.9760 C   0  0  1  0  0  3  0  0  0  0  0  0
  161.7620  209.1150  148.3140 O   0  0  0  0  0  0  0  0  0  0  0  0
  161.5950  210.4310  148.7230 N   0  0  0  0  0  2  0  0  0  0  0  0
  162.0810  210.5620  150.0940 C   0  0  0  0  0  2  0  0  0  0  0  0
  161.3190  208.2590  150.4400 N   0  0  0  0  0  0  0  0  0  0  0  0
  161.5130  208.0330  149.1740 C   0  0  0  0  0  0  0  0  0  0  0  0
  162.4070  204.8760  147.1180 C   0  0  1  0  0  3  0  0  0  0  0  0
  161.5540  206.6420  148.6630 C   0  0  0  0  0  0  0  0  0  0  0  0
  162.2640  206.3180  147.5550 C   0  0  0  0  0  0  0  0  0  0  0  0
  160.8790  202.3570  148.5090 C   0  0  0  0  0  0  0  0  0  0  0  0
  160.8370  203.1930  149.6800 N   0  0  0  0  0  2  0  0  0  0  0  0
  161.0480  204.2310  146.8070 C   0  0  2  0  0  3  0  0  0  0  0  0
  161.5450  204.4520  149.8730 C   0  0  0  0  0  2  0  0  0  0  0  0
  160.9810  202.8010  147.2480 C   0  0  0  0  0  3  0  0  0  0  0  0
  160.7070  205.6170  149.3780 C   0  0  0  0  0  2  0  0  0  0  0  0
  162.8720  207.3390  146.7650 N   0  0  0  0  0  1  0  0  0  0  0  0
  160.7080  200.8930  148.7010 C   0  0  0  0  0  1  0  0  0  0  0  0
  160.5280  205.6760  144.8200 O   0  0  0  0  0  1  0  0  0  0  0  0
  160.2370  203.4060  144.7200 O   0  0  0  0  0  0  0  0  0  0  0  0
  160.5920  204.4100  145.3910 C   0  0  0  0  0  0  0  0  0  0  0  0
  164.5370  204.1450  146.3840 O   0  0  0  0  0  0  0  0  0  0  0  0
  163.4700  204.6530  146.0780 C   0  0  0  0  0  3  0  0  0  0  0  0
  161.8010  209.6390  152.4010 C   0  0  0  0  0  2  0  0  0  0  0  0
  160.0780  211.7180  152.4310 S   0  0  0  0  0  0  0  0  0  0  0  0
  161.2660  210.8250  153.1320 C   0  0  0  0  0  0  0  0  0  0  0  0
  161.6810  211.0630  154.4840 N   0  0  0  0  0  2  0  0  0  0  0  0
  162.9950  210.7060  155.0130 C   0  0  0  0  0  2  0  0  0  0  0  0
  162.9490  210.6180  156.5280 C   0  0  0  0  0  2  0  0  0  0  0  0
  161.5390  208.8250  157.2540 C   0  0  0  0  0  3  0  0  0  0  0  0
  162.7080  209.2560  156.9350 N   0  0  0  0  0  0  0  0  0  0  0  0
  160.3170  209.7040  157.2450 C   0  0  0  0  0  2  0  0  0  0  0  0
  159.1850  209.1400  156.3860 C   0  0  2  0  0  3  0  0  0  0  0  0
  159.0840  206.7550  156.1250 O   0  0  0  0  0  1  0  0  0  0  0  0
  159.5650  207.8490  155.7240 C   0  0  0  0  0  0  0  0  0  0  0  0
  160.4310  207.8670  154.6400 O   0  0  0  0  0  0  0  0  0  0  0  0
  158.6400  210.1750  155.4040 C   0  0  0  0  0  2  0  0  0  0  0  0
  155.9240  213.1100  156.0110 S   0  0  0  0  0  0  0  0  0  0  0  0
  157.9590  211.3220  156.1380 C   0  0  2  0  0  3  0  0  0  0  0  0
  156.4930  211.4010  155.7630 C   0  0  0  0  0  2  0  0  0  0  0  0
  157.6270  213.7260  156.1920 C   0  0  0  0  0  2  0  0  0  0  0  0
  158.5790  212.6400  155.7390 C   0  0  1  0  0  3  0  0  0  0  0  0
  159.8120  212.8040  156.3740 O   0  0  0  0  0  1  0  0  0  0  0  0
  1 23  1  1  0  0  0
  2  3  1  0  0  0  0
  2  6  1  0  0  0  0
  3  4  1  0  0  0  0
  4  1  1  0  0  0  0
  5  1  1  0  0  0  0
  6  5  2  0  0  0  0
  7 22  1  6  0  0  0
  7  9  1  0  0  0  0
  8  6  1  0  0  0  0
  8 15  1  0  0  0  0
  9  8  2  0  0  0  0
 10 17  1  0  0  0  0
 10 11  1  0  0  0  0
 11 13  1  0  0  0  0
 12 20  1  6  0  0  0
 12  7  1  0  0  0  0
 12 14  1  0  0  0  0
 14 10  2  0  0  0  0
 15 13  1  0  0  0  0
 16  9  1  0  0  0  0
 18 20  1  0  0  0  0
 19 20  2  0  0  0  0
 22 21  2  0  0  0  0
 23 25  1  0  0  0  0
 24 25  2  0  0  0  0
 25 26  1  0  0  0  0
 26 27  1  0  0  0  0
 27 28  1  0  0  0  0
 28 30  1  0  0  0  0
 30 29  2  0  0  0  0
 31 29  1  0  0  0  0
 32 36  1  6  0  0  0
 32 31  1  0  0  0  0
 34 33  1  0  0  0  0
 34 32  1  0  0  0  0
 35 34  2  0  0  0  0
 37 40  1  0  0  0  0
 38 36  1  6  0  0  0
 39 37  1  0  0  0  0
 39 38  1  0  0  0  0
 41 38  1  0  0  0  0
 41 40  1  0  0  0  0
 41 42  1  1  0  0  0
M  END
>  <MODEL>
9

>  <REMARK>
 VINA RESULT:      -4.2      2.262      3.200
  Name = 
  14 active torsions:
  status: ('A' for Active; 'I' for Inactive)
    1  A    between atoms: C_3  and  C_10
    2  A    between atoms: C_3  and  C_16
    3  A    between atoms: C_4  and  C_7
    4  A    between atoms: C_4  and  N_27
    5  A    between atoms: C_5  and  C_20
    6  A    between atoms: C_7  and  N_18
    7  A    between atoms: C_8  and  C_41
    8  A    between atoms: C_9  and  C_23
    9  A    between atoms: C_10  and  C_36
   10  A    between atoms: C_10  and  C_40
   11  A    between atoms: C_12  and  C_40
   12  A    between atoms: C_22  and  C_23
   13  A    between atoms: C_22  and  N_27
   14  A    between atoms: C_29  and  C_37
                            x       y       z     vdW  Elec       q    Type
                         _______ _______ _______ _____ _____    ______ ____

>  <TORSDO>
F 14

$$$$
