=
 OpenBabel11072410083D

 43 46  0  0  1  0  0  0  0  0999 V2000
  161.1860  207.6180  153.8910 C   0  0  0  0  0  0  0  0  0  0  0  0
  161.2930  208.2390  152.6320 C   0  0  0  0  0  0  0  0  0  0  0  0
  161.1560  205.4470  152.8150 C   0  0  0  0  0  3  0  0  0  0  0  0
  161.2610  206.0540  151.5600 C   0  0  0  0  0  0  0  0  0  0  0  0
  161.1400  208.3930  155.0840 N   0  0  0  0  0  1  0  0  0  0  0  0
  161.1180  206.2240  153.9750 C   0  0  0  0  0  3  0  0  0  0  0  0
  161.3330  207.4540  151.4730 C   0  0  0  0  0  3  0  0  0  0  0  0
  161.3120  205.1900  150.3370 C   0  0  2  0  0  3  0  0  0  0  0  0
  161.3230  207.0550  148.2940 S   0  0  0  0  0  1  0  0  0  0  0  0
  160.4390  205.7690  149.2220 C   0  0  0  0  0  2  0  0  0  0  0  0
  161.0240  203.7320  150.6620 C   0  0  0  0  0  0  0  0  0  0  0  0
  161.9470  202.9840  151.2700 C   0  0  0  0  0  2  0  0  0  0  0  0
  160.0530  202.2410  148.7760 C   0  0  2  0  0  3  0  0  0  0  0  0
  159.8190  203.0060  150.0930 C   0  0  1  0  0  3  0  0  0  0  0  0
  159.9750  201.4940  150.0980 C   0  0  0  0  0  2  0  0  0  0  0  0
  162.1840  201.1460  148.5790 F   0  0  0  0  0  0  0  0  0  0  0  0
  161.4890  202.2960  148.2390 C   0  0  1  0  0  3  0  0  0  0  0  0
  160.5430  201.6040  145.9870 C   0  0  0  0  0  1  0  0  0  0  0  0
  161.5430  202.4900  146.7170 C   0  0  1  0  0  3  0  0  0  0  0  0
  162.5160  205.5530  145.1680 C   0  0  0  0  0  2  0  0  0  0  0  0
  161.4310  203.9450  146.2460 C   0  0  1  0  0  3  0  0  0  0  0  0
  162.6810  204.5670  146.1560 O   0  0  0  0  0  0  0  0  0  0  0  0
  161.4320  205.1870  144.2600 N   0  0  0  0  0  2  0  0  0  0  0  0
  160.7800  204.0640  144.8990 C   0  0  0  0  0  2  0  0  0  0  0  0
  161.3950  209.7220  152.5080 C   0  0  0  0  0  2  0  0  0  0  0  0
  160.0060  210.3370  152.4700 C   0  0  0  0  0  2  0  0  0  0  0  0
  160.0890  211.7060  152.0940 O   0  0  0  0  0  0  0  0  0  0  0  0
  158.7710  213.5780  151.5790 N   0  0  0  0  0  0  0  0  0  0  0  0
  159.1490  212.6890  152.4530 C   0  0  0  0  0  0  0  0  0  0  0  0
  159.2340  213.7010  150.2270 C   0  0  0  0  0  0  0  0  0  0  0  0
  158.4220  213.5050  149.1920 C   0  0  0  0  0  3  0  0  0  0  0  0
  161.6780  214.1730  147.4540 C   0  0  0  0  0  1  0  0  0  0  0  0
  160.5440  214.0980  148.3580 N   0  0  0  0  0  0  0  0  0  0  0  0
  159.2250  213.7330  148.0090 C   0  0  0  0  0  0  0  0  0  0  0  0
  160.6370  214.0730  149.8060 C   0  0  0  0  0  2  0  0  0  0  0  0
  158.8180  213.6150  146.8250 O   0  0  0  0  0  0  0  0  0  0  0  0
  157.4300  211.9160  154.1420 N   0  0  0  0  0  2  0  0  0  0  0  0
  158.5450  212.7470  153.8040 C   0  0  0  0  0  0  0  0  0  0  0  0
  158.9960  213.5670  154.6480 O   0  0  0  0  0  0  0  0  0  0  0  0
  157.8720  211.5710  156.8970 O   0  0  0  0  0  1  0  0  0  0  0  0
  156.0380  213.4500  156.0490 O   0  0  0  0  0  1  0  0  0  0  0  0
  155.6040  210.8790  155.7930 O   0  0  0  0  0  0  0  0  0  0  0  0
  156.6970  211.9230  155.7350 P   0  0  0  0  0  0  0  0  0  0  0  0
  1  6  1  0  0  0  0
  1  5  1  0  0  0  0
  2  1  2  0  0  0  0
  3  6  2  0  0  0  0
  4  3  1  0  0  0  0
  7  4  2  0  0  0  0
  7  2  1  0  0  0  0
  8 10  1  6  0  0  0
  8 11  1  0  0  0  0
  8  4  1  0  0  0  0
  9 10  1  0  0  0  0
 11 12  2  0  0  0  0
 13 17  1  1  0  0  0
 13 14  1  0  0  0  0
 13 15  1  0  0  0  0
 14 15  1  0  0  0  0
 14 11  1  1  0  0  0
 17 16  1  6  0  0  0
 19 18  1  6  0  0  0
 19 17  1  0  0  0  0
 20 22  1  0  0  0  0
 21 19  1  6  0  0  0
 22 21  1  0  0  0  0
 23 24  1  0  0  0  0
 23 20  1  0  0  0  0
 24 21  1  0  0  0  0
 25  2  1  0  0  0  0
 26 25  1  0  0  0  0
 27 29  1  0  0  0  0
 27 26  1  0  0  0  0
 28 29  2  0  0  0  0
 29 38  1  0  0  0  0
 30 28  1  0  0  0  0
 31 30  2  0  0  0  0
 32 33  1  0  0  0  0
 33 35  1  0  0  0  0
 34 33  1  0  0  0  0
 34 31  1  0  0  0  0
 35 30  1  0  0  0  0
 36 34  2  0  0  0  0
 37 43  1  0  0  0  0
 38 37  1  0  0  0  0
 38 39  2  0  0  0  0
 43 42  2  0  0  0  0
 43 41  1  0  0  0  0
 43 40  1  0  0  0  0
M  END
>  <MODEL>
1

>  <REMARK>
 VINA RESULT:      -7.7      0.000      0.000
  Name = 
  14 active torsions:
  status: ('A' for Active; 'I' for Inactive)
    1  A    between atoms: O_1  and  C_24
    2  A    between atoms: O_1  and  C_35
    3  A    between atoms: C_2  and  N_14
    4  A    between atoms: C_4  and  C_43
    5  A    between atoms: C_6  and  C_29
    6  A    between atoms: C_9  and  C_29
    7  A    between atoms: C_13  and  C_30
    8  A    between atoms: C_17  and  C_22
    9  A    between atoms: C_19  and  C_25
   10  A    between atoms: C_22  and  C_30
   11  A    between atoms: C_24  and  C_36
   12  A    between atoms: C_25  and  C_29
   13  A    between atoms: N_33  and  P_38
   14  A    between atoms: C_35  and  C_43
                            x       y       z     vdW  Elec       q    Type
                         _______ _______ _______ _____ _____    ______ ____

>  <TORSDO>
F 14

$$$$
=
 OpenBabel11072410083D

 43 46  0  0  1  0  0  0  0  0999 V2000
  161.0570  208.6690  154.5550 C   0  0  0  0  0  0  0  0  0  0  0  0
  161.0790  209.1340  153.2270 C   0  0  0  0  0  0  0  0  0  0  0  0
  160.9680  206.3840  153.7530 C   0  0  0  0  0  3  0  0  0  0  0  0
  160.9880  206.8360  152.4300 C   0  0  0  0  0  0  0  0  0  0  0  0
  161.0850  209.5820  155.6470 N   0  0  0  0  0  1  0  0  0  0  0  0
  161.0020  207.2960  154.8110 C   0  0  0  0  0  3  0  0  0  0  0  0
  161.0470  208.2150  152.1700 C   0  0  0  0  0  3  0  0  0  0  0  0
  160.9640  205.8310  151.3190 C   0  0  2  0  0  3  0  0  0  0  0  0
  161.3010  203.1700  151.9960 S   0  0  0  0  0  1  0  0  0  0  0  0
  162.0390  204.7620  151.5250 C   0  0  0  0  0  2  0  0  0  0  0  0
  161.0020  206.4980  149.9520 C   0  0  0  0  0  0  0  0  0  0  0  0
  159.9240  206.4780  149.1650 C   0  0  0  0  0  2  0  0  0  0  0  0
  162.5060  206.5970  147.8420 C   0  0  2  0  0  3  0  0  0  0  0  0
  162.3010  206.9660  149.3230 C   0  0  1  0  0  3  0  0  0  0  0  0
  162.0970  208.0080  148.2350 C   0  0  0  0  0  2  0  0  0  0  0  0
  160.6260  206.6510  146.3440 F   0  0  0  0  0  0  0  0  0  0  0  0
  161.3450  205.8290  147.1970 C   0  0  1  0  0  3  0  0  0  0  0  0
  163.1770  204.7900  145.7790 C   0  0  0  0  0  1  0  0  0  0  0  0
  161.8150  204.5870  146.4270 C   0  0  1  0  0  3  0  0  0  0  0  0
  160.5850  202.1270  148.7010 C   0  0  0  0  0  2  0  0  0  0  0  0
  161.7790  203.2790  147.2270 C   0  0  1  0  0  3  0  0  0  0  0  0
  161.0790  203.4150  148.4300 O   0  0  0  0  0  0  0  0  0  0  0  0
  160.4530  201.3620  147.4640 N   0  0  0  0  0  2  0  0  0  0  0  0
  161.1350  202.1570  146.4650 C   0  0  0  0  0  2  0  0  0  0  0  0
  161.1650  210.5900  152.9190 C   0  0  0  0  0  2  0  0  0  0  0  0
  159.8050  211.1110  152.4810 C   0  0  0  0  0  2  0  0  0  0  0  0
  159.9560  212.3360  151.7770 O   0  0  0  0  0  0  0  0  0  0  0  0
  158.8750  213.8100  150.3040 N   0  0  0  0  0  0  0  0  0  0  0  0
  158.8980  213.2080  151.4600 C   0  0  0  0  0  0  0  0  0  0  0  0
  159.8580  213.7070  149.2650 C   0  0  0  0  0  0  0  0  0  0  0  0
  161.0950  214.1680  149.4290 C   0  0  0  0  0  3  0  0  0  0  0  0
  161.2290  212.9490  145.8840 C   0  0  0  0  0  1  0  0  0  0  0  0
  160.9510  213.1950  147.2880 N   0  0  0  0  0  0  0  0  0  0  0  0
  161.7950  213.8730  148.1960 C   0  0  0  0  0  0  0  0  0  0  0  0
  159.6470  213.0710  147.9110 C   0  0  0  0  0  2  0  0  0  0  0  0
  162.9890  214.1830  147.9500 O   0  0  0  0  0  0  0  0  0  0  0  0
  157.7860  212.9070  153.7130 N   0  0  0  0  0  2  0  0  0  0  0  0
  157.7780  213.4610  152.3940 C   0  0  0  0  0  0  0  0  0  0  0  0
  156.7890  214.1400  152.0040 O   0  0  0  0  0  0  0  0  0  0  0  0
  155.0710  213.5610  154.0410 O   0  0  0  0  0  0  0  0  0  0  0  0
  156.2670  211.8220  155.8200 O   0  0  0  0  0  1  0  0  0  0  0  0
  156.8750  214.3690  155.7550 O   0  0  0  0  0  1  0  0  0  0  0  0
  156.5000  213.2010  154.8680 P   0  0  0  0  0  0  0  0  0  0  0  0
  1  6  1  0  0  0  0
  1  5  1  0  0  0  0
  2  1  2  0  0  0  0
  3  6  2  0  0  0  0
  4  3  1  0  0  0  0
  7  4  2  0  0  0  0
  7  2  1  0  0  0  0
  8 10  1  1  0  0  0
  8  4  1  0  0  0  0
 10  9  1  0  0  0  0
 11  8  1  0  0  0  0
 12 11  2  0  0  0  0
 13 17  1  6  0  0  0
 13 15  1  0  0  0  0
 13 14  1  0  0  0  0
 14 11  1  6  0  0  0
 15 14  1  0  0  0  0
 17 16  1  6  0  0  0
 19 18  1  1  0  0  0
 19 17  1  0  0  0  0
 21 19  1  6  0  0  0
 21 22  1  0  0  0  0
 22 20  1  0  0  0  0
 23 20  1  0  0  0  0
 24 21  1  0  0  0  0
 24 23  1  0  0  0  0
 25  2  1  0  0  0  0
 26 25  1  0  0  0  0
 27 26  1  0  0  0  0
 28 29  2  0  0  0  0
 29 27  1  0  0  0  0
 29 38  1  0  0  0  0
 30 31  2  0  0  0  0
 30 28  1  0  0  0  0
 32 33  1  0  0  0  0
 33 35  1  0  0  0  0
 33 34  1  0  0  0  0
 34 31  1  0  0  0  0
 35 30  1  0  0  0  0
 36 34  2  0  0  0  0
 37 43  1  0  0  0  0
 38 37  1  0  0  0  0
 39 38  2  0  0  0  0
 40 43  2  0  0  0  0
 43 42  1  0  0  0  0
 43 41  1  0  0  0  0
M  END
>  <MODEL>
2

>  <REMARK>
 VINA RESULT:      -7.1      2.162      3.156
  Name = 
  14 active torsions:
  status: ('A' for Active; 'I' for Inactive)
    1  A    between atoms: O_1  and  C_24
    2  A    between atoms: O_1  and  C_35
    3  A    between atoms: C_2  and  N_14
    4  A    between atoms: C_4  and  C_43
    5  A    between atoms: C_6  and  C_29
    6  A    between atoms: C_9  and  C_29
    7  A    between atoms: C_13  and  C_30
    8  A    between atoms: C_17  and  C_22
    9  A    between atoms: C_19  and  C_25
   10  A    between atoms: C_22  and  C_30
   11  A    between atoms: C_24  and  C_36
   12  A    between atoms: C_25  and  C_29
   13  A    between atoms: N_33  and  P_38
   14  A    between atoms: C_35  and  C_43
                            x       y       z     vdW  Elec       q    Type
                         _______ _______ _______ _____ _____    ______ ____

>  <TORSDO>
F 14

$$$$
=
 OpenBabel11072410083D

 43 46  0  0  1  0  0  0  0  0999 V2000
  161.0810  208.6940  154.2380 C   0  0  0  0  0  0  0  0  0  0  0  0
  160.8940  209.0920  152.9000 C   0  0  0  0  0  0  0  0  0  0  0  0
  161.1530  206.3760  153.5370 C   0  0  0  0  0  3  0  0  0  0  0  0
  160.9670  206.7610  152.2050 C   0  0  0  0  0  0  0  0  0  0  0  0
  161.1360  209.6590  155.2840 N   0  0  0  0  0  1  0  0  0  0  0  0
  161.2090  207.3380  154.5480 C   0  0  0  0  0  3  0  0  0  0  0  0
  160.8410  208.1230  151.8900 C   0  0  0  0  0  3  0  0  0  0  0  0
  160.9230  205.7050  151.1430 C   0  0  2  0  0  3  0  0  0  0  0  0
  161.1750  202.9700  151.4730 S   0  0  0  0  0  1  0  0  0  0  0  0
  161.9550  204.6090  151.4200 C   0  0  0  0  0  2  0  0  0  0  0  0
  161.0080  206.3030  149.7470 C   0  0  0  0  0  0  0  0  0  0  0  0
  160.2120  205.8520  148.7750 C   0  0  0  0  0  2  0  0  0  0  0  0
  162.5930  207.1180  147.8640 C   0  0  2  0  0  3  0  0  0  0  0  0
  162.1440  207.2200  149.3340 C   0  0  1  0  0  3  0  0  0  0  0  0
  161.7230  208.2760  148.3260 C   0  0  0  0  0  2  0  0  0  0  0  0
  160.8140  206.7670  146.2850 F   0  0  0  0  0  0  0  0  0  0  0  0
  161.8010  206.1190  147.0110 C   0  0  1  0  0  3  0  0  0  0  0  0
  163.9240  204.7510  146.7450 C   0  0  0  0  0  1  0  0  0  0  0  0
  162.6970  205.3240  146.0500 C   0  0  1  0  0  3  0  0  0  0  0  0
  160.3510  202.7330  145.3340 C   0  0  0  0  0  2  0  0  0  0  0  0
  161.9740  204.2430  145.2370 C   0  0  1  0  0  3  0  0  0  0  0  0
  161.4520  203.2320  146.0500 O   0  0  0  0  0  0  0  0  0  0  0  0
  159.8340  203.7490  144.4220 N   0  0  0  0  0  2  0  0  0  0  0  0
  160.8340  204.7960  144.4320 C   0  0  0  0  0  2  0  0  0  0  0  0
  160.7800  210.5320  152.5310 C   0  0  0  0  0  2  0  0  0  0  0  0
  159.4470  211.0880  153.0050 C   0  0  0  0  0  2  0  0  0  0  0  0
  158.8730  211.9060  151.9950 O   0  0  0  0  0  0  0  0  0  0  0  0
  157.6160  213.7440  151.2510 N   0  0  0  0  0  0  0  0  0  0  0  0
  158.0480  213.0180  152.2440 C   0  0  0  0  0  0  0  0  0  0  0  0
  157.9100  213.5540  149.8600 C   0  0  0  0  0  0  0  0  0  0  0  0
  157.0390  212.9770  149.0370 C   0  0  0  0  0  3  0  0  0  0  0  0
  159.9400  213.5730  146.7360 C   0  0  0  0  0  1  0  0  0  0  0  0
  158.9350  213.5970  147.7840 N   0  0  0  0  0  0  0  0  0  0  0  0
  157.6660  212.9780  147.7330 C   0  0  0  0  0  0  0  0  0  0  0  0
  159.1800  213.9810  149.1620 C   0  0  0  0  0  2  0  0  0  0  0  0
  157.1640  212.4890  146.6880 O   0  0  0  0  0  0  0  0  0  0  0  0
  156.6130  212.6520  154.2960 N   0  0  0  0  0  2  0  0  0  0  0  0
  157.6250  213.3960  153.6120 C   0  0  0  0  0  0  0  0  0  0  0  0
  158.1370  214.4100  154.1590 O   0  0  0  0  0  0  0  0  0  0  0  0
  155.2980  211.7080  156.5950 O   0  0  0  0  0  1  0  0  0  0  0  0
  157.4490  213.4140  156.8750 O   0  0  0  0  0  1  0  0  0  0  0  0
  155.1590  214.2240  155.8940 O   0  0  0  0  0  0  0  0  0  0  0  0
  156.0980  213.0380  155.9280 P   0  0  0  0  0  0  0  0  0  0  0  0
  1  6  1  0  0  0  0
  1  5  1  0  0  0  0
  2  1  2  0  0  0  0
  3  6  2  0  0  0  0
  4  3  1  0  0  0  0
  7  4  2  0  0  0  0
  7  2  1  0  0  0  0
  8 10  1  1  0  0  0
  8  4  1  0  0  0  0
 10  9  1  0  0  0  0
 11  8  1  0  0  0  0
 12 11  2  0  0  0  0
 13 17  1  6  0  0  0
 13 15  1  0  0  0  0
 13 14  1  0  0  0  0
 14 11  1  6  0  0  0
 15 14  1  0  0  0  0
 17 16  1  6  0  0  0
 19 18  1  1  0  0  0
 19 17  1  0  0  0  0
 20 22  1  0  0  0  0
 21 22  1  0  0  0  0
 21 19  1  1  0  0  0
 23 24  1  0  0  0  0
 23 20  1  0  0  0  0
 24 21  1  0  0  0  0
 25  2  1  0  0  0  0
 25 26  1  0  0  0  0
 27 29  1  0  0  0  0
 27 26  1  0  0  0  0
 28 29  2  0  0  0  0
 29 38  1  0  0  0  0
 30 28  1  0  0  0  0
 31 30  2  0  0  0  0
 32 33  1  0  0  0  0
 33 35  1  0  0  0  0
 34 33  1  0  0  0  0
 34 31  1  0  0  0  0
 35 30  1  0  0  0  0
 36 34  2  0  0  0  0
 37 43  1  0  0  0  0
 38 39  2  0  0  0  0
 38 37  1  0  0  0  0
 42 43  2  0  0  0  0
 43 40  1  0  0  0  0
 43 41  1  0  0  0  0
M  END
>  <MODEL>
3

>  <REMARK>
 VINA RESULT:      -6.7      2.017      2.814
  Name = 
  14 active torsions:
  status: ('A' for Active; 'I' for Inactive)
    1  A    between atoms: O_1  and  C_24
    2  A    between atoms: O_1  and  C_35
    3  A    between atoms: C_2  and  N_14
    4  A    between atoms: C_4  and  C_43
    5  A    between atoms: C_6  and  C_29
    6  A    between atoms: C_9  and  C_29
    7  A    between atoms: C_13  and  C_30
    8  A    between atoms: C_17  and  C_22
    9  A    between atoms: C_19  and  C_25
   10  A    between atoms: C_22  and  C_30
   11  A    between atoms: C_24  and  C_36
   12  A    between atoms: C_25  and  C_29
   13  A    between atoms: N_33  and  P_38
   14  A    between atoms: C_35  and  C_43
                            x       y       z     vdW  Elec       q    Type
                         _______ _______ _______ _____ _____    ______ ____

>  <TORSDO>
F 14

$$$$
=
 OpenBabel11072410083D

 43 46  0  0  1  0  0  0  0  0999 V2000
  160.8710  207.2200  154.3470 C   0  0  0  0  0  0  0  0  0  0  0  0
  161.0200  208.2710  153.4220 C   0  0  0  0  0  0  0  0  0  0  0  0
  160.9500  208.8150  156.1700 C   0  0  0  0  0  3  0  0  0  0  0  0
  161.0990  209.8650  155.2590 C   0  0  0  0  0  0  0  0  0  0  0  0
  160.7610  205.8710  153.9050 N   0  0  0  0  0  1  0  0  0  0  0  0
  160.8370  207.4980  155.7160 C   0  0  0  0  0  3  0  0  0  0  0  0
  161.1300  209.5890  153.8830 C   0  0  0  0  0  3  0  0  0  0  0  0
  161.2040  211.2670  155.7790 C   0  0  2  0  0  3  0  0  0  0  0  0
  163.5390  211.1840  157.2600 S   0  0  0  0  0  1  0  0  0  0  0  0
  161.7250  211.2790  157.2170 C   0  0  0  0  0  2  0  0  0  0  0  0
  159.9110  212.0430  155.5770 C   0  0  0  0  0  0  0  0  0  0  0  0
  159.8410  213.0010  154.6500 C   0  0  0  0  0  2  0  0  0  0  0  0
  157.3510  212.1460  155.9750 C   0  0  2  0  0  3  0  0  0  0  0  0
  158.7620  211.9580  156.5640 C   0  0  1  0  0  3  0  0  0  0  0  0
  157.8600  210.7570  156.3290 C   0  0  0  0  0  2  0  0  0  0  0  0
  157.1710  211.1540  153.7930 F   0  0  0  0  0  0  0  0  0  0  0  0
  157.3050  212.3630  154.4570 C   0  0  1  0  0  3  0  0  0  0  0  0
  155.6910  214.1880  155.1740 C   0  0  0  0  0  1  0  0  0  0  0  0
  156.1700  213.3050  154.0300 C   0  0  1  0  0  3  0  0  0  0  0  0
  157.2100  214.0190  150.6930 C   0  0  0  0  0  2  0  0  0  0  0  0
  156.4590  214.1410  152.7780 C   0  0  1  0  0  3  0  0  0  0  0  0
  157.4860  213.5910  152.0030 O   0  0  0  0  0  0  0  0  0  0  0  0
  155.7850  214.3030  150.5410 N   0  0  0  0  0  2  0  0  0  0  0  0
  155.2590  214.2780  151.8880 C   0  0  0  0  0  2  0  0  0  0  0  0
  161.0340  208.0120  151.9540 C   0  0  0  0  0  2  0  0  0  0  0  0
  162.4360  208.2130  151.4030 C   0  0  0  0  0  2  0  0  0  0  0  0
  162.4840  207.8250  150.0360 O   0  0  0  0  0  0  0  0  0  0  0  0
  161.5110  208.0140  147.9090 N   0  0  0  0  0  0  0  0  0  0  0  0
  161.9910  208.5980  148.9700 C   0  0  0  0  0  0  0  0  0  0  0  0
  161.4380  206.6020  147.6690 C   0  0  0  0  0  0  0  0  0  0  0  0
  161.3130  205.7310  148.6660 C   0  0  0  0  0  3  0  0  0  0  0  0
  161.5190  203.4330  145.7090 C   0  0  0  0  0  1  0  0  0  0  0  0
  161.3180  204.5300  146.6400 N   0  0  0  0  0  0  0  0  0  0  0  0
  161.2520  204.4240  148.0470 C   0  0  0  0  0  0  0  0  0  0  0  0
  161.4690  205.9360  146.3130 C   0  0  0  0  0  2  0  0  0  0  0  0
  161.1620  203.3330  148.6670 O   0  0  0  0  0  0  0  0  0  0  0  0
  161.5630  210.8370  147.8700 N   0  0  0  0  0  2  0  0  0  0  0  0
  161.9770  210.0790  149.0100 C   0  0  0  0  0  0  0  0  0  0  0  0
  162.3730  210.6730  150.0490 O   0  0  0  0  0  0  0  0  0  0  0  0
  160.7440  213.1280  146.4610 O   0  0  0  0  0  0  0  0  0  0  0  0
  160.6170  213.1200  149.2180 O   0  0  0  0  0  1  0  0  0  0  0  0
  162.9030  213.1470  147.9380 O   0  0  0  0  0  1  0  0  0  0  0  0
  161.4980  212.5890  147.8740 P   0  0  0  0  0  0  0  0  0  0  0  0
  1  6  1  0  0  0  0
  2  7  1  0  0  0  0
  2  1  2  0  0  0  0
  4  8  1  0  0  0  0
  4  3  1  0  0  0  0
  5  1  1  0  0  0  0
  6  3  2  0  0  0  0
  7  4  2  0  0  0  0
  8 10  1  1  0  0  0
 10  9  1  0  0  0  0
 11  8  1  0  0  0  0
 12 11  2  0  0  0  0
 13 17  1  6  0  0  0
 13 15  1  0  0  0  0
 13 14  1  0  0  0  0
 14 11  1  6  0  0  0
 15 14  1  0  0  0  0
 17 16  1  6  0  0  0
 19 17  1  0  0  0  0
 19 18  1  1  0  0  0
 20 22  1  0  0  0  0
 21 19  1  1  0  0  0
 22 21  1  0  0  0  0
 23 20  1  0  0  0  0
 23 24  1  0  0  0  0
 24 21  1  0  0  0  0
 25  2  1  0  0  0  0
 26 25  1  0  0  0  0
 27 26  1  0  0  0  0
 28 29  2  0  0  0  0
 29 38  1  0  0  0  0
 29 27  1  0  0  0  0
 30 28  1  0  0  0  0
 30 31  2  0  0  0  0
 32 33  1  0  0  0  0
 33 34  1  0  0  0  0
 34 31  1  0  0  0  0
 34 36  2  0  0  0  0
 35 33  1  0  0  0  0
 35 30  1  0  0  0  0
 37 43  1  0  0  0  0
 37 38  1  0  0  0  0
 38 39  2  0  0  0  0
 40 43  2  0  0  0  0
 43 42  1  0  0  0  0
 43 41  1  0  0  0  0
M  END
>  <MODEL>
4

>  <REMARK>
 VINA RESULT:      -6.5      3.913      9.412
  Name = 
  14 active torsions:
  status: ('A' for Active; 'I' for Inactive)
    1  A    between atoms: O_1  and  C_24
    2  A    between atoms: O_1  and  C_35
    3  A    between atoms: C_2  and  N_14
    4  A    between atoms: C_4  and  C_43
    5  A    between atoms: C_6  and  C_29
    6  A    between atoms: C_9  and  C_29
    7  A    between atoms: C_13  and  C_30
    8  A    between atoms: C_17  and  C_22
    9  A    between atoms: C_19  and  C_25
   10  A    between atoms: C_22  and  C_30
   11  A    between atoms: C_24  and  C_36
   12  A    between atoms: C_25  and  C_29
   13  A    between atoms: N_33  and  P_38
   14  A    between atoms: C_35  and  C_43
                            x       y       z     vdW  Elec       q    Type
                         _______ _______ _______ _____ _____    ______ ____

>  <TORSDO>
F 14

$$$$
=
 OpenBabel11072410083D

 43 46  0  0  1  0  0  0  0  0999 V2000
  161.0500  205.9120  153.4440 C   0  0  0  0  0  0  0  0  0  0  0  0
  161.5210  206.9390  152.6030 C   0  0  0  0  0  0  0  0  0  0  0  0
  160.5300  207.5520  155.1510 C   0  0  0  0  0  3  0  0  0  0  0  0
  160.9960  208.5780  154.3230 C   0  0  0  0  0  0  0  0  0  0  0  0
  161.0750  204.5540  153.0190 N   0  0  0  0  0  1  0  0  0  0  0  0
  160.5580  206.2250  154.7140 C   0  0  0  0  0  3  0  0  0  0  0  0
  161.4890  208.2670  153.0450 C   0  0  0  0  0  3  0  0  0  0  0  0
  160.9410  209.9910  154.8180 C   0  0  2  0  0  3  0  0  0  0  0  0
  163.0780  210.7480  156.4020 S   0  0  0  0  0  1  0  0  0  0  0  0
  161.3950  210.0780  156.2760 C   0  0  0  0  0  2  0  0  0  0  0  0
  159.5880  210.6330  154.5470 C   0  0  0  0  0  0  0  0  0  0  0  0
  158.6650  210.6850  155.5090 C   0  0  0  0  0  2  0  0  0  0  0  0
  158.3970  212.3350  152.9950 C   0  0  2  0  0  3  0  0  0  0  0  0
  159.1370  210.9920  153.1430 C   0  0  1  0  0  3  0  0  0  0  0  0
  159.8540  212.2080  152.5780 C   0  0  0  0  0  2  0  0  0  0  0  0
  159.2800  214.0550  154.4240 F   0  0  0  0  0  0  0  0  0  0  0  0
  158.2470  213.1400  154.2920 C   0  0  1  0  0  3  0  0  0  0  0  0
  156.3360  214.2030  153.0010 C   0  0  0  0  0  1  0  0  0  0  0  0
  156.9030  213.8790  154.3760 C   0  0  1  0  0  3  0  0  0  0  0  0
  155.2230  211.2450  156.0990 C   0  0  0  0  0  2  0  0  0  0  0  0
  155.8470  213.2020  155.2570 C   0  0  1  0  0  3  0  0  0  0  0  0
  155.6520  211.8600  154.9110 O   0  0  0  0  0  0  0  0  0  0  0  0
  155.6950  211.9950  157.2600 N   0  0  0  0  0  2  0  0  0  0  0  0
  156.2080  213.2340  156.7140 C   0  0  0  0  0  2  0  0  0  0  0  0
  162.0280  206.6430  151.2320 C   0  0  0  0  0  2  0  0  0  0  0  0
  163.0670  207.6760  150.8270 C   0  0  0  0  0  2  0  0  0  0  0  0
  163.0560  207.8520  149.4170 O   0  0  0  0  0  0  0  0  0  0  0  0
  161.2870  207.8100  147.8750 N   0  0  0  0  0  0  0  0  0  0  0  0
  162.0280  208.4930  148.7020 C   0  0  0  0  0  0  0  0  0  0  0  0
  161.4090  206.4140  147.5690 C   0  0  0  0  0  0  0  0  0  0  0  0
  161.9040  205.9960  146.4080 C   0  0  0  0  0  3  0  0  0  0  0  0
  161.0220  202.7380  148.0430 C   0  0  0  0  0  1  0  0  0  0  0  0
  161.3960  204.1020  147.7130 N   0  0  0  0  0  0  0  0  0  0  0  0
  161.8910  204.5500  146.4680 C   0  0  0  0  0  0  0  0  0  0  0  0
  161.0300  205.2750  148.4870 C   0  0  0  0  0  2  0  0  0  0  0  0
  162.2590  203.7840  145.5410 O   0  0  0  0  0  0  0  0  0  0  0  0
  161.5730  210.7820  147.7230 N   0  0  0  0  0  2  0  0  0  0  0  0
  161.7330  209.9350  148.8650 C   0  0  0  0  0  0  0  0  0  0  0  0
  161.6630  210.4240  150.0250 O   0  0  0  0  0  0  0  0  0  0  0  0
  162.2020  213.3740  146.8330 O   0  0  0  0  0  0  0  0  0  0  0  0
  159.5790  212.7460  147.4220 O   0  0  0  0  0  1  0  0  0  0  0  0
  161.4080  212.9410  149.2880 O   0  0  0  0  0  1  0  0  0  0  0  0
  161.1930  212.4880  147.8600 P   0  0  0  0  0  0  0  0  0  0  0  0
  1  6  1  0  0  0  0
  2  7  1  0  0  0  0
  2  1  2  0  0  0  0
  4  8  1  0  0  0  0
  4  3  1  0  0  0  0
  5  1  1  0  0  0  0
  6  3  2  0  0  0  0
  7  4  2  0  0  0  0
  8 10  1  1  0  0  0
 10  9  1  0  0  0  0
 11  8  1  0  0  0  0
 11 12  2  0  0  0  0
 13 14  1  0  0  0  0
 13 17  1  1  0  0  0
 14 11  1  1  0  0  0
 15 13  1  0  0  0  0
 15 14  1  0  0  0  0
 17 19  1  0  0  0  0
 17 16  1  6  0  0  0
 19 18  1  6  0  0  0
 20 23  1  0  0  0  0
 21 19  1  6  0  0  0
 21 24  1  0  0  0  0
 22 21  1  0  0  0  0
 22 20  1  0  0  0  0
 24 23  1  0  0  0  0
 25  2  1  0  0  0  0
 26 25  1  0  0  0  0
 27 26  1  0  0  0  0
 28 29  2  0  0  0  0
 29 38  1  0  0  0  0
 29 27  1  0  0  0  0
 30 28  1  0  0  0  0
 30 35  1  0  0  0  0
 31 34  1  0  0  0  0
 31 30  2  0  0  0  0
 33 32  1  0  0  0  0
 33 35  1  0  0  0  0
 34 33  1  0  0  0  0
 36 34  2  0  0  0  0
 37 43  1  0  0  0  0
 37 38  1  0  0  0  0
 38 39  2  0  0  0  0
 40 43  2  0  0  0  0
 41 43  1  0  0  0  0
 43 42  1  0  0  0  0
M  END
>  <MODEL>
5

>  <REMARK>
 VINA RESULT:      -6.3      3.860      9.557
  Name = 
  14 active torsions:
  status: ('A' for Active; 'I' for Inactive)
    1  A    between atoms: O_1  and  C_24
    2  A    between atoms: O_1  and  C_35
    3  A    between atoms: C_2  and  N_14
    4  A    between atoms: C_4  and  C_43
    5  A    between atoms: C_6  and  C_29
    6  A    between atoms: C_9  and  C_29
    7  A    between atoms: C_13  and  C_30
    8  A    between atoms: C_17  and  C_22
    9  A    between atoms: C_19  and  C_25
   10  A    between atoms: C_22  and  C_30
   11  A    between atoms: C_24  and  C_36
   12  A    between atoms: C_25  and  C_29
   13  A    between atoms: N_33  and  P_38
   14  A    between atoms: C_35  and  C_43
                            x       y       z     vdW  Elec       q    Type
                         _______ _______ _______ _____ _____    ______ ____

>  <TORSDO>
F 14

$$$$
=
 OpenBabel11072410083D

 43 46  0  0  1  0  0  0  0  0999 V2000
  160.8100  207.1010  153.9770 C   0  0  0  0  0  0  0  0  0  0  0  0
  160.9010  208.0880  152.9780 C   0  0  0  0  0  0  0  0  0  0  0  0
  160.3090  208.8110  155.6200 C   0  0  0  0  0  3  0  0  0  0  0  0
  160.3980  209.7990  154.6350 C   0  0  0  0  0  0  0  0  0  0  0  0
  161.0210  205.7280  153.6660 N   0  0  0  0  0  1  0  0  0  0  0  0
  160.5140  207.4680  155.2930 C   0  0  0  0  0  3  0  0  0  0  0  0
  160.6920  209.4330  153.3110 C   0  0  0  0  0  3  0  0  0  0  0  0
  160.1600  211.2280  155.0170 C   0  0  2  0  0  3  0  0  0  0  0  0
  158.0270  211.4150  156.7680 S   0  0  0  0  0  1  0  0  0  0  0  0
  159.8230  211.3480  156.5040 C   0  0  0  0  0  2  0  0  0  0  0  0
  159.1550  211.9010  154.0930 C   0  0  0  0  0  0  0  0  0  0  0  0
  158.2580  211.1680  153.4310 C   0  0  0  0  0  2  0  0  0  0  0  0
  157.9690  214.1340  153.5200 C   0  0  2  0  0  3  0  0  0  0  0  0
  159.2880  213.3560  153.6860 C   0  0  1  0  0  3  0  0  0  0  0  0
  158.8240  214.3230  154.7630 C   0  0  0  0  0  2  0  0  0  0  0  0
  156.3150  213.4970  155.1440 F   0  0  0  0  0  0  0  0  0  0  0  0
  156.6980  213.3290  153.8230 C   0  0  1  0  0  3  0  0  0  0  0  0
  154.4270  214.4520  153.6480 C   0  0  0  0  0  1  0  0  0  0  0  0
  155.5270  213.7070  152.9040 C   0  0  1  0  0  3  0  0  0  0  0  0
  156.9750  214.2200  149.6840 C   0  0  0  0  0  2  0  0  0  0  0  0
  155.9240  214.4530  151.6250 C   0  0  1  0  0  3  0  0  0  0  0  0
  157.0940  213.9390  151.0560 O   0  0  0  0  0  0  0  0  0  0  0  0
  155.5690  214.3510  149.3120 N   0  0  0  0  0  2  0  0  0  0  0  0
  154.8570  214.3940  150.5710 C   0  0  0  0  0  2  0  0  0  0  0  0
  161.1880  207.7290  151.5600 C   0  0  0  0  0  2  0  0  0  0  0  0
  162.6780  207.8490  151.2830 C   0  0  0  0  0  2  0  0  0  0  0  0
  162.9060  207.9770  149.8870 O   0  0  0  0  0  0  0  0  0  0  0  0
  161.3460  207.9930  148.1340 N   0  0  0  0  0  0  0  0  0  0  0  0
  162.0560  208.6610  148.9990 C   0  0  0  0  0  0  0  0  0  0  0  0
  161.3390  206.5710  147.9470 C   0  0  0  0  0  0  0  0  0  0  0  0
  161.7420  206.0170  146.8070 C   0  0  0  0  0  3  0  0  0  0  0  0
  160.6790  202.9940  148.7570 C   0  0  0  0  0  1  0  0  0  0  0  0
  161.1460  204.2890  148.2930 N   0  0  0  0  0  0  0  0  0  0  0  0
  161.6150  204.5870  146.9950 C   0  0  0  0  0  0  0  0  0  0  0  0
  160.9150  205.5490  148.9750 C   0  0  0  0  0  2  0  0  0  0  0  0
  161.8740  203.7170  146.1230 O   0  0  0  0  0  0  0  0  0  0  0  0
  161.7340  210.8680  147.8040 N   0  0  0  0  0  2  0  0  0  0  0  0
  161.9140  210.1340  149.0190 C   0  0  0  0  0  0  0  0  0  0  0  0
  161.9960  210.7490  150.1170 O   0  0  0  0  0  0  0  0  0  0  0  0
  160.5720  213.0870  149.0810 O   0  0  0  0  0  1  0  0  0  0  0  0
  163.0440  213.3580  147.8860 O   0  0  0  0  0  1  0  0  0  0  0  0
  160.8580  213.0180  146.4820 O   0  0  0  0  0  0  0  0  0  0  0  0
  161.5310  212.6100  147.7750 P   0  0  0  0  0  0  0  0  0  0  0  0
  1  6  1  0  0  0  0
  2  7  1  0  0  0  0
  2  1  2  0  0  0  0
  4  8  1  0  0  0  0
  4  3  1  0  0  0  0
  5  1  1  0  0  0  0
  6  3  2  0  0  0  0
  7  4  2  0  0  0  0
  8 10  1  1  0  0  0
 10  9  1  0  0  0  0
 11  8  1  0  0  0  0
 12 11  2  0  0  0  0
 13 14  1  0  0  0  0
 13 17  1  1  0  0  0
 13 15  1  0  0  0  0
 14 11  1  1  0  0  0
 14 15  1  0  0  0  0
 17 16  1  1  0  0  0
 19 18  1  1  0  0  0
 19 17  1  0  0  0  0
 20 22  1  0  0  0  0
 21 19  1  1  0  0  0
 22 21  1  0  0  0  0
 23 20  1  0  0  0  0
 23 24  1  0  0  0  0
 24 21  1  0  0  0  0
 25  2  1  0  0  0  0
 26 25  1  0  0  0  0
 27 26  1  0  0  0  0
 28 29  2  0  0  0  0
 29 38  1  0  0  0  0
 29 27  1  0  0  0  0
 30 28  1  0  0  0  0
 30 35  1  0  0  0  0
 31 34  1  0  0  0  0
 31 30  2  0  0  0  0
 33 32  1  0  0  0  0
 33 35  1  0  0  0  0
 34 33  1  0  0  0  0
 36 34  2  0  0  0  0
 37 38  1  0  0  0  0
 38 39  2  0  0  0  0
 42 43  2  0  0  0  0
 43 37  1  0  0  0  0
 43 41  1  0  0  0  0
 43 40  1  0  0  0  0
M  END
>  <MODEL>
6

>  <REMARK>
 VINA RESULT:      -5.9      4.176      9.489
  Name = 
  14 active torsions:
  status: ('A' for Active; 'I' for Inactive)
    1  A    between atoms: O_1  and  C_24
    2  A    between atoms: O_1  and  C_35
    3  A    between atoms: C_2  and  N_14
    4  A    between atoms: C_4  and  C_43
    5  A    between atoms: C_6  and  C_29
    6  A    between atoms: C_9  and  C_29
    7  A    between atoms: C_13  and  C_30
    8  A    between atoms: C_17  and  C_22
    9  A    between atoms: C_19  and  C_25
   10  A    between atoms: C_22  and  C_30
   11  A    between atoms: C_24  and  C_36
   12  A    between atoms: C_25  and  C_29
   13  A    between atoms: N_33  and  P_38
   14  A    between atoms: C_35  and  C_43
                            x       y       z     vdW  Elec       q    Type
                         _______ _______ _______ _____ _____    ______ ____

>  <TORSDO>
F 14

$$$$
=
 OpenBabel11072410083D

 43 46  0  0  1  0  0  0  0  0999 V2000
  161.7180  207.2500  149.1690 C   0  0  0  0  0  0  0  0  0  0  0  0
  161.9900  208.5830  149.5330 C   0  0  0  0  0  0  0  0  0  0  0  0
  161.1840  206.7310  151.4750 C   0  0  0  0  0  3  0  0  0  0  0  0
  161.4530  208.0520  151.8470 C   0  0  0  0  0  0  0  0  0  0  0  0
  161.8530  206.8220  147.8180 N   0  0  0  0  0  1  0  0  0  0  0  0
  161.3170  206.3310  150.1430 C   0  0  0  0  0  3  0  0  0  0  0  0
  161.8540  208.9780  150.8710 C   0  0  0  0  0  3  0  0  0  0  0  0
  161.2890  208.4490  153.2820 C   0  0  2  0  0  3  0  0  0  0  0  0
  161.0580  206.8400  155.5200 S   0  0  0  0  0  1  0  0  0  0  0  0
  160.3190  207.5100  154.0020 C   0  0  0  0  0  2  0  0  0  0  0  0
  160.9490  209.9260  153.4250 C   0  0  0  0  0  0  0  0  0  0  0  0
  160.0230  210.4800  152.6400 C   0  0  0  0  0  2  0  0  0  0  0  0
  161.2260  211.2820  155.6170 C   0  0  2  0  0  3  0  0  0  0  0  0
  161.8040  210.8700  154.2500 C   0  0  1  0  0  3  0  0  0  0  0  0
  162.3280  210.2380  155.5290 C   0  0  0  0  0  2  0  0  0  0  0  0
  160.0360  209.6100  156.8690 F   0  0  0  0  0  0  0  0  0  0  0  0
  159.8730  210.6500  155.9680 C   0  0  1  0  0  3  0  0  0  0  0  0
  159.4670  213.0700  156.6220 C   0  0  0  0  0  1  0  0  0  0  0  0
  158.8780  211.6680  156.5440 C   0  0  1  0  0  3  0  0  0  0  0  0
  155.5400  210.6610  155.7880 C   0  0  0  0  0  2  0  0  0  0  0  0
  157.5050  211.6890  155.8610 C   0  0  1  0  0  3  0  0  0  0  0  0
  156.9240  210.4180  155.8070 O   0  0  0  0  0  0  0  0  0  0  0  0
  155.2420  211.9520  156.4030 N   0  0  0  0  0  2  0  0  0  0  0  0
  156.5300  212.5920  156.5580 C   0  0  0  0  0  2  0  0  0  0  0  0
  162.3950  209.5950  148.5160 C   0  0  0  0  0  2  0  0  0  0  0  0
  162.0900  210.9950  149.0240 C   0  0  0  0  0  2  0  0  0  0  0  0
  161.7190  211.8370  147.9410 O   0  0  0  0  0  0  0  0  0  0  0  0
  160.2060  213.3070  146.9110 N   0  0  0  0  0  0  0  0  0  0  0  0
  160.7250  212.8300  148.0080 C   0  0  0  0  0  0  0  0  0  0  0  0
  160.5560  212.9420  145.5690 C   0  0  0  0  0  0  0  0  0  0  0  0
  159.7250  212.2480  144.7970 C   0  0  0  0  0  3  0  0  0  0  0  0
  162.7060  212.5890  142.5460 C   0  0  0  0  0  1  0  0  0  0  0  0
  161.6610  212.7320  143.5440 N   0  0  0  0  0  0  0  0  0  0  0  0
  160.4020  212.0900  143.5270 C   0  0  0  0  0  0  0  0  0  0  0  0
  161.8470  213.2970  144.8680 C   0  0  0  0  0  2  0  0  0  0  0  0
  159.9470  211.4590  142.5380 O   0  0  0  0  0  0  0  0  0  0  0  0
  158.9330  212.9650  149.7890 N   0  0  0  0  0  2  0  0  0  0  0  0
  160.2180  213.3530  149.2970 C   0  0  0  0  0  0  0  0  0  0  0  0
  160.9140  214.1810  149.9440 O   0  0  0  0  0  0  0  0  0  0  0  0
  157.7890  212.2090  152.2440 O   0  0  0  0  0  1  0  0  0  0  0  0
  159.5080  214.3670  152.1620 O   0  0  0  0  0  1  0  0  0  0  0  0
  157.1250  214.4530  151.0760 O   0  0  0  0  0  0  0  0  0  0  0  0
  158.2990  213.5310  151.3230 P   0  0  0  0  0  0  0  0  0  0  0  0
  1  2  2  0  0  0  0
  1  6  1  0  0  0  0
  2  7  1  0  0  0  0
  3  4  1  0  0  0  0
  4  8  1  0  0  0  0
  5  1  1  0  0  0  0
  6  3  2  0  0  0  0
  7  4  2  0  0  0  0
  8 11  1  0  0  0  0
  8 10  1  6  0  0  0
 10  9  1  0  0  0  0
 12 11  2  0  0  0  0
 13 17  1  6  0  0  0
 14 11  1  6  0  0  0
 14 15  1  0  0  0  0
 14 13  1  0  0  0  0
 15 13  1  0  0  0  0
 17 19  1  0  0  0  0
 17 16  1  1  0  0  0
 19 18  1  6  0  0  0
 20 22  1  0  0  0  0
 20 23  1  0  0  0  0
 21 19  1  1  0  0  0
 21 24  1  0  0  0  0
 22 21  1  0  0  0  0
 23 24  1  0  0  0  0
 25 26  1  0  0  0  0
 25  2  1  0  0  0  0
 27 29  1  0  0  0  0
 27 26  1  0  0  0  0
 28 29  2  0  0  0  0
 29 38  1  0  0  0  0
 30 28  1  0  0  0  0
 31 30  2  0  0  0  0
 32 33  1  0  0  0  0
 33 35  1  0  0  0  0
 34 33  1  0  0  0  0
 34 31  1  0  0  0  0
 35 30  1  0  0  0  0
 36 34  2  0  0  0  0
 37 43  1  0  0  0  0
 38 37  1  0  0  0  0
 38 39  2  0  0  0  0
 42 43  2  0  0  0  0
 43 41  1  0  0  0  0
 43 40  1  0  0  0  0
M  END
>  <MODEL>
7

>  <REMARK>
 VINA RESULT:      -5.6      3.950      8.052
  Name = 
  14 active torsions:
  status: ('A' for Active; 'I' for Inactive)
    1  A    between atoms: O_1  and  C_24
    2  A    between atoms: O_1  and  C_35
    3  A    between atoms: C_2  and  N_14
    4  A    between atoms: C_4  and  C_43
    5  A    between atoms: C_6  and  C_29
    6  A    between atoms: C_9  and  C_29
    7  A    between atoms: C_13  and  C_30
    8  A    between atoms: C_17  and  C_22
    9  A    between atoms: C_19  and  C_25
   10  A    between atoms: C_22  and  C_30
   11  A    between atoms: C_24  and  C_36
   12  A    between atoms: C_25  and  C_29
   13  A    between atoms: N_33  and  P_38
   14  A    between atoms: C_35  and  C_43
                            x       y       z     vdW  Elec       q    Type
                         _______ _______ _______ _____ _____    ______ ____

>  <TORSDO>
F 14

$$$$
=
 OpenBabel11072410083D

 43 46  0  0  1  0  0  0  0  0999 V2000
  161.1230  205.9470  153.5350 C   0  0  0  0  0  0  0  0  0  0  0  0
  161.7460  206.8980  152.7040 C   0  0  0  0  0  0  0  0  0  0  0  0
  160.3130  207.7280  154.9640 C   0  0  0  0  0  3  0  0  0  0  0  0
  160.9280  208.6800  154.1460 C   0  0  0  0  0  0  0  0  0  0  0  0
  161.2150  204.5560  153.2460 N   0  0  0  0  0  1  0  0  0  0  0  0
  160.4100  206.3680  154.6610 C   0  0  0  0  0  3  0  0  0  0  0  0
  161.6430  208.2610  153.0120 C   0  0  0  0  0  3  0  0  0  0  0  0
  160.7940  210.1320  154.4930 C   0  0  2  0  0  3  0  0  0  0  0  0
  159.6770  210.6930  152.0250 S   0  0  0  0  0  1  0  0  0  0  0  0
  160.9770  211.0100  153.2530 C   0  0  0  0  0  2  0  0  0  0  0  0
  161.6820  210.5180  155.6670 C   0  0  0  0  0  0  0  0  0  0  0  0
  163.0090  210.5440  155.5250 C   0  0  0  0  0  2  0  0  0  0  0  0
  159.8980  211.5180  157.2610 C   0  0  2  0  0  3  0  0  0  0  0  0
  161.1410  210.6260  157.0800 C   0  0  1  0  0  3  0  0  0  0  0  0
  159.7640  210.0040  157.2420 C   0  0  0  0  0  2  0  0  0  0  0  0
  158.3830  211.3500  155.4020 F   0  0  0  0  0  0  0  0  0  0  0  0
  159.3610  212.1510  155.9710 C   0  0  1  0  0  3  0  0  0  0  0  0
  159.7090  214.4210  157.0540 C   0  0  0  0  0  1  0  0  0  0  0  0
  158.7920  213.5590  156.1970 C   0  0  1  0  0  3  0  0  0  0  0  0
  158.1410  214.0720  152.7270 C   0  0  0  0  0  2  0  0  0  0  0  0
  158.3780  214.3020  154.9220 C   0  0  1  0  0  3  0  0  0  0  0  0
  159.0240  213.8020  153.7870 O   0  0  0  0  0  0  0  0  0  0  0  0
  156.7710  214.1790  153.2220 N   0  0  0  0  0  2  0  0  0  0  0  0
  156.9020  214.2200  154.6620 C   0  0  0  0  0  2  0  0  0  0  0  0
  162.4920  206.4850  151.4810 C   0  0  0  0  0  2  0  0  0  0  0  0
  162.7750  207.6980  150.6100 C   0  0  0  0  0  2  0  0  0  0  0  0
  161.6790  207.9380  149.7360 O   0  0  0  0  0  0  0  0  0  0  0  0
  161.7760  208.1230  147.3990 N   0  0  0  0  0  0  0  0  0  0  0  0
  161.7500  208.7090  148.5620 C   0  0  0  0  0  0  0  0  0  0  0  0
  161.7630  206.7100  147.1510 C   0  0  0  0  0  0  0  0  0  0  0  0
  162.2960  206.1920  146.0490 C   0  0  0  0  0  3  0  0  0  0  0  0
  160.9300  203.1230  147.7170 C   0  0  0  0  0  1  0  0  0  0  0  0
  161.4790  204.4220  147.3720 N   0  0  0  0  0  0  0  0  0  0  0  0
  162.1160  204.7590  146.1570 C   0  0  0  0  0  0  0  0  0  0  0  0
  161.1890  205.6590  148.0730 C   0  0  0  0  0  2  0  0  0  0  0  0
  162.4660  203.9180  145.2890 O   0  0  0  0  0  0  0  0  0  0  0  0
  161.2350  210.9520  147.5090 N   0  0  0  0  0  2  0  0  0  0  0  0
  161.7770  210.1890  148.5910 C   0  0  0  0  0  0  0  0  0  0  0  0
  162.3220  210.7790  149.5640 O   0  0  0  0  0  0  0  0  0  0  0  0
  160.5950  213.2600  146.0360 O   0  0  0  0  0  0  0  0  0  0  0  0
  160.2390  213.2620  148.7730 O   0  0  0  0  0  1  0  0  0  0  0  0
  162.6230  213.2280  147.6880 O   0  0  0  0  0  1  0  0  0  0  0  0
  161.2140  212.7060  147.5080 P   0  0  0  0  0  0  0  0  0  0  0  0
  1  6  1  0  0  0  0
  2  7  1  0  0  0  0
  2  1  2  0  0  0  0
  4  8  1  0  0  0  0
  4  3  1  0  0  0  0
  5  1  1  0  0  0  0
  6  3  2  0  0  0  0
  7  4  2  0  0  0  0
  8 10  1  6  0  0  0
  8 11  1  0  0  0  0
  9 10  1  0  0  0  0
 12 11  2  0  0  0  0
 13 17  1  6  0  0  0
 14 11  1  6  0  0  0
 14 15  1  0  0  0  0
 14 13  1  0  0  0  0
 15 13  1  0  0  0  0
 17 16  1  1  0  0  0
 17 19  1  0  0  0  0
 19 18  1  6  0  0  0
 20 23  1  0  0  0  0
 20 22  1  0  0  0  0
 21 19  1  1  0  0  0
 22 21  1  0  0  0  0
 23 24  1  0  0  0  0
 24 21  1  0  0  0  0
 25  2  1  0  0  0  0
 26 25  1  0  0  0  0
 27 26  1  0  0  0  0
 28 29  2  0  0  0  0
 29 38  1  0  0  0  0
 29 27  1  0  0  0  0
 30 28  1  0  0  0  0
 30 35  1  0  0  0  0
 31 34  1  0  0  0  0
 31 30  2  0  0  0  0
 33 32  1  0  0  0  0
 33 35  1  0  0  0  0
 34 33  1  0  0  0  0
 36 34  2  0  0  0  0
 37 38  1  0  0  0  0
 38 39  2  0  0  0  0
 40 43  2  0  0  0  0
 43 37  1  0  0  0  0
 43 42  1  0  0  0  0
 43 41  1  0  0  0  0
M  END
>  <MODEL>
8

>  <REMARK>
 VINA RESULT:      -5.0      3.675      9.369
  Name = 
  14 active torsions:
  status: ('A' for Active; 'I' for Inactive)
    1  A    between atoms: O_1  and  C_24
    2  A    between atoms: O_1  and  C_35
    3  A    between atoms: C_2  and  N_14
    4  A    between atoms: C_4  and  C_43
    5  A    between atoms: C_6  and  C_29
    6  A    between atoms: C_9  and  C_29
    7  A    between atoms: C_13  and  C_30
    8  A    between atoms: C_17  and  C_22
    9  A    between atoms: C_19  and  C_25
   10  A    between atoms: C_22  and  C_30
   11  A    between atoms: C_24  and  C_36
   12  A    between atoms: C_25  and  C_29
   13  A    between atoms: N_33  and  P_38
   14  A    between atoms: C_35  and  C_43
                            x       y       z     vdW  Elec       q    Type
                         _______ _______ _______ _____ _____    ______ ____

>  <TORSDO>
F 14

$$$$
=
 OpenBabel11072410083D

 43 46  0  0  1  0  0  0  0  0999 V2000
  161.1770  208.0500  154.3040 C   0  0  0  0  0  0  0  0  0  0  0  0
  161.3630  208.6440  153.0420 C   0  0  0  0  0  0  0  0  0  0  0  0
  160.7600  205.9150  153.2350 C   0  0  0  0  0  3  0  0  0  0  0  0
  160.9420  206.4970  151.9760 C   0  0  0  0  0  0  0  0  0  0  0  0
  161.2860  208.8210  155.4960 N   0  0  0  0  0  1  0  0  0  0  0  0
  160.8760  206.6870  154.3930 C   0  0  0  0  0  3  0  0  0  0  0  0
  161.2480  207.8650  151.8840 C   0  0  0  0  0  3  0  0  0  0  0  0
  160.8230  205.6380  150.7550 C   0  0  2  0  0  3  0  0  0  0  0  0
  161.1330  203.1960  152.0180 S   0  0  0  0  0  1  0  0  0  0  0  0
  161.7590  204.4310  150.8420 C   0  0  0  0  0  2  0  0  0  0  0  0
  160.9680  206.4490  149.4760 C   0  0  0  0  0  0  0  0  0  0  0  0
  159.8980  206.7160  148.7250 C   0  0  0  0  0  2  0  0  0  0  0  0
  162.6040  206.1270  147.4900 C   0  0  2  0  0  3  0  0  0  0  0  0
  162.3250  206.7540  148.8690 C   0  0  1  0  0  3  0  0  0  0  0  0
  162.2390  207.5990  147.6080 C   0  0  0  0  0  2  0  0  0  0  0  0
  160.6020  206.1050  146.1590 F   0  0  0  0  0  0  0  0  0  0  0  0
  161.4490  205.3020  146.9060 C   0  0  1  0  0  3  0  0  0  0  0  0
  163.3870  204.3080  145.6010 C   0  0  0  0  0  1  0  0  0  0  0  0
  161.9390  204.1360  146.0360 C   0  0  1  0  0  3  0  0  0  0  0  0
  161.2250  201.6740  148.5180 C   0  0  0  0  0  2  0  0  0  0  0  0
  161.7100  202.7420  146.6340 C   0  0  1  0  0  3  0  0  0  0  0  0
  162.0400  202.6910  147.9920 O   0  0  0  0  0  0  0  0  0  0  0  0
  160.0280  201.5070  147.6980 N   0  0  0  0  0  2  0  0  0  0  0  0
  160.2840  202.2910  146.5090 C   0  0  0  0  0  2  0  0  0  0  0  0
  161.7110  210.0890  152.9110 C   0  0  0  0  0  2  0  0  0  0  0  0
  161.0270  210.6810  151.6900 C   0  0  0  0  0  2  0  0  0  0  0  0
  159.9380  211.5030  152.0920 O   0  0  0  0  0  0  0  0  0  0  0  0
  159.0990  213.6700  152.4210 N   0  0  0  0  0  0  0  0  0  0  0  0
  159.7370  212.8260  151.6600 C   0  0  0  0  0  0  0  0  0  0  0  0
  158.5240  213.3970  153.7060 C   0  0  0  0  0  0  0  0  0  0  0  0
  157.6670  214.2380  154.2780 C   0  0  0  0  0  3  0  0  0  0  0  0
  157.9750  211.5950  156.9210 C   0  0  0  0  0  1  0  0  0  0  0  0
  157.9270  212.3770  155.6980 N   0  0  0  0  0  0  0  0  0  0  0  0
  157.2920  213.6280  155.5360 C   0  0  0  0  0  0  0  0  0  0  0  0
  158.7790  212.1650  154.5430 C   0  0  0  0  0  2  0  0  0  0  0  0
  156.5130  214.1370  156.3830 O   0  0  0  0  0  0  0  0  0  0  0  0
  160.0660  212.5490  149.1660 N   0  0  0  0  0  2  0  0  0  0  0  0
  160.2470  213.3170  150.3590 C   0  0  0  0  0  0  0  0  0  0  0  0
  160.8820  214.4060  150.3150 O   0  0  0  0  0  0  0  0  0  0  0  0
  159.6960  214.4240  147.1030 O   0  0  0  0  0  1  0  0  0  0  0  0
  162.2480  213.5560  147.6990 O   0  0  0  0  0  1  0  0  0  0  0  0
  160.4740  211.9800  146.5880 O   0  0  0  0  0  0  0  0  0  0  0  0
  160.6220  213.0990  147.5960 P   0  0  0  0  0  0  0  0  0  0  0  0
  1  6  1  0  0  0  0
  1  5  1  0  0  0  0
  2  1  2  0  0  0  0
  3  6  2  0  0  0  0
  4  3  1  0  0  0  0
  7  4  2  0  0  0  0
  7  2  1  0  0  0  0
  8 10  1  1  0  0  0
  8  4  1  0  0  0  0
 10  9  1  0  0  0  0
 11  8  1  0  0  0  0
 12 11  2  0  0  0  0
 13 17  1  6  0  0  0
 13 15  1  0  0  0  0
 13 14  1  0  0  0  0
 14 11  1  6  0  0  0
 15 14  1  0  0  0  0
 17 16  1  6  0  0  0
 19 18  1  1  0  0  0
 19 17  1  0  0  0  0
 21 19  1  1  0  0  0
 21 22  1  0  0  0  0
 22 20  1  0  0  0  0
 23 20  1  0  0  0  0
 24 21  1  0  0  0  0
 24 23  1  0  0  0  0
 25  2  1  0  0  0  0
 26 27  1  0  0  0  0
 26 25  1  0  0  0  0
 28 30  1  0  0  0  0
 29 27  1  0  0  0  0
 29 28  2  0  0  0  0
 30 31  2  0  0  0  0
 30 35  1  0  0  0  0
 31 34  1  0  0  0  0
 33 32  1  0  0  0  0
 34 33  1  0  0  0  0
 34 36  2  0  0  0  0
 35 33  1  0  0  0  0
 37 38  1  0  0  0  0
 38 29  1  0  0  0  0
 39 38  2  0  0  0  0
 40 43  1  0  0  0  0
 42 43  2  0  0  0  0
 43 41  1  0  0  0  0
 43 37  1  0  0  0  0
M  END
>  <MODEL>
9

>  <REMARK>
 VINA RESULT:      -4.8      2.535      5.241
  Name = 
  14 active torsions:
  status: ('A' for Active; 'I' for Inactive)
    1  A    between atoms: O_1  and  C_24
    2  A    between atoms: O_1  and  C_35
    3  A    between atoms: C_2  and  N_14
    4  A    between atoms: C_4  and  C_43
    5  A    between atoms: C_6  and  C_29
    6  A    between atoms: C_9  and  C_29
    7  A    between atoms: C_13  and  C_30
    8  A    between atoms: C_17  and  C_22
    9  A    between atoms: C_19  and  C_25
   10  A    between atoms: C_22  and  C_30
   11  A    between atoms: C_24  and  C_36
   12  A    between atoms: C_25  and  C_29
   13  A    between atoms: N_33  and  P_38
   14  A    between atoms: C_35  and  C_43
                            x       y       z     vdW  Elec       q    Type
                         _______ _______ _______ _____ _____    ______ ____

>  <TORSDO>
F 14

$$$$
