=
 OpenBabel11072414163D

 34 42  0  0  1  0  0  0  0  0999 V2000
  161.7350  209.5620  151.2630 C   0  0  0  0  0  0  0  0  0  0  0  0
  161.5290  211.1110  153.3050 C   0  0  0  0  0  3  0  0  0  0  0  0
  161.2210  203.5030  148.4810 C   0  0  1  0  0  0  0  0  0  0  0  0
  161.8380  207.9020  149.5040 C   0  0  1  0  0  3  0  0  0  0  0  0
  161.0700  205.5540  150.0150 C   0  0  0  0  0  0  0  0  0  0  0  0
  160.6600  203.0040  150.2870 C   0  0  1  0  0  3  0  0  0  0  0  0
  161.0500  202.2650  149.1720 O   0  0  0  0  0  0  0  0  0  0  0  0
  161.4050  205.2240  146.8180 C   0  0  0  0  0  3  0  0  0  0  0  0
  161.3160  208.8620  153.6140 C   0  0  0  0  0  0  0  0  0  0  0  0
  159.5180  207.8690  155.8360 C   0  0  0  0  0  3  0  0  0  0  0  0
  160.7030  206.0040  151.4030 C   0  0  0  0  0  2  0  0  0  0  0  0
  161.5030  206.3260  147.5840 C   0  0  0  0  0  3  0  0  0  0  0  0
  161.2820  207.5560  153.3090 C   0  0  0  0  0  0  0  0  0  0  0  0
  161.3100  210.9440  154.6090 C   0  0  0  0  0  3  0  0  0  0  0  0
  161.8380  206.4550  149.0590 C   0  0  1  0  0  3  0  0  0  0  0  0
  161.4470  203.8550  147.2600 N   0  0  0  0  0  2  0  0  0  0  0  0
  159.8550  209.1450  155.5880 C   0  0  0  0  0  0  0  0  0  0  0  0
  161.7240  208.2170  150.8690 C   0  0  0  0  0  0  0  0  0  0  0  0
  160.9700  204.2750  149.7130 C   0  0  0  0  0  0  0  0  0  0  0  0
  161.6400  207.1040  151.9000 C   0  0  0  0  0  0  0  0  0  0  0  0
  162.0260  210.2190  148.9680 C   0  0  0  0  0  3  0  0  0  0  0  0
  160.2800  206.6670  155.4370 C   0  0  0  0  0  3  0  0  0  0  0  0
  162.0030  208.9090  148.5980 N   0  0  0  0  0  0  0  0  0  0  0  0
  161.0430  206.5290  154.3460 C   0  0  0  0  0  3  0  0  0  0  0  0
  161.1800  209.4790  154.9610 C   0  0  1  0  0  3  0  0  0  0  0  0
  161.8850  210.5720  150.3110 C   0  0  0  0  0  3  0  0  0  0  0  0
  161.5630  209.8560  152.6470 N   0  0  0  0  0  0  0  0  0  0  0  0
  159.0010  210.1910  155.9700 O   0  0  0  0  0  0  0  0  0  0  0  0
  157.8580  210.5900  155.2190 C   0  0  0  0  0  2  0  0  0  0  0  0
  157.0380  213.1620  153.4120 O   0  0  0  0  0  0  0  0  0  0  0  0
  156.0860  212.3160  155.3990 C   0  0  0  0  0  2  0  0  0  0  0  0
  157.5650  212.0650  155.4440 C   0  0  2  0  0  3  0  0  0  0  0  0
  155.9100  213.2630  154.2380 C   0  0  0  0  0  2  0  0  0  0  0  0
  158.1000  212.8650  154.2790 C   0  0  0  0  0  2  0  0  0  0  0  0
  1 27  1  0  0  0  0
  2 14  2  0  0  0  0
  3 16  1  6  0  0  0
  3  7  1  0  0  0  0
  3 19  1  0  0  0  0
  3  6  1  0  0  0  0
  4 23  1  1  0  0  0
  4 18  1  0  0  0  0
  5 11  1  0  0  0  0
  6  7  1  1  0  0  0
  8 16  1  0  0  0  0
  8 12  2  0  0  0  0
  9 25  1  0  0  0  0
 11 20  1  0  0  0  0
 13  9  2  0  0  0  0
 13 24  1  0  0  0  0
 15 12  1  6  0  0  0
 15  4  1  0  0  0  0
 15  5  1  0  0  0  0
 17 10  2  0  0  0  0
 17 28  1  0  0  0  0
 18  1  1  0  0  0  0
 18 20  2  0  0  0  0
 19  5  2  0  0  0  0
 19  6  1  0  0  0  0
 20 13  1  0  0  0  0
 21 26  1  0  0  0  0
 22 10  1  0  0  0  0
 23 21  2  0  0  0  0
 24 22  2  0  0  0  0
 25 14  1  6  0  0  0
 25 17  1  0  0  0  0
 26  1  2  0  0  0  0
 27  2  1  0  0  0  0
 27  9  1  0  0  0  0
 29 28  1  0  0  0  0
 30 33  1  0  0  0  0
 30 34  1  0  0  0  0
 31 32  1  0  0  0  0
 32 29  1  6  0  0  0
 33 31  1  0  0  0  0
 34 32  1  0  0  0  0
M  END
>  <MODEL>
1

>  <REMARK>
 VINA RESULT:     -10.0      0.000      0.000
  Name = 
  3 active torsions:
  status: ('A' for Active; 'I' for Inactive)
    1  A    between atoms: C_1  and  O_14
    2  A    between atoms: C_1  and  C_18
    3  A    between atoms: O_14  and  C_23
                            x       y       z     vdW  Elec       q    Type
                         _______ _______ _______ _____ _____    ______ ____

>  <TORSDO>
F 3

$$$$
=
 OpenBabel11072414163D

 34 42  0  0  1  0  0  0  0  0999 V2000
  161.7980  209.4060  151.0120 C   0  0  0  0  0  0  0  0  0  0  0  0
  161.6080  210.9160  153.0840 C   0  0  0  0  0  3  0  0  0  0  0  0
  161.2810  203.3960  148.1240 C   0  0  1  0  0  0  0  0  0  0  0  0
  161.8890  207.7790  149.2210 C   0  0  1  0  0  3  0  0  0  0  0  0
  161.1370  205.4180  149.6970 C   0  0  0  0  0  0  0  0  0  0  0  0
  160.7420  202.8620  149.9260 C   0  0  1  0  0  3  0  0  0  0  0  0
  161.1230  202.1450  148.7940 O   0  0  0  0  0  0  0  0  0  0  0  0
  161.4380  205.1480  146.4910 C   0  0  0  0  0  3  0  0  0  0  0  0
  161.4080  208.6600  153.3540 C   0  0  0  0  0  0  0  0  0  0  0  0
  159.6400  207.6190  155.5770 C   0  0  0  0  0  3  0  0  0  0  0  0
  160.7840  205.8410  151.0970 C   0  0  0  0  0  2  0  0  0  0  0  0
  161.5400  206.2370  147.2760 C   0  0  0  0  0  3  0  0  0  0  0  0
  161.3770  207.3610  153.0250 C   0  0  0  0  0  0  0  0  0  0  0  0
  161.4040  210.7240  154.3870 C   0  0  0  0  0  3  0  0  0  0  0  0
  161.8900  206.3400  148.7500 C   0  0  1  0  0  3  0  0  0  0  0  0
  161.4920  203.7720  146.9070 N   0  0  0  0  0  2  0  0  0  0  0  0
  159.9680  208.9000  155.3490 C   0  0  0  0  0  0  0  0  0  0  0  0
  161.7890  208.0680  150.5930 C   0  0  0  0  0  0  0  0  0  0  0  0
  161.0390  204.1440  149.3730 C   0  0  0  0  0  0  0  0  0  0  0  0
  161.7210  206.9360  151.6040 C   0  0  0  0  0  0  0  0  0  0  0  0
  162.0610  210.1060  148.7250 C   0  0  0  0  0  3  0  0  0  0  0  0
  160.4020  206.4280  155.1480 C   0  0  0  0  0  3  0  0  0  0  0  0
  162.0400  208.8030  148.3320 N   0  0  0  0  0  0  0  0  0  0  0  0
  161.1540  206.3140  154.0450 C   0  0  0  0  0  3  0  0  0  0  0  0
  161.2850  209.2520  154.7130 C   0  0  1  0  0  3  0  0  0  0  0  0
  161.9330  210.4330  150.0760 C   0  0  0  0  0  3  0  0  0  0  0  0
  161.6400  209.6730  152.4020 N   0  0  0  0  0  0  0  0  0  0  0  0
  159.1140  209.9350  155.7590 O   0  0  0  0  0  0  0  0  0  0  0  0
  159.2880  210.6690  156.9680 C   0  0  0  0  0  2  0  0  0  0  0  0
  159.6340  213.5130  155.4380 O   0  0  0  0  0  0  0  0  0  0  0  0
  157.7640  212.0850  155.6170 C   0  0  0  0  0  2  0  0  0  0  0  0
  158.5470  211.9950  156.8940 C   0  0  2  0  0  3  0  0  0  0  0  0
  158.3590  213.2740  154.9050 C   0  0  0  0  0  2  0  0  0  0  0  0
  159.5470  213.1220  156.7820 C   0  0  0  0  0  2  0  0  0  0  0  0
  1 27  1  0  0  0  0
  2 14  2  0  0  0  0
  3 16  1  6  0  0  0
  3  7  1  0  0  0  0
  3 19  1  0  0  0  0
  3  6  1  0  0  0  0
  4 23  1  1  0  0  0
  4 18  1  0  0  0  0
  5 11  1  0  0  0  0
  6  7  1  1  0  0  0
  8 16  1  0  0  0  0
  8 12  2  0  0  0  0
  9 25  1  0  0  0  0
 11 20  1  0  0  0  0
 13  9  2  0  0  0  0
 13 24  1  0  0  0  0
 15 12  1  6  0  0  0
 15  4  1  0  0  0  0
 15  5  1  0  0  0  0
 17 10  2  0  0  0  0
 17 28  1  0  0  0  0
 18  1  1  0  0  0  0
 18 20  2  0  0  0  0
 19  5  2  0  0  0  0
 19  6  1  0  0  0  0
 20 13  1  0  0  0  0
 21 26  1  0  0  0  0
 22 10  1  0  0  0  0
 23 21  2  0  0  0  0
 24 22  2  0  0  0  0
 25 14  1  6  0  0  0
 25 17  1  0  0  0  0
 26  1  2  0  0  0  0
 27  2  1  0  0  0  0
 27  9  1  0  0  0  0
 28 29  1  0  0  0  0
 30 34  1  0  0  0  0
 31 32  1  0  0  0  0
 32 29  1  6  0  0  0
 33 30  1  0  0  0  0
 33 31  1  0  0  0  0
 34 32  1  0  0  0  0
M  END
>  <MODEL>
2

>  <REMARK>
 VINA RESULT:     -10.0      0.931      1.088
  Name = 
  3 active torsions:
  status: ('A' for Active; 'I' for Inactive)
    1  A    between atoms: C_1  and  O_14
    2  A    between atoms: C_1  and  C_18
    3  A    between atoms: O_14  and  C_23
                            x       y       z     vdW  Elec       q    Type
                         _______ _______ _______ _____ _____    ______ ____

>  <TORSDO>
F 3

$$$$
=
 OpenBabel11072414163D

 34 42  0  0  1  0  0  0  0  0999 V2000
  160.7810  207.1370  154.2450 C   0  0  1  0  0  3  0  0  0  0  0  0
  161.6070  204.9970  153.0830 C   0  0  0  0  0  3  0  0  0  0  0  0
  158.9510  213.5640  153.9830 C   0  0  1  0  0  0  0  0  0  0  0  0
  160.0040  209.2680  155.0900 C   0  0  0  0  0  0  0  0  0  0  0  0
  159.5760  211.1340  153.4450 C   0  0  0  0  0  0  0  0  0  0  0  0
  159.3450  213.3310  152.0820 C   0  0  1  0  0  3  0  0  0  0  0  0
  159.1360  214.4530  152.8810 O   0  0  0  0  0  0  0  0  0  0  0  0
  158.3010  212.5460  156.0570 C   0  0  0  0  0  3  0  0  0  0  0  0
  161.5650  206.9400  151.8910 C   0  0  0  0  0  0  0  0  0  0  0  0
  161.0830  206.7990  148.9070 C   0  0  0  0  0  3  0  0  0  0  0  0
  159.9380  210.1960  152.3260 C   0  0  0  0  0  2  0  0  0  0  0  0
  158.7660  211.2920  155.8970 C   0  0  0  0  0  3  0  0  0  0  0  0
  161.3820  208.2430  151.6310 C   0  0  0  0  0  0  0  0  0  0  0  0
  162.0540  204.6850  151.8670 C   0  0  0  0  0  3  0  0  0  0  0  0
  159.7810  210.7550  154.9040 C   0  0  1  0  0  3  0  0  0  0  0  0
  158.5500  213.6780  155.2040 N   0  0  0  0  0  2  0  0  0  0  0  0
  161.2600  205.7610  149.7400 C   0  0  0  0  0  0  0  0  0  0  0  0
  160.5740  208.5100  154.0530 C   0  0  0  0  0  0  0  0  0  0  0  0
  159.3370  212.3990  153.1630 C   0  0  0  0  0  0  0  0  0  0  0  0
  161.0020  209.1890  152.7630 C   0  0  0  0  0  0  0  0  0  0  0  0
  159.9120  207.3320  156.4790 C   0  0  0  0  0  3  0  0  0  0  0  0
  161.5480  208.1850  149.1230 C   0  0  0  0  0  3  0  0  0  0  0  0
  159.7070  208.6630  156.2750 N   0  0  0  0  0  0  0  0  0  0  0  0
  161.6780  208.8120  150.2990 C   0  0  0  0  0  3  0  0  0  0  0  0
  162.1080  205.9040  150.9730 C   0  0  1  0  0  3  0  0  0  0  0  0
  160.4480  206.5410  155.4620 C   0  0  0  0  0  3  0  0  0  0  0  0
  161.3100  206.3810  153.1590 N   0  0  0  0  0  0  0  0  0  0  0  0
  160.7060  204.5070  149.4380 O   0  0  0  0  0  0  0  0  0  0  0  0
  161.1940  203.6580  148.4030 C   0  0  0  0  0  2  0  0  0  0  0  0
  161.4550  200.7690  146.9420 O   0  0  0  0  0  0  0  0  0  0  0  0
  161.2120  201.3180  149.2250 C   0  0  0  0  0  2  0  0  0  0  0  0
  160.4540  202.3300  148.4160 C   0  0  2  0  0  3  0  0  0  0  0  0
  161.5440  200.2300  148.2330 C   0  0  0  0  0  2  0  0  0  0  0  0
  160.4510  201.7450  147.0220 C   0  0  0  0  0  2  0  0  0  0  0  0
  1 26  1  6  0  0  0
  2 27  1  0  0  0  0
  3  7  1  1  0  0  0
  3 16  1  0  0  0  0
  4 23  2  0  0  0  0
  5 15  1  0  0  0  0
  6  7  1  1  0  0  0
  6 19  1  0  0  0  0
  6  3  1  0  0  0  0
  9 27  1  0  0  0  0
 10 22  1  0  0  0  0
 10 17  2  0  0  0  0
 11 20  1  0  0  0  0
 11  5  1  0  0  0  0
 12  8  2  0  0  0  0
 13  9  2  0  0  0  0
 13 20  1  0  0  0  0
 14  2  2  0  0  0  0
 15  4  1  0  0  0  0
 15 12  1  1  0  0  0
 16  8  1  0  0  0  0
 17 25  1  0  0  0  0
 18  1  1  0  0  0  0
 18  4  1  0  0  0  0
 19  5  2  0  0  0  0
 19  3  1  0  0  0  0
 20 18  2  0  0  0  0
 22 24  2  0  0  0  0
 23 21  1  0  0  0  0
 24 13  1  0  0  0  0
 25 14  1  1  0  0  0
 25  9  1  0  0  0  0
 26 21  2  0  0  0  0
 27  1  1  0  0  0  0
 28 17  1  0  0  0  0
 29 28  1  0  0  0  0
 30 34  1  0  0  0  0
 30 33  1  0  0  0  0
 32 29  1  6  0  0  0
 32 31  1  0  0  0  0
 33 31  1  0  0  0  0
 34 32  1  0  0  0  0
M  END
>  <MODEL>
3

>  <REMARK>
 VINA RESULT:      -8.9      2.280      8.975
  Name = 
  3 active torsions:
  status: ('A' for Active; 'I' for Inactive)
    1  A    between atoms: C_1  and  O_14
    2  A    between atoms: C_1  and  C_18
    3  A    between atoms: O_14  and  C_23
                            x       y       z     vdW  Elec       q    Type
                         _______ _______ _______ _____ _____    ______ ____

>  <TORSDO>
F 3

$$$$
=
 OpenBabel11072414163D

 34 42  0  0  1  0  0  0  0  0999 V2000
  161.8950  208.1010  149.7820 C   0  0  0  0  0  0  0  0  0  0  0  0
  161.9500  210.0410  151.4680 C   0  0  0  0  0  3  0  0  0  0  0  0
  160.9310  201.6320  148.3850 C   0  0  1  0  0  0  0  0  0  0  0  0
  161.7660  206.1140  148.4050 C   0  0  1  0  0  3  0  0  0  0  0  0
  160.9970  203.9580  149.4670 C   0  0  0  0  0  0  0  0  0  0  0  0
  160.5550  201.5400  150.3020 C   0  0  1  0  0  3  0  0  0  0  0  0
  160.8040  200.5710  149.3320 O   0  0  0  0  0  0  0  0  0  0  0  0
  160.9790  202.9670  146.3910 C   0  0  0  0  0  3  0  0  0  0  0  0
  161.7140  207.9150  152.2570 C   0  0  0  0  0  0  0  0  0  0  0  0
  160.1400  207.4830  154.8050 C   0  0  0  0  0  3  0  0  0  0  0  0
  160.7940  204.6980  150.7600 C   0  0  0  0  0  2  0  0  0  0  0  0
  161.1860  204.1970  146.8970 C   0  0  0  0  0  3  0  0  0  0  0  0
  161.6140  206.5780  152.2350 C   0  0  0  0  0  0  0  0  0  0  0  0
  161.8670  210.1550  152.7930 C   0  0  0  0  0  3  0  0  0  0  0  0
  161.6810  204.6080  148.2730 C   0  0  1  0  0  3  0  0  0  0  0  0
  161.0330  201.7170  147.1010 N   0  0  0  0  0  2  0  0  0  0  0  0
  160.4810  208.6630  154.2650 C   0  0  0  0  0  0  0  0  0  0  0  0
  161.8080  206.7050  149.6790 C   0  0  0  0  0  0  0  0  0  0  0  0
  160.8330  202.6500  149.4490 C   0  0  0  0  0  0  0  0  0  0  0  0
  161.8070  205.8310  150.9220 C   0  0  0  0  0  0  0  0  0  0  0  0
  161.9550  208.2610  147.3830 C   0  0  0  0  0  3  0  0  0  0  0  0
  160.8240  206.1900  154.5910 C   0  0  0  0  0  3  0  0  0  0  0  0
  161.8590  206.9050  147.2970 N   0  0  0  0  0  0  0  0  0  0  0  0
  161.4610  205.7960  153.4810 C   0  0  0  0  0  3  0  0  0  0  0  0
  161.7390  208.7990  153.4530 C   0  0  1  0  0  3  0  0  0  0  0  0
  161.9680  208.8860  148.6300 C   0  0  0  0  0  3  0  0  0  0  0  0
  161.8800  208.6780  151.0850 N   0  0  0  0  0  0  0  0  0  0  0  0
  159.7000  209.8040  154.5050 O   0  0  0  0  0  0  0  0  0  0  0  0
  158.9560  210.0130  155.7010 C   0  0  0  0  0  2  0  0  0  0  0  0
  162.0750  210.0800  156.6050 O   0  0  0  0  0  0  0  0  0  0  0  0
  160.5920  211.8390  156.0800 C   0  0  0  0  0  2  0  0  0  0  0  0
  159.8050  210.7400  156.7330 C   0  0  2  0  0  3  0  0  0  0  0  0
  162.0300  211.4530  156.3210 C   0  0  0  0  0  2  0  0  0  0  0  0
  160.8670  209.8030  157.2580 C   0  0  0  0  0  2  0  0  0  0  0  0
  1 27  1  0  0  0  0
  2 14  2  0  0  0  0
  3 16  1  6  0  0  0
  3  7  1  0  0  0  0
  3 19  1  0  0  0  0
  3  6  1  0  0  0  0
  4 23  1  6  0  0  0
  4 18  1  0  0  0  0
  5 11  1  0  0  0  0
  6  7  1  1  0  0  0
  8 12  2  0  0  0  0
  8 16  1  0  0  0  0
  9 25  1  0  0  0  0
 11 20  1  0  0  0  0
 13  9  2  0  0  0  0
 13 24  1  0  0  0  0
 15 12  1  6  0  0  0
 15  4  1  0  0  0  0
 15  5  1  0  0  0  0
 17 28  1  0  0  0  0
 17 10  2  0  0  0  0
 18  1  1  0  0  0  0
 18 20  2  0  0  0  0
 19  5  2  0  0  0  0
 19  6  1  0  0  0  0
 20 13  1  0  0  0  0
 21 26  1  0  0  0  0
 22 10  1  0  0  0  0
 23 21  2  0  0  0  0
 24 22  2  0  0  0  0
 25 14  1  6  0  0  0
 25 17  1  0  0  0  0
 26  1  2  0  0  0  0
 27  2  1  0  0  0  0
 27  9  1  0  0  0  0
 28 29  1  0  0  0  0
 30 34  1  0  0  0  0
 31 33  1  0  0  0  0
 31 32  1  0  0  0  0
 32 29  1  6  0  0  0
 32 34  1  0  0  0  0
 33 30  1  0  0  0  0
M  END
>  <MODEL>
4

>  <REMARK>
 VINA RESULT:      -8.9      1.874      2.692
  Name = 
  3 active torsions:
  status: ('A' for Active; 'I' for Inactive)
    1  A    between atoms: C_1  and  O_14
    2  A    between atoms: C_1  and  C_18
    3  A    between atoms: O_14  and  C_23
                            x       y       z     vdW  Elec       q    Type
                         _______ _______ _______ _____ _____    ______ ____

>  <TORSDO>
F 3

$$$$
=
 OpenBabel11072414163D

 34 42  0  0  1  0  0  0  0  0999 V2000
  160.9180  207.1570  154.0940 C   0  0  1  0  0  3  0  0  0  0  0  0
  161.9250  205.2430  152.7040 C   0  0  0  0  0  3  0  0  0  0  0  0
  158.6230  213.4210  154.5670 C   0  0  1  0  0  0  0  0  0  0  0  0
  159.9670  209.1060  155.1700 C   0  0  0  0  0  0  0  0  0  0  0  0
  159.4390  211.1280  153.7550 C   0  0  0  0  0  0  0  0  0  0  0  0
  159.0740  213.4560  152.6650 C   0  0  1  0  0  3  0  0  0  0  0  0
  158.7660  214.4520  153.5890 O   0  0  0  0  0  0  0  0  0  0  0  0
  158.0060  212.1090  156.4800 C   0  0  0  0  0  3  0  0  0  0  0  0
  161.7660  207.3120  151.7590 C   0  0  0  0  0  0  0  0  0  0  0  0
  161.3610  207.5100  148.7670 C   0  0  0  0  0  3  0  0  0  0  0  0
  159.8930  210.3640  152.5410 C   0  0  0  0  0  2  0  0  0  0  0  0
  158.5650  210.9210  156.1810 C   0  0  0  0  0  3  0  0  0  0  0  0
  161.4920  208.6210  151.6560 C   0  0  0  0  0  0  0  0  0  0  0  0
  162.4200  205.1170  151.4730 C   0  0  0  0  0  3  0  0  0  0  0  0
  159.6390  210.5850  155.1620 C   0  0  1  0  0  3  0  0  0  0  0  0
  158.1890  213.3530  155.7810 N   0  0  0  0  0  2  0  0  0  0  0  0
  161.5950  206.3910  149.4710 C   0  0  0  0  0  0  0  0  0  0  0  0
  160.6150  208.5250  154.0660 C   0  0  0  0  0  0  0  0  0  0  0  0
  159.1130  212.3980  153.6230 C   0  0  0  0  0  0  0  0  0  0  0  0
  161.0190  209.3890  152.8830 C   0  0  0  0  0  0  0  0  0  0  0  0
  159.9890  207.0100  156.3080 C   0  0  0  0  0  3  0  0  0  0  0  0
  161.7170  208.8880  149.1650 C   0  0  0  0  0  3  0  0  0  0  0  0
  159.6900  208.3380  156.2630 N   0  0  0  0  0  0  0  0  0  0  0  0
  161.7740  209.3710  150.4130 C   0  0  0  0  0  3  0  0  0  0  0  0
  162.4040  206.4390  150.7380 C   0  0  1  0  0  3  0  0  0  0  0  0
  160.6040  206.3920  155.2180 C   0  0  0  0  0  3  0  0  0  0  0  0
  161.5250  206.5820  152.9400 N   0  0  0  0  0  0  0  0  0  0  0  0
  161.1420  205.1490  149.0010 O   0  0  0  0  0  0  0  0  0  0  0  0
  160.8600  204.8810  147.6300 C   0  0  0  0  0  2  0  0  0  0  0  0
  160.3820  201.7300  147.0030 O   0  0  0  0  0  0  0  0  0  0  0  0
  161.3870  203.4190  145.6970 C   0  0  0  0  0  2  0  0  0  0  0  0
  161.6860  203.7020  147.1400 C   0  0  2  0  0  3  0  0  0  0  0  0
  160.8290  202.0170  145.7060 C   0  0  0  0  0  2  0  0  0  0  0  0
  161.2370  202.4460  147.8520 C   0  0  0  0  0  2  0  0  0  0  0  0
  1 26  1  6  0  0  0
  2 27  1  0  0  0  0
  3  7  1  1  0  0  0
  3 16  1  0  0  0  0
  4 23  2  0  0  0  0
  5 15  1  0  0  0  0
  6  7  1  1  0  0  0
  6 19  1  0  0  0  0
  6  3  1  0  0  0  0
  9 27  1  0  0  0  0
 10 22  1  0  0  0  0
 10 17  2  0  0  0  0
 11 20  1  0  0  0  0
 11  5  1  0  0  0  0
 12  8  2  0  0  0  0
 13  9  2  0  0  0  0
 13 20  1  0  0  0  0
 14  2  2  0  0  0  0
 15  4  1  0  0  0  0
 15 12  1  1  0  0  0
 16  8  1  0  0  0  0
 17 25  1  0  0  0  0
 18  1  1  0  0  0  0
 18  4  1  0  0  0  0
 19  5  2  0  0  0  0
 19  3  1  0  0  0  0
 20 18  2  0  0  0  0
 22 24  2  0  0  0  0
 23 21  1  0  0  0  0
 24 13  1  0  0  0  0
 25 14  1  1  0  0  0
 25  9  1  0  0  0  0
 26 21  2  0  0  0  0
 27  1  1  0  0  0  0
 28 17  1  0  0  0  0
 29 28  1  0  0  0  0
 30 34  1  0  0  0  0
 31 33  1  0  0  0  0
 31 32  1  0  0  0  0
 32 29  1  1  0  0  0
 32 34  1  0  0  0  0
 33 30  1  0  0  0  0
M  END
>  <MODEL>
5

>  <REMARK>
 VINA RESULT:      -8.7      2.195      8.949
  Name = 
  3 active torsions:
  status: ('A' for Active; 'I' for Inactive)
    1  A    between atoms: C_1  and  O_14
    2  A    between atoms: C_1  and  C_18
    3  A    between atoms: O_14  and  C_23
                            x       y       z     vdW  Elec       q    Type
                         _______ _______ _______ _____ _____    ______ ____

>  <TORSDO>
F 3

$$$$
=
 OpenBabel11072414163D

 34 42  0  0  1  0  0  0  0  0999 V2000
  161.8270  207.5860  148.8310 C   0  0  0  0  0  0  0  0  0  0  0  0
  161.9610  209.8560  150.0290 C   0  0  0  0  0  3  0  0  0  0  0  0
  160.8910  200.9660  148.9960 C   0  0  1  0  0  0  0  0  0  0  0  0
  161.6420  205.3390  147.9480 C   0  0  1  0  0  3  0  0  0  0  0  0
  160.9870  203.4760  149.5200 C   0  0  0  0  0  0  0  0  0  0  0  0
  160.6480  201.3070  150.9060 C   0  0  1  0  0  3  0  0  0  0  0  0
  160.8480  200.1450  150.1640 O   0  0  0  0  0  0  0  0  0  0  0  0
  160.7770  201.8170  146.7540 C   0  0  0  0  0  3  0  0  0  0  0  0
  161.8190  207.9620  151.2910 C   0  0  0  0  0  0  0  0  0  0  0  0
  160.4320  208.1120  153.9760 C   0  0  0  0  0  3  0  0  0  0  0  0
  160.8590  204.4890  150.6250 C   0  0  0  0  0  2  0  0  0  0  0  0
  160.9960  203.1300  146.9560 C   0  0  0  0  0  3  0  0  0  0  0  0
  161.7430  206.6550  151.5770 C   0  0  0  0  0  0  0  0  0  0  0  0
  161.9670  210.2660  151.2980 C   0  0  0  0  0  3  0  0  0  0  0  0
  161.5760  203.8420  148.1650 C   0  0  1  0  0  3  0  0  0  0  0  0
  160.9030  200.7590  147.7220 N   0  0  0  0  0  2  0  0  0  0  0  0
  160.7130  209.1410  153.1610 C   0  0  0  0  0  0  0  0  0  0  0  0
  161.7590  206.2030  149.0510 C   0  0  0  0  0  0  0  0  0  0  0  0
  160.8470  202.1980  149.8080 C   0  0  0  0  0  0  0  0  0  0  0  0
  161.8590  205.6320  150.4550 C   0  0  0  0  0  0  0  0  0  0  0  0
  161.7200  207.2000  146.4590 C   0  0  0  0  0  3  0  0  0  0  0  0
  161.1230  206.8060  154.0100 C   0  0  0  0  0  3  0  0  0  0  0  0
  161.6440  205.8600  146.6880 N   0  0  0  0  0  0  0  0  0  0  0  0
  161.6900  206.1740  152.9750 C   0  0  0  0  0  3  0  0  0  0  0  0
  161.9090  209.0940  152.2520 C   0  0  1  0  0  3  0  0  0  0  0  0
  161.8060  208.0910  147.5300 C   0  0  0  0  0  3  0  0  0  0  0  0
  161.8910  208.4420  149.9680 N   0  0  0  0  0  0  0  0  0  0  0  0
  159.9290  210.3050  153.1930 O   0  0  0  0  0  0  0  0  0  0  0  0
  159.6040  211.0040  154.3910 C   0  0  0  0  0  2  0  0  0  0  0  0
  158.0730  212.9450  152.2830 O   0  0  0  0  0  0  0  0  0  0  0  0
  158.1950  213.0300  154.6390 C   0  0  0  0  0  2  0  0  0  0  0  0
  159.4990  212.4970  154.1210 C   0  0  2  0  0  3  0  0  0  0  0  0
  157.4980  213.5550  153.4080 C   0  0  0  0  0  2  0  0  0  0  0  0
  159.4150  212.7320  152.6300 C   0  0  0  0  0  2  0  0  0  0  0  0
  1 18  1  0  0  0  0
  1 27  1  0  0  0  0
  2 14  2  0  0  0  0
  3 16  1  6  0  0  0
  3 19  1  0  0  0  0
  3  7  1  0  0  0  0
  3  6  1  0  0  0  0
  4 23  1  6  0  0  0
  4 15  1  0  0  0  0
  4 18  1  0  0  0  0
  5 19  2  0  0  0  0
  5 11  1  0  0  0  0
  6 19  1  1  0  0  0
  7  6  1  0  0  0  0
  8 12  2  0  0  0  0
  8 16  1  0  0  0  0
  9 13  2  0  0  0  0
  9 25  1  0  0  0  0
 10 22  1  0  0  0  0
 13 24  1  0  0  0  0
 15 12  1  6  0  0  0
 15  5  1  0  0  0  0
 17 28  1  0  0  0  0
 17 10  2  0  0  0  0
 18 20  2  0  0  0  0
 20 11  1  0  0  0  0
 20 13  1  0  0  0  0
 21 23  2  0  0  0  0
 21 26  1  0  0  0  0
 24 22  2  0  0  0  0
 25 14  1  6  0  0  0
 25 17  1  0  0  0  0
 26  1  2  0  0  0  0
 27  2  1  0  0  0  0
 27  9  1  0  0  0  0
 28 29  1  0  0  0  0
 30 34  1  0  0  0  0
 30 33  1  0  0  0  0
 32 29  1  6  0  0  0
 32 31  1  0  0  0  0
 33 31  1  0  0  0  0
 34 32  1  0  0  0  0
M  END
>  <MODEL>
6

>  <REMARK>
 VINA RESULT:      -8.3      1.548      2.675
  Name = 
  3 active torsions:
  status: ('A' for Active; 'I' for Inactive)
    1  A    between atoms: C_1  and  O_14
    2  A    between atoms: C_1  and  C_18
    3  A    between atoms: O_14  and  C_23
                            x       y       z     vdW  Elec       q    Type
                         _______ _______ _______ _____ _____    ______ ____

>  <TORSDO>
F 3

$$$$
=
 OpenBabel11072414163D

 34 42  0  0  1  0  0  0  0  0999 V2000
  161.5270  208.4980  149.5560 C   0  0  1  0  0  3  0  0  0  0  0  0
  161.3920  207.1830  147.3510 C   0  0  0  0  0  3  0  0  0  0  0  0
  161.2470  208.7030  156.2350 C   0  0  1  0  0  0  0  0  0  0  0  0
  161.6120  209.4960  151.7600 C   0  0  0  0  0  0  0  0  0  0  0  0
  161.4040  207.9910  153.7750 C   0  0  0  0  0  0  0  0  0  0  0  0
  160.9120  206.7890  156.0230 C   0  0  1  0  0  3  0  0  0  0  0  0
  160.7730  207.6670  157.0950 O   0  0  0  0  0  0  0  0  0  0  0  0
  162.2190  210.7030  155.3310 C   0  0  0  0  0  3  0  0  0  0  0  0
  160.8020  206.1320  149.2870 C   0  0  0  0  0  0  0  0  0  0  0  0
  161.2500  203.1480  149.5110 C   0  0  0  0  0  3  0  0  0  0  0  0
  161.3350  206.8060  152.8500 C   0  0  0  0  0  2  0  0  0  0  0  0
  162.1680  210.4520  154.0100 C   0  0  0  0  0  3  0  0  0  0  0  0
  160.5630  205.9670  150.5960 C   0  0  0  0  0  0  0  0  0  0  0  0
  161.0440  205.9450  146.9990 C   0  0  0  0  0  3  0  0  0  0  0  0
  161.3550  209.4180  153.2500 C   0  0  1  0  0  3  0  0  0  0  0  0
  161.6130  209.9320  156.3840 N   0  0  0  0  0  2  0  0  0  0  0  0
  161.4230  203.9040  148.4150 C   0  0  0  0  0  0  0  0  0  0  0  0
  161.2890  208.4050  150.9350 C   0  0  0  0  0  0  0  0  0  0  0  0
  161.2300  207.8010  155.0670 C   0  0  0  0  0  0  0  0  0  0  0  0
  160.6470  207.1650  151.5330 C   0  0  0  0  0  0  0  0  0  0  0  0
  162.3300  210.7450  149.8590 C   0  0  0  0  0  3  0  0  0  0  0  0
  160.3790  203.4600  150.6630 C   0  0  0  0  0  3  0  0  0  0  0  0
  162.1050  210.6370  151.1970 N   0  0  0  0  0  0  0  0  0  0  0  0
  160.0800  204.6770  151.1340 C   0  0  0  0  0  3  0  0  0  0  0  0
  160.5940  205.1400  148.1990 C   0  0  1  0  0  3  0  0  0  0  0  0
  162.0510  209.6710  149.0120 C   0  0  0  0  0  3  0  0  0  0  0  0
  161.2420  207.3580  148.7500 N   0  0  0  0  0  0  0  0  0  0  0  0
  162.3360  203.5160  147.4230 O   0  0  0  0  0  0  0  0  0  0  0  0
  161.9630  202.8200  146.2370 C   0  0  0  0  0  2  0  0  0  0  0  0
  160.4560  200.3870  144.7010 O   0  0  0  0  0  0  0  0  0  0  0  0
  161.3810  200.4930  146.8700 C   0  0  0  0  0  2  0  0  0  0  0  0
  160.8310  201.8470  146.5270 C   0  0  2  0  0  3  0  0  0  0  0  0
  160.8310  199.5910  145.7930 C   0  0  0  0  0  2  0  0  0  0  0  0
  160.0430  201.6040  145.2610 C   0  0  0  0  0  2  0  0  0  0  0  0
  1 26  1  1  0  0  0
  1 18  1  0  0  0  0
  2 27  1  0  0  0  0
  3 19  1  6  0  0  0
  3 16  1  0  0  0  0
  3  7  1  0  0  0  0
  4 15  1  0  0  0  0
  5 19  2  0  0  0  0
  6 19  1  6  0  0  0
  6  3  1  0  0  0  0
  6  7  1  0  0  0  0
  8 16  1  0  0  0  0
  9 13  2  0  0  0  0
 10 22  1  0  0  0  0
 11  5  1  0  0  0  0
 12  8  2  0  0  0  0
 13 24  1  0  0  0  0
 13 20  1  0  0  0  0
 14  2  2  0  0  0  0
 15  5  1  0  0  0  0
 15 12  1  1  0  0  0
 17 10  2  0  0  0  0
 18 20  2  0  0  0  0
 18  4  1  0  0  0  0
 20 11  1  0  0  0  0
 21 23  1  0  0  0  0
 22 24  2  0  0  0  0
 23  4  2  0  0  0  0
 25 14  1  6  0  0  0
 25 17  1  0  0  0  0
 25  9  1  0  0  0  0
 26 21  2  0  0  0  0
 27  9  1  0  0  0  0
 27  1  1  0  0  0  0
 28 17  1  0  0  0  0
 29 28  1  0  0  0  0
 30 34  1  0  0  0  0
 30 33  1  0  0  0  0
 32 29  1  6  0  0  0
 32 31  1  0  0  0  0
 33 31  1  0  0  0  0
 34 32  1  0  0  0  0
M  END
>  <MODEL>
7

>  <REMARK>
 VINA RESULT:      -7.9      2.798      8.651
  Name = 
  3 active torsions:
  status: ('A' for Active; 'I' for Inactive)
    1  A    between atoms: C_1  and  O_14
    2  A    between atoms: C_1  and  C_18
    3  A    between atoms: O_14  and  C_23
                            x       y       z     vdW  Elec       q    Type
                         _______ _______ _______ _____ _____    ______ ____

>  <TORSDO>
F 3

$$$$
=
 OpenBabel11072414163D

 34 42  0  0  1  0  0  0  0  0999 V2000
  160.8280  204.9350  151.9790 C   0  0  0  0  0  0  0  0  0  0  0  0
  160.8740  206.5130  154.0080 C   0  0  0  0  0  3  0  0  0  0  0  0
  161.3710  203.9070  145.3930 C   0  0  1  0  0  0  0  0  0  0  0  0
  160.8470  203.6680  149.9160 C   0  0  1  0  0  3  0  0  0  0  0  0
  161.4440  204.8610  147.7740 C   0  0  0  0  0  0  0  0  0  0  0  0
  161.7030  205.8340  145.3810 C   0  0  1  0  0  3  0  0  0  0  0  0
  161.4070  204.9110  144.3790 O   0  0  0  0  0  0  0  0  0  0  0  0
  161.4550  201.8440  146.6170 C   0  0  0  0  0  3  0  0  0  0  0  0
  160.9480  207.4200  151.9170 C   0  0  0  0  0  0  0  0  0  0  0  0
  162.4380  210.0230  151.5190 C   0  0  0  0  0  3  0  0  0  0  0  0
  161.6730  206.1180  148.5680 C   0  0  0  0  0  2  0  0  0  0  0  0
  161.3220  202.2790  147.8850 C   0  0  0  0  0  3  0  0  0  0  0  0
  160.9560  207.4710  150.5770 C   0  0  0  0  0  0  0  0  0  0  0  0
  160.9380  207.8320  154.1880 C   0  0  0  0  0  3  0  0  0  0  0  0
  160.8300  203.6190  148.4020 C   0  0  1  0  0  3  0  0  0  0  0  0
  161.3000  202.6180  145.4140 N   0  0  0  0  0  2  0  0  0  0  0  0
  162.1900  209.4130  152.6890 C   0  0  0  0  0  0  0  0  0  0  0  0
  160.8210  204.9080  150.5780 C   0  0  0  0  0  0  0  0  0  0  0  0
  161.5180  204.9170  146.4590 C   0  0  0  0  0  0  0  0  0  0  0  0
  160.7380  206.1950  149.7750 C   0  0  0  0  0  0  0  0  0  0  0  0
  160.8260  202.5300  152.0110 C   0  0  0  0  0  3  0  0  0  0  0  0
  161.6710  209.8620  150.2660 C   0  0  0  0  0  3  0  0  0  0  0  0
  160.8300  202.5190  150.6500 N   0  0  0  0  0  0  0  0  0  0  0  0
  161.0300  208.7600  149.8560 C   0  0  0  0  0  3  0  0  0  0  0  0
  160.9600  208.5660  152.8650 C   0  0  1  0  0  3  0  0  0  0  0  0
  160.8320  203.7410  152.7040 C   0  0  0  0  0  3  0  0  0  0  0  0
  160.8570  206.2050  152.6250 N   0  0  0  0  0  0  0  0  0  0  0  0
  163.0430  209.6100  153.7860 O   0  0  0  0  0  0  0  0  0  0  0  0
  162.9290  210.7080  154.6860 C   0  0  0  0  0  2  0  0  0  0  0  0
  161.6440  212.2160  157.2600 O   0  0  0  0  0  0  0  0  0  0  0  0
  160.6290  211.4200  155.2830 C   0  0  0  0  0  2  0  0  0  0  0  0
  161.7600  210.4970  155.6350 C   0  0  2  0  0  3  0  0  0  0  0  0
  160.4580  212.2750  156.5140 C   0  0  0  0  0  2  0  0  0  0  0  0
  162.1590  210.9330  157.0260 C   0  0  0  0  0  2  0  0  0  0  0  0
  1 27  1  0  0  0  0
  1 26  2  0  0  0  0
  2 14  2  0  0  0  0
  3  7  1  6  0  0  0
  3 16  1  0  0  0  0
  3 19  1  0  0  0  0
  4 18  1  1  0  0  0
  4 23  1  0  0  0  0
  5 15  1  0  0  0  0
  5 11  1  0  0  0  0
  6  7  1  6  0  0  0
  6  3  1  0  0  0  0
  6 19  1  0  0  0  0
  8 12  2  0  0  0  0
  9 27  1  0  0  0  0
  9 25  1  0  0  0  0
 10 17  2  0  0  0  0
 11 20  1  0  0  0  0
 13  9  2  0  0  0  0
 15 12  1  1  0  0  0
 15  4  1  0  0  0  0
 16  8  1  0  0  0  0
 17 25  1  0  0  0  0
 17 28  1  0  0  0  0
 18  1  1  0  0  0  0
 19  5  2  0  0  0  0
 20 13  1  0  0  0  0
 20 18  2  0  0  0  0
 21 26  1  0  0  0  0
 22 10  1  0  0  0  0
 23 21  2  0  0  0  0
 24 22  2  0  0  0  0
 24 13  1  0  0  0  0
 25 14  1  1  0  0  0
 27  2  1  0  0  0  0
 28 29  1  0  0  0  0
 31 32  1  0  0  0  0
 31 33  1  0  0  0  0
 32 29  1  6  0  0  0
 32 34  1  0  0  0  0
 33 30  1  0  0  0  0
 34 30  1  0  0  0  0
M  END
>  <MODEL>
8

>  <REMARK>
 VINA RESULT:      -7.4      2.601      4.618
  Name = 
  3 active torsions:
  status: ('A' for Active; 'I' for Inactive)
    1  A    between atoms: C_1  and  O_14
    2  A    between atoms: C_1  and  C_18
    3  A    between atoms: O_14  and  C_23
                            x       y       z     vdW  Elec       q    Type
                         _______ _______ _______ _____ _____    ______ ____

>  <TORSDO>
F 3

$$$$
