=
 OpenBabel11072414293D

 69 76  0  0  1  0  0  0  0  0999 V2000
  162.3040  209.0650  149.2120 O   0  0  0  0  0  0  0  0  0  0  0  0
  161.7950  207.9160  149.1330 C   0  0  0  0  0  0  0  0  0  0  0  0
  161.8740  207.2150  147.8870 N   0  0  0  0  0  2  0  0  0  0  0  0
  161.1060  207.3340  150.3340 C   0  0  0  0  0  0  0  0  0  0  0  0
  159.9990  206.3400  150.0280 C   0  0  0  0  0  2  0  0  0  0  0  0
  161.3340  205.8450  150.5480 C   0  0  0  0  0  2  0  0  0  0  0  0
  161.1800  208.0320  156.8280 O   0  0  0  0  0  1  0  0  0  0  0  0
  160.8420  210.8950  157.0600 C   0  0  0  0  0  2  0  0  0  0  0  0
  162.0460  208.1040  154.5990 C   0  0  0  0  0  2  0  0  0  0  0  0
  157.5200  213.9850  153.5760 O   0  0  0  0  0  0  0  0  0  0  0  0
  158.4300  213.4210  154.2450 C   0  0  0  0  0  0  0  0  0  0  0  0
  159.3970  212.6480  153.5950 O   0  0  0  0  0  0  0  0  0  0  0  0
  160.9250  208.1960  151.5920 C   0  0  2  0  0  3  0  0  0  0  0  0
  160.3030  212.2380  156.6900 C   0  0  0  0  0  3  0  0  0  0  0  0
  160.2280  209.3810  151.3040 O   0  0  0  0  0  0  0  0  0  0  0  0
  162.1750  208.5060  152.1650 O   0  0  0  0  0  0  0  0  0  0  0  0
  159.0220  212.3530  156.3510 C   0  0  0  0  0  3  0  0  0  0  0  0
  160.2190  210.0930  154.8540 O   0  0  0  0  0  0  0  0  0  0  0  0
  160.7920  210.1090  153.5630 C   0  0  1  0  0  3  0  0  0  0  0  0
  159.1960  212.1220  152.2870 C   0  0  2  0  0  3  0  0  0  0  0  0
  161.9810  209.1000  153.4350 C   0  0  1  0  0  3  0  0  0  0  0  0
  158.5040  213.6100  155.7400 C   0  0  2  0  0  3  0  0  0  0  0  0
  161.9340  208.8230  155.9570 C   0  0  1  0  0  3  0  0  0  0  0  0
  158.6960  210.7920  152.3440 O   0  0  0  0  0  0  0  0  0  0  0  0
  161.2760  210.1990  155.7730 C   0  0  2  0  0  3  0  0  0  0  0  0
  157.1330  213.9070  156.3250 C   0  0  0  0  0  1  0  0  0  0  0  0
  159.6940  209.7910  152.5310 C   0  0  1  0  0  3  0  0  0  0  0  0
  160.4170  212.3200  151.3840 C   0  0  0  0  0  2  0  0  0  0  0  0
  162.2990  212.0190  147.7810 C   0  0  0  0  0  2  0  0  0  0  0  0
  160.1420  213.3700  150.3590 C   0  0  0  0  0  0  0  0  0  0  0  0
  160.9570  211.8750  148.4950 C   0  0  0  0  0  2  0  0  0  0  0  0
  163.4640  213.3500  145.9060 C   0  0  0  0  0  1  0  0  0  0  0  0
  160.5260  213.1800  148.9880 N   0  0  0  0  0  0  0  0  0  0  0  0
  162.3460  213.2310  146.8820 C   0  0  0  0  0  0  0  0  0  0  0  0
  160.3620  214.2560  148.0140 C   0  0  0  0  0  2  0  0  0  0  0  0
  159.6090  214.4530  150.7240 O   0  0  0  0  0  0  0  0  0  0  0  0
  161.5080  214.2710  147.0380 C   0  0  0  0  0  3  0  0  0  0  0  0
  161.2450  205.9280  147.6030 C   0  0  1  0  0  3  0  0  0  0  0  0
  160.7950  205.8750  146.1680 C   0  0  0  0  0  0  0  0  0  0  0  0
  159.7220  206.3580  145.8420 O   0  0  0  0  0  0  0  0  0  0  0  0
  161.6570  205.2410  145.1240 C   0  0  2  0  0  3  0  0  0  0  0  0
  162.9810  205.6610  145.2740 O   0  0  0  0  0  1  0  0  0  0  0  0
  161.1450  205.5830  143.7340 C   0  0  0  0  0  2  0  0  0  0  0  0
  162.1350  206.4750  143.0100 C   0  0  0  0  0  2  0  0  0  0  0  0
  161.4170  205.2920  141.0770 O   0  0  0  0  0  0  0  0  0  0  0  0
  161.9490  206.3350  141.5410 C   0  0  0  0  0  0  0  0  0  0  0  0
  162.3860  207.3550  140.6920 O   0  0  0  0  0  0  0  0  0  0  0  0
  162.4590  207.1790  139.2860 C   0  0  0  0  0  1  0  0  0  0  0  0
  162.1600  204.7520  147.9530 C   0  0  0  0  0  2  0  0  0  0  0  0
  161.2490  198.6530  145.4350 C   0  0  0  0  0  3  0  0  0  0  0  0
  162.0810  199.0840  146.3970 C   0  0  0  0  0  3  0  0  0  0  0  0
  162.3490  202.4990  149.0340 C   0  0  0  0  0  2  0  0  0  0  0  0
  159.8930  201.9810  147.5650 C   0  0  1  0  0  0  0  0  0  0  0  0
  160.7120  200.6910  147.7610 C   0  0  2  0  0  0  0  0  0  0  0  0
  161.3950  203.4880  148.3120 C   0  0  2  0  0  3  0  0  0  0  0  0
  161.7060  201.2730  149.7830 C   0  0  2  0  0  3  0  0  0  0  0  0
  160.1320  199.4310  144.7690 C   0  0  0  0  0  2  0  0  0  0  0  0
  159.8280  200.8090  145.3570 C   0  0  0  0  0  2  0  0  0  0  0  0
  160.7190  200.4410  149.1420 O   0  0  0  0  0  0  0  0  0  0  0  0
  162.0400  200.4570  146.9980 C   0  0  0  0  0  2  0  0  0  0  0  0
  160.8060  202.9560  147.1320 O   0  0  0  0  0  0  0  0  0  0  0  0
  159.4840  200.7060  146.8420 C   0  0  2  0  0  3  0  0  0  0  0  0
  159.3440  202.9340  149.7470 F   0  0  0  0  0  0  0  0  0  0  0  0
  158.8060  202.4220  148.5750 C   0  0  2  0  0  3  0  0  0  0  0  0
  157.8970  201.2530  148.9080 C   0  0  0  0  0  1  0  0  0  0  0  0
  162.5410  201.1940  152.1650 C   0  0  0  0  0  1  0  0  0  0  0  0
  161.3870  201.5600  151.2500 C   0  0  1  0  0  3  0  0  0  0  0  0
  161.1980  203.6070  152.5950 C   0  0  0  0  0  2  0  0  0  0  0  0
  161.0100  202.9940  151.4280 C   0  0  0  0  0  3  0  0  0  0  0  0
  2  1  2  0  0  0  0
  2  4  1  0  0  0  0
  3  2  1  0  0  0  0
  4  6  1  0  0  0  0
  5  4  1  0  0  0  0
  5  6  1  0  0  0  0
  9 23  1  0  0  0  0
 10 11  2  0  0  0  0
 11 22  1  0  0  0  0
 12 11  1  0  0  0  0
 13  4  1  6  0  0  0
 13 16  1  0  0  0  0
 14  8  1  0  0  0  0
 15 13  1  0  0  0  0
 16 21  1  0  0  0  0
 17 14  2  0  0  0  0
 18 25  1  0  0  0  0
 19 18  1  1  0  0  0
 20 28  1  6  0  0  0
 20 24  1  0  0  0  0
 20 12  1  0  0  0  0
 21 19  1  0  0  0  0
 21  9  1  1  0  0  0
 22 26  1  1  0  0  0
 22 17  1  0  0  0  0
 23  7  1  1  0  0  0
 24 27  1  0  0  0  0
 25 23  1  0  0  0  0
 25  8  1  1  0  0  0
 27 15  1  6  0  0  0
 27 19  1  0  0  0  0
 29 31  1  0  0  0  0
 30 36  2  0  0  0  0
 30 28  1  0  0  0  0
 31 33  1  0  0  0  0
 32 34  1  0  0  0  0
 33 30  1  0  0  0  0
 34 37  2  0  0  0  0
 34 29  1  0  0  0  0
 35 33  1  0  0  0  0
 37 35  1  0  0  0  0
 38  3  1  0  0  0  0
 38 49  1  6  0  0  0
 39 38  1  0  0  0  0
 40 39  2  0  0  0  0
 41 42  1  6  0  0  0
 41 39  1  0  0  0  0
 43 41  1  0  0  0  0
 44 43  1  0  0  0  0
 45 46  2  0  0  0  0
 46 44  1  0  0  0  0
 47 46  1  0  0  0  0
 48 47  1  0  0  0  0
 50 51  2  0  0  0  0
 51 60  1  0  0  0  0
 52 56  1  0  0  0  0
 53 54  1  0  0  0  0
 53 64  1  1  0  0  0
 54 60  1  6  0  0  0
 54 59  1  0  0  0  0
 55 49  1  6  0  0  0
 55 52  1  0  0  0  0
 56 67  1  1  0  0  0
 57 58  1  0  0  0  0
 57 50  1  0  0  0  0
 59 56  1  0  0  0  0
 61 53  1  0  0  0  0
 61 55  1  0  0  0  0
 62 58  1  6  0  0  0
 62 53  1  0  0  0  0
 62 54  1  0  0  0  0
 64 65  1  1  0  0  0
 64 63  1  0  0  0  0
 67 69  1  0  0  0  0
 67 66  1  1  0  0  0
 69 68  2  0  0  0  0
M  END
>  <MODEL>
1

>  <REMARK>
 VINA RESULT:       3.8      0.000      0.000
  Name = 
  16 active torsions:
  status: ('A' for Active; 'I' for Inactive)
    1  A    between atoms: C_4  and  C_67
    2  A    between atoms: C_10  and  C_45
    3  A    between atoms: C_10  and  C_59
    4  A    between atoms: C_18  and  C_19
    5  A    between atoms: C_19  and  C_37
    6  A    between atoms: C_21  and  C_52
    7  A    between atoms: C_21  and  C_59
    8  A    between atoms: C_22  and  C_45
    9  A    between atoms: C_22  and  C_49
   10  A    between atoms: C_22  and  N_60
   11  A    between atoms: C_23  and  C_29
   12  A    between atoms: C_25  and  C_49
   13  A    between atoms: C_27  and  C_36
   14  A    between atoms: C_36  and  C_57
   15  A    between atoms: C_47  and  C_67
   16  A    between atoms: O_50  and  C_52
                            x       y       z     vdW  Elec       q    Type
                         _______ _______ _______ _____ _____    ______ ____

>  <TORSDO>
F 16

$$$$
=
 OpenBabel11072414293D

 69 76  0  0  1  0  0  0  0  0999 V2000
  162.8040  208.6480  148.7640 O   0  0  0  0  0  0  0  0  0  0  0  0
  162.2040  207.5710  148.5050 C   0  0  0  0  0  0  0  0  0  0  0  0
  162.4310  206.9460  147.2360 N   0  0  0  0  0  2  0  0  0  0  0  0
  161.2580  206.9950  149.5190 C   0  0  0  0  0  0  0  0  0  0  0  0
  160.0260  206.3170  148.9460 C   0  0  0  0  0  2  0  0  0  0  0  0
  161.1540  205.4770  149.5140 C   0  0  0  0  0  2  0  0  0  0  0  0
  160.4250  206.7710  155.9940 O   0  0  0  0  0  1  0  0  0  0  0  0
  160.7530  209.5650  156.6700 C   0  0  0  0  0  2  0  0  0  0  0  0
  161.6380  206.9110  153.9360 C   0  0  0  0  0  2  0  0  0  0  0  0
  158.8950  213.8590  153.3800 O   0  0  0  0  0  0  0  0  0  0  0  0
  159.5190  212.9910  154.0510 C   0  0  0  0  0  0  0  0  0  0  0  0
  160.3660  212.0850  153.4050 O   0  0  0  0  0  0  0  0  0  0  0  0
  161.0850  207.6980  150.8740 C   0  0  2  0  0  3  0  0  0  0  0  0
  160.6220  211.0390  156.4720 C   0  0  0  0  0  3  0  0  0  0  0  0
  160.7510  209.0520  150.7080 O   0  0  0  0  0  0  0  0  0  0  0  0
  162.2600  207.5870  151.6440 O   0  0  0  0  0  0  0  0  0  0  0  0
  159.4800  211.5320  156.0000 C   0  0  0  0  0  3  0  0  0  0  0  0
  160.3280  209.2590  154.2980 O   0  0  0  0  0  0  0  0  0  0  0  0
  161.0930  209.2950  153.1120 C   0  0  1  0  0  3  0  0  0  0  0  0
  160.2620  211.8110  152.0110 C   0  0  2  0  0  3  0  0  0  0  0  0
  162.0080  208.0360  152.9630 C   0  0  1  0  0  3  0  0  0  0  0  0
  159.3890  212.9520  155.5540 C   0  0  2  0  0  3  0  0  0  0  0  0
  161.4800  207.4450  155.3740 C   0  0  1  0  0  3  0  0  0  0  0  0
  159.4540  210.6640  151.7760 O   0  0  0  0  0  0  0  0  0  0  0  0
  161.2120  208.9570  155.3480 C   0  0  2  0  0  3  0  0  0  0  0  0
  158.0530  213.5180  156.0050 C   0  0  0  0  0  1  0  0  0  0  0  0
  160.1370  209.4200  151.9110 C   0  0  1  0  0  3  0  0  0  0  0  0
  161.6270  211.7990  151.3150 C   0  0  0  0  0  2  0  0  0  0  0  0
  158.4880  214.1140  150.1320 C   0  0  0  0  0  2  0  0  0  0  0  0
  161.4710  212.0780  149.8570 C   0  0  0  0  0  0  0  0  0  0  0  0
  160.0030  214.0790  150.3150 C   0  0  0  0  0  2  0  0  0  0  0  0
  156.6720  214.4210  148.3280 C   0  0  0  0  0  1  0  0  0  0  0  0
  160.5830  213.1070  149.3940 N   0  0  0  0  0  0  0  0  0  0  0  0
  158.0830  214.1010  148.6770 C   0  0  0  0  0  0  0  0  0  0  0  0
  160.3440  213.2950  147.9660 C   0  0  0  0  0  2  0  0  0  0  0  0
  162.0970  211.3600  149.0300 O   0  0  0  0  0  0  0  0  0  0  0  0
  158.9080  213.6650  147.7090 C   0  0  0  0  0  3  0  0  0  0  0  0
  161.7370  205.7600  146.7440 C   0  0  1  0  0  3  0  0  0  0  0  0
  161.0530  206.0620  145.4390 C   0  0  0  0  0  0  0  0  0  0  0  0
  160.0720  206.7870  145.4110 O   0  0  0  0  0  0  0  0  0  0  0  0
  161.5710  205.4870  144.1590 C   0  0  2  0  0  3  0  0  0  0  0  0
  162.9060  205.1040  144.3100 O   0  0  0  0  0  1  0  0  0  0  0  0
  161.4320  206.4950  143.0300 C   0  0  0  0  0  2  0  0  0  0  0  0
  161.8370  205.8690  141.7090 C   0  0  0  0  0  2  0  0  0  0  0  0
  163.3210  207.5220  140.8600 O   0  0  0  0  0  0  0  0  0  0  0  0
  162.2100  206.9380  140.7450 C   0  0  0  0  0  0  0  0  0  0  0  0
  161.3150  207.2970  139.7340 O   0  0  0  0  0  0  0  0  0  0  0  0
  161.2500  208.6200  139.2250 C   0  0  0  0  0  1  0  0  0  0  0  0
  162.6720  204.5530  146.6290 C   0  0  0  0  0  2  0  0  0  0  0  0
  159.4840  202.6630  152.1620 C   0  0  0  0  0  3  0  0  0  0  0  0
  159.0070  202.9920  150.9500 C   0  0  0  0  0  3  0  0  0  0  0  0
  160.5510  203.2520  146.9210 C   0  0  0  0  0  2  0  0  0  0  0  0
  162.0850  201.8950  148.9860 C   0  0  1  0  0  0  0  0  0  0  0  0
  160.5820  201.9070  149.3200 C   0  0  2  0  0  0  0  0  0  0  0  0
  162.0760  203.2790  147.2050 C   0  0  2  0  0  3  0  0  0  0  0  0
  159.7890  201.8910  147.1330 C   0  0  2  0  0  3  0  0  0  0  0  0
  160.9320  202.4520  152.5540 C   0  0  0  0  0  2  0  0  0  0  0  0
  161.9480  202.4780  151.4130 C   0  0  0  0  0  2  0  0  0  0  0  0
  159.9590  201.1210  148.3380 O   0  0  0  0  0  0  0  0  0  0  0  0
  159.8600  203.2130  149.7380 C   0  0  0  0  0  2  0  0  0  0  0  0
  162.4030  203.2040  148.5880 O   0  0  0  0  0  0  0  0  0  0  0  0
  161.6100  201.4300  150.3550 C   0  0  2  0  0  3  0  0  0  0  0  0
  162.0530  199.5370  148.3430 F   0  0  0  0  0  0  0  0  0  0  0  0
  162.7410  200.7330  148.1980 C   0  0  2  0  0  3  0  0  0  0  0  0
  164.1780  200.5440  148.6480 C   0  0  0  0  0  1  0  0  0  0  0  0
  159.6710  201.8690  144.6100 C   0  0  0  0  0  1  0  0  0  0  0  0
  159.7300  201.0280  145.8730 C   0  0  1  0  0  3  0  0  0  0  0  0
  160.8020  198.9180  145.2150 C   0  0  0  0  0  2  0  0  0  0  0  0
  160.8960  200.0950  145.8290 C   0  0  0  0  0  3  0  0  0  0  0  0
  2  1  2  0  0  0  0
  2  4  1  0  0  0  0
  3  2  1  0  0  0  0
  5  6  1  0  0  0  0
  5  4  1  0  0  0  0
  6  4  1  0  0  0  0
  9 23  1  0  0  0  0
 10 11  2  0  0  0  0
 11 22  1  0  0  0  0
 12 11  1  0  0  0  0
 13  4  1  6  0  0  0
 13 16  1  0  0  0  0
 14  8  1  0  0  0  0
 15 13  1  0  0  0  0
 16 21  1  0  0  0  0
 17 14  2  0  0  0  0
 18 25  1  0  0  0  0
 19 18  1  1  0  0  0
 20 28  1  1  0  0  0
 20 12  1  0  0  0  0
 21 19  1  0  0  0  0
 21  9  1  1  0  0  0
 22 17  1  0  0  0  0
 22 26  1  6  0  0  0
 23  7  1  6  0  0  0
 24 27  1  0  0  0  0
 24 20  1  0  0  0  0
 25 23  1  0  0  0  0
 25  8  1  1  0  0  0
 27 15  1  6  0  0  0
 27 19  1  0  0  0  0
 29 31  1  0  0  0  0
 30 28  1  0  0  0  0
 32 34  1  0  0  0  0
 33 30  1  0  0  0  0
 33 31  1  0  0  0  0
 34 29  1  0  0  0  0
 35 33  1  0  0  0  0
 36 30  2  0  0  0  0
 37 35  1  0  0  0  0
 37 34  2  0  0  0  0
 38 49  1  6  0  0  0
 38  3  1  0  0  0  0
 39 38  1  0  0  0  0
 40 39  2  0  0  0  0
 41 42  1  1  0  0  0
 41 39  1  0  0  0  0
 43 41  1  0  0  0  0
 44 43  1  0  0  0  0
 46 45  2  0  0  0  0
 46 44  1  0  0  0  0
 47 46  1  0  0  0  0
 48 47  1  0  0  0  0
 50 57  1  0  0  0  0
 51 50  2  0  0  0  0
 52 56  1  0  0  0  0
 52 55  1  0  0  0  0
 53 64  1  6  0  0  0
 53 54  1  0  0  0  0
 53 62  1  0  0  0  0
 54 60  1  1  0  0  0
 54 62  1  0  0  0  0
 55 49  1  1  0  0  0
 55 61  1  0  0  0  0
 56 67  1  6  0  0  0
 56 59  1  0  0  0  0
 58 57  1  0  0  0  0
 59 54  1  0  0  0  0
 60 51  1  0  0  0  0
 61 53  1  0  0  0  0
 62 58  1  1  0  0  0
 64 63  1  0  0  0  0
 64 65  1  1  0  0  0
 67 66  1  6  0  0  0
 68 69  2  0  0  0  0
 69 67  1  0  0  0  0
M  END
>  <MODEL>
2

>  <REMARK>
 VINA RESULT:       5.9      1.433      3.394
  Name = 
  16 active torsions:
  status: ('A' for Active; 'I' for Inactive)
    1  A    between atoms: C_4  and  C_67
    2  A    between atoms: C_10  and  C_45
    3  A    between atoms: C_10  and  C_59
    4  A    between atoms: C_18  and  C_19
    5  A    between atoms: C_19  and  C_37
    6  A    between atoms: C_21  and  C_52
    7  A    between atoms: C_21  and  C_59
    8  A    between atoms: C_22  and  C_45
    9  A    between atoms: C_22  and  C_49
   10  A    between atoms: C_22  and  N_60
   11  A    between atoms: C_23  and  C_29
   12  A    between atoms: C_25  and  C_49
   13  A    between atoms: C_27  and  C_36
   14  A    between atoms: C_36  and  C_57
   15  A    between atoms: C_47  and  C_67
   16  A    between atoms: O_50  and  C_52
                            x       y       z     vdW  Elec       q    Type
                         _______ _______ _______ _____ _____    ______ ____

>  <TORSDO>
F 16

$$$$
