=
 OpenBabel11072415103D

 39 42  0  0  1  0  0  0  0  0999 V2000
  161.2410  208.8840  153.5690 C   0  0  2  0  0  3  0  0  0  0  0  0
  160.7660  208.5080  152.1800 C   0  0  2  0  0  3  0  0  0  0  0  0
  161.3420  207.4480  153.0940 C   0  0  0  0  0  2  0  0  0  0  0  0
  160.1340  209.0190  154.4070 O   0  0  0  0  0  0  0  0  0  0  0  0
  160.1040  210.3740  154.7410 C   0  0  0  0  0  2  0  0  0  0  0  0
  155.2670  213.3390  154.8250 O   0  0  0  0  0  1  0  0  0  0  0  0
  157.9190  210.9820  155.9000 C   0  0  2  0  0  3  0  0  0  0  0  0
  158.6950  210.9250  154.5730 C   0  0  1  0  0  3  0  0  0  0  0  0
  156.2980  212.4510  154.5200 C   0  0  2  0  0  3  0  0  0  0  0  0
  156.4700  211.4540  155.6780 C   0  0  1  0  0  3  0  0  0  0  0  0
  155.6450  210.3490  155.4620 O   0  0  0  0  0  1  0  0  0  0  0  0
  157.3800  214.1980  153.2610 O   0  0  0  0  0  1  0  0  0  0  0  0
  158.7260  212.2650  153.8140 C   0  0  2  0  0  3  0  0  0  0  0  0
  157.5900  213.2180  154.2350 C   0  0  2  0  0  3  0  0  0  0  0  0
  157.7880  213.0900  157.2390 C   0  0  0  0  0  1  0  0  0  0  0  0
  158.6190  211.8560  156.9410 C   0  0  0  0  0  2  0  0  0  0  0  0
  158.6730  212.0090  152.4390 O   0  0  0  0  0  0  0  0  0  0  0  0
  159.9720  212.2380  151.9810 C   0  0  0  0  0  2  0  0  0  0  0  0
  159.9780  214.2430  151.0680 C   0  0  0  0  0  1  0  0  0  0  0  0
  159.9230  212.8880  150.7480 O   0  0  0  0  0  0  0  0  0  0  0  0
  161.8140  208.9360  151.1660 C   0  0  0  0  0  2  0  0  0  0  0  0
  162.3090  207.7390  150.3660 C   0  0  0  0  0  2  0  0  0  0  0  0
  161.6010  207.6300  149.0530 C   0  0  0  0  0  0  0  0  0  0  0  0
  161.9380  208.3360  148.1150 O   0  0  0  0  0  0  0  0  0  0  0  0
  160.4510  206.6820  148.9100 C   0  0  0  0  0  2  0  0  0  0  0  0
  160.8010  205.3630  148.2060 C   0  0  2  0  0  3  0  0  0  0  0  0
  160.5530  201.5700  150.6810 C   0  0  0  0  0  2  0  0  0  0  0  0
  161.2290  201.6710  149.3190 C   0  0  0  0  0  2  0  0  0  0  0  0
  161.2300  204.1960  149.1100 C   0  0  1  0  0  3  0  0  0  0  0  0
  160.8000  204.4020  150.4890 N   0  0  0  0  0  2  0  0  0  0  0  0
  160.6920  202.8780  148.5560 C   0  0  0  0  0  2  0  0  0  0  0  0
  161.2880  202.3540  151.7710 C   0  0  0  0  0  2  0  0  0  0  0  0
  161.7770  203.7380  151.3400 C   0  0  0  0  0  2  0  0  0  0  0  0
  160.5920  205.6030  145.7110 C   0  0  0  0  0  2  0  0  0  0  0  0
  161.2960  205.5280  144.3490 C   0  0  0  0  0  2  0  0  0  0  0  0
  162.7530  205.5740  144.4860 N   0  0  0  0  0  2  0  0  0  0  0  0
  162.6160  204.4060  146.6700 C   0  0  0  0  0  2  0  0  0  0  0  0
  161.5690  205.5080  146.8870 C   0  0  0  0  0  3  0  0  0  0  0  0
  163.1720  204.3940  145.2400 C   0  0  0  0  0  2  0  0  0  0  0  0
  1  4  1  1  0  0  0
  2 21  1  6  0  0  0
  2  3  1  0  0  0  0
  2  1  1  0  0  0  0
  3  1  1  0  0  0  0
  4  5  1  0  0  0  0
  7 16  1  1  0  0  0
  8  5  1  1  0  0  0
  8  7  1  0  0  0  0
  9  6  1  1  0  0  0
  9 10  1  0  0  0  0
 10 11  1  6  0  0  0
 10  7  1  0  0  0  0
 13 17  1  6  0  0  0
 13 14  1  0  0  0  0
 13  8  1  0  0  0  0
 14 12  1  6  0  0  0
 14  9  1  0  0  0  0
 16 15  1  0  0  0  0
 18 17  1  0  0  0  0
 20 19  1  0  0  0  0
 20 18  1  0  0  0  0
 22 21  1  0  0  0  0
 23 22  1  0  0  0  0
 24 23  2  0  0  0  0
 25 23  1  0  0  0  0
 26 25  1  1  0  0  0
 27 32  1  0  0  0  0
 28 27  1  0  0  0  0
 29 26  1  6  0  0  0
 29 30  1  0  0  0  0
 30 33  1  0  0  0  0
 31 29  1  0  0  0  0
 31 28  1  0  0  0  0
 33 32  1  0  0  0  0
 34 38  1  0  0  0  0
 35 36  1  0  0  0  0
 35 34  1  0  0  0  0
 36 39  1  0  0  0  0
 37 38  1  0  0  0  0
 38 26  1  0  0  0  0
 39 37  1  0  0  0  0
M  END
>  <MODEL>
1

>  <REMARK>
 VINA RESULT:      -7.0      0.000      0.000
  Name = 
  14 active torsions:
  status: ('A' for Active; 'I' for Inactive)
    1  A    between atoms: C_1  and  C_6
    2  A    between atoms: C_1  and  C_32
    3  A    between atoms: C_4  and  C_37
    4  A    between atoms: C_5  and  O_24
    5  A    between atoms: C_5  and  O_38
    6  A    between atoms: C_6  and  C_11
    7  A    between atoms: C_7  and  O_9
    8  A    between atoms: O_9  and  C_35
    9  A    between atoms: C_10  and  C_35
   10  A    between atoms: C_11  and  C_21
   11  A    between atoms: C_11  and  C_30
   12  A    between atoms: C_13  and  C_18
   13  A    between atoms: C_18  and  C_32
   14  A    between atoms: C_33  and  O_38
                            x       y       z     vdW  Elec       q    Type
                         _______ _______ _______ _____ _____    ______ ____

>  <TORSDO>
F 14

$$$$
=
 OpenBabel11072415103D

 39 42  0  0  1  0  0  0  0  0999 V2000
  161.2600  210.4910  151.8540 C   0  0  2  0  0  3  0  0  0  0  0  0
  161.0510  209.2490  152.6960 C   0  0  2  0  0  3  0  0  0  0  0  0
  162.2980  210.0870  152.8830 C   0  0  0  0  0  2  0  0  0  0  0  0
  160.4760  211.5250  152.3650 O   0  0  0  0  0  0  0  0  0  0  0  0
  159.4100  210.8820  152.9980 C   0  0  0  0  0  2  0  0  0  0  0  0
  156.8360  213.8920  157.0620 O   0  0  0  0  0  1  0  0  0  0  0  0
  158.7430  213.1390  153.9730 C   0  0  2  0  0  3  0  0  0  0  0  0
  159.0040  211.6480  154.2490 C   0  0  1  0  0  3  0  0  0  0  0  0
  157.6920  213.0640  156.3340 C   0  0  2  0  0  3  0  0  0  0  0  0
  158.4280  213.9000  155.2730 C   0  0  1  0  0  3  0  0  0  0  0  0
  159.6090  214.4030  155.8210 O   0  0  0  0  0  1  0  0  0  0  0  0
  156.1540  211.2400  156.6720 O   0  0  0  0  0  1  0  0  0  0  0  0
  157.8410  210.9370  154.9640 C   0  0  2  0  0  3  0  0  0  0  0  0
  156.9060  211.9130  155.7050 C   0  0  2  0  0  3  0  0  0  0  0  0
  158.1570  214.1490  151.7610 C   0  0  0  0  0  1  0  0  0  0  0  0
  157.6350  213.3490  152.9410 C   0  0  0  0  0  2  0  0  0  0  0  0
  158.3630  209.9860  155.8480 O   0  0  0  0  0  0  0  0  0  0  0  0
  159.5510  210.5500  156.3210 C   0  0  0  0  0  2  0  0  0  0  0  0
  159.8930  208.3880  156.0820 C   0  0  0  0  0  1  0  0  0  0  0  0
  160.4550  209.5360  156.6340 O   0  0  0  0  0  0  0  0  0  0  0  0
  161.3780  208.0230  151.8610 C   0  0  0  0  0  2  0  0  0  0  0  0
  162.4490  208.3440  150.8270 C   0  0  0  0  0  2  0  0  0  0  0  0
  162.1010  207.7760  149.4880 C   0  0  0  0  0  0  0  0  0  0  0  0
  161.5200  208.4630  148.6630 O   0  0  0  0  0  0  0  0  0  0  0  0
  162.4330  206.3480  149.1830 C   0  0  0  0  0  2  0  0  0  0  0  0
  161.2450  205.5150  148.6790 C   0  0  2  0  0  3  0  0  0  0  0  0
  161.4870  202.0450  151.5900 C   0  0  0  0  0  2  0  0  0  0  0  0
  160.9080  203.4150  151.9240 C   0  0  0  0  0  2  0  0  0  0  0  0
  160.8050  204.3400  149.5670 C   0  0  1  0  0  3  0  0  0  0  0  0
  161.1240  203.0570  148.9510 N   0  0  0  0  0  2  0  0  0  0  0  0
  161.4420  204.4600  150.9500 C   0  0  0  0  0  2  0  0  0  0  0  0
  160.6390  201.2690  150.5780 C   0  0  0  0  0  2  0  0  0  0  0  0
  160.1200  202.1070  149.4080 C   0  0  0  0  0  2  0  0  0  0  0  0
  162.6410  205.2120  146.6100 C   0  0  0  0  0  2  0  0  0  0  0  0
  162.6750  205.1820  145.0740 C   0  0  0  0  0  2  0  0  0  0  0  0
  161.3380  205.0170  144.5040 N   0  0  0  0  0  2  0  0  0  0  0  0
  160.3390  206.2630  146.4020 C   0  0  0  0  0  2  0  0  0  0  0  0
  161.2160  205.2620  147.1680 C   0  0  0  0  0  3  0  0  0  0  0  0
  160.5390  206.1810  144.8820 C   0  0  0  0  0  2  0  0  0  0  0  0
  1  4  1  1  0  0  0
  1  2  1  0  0  0  0
  1  3  1  0  0  0  0
  2 21  1  6  0  0  0
  2  3  1  0  0  0  0
  4  5  1  0  0  0  0
  7 16  1  6  0  0  0
  7  8  1  0  0  0  0
  7 10  1  0  0  0  0
  8  5  1  6  0  0  0
  8 13  1  0  0  0  0
  9  6  1  6  0  0  0
 10 11  1  1  0  0  0
 10  9  1  0  0  0  0
 13 14  1  0  0  0  0
 13 17  1  1  0  0  0
 14  9  1  0  0  0  0
 14 12  1  1  0  0  0
 15 16  1  0  0  0  0
 17 18  1  0  0  0  0
 18 20  1  0  0  0  0
 19 20  1  0  0  0  0
 22 21  1  0  0  0  0
 23 22  1  0  0  0  0
 24 23  2  0  0  0  0
 25 23  1  0  0  0  0
 26 25  1  1  0  0  0
 27 28  1  0  0  0  0
 29 26  1  6  0  0  0
 29 31  1  0  0  0  0
 30 33  1  0  0  0  0
 30 29  1  0  0  0  0
 31 28  1  0  0  0  0
 32 27  1  0  0  0  0
 33 32  1  0  0  0  0
 34 38  1  0  0  0  0
 35 34  1  0  0  0  0
 36 39  1  0  0  0  0
 36 35  1  0  0  0  0
 37 38  1  0  0  0  0
 38 26  1  0  0  0  0
 39 37  1  0  0  0  0
M  END
>  <MODEL>
2

>  <REMARK>
 VINA RESULT:      -6.9      1.489      3.171
  Name = 
  14 active torsions:
  status: ('A' for Active; 'I' for Inactive)
    1  A    between atoms: C_1  and  C_6
    2  A    between atoms: C_1  and  C_32
    3  A    between atoms: C_4  and  C_37
    4  A    between atoms: C_5  and  O_24
    5  A    between atoms: C_5  and  O_38
    6  A    between atoms: C_6  and  C_11
    7  A    between atoms: C_7  and  O_9
    8  A    between atoms: O_9  and  C_35
    9  A    between atoms: C_10  and  C_35
   10  A    between atoms: C_11  and  C_21
   11  A    between atoms: C_11  and  C_30
   12  A    between atoms: C_13  and  C_18
   13  A    between atoms: C_18  and  C_32
   14  A    between atoms: C_33  and  O_38
                            x       y       z     vdW  Elec       q    Type
                         _______ _______ _______ _____ _____    ______ ____

>  <TORSDO>
F 14

$$$$
=
 OpenBabel11072415103D

 39 42  0  0  1  0  0  0  0  0999 V2000
  160.9620  205.9130  151.7610 C   0  0  2  0  0  3  0  0  0  0  0  0
  161.7510  206.8720  152.6290 C   0  0  2  0  0  3  0  0  0  0  0  0
  161.4010  205.4950  153.1510 C   0  0  0  0  0  2  0  0  0  0  0  0
  161.8170  205.3480  150.8140 O   0  0  0  0  0  0  0  0  0  0  0  0
  160.9690  204.8360  149.8310 C   0  0  0  0  0  2  0  0  0  0  0  0
  162.0890  205.2970  144.2880 O   0  0  0  0  0  1  0  0  0  0  0  0
  161.9850  203.8660  147.7060 C   0  0  2  0  0  3  0  0  0  0  0  0
  161.5280  205.1350  148.4480 C   0  0  1  0  0  3  0  0  0  0  0  0
  162.0450  205.4620  145.6730 C   0  0  2  0  0  3  0  0  0  0  0  0
  162.6310  204.2140  146.3530 C   0  0  1  0  0  3  0  0  0  0  0  0
  164.0060  204.3830  146.5190 O   0  0  0  0  0  1  0  0  0  0  0  0
  160.0580  206.8010  145.4110 O   0  0  0  0  0  1  0  0  0  0  0  0
  160.5440  206.0030  147.6430 C   0  0  2  0  0  3  0  0  0  0  0  0
  160.6100  205.7350  146.1270 C   0  0  2  0  0  3  0  0  0  0  0  0
  161.1640  201.5640  148.2330 C   0  0  0  0  0  1  0  0  0  0  0  0
  160.8450  202.8650  147.5200 C   0  0  0  0  0  2  0  0  0  0  0  0
  160.7990  207.3510  147.9170 O   0  0  0  0  0  0  0  0  0  0  0  0
  162.1600  207.4050  148.2280 C   0  0  0  0  0  2  0  0  0  0  0  0
  161.9930  209.5460  148.7170 C   0  0  0  0  0  1  0  0  0  0  0  0
  162.3660  208.3190  149.2600 O   0  0  0  0  0  0  0  0  0  0  0  0
  160.8030  207.9010  153.2200 C   0  0  0  0  0  2  0  0  0  0  0  0
  160.5550  209.0340  152.2330 C   0  0  0  0  0  2  0  0  0  0  0  0
  161.4770  210.1840  152.4820 C   0  0  0  0  0  0  0  0  0  0  0  0
  162.6340  210.1380  152.0910 O   0  0  0  0  0  0  0  0  0  0  0  0
  160.9870  211.3740  153.2480 C   0  0  0  0  0  2  0  0  0  0  0  0
  159.6140  211.8950  152.7980 C   0  0  2  0  0  3  0  0  0  0  0  0
  158.4650  213.7620  148.8280 C   0  0  0  0  0  2  0  0  0  0  0  0
  158.1110  214.3440  150.1910 C   0  0  0  0  0  2  0  0  0  0  0  0
  159.6050  212.8640  151.6060 C   0  0  1  0  0  3  0  0  0  0  0  0
  160.2930  212.2970  150.4510 N   0  0  0  0  0  2  0  0  0  0  0  0
  158.1700  213.2530  151.2560 C   0  0  0  0  0  2  0  0  0  0  0  0
  159.9670  213.8080  148.5310 C   0  0  0  0  0  2  0  0  0  0  0  0
  160.8610  213.4120  149.7070 C   0  0  0  0  0  2  0  0  0  0  0  0
  159.3580  212.9180  155.0820 C   0  0  0  0  0  2  0  0  0  0  0  0
  158.4800  213.0670  156.3330 C   0  0  0  0  0  2  0  0  0  0  0  0
  157.0940  212.6740  156.0750 N   0  0  0  0  0  2  0  0  0  0  0  0
  157.8470  210.9880  154.4170 C   0  0  0  0  0  2  0  0  0  0  0  0
  158.6320  212.2150  153.9310 C   0  0  0  0  0  3  0  0  0  0  0  0
  157.0850  211.2550  155.7230 C   0  0  0  0  0  2  0  0  0  0  0  0
  1  4  1  6  0  0  0
  1  2  1  0  0  0  0
  1  3  1  0  0  0  0
  2  3  1  0  0  0  0
  2 21  1  1  0  0  0
  5  4  1  0  0  0  0
  7 16  1  6  0  0  0
  7  8  1  0  0  0  0
  8  5  1  1  0  0  0
  9  6  1  6  0  0  0
  9 14  1  0  0  0  0
  9 10  1  0  0  0  0
 10 11  1  1  0  0  0
 10  7  1  0  0  0  0
 13 17  1  6  0  0  0
 13  8  1  0  0  0  0
 14 12  1  6  0  0  0
 14 13  1  0  0  0  0
 16 15  1  0  0  0  0
 17 18  1  0  0  0  0
 18 20  1  0  0  0  0
 19 20  1  0  0  0  0
 22 23  1  0  0  0  0
 22 21  1  0  0  0  0
 23 25  1  0  0  0  0
 24 23  2  0  0  0  0
 26 25  1  1  0  0  0
 26 38  1  0  0  0  0
 27 28  1  0  0  0  0
 28 31  1  0  0  0  0
 29 26  1  1  0  0  0
 30 29  1  0  0  0  0
 31 29  1  0  0  0  0
 32 27  1  0  0  0  0
 32 33  1  0  0  0  0
 33 30  1  0  0  0  0
 34 35  1  0  0  0  0
 36 35  1  0  0  0  0
 37 39  1  0  0  0  0
 38 37  1  0  0  0  0
 38 34  1  0  0  0  0
 39 36  1  0  0  0  0
M  END
>  <MODEL>
3

>  <REMARK>
 VINA RESULT:      -6.9      3.352     10.043
  Name = 
  14 active torsions:
  status: ('A' for Active; 'I' for Inactive)
    1  A    between atoms: C_1  and  C_6
    2  A    between atoms: C_1  and  C_32
    3  A    between atoms: C_4  and  C_37
    4  A    between atoms: C_5  and  O_24
    5  A    between atoms: C_5  and  O_38
    6  A    between atoms: C_6  and  C_11
    7  A    between atoms: C_7  and  O_9
    8  A    between atoms: O_9  and  C_35
    9  A    between atoms: C_10  and  C_35
   10  A    between atoms: C_11  and  C_21
   11  A    between atoms: C_11  and  C_30
   12  A    between atoms: C_13  and  C_18
   13  A    between atoms: C_18  and  C_32
   14  A    between atoms: C_33  and  O_38
                            x       y       z     vdW  Elec       q    Type
                         _______ _______ _______ _____ _____    ______ ____

>  <TORSDO>
F 14

$$$$
=
 OpenBabel11072415103D

 39 42  0  0  1  0  0  0  0  0999 V2000
  161.0330  205.9510  151.7070 C   0  0  2  0  0  3  0  0  0  0  0  0
  161.7020  207.2450  152.1220 C   0  0  2  0  0  3  0  0  0  0  0  0
  161.6420  206.0810  153.0890 C   0  0  0  0  0  2  0  0  0  0  0  0
  161.9010  205.2350  150.8820 O   0  0  0  0  0  0  0  0  0  0  0  0
  161.0780  204.6690  149.9070 C   0  0  0  0  0  2  0  0  0  0  0  0
  161.9630  205.4230  144.3530 O   0  0  0  0  0  1  0  0  0  0  0  0
  161.9970  203.8120  147.6910 C   0  0  2  0  0  3  0  0  0  0  0  0
  161.5790  205.0400  148.5180 C   0  0  1  0  0  3  0  0  0  0  0  0
  161.9780  205.5130  145.7450 C   0  0  2  0  0  3  0  0  0  0  0  0
  162.5870  204.2290  146.3320 C   0  0  1  0  0  3  0  0  0  0  0  0
  163.9680  204.3850  146.4470 O   0  0  0  0  0  1  0  0  0  0  0  0
  159.9890  206.8700  145.6410 O   0  0  0  0  0  1  0  0  0  0  0  0
  160.5660  205.9530  147.8040 C   0  0  2  0  0  3  0  0  0  0  0  0
  160.5660  205.7670  146.2740 C   0  0  2  0  0  3  0  0  0  0  0  0
  160.9880  202.0950  146.1780 C   0  0  0  0  0  1  0  0  0  0  0  0
  160.8450  202.8250  147.5010 C   0  0  0  0  0  2  0  0  0  0  0  0
  160.8390  207.2840  148.1390 O   0  0  0  0  0  0  0  0  0  0  0  0
  162.2300  207.3480  148.2530 C   0  0  0  0  0  2  0  0  0  0  0  0
  161.9080  209.4750  148.7280 C   0  0  0  0  0  1  0  0  0  0  0  0
  162.5760  208.3360  149.1740 O   0  0  0  0  0  0  0  0  0  0  0  0
  160.6320  208.2630  152.4790 C   0  0  0  0  0  2  0  0  0  0  0  0
  161.2040  209.6750  152.4620 C   0  0  0  0  0  2  0  0  0  0  0  0
  160.1760  210.6840  152.8610 C   0  0  0  0  0  0  0  0  0  0  0  0
  159.0210  210.5660  152.4820 O   0  0  0  0  0  0  0  0  0  0  0  0
  160.5810  211.8620  153.6920 C   0  0  0  0  0  2  0  0  0  0  0  0
  159.9730  211.8810  155.1030 C   0  0  2  0  0  3  0  0  0  0  0  0
  162.1790  208.2430  156.6740 C   0  0  0  0  0  2  0  0  0  0  0  0
  162.5250  209.6840  157.0290 C   0  0  0  0  0  2  0  0  0  0  0  0
  160.4560  210.7910  156.0730 C   0  0  1  0  0  3  0  0  0  0  0  0
  159.7750  209.5230  155.8340 N   0  0  0  0  0  2  0  0  0  0  0  0
  161.9720  210.6310  155.9690 C   0  0  0  0  0  2  0  0  0  0  0  0
  160.8290  207.7960  157.2430 C   0  0  0  0  0  2  0  0  0  0  0  0
  159.7100  208.8300  157.1130 C   0  0  0  0  0  2  0  0  0  0  0  0
  158.1780  213.4510  154.3040 C   0  0  0  0  0  2  0  0  0  0  0  0
  156.7480  213.9760  154.4990 C   0  0  0  0  0  2  0  0  0  0  0  0
  155.9450  213.0720  155.3230 N   0  0  0  0  0  2  0  0  0  0  0  0
  157.9590  212.3940  156.6020 C   0  0  0  0  0  2  0  0  0  0  0  0
  158.4800  212.2240  155.1680 C   0  0  0  0  0  3  0  0  0  0  0  0
  156.5530  213.0090  156.6500 C   0  0  0  0  0  2  0  0  0  0  0  0
  1  4  1  6  0  0  0
  1  2  1  0  0  0  0
  1  3  1  0  0  0  0
  2 21  1  1  0  0  0
  2  3  1  0  0  0  0
  5  4  1  0  0  0  0
  7 16  1  6  0  0  0
  7  8  1  0  0  0  0
  8  5  1  1  0  0  0
  9  6  1  6  0  0  0
  9 14  1  0  0  0  0
  9 10  1  0  0  0  0
 10 11  1  1  0  0  0
 10  7  1  0  0  0  0
 13 17  1  6  0  0  0
 13  8  1  0  0  0  0
 14 12  1  6  0  0  0
 14 13  1  0  0  0  0
 15 16  1  0  0  0  0
 17 18  1  0  0  0  0
 18 20  1  0  0  0  0
 19 20  1  0  0  0  0
 22 21  1  0  0  0  0
 22 23  1  0  0  0  0
 23 25  1  0  0  0  0
 24 23  2  0  0  0  0
 26 25  1  6  0  0  0
 26 38  1  0  0  0  0
 27 28  1  0  0  0  0
 27 32  1  0  0  0  0
 29 26  1  6  0  0  0
 30 29  1  0  0  0  0
 30 33  1  0  0  0  0
 31 29  1  0  0  0  0
 31 28  1  0  0  0  0
 33 32  1  0  0  0  0
 34 35  1  0  0  0  0
 34 38  1  0  0  0  0
 35 36  1  0  0  0  0
 36 39  1  0  0  0  0
 37 39  1  0  0  0  0
 38 37  1  0  0  0  0
M  END
>  <MODEL>
4

>  <REMARK>
 VINA RESULT:      -6.7      3.099      9.977
  Name = 
  14 active torsions:
  status: ('A' for Active; 'I' for Inactive)
    1  A    between atoms: C_1  and  C_6
    2  A    between atoms: C_1  and  C_32
    3  A    between atoms: C_4  and  C_37
    4  A    between atoms: C_5  and  O_24
    5  A    between atoms: C_5  and  O_38
    6  A    between atoms: C_6  and  C_11
    7  A    between atoms: C_7  and  O_9
    8  A    between atoms: O_9  and  C_35
    9  A    between atoms: C_10  and  C_35
   10  A    between atoms: C_11  and  C_21
   11  A    between atoms: C_11  and  C_30
   12  A    between atoms: C_13  and  C_18
   13  A    between atoms: C_18  and  C_32
   14  A    between atoms: C_33  and  O_38
                            x       y       z     vdW  Elec       q    Type
                         _______ _______ _______ _____ _____    ______ ____

>  <TORSDO>
F 14

$$$$
=
 OpenBabel11072415103D

 39 42  0  0  1  0  0  0  0  0999 V2000
  160.6120  208.4700  155.3670 C   0  0  2  0  0  3  0  0  0  0  0  0
  160.3450  207.0310  154.9750 C   0  0  2  0  0  3  0  0  0  0  0  0
  161.1240  207.3380  156.2360 C   0  0  0  0  0  2  0  0  0  0  0  0
  159.4580  209.0080  155.9370 O   0  0  0  0  0  0  0  0  0  0  0  0
  159.6130  210.3890  155.8140 C   0  0  0  0  0  2  0  0  0  0  0  0
  155.4720  213.6770  153.7540 O   0  0  0  0  0  1  0  0  0  0  0  0
  157.3440  211.5120  156.1090 C   0  0  2  0  0  3  0  0  0  0  0  0
  158.4010  210.9930  155.1180 C   0  0  1  0  0  3  0  0  0  0  0  0
  156.3820  212.6470  153.9960 C   0  0  2  0  0  3  0  0  0  0  0  0
  156.0950  212.0270  155.3730 C   0  0  1  0  0  3  0  0  0  0  0  0
  155.1740  210.9890  155.2280 O   0  0  0  0  0  1  0  0  0  0  0  0
  158.0160  213.8360  152.6830 O   0  0  0  0  0  1  0  0  0  0  0  0
  158.8410  212.0380  154.0770 C   0  0  2  0  0  3  0  0  0  0  0  0
  157.8140  213.1730  153.8960 C   0  0  2  0  0  3  0  0  0  0  0  0
  156.8800  213.6830  157.2600 C   0  0  0  0  0  1  0  0  0  0  0  0
  157.9060  212.5860  157.0400 C   0  0  0  0  0  2  0  0  0  0  0  0
  159.0830  211.3930  152.8590 O   0  0  0  0  0  0  0  0  0  0  0  0
  160.3840  211.7640  152.5090 C   0  0  0  0  0  2  0  0  0  0  0  0
  161.5870  210.4000  151.2650 C   0  0  0  0  0  1  0  0  0  0  0  0
  161.2210  210.6510  152.5860 O   0  0  0  0  0  0  0  0  0  0  0  0
  161.3030  206.6340  153.8640 C   0  0  0  0  0  2  0  0  0  0  0  0
  160.8340  207.1860  152.5250 C   0  0  0  0  0  2  0  0  0  0  0  0
  161.4750  206.4640  151.3830 C   0  0  0  0  0  0  0  0  0  0  0  0
  162.6730  206.2270  151.4030 O   0  0  0  0  0  0  0  0  0  0  0  0
  160.6480  206.0720  150.1980 C   0  0  0  0  0  2  0  0  0  0  0  0
  161.3080  205.0310  149.2810 C   0  0  2  0  0  3  0  0  0  0  0  0
  160.8210  205.4660  144.7930 C   0  0  0  0  0  2  0  0  0  0  0  0
  160.5410  206.5710  145.8040 C   0  0  0  0  0  2  0  0  0  0  0  0
  161.5820  205.4670  147.8340 C   0  0  1  0  0  3  0  0  0  0  0  0
  162.1790  204.3880  147.0550 N   0  0  0  0  0  2  0  0  0  0  0  0
  160.2930  205.9680  147.1830 C   0  0  0  0  0  2  0  0  0  0  0  0
  162.3060  205.1050  144.6990 C   0  0  0  0  0  2  0  0  0  0  0  0
  163.0250  205.0120  146.0460 C   0  0  0  0  0  2  0  0  0  0  0  0
  161.2060  203.0720  150.8550 C   0  0  0  0  0  2  0  0  0  0  0  0
  160.9390  201.5690  151.0220 C   0  0  0  0  0  2  0  0  0  0  0  0
  160.2010  201.0180  149.8840 N   0  0  0  0  0  2  0  0  0  0  0  0
  161.2840  202.6430  148.3540 C   0  0  0  0  0  2  0  0  0  0  0  0
  160.8180  203.5910  149.4670 C   0  0  0  0  0  3  0  0  0  0  0  0
  161.0340  201.1660  148.6920 C   0  0  0  0  0  2  0  0  0  0  0  0
  1  4  1  1  0  0  0
  1  3  1  0  0  0  0
  2 21  1  6  0  0  0
  2  1  1  0  0  0  0
  2  3  1  0  0  0  0
  5  4  1  0  0  0  0
  7 16  1  6  0  0  0
  8  5  1  1  0  0  0
  8  7  1  0  0  0  0
  9  6  1  1  0  0  0
  9 10  1  0  0  0  0
 10 11  1  6  0  0  0
 10  7  1  0  0  0  0
 13 17  1  6  0  0  0
 13  8  1  0  0  0  0
 14 12  1  6  0  0  0
 14  9  1  0  0  0  0
 14 13  1  0  0  0  0
 16 15  1  0  0  0  0
 18 20  1  0  0  0  0
 18 17  1  0  0  0  0
 19 20  1  0  0  0  0
 22 21  1  0  0  0  0
 23 24  2  0  0  0  0
 23 22  1  0  0  0  0
 25 23  1  0  0  0  0
 26 38  1  0  0  0  0
 26 25  1  6  0  0  0
 27 28  1  0  0  0  0
 28 31  1  0  0  0  0
 29 26  1  1  0  0  0
 30 29  1  0  0  0  0
 31 29  1  0  0  0  0
 32 27  1  0  0  0  0
 32 33  1  0  0  0  0
 33 30  1  0  0  0  0
 34 35  1  0  0  0  0
 36 35  1  0  0  0  0
 37 39  1  0  0  0  0
 37 38  1  0  0  0  0
 38 34  1  0  0  0  0
 39 36  1  0  0  0  0
M  END
>  <MODEL>
5

>  <REMARK>
 VINA RESULT:      -6.7      1.545      3.620
  Name = 
  14 active torsions:
  status: ('A' for Active; 'I' for Inactive)
    1  A    between atoms: C_1  and  C_6
    2  A    between atoms: C_1  and  C_32
    3  A    between atoms: C_4  and  C_37
    4  A    between atoms: C_5  and  O_24
    5  A    between atoms: C_5  and  O_38
    6  A    between atoms: C_6  and  C_11
    7  A    between atoms: C_7  and  O_9
    8  A    between atoms: O_9  and  C_35
    9  A    between atoms: C_10  and  C_35
   10  A    between atoms: C_11  and  C_21
   11  A    between atoms: C_11  and  C_30
   12  A    between atoms: C_13  and  C_18
   13  A    between atoms: C_18  and  C_32
   14  A    between atoms: C_33  and  O_38
                            x       y       z     vdW  Elec       q    Type
                         _______ _______ _______ _____ _____    ______ ____

>  <TORSDO>
F 14

$$$$
=
 OpenBabel11072415103D

 39 42  0  0  1  0  0  0  0  0999 V2000
  160.9010  205.3520  151.1960 C   0  0  2  0  0  3  0  0  0  0  0  0
  161.7410  206.5180  151.6770 C   0  0  2  0  0  3  0  0  0  0  0  0
  161.3480  205.4210  152.6430 C   0  0  0  0  0  2  0  0  0  0  0  0
  161.7170  204.4600  150.5000 O   0  0  0  0  0  0  0  0  0  0  0  0
  160.9370  204.0300  149.4250 C   0  0  0  0  0  2  0  0  0  0  0  0
  162.0910  205.4510  144.0540 O   0  0  0  0  0  1  0  0  0  0  0  0
  161.9450  203.4360  147.1610 C   0  0  2  0  0  3  0  0  0  0  0  0
  161.5080  204.5600  148.1170 C   0  0  1  0  0  3  0  0  0  0  0  0
  162.0430  205.3670  145.4460 C   0  0  2  0  0  3  0  0  0  0  0  0
  162.6030  204.0070  145.8930 C   0  0  1  0  0  3  0  0  0  0  0  0
  163.9800  204.1170  146.0880 O   0  0  0  0  0  1  0  0  0  0  0  0
  160.0830  206.7690  145.4250 O   0  0  0  0  0  1  0  0  0  0  0  0
  160.5440  205.5770  147.4790 C   0  0  2  0  0  3  0  0  0  0  0  0
  160.6120  205.5830  145.9400 C   0  0  2  0  0  3  0  0  0  0  0  0
  161.2040  201.0560  146.9640 C   0  0  0  0  0  1  0  0  0  0  0  0
  160.7870  202.5060  146.7990 C   0  0  0  0  0  2  0  0  0  0  0  0
  160.8230  206.8500  147.9900 O   0  0  0  0  0  0  0  0  0  0  0  0
  162.2110  206.8790  148.1450 C   0  0  0  0  0  2  0  0  0  0  0  0
  161.9580  208.9630  148.8120 C   0  0  0  0  0  1  0  0  0  0  0  0
  162.6760  208.1740  147.9170 O   0  0  0  0  0  0  0  0  0  0  0  0
  160.8420  207.7260  151.8790 C   0  0  0  0  0  2  0  0  0  0  0  0
  161.0410  208.3200  153.2660 C   0  0  0  0  0  2  0  0  0  0  0  0
  160.9860  209.8140  153.2320 C   0  0  0  0  0  0  0  0  0  0  0  0
  161.9350  210.4720  153.6280 O   0  0  0  0  0  0  0  0  0  0  0  0
  159.7430  210.4970  152.7490 C   0  0  0  0  0  2  0  0  0  0  0  0
  159.6790  211.9970  153.0720 C   0  0  2  0  0  3  0  0  0  0  0  0
  157.3480  211.7030  156.9510 C   0  0  0  0  0  2  0  0  0  0  0  0
  158.6780  212.4310  156.7940 C   0  0  0  0  0  2  0  0  0  0  0  0
  158.7990  212.4060  154.2640 C   0  0  1  0  0  3  0  0  0  0  0  0
  157.4330  211.9180  154.1110 N   0  0  0  0  0  2  0  0  0  0  0  0
  159.4190  211.9090  155.5690 C   0  0  0  0  0  2  0  0  0  0  0  0
  156.2020  212.3830  156.1960 C   0  0  0  0  0  2  0  0  0  0  0  0
  156.5650  212.8690  154.7920 C   0  0  0  0  0  2  0  0  0  0  0  0
  158.1830  213.2180  151.4600 C   0  0  0  0  0  2  0  0  0  0  0  0
  158.0700  213.9620  150.1210 C   0  0  0  0  0  2  0  0  0  0  0  0
  159.3780  214.3880  149.6240 N   0  0  0  0  0  2  0  0  0  0  0  0
  160.4540  212.4090  150.6640 C   0  0  0  0  0  2  0  0  0  0  0  0
  159.6340  212.9270  151.8540 C   0  0  0  0  0  3  0  0  0  0  0  0
  160.1780  213.1900  149.3720 C   0  0  0  0  0  2  0  0  0  0  0  0
  1  4  1  6  0  0  0
  1  2  1  0  0  0  0
  1  3  1  0  0  0  0
  2 21  1  1  0  0  0
  2  3  1  0  0  0  0
  5  4  1  0  0  0  0
  7 16  1  6  0  0  0
  7  8  1  0  0  0  0
  8  5  1  1  0  0  0
  9  6  1  6  0  0  0
  9 10  1  0  0  0  0
  9 14  1  0  0  0  0
 10 11  1  1  0  0  0
 10  7  1  0  0  0  0
 13 17  1  1  0  0  0
 13  8  1  0  0  0  0
 14 12  1  1  0  0  0
 14 13  1  0  0  0  0
 16 15  1  0  0  0  0
 17 18  1  0  0  0  0
 20 18  1  0  0  0  0
 20 19  1  0  0  0  0
 21 22  1  0  0  0  0
 23 22  1  0  0  0  0
 23 24  2  0  0  0  0
 25 23  1  0  0  0  0
 26 25  1  6  0  0  0
 28 27  1  0  0  0  0
 29 26  1  6  0  0  0
 29 31  1  0  0  0  0
 30 29  1  0  0  0  0
 30 33  1  0  0  0  0
 31 28  1  0  0  0  0
 32 27  1  0  0  0  0
 33 32  1  0  0  0  0
 34 38  1  0  0  0  0
 35 34  1  0  0  0  0
 36 35  1  0  0  0  0
 37 38  1  0  0  0  0
 38 26  1  0  0  0  0
 39 36  1  0  0  0  0
 39 37  1  0  0  0  0
M  END
>  <MODEL>
6

>  <REMARK>
 VINA RESULT:      -6.5      3.320      9.884
  Name = 
  14 active torsions:
  status: ('A' for Active; 'I' for Inactive)
    1  A    between atoms: C_1  and  C_6
    2  A    between atoms: C_1  and  C_32
    3  A    between atoms: C_4  and  C_37
    4  A    between atoms: C_5  and  O_24
    5  A    between atoms: C_5  and  O_38
    6  A    between atoms: C_6  and  C_11
    7  A    between atoms: C_7  and  O_9
    8  A    between atoms: O_9  and  C_35
    9  A    between atoms: C_10  and  C_35
   10  A    between atoms: C_11  and  C_21
   11  A    between atoms: C_11  and  C_30
   12  A    between atoms: C_13  and  C_18
   13  A    between atoms: C_18  and  C_32
   14  A    between atoms: C_33  and  O_38
                            x       y       z     vdW  Elec       q    Type
                         _______ _______ _______ _____ _____    ______ ____

>  <TORSDO>
F 14

$$$$
=
 OpenBabel11072415103D

 39 42  0  0  1  0  0  0  0  0999 V2000
  160.6130  208.3390  156.1430 C   0  0  2  0  0  3  0  0  0  0  0  0
  160.0490  207.3620  155.1320 C   0  0  2  0  0  3  0  0  0  0  0  0
  160.0980  206.9870  156.5980 C   0  0  0  0  0  2  0  0  0  0  0  0
  159.6550  209.3160  156.4150 O   0  0  0  0  0  0  0  0  0  0  0  0
  160.2190  210.5050  155.9510 C   0  0  0  0  0  2  0  0  0  0  0  0
  157.5170  213.9200  152.3120 O   0  0  0  0  0  1  0  0  0  0  0  0
  158.5140  212.3470  155.5180 C   0  0  2  0  0  3  0  0  0  0  0  0
  159.2980  211.1600  154.9320 C   0  0  1  0  0  3  0  0  0  0  0  0
  157.9970  212.8240  153.0300 C   0  0  2  0  0  3  0  0  0  0  0  0
  157.5250  212.9240  154.4890 C   0  0  1  0  0  3  0  0  0  0  0  0
  156.2890  212.2890  154.6190 O   0  0  0  0  0  1  0  0  0  0  0  0
  159.9330  212.7800  151.5950 O   0  0  0  0  0  1  0  0  0  0  0  0
  160.0720  211.5030  153.6450 C   0  0  2  0  0  3  0  0  0  0  0  0
  159.5220  212.7520  152.9300 C   0  0  2  0  0  3  0  0  0  0  0  0
  158.7220  214.2680  157.1060 C   0  0  0  0  0  1  0  0  0  0  0  0
  159.4370  213.4410  156.0530 C   0  0  0  0  0  2  0  0  0  0  0  0
  160.0480  210.3950  152.7920 O   0  0  0  0  0  0  0  0  0  0  0  0
  161.3610  209.9170  152.7880 C   0  0  0  0  0  2  0  0  0  0  0  0
  162.2850  210.2170  150.8110 C   0  0  0  0  0  1  0  0  0  0  0  0
  161.6160  209.2680  151.5800 O   0  0  0  0  0  0  0  0  0  0  0  0
  161.1970  206.6950  154.3930 C   0  0  0  0  0  2  0  0  0  0  0  0
  160.6740  205.8110  153.2690 C   0  0  0  0  0  2  0  0  0  0  0  0
  161.7510  205.4900  152.2820 C   0  0  0  0  0  0  0  0  0  0  0  0
  162.6690  206.2750  152.0990 O   0  0  0  0  0  0  0  0  0  0  0  0
  161.6750  204.2200  151.4920 C   0  0  0  0  0  2  0  0  0  0  0  0
  161.0940  204.3870  150.0800 C   0  0  2  0  0  3  0  0  0  0  0  0
  161.5520  200.1770  148.4570 C   0  0  0  0  0  2  0  0  0  0  0  0
  160.5630  200.5820  149.5430 C   0  0  0  0  0  2  0  0  0  0  0  0
  160.7860  203.0950  149.3070 C   0  0  1  0  0  3  0  0  0  0  0  0
  161.5780  203.0020  148.0850 N   0  0  0  0  0  2  0  0  0  0  0  0
  161.0150  201.8790  150.2050 C   0  0  0  0  0  2  0  0  0  0  0  0
  161.2140  200.7770  147.0890 C   0  0  0  0  0  2  0  0  0  0  0  0
  160.7860  202.2440  147.1250 C   0  0  0  0  0  2  0  0  0  0  0  0
  160.7970  206.7760  149.3510 C   0  0  0  0  0  2  0  0  0  0  0  0
  161.2210  207.8850  148.3770 C   0  0  0  0  0  2  0  0  0  0  0  0
  162.4920  207.5770  147.7210 N   0  0  0  0  0  2  0  0  0  0  0  0
  161.9820  205.1500  147.8010 C   0  0  0  0  0  2  0  0  0  0  0  0
  161.6900  205.5350  149.2580 C   0  0  0  0  0  3  0  0  0  0  0  0
  162.3060  206.3670  146.9220 C   0  0  0  0  0  2  0  0  0  0  0  0
  1  4  1  1  0  0  0
  1  3  1  0  0  0  0
  2 21  1  6  0  0  0
  2  1  1  0  0  0  0
  2  3  1  0  0  0  0
  5  4  1  0  0  0  0
  7 16  1  6  0  0  0
  8  7  1  0  0  0  0
  8  5  1  1  0  0  0
  9  6  1  6  0  0  0
  9 10  1  0  0  0  0
 10 11  1  6  0  0  0
 10  7  1  0  0  0  0
 13 17  1  6  0  0  0
 13  8  1  0  0  0  0
 14 12  1  6  0  0  0
 14  9  1  0  0  0  0
 14 13  1  0  0  0  0
 16 15  1  0  0  0  0
 18 17  1  0  0  0  0
 19 20  1  0  0  0  0
 20 18  1  0  0  0  0
 22 21  1  0  0  0  0
 23 22  1  0  0  0  0
 24 23  2  0  0  0  0
 25 23  1  0  0  0  0
 26 25  1  1  0  0  0
 27 28  1  0  0  0  0
 28 31  1  0  0  0  0
 29 26  1  1  0  0  0
 29 31  1  0  0  0  0
 30 29  1  0  0  0  0
 32 33  1  0  0  0  0
 32 27  1  0  0  0  0
 33 30  1  0  0  0  0
 35 34  1  0  0  0  0
 36 35  1  0  0  0  0
 37 38  1  0  0  0  0
 38 34  1  0  0  0  0
 38 26  1  0  0  0  0
 39 36  1  0  0  0  0
 39 37  1  0  0  0  0
M  END
>  <MODEL>
7

>  <REMARK>
 VINA RESULT:      -6.5      1.903      3.054
  Name = 
  14 active torsions:
  status: ('A' for Active; 'I' for Inactive)
    1  A    between atoms: C_1  and  C_6
    2  A    between atoms: C_1  and  C_32
    3  A    between atoms: C_4  and  C_37
    4  A    between atoms: C_5  and  O_24
    5  A    between atoms: C_5  and  O_38
    6  A    between atoms: C_6  and  C_11
    7  A    between atoms: C_7  and  O_9
    8  A    between atoms: O_9  and  C_35
    9  A    between atoms: C_10  and  C_35
   10  A    between atoms: C_11  and  C_21
   11  A    between atoms: C_11  and  C_30
   12  A    between atoms: C_13  and  C_18
   13  A    between atoms: C_18  and  C_32
   14  A    between atoms: C_33  and  O_38
                            x       y       z     vdW  Elec       q    Type
                         _______ _______ _______ _____ _____    ______ ____

>  <TORSDO>
F 14

$$$$
=
 OpenBabel11072415103D

 39 42  0  0  1  0  0  0  0  0999 V2000
  161.0570  208.7950  154.8660 C   0  0  2  0  0  3  0  0  0  0  0  0
  160.5750  207.3710  154.6720 C   0  0  2  0  0  3  0  0  0  0  0  0
  161.6350  207.6750  155.7090 C   0  0  0  0  0  2  0  0  0  0  0  0
  160.1100  209.4970  155.6130 O   0  0  0  0  0  0  0  0  0  0  0  0
  160.5780  210.8110  155.6330 C   0  0  0  0  0  2  0  0  0  0  0  0
  156.4740  213.3660  152.6620 O   0  0  0  0  0  1  0  0  0  0  0  0
  159.8480  212.1380  153.5840 C   0  0  2  0  0  3  0  0  0  0  0  0
  159.5360  211.7480  155.0400 C   0  0  1  0  0  3  0  0  0  0  0  0
  157.4120  213.0020  153.6290 C   0  0  2  0  0  3  0  0  0  0  0  0
  158.8270  213.1580  153.0490 C   0  0  1  0  0  3  0  0  0  0  0  0
  159.2850  214.4530  153.2940 O   0  0  0  0  0  1  0  0  0  0  0  0
  155.8230  211.4270  154.5230 O   0  0  0  0  0  1  0  0  0  0  0  0
  158.1200  211.1770  155.2390 C   0  0  2  0  0  3  0  0  0  0  0  0
  157.1490  211.5740  154.1100 C   0  0  2  0  0  3  0  0  0  0  0  0
  160.7160  211.2530  151.4120 C   0  0  0  0  0  1  0  0  0  0  0  0
  159.9270  210.9190  152.6650 C   0  0  0  0  0  2  0  0  0  0  0  0
  157.6310  211.5960  156.4810 O   0  0  0  0  0  0  0  0  0  0  0  0
  158.6020  212.4720  156.9720 C   0  0  0  0  0  2  0  0  0  0  0  0
  156.7550  213.6370  157.2580 C   0  0  0  0  0  1  0  0  0  0  0  0
  158.1060  213.7750  156.9510 O   0  0  0  0  0  0  0  0  0  0  0  0
  161.2270  206.7940  153.4270 C   0  0  0  0  0  2  0  0  0  0  0  0
  161.0270  207.7190  152.2340 C   0  0  0  0  0  2  0  0  0  0  0  0
  161.5590  207.1100  150.9760 C   0  0  0  0  0  0  0  0  0  0  0  0
  162.7110  207.3240  150.6310 O   0  0  0  0  0  0  0  0  0  0  0  0
  160.6590  206.2730  150.1220 C   0  0  0  0  0  2  0  0  0  0  0  0
  161.3770  205.1560  149.3500 C   0  0  2  0  0  3  0  0  0  0  0  0
  162.1690  205.4990  144.8970 C   0  0  0  0  0  2  0  0  0  0  0  0
  162.0440  204.1820  145.6540 C   0  0  0  0  0  2  0  0  0  0  0  0
  161.1400  205.1100  147.8320 C   0  0  1  0  0  3  0  0  0  0  0  0
  160.9310  206.4450  147.2830 N   0  0  0  0  0  2  0  0  0  0  0  0
  162.3070  204.4060  147.1400 C   0  0  0  0  0  2  0  0  0  0  0  0
  160.8500  206.2730  144.8250 C   0  0  0  0  0  2  0  0  0  0  0  0
  160.0540  206.2960  146.1300 C   0  0  0  0  0  2  0  0  0  0  0  0
  160.6590  202.7470  149.2640 C   0  0  0  0  0  2  0  0  0  0  0  0
  160.4940  201.4270  150.0310 C   0  0  0  0  0  2  0  0  0  0  0  0
  161.2770  201.4140  151.2670 N   0  0  0  0  0  2  0  0  0  0  0  0
  160.9720  203.8620  151.5240 C   0  0  0  0  0  2  0  0  0  0  0  0
  161.4350  203.8000  150.0620 C   0  0  0  0  0  3  0  0  0  0  0  0
  160.7640  202.4700  152.1380 C   0  0  0  0  0  2  0  0  0  0  0  0
  1  4  1  1  0  0  0
  1  3  1  0  0  0  0
  2 21  1  6  0  0  0
  2  1  1  0  0  0  0
  2  3  1  0  0  0  0
  4  5  1  0  0  0  0
  7 16  1  6  0  0  0
  7  8  1  0  0  0  0
  8 13  1  0  0  0  0
  8  5  1  6  0  0  0
  9  6  1  6  0  0  0
  9 14  1  0  0  0  0
 10 11  1  1  0  0  0
 10  7  1  0  0  0  0
 10  9  1  0  0  0  0
 13 17  1  1  0  0  0
 14 12  1  1  0  0  0
 14 13  1  0  0  0  0
 15 16  1  0  0  0  0
 17 18  1  0  0  0  0
 20 18  1  0  0  0  0
 20 19  1  0  0  0  0
 22 21  1  0  0  0  0
 23 22  1  0  0  0  0
 24 23  2  0  0  0  0
 25 23  1  0  0  0  0
 26 38  1  0  0  0  0
 26 25  1  1  0  0  0
 27 28  1  0  0  0  0
 28 31  1  0  0  0  0
 29 26  1  1  0  0  0
 30 29  1  0  0  0  0
 31 29  1  0  0  0  0
 32 27  1  0  0  0  0
 32 33  1  0  0  0  0
 33 30  1  0  0  0  0
 34 35  1  0  0  0  0
 34 38  1  0  0  0  0
 35 36  1  0  0  0  0
 36 39  1  0  0  0  0
 37 39  1  0  0  0  0
 38 37  1  0  0  0  0
M  END
>  <MODEL>
8

>  <REMARK>
 VINA RESULT:      -6.2      1.575      4.444
  Name = 
  14 active torsions:
  status: ('A' for Active; 'I' for Inactive)
    1  A    between atoms: C_1  and  C_6
    2  A    between atoms: C_1  and  C_32
    3  A    between atoms: C_4  and  C_37
    4  A    between atoms: C_5  and  O_24
    5  A    between atoms: C_5  and  O_38
    6  A    between atoms: C_6  and  C_11
    7  A    between atoms: C_7  and  O_9
    8  A    between atoms: O_9  and  C_35
    9  A    between atoms: C_10  and  C_35
   10  A    between atoms: C_11  and  C_21
   11  A    between atoms: C_11  and  C_30
   12  A    between atoms: C_13  and  C_18
   13  A    between atoms: C_18  and  C_32
   14  A    between atoms: C_33  and  O_38
                            x       y       z     vdW  Elec       q    Type
                         _______ _______ _______ _____ _____    ______ ____

>  <TORSDO>
F 14

$$$$
=
 OpenBabel11072415103D

 39 42  0  0  1  0  0  0  0  0999 V2000
  162.2900  207.1230  148.9390 C   0  0  2  0  0  3  0  0  0  0  0  0
  161.1980  207.4150  149.9480 C   0  0  2  0  0  3  0  0  0  0  0  0
  161.5440  208.4420  148.8910 C   0  0  0  0  0  2  0  0  0  0  0  0
  161.7870  206.2680  147.9580 O   0  0  0  0  0  0  0  0  0  0  0  0
  161.7220  205.0180  148.5750 C   0  0  0  0  0  2  0  0  0  0  0  0
  160.5150  200.8150  144.9590 O   0  0  0  0  0  1  0  0  0  0  0  0
  161.5840  204.1460  146.1860 C   0  0  2  0  0  3  0  0  0  0  0  0
  161.0900  204.0010  147.6360 C   0  0  1  0  0  3  0  0  0  0  0  0
  160.4550  201.8370  145.9070 C   0  0  2  0  0  3  0  0  0  0  0  0
  160.8550  203.1670  145.2480 C   0  0  1  0  0  3  0  0  0  0  0  0
  159.7180  203.7810  144.7210 O   0  0  0  0  0  1  0  0  0  0  0  0
  161.0450  200.2390  147.6120 O   0  0  0  0  0  1  0  0  0  0  0  0
  161.2380  202.5770  148.2020 C   0  0  2  0  0  3  0  0  0  0  0  0
  161.3500  201.5040  147.1020 C   0  0  2  0  0  3  0  0  0  0  0  0
  163.6240  204.7210  144.8590 C   0  0  0  0  0  1  0  0  0  0  0  0
  163.0990  203.9770  146.0730 C   0  0  0  0  0  2  0  0  0  0  0  0
  160.1540  202.3090  149.0460 O   0  0  0  0  0  0  0  0  0  0  0  0
  160.7050  202.2460  150.3280 C   0  0  0  0  0  2  0  0  0  0  0  0
  161.2510  203.6760  151.9130 C   0  0  0  0  0  1  0  0  0  0  0  0
  160.1850  203.2790  151.1080 O   0  0  0  0  0  0  0  0  0  0  0  0
  161.8360  207.8040  151.2700 C   0  0  0  0  0  2  0  0  0  0  0  0
  160.9210  208.7310  152.0580 C   0  0  0  0  0  2  0  0  0  0  0  0
  161.5660  210.0580  152.3000 C   0  0  0  0  0  0  0  0  0  0  0  0
  162.6770  210.2910  151.8480 O   0  0  0  0  0  0  0  0  0  0  0  0
  160.8610  211.0830  153.1330 C   0  0  0  0  0  2  0  0  0  0  0  0
  159.7450  210.5170  154.0230 C   0  0  2  0  0  3  0  0  0  0  0  0
  157.0780  213.7470  155.7620 C   0  0  0  0  0  2  0  0  0  0  0  0
  157.7590  213.8280  154.4010 C   0  0  0  0  0  2  0  0  0  0  0  0
  158.5180  211.4150  154.2400 C   0  0  1  0  0  3  0  0  0  0  0  0
  157.7520  211.0000  155.4110 N   0  0  0  0  0  2  0  0  0  0  0  0
  158.9500  212.8760  154.3550 C   0  0  0  0  0  2  0  0  0  0  0  0
  155.9880  212.6730  155.8210 C   0  0  0  0  0  2  0  0  0  0  0  0
  156.3620  211.3490  155.1520 C   0  0  0  0  0  2  0  0  0  0  0  0
  161.6350  210.1580  155.6430 C   0  0  0  0  0  2  0  0  0  0  0  0
  162.2520  209.2530  156.7190 C   0  0  0  0  0  2  0  0  0  0  0  0
  161.2790  208.2990  157.2520 N   0  0  0  0  0  2  0  0  0  0  0  0
  160.1240  208.2030  155.0580 C   0  0  0  0  0  2  0  0  0  0  0  0
  160.2210  209.7240  155.2450 C   0  0  0  0  0  3  0  0  0  0  0  0
  160.8590  207.4240  156.1580 C   0  0  0  0  0  2  0  0  0  0  0  0
  1  4  1  6  0  0  0
  1  2  1  0  0  0  0
  2 21  1  1  0  0  0
  3  1  1  0  0  0  0
  3  2  1  0  0  0  0
  4  5  1  0  0  0  0
  7 16  1  1  0  0  0
  7  8  1  0  0  0  0
  8 13  1  0  0  0  0
  8  5  1  1  0  0  0
  9  6  1  6  0  0  0
  9 14  1  0  0  0  0
 10 11  1  1  0  0  0
 10  9  1  0  0  0  0
 10  7  1  0  0  0  0
 13 17  1  6  0  0  0
 14 12  1  1  0  0  0
 14 13  1  0  0  0  0
 15 16  1  0  0  0  0
 17 18  1  0  0  0  0
 18 20  1  0  0  0  0
 20 19  1  0  0  0  0
 21 22  1  0  0  0  0
 22 23  1  0  0  0  0
 23 25  1  0  0  0  0
 24 23  2  0  0  0  0
 26 25  1  1  0  0  0
 26 38  1  0  0  0  0
 27 32  1  0  0  0  0
 28 27  1  0  0  0  0
 29 26  1  1  0  0  0
 29 31  1  0  0  0  0
 29 30  1  0  0  0  0
 31 28  1  0  0  0  0
 33 30  1  0  0  0  0
 33 32  1  0  0  0  0
 34 35  1  0  0  0  0
 35 36  1  0  0  0  0
 37 38  1  0  0  0  0
 37 39  1  0  0  0  0
 38 34  1  0  0  0  0
 39 36  1  0  0  0  0
M  END
>  <MODEL>
9

>  <REMARK>
 VINA RESULT:      -6.2      3.699     10.831
  Name = 
  14 active torsions:
  status: ('A' for Active; 'I' for Inactive)
    1  A    between atoms: C_1  and  C_6
    2  A    between atoms: C_1  and  C_32
    3  A    between atoms: C_4  and  C_37
    4  A    between atoms: C_5  and  O_24
    5  A    between atoms: C_5  and  O_38
    6  A    between atoms: C_6  and  C_11
    7  A    between atoms: C_7  and  O_9
    8  A    between atoms: O_9  and  C_35
    9  A    between atoms: C_10  and  C_35
   10  A    between atoms: C_11  and  C_21
   11  A    between atoms: C_11  and  C_30
   12  A    between atoms: C_13  and  C_18
   13  A    between atoms: C_18  and  C_32
   14  A    between atoms: C_33  and  O_38
                            x       y       z     vdW  Elec       q    Type
                         _______ _______ _______ _____ _____    ______ ____

>  <TORSDO>
F 14

$$$$
