=
 OpenBabel11072411563D

 32 36  0  0  1  0  0  0  0  0999 V2000
  162.0050  207.9840  149.4660 N   0  0  0  0  0  0  0  0  0  0  0  0
  161.8670  206.7900  148.9550 C   0  0  0  0  0  0  0  0  0  0  0  0
  160.4110  206.7450  146.9370 C   0  0  0  0  0  3  0  0  0  0  0  0
  163.5210  204.7590  146.4680 C   0  0  0  0  0  2  0  0  0  0  0  0
  160.4280  205.0630  145.1100 N   0  0  0  0  0  0  0  0  0  0  0  0
  160.1630  206.4500  145.4720 C   0  0  0  0  0  2  0  0  0  0  0  0
  162.8550  205.3010  145.3880 C   0  0  2  0  0  3  0  0  0  0  0  0
  162.5790  205.8860  146.7230 N   0  0  0  0  0  0  0  0  0  0  0  0
  161.6110  204.5360  145.0400 C   0  0  0  0  0  3  0  0  0  0  0  0
  161.6000  206.5370  147.5160 C   0  0  0  0  0  0  0  0  0  0  0  0
  161.9390  209.1720  148.7260 N   0  0  0  0  0  2  0  0  0  0  0  0
  162.2670  210.4480  149.3410 C   0  0  0  0  0  2  0  0  0  0  0  0
  162.2830  213.3790  145.7770 C   0  0  0  0  0  2  0  0  0  0  0  0
  163.1380  212.2540  147.8900 C   0  0  0  0  0  2  0  0  0  0  0  0
  160.7820  213.0860  145.7760 C   0  0  1  0  0  0  0  0  0  0  0  0
  161.8710  211.5970  148.4280 C   0  0  1  0  0  3  0  0  0  0  0  0
  160.0200  214.2270  145.4830 O   0  0  0  0  0  0  0  0  0  0  0  0
  161.0030  211.0740  147.2900 C   0  0  0  0  0  2  0  0  0  0  0  0
  160.0990  213.2390  144.4790 C   0  0  0  0  0  2  0  0  0  0  0  0
  160.0900  212.1790  146.7880 C   0  0  0  0  0  2  0  0  0  0  0  0
  162.8840  213.5770  147.1680 C   0  0  2  0  0  3  0  0  0  0  0  0
  162.1210  214.4530  147.9470 O   0  0  0  0  0  1  0  0  0  0  0  0
  161.9870  205.6740  149.7900 O   0  0  0  0  0  0  0  0  0  0  0  0
  161.0170  205.3360  150.7340 C   0  0  0  0  0  3  0  0  0  0  0  0
  160.4380  204.1340  150.7780 C   0  0  0  0  0  3  0  0  0  0  0  0
  161.0370  202.2010  147.6080 C   0  0  0  0  0  3  0  0  0  0  0  0
  160.7140  202.9970  149.8800 C   0  0  0  0  0  0  0  0  0  0  0  0
  161.1610  200.6460  149.4570 C   0  0  0  0  0  3  0  0  0  0  0  0
  160.7820  203.2440  148.5030 C   0  0  0  0  0  3  0  0  0  0  0  0
  161.2280  200.9020  148.0850 C   0  0  0  0  0  0  0  0  0  0  0  0
  160.9050  201.6890  150.3500 C   0  0  0  0  0  3  0  0  0  0  0  0
  161.5490  199.5960  146.9650 Cl  0  0  0  0  0  0  0  0  0  0  0  0
  2  1  2  0  0  0  0
  2 23  1  0  0  0  0
  3 10  2  0  0  0  0
  4  8  1  0  0  0  0
  5  6  1  0  0  0  0
  6  3  1  0  0  0  0
  7  9  1  1  0  0  0
  7  4  1  0  0  0  0
  7  8  1  0  0  0  0
  8 10  1  0  0  0  0
  9  5  2  0  0  0  0
 10  2  1  0  0  0  0
 11 12  1  0  0  0  0
 11  1  1  0  0  0  0
 13 21  1  0  0  0  0
 14 16  1  0  0  0  0
 15 19  1  6  0  0  0
 15 13  1  0  0  0  0
 15 20  1  0  0  0  0
 16 12  1  1  0  0  0
 17 15  1  0  0  0  0
 18 16  1  0  0  0  0
 19 17  1  0  0  0  0
 20 18  1  0  0  0  0
 21 14  1  0  0  0  0
 21 22  1  1  0  0  0
 23 24  1  0  0  0  0
 24 25  2  0  0  0  0
 26 30  2  0  0  0  0
 26 29  1  0  0  0  0
 27 31  1  0  0  0  0
 27 25  1  0  0  0  0
 28 31  2  0  0  0  0
 29 27  2  0  0  0  0
 30 28  1  0  0  0  0
 32 30  1  0  0  0  0
M  END
>  <MODEL>
1

>  <REMARK>
 VINA RESULT:      -7.9      0.000      0.000
  Name = 
  7 active torsions:
  status: ('A' for Active; 'I' for Inactive)
    1  A    between atoms: N_1  and  N_2
    2  A    between atoms: N_1  and  C_18
    3  A    between atoms: C_3  and  O_26
    4  A    between atoms: C_9  and  C_22
    5  A    between atoms: C_18  and  C_20
    6  A    between atoms: O_26  and  C_31
    7  A    between atoms: C_30  and  C_31
                            x       y       z     vdW  Elec       q    Type
                         _______ _______ _______ _____ _____    ______ ____

>  <TORSDO>
F 7

$$$$
=
 OpenBabel11072411563D

 32 36  0  0  1  0  0  0  0  0999 V2000
  160.8680  207.2540  153.4860 N   0  0  0  0  0  0  0  0  0  0  0  0
  161.2170  207.0130  152.2510 C   0  0  0  0  0  0  0  0  0  0  0  0
  162.0870  209.2870  151.7320 C   0  0  0  0  0  3  0  0  0  0  0  0
  161.4410  207.2980  148.6570 C   0  0  0  0  0  2  0  0  0  0  0  0
  161.8620  210.5300  149.5940 N   0  0  0  0  0  0  0  0  0  0  0  0
  162.6760  210.3110  150.7840 C   0  0  0  0  0  2  0  0  0  0  0  0
  162.3700  208.3170  148.6600 C   0  0  2  0  0  3  0  0  0  0  0  0
  161.9790  207.7460  149.9730 N   0  0  0  0  0  0  0  0  0  0  0  0
  161.7300  209.6750  148.6270 C   0  0  0  0  0  3  0  0  0  0  0  0
  161.8200  208.0320  151.3530 C   0  0  0  0  0  0  0  0  0  0  0  0
  161.0320  208.4890  154.1270 N   0  0  0  0  0  2  0  0  0  0  0  0
  160.3150  208.7890  155.3550 C   0  0  0  0  0  2  0  0  0  0  0  0
  158.6240  213.0790  155.4970 C   0  0  0  0  0  2  0  0  0  0  0  0
  159.4030  210.8370  156.4040 C   0  0  0  0  0  2  0  0  0  0  0  0
  158.3230  212.8050  154.0230 C   0  0  1  0  0  0  0  0  0  0  0  0
  159.3770  209.9670  155.1510 C   0  0  1  0  0  3  0  0  0  0  0  0
  157.0960  213.3550  153.6210 O   0  0  0  0  0  0  0  0  0  0  0  0
  159.8100  210.7630  153.9270 C   0  0  0  0  0  2  0  0  0  0  0  0
  158.2640  213.9890  153.1480 C   0  0  0  0  0  2  0  0  0  0  0  0
  158.6130  211.4790  153.3270 C   0  0  0  0  0  2  0  0  0  0  0  0
  158.3140  211.9090  156.4300 C   0  0  2  0  0  3  0  0  0  0  0  0
  157.0480  211.3670  156.1860 O   0  0  0  0  0  1  0  0  0  0  0  0
  161.0360  205.7280  151.7300 O   0  0  0  0  0  0  0  0  0  0  0  0
  161.0720  204.5840  152.5270 C   0  0  0  0  0  3  0  0  0  0  0  0
  161.0610  203.3490  152.0220 C   0  0  0  0  0  3  0  0  0  0  0  0
  160.7500  201.2540  148.9130 C   0  0  0  0  0  3  0  0  0  0  0  0
  161.0180  202.9900  150.5920 C   0  0  0  0  0  0  0  0  0  0  0  0
  161.1430  203.5410  148.2280 C   0  0  0  0  0  3  0  0  0  0  0  0
  160.7980  201.6490  150.2540 C   0  0  0  0  0  3  0  0  0  0  0  0
  160.9230  202.2010  147.9000 C   0  0  0  0  0  0  0  0  0  0  0  0
  161.1920  203.9330  149.5680 C   0  0  0  0  0  3  0  0  0  0  0  0
  160.8630  201.7080  146.2220 Cl  0  0  0  0  0  0  0  0  0  0  0  0
  1 11  1  0  0  0  0
  2  1  2  0  0  0  0
  4  7  1  0  0  0  0
  4  8  1  0  0  0  0
  5  6  1  0  0  0  0
  6  3  1  0  0  0  0
  7  9  1  1  0  0  0
  7  8  1  0  0  0  0
  8 10  1  0  0  0  0
  9  5  2  0  0  0  0
 10  3  2  0  0  0  0
 10  2  1  0  0  0  0
 11 12  1  0  0  0  0
 13 21  1  0  0  0  0
 14 21  1  0  0  0  0
 15 19  1  6  0  0  0
 15 13  1  0  0  0  0
 16 12  1  1  0  0  0
 16 14  1  0  0  0  0
 17 15  1  0  0  0  0
 18 16  1  0  0  0  0
 19 17  1  0  0  0  0
 20 18  1  0  0  0  0
 20 15  1  0  0  0  0
 21 22  1  6  0  0  0
 23  2  1  0  0  0  0
 23 24  1  0  0  0  0
 25 24  2  0  0  0  0
 26 29  1  0  0  0  0
 27 25  1  0  0  0  0
 28 31  2  0  0  0  0
 29 27  2  0  0  0  0
 30 28  1  0  0  0  0
 30 26  2  0  0  0  0
 31 27  1  0  0  0  0
 32 30  1  0  0  0  0
M  END
>  <MODEL>
2

>  <REMARK>
 VINA RESULT:      -7.8      4.500      6.042
  Name = 
  7 active torsions:
  status: ('A' for Active; 'I' for Inactive)
    1  A    between atoms: N_1  and  N_2
    2  A    between atoms: N_1  and  C_18
    3  A    between atoms: C_3  and  O_26
    4  A    between atoms: C_9  and  C_22
    5  A    between atoms: C_18  and  C_20
    6  A    between atoms: O_26  and  C_31
    7  A    between atoms: C_30  and  C_31
                            x       y       z     vdW  Elec       q    Type
                         _______ _______ _______ _____ _____    ______ ____

>  <TORSDO>
F 7

$$$$
=
 OpenBabel11072411563D

 32 36  0  0  1  0  0  0  0  0999 V2000
  160.7080  211.0740  151.9920 N   0  0  0  0  0  0  0  0  0  0  0  0
  161.1640  210.0200  152.6140 C   0  0  0  0  0  0  0  0  0  0  0  0
  161.7970  210.7100  154.9210 C   0  0  0  0  0  3  0  0  0  0  0  0
  160.5020  207.2250  154.8040 C   0  0  0  0  0  2  0  0  0  0  0  0
  162.3360  209.2260  156.8370 N   0  0  0  0  0  0  0  0  0  0  0  0
  161.7980  210.5150  156.4230 C   0  0  0  0  0  2  0  0  0  0  0  0
  160.4150  207.9760  155.9580 C   0  0  2  0  0  3  0  0  0  0  0  0
  160.6080  208.7070  154.6810 N   0  0  0  0  0  0  0  0  0  0  0  0
  161.7340  208.0890  156.6670 C   0  0  0  0  0  3  0  0  0  0  0  0
  161.1610  209.8720  154.0920 C   0  0  0  0  0  0  0  0  0  0  0  0
  160.1430  212.1860  152.6300 N   0  0  0  0  0  2  0  0  0  0  0  0
  158.7200  212.4600  152.5220 C   0  0  0  0  0  2  0  0  0  0  0  0
  157.3760  213.5080  156.8100 C   0  0  0  0  0  2  0  0  0  0  0  0
  158.9920  212.9150  154.9390 C   0  0  0  0  0  2  0  0  0  0  0  0
  156.0140  213.0440  156.2910 C   0  0  1  0  0  0  0  0  0  0  0  0
  158.0500  212.3480  153.8820 C   0  0  1  0  0  3  0  0  0  0  0  0
  155.2930  212.3290  157.2610 O   0  0  0  0  0  0  0  0  0  0  0  0
  156.7290  213.1050  153.8670 C   0  0  0  0  0  2  0  0  0  0  0  0
  154.8380  213.6300  156.9590 C   0  0  0  0  0  2  0  0  0  0  0  0
  155.7770  212.5010  154.8860 C   0  0  0  0  0  2  0  0  0  0  0  0
  158.5480  212.6290  156.3730 C   0  0  2  0  0  3  0  0  0  0  0  0
  158.2830  211.2700  156.5720 O   0  0  0  0  0  1  0  0  0  0  0  0
  161.6760  208.9550  151.8660 O   0  0  0  0  0  0  0  0  0  0  0  0
  161.9580  209.0640  150.5040 C   0  0  0  0  0  3  0  0  0  0  0  0
  161.9830  208.0110  149.6840 C   0  0  0  0  0  3  0  0  0  0  0  0
  160.9820  204.4000  149.3630 C   0  0  0  0  0  3  0  0  0  0  0  0
  161.7220  206.6080  150.0550 C   0  0  0  0  0  0  0  0  0  0  0  0
  161.6590  204.7780  151.6540 C   0  0  0  0  0  3  0  0  0  0  0  0
  161.2490  205.7390  149.0630 C   0  0  0  0  0  3  0  0  0  0  0  0
  161.1880  203.9190  150.6580 C   0  0  0  0  0  0  0  0  0  0  0  0
  161.9240  206.1170  151.3540 C   0  0  0  0  0  3  0  0  0  0  0  0
  160.8550  202.2420  151.0330 Cl  0  0  0  0  0  0  0  0  0  0  0  0
  1  2  2  0  0  0  0
  1 11  1  0  0  0  0
  2 10  1  0  0  0  0
  3  6  1  0  0  0  0
  6  5  1  0  0  0  0
  7  4  1  6  0  0  0
  7  9  1  0  0  0  0
  8  4  1  0  0  0  0
  8  7  1  0  0  0  0
  9  5  2  0  0  0  0
 10  8  1  0  0  0  0
 10  3  2  0  0  0  0
 12 11  1  0  0  0  0
 14 21  1  0  0  0  0
 15 20  1  6  0  0  0
 15 13  1  0  0  0  0
 15 19  1  0  0  0  0
 15 17  1  0  0  0  0
 16 12  1  6  0  0  0
 16 14  1  0  0  0  0
 18 16  1  0  0  0  0
 18 20  1  0  0  0  0
 19 17  1  0  0  0  0
 21 22  1  6  0  0  0
 21 13  1  0  0  0  0
 23  2  1  0  0  0  0
 24 23  1  0  0  0  0
 25 27  1  0  0  0  0
 25 24  2  0  0  0  0
 26 30  1  0  0  0  0
 27 31  2  0  0  0  0
 29 26  2  0  0  0  0
 29 27  1  0  0  0  0
 30 32  1  0  0  0  0
 30 28  2  0  0  0  0
 31 28  1  0  0  0  0
M  END
>  <MODEL>
3

>  <REMARK>
 VINA RESULT:      -7.5      6.261      8.322
  Name = 
  7 active torsions:
  status: ('A' for Active; 'I' for Inactive)
    1  A    between atoms: N_1  and  N_2
    2  A    between atoms: N_1  and  C_18
    3  A    between atoms: C_3  and  O_26
    4  A    between atoms: C_9  and  C_22
    5  A    between atoms: C_18  and  C_20
    6  A    between atoms: O_26  and  C_31
    7  A    between atoms: C_30  and  C_31
                            x       y       z     vdW  Elec       q    Type
                         _______ _______ _______ _____ _____    ______ ____

>  <TORSDO>
F 7

$$$$
=
 OpenBabel11072411563D

 32 36  0  0  1  0  0  0  0  0999 V2000
  162.0610  207.9030  149.3880 N   0  0  0  0  0  0  0  0  0  0  0  0
  161.9030  206.7010  148.9040 C   0  0  0  0  0  0  0  0  0  0  0  0
  160.4010  206.5810  146.9230 C   0  0  0  0  0  3  0  0  0  0  0  0
  163.5680  204.7030  146.3960 C   0  0  0  0  0  2  0  0  0  0  0  0
  160.4340  204.8810  145.1130 N   0  0  0  0  0  0  0  0  0  0  0  0
  160.1270  206.2610  145.4670 C   0  0  0  0  0  2  0  0  0  0  0  0
  162.8570  205.2090  145.3280 C   0  0  2  0  0  3  0  0  0  0  0  0
  162.5920  205.7980  146.6640 N   0  0  0  0  0  0  0  0  0  0  0  0
  161.6340  204.3960  145.0190 C   0  0  0  0  0  3  0  0  0  0  0  0
  161.6100  206.4220  147.4740 C   0  0  0  0  0  0  0  0  0  0  0  0
  161.9950  209.0770  148.6270 N   0  0  0  0  0  2  0  0  0  0  0  0
  161.9740  210.3790  149.2710 C   0  0  0  0  0  2  0  0  0  0  0  0
  161.5020  210.4780  153.8600 C   0  0  0  0  0  2  0  0  0  0  0  0
  162.3490  209.6570  151.6090 C   0  0  0  0  0  2  0  0  0  0  0  0
  160.2350  211.2640  153.5210 C   0  0  1  0  0  0  0  0  0  0  0  0
  161.3410  210.2820  150.6500 C   0  0  1  0  0  3  0  0  0  0  0  0
  159.1670  210.9400  154.3720 O   0  0  0  0  0  0  0  0  0  0  0  0
  160.9250  211.6680  151.1240 C   0  0  0  0  0  2  0  0  0  0  0  0
  159.7660  212.2040  154.5550 C   0  0  0  0  0  2  0  0  0  0  0  0
  159.7670  211.5540  152.0990 C   0  0  0  0  0  2  0  0  0  0  0  0
  161.7500  209.2680  152.9600 C   0  0  2  0  0  3  0  0  0  0  0  0
  160.6020  208.4830  152.8110 O   0  0  0  0  0  1  0  0  0  0  0  0
  162.0260  205.6000  149.7580 O   0  0  0  0  0  0  0  0  0  0  0  0
  161.0430  205.2600  150.6880 C   0  0  0  0  0  3  0  0  0  0  0  0
  160.4560  204.0620  150.7160 C   0  0  0  0  0  3  0  0  0  0  0  0
  161.0690  202.1490  147.5370 C   0  0  0  0  0  3  0  0  0  0  0  0
  160.7360  202.9300  149.8120 C   0  0  0  0  0  0  0  0  0  0  0  0
  161.1830  200.5810  149.3760 C   0  0  0  0  0  3  0  0  0  0  0  0
  160.8100  203.1860  148.4370 C   0  0  0  0  0  3  0  0  0  0  0  0
  161.2560  200.8460  148.0060 C   0  0  0  0  0  0  0  0  0  0  0  0
  160.9230  201.6190  150.2750 C   0  0  0  0  0  3  0  0  0  0  0  0
  161.5810  199.5470  146.8790 Cl  0  0  0  0  0  0  0  0  0  0  0  0
  2  1  2  0  0  0  0
  2 23  1  0  0  0  0
  3 10  2  0  0  0  0
  4  8  1  0  0  0  0
  5  6  1  0  0  0  0
  6  3  1  0  0  0  0
  7  9  1  1  0  0  0
  7  4  1  0  0  0  0
  7  8  1  0  0  0  0
  8 10  1  0  0  0  0
  9  5  2  0  0  0  0
 10  2  1  0  0  0  0
 11 12  1  0  0  0  0
 11  1  1  0  0  0  0
 14 21  1  0  0  0  0
 15 20  1  6  0  0  0
 15 13  1  0  0  0  0
 15 17  1  0  0  0  0
 15 19  1  0  0  0  0
 16 12  1  6  0  0  0
 16 18  1  0  0  0  0
 16 14  1  0  0  0  0
 17 19  1  0  0  0  0
 18 20  1  0  0  0  0
 21 22  1  6  0  0  0
 21 13  1  0  0  0  0
 23 24  1  0  0  0  0
 24 25  2  0  0  0  0
 26 30  2  0  0  0  0
 26 29  1  0  0  0  0
 27 31  1  0  0  0  0
 27 25  1  0  0  0  0
 28 31  2  0  0  0  0
 29 27  2  0  0  0  0
 30 28  1  0  0  0  0
 32 30  1  0  0  0  0
M  END
>  <MODEL>
4

>  <REMARK>
 VINA RESULT:      -7.5      2.898      4.026
  Name = 
  7 active torsions:
  status: ('A' for Active; 'I' for Inactive)
    1  A    between atoms: N_1  and  N_2
    2  A    between atoms: N_1  and  C_18
    3  A    between atoms: C_3  and  O_26
    4  A    between atoms: C_9  and  C_22
    5  A    between atoms: C_18  and  C_20
    6  A    between atoms: O_26  and  C_31
    7  A    between atoms: C_30  and  C_31
                            x       y       z     vdW  Elec       q    Type
                         _______ _______ _______ _____ _____    ______ ____

>  <TORSDO>
F 7

$$$$
=
 OpenBabel11072411563D

 32 36  0  0  1  0  0  0  0  0999 V2000
  161.9320  209.4200  149.3200 N   0  0  0  0  0  0  0  0  0  0  0  0
  161.6470  208.2290  149.7730 C   0  0  0  0  0  0  0  0  0  0  0  0
  162.0500  206.6010  151.6120 C   0  0  0  0  0  3  0  0  0  0  0  0
  160.4320  209.7210  152.8300 C   0  0  0  0  0  2  0  0  0  0  0  0
  160.9070  206.5110  153.8150 N   0  0  0  0  0  0  0  0  0  0  0  0
  162.1340  206.2320  153.0790 C   0  0  0  0  0  2  0  0  0  0  0  0
  161.2000  208.9440  153.6730 C   0  0  2  0  0  3  0  0  0  0  0  0
  161.3990  208.7680  152.2130 N   0  0  0  0  0  0  0  0  0  0  0  0
  160.4840  207.7000  154.1140 C   0  0  0  0  0  3  0  0  0  0  0  0
  161.7640  207.8430  151.2030 C   0  0  0  0  0  0  0  0  0  0  0  0
  162.3650  210.4860  150.1190 N   0  0  0  0  0  2  0  0  0  0  0  0
  161.7200  211.7860  150.0330 C   0  0  0  0  0  2  0  0  0  0  0  0
  160.7770  214.3500  146.3150 C   0  0  0  0  0  2  0  0  0  0  0  0
  160.3210  213.1340  148.5000 C   0  0  0  0  0  2  0  0  0  0  0  0
  162.0440  213.6880  145.7730 C   0  0  1  0  0  0  0  0  0  0  0  0
  161.5100  212.1830  148.5810 C   0  0  1  0  0  3  0  0  0  0  0  0
  161.9380  213.3770  144.4080 O   0  0  0  0  0  0  0  0  0  0  0  0
  162.7730  212.8420  148.0410 C   0  0  0  0  0  2  0  0  0  0  0  0
  162.7840  214.4530  144.7530 C   0  0  0  0  0  2  0  0  0  0  0  0
  162.8540  212.6460  146.5370 C   0  0  0  0  0  2  0  0  0  0  0  0
  159.8470  213.4030  147.0720 C   0  0  2  0  0  3  0  0  0  0  0  0
  159.6260  212.2150  146.3670 O   0  0  0  0  0  1  0  0  0  0  0  0
  161.1910  207.2520  148.8820 O   0  0  0  0  0  0  0  0  0  0  0  0
  161.7760  207.0460  147.6320 C   0  0  0  0  0  3  0  0  0  0  0  0
  161.9380  205.8330  147.0990 C   0  0  0  0  0  3  0  0  0  0  0  0
  160.7810  203.3580  149.6840 C   0  0  0  0  0  3  0  0  0  0  0  0
  161.5380  204.5510  147.7080 C   0  0  0  0  0  0  0  0  0  0  0  0
  161.1380  202.1550  147.6170 C   0  0  0  0  0  3  0  0  0  0  0  0
  161.1650  204.5480  149.0580 C   0  0  0  0  0  3  0  0  0  0  0  0
  160.7670  202.1620  148.9630 C   0  0  0  0  0  0  0  0  0  0  0  0
  161.5230  203.3440  146.9920 C   0  0  0  0  0  3  0  0  0  0  0  0
  160.2850  200.6730  149.7470 Cl  0  0  0  0  0  0  0  0  0  0  0  0
  1  2  2  0  0  0  0
  1 11  1  0  0  0  0
  2 10  1  0  0  0  0
  3  6  1  0  0  0  0
  5  9  2  0  0  0  0
  6  5  1  0  0  0  0
  7  4  1  6  0  0  0
  7  9  1  0  0  0  0
  8  4  1  0  0  0  0
  8  7  1  0  0  0  0
 10  3  2  0  0  0  0
 10  8  1  0  0  0  0
 12 11  1  0  0  0  0
 13 21  1  0  0  0  0
 14 16  1  0  0  0  0
 15 19  1  6  0  0  0
 15 13  1  0  0  0  0
 15 20  1  0  0  0  0
 16 12  1  1  0  0  0
 17 19  1  0  0  0  0
 17 15  1  0  0  0  0
 18 16  1  0  0  0  0
 20 18  1  0  0  0  0
 21 22  1  6  0  0  0
 21 14  1  0  0  0  0
 23  2  1  0  0  0  0
 24 23  1  0  0  0  0
 25 24  2  0  0  0  0
 25 27  1  0  0  0  0
 27 29  2  0  0  0  0
 28 30  1  0  0  0  0
 29 26  1  0  0  0  0
 30 26  2  0  0  0  0
 30 32  1  0  0  0  0
 31 28  2  0  0  0  0
 31 27  1  0  0  0  0
M  END
>  <MODEL>
5

>  <REMARK>
 VINA RESULT:      -7.3      2.233      4.456
  Name = 
  7 active torsions:
  status: ('A' for Active; 'I' for Inactive)
    1  A    between atoms: N_1  and  N_2
    2  A    between atoms: N_1  and  C_18
    3  A    between atoms: C_3  and  O_26
    4  A    between atoms: C_9  and  C_22
    5  A    between atoms: C_18  and  C_20
    6  A    between atoms: O_26  and  C_31
    7  A    between atoms: C_30  and  C_31
                            x       y       z     vdW  Elec       q    Type
                         _______ _______ _______ _____ _____    ______ ____

>  <TORSDO>
F 7

$$$$
=
 OpenBabel11072411563D

 32 36  0  0  1  0  0  0  0  0999 V2000
  160.5390  210.2800  152.0880 N   0  0  0  0  0  0  0  0  0  0  0  0
  159.8400  210.5900  153.1470 C   0  0  0  0  0  0  0  0  0  0  0  0
  160.9990  211.3100  155.2270 C   0  0  0  0  0  3  0  0  0  0  0  0
  160.4460  207.6340  155.1320 C   0  0  0  0  0  2  0  0  0  0  0  0
  162.3820  209.9070  156.7390 N   0  0  0  0  0  0  0  0  0  0  0  0
  161.5000  211.0620  156.6360 C   0  0  0  0  0  2  0  0  0  0  0  0
  160.5710  208.3020  156.3330 C   0  0  2  0  0  3  0  0  0  0  0  0
  160.2140  209.1060  155.1380 N   0  0  0  0  0  0  0  0  0  0  0  0
  161.9930  208.6740  156.6350 C   0  0  0  0  0  3  0  0  0  0  0  0
  160.3190  210.3870  154.5380 C   0  0  0  0  0  0  0  0  0  0  0  0
  161.8300  209.7370  152.1260 N   0  0  0  0  0  2  0  0  0  0  0  0
  162.4050  209.1080  150.9480 C   0  0  0  0  0  2  0  0  0  0  0  0
  161.7330  204.8090  149.4130 C   0  0  0  0  0  2  0  0  0  0  0  0
  162.0890  207.3210  149.2650 C   0  0  0  0  0  2  0  0  0  0  0  0
  161.2210  204.5850  150.8370 C   0  0  1  0  0  0  0  0  0  0  0  0
  161.7350  207.7700  150.6790 C   0  0  1  0  0  3  0  0  0  0  0  0
  160.1100  203.7270  150.8720 O   0  0  0  0  0  0  0  0  0  0  0  0
  162.1980  206.7470  151.7080 C   0  0  0  0  0  2  0  0  0  0  0  0
  161.3310  203.2070  151.3510 C   0  0  0  0  0  2  0  0  0  0  0  0
  161.1320  205.6810  151.8930 C   0  0  0  0  0  2  0  0  0  0  0  0
  161.2750  206.1220  148.7800 C   0  0  2  0  0  3  0  0  0  0  0  0
  159.9010  206.3290  148.9430 O   0  0  0  0  0  1  0  0  0  0  0  0
  158.5720  211.1580  152.9830 O   0  0  0  0  0  0  0  0  0  0  0  0
  158.2640  212.4430  153.4300 C   0  0  0  0  0  3  0  0  0  0  0  0
  158.2270  213.5020  152.6190 C   0  0  0  0  0  3  0  0  0  0  0  0
  160.1190  213.6030  149.3700 C   0  0  0  0  0  3  0  0  0  0  0  0
  158.4880  213.5010  151.1670 C   0  0  0  0  0  0  0  0  0  0  0  0
  157.7640  213.4180  148.8480 C   0  0  0  0  0  3  0  0  0  0  0  0
  159.8170  213.5970  150.7350 C   0  0  0  0  0  3  0  0  0  0  0  0
  159.0920  213.5130  148.4270 C   0  0  0  0  0  0  0  0  0  0  0  0
  157.4630  213.4130  150.2130 C   0  0  0  0  0  3  0  0  0  0  0  0
  159.4700  213.5200  146.7180 Cl  0  0  0  0  0  0  0  0  0  0  0  0
  1 11  1  0  0  0  0
  1  2  2  0  0  0  0
  2 10  1  0  0  0  0
  3  6  1  0  0  0  0
  4  8  1  0  0  0  0
  6  5  1  0  0  0  0
  7  4  1  6  0  0  0
  7  9  1  0  0  0  0
  8  7  1  0  0  0  0
  9  5  2  0  0  0  0
 10  8  1  0  0  0  0
 10  3  2  0  0  0  0
 12 11  1  0  0  0  0
 14 16  1  0  0  0  0
 15 13  1  6  0  0  0
 15 17  1  0  0  0  0
 15 19  1  0  0  0  0
 15 20  1  0  0  0  0
 16 12  1  1  0  0  0
 16 18  1  0  0  0  0
 17 19  1  0  0  0  0
 18 20  1  0  0  0  0
 21 22  1  1  0  0  0
 21 14  1  0  0  0  0
 21 13  1  0  0  0  0
 23  2  1  0  0  0  0
 23 24  1  0  0  0  0
 25 24  2  0  0  0  0
 26 29  1  0  0  0  0
 27 25  1  0  0  0  0
 28 31  2  0  0  0  0
 29 27  2  0  0  0  0
 30 28  1  0  0  0  0
 30 26  2  0  0  0  0
 31 27  1  0  0  0  0
 32 30  1  0  0  0  0
M  END
>  <MODEL>
6

>  <REMARK>
 VINA RESULT:      -7.3      5.019      9.721
  Name = 
  7 active torsions:
  status: ('A' for Active; 'I' for Inactive)
    1  A    between atoms: N_1  and  N_2
    2  A    between atoms: N_1  and  C_18
    3  A    between atoms: C_3  and  O_26
    4  A    between atoms: C_9  and  C_22
    5  A    between atoms: C_18  and  C_20
    6  A    between atoms: O_26  and  C_31
    7  A    between atoms: C_30  and  C_31
                            x       y       z     vdW  Elec       q    Type
                         _______ _______ _______ _____ _____    ______ ____

>  <TORSDO>
F 7

$$$$
=
 OpenBabel11072411563D

 32 36  0  0  1  0  0  0  0  0999 V2000
  162.2730  207.3060  149.9580 N   0  0  0  0  0  0  0  0  0  0  0  0
  162.0170  206.2350  149.2560 C   0  0  0  0  0  0  0  0  0  0  0  0
  160.4320  206.5870  147.3700 C   0  0  0  0  0  3  0  0  0  0  0  0
  163.4630  204.7030  146.3220 C   0  0  0  0  0  2  0  0  0  0  0  0
  160.2940  205.2840  145.2610 N   0  0  0  0  0  0  0  0  0  0  0  0
  160.0810  206.5780  145.8970 C   0  0  0  0  0  2  0  0  0  0  0  0
  162.7390  205.4460  145.4120 C   0  0  2  0  0  3  0  0  0  0  0  0
  162.5630  205.7680  146.8500 N   0  0  0  0  0  0  0  0  0  0  0  0
  161.4590  204.7710  145.0110 C   0  0  0  0  0  3  0  0  0  0  0  0
  161.6510  206.2630  147.8170 C   0  0  0  0  0  0  0  0  0  0  0  0
  162.2550  208.6100  149.4450 N   0  0  0  0  0  2  0  0  0  0  0  0
  161.5980  209.6840  150.1720 C   0  0  0  0  0  2  0  0  0  0  0  0
  160.4370  209.7030  154.6380 C   0  0  0  0  0  2  0  0  0  0  0  0
  161.1530  210.6690  152.3980 C   0  0  0  0  0  2  0  0  0  0  0  0
  160.8040  208.2210  154.5420 C   0  0  1  0  0  0  0  0  0  0  0  0
  161.6550  209.4270  151.6690 C   0  0  1  0  0  3  0  0  0  0  0  0
  161.4600  207.7620  155.6960 O   0  0  0  0  0  0  0  0  0  0  0  0
  160.8050  208.2110  152.0150 C   0  0  0  0  0  2  0  0  0  0  0  0
  160.1310  207.3290  155.5040 C   0  0  0  0  0  2  0  0  0  0  0  0
  161.3340  207.5540  153.2780 C   0  0  0  0  0  2  0  0  0  0  0  0
  161.4000  210.6370  153.9060 C   0  0  2  0  0  3  0  0  0  0  0  0
  162.7360  210.3490  154.2060 O   0  0  0  0  0  1  0  0  0  0  0  0
  162.1000  204.9820  149.8720 O   0  0  0  0  0  0  0  0  0  0  0  0
  161.0960  204.4880  150.7040 C   0  0  0  0  0  3  0  0  0  0  0  0
  160.4730  203.3290  150.4780 C   0  0  0  0  0  3  0  0  0  0  0  0
  161.4630  200.2030  148.6360 C   0  0  0  0  0  3  0  0  0  0  0  0
  160.7290  202.4030  149.3590 C   0  0  0  0  0  0  0  0  0  0  0  0
  160.7840  201.8450  146.9940 C   0  0  0  0  0  3  0  0  0  0  0  0
  161.2010  201.1190  149.6590 C   0  0  0  0  0  3  0  0  0  0  0  0
  161.2540  200.5660  147.3030 C   0  0  0  0  0  0  0  0  0  0  0  0
  160.5240  202.7590  148.0170 C   0  0  0  0  0  3  0  0  0  0  0  0
  161.5810  199.4200  146.0220 Cl  0  0  0  0  0  0  0  0  0  0  0  0
  2 23  1  0  0  0  0
  2  1  2  0  0  0  0
  3 10  2  0  0  0  0
  4  8  1  0  0  0  0
  5  6  1  0  0  0  0
  6  3  1  0  0  0  0
  7  9  1  1  0  0  0
  7  4  1  0  0  0  0
  7  8  1  0  0  0  0
  8 10  1  0  0  0  0
  9  5  2  0  0  0  0
 10  2  1  0  0  0  0
 11  1  1  0  0  0  0
 11 12  1  0  0  0  0
 14 21  1  0  0  0  0
 15 20  1  6  0  0  0
 15 13  1  0  0  0  0
 15 19  1  0  0  0  0
 15 17  1  0  0  0  0
 16 12  1  6  0  0  0
 16 18  1  0  0  0  0
 16 14  1  0  0  0  0
 18 20  1  0  0  0  0
 19 17  1  0  0  0  0
 21 22  1  6  0  0  0
 21 13  1  0  0  0  0
 23 24  1  0  0  0  0
 25 24  2  0  0  0  0
 26 29  1  0  0  0  0
 27 29  2  0  0  0  0
 27 25  1  0  0  0  0
 28 30  1  0  0  0  0
 28 31  2  0  0  0  0
 30 26  2  0  0  0  0
 31 27  1  0  0  0  0
 32 30  1  0  0  0  0
M  END
>  <MODEL>
7

>  <REMARK>
 VINA RESULT:      -7.3      3.327      4.954
  Name = 
  7 active torsions:
  status: ('A' for Active; 'I' for Inactive)
    1  A    between atoms: N_1  and  N_2
    2  A    between atoms: N_1  and  C_18
    3  A    between atoms: C_3  and  O_26
    4  A    between atoms: C_9  and  C_22
    5  A    between atoms: C_18  and  C_20
    6  A    between atoms: O_26  and  C_31
    7  A    between atoms: C_30  and  C_31
                            x       y       z     vdW  Elec       q    Type
                         _______ _______ _______ _____ _____    ______ ____

>  <TORSDO>
F 7

$$$$
=
 OpenBabel11072411563D

 32 36  0  0  1  0  0  0  0  0999 V2000
  161.2960  205.5040  153.0720 N   0  0  0  0  0  0  0  0  0  0  0  0
  161.4840  205.1940  151.8170 C   0  0  0  0  0  0  0  0  0  0  0  0
  160.7000  205.7280  149.5170 C   0  0  0  0  0  3  0  0  0  0  0  0
  162.7060  208.4910  150.9910 C   0  0  0  0  0  2  0  0  0  0  0  0
  161.6570  207.4040  147.9540 N   0  0  0  0  0  0  0  0  0  0  0  0
  160.4560  206.6950  148.3760 C   0  0  0  0  0  2  0  0  0  0  0  0
  161.7680  208.7400  150.0100 C   0  0  2  0  0  3  0  0  0  0  0  0
  161.6450  207.4680  150.7650 N   0  0  0  0  0  0  0  0  0  0  0  0
  162.2430  208.3320  148.6470 C   0  0  0  0  0  3  0  0  0  0  0  0
  161.2080  206.1210  150.6900 C   0  0  0  0  0  0  0  0  0  0  0  0
  160.8310  206.7480  153.5170 N   0  0  0  0  0  2  0  0  0  0  0  0
  160.6050  206.9930  154.9320 C   0  0  0  0  0  2  0  0  0  0  0  0
  160.4210  211.5980  154.7070 C   0  0  0  0  0  2  0  0  0  0  0  0
  160.9990  209.2370  153.9640 C   0  0  0  0  0  2  0  0  0  0  0  0
  160.1830  211.4710  156.2120 C   0  0  1  0  0  0  0  0  0  0  0  0
  160.8500  208.4550  155.2660 C   0  0  1  0  0  3  0  0  0  0  0  0
  160.8310  212.4830  156.9380 O   0  0  0  0  0  0  0  0  0  0  0  0
  159.6930  208.9940  156.0950 C   0  0  0  0  0  2  0  0  0  0  0  0
  159.4260  212.5700  156.8380 C   0  0  0  0  0  2  0  0  0  0  0  0
  160.1720  210.1440  156.9640 C   0  0  0  0  0  2  0  0  0  0  0  0
  161.5030  210.6660  154.1600 C   0  0  2  0  0  3  0  0  0  0  0  0
  162.6650  210.7030  154.9370 O   0  0  0  0  0  1  0  0  0  0  0  0
  161.9860  203.9280  151.4960 O   0  0  0  0  0  0  0  0  0  0  0  0
  161.4500  202.7540  152.0240 C   0  0  0  0  0  3  0  0  0  0  0  0
  160.9560  201.7760  151.2610 C   0  0  0  0  0  3  0  0  0  0  0  0
  161.2060  200.5130  147.7280 C   0  0  0  0  0  3  0  0  0  0  0  0
  160.8980  201.7620  149.7880 C   0  0  0  0  0  0  0  0  0  0  0  0
  160.4810  202.8190  147.6380 C   0  0  0  0  0  3  0  0  0  0  0  0
  161.2420  200.5780  149.1240 C   0  0  0  0  0  3  0  0  0  0  0  0
  160.8250  201.6330  146.9850 C   0  0  0  0  0  0  0  0  0  0  0  0
  160.5180  202.8830  149.0340 C   0  0  0  0  0  3  0  0  0  0  0  0
  160.7800  201.5510  145.2380 Cl  0  0  0  0  0  0  0  0  0  0  0  0
  1 11  1  0  0  0  0
  2  1  2  0  0  0  0
  3 10  2  0  0  0  0
  5  6  1  0  0  0  0
  5  9  2  0  0  0  0
  6  3  1  0  0  0  0
  7  9  1  6  0  0  0
  7  8  1  0  0  0  0
  7  4  1  0  0  0  0
  8  4  1  0  0  0  0
 10  8  1  0  0  0  0
 10  2  1  0  0  0  0
 11 12  1  0  0  0  0
 14 21  1  0  0  0  0
 14 16  1  0  0  0  0
 15 13  1  6  0  0  0
 15 19  1  0  0  0  0
 15 17  1  0  0  0  0
 15 20  1  0  0  0  0
 16 12  1  6  0  0  0
 16 18  1  0  0  0  0
 18 20  1  0  0  0  0
 19 17  1  0  0  0  0
 21 13  1  0  0  0  0
 21 22  1  1  0  0  0
 23  2  1  0  0  0  0
 23 24  1  0  0  0  0
 25 24  2  0  0  0  0
 26 29  1  0  0  0  0
 27 25  1  0  0  0  0
 28 31  2  0  0  0  0
 29 27  2  0  0  0  0
 30 28  1  0  0  0  0
 30 26  2  0  0  0  0
 31 27  1  0  0  0  0
 32 30  1  0  0  0  0
M  END
>  <MODEL>
8

>  <REMARK>
 VINA RESULT:      -7.2      4.268      6.195
  Name = 
  7 active torsions:
  status: ('A' for Active; 'I' for Inactive)
    1  A    between atoms: N_1  and  N_2
    2  A    between atoms: N_1  and  C_18
    3  A    between atoms: C_3  and  O_26
    4  A    between atoms: C_9  and  C_22
    5  A    between atoms: C_18  and  C_20
    6  A    between atoms: O_26  and  C_31
    7  A    between atoms: C_30  and  C_31
                            x       y       z     vdW  Elec       q    Type
                         _______ _______ _______ _____ _____    ______ ____

>  <TORSDO>
F 7

$$$$
=
 OpenBabel11072411563D

 32 36  0  0  1  0  0  0  0  0999 V2000
  162.1270  208.3410  149.6250 N   0  0  0  0  0  0  0  0  0  0  0  0
  161.6010  207.1510  149.5150 C   0  0  0  0  0  0  0  0  0  0  0  0
  161.2800  206.7330  151.9470 C   0  0  0  0  0  3  0  0  0  0  0  0
  160.8680  203.6380  149.9260 C   0  0  0  0  0  2  0  0  0  0  0  0
  161.4630  204.5600  153.1350 N   0  0  0  0  0  0  0  0  0  0  0  0
  160.8300  205.8720  153.1100 C   0  0  0  0  0  2  0  0  0  0  0  0
  160.2500  203.7720  151.1520 C   0  0  2  0  0  3  0  0  0  0  0  0
  160.6900  205.0150  150.4700 N   0  0  0  0  0  0  0  0  0  0  0  0
  161.2060  203.6040  152.2960 C   0  0  0  0  0  3  0  0  0  0  0  0
  161.1450  206.3420  150.6750 C   0  0  0  0  0  0  0  0  0  0  0  0
  162.3120  209.0130  150.8410 N   0  0  0  0  0  2  0  0  0  0  0  0
  161.7290  210.3270  151.0580 C   0  0  0  0  0  2  0  0  0  0  0  0
  160.5410  211.3310  155.4020 C   0  0  0  0  0  2  0  0  0  0  0  0
  161.9300  210.3280  153.5250 C   0  0  0  0  0  2  0  0  0  0  0  0
  159.1680  211.5660  154.7700 C   0  0  1  0  0  0  0  0  0  0  0  0
  160.9460  210.3530  152.3600 C   0  0  1  0  0  3  0  0  0  0  0  0
  158.1220  211.1220  155.5940 O   0  0  0  0  0  0  0  0  0  0  0  0
  160.0750  211.6020  152.4110 C   0  0  0  0  0  2  0  0  0  0  0  0
  158.2900  212.5180  155.4740 C   0  0  0  0  0  2  0  0  0  0  0  0
  158.8630  211.3510  153.2910 C   0  0  0  0  0  2  0  0  0  0  0  0
  161.2680  210.0920  154.8820 C   0  0  2  0  0  3  0  0  0  0  0  0
  160.4370  208.9670  154.8650 O   0  0  0  0  0  1  0  0  0  0  0  0
  161.4360  206.5950  148.2420 O   0  0  0  0  0  0  0  0  0  0  0  0
  162.2260  206.9650  147.1540 C   0  0  0  0  0  3  0  0  0  0  0  0
  162.3640  206.2030  146.0670 C   0  0  0  0  0  3  0  0  0  0  0  0
  160.1810  203.5670  144.5090 C   0  0  0  0  0  3  0  0  0  0  0  0
  161.7270  204.8940  145.8310 C   0  0  0  0  0  0  0  0  0  0  0  0
  161.3650  202.5490  146.3570 C   0  0  0  0  0  3  0  0  0  0  0  0
  160.8150  204.7840  144.7750 C   0  0  0  0  0  3  0  0  0  0  0  0
  160.4560  202.4490  145.3010 C   0  0  0  0  0  0  0  0  0  0  0  0
  161.9970  203.7660  146.6220 C   0  0  0  0  0  3  0  0  0  0  0  0
  159.6630  200.9240  144.9690 Cl  0  0  0  0  0  0  0  0  0  0  0  0
  1 11  1  0  0  0  0
  2  1  2  0  0  0  0
  2 10  1  0  0  0  0
  3  6  1  0  0  0  0
  4  8  1  0  0  0  0
  6  5  1  0  0  0  0
  7  4  1  6  0  0  0
  7  9  1  0  0  0  0
  8 10  1  0  0  0  0
  8  7  1  0  0  0  0
  9  5  2  0  0  0  0
 10  3  2  0  0  0  0
 11 12  1  0  0  0  0
 14 21  1  0  0  0  0
 15 20  1  6  0  0  0
 15 13  1  0  0  0  0
 15 19  1  0  0  0  0
 15 17  1  0  0  0  0
 16 12  1  6  0  0  0
 16 18  1  0  0  0  0
 16 14  1  0  0  0  0
 18 20  1  0  0  0  0
 19 17  1  0  0  0  0
 21 22  1  6  0  0  0
 21 13  1  0  0  0  0
 23  2  1  0  0  0  0
 24 23  1  0  0  0  0
 25 24  2  0  0  0  0
 26 29  2  0  0  0  0
 26 30  1  0  0  0  0
 27 25  1  0  0  0  0
 27 31  2  0  0  0  0
 28 31  1  0  0  0  0
 29 27  1  0  0  0  0
 30 28  2  0  0  0  0
 32 30  1  0  0  0  0
M  END
>  <MODEL>
9

>  <REMARK>
 VINA RESULT:      -7.2      3.745      6.033
  Name = 
  7 active torsions:
  status: ('A' for Active; 'I' for Inactive)
    1  A    between atoms: N_1  and  N_2
    2  A    between atoms: N_1  and  C_18
    3  A    between atoms: C_3  and  O_26
    4  A    between atoms: C_9  and  C_22
    5  A    between atoms: C_18  and  C_20
    6  A    between atoms: O_26  and  C_31
    7  A    between atoms: C_30  and  C_31
                            x       y       z     vdW  Elec       q    Type
                         _______ _______ _______ _____ _____    ______ ____

>  <TORSDO>
F 7

$$$$
