=
 OpenBabel11072411343D

 25 27  0  0  1  0  0  0  0  0999 V2000
  162.0370  210.3080  149.9430 C   0  0  0  0  0  3  0  0  0  0  0  0
  161.3220  208.7240  151.4990 C   0  0  0  0  0  0  0  0  0  0  0  0
  160.8950  208.2650  152.6840 N   0  0  0  0  0  0  0  0  0  0  0  0
  160.8680  206.9140  152.5490 C   0  0  0  0  0  3  0  0  0  0  0  0
  161.5380  210.0190  151.1810 N   0  0  0  0  0  0  0  0  0  0  0  0
  161.2780  206.5090  151.2750 C   0  0  0  0  0  0  0  0  0  0  0  0
  161.5890  207.6670  150.5780 C   0  0  2  0  0  3  0  0  0  0  0  0
  162.3330  209.3110  149.0500 N   0  0  0  0  0  0  0  0  0  0  0  0
  162.1300  207.9890  149.3300 C   0  0  0  0  0  0  0  0  0  0  0  0
  161.8340  204.0620  151.7410 C   0  0  0  0  0  3  0  0  0  0  0  0
  161.5900  202.7670  151.5130 C   0  0  0  0  0  3  0  0  0  0  0  0
  160.7900  204.7390  149.6490 C   0  0  0  0  0  3  0  0  0  0  0  0
  160.8620  203.3090  149.1850 C   0  0  0  0  0  2  0  0  0  0  0  0
  160.7040  202.3510  150.3720 C   0  0  1  0  0  3  0  0  0  0  0  0
  161.3120  205.1030  150.8280 C   0  0  0  0  0  0  0  0  0  0  0  0
  161.0960  200.6530  148.7830 O   0  0  0  0  0  0  0  0  0  0  0  0
  161.0240  200.9520  149.9650 C   0  0  0  0  0  3  0  0  0  0  0  0
  162.5780  206.9610  148.3480 C   0  0  0  0  0  2  0  0  0  0  0  0
  161.8680  206.0260  146.1140 N   0  0  0  0  0  2  0  0  0  0  0  0
  161.5430  206.7640  147.2940 C   0  0  0  0  0  0  0  0  0  0  0  0
  160.3820  207.2230  147.4660 O   0  0  0  0  0  0  0  0  0  0  0  0
  160.9090  205.7980  145.0410 C   0  0  0  0  0  2  0  0  0  0  0  0
  160.8390  204.3190  144.6960 C   0  0  0  0  0  2  0  0  0  0  0  0
  160.8570  202.3120  145.6100 C   0  0  0  0  0  1  0  0  0  0  0  0
  161.4570  203.5680  145.6950 O   0  0  0  0  0  0  0  0  0  0  0  0
  1  5  2  0  0  0  0
  2  3  2  0  0  0  0
  4  3  1  0  0  0  0
  5  2  1  0  0  0  0
  6  4  2  0  0  0  0
  7  9  1  1  0  0  0
  7  6  1  0  0  0  0
  7  2  1  0  0  0  0
  8  9  2  0  0  0  0
  8  1  1  0  0  0  0
 11 10  2  0  0  0  0
 12 15  2  0  0  0  0
 13 12  1  0  0  0  0
 13 14  1  0  0  0  0
 14 17  1  6  0  0  0
 14 11  1  0  0  0  0
 15  6  1  0  0  0  0
 15 10  1  0  0  0  0
 16 17  2  0  0  0  0
 18  9  1  0  0  0  0
 19 20  1  0  0  0  0
 20 21  2  0  0  0  0
 20 18  1  0  0  0  0
 22 19  1  0  0  0  0
 23 22  1  0  0  0  0
 23 25  1  0  0  0  0
 24 25  1  0  0  0  0
M  END
>  <MODEL>
1

>  <REMARK>
 VINA RESULT:      -8.1      0.000      0.000
  Name = 
  7 active torsions:
  status: ('A' for Active; 'I' for Inactive)
    1  A    between atoms: N_1  and  C_12
    2  A    between atoms: C_3  and  C_19
    3  A    between atoms: C_11  and  C_12
    4  A    between atoms: C_11  and  O_16
    5  A    between atoms: C_17  and  C_22
    6  A    between atoms: C_18  and  C_25
    7  A    between atoms: C_19  and  C_24
                            x       y       z     vdW  Elec       q    Type
                         _______ _______ _______ _____ _____    ______ ____

>  <TORSDO>
F 7

$$$$
=
 OpenBabel11072411343D

 25 27  0  0  1  0  0  0  0  0999 V2000
  161.2880  205.7050  147.3230 C   0  0  0  0  0  3  0  0  0  0  0  0
  161.7490  207.6520  148.5220 C   0  0  0  0  0  0  0  0  0  0  0  0
  162.2300  208.8860  148.7330 N   0  0  0  0  0  0  0  0  0  0  0  0
  162.0350  209.1180  150.0570 C   0  0  0  0  0  3  0  0  0  0  0  0
  161.7640  206.9840  147.3470 N   0  0  0  0  0  2  0  0  0  0  0  0
  161.4280  208.0300  150.6930 C   0  0  0  0  0  0  0  0  0  0  0  0
  161.2420  207.0610  149.7180 C   0  0  0  0  0  0  0  0  0  0  0  0
  160.8240  205.1010  148.4630 N   0  0  0  0  0  0  0  0  0  0  0  0
  160.7920  205.7390  149.6710 C   0  0  0  0  0  0  0  0  0  0  0  0
  161.2740  206.7780  152.9120 C   0  0  0  0  0  3  0  0  0  0  0  0
  161.2600  206.8120  154.2480 C   0  0  0  0  0  3  0  0  0  0  0  0
  160.6240  209.1180  152.7390 C   0  0  0  0  0  3  0  0  0  0  0  0
  160.2150  209.0810  154.1870 C   0  0  0  0  0  2  0  0  0  0  0  0
  161.1160  208.1210  154.9740 C   0  0  1  0  0  3  0  0  0  0  0  0
  161.0590  208.0110  152.1220 C   0  0  0  0  0  0  0  0  0  0  0  0
  159.7170  207.0270  156.5260 O   0  0  0  0  0  0  0  0  0  0  0  0
  160.5650  207.8850  156.3410 C   0  0  0  0  0  3  0  0  0  0  0  0
  160.3750  204.9770  150.8830 C   0  0  0  0  0  2  0  0  0  0  0  0
  160.4150  202.6240  149.9730 N   0  0  0  0  0  2  0  0  0  0  0  0
  160.9560  203.6050  150.8600 C   0  0  0  0  0  0  0  0  0  0  0  0
  161.9390  203.3310  151.5990 O   0  0  0  0  0  0  0  0  0  0  0  0
  160.9280  201.2630  149.8990 C   0  0  0  0  0  2  0  0  0  0  0  0
  161.1840  200.8680  148.4540 C   0  0  0  0  0  2  0  0  0  0  0  0
  160.8090  201.4200  146.3520 C   0  0  0  0  0  1  0  0  0  0  0  0
  160.9950  201.9690  147.6190 O   0  0  0  0  0  0  0  0  0  0  0  0
  1  5  1  0  0  0  0
  1  8  2  0  0  0  0
  2  3  2  0  0  0  0
  2  7  1  0  0  0  0
  3  4  1  0  0  0  0
  4  6  2  0  0  0  0
  5  2  1  0  0  0  0
  6 15  1  0  0  0  0
  7  6  1  0  0  0  0
  8  9  1  0  0  0  0
  9  7  2  0  0  0  0
  9 18  1  0  0  0  0
 10 11  2  0  0  0  0
 11 14  1  0  0  0  0
 12 13  1  0  0  0  0
 13 14  1  0  0  0  0
 14 17  1  1  0  0  0
 15 12  2  0  0  0  0
 15 10  1  0  0  0  0
 17 16  2  0  0  0  0
 19 20  1  0  0  0  0
 20 18  1  0  0  0  0
 20 21  2  0  0  0  0
 22 19  1  0  0  0  0
 23 22  1  0  0  0  0
 24 25  1  0  0  0  0
 25 23  1  0  0  0  0
M  END
>  <MODEL>
2

>  <REMARK>
 VINA RESULT:      -7.7      2.753      5.218
  Name = 
  7 active torsions:
  status: ('A' for Active; 'I' for Inactive)
    1  A    between atoms: N_1  and  C_12
    2  A    between atoms: C_3  and  C_19
    3  A    between atoms: C_11  and  C_12
    4  A    between atoms: C_11  and  O_16
    5  A    between atoms: C_17  and  C_22
    6  A    between atoms: C_18  and  C_25
    7  A    between atoms: C_19  and  C_24
                            x       y       z     vdW  Elec       q    Type
                         _______ _______ _______ _____ _____    ______ ____

>  <TORSDO>
F 7

$$$$
=
 OpenBabel11072411343D

 25 27  0  0  1  0  0  0  0  0999 V2000
  161.7750  206.6610  153.5580 C   0  0  0  0  0  3  0  0  0  0  0  0
  161.0700  204.8150  152.3190 C   0  0  0  0  0  0  0  0  0  0  0  0
  160.6400  203.5620  152.1090 N   0  0  0  0  0  0  0  0  0  0  0  0
  160.6320  203.4160  150.7590 C   0  0  0  0  0  3  0  0  0  0  0  0
  161.2720  205.3930  153.5240 N   0  0  0  0  0  0  0  0  0  0  0  0
  161.0560  204.5770  150.1050 C   0  0  0  0  0  0  0  0  0  0  0  0
  161.3570  205.4970  151.0990 C   0  0  2  0  0  3  0  0  0  0  0  0
  162.0900  207.3280  152.4020 N   0  0  0  0  0  0  0  0  0  0  0  0
  161.9030  206.7820  151.1650 C   0  0  0  0  0  0  0  0  0  0  0  0
  160.5370  205.9340  148.0070 C   0  0  0  0  0  3  0  0  0  0  0  0
  160.8440  206.2590  146.7470 C   0  0  0  0  0  3  0  0  0  0  0  0
  161.7570  203.8320  147.8760 C   0  0  0  0  0  3  0  0  0  0  0  0
  161.7780  203.9710  146.3780 C   0  0  0  0  0  2  0  0  0  0  0  0
  161.8510  205.4490  145.9770 C   0  0  1  0  0  3  0  0  0  0  0  0
  161.1110  204.7250  148.6380 C   0  0  0  0  0  0  0  0  0  0  0  0
  160.8240  204.8860  143.9310 O   0  0  0  0  0  0  0  0  0  0  0  0
  161.6180  205.6080  144.5120 C   0  0  0  0  0  3  0  0  0  0  0  0
  162.3710  207.5300  149.9620 C   0  0  0  0  0  2  0  0  0  0  0  0
  162.2200  209.8390  148.9550 N   0  0  0  0  0  2  0  0  0  0  0  0
  161.9880  208.9670  150.0630 C   0  0  0  0  0  0  0  0  0  0  0  0
  161.4360  209.3940  151.1130 O   0  0  0  0  0  0  0  0  0  0  0  0
  161.8770  211.2540  148.9830 C   0  0  0  0  0  2  0  0  0  0  0  0
  162.8060  212.0450  148.0760 C   0  0  0  0  0  2  0  0  0  0  0  0
  160.7860  212.6970  147.4780 C   0  0  0  0  0  1  0  0  0  0  0  0
  162.0880  212.5640  146.9980 O   0  0  0  0  0  0  0  0  0  0  0  0
  2  5  1  0  0  0  0
  3  2  2  0  0  0  0
  4  3  1  0  0  0  0
  5  1  2  0  0  0  0
  6  4  2  0  0  0  0
  7  6  1  6  0  0  0
  7  9  1  0  0  0  0
  7  2  1  0  0  0  0
  8  1  1  0  0  0  0
  9  8  2  0  0  0  0
 10 15  1  0  0  0  0
 11 10  2  0  0  0  0
 12 15  2  0  0  0  0
 13 12  1  0  0  0  0
 14 17  1  6  0  0  0
 14 13  1  0  0  0  0
 14 11  1  0  0  0  0
 15  6  1  0  0  0  0
 16 17  2  0  0  0  0
 18 20  1  0  0  0  0
 18  9  1  0  0  0  0
 19 22  1  0  0  0  0
 19 20  1  0  0  0  0
 20 21  2  0  0  0  0
 23 22  1  0  0  0  0
 25 24  1  0  0  0  0
 25 23  1  0  0  0  0
M  END
>  <MODEL>
3

>  <REMARK>
 VINA RESULT:      -7.7      2.317      5.322
  Name = 
  7 active torsions:
  status: ('A' for Active; 'I' for Inactive)
    1  A    between atoms: N_1  and  C_12
    2  A    between atoms: C_3  and  C_19
    3  A    between atoms: C_11  and  C_12
    4  A    between atoms: C_11  and  O_16
    5  A    between atoms: C_17  and  C_22
    6  A    between atoms: C_18  and  C_25
    7  A    between atoms: C_19  and  C_24
                            x       y       z     vdW  Elec       q    Type
                         _______ _______ _______ _____ _____    ______ ____

>  <TORSDO>
F 7

$$$$
=
 OpenBabel11072411343D

 25 27  0  0  1  0  0  0  0  0999 V2000
  160.7460  202.4000  148.6940 C   0  0  0  0  0  3  0  0  0  0  0  0
  161.0230  202.9640  150.9400 C   0  0  0  0  0  0  0  0  0  0  0  0
  161.1030  202.7580  152.2630 N   0  0  0  0  0  0  0  0  0  0  0  0
  161.2030  203.9980  152.8070 C   0  0  0  0  0  3  0  0  0  0  0  0
  160.8750  202.0090  149.9960 N   0  0  0  0  0  0  0  0  0  0  0  0
  161.1870  204.9990  151.8300 C   0  0  0  0  0  0  0  0  0  0  0  0
  161.0600  204.3520  150.6100 C   0  0  2  0  0  3  0  0  0  0  0  0
  160.7460  203.7270  148.3520 N   0  0  0  0  0  0  0  0  0  0  0  0
  160.8930  204.7240  149.2730 C   0  0  0  0  0  0  0  0  0  0  0  0
  162.1050  207.2980  151.2080 C   0  0  0  0  0  3  0  0  0  0  0  0
  161.9860  208.6290  151.2500 C   0  0  0  0  0  3  0  0  0  0  0  0
  160.6620  207.0010  153.1460 C   0  0  0  0  0  3  0  0  0  0  0  0
  160.8310  208.4630  153.4590 C   0  0  0  0  0  2  0  0  0  0  0  0
  160.9850  209.2740  152.1670 C   0  0  1  0  0  3  0  0  0  0  0  0
  161.3190  206.4390  152.1230 C   0  0  0  0  0  0  0  0  0  0  0  0
  161.2190  211.1460  153.5810 O   0  0  0  0  0  0  0  0  0  0  0  0
  161.4030  210.6740  152.4710 C   0  0  0  0  0  3  0  0  0  0  0  0
  160.7730  206.1440  148.8330 C   0  0  0  0  0  2  0  0  0  0  0  0
  160.2760  206.1340  146.3590 N   0  0  0  0  0  2  0  0  0  0  0  0
  161.2210  206.2890  147.4190 C   0  0  0  0  0  0  0  0  0  0  0  0
  162.4230  206.5780  147.1720 O   0  0  0  0  0  0  0  0  0  0  0  0
  160.6420  206.2570  144.9550 C   0  0  0  0  0  2  0  0  0  0  0  0
  161.1740  204.9340  144.4260 C   0  0  0  0  0  2  0  0  0  0  0  0
  160.8690  202.8620  145.1180 C   0  0  0  0  0  1  0  0  0  0  0  0
  160.1980  203.9460  144.5510 O   0  0  0  0  0  0  0  0  0  0  0  0
  1  5  2  0  0  0  0
  2  3  2  0  0  0  0
  3  4  1  0  0  0  0
  5  2  1  0  0  0  0
  6 15  1  0  0  0  0
  6  4  2  0  0  0  0
  7  9  1  1  0  0  0
  7  2  1  0  0  0  0
  7  6  1  0  0  0  0
  8  1  1  0  0  0  0
  8  9  2  0  0  0  0
 10 11  2  0  0  0  0
 10 15  1  0  0  0  0
 11 14  1  0  0  0  0
 12 13  1  0  0  0  0
 14 17  1  1  0  0  0
 14 13  1  0  0  0  0
 15 12  2  0  0  0  0
 17 16  2  0  0  0  0
 18  9  1  0  0  0  0
 19 20  1  0  0  0  0
 20 18  1  0  0  0  0
 21 20  2  0  0  0  0
 22 19  1  0  0  0  0
 23 25  1  0  0  0  0
 23 22  1  0  0  0  0
 25 24  1  0  0  0  0
M  END
>  <MODEL>
4

>  <REMARK>
 VINA RESULT:      -7.5      2.520      5.205
  Name = 
  7 active torsions:
  status: ('A' for Active; 'I' for Inactive)
    1  A    between atoms: N_1  and  C_12
    2  A    between atoms: C_3  and  C_19
    3  A    between atoms: C_11  and  C_12
    4  A    between atoms: C_11  and  O_16
    5  A    between atoms: C_17  and  C_22
    6  A    between atoms: C_18  and  C_25
    7  A    between atoms: C_19  and  C_24
                            x       y       z     vdW  Elec       q    Type
                         _______ _______ _______ _____ _____    ______ ____

>  <TORSDO>
F 7

$$$$
=
 OpenBabel11072411343D

 25 27  0  0  1  0  0  0  0  0999 V2000
  161.7990  206.5390  153.5470 C   0  0  0  0  0  3  0  0  0  0  0  0
  160.9790  204.7380  152.3140 C   0  0  0  0  0  0  0  0  0  0  0  0
  160.4660  203.5150  152.1070 N   0  0  0  0  0  0  0  0  0  0  0  0
  160.4570  203.3620  150.7570 C   0  0  0  0  0  3  0  0  0  0  0  0
  161.2110  205.3070  153.5160 N   0  0  0  0  0  0  0  0  0  0  0  0
  160.9630  204.4880  150.1000 C   0  0  0  0  0  0  0  0  0  0  0  0
  161.3200  205.3910  151.0910 C   0  0  2  0  0  3  0  0  0  0  0  0
  162.1660  207.1760  152.3900 N   0  0  0  0  0  0  0  0  0  0  0  0
  161.9510  206.6360  151.1540 C   0  0  0  0  0  0  0  0  0  0  0  0
  160.5280  205.8540  147.9890 C   0  0  0  0  0  3  0  0  0  0  0  0
  160.8620  206.1550  146.7300 C   0  0  0  0  0  3  0  0  0  0  0  0
  161.6480  203.6950  147.8830 C   0  0  0  0  0  3  0  0  0  0  0  0
  161.6880  203.8220  146.3840 C   0  0  0  0  0  2  0  0  0  0  0  0
  161.8360  205.2930  145.9750 C   0  0  1  0  0  3  0  0  0  0  0  0
  161.0390  204.6230  148.6330 C   0  0  0  0  0  0  0  0  0  0  0  0
  160.7070  204.8720  143.9480 O   0  0  0  0  0  0  0  0  0  0  0  0
  161.6230  205.4530  144.5070 C   0  0  0  0  0  3  0  0  0  0  0  0
  162.4760  207.3430  149.9510 C   0  0  0  0  0  2  0  0  0  0  0  0
  161.8490  209.4970  151.1090 N   0  0  0  0  0  2  0  0  0  0  0  0
  161.9570  208.7390  149.9010 C   0  0  0  0  0  0  0  0  0  0  0  0
  161.6480  209.2510  148.7920 O   0  0  0  0  0  0  0  0  0  0  0  0
  161.3470  210.8630  151.1370 C   0  0  0  0  0  2  0  0  0  0  0  0
  160.5510  211.1120  152.4080 C   0  0  0  0  0  2  0  0  0  0  0  0
  160.3090  210.0450  154.3230 C   0  0  0  0  0  1  0  0  0  0  0  0
  160.1280  209.8970  152.9490 O   0  0  0  0  0  0  0  0  0  0  0  0
  2  5  1  0  0  0  0
  3  2  2  0  0  0  0
  4  3  1  0  0  0  0
  5  1  2  0  0  0  0
  6  4  2  0  0  0  0
  7  6  1  1  0  0  0
  7  9  1  0  0  0  0
  7  2  1  0  0  0  0
  8  1  1  0  0  0  0
  9  8  2  0  0  0  0
 10 15  1  0  0  0  0
 11 10  2  0  0  0  0
 12 15  2  0  0  0  0
 13 12  1  0  0  0  0
 14 17  1  6  0  0  0
 14 13  1  0  0  0  0
 14 11  1  0  0  0  0
 15  6  1  0  0  0  0
 16 17  2  0  0  0  0
 18  9  1  0  0  0  0
 19 22  1  0  0  0  0
 20 18  1  0  0  0  0
 20 19  1  0  0  0  0
 21 20  2  0  0  0  0
 22 23  1  0  0  0  0
 23 25  1  0  0  0  0
 25 24  1  0  0  0  0
M  END
>  <MODEL>
5

>  <REMARK>
 VINA RESULT:      -7.4      2.309      5.635
  Name = 
  7 active torsions:
  status: ('A' for Active; 'I' for Inactive)
    1  A    between atoms: N_1  and  C_12
    2  A    between atoms: C_3  and  C_19
    3  A    between atoms: C_11  and  C_12
    4  A    between atoms: C_11  and  O_16
    5  A    between atoms: C_17  and  C_22
    6  A    between atoms: C_18  and  C_25
    7  A    between atoms: C_19  and  C_24
                            x       y       z     vdW  Elec       q    Type
                         _______ _______ _______ _____ _____    ______ ____

>  <TORSDO>
F 7

$$$$
=
 OpenBabel11072411343D

 25 27  0  0  1  0  0  0  0  0999 V2000
  161.9280  210.0300  153.0980 C   0  0  0  0  0  3  0  0  0  0  0  0
  161.2070  207.8930  153.6940 C   0  0  0  0  0  0  0  0  0  0  0  0
  160.7760  206.9200  154.5090 N   0  0  0  0  0  0  0  0  0  0  0  0
  160.7490  205.8020  153.7380 C   0  0  0  0  0  3  0  0  0  0  0  0
  161.4240  209.1810  154.0410 N   0  0  0  0  0  0  0  0  0  0  0  0
  161.1640  206.0610  152.4280 C   0  0  0  0  0  0  0  0  0  0  0  0
  161.4780  207.4120  152.3770 C   0  0  2  0  0  3  0  0  0  0  0  0
  162.2260  209.5880  151.8360 N   0  0  0  0  0  0  0  0  0  0  0  0
  162.0230  208.2960  151.4430 C   0  0  0  0  0  0  0  0  0  0  0  0
  161.5530  203.6490  151.6930 C   0  0  0  0  0  3  0  0  0  0  0  0
  161.2890  202.6540  150.8400 C   0  0  0  0  0  3  0  0  0  0  0  0
  160.8250  205.3460  150.1070 C   0  0  0  0  0  3  0  0  0  0  0  0
  160.9000  204.3140  149.0130 C   0  0  0  0  0  2  0  0  0  0  0  0
  160.5460  202.9270  149.5610 C   0  0  1  0  0  3  0  0  0  0  0  0
  161.2000  205.0460  151.3570 C   0  0  0  0  0  0  0  0  0  0  0  0
  161.2060  200.7560  148.9180 O   0  0  0  0  0  0  0  0  0  0  0  0
  160.8600  201.8690  148.5560 C   0  0  0  0  0  3  0  0  0  0  0  0
  162.4750  207.8700  150.0870 C   0  0  0  0  0  2  0  0  0  0  0  0
  162.3040  210.1900  149.1090 N   0  0  0  0  0  2  0  0  0  0  0  0
  161.9560  208.8050  149.0490 C   0  0  0  0  0  0  0  0  0  0  0  0
  161.2420  208.3620  148.1100 O   0  0  0  0  0  0  0  0  0  0  0  0
  161.8300  211.1620  148.1340 C   0  0  0  0  0  2  0  0  0  0  0  0
  162.7070  212.4040  148.1510 C   0  0  0  0  0  2  0  0  0  0  0  0
  160.6650  213.0700  147.6510 C   0  0  0  0  0  1  0  0  0  0  0  0
  161.9140  213.5470  148.0470 O   0  0  0  0  0  0  0  0  0  0  0  0
  1  5  2  0  0  0  0
  2  5  1  0  0  0  0
  2  3  2  0  0  0  0
  4  3  1  0  0  0  0
  6  4  2  0  0  0  0
  7  9  1  1  0  0  0
  7  6  1  0  0  0  0
  7  2  1  0  0  0  0
  8  1  1  0  0  0  0
  9  8  2  0  0  0  0
 11 10  2  0  0  0  0
 12 15  2  0  0  0  0
 13 14  1  0  0  0  0
 13 12  1  0  0  0  0
 14 17  1  6  0  0  0
 14 11  1  0  0  0  0
 15 10  1  0  0  0  0
 15  6  1  0  0  0  0
 17 16  2  0  0  0  0
 18  9  1  0  0  0  0
 20 19  1  0  0  0  0
 20 18  1  0  0  0  0
 21 20  2  0  0  0  0
 22 23  1  0  0  0  0
 22 19  1  0  0  0  0
 24 25  1  0  0  0  0
 25 23  1  0  0  0  0
M  END
>  <MODEL>
6

>  <REMARK>
 VINA RESULT:      -7.3      2.211      4.203
  Name = 
  7 active torsions:
  status: ('A' for Active; 'I' for Inactive)
    1  A    between atoms: N_1  and  C_12
    2  A    between atoms: C_3  and  C_19
    3  A    between atoms: C_11  and  C_12
    4  A    between atoms: C_11  and  O_16
    5  A    between atoms: C_17  and  C_22
    6  A    between atoms: C_18  and  C_25
    7  A    between atoms: C_19  and  C_24
                            x       y       z     vdW  Elec       q    Type
                         _______ _______ _______ _____ _____    ______ ____

>  <TORSDO>
F 7

$$$$
=
 OpenBabel11072411343D

 25 27  0  0  1  0  0  0  0  0999 V2000
  161.8720  210.1520  152.0390 C   0  0  0  0  0  3  0  0  0  0  0  0
  161.9590  209.0900  149.9640 C   0  0  0  0  0  0  0  0  0  0  0  0
  162.1040  208.9910  148.6340 N   0  0  0  0  0  0  0  0  0  0  0  0
  161.8010  207.7000  148.3430 C   0  0  0  0  0  3  0  0  0  0  0  0
  162.1220  210.2130  150.6980 N   0  0  0  0  0  0  0  0  0  0  0  0
  161.4620  206.9720  149.4890 C   0  0  0  0  0  0  0  0  0  0  0  0
  161.5470  207.8570  150.5530 C   0  0  2  0  0  3  0  0  0  0  0  0
  161.4440  208.9890  152.6260 N   0  0  0  0  0  0  0  0  0  0  0  0
  161.2650  207.8330  151.9220 C   0  0  0  0  0  0  0  0  0  0  0  0
  161.2310  204.7680  148.2220 C   0  0  0  0  0  3  0  0  0  0  0  0
  161.2520  203.4310  148.2350 C   0  0  0  0  0  3  0  0  0  0  0  0
  160.8200  204.8920  150.6180 C   0  0  0  0  0  3  0  0  0  0  0  0
  160.4420  203.4360  150.5990 C   0  0  0  0  0  2  0  0  0  0  0  0
  161.2570  202.6840  149.5400 C   0  0  1  0  0  3  0  0  0  0  0  0
  161.1250  205.5350  149.4840 C   0  0  0  0  0  0  0  0  0  0  0  0
  161.1720  200.5870  148.4650 O   0  0  0  0  0  0  0  0  0  0  0  0
  160.7170  201.3080  149.3390 C   0  0  0  0  0  3  0  0  0  0  0  0
  160.6950  206.6420  152.6140 C   0  0  0  0  0  2  0  0  0  0  0  0
  160.0040  207.0770  155.0020 N   0  0  0  0  0  2  0  0  0  0  0  0
  161.0130  206.6850  154.0690 C   0  0  0  0  0  0  0  0  0  0  0  0
  162.1600  206.3450  154.4680 O   0  0  0  0  0  0  0  0  0  0  0  0
  160.2440  207.1470  156.4370 C   0  0  0  0  0  2  0  0  0  0  0  0
  160.5930  208.5680  156.8490 C   0  0  0  0  0  2  0  0  0  0  0  0
  162.2040  209.8830  156.1120 C   0  0  0  0  0  1  0  0  0  0  0  0
  161.9780  208.7310  156.8660 O   0  0  0  0  0  0  0  0  0  0  0  0
  1  8  1  0  0  0  0
  2  7  1  0  0  0  0
  2  5  1  0  0  0  0
  3  2  2  0  0  0  0
  4  3  1  0  0  0  0
  4  6  2  0  0  0  0
  5  1  2  0  0  0  0
  7  6  1  6  0  0  0
  7  9  1  0  0  0  0
  9 18  1  0  0  0  0
  9  8  2  0  0  0  0
 10 11  2  0  0  0  0
 10 15  1  0  0  0  0
 11 14  1  0  0  0  0
 13 12  1  0  0  0  0
 14 17  1  6  0  0  0
 14 13  1  0  0  0  0
 15  6  1  0  0  0  0
 15 12  2  0  0  0  0
 16 17  2  0  0  0  0
 18 20  1  0  0  0  0
 19 22  1  0  0  0  0
 20 21  2  0  0  0  0
 20 19  1  0  0  0  0
 22 23  1  0  0  0  0
 23 25  1  0  0  0  0
 24 25  1  0  0  0  0
M  END
>  <MODEL>
7

>  <REMARK>
 VINA RESULT:      -7.1      3.053      6.084
  Name = 
  7 active torsions:
  status: ('A' for Active; 'I' for Inactive)
    1  A    between atoms: N_1  and  C_12
    2  A    between atoms: C_3  and  C_19
    3  A    between atoms: C_11  and  C_12
    4  A    between atoms: C_11  and  O_16
    5  A    between atoms: C_17  and  C_22
    6  A    between atoms: C_18  and  C_25
    7  A    between atoms: C_19  and  C_24
                            x       y       z     vdW  Elec       q    Type
                         _______ _______ _______ _____ _____    ______ ____

>  <TORSDO>
F 7

$$$$
=
 OpenBabel11072411343D

 25 27  0  0  1  0  0  0  0  0999 V2000
  160.9070  205.4770  145.0920 C   0  0  0  0  0  3  0  0  0  0  0  0
  161.2170  203.7660  146.6460 C   0  0  0  0  0  0  0  0  0  0  0  0
  161.3450  202.5040  147.0820 N   0  0  0  0  0  0  0  0  0  0  0  0
  161.3910  202.6020  148.4350 C   0  0  0  0  0  3  0  0  0  0  0  0
  161.0940  204.1510  145.3570 N   0  0  0  0  0  2  0  0  0  0  0  0
  161.2930  203.9300  148.8660 C   0  0  0  0  0  0  0  0  0  0  0  0
  161.1670  204.7030  147.7210 C   0  0  0  0  0  0  0  0  0  0  0  0
  160.8240  206.3960  146.1060 N   0  0  0  0  0  0  0  0  0  0  0  0
  160.9420  206.0500  147.4220 C   0  0  0  0  0  0  0  0  0  0  0  0
  162.3170  205.3900  150.6900 C   0  0  0  0  0  3  0  0  0  0  0  0
  162.1880  206.0160  151.8650 C   0  0  0  0  0  3  0  0  0  0  0  0
  160.4860  203.8640  151.1800 C   0  0  0  0  0  3  0  0  0  0  0  0
  160.5780  204.2650  152.6280 C   0  0  0  0  0  2  0  0  0  0  0  0
  161.0080  205.7320  152.7520 C   0  0  1  0  0  3  0  0  0  0  0  0
  161.3530  204.3450  150.2800 C   0  0  0  0  0  0  0  0  0  0  0  0
  160.5930  206.7550  154.8350 O   0  0  0  0  0  0  0  0  0  0  0  0
  161.3450  206.0630  154.1670 C   0  0  0  0  0  3  0  0  0  0  0  0
  160.7310  207.0910  148.4680 C   0  0  0  0  0  2  0  0  0  0  0  0
  161.5320  209.4770  148.6610 N   0  0  0  0  0  2  0  0  0  0  0  0
  161.8290  208.0980  148.4260 C   0  0  0  0  0  0  0  0  0  0  0  0
  163.0130  207.7230  148.2160 O   0  0  0  0  0  0  0  0  0  0  0  0
  162.5510  210.5160  148.6310 C   0  0  0  0  0  2  0  0  0  0  0  0
  161.9160  211.8780  148.4000 C   0  0  0  0  0  2  0  0  0  0  0  0
  160.1820  212.9630  147.5730 C   0  0  0  0  0  1  0  0  0  0  0  0
  160.9010  211.7740  147.4490 O   0  0  0  0  0  0  0  0  0  0  0  0
  1  5  1  0  0  0  0
  1  8  2  0  0  0  0
  2  3  2  0  0  0  0
  2  7  1  0  0  0  0
  3  4  1  0  0  0  0
  4  6  2  0  0  0  0
  5  2  1  0  0  0  0
  6 15  1  0  0  0  0
  7  6  1  0  0  0  0
  8  9  1  0  0  0  0
  9  7  2  0  0  0  0
  9 18  1  0  0  0  0
 10 11  2  0  0  0  0
 11 14  1  0  0  0  0
 12 13  1  0  0  0  0
 13 14  1  0  0  0  0
 14 17  1  1  0  0  0
 15 10  1  0  0  0  0
 15 12  2  0  0  0  0
 17 16  2  0  0  0  0
 20 18  1  0  0  0  0
 20 19  1  0  0  0  0
 21 20  2  0  0  0  0
 22 19  1  0  0  0  0
 23 22  1  0  0  0  0
 25 24  1  0  0  0  0
 25 23  1  0  0  0  0
M  END
>  <MODEL>
8

>  <REMARK>
 VINA RESULT:      -7.0      2.500      5.729
  Name = 
  7 active torsions:
  status: ('A' for Active; 'I' for Inactive)
    1  A    between atoms: N_1  and  C_12
    2  A    between atoms: C_3  and  C_19
    3  A    between atoms: C_11  and  C_12
    4  A    between atoms: C_11  and  O_16
    5  A    between atoms: C_17  and  C_22
    6  A    between atoms: C_18  and  C_25
    7  A    between atoms: C_19  and  C_24
                            x       y       z     vdW  Elec       q    Type
                         _______ _______ _______ _____ _____    ______ ____

>  <TORSDO>
F 7

$$$$
=
 OpenBabel11072411343D

 25 27  0  0  1  0  0  0  0  0999 V2000
  161.1790  207.9610  152.7650 C   0  0  0  0  0  3  0  0  0  0  0  0
  161.2100  205.6320  152.6520 C   0  0  0  0  0  0  0  0  0  0  0  0
  161.3530  204.3770  153.1040 N   0  0  0  0  0  0  0  0  0  0  0  0
  161.2420  203.5920  152.0010 C   0  0  0  0  0  3  0  0  0  0  0  0
  161.2860  206.7560  153.3980 N   0  0  0  0  0  0  0  0  0  0  0  0
  161.0260  204.3460  150.8430 C   0  0  0  0  0  0  0  0  0  0  0  0
  161.0130  205.6750  151.2390 C   0  0  2  0  0  3  0  0  0  0  0  0
  161.0210  208.0330  151.4050 N   0  0  0  0  0  0  0  0  0  0  0  0
  160.9410  206.9230  150.6140 C   0  0  0  0  0  0  0  0  0  0  0  0
  161.2280  204.5350  148.3060 C   0  0  0  0  0  3  0  0  0  0  0  0
  161.3670  203.9340  147.1200 C   0  0  0  0  0  3  0  0  0  0  0  0
  160.3820  202.5070  149.3540 C   0  0  0  0  0  3  0  0  0  0  0  0
  160.1480  201.9310  147.9830 C   0  0  0  0  0  2  0  0  0  0  0  0
  161.2060  202.4440  146.9990 C   0  0  1  0  0  3  0  0  0  0  0  0
  160.8270  203.7610  149.5030 C   0  0  0  0  0  0  0  0  0  0  0  0
  160.0470  201.1810  145.3790 O   0  0  0  0  0  0  0  0  0  0  0  0
  160.8370  202.0850  145.5980 C   0  0  0  0  0  3  0  0  0  0  0  0
  160.8780  207.0880  149.1340 C   0  0  0  0  0  2  0  0  0  0  0  0
  161.5800  209.4770  148.7220 N   0  0  0  0  0  2  0  0  0  0  0  0
  161.8900  208.0830  148.6790 C   0  0  0  0  0  0  0  0  0  0  0  0
  163.0220  207.6880  148.2890 O   0  0  0  0  0  0  0  0  0  0  0  0
  162.5180  210.5050  148.2900 C   0  0  0  0  0  2  0  0  0  0  0  0
  161.8440  211.8670  148.2740 C   0  0  0  0  0  2  0  0  0  0  0  0
  160.9720  212.6010  146.3860 C   0  0  0  0  0  1  0  0  0  0  0  0
  160.6840  211.8150  147.5010 O   0  0  0  0  0  0  0  0  0  0  0  0
  1  5  2  0  0  0  0
  2  3  2  0  0  0  0
  2  5  1  0  0  0  0
  4  3  1  0  0  0  0
  6  7  1  0  0  0  0
  6  4  2  0  0  0  0
  7  9  1  6  0  0  0
  7  2  1  0  0  0  0
  8  1  1  0  0  0  0
  9  8  2  0  0  0  0
 10 15  1  0  0  0  0
 11 10  2  0  0  0  0
 12 15  2  0  0  0  0
 13 12  1  0  0  0  0
 14 17  1  6  0  0  0
 14 11  1  0  0  0  0
 14 13  1  0  0  0  0
 15  6  1  0  0  0  0
 16 17  2  0  0  0  0
 18  9  1  0  0  0  0
 20 19  1  0  0  0  0
 20 18  1  0  0  0  0
 21 20  2  0  0  0  0
 22 19  1  0  0  0  0
 23 22  1  0  0  0  0
 24 25  1  0  0  0  0
 25 23  1  0  0  0  0
M  END
>  <MODEL>
9

>  <REMARK>
 VINA RESULT:      -6.9      2.075      4.471
  Name = 
  7 active torsions:
  status: ('A' for Active; 'I' for Inactive)
    1  A    between atoms: N_1  and  C_12
    2  A    between atoms: C_3  and  C_19
    3  A    between atoms: C_11  and  C_12
    4  A    between atoms: C_11  and  O_16
    5  A    between atoms: C_17  and  C_22
    6  A    between atoms: C_18  and  C_25
    7  A    between atoms: C_19  and  C_24
                            x       y       z     vdW  Elec       q    Type
                         _______ _______ _______ _____ _____    ______ ____

>  <TORSDO>
F 7

$$$$
