=
 OpenBabel11072413043D

 37 42  0  0  1  0  0  0  0  0999 V2000
  161.5920  205.9110  150.6590 C   0  0  0  0  0  3  0  0  0  0  0  0
  161.0260  207.5320  153.0150 C   0  0  0  0  0  3  0  0  0  0  0  0
  161.7030  207.2340  150.5350 C   0  0  2  0  0  3  0  0  0  0  0  0
  161.4070  208.1290  151.6770 C   0  0  0  0  0  0  0  0  0  0  0  0
  161.5110  209.4640  151.4960 C   0  0  0  0  0  0  0  0  0  0  0  0
  160.8960  206.0330  153.0000 C   0  0  0  0  0  3  0  0  0  0  0  0
  161.8990  209.9800  150.2010 N   0  0  0  0  0  0  0  0  0  0  0  0
  162.0950  207.7910  149.2790 N   0  0  0  0  0  0  0  0  0  0  0  0
  162.1880  209.0730  149.1180 C   0  0  0  0  0  3  0  0  0  0  0  0
  161.1760  205.2890  151.9260 C   0  0  0  0  0  0  0  0  0  0  0  0
  160.6910  211.7750  155.0980 C   0  0  0  0  0  0  0  0  0  0  0  0
  161.7690  210.7870  155.0220 C   0  0  0  0  0  3  0  0  0  0  0  0
  160.5400  212.7160  155.9890 O   0  0  0  0  0  0  0  0  0  0  0  0
  159.6850  211.8790  154.1910 C   0  0  0  0  0  0  0  0  0  0  0  0
  158.8920  212.9150  154.5130 N   0  0  0  0  0  0  0  0  0  0  0  0
  161.2240  210.4470  152.6070 C   0  0  1  0  0  3  0  0  0  0  0  0
  159.4210  210.7180  152.8530 S   0  0  0  0  0  0  0  0  0  0  0  0
  159.4670  213.4040  155.6410 C   0  0  0  0  0  3  0  0  0  0  0  0
  161.9890  210.1310  153.8770 C   0  0  0  0  0  3  0  0  0  0  0  0
  162.5190  211.7780  148.6150 C   0  0  0  0  0  2  0  0  0  0  0  0
  160.6400  212.0350  149.6480 C   0  0  0  0  0  2  0  0  0  0  0  0
  161.9910  211.4320  150.0000 C   0  0  1  0  0  3  0  0  0  0  0  0
  161.1680  212.3830  148.2610 C   0  0  1  0  0  3  0  0  0  0  0  0
  161.2660  213.8300  147.9900 N   0  0  0  0  0  0  0  0  0  0  0  0
  158.9490  213.4640  147.0640 C   0  0  0  0  0  1  0  0  0  0  0  0
  160.0660  214.4530  147.3960 C   0  0  0  0  0  2  0  0  0  0  0  0
  162.4670  214.1050  147.2050 C   0  0  0  0  0  2  0  0  0  0  0  0
  162.1000  214.3660  145.7510 C   0  0  0  0  0  2  0  0  0  0  0  0
  162.9120  213.4910  144.8030 C   0  0  0  0  0  2  0  0  0  0  0  0
  162.0410  212.8540  143.7720 C   0  0  0  0  0  0  0  0  0  0  0  0
  159.8740  212.0120  143.0870 C   0  0  0  0  0  3  0  0  0  0  0  0
  160.4120  211.6320  141.8530 C   0  0  0  0  0  3  0  0  0  0  0  0
  161.7630  211.8610  141.5780 C   0  0  0  0  0  3  0  0  0  0  0  0
  160.6880  212.6220  144.0460 C   0  0  0  0  0  3  0  0  0  0  0  0
  162.5790  212.4710  142.5370 C   0  0  0  0  0  3  0  0  0  0  0  0
  161.0120  203.8120  151.9950 C   0  0  0  0  0  2  0  0  0  0  0  0
  160.9180  203.2640  150.6540 N   0  0  0  0  0  1  0  0  0  0  0  0
  1 10  2  0  0  0  0
  3  1  1  6  0  0  0
  3  4  1  0  0  0  0
  4  2  1  0  0  0  0
  5  4  2  0  0  0  0
  6  2  2  0  0  0  0
  7  5  1  0  0  0  0
  8  3  1  0  0  0  0
  9  8  2  0  0  0  0
  9  7  1  0  0  0  0
 10 36  1  0  0  0  0
 10  6  1  0  0  0  0
 11 13  1  0  0  0  0
 12 11  1  0  0  0  0
 14 15  1  0  0  0  0
 14 11  2  0  0  0  0
 15 18  2  0  0  0  0
 16  5  1  6  0  0  0
 16 17  1  0  0  0  0
 16 19  1  0  0  0  0
 17 14  1  0  0  0  0
 18 13  1  0  0  0  0
 19 12  2  0  0  0  0
 21 22  1  0  0  0  0
 22 20  1  6  0  0  0
 22  7  1  0  0  0  0
 23 24  1  1  0  0  0
 23 20  1  0  0  0  0
 23 21  1  0  0  0  0
 25 26  1  0  0  0  0
 26 24  1  0  0  0  0
 27 24  1  0  0  0  0
 28 27  1  0  0  0  0
 29 28  1  0  0  0  0
 30 34  1  0  0  0  0
 30 29  1  0  0  0  0
 31 34  2  0  0  0  0
 32 31  1  0  0  0  0
 33 32  2  0  0  0  0
 33 35  1  0  0  0  0
 35 30  2  0  0  0  0
 37 36  1  0  0  0  0
M  END
>  <MODEL>
1

>  <REMARK>
 VINA RESULT:      -7.0      0.000      0.000
  Name = 
  9 active torsions:
  status: ('A' for Active; 'I' for Inactive)
    1  A    between atoms: C_3  and  C_35
    2  A    between atoms: C_3  and  C_37
    3  A    between atoms: C_5  and  C_29
    4  A    between atoms: N_8  and  C_16
    5  A    between atoms: N_8  and  C_34
    6  A    between atoms: N_8  and  C_35
    7  A    between atoms: C_11  and  C_26
    8  A    between atoms: C_14  and  C_37
    9  A    between atoms: N_19  and  C_27
                            x       y       z     vdW  Elec       q    Type
                         _______ _______ _______ _____ _____    ______ ____

>  <TORSDO>
F 9

$$$$
=
 OpenBabel11072413043D

 37 42  0  0  1  0  0  0  0  0999 V2000
  161.1540  207.4090  154.6120 C   0  0  0  0  0  3  0  0  0  0  0  0
  161.5980  210.1090  153.6060 C   0  0  0  0  0  3  0  0  0  0  0  0
  161.2510  207.5640  153.2920 C   0  0  2  0  0  3  0  0  0  0  0  0
  161.4500  208.9070  152.6990 C   0  0  0  0  0  0  0  0  0  0  0  0
  161.5190  209.0160  151.3540 C   0  0  0  0  0  0  0  0  0  0  0  0
  161.4240  209.7960  155.0680 C   0  0  0  0  0  3  0  0  0  0  0  0
  161.3920  207.8300  150.5350 N   0  0  0  0  0  0  0  0  0  0  0  0
  161.1440  206.4210  152.4410 N   0  0  0  0  0  0  0  0  0  0  0  0
  161.2090  206.5400  151.1530 C   0  0  0  0  0  3  0  0  0  0  0  0
  161.2410  208.5560  155.5300 C   0  0  0  0  0  0  0  0  0  0  0  0
  161.4390  212.8540  149.2930 C   0  0  0  0  0  0  0  0  0  0  0  0
  160.5380  212.5350  150.4020 C   0  0  0  0  0  3  0  0  0  0  0  0
  161.7110  214.0340  148.8080 O   0  0  0  0  0  0  0  0  0  0  0  0
  162.1780  211.9340  148.6190 C   0  0  0  0  0  0  0  0  0  0  0  0
  162.9380  212.5510  147.6990 N   0  0  0  0  0  0  0  0  0  0  0  0
  161.7170  210.3480  150.6680 C   0  0  1  0  0  3  0  0  0  0  0  0
  162.0380  210.1650  148.8660 S   0  0  0  0  0  0  0  0  0  0  0  0
  162.6110  213.8590  147.8570 C   0  0  0  0  0  3  0  0  0  0  0  0
  160.6330  211.3480  151.0140 C   0  0  0  0  0  3  0  0  0  0  0  0
  162.6580  207.2410  148.4900 C   0  0  0  0  0  2  0  0  0  0  0  0
  160.5200  206.9560  148.3930 C   0  0  0  0  0  2  0  0  0  0  0  0
  161.4460  207.9520  149.0720 C   0  0  1  0  0  3  0  0  0  0  0  0
  161.7340  206.2430  147.8080 C   0  0  1  0  0  3  0  0  0  0  0  0
  161.8340  206.3140  146.3370 N   0  0  0  0  0  0  0  0  0  0  0  0
  160.4460  205.4310  144.4270 C   0  0  0  0  0  1  0  0  0  0  0  0
  160.5510  206.3910  145.6100 C   0  0  0  0  0  2  0  0  0  0  0  0
  162.6730  205.2230  145.8460 C   0  0  0  0  0  2  0  0  0  0  0  0
  162.7610  204.1150  146.8860 C   0  0  0  0  0  2  0  0  0  0  0  0
  161.5700  203.1670  146.7960 C   0  0  0  0  0  2  0  0  0  0  0  0
  161.2290  202.5930  148.1310 C   0  0  0  0  0  0  0  0  0  0  0  0
  160.6540  202.9110  150.4640 C   0  0  0  0  0  3  0  0  0  0  0  0
  160.6190  201.5240  150.6440 C   0  0  0  0  0  3  0  0  0  0  0  0
  160.8900  200.6720  149.5700 C   0  0  0  0  0  3  0  0  0  0  0  0
  160.9600  203.4450  149.2100 C   0  0  0  0  0  3  0  0  0  0  0  0
  161.1960  201.2060  148.3130 C   0  0  0  0  0  3  0  0  0  0  0  0
  161.0690  208.3370  156.9910 C   0  0  0  0  0  2  0  0  0  0  0  0
  160.2940  207.1300  157.2200 N   0  0  0  0  0  1  0  0  0  0  0  0
  1 10  2  0  0  0  0
  2  6  2  0  0  0  0
  3  1  1  6  0  0  0
  4  3  1  0  0  0  0
  4  2  1  0  0  0  0
  5  4  2  0  0  0  0
  6 10  1  0  0  0  0
  7  9  1  0  0  0  0
  7  5  1  0  0  0  0
  8  3  1  0  0  0  0
  9  8  2  0  0  0  0
 10 36  1  0  0  0  0
 11 12  1  0  0  0  0
 12 19  2  0  0  0  0
 13 11  1  0  0  0  0
 14 17  1  0  0  0  0
 14 11  2  0  0  0  0
 15 18  2  0  0  0  0
 15 14  1  0  0  0  0
 16 19  1  0  0  0  0
 16  5  1  6  0  0  0
 17 16  1  0  0  0  0
 18 13  1  0  0  0  0
 20 22  1  0  0  0  0
 22 21  1  6  0  0  0
 22  7  1  0  0  0  0
 23 24  1  6  0  0  0
 23 21  1  0  0  0  0
 23 20  1  0  0  0  0
 25 26  1  0  0  0  0
 26 24  1  0  0  0  0
 27 24  1  0  0  0  0
 27 28  1  0  0  0  0
 29 28  1  0  0  0  0
 29 30  1  0  0  0  0
 30 35  2  0  0  0  0
 30 34  1  0  0  0  0
 31 32  1  0  0  0  0
 33 32  2  0  0  0  0
 34 31  2  0  0  0  0
 35 33  1  0  0  0  0
 36 37  1  0  0  0  0
M  END
>  <MODEL>
2

>  <REMARK>
 VINA RESULT:      -6.8      3.348      7.430
  Name = 
  9 active torsions:
  status: ('A' for Active; 'I' for Inactive)
    1  A    between atoms: C_3  and  C_35
    2  A    between atoms: C_3  and  C_37
    3  A    between atoms: C_5  and  C_29
    4  A    between atoms: N_8  and  C_16
    5  A    between atoms: N_8  and  C_34
    6  A    between atoms: N_8  and  C_35
    7  A    between atoms: C_11  and  C_26
    8  A    between atoms: C_14  and  C_37
    9  A    between atoms: N_19  and  C_27
                            x       y       z     vdW  Elec       q    Type
                         _______ _______ _______ _____ _____    ______ ____

>  <TORSDO>
F 9

$$$$
=
 OpenBabel11072413043D

 37 42  0  0  1  0  0  0  0  0999 V2000
  161.3970  205.3900  149.2240 C   0  0  0  0  0  3  0  0  0  0  0  0
  160.9870  206.2890  151.9670 C   0  0  0  0  0  3  0  0  0  0  0  0
  161.5710  206.6870  149.4770 C   0  0  2  0  0  3  0  0  0  0  0  0
  161.3560  207.2280  150.8380 C   0  0  0  0  0  0  0  0  0  0  0  0
  161.5220  208.5550  151.0410 C   0  0  0  0  0  0  0  0  0  0  0  0
  160.7810  204.8640  151.5310 C   0  0  0  0  0  3  0  0  0  0  0  0
  161.8960  209.4030  149.9300 N   0  0  0  0  0  0  0  0  0  0  0  0
  161.9520  207.5640  148.4150 N   0  0  0  0  0  0  0  0  0  0  0  0
  162.1050  208.8340  148.6220 C   0  0  0  0  0  3  0  0  0  0  0  0
  160.9890  204.4480  150.2780 C   0  0  0  0  0  0  0  0  0  0  0  0
  160.7010  210.8980  154.6200 C   0  0  0  0  0  0  0  0  0  0  0  0
  159.7140  210.7150  153.5540 C   0  0  0  0  0  3  0  0  0  0  0  0
  160.4820  211.3100  155.8390 O   0  0  0  0  0  0  0  0  0  0  0  0
  162.0230  210.6120  154.4970 C   0  0  0  0  0  0  0  0  0  0  0  0
  162.6460  210.8380  155.6660 N   0  0  0  0  0  0  0  0  0  0  0  0
  161.3200  209.1890  152.3970 C   0  0  1  0  0  3  0  0  0  0  0  0
  162.8000  210.1260  152.9580 S   0  0  0  0  0  0  0  0  0  0  0  0
  161.6420  211.2720  156.4700 C   0  0  0  0  0  3  0  0  0  0  0  0
  160.0170  209.9580  152.4930 C   0  0  0  0  0  3  0  0  0  0  0  0
  162.8080  211.5110  149.0020 C   0  0  0  0  0  2  0  0  0  0  0  0
  160.7940  211.6120  149.7750 C   0  0  0  0  0  2  0  0  0  0  0  0
  162.0560  210.8480  150.1460 C   0  0  1  0  0  3  0  0  0  0  0  0
  161.5470  212.2770  148.6290 C   0  0  1  0  0  3  0  0  0  0  0  0
  161.7240  213.7350  148.7790 N   0  0  0  0  0  0  0  0  0  0  0  0
  159.3060  214.4510  148.7390 C   0  0  0  0  0  1  0  0  0  0  0  0
  160.6380  214.4420  149.4880 C   0  0  0  0  0  2  0  0  0  0  0  0
  162.0040  214.3350  147.4770 C   0  0  0  0  0  2  0  0  0  0  0  0
  161.5830  213.3910  146.3590 C   0  0  0  0  0  2  0  0  0  0  0  0
  162.3910  213.6320  145.0880 C   0  0  0  0  0  2  0  0  0  0  0  0
  161.8190  212.8850  143.9300 C   0  0  0  0  0  0  0  0  0  0  0  0
  162.0710  211.9490  141.7080 C   0  0  0  0  0  3  0  0  0  0  0  0
  160.7430  211.5090  141.7440 C   0  0  0  0  0  3  0  0  0  0  0  0
  159.9530  211.7580  142.8700 C   0  0  0  0  0  3  0  0  0  0  0  0
  162.6080  212.6370  142.8000 C   0  0  0  0  0  3  0  0  0  0  0  0
  160.4910  212.4460  143.9630 C   0  0  0  0  0  3  0  0  0  0  0  0
  160.7530  203.0210  149.9310 C   0  0  0  0  0  2  0  0  0  0  0  0
  160.8590  202.8390  148.4940 N   0  0  0  0  0  1  0  0  0  0  0  0
  1 10  2  0  0  0  0
  3  1  1  6  0  0  0
  3  4  1  0  0  0  0
  4  5  2  0  0  0  0
  4  2  1  0  0  0  0
  6  2  2  0  0  0  0
  7 22  1  0  0  0  0
  7  5  1  0  0  0  0
  8  9  2  0  0  0  0
  8  3  1  0  0  0  0
  9  7  1  0  0  0  0
 10  6  1  0  0  0  0
 11 13  1  0  0  0  0
 12 11  1  0  0  0  0
 13 18  1  0  0  0  0
 14 11  2  0  0  0  0
 14 15  1  0  0  0  0
 15 18  2  0  0  0  0
 16  5  1  6  0  0  0
 16 19  1  0  0  0  0
 16 17  1  0  0  0  0
 17 14  1  0  0  0  0
 19 12  2  0  0  0  0
 21 22  1  0  0  0  0
 22 20  1  6  0  0  0
 23 24  1  1  0  0  0
 23 20  1  0  0  0  0
 23 21  1  0  0  0  0
 24 26  1  0  0  0  0
 25 26  1  0  0  0  0
 27 24  1  0  0  0  0
 28 27  1  0  0  0  0
 29 28  1  0  0  0  0
 30 35  1  0  0  0  0
 30 29  1  0  0  0  0
 31 32  2  0  0  0  0
 31 34  1  0  0  0  0
 32 33  1  0  0  0  0
 33 35  2  0  0  0  0
 34 30  2  0  0  0  0
 36 10  1  0  0  0  0
 37 36  1  0  0  0  0
M  END
>  <MODEL>
3

>  <REMARK>
 VINA RESULT:      -6.3      1.415      1.869
  Name = 
  9 active torsions:
  status: ('A' for Active; 'I' for Inactive)
    1  A    between atoms: C_3  and  C_35
    2  A    between atoms: C_3  and  C_37
    3  A    between atoms: C_5  and  C_29
    4  A    between atoms: N_8  and  C_16
    5  A    between atoms: N_8  and  C_34
    6  A    between atoms: N_8  and  C_35
    7  A    between atoms: C_11  and  C_26
    8  A    between atoms: C_14  and  C_37
    9  A    between atoms: N_19  and  C_27
                            x       y       z     vdW  Elec       q    Type
                         _______ _______ _______ _____ _____    ______ ____

>  <TORSDO>
F 9

$$$$
=
 OpenBabel11072413043D

 37 42  0  0  1  0  0  0  0  0999 V2000
  157.0280  212.9170  156.6630 C   0  0  0  0  0  3  0  0  0  0  0  0
  156.9880  213.9610  153.9410 C   0  0  0  0  0  2  0  0  0  0  0  0
  157.8990  212.4020  155.7950 C   0  0  0  0  0  0  0  0  0  0  0  0
  157.9260  212.8600  154.3870 C   0  0  0  0  0  0  0  0  0  0  0  0
  158.8120  212.2910  153.5390 C   0  0  0  0  0  0  0  0  0  0  0  0
  156.0310  214.4170  155.0090 C   0  0  0  0  0  3  0  0  0  0  0  0
  159.6990  211.2560  154.0240 N   0  0  0  0  0  0  0  0  0  0  0  0
  158.8050  211.3860  156.2300 N   0  0  0  0  0  0  0  0  0  0  0  0
  159.6470  210.8470  155.4060 C   0  0  0  0  0  3  0  0  0  0  0  0
  156.0640  213.9530  156.2620 C   0  0  0  0  0  0  0  0  0  0  0  0
  159.1460  214.0740  149.5780 C   0  0  0  0  0  0  0  0  0  0  0  0
  160.0900  214.3690  150.6580 C   0  0  0  0  0  3  0  0  0  0  0  0
  159.3070  214.3000  148.3030 O   0  0  0  0  0  0  0  0  0  0  0  0
  157.9470  213.4600  149.7560 C   0  0  0  0  0  0  0  0  0  0  0  0
  157.3470  213.2870  148.5660 N   0  0  0  0  0  0  0  0  0  0  0  0
  158.9020  212.6960  152.0870 C   0  0  1  0  0  3  0  0  0  0  0  0
  157.2540  213.0690  151.3610 S   0  0  0  0  0  0  0  0  0  0  0  0
  158.2350  213.8270  147.6930 C   0  0  0  0  0  3  0  0  0  0  0  0
  159.9500  213.7650  151.8440 C   0  0  0  0  0  3  0  0  0  0  0  0
  161.4760  209.5480  153.7830 C   0  0  0  0  0  2  0  0  0  0  0  0
  159.9700  209.5710  152.2350 C   0  0  0  0  0  2  0  0  0  0  0  0
  160.6470  210.6240  153.0970 C   0  0  1  0  0  3  0  0  0  0  0  0
  160.7990  208.4920  152.9210 C   0  0  1  0  0  3  0  0  0  0  0  0
  161.7600  207.8050  152.0350 N   0  0  0  0  0  0  0  0  0  0  0  0
  162.2190  208.3060  149.6070 C   0  0  0  0  0  1  0  0  0  0  0  0
  161.3230  207.6200  150.6370 C   0  0  0  0  0  2  0  0  0  0  0  0
  162.1810  206.5460  152.6450 C   0  0  0  0  0  2  0  0  0  0  0  0
  162.3190  205.4640  151.5820 C   0  0  0  0  0  2  0  0  0  0  0  0
  161.3510  204.3120  151.8260 C   0  0  0  0  0  2  0  0  0  0  0  0
  161.1580  203.4940  150.5940 C   0  0  0  0  0  0  0  0  0  0  0  0
  161.0820  203.3290  148.1770 C   0  0  0  0  0  3  0  0  0  0  0  0
  160.7680  201.9700  148.2790 C   0  0  0  0  0  3  0  0  0  0  0  0
  160.6480  201.3720  149.5380 C   0  0  0  0  0  3  0  0  0  0  0  0
  161.2750  204.0900  149.3330 C   0  0  0  0  0  3  0  0  0  0  0  0
  160.8420  202.1340  150.6950 C   0  0  0  0  0  3  0  0  0  0  0  0
  155.0740  214.4530  157.2540 C   0  0  0  0  0  2  0  0  0  0  0  0
  153.7280  214.2940  156.7300 N   0  0  0  0  0  1  0  0  0  0  0  0
  2  4  1  0  0  0  0
  2  6  1  0  0  0  0
  3  8  1  0  0  0  0
  3  1  2  0  0  0  0
  4  3  1  0  0  0  0
  5  7  1  0  0  0  0
  5  4  2  0  0  0  0
  6 10  2  0  0  0  0
  7  9  1  0  0  0  0
  9  8  2  0  0  0  0
 10  1  1  0  0  0  0
 10 36  1  0  0  0  0
 11 14  2  0  0  0  0
 11 12  1  0  0  0  0
 12 19  2  0  0  0  0
 13 11  1  0  0  0  0
 14 17  1  0  0  0  0
 15 14  1  0  0  0  0
 16  5  1  1  0  0  0
 17 16  1  0  0  0  0
 18 13  1  0  0  0  0
 18 15  2  0  0  0  0
 19 16  1  0  0  0  0
 21 23  1  0  0  0  0
 22 21  1  6  0  0  0
 22 20  1  0  0  0  0
 22  7  1  0  0  0  0
 23 24  1  6  0  0  0
 23 20  1  0  0  0  0
 24 27  1  0  0  0  0
 25 26  1  0  0  0  0
 26 24  1  0  0  0  0
 28 29  1  0  0  0  0
 28 27  1  0  0  0  0
 30 35  1  0  0  0  0
 30 29  1  0  0  0  0
 31 32  2  0  0  0  0
 31 34  1  0  0  0  0
 32 33  1  0  0  0  0
 33 35  2  0  0  0  0
 34 30  2  0  0  0  0
 37 36  1  0  0  0  0
M  END
>  <MODEL>
4

>  <REMARK>
 VINA RESULT:      -6.2      3.637      8.638
  Name = 
  9 active torsions:
  status: ('A' for Active; 'I' for Inactive)
    1  A    between atoms: C_3  and  C_35
    2  A    between atoms: C_3  and  C_37
    3  A    between atoms: C_5  and  C_29
    4  A    between atoms: N_8  and  C_16
    5  A    between atoms: N_8  and  C_34
    6  A    between atoms: N_8  and  C_35
    7  A    between atoms: C_11  and  C_26
    8  A    between atoms: C_14  and  C_37
    9  A    between atoms: N_19  and  C_27
                            x       y       z     vdW  Elec       q    Type
                         _______ _______ _______ _____ _____    ______ ____

>  <TORSDO>
F 9

$$$$
=
 OpenBabel11072413043D

 37 42  0  0  1  0  0  0  0  0999 V2000
  160.9070  202.4230  150.1640 C   0  0  0  0  0  3  0  0  0  0  0  0
  160.9890  204.8860  148.6070 C   0  0  0  0  0  2  0  0  0  0  0  0
  161.0080  203.5700  150.8350 C   0  0  0  0  0  0  0  0  0  0  0  0
  161.0820  204.8630  150.1170 C   0  0  0  0  0  0  0  0  0  0  0  0
  161.2080  205.9980  150.8410 C   0  0  0  0  0  0  0  0  0  0  0  0
  160.9230  203.5200  147.9790 C   0  0  0  0  0  3  0  0  0  0  0  0
  161.2710  205.9190  152.2840 N   0  0  0  0  0  0  0  0  0  0  0  0
  161.0620  203.5450  152.2620 N   0  0  0  0  0  0  0  0  0  0  0  0
  161.1850  204.6400  152.9440 C   0  0  0  0  0  3  0  0  0  0  0  0
  160.8650  202.3930  148.6930 C   0  0  0  0  0  0  0  0  0  0  0  0
  161.9760  209.6770  148.6360 C   0  0  0  0  0  0  0  0  0  0  0  0
  161.9140  208.3660  147.9870 C   0  0  0  0  0  3  0  0  0  0  0  0
  161.9000  210.8480  148.0650 O   0  0  0  0  0  0  0  0  0  0  0  0
  162.0800  209.8610  149.9790 C   0  0  0  0  0  0  0  0  0  0  0  0
  162.0580  211.1750  150.2570 N   0  0  0  0  0  0  0  0  0  0  0  0
  161.2940  207.3580  150.1880 C   0  0  1  0  0  3  0  0  0  0  0  0
  162.3310  208.5320  151.1530 S   0  0  0  0  0  0  0  0  0  0  0  0
  161.9440  211.7480  149.0310 C   0  0  0  0  0  3  0  0  0  0  0  0
  161.6440  207.2760  148.7160 C   0  0  0  0  0  3  0  0  0  0  0  0
  160.0990  207.6430  153.6210 C   0  0  0  0  0  2  0  0  0  0  0  0
  161.9200  206.8580  154.4780 C   0  0  0  0  0  2  0  0  0  0  0  0
  161.4290  207.1510  153.0690 C   0  0  1  0  0  3  0  0  0  0  0  0
  160.5880  207.3510  155.0320 C   0  0  1  0  0  3  0  0  0  0  0  0
  160.6830  208.5780  155.8480 N   0  0  0  0  0  0  0  0  0  0  0  0
  162.5490  209.5920  157.2060 C   0  0  0  0  0  1  0  0  0  0  0  0
  161.5150  208.4770  157.0640 C   0  0  0  0  0  2  0  0  0  0  0  0
  159.3430  209.0780  156.1460 C   0  0  0  0  0  2  0  0  0  0  0  0
  159.2920  210.5890  155.9720 C   0  0  0  0  0  2  0  0  0  0  0  0
  160.0590  211.0370  154.7320 C   0  0  0  0  0  2  0  0  0  0  0  0
  159.2380  211.9490  153.8840 C   0  0  0  0  0  0  0  0  0  0  0  0
  157.2100  213.2310  153.5390 C   0  0  0  0  0  3  0  0  0  0  0  0
  157.6810  213.6380  152.2860 C   0  0  0  0  0  3  0  0  0  0  0  0
  158.9290  213.2000  151.8310 C   0  0  0  0  0  3  0  0  0  0  0  0
  157.9870  212.3870  154.3360 C   0  0  0  0  0  3  0  0  0  0  0  0
  159.7070  212.3560  152.6300 C   0  0  0  0  0  3  0  0  0  0  0  0
  160.8090  201.0830  147.9900 C   0  0  0  0  0  2  0  0  0  0  0  0
  160.8310  201.2940  146.5530 N   0  0  0  0  0  1  0  0  0  0  0  0
  1  3  2  0  0  0  0
  2  4  1  0  0  0  0
  3  8  1  0  0  0  0
  4  3  1  0  0  0  0
  4  5  2  0  0  0  0
  5  7  1  0  0  0  0
  6  2  1  0  0  0  0
  6 10  2  0  0  0  0
  7  9  1  0  0  0  0
  8  9  2  0  0  0  0
 10  1  1  0  0  0  0
 11 14  2  0  0  0  0
 12 11  1  0  0  0  0
 12 19  2  0  0  0  0
 13 11  1  0  0  0  0
 13 18  1  0  0  0  0
 14 15  1  0  0  0  0
 14 17  1  0  0  0  0
 16  5  1  1  0  0  0
 16 17  1  0  0  0  0
 18 15  2  0  0  0  0
 19 16  1  0  0  0  0
 20 23  1  0  0  0  0
 21 23  1  0  0  0  0
 22  7  1  6  0  0  0
 22 20  1  0  0  0  0
 22 21  1  0  0  0  0
 23 24  1  1  0  0  0
 24 27  1  0  0  0  0
 24 26  1  0  0  0  0
 26 25  1  0  0  0  0
 28 27  1  0  0  0  0
 29 28  1  0  0  0  0
 30 34  1  0  0  0  0
 30 29  1  0  0  0  0
 31 34  2  0  0  0  0
 32 31  1  0  0  0  0
 33 32  2  0  0  0  0
 33 35  1  0  0  0  0
 35 30  2  0  0  0  0
 36 10  1  0  0  0  0
 37 36  1  0  0  0  0
M  END
>  <MODEL>
5

>  <REMARK>
 VINA RESULT:      -6.1      3.660      7.711
  Name = 
  9 active torsions:
  status: ('A' for Active; 'I' for Inactive)
    1  A    between atoms: C_3  and  C_35
    2  A    between atoms: C_3  and  C_37
    3  A    between atoms: C_5  and  C_29
    4  A    between atoms: N_8  and  C_16
    5  A    between atoms: N_8  and  C_34
    6  A    between atoms: N_8  and  C_35
    7  A    between atoms: C_11  and  C_26
    8  A    between atoms: C_14  and  C_37
    9  A    between atoms: N_19  and  C_27
                            x       y       z     vdW  Elec       q    Type
                         _______ _______ _______ _____ _____    ______ ____

>  <TORSDO>
F 9

$$$$
=
 OpenBabel11072413043D

 37 42  0  0  1  0  0  0  0  0999 V2000
  162.1790  212.4060  147.6140 C   0  0  0  0  0  3  0  0  0  0  0  0
  160.5640  213.8570  149.5600 C   0  0  0  0  0  3  0  0  0  0  0  0
  161.8910  211.7850  148.7580 C   0  0  2  0  0  3  0  0  0  0  0  0
  161.0970  212.4630  149.8090 C   0  0  0  0  0  0  0  0  0  0  0  0
  160.8500  211.8000  150.9610 C   0  0  0  0  0  0  0  0  0  0  0  0
  161.0030  214.4530  148.2500 C   0  0  0  0  0  3  0  0  0  0  0  0
  161.3660  210.4600  151.1370 N   0  0  0  0  0  0  0  0  0  0  0  0
  162.3670  210.4550  148.9750 N   0  0  0  0  0  0  0  0  0  0  0  0
  162.1250  209.8320  150.0850 C   0  0  0  0  0  3  0  0  0  0  0  0
  161.7260  213.7800  147.3500 C   0  0  0  0  0  0  0  0  0  0  0  0
  158.5450  212.9830  154.4630 C   0  0  0  0  0  0  0  0  0  0  0  0
  159.7750  212.1940  154.5580 C   0  0  0  0  0  3  0  0  0  0  0  0
  157.9480  213.6360  155.4230 O   0  0  0  0  0  0  0  0  0  0  0  0
  157.8540  213.1880  153.3120 C   0  0  0  0  0  0  0  0  0  0  0  0
  156.8080  213.9970  153.5500 N   0  0  0  0  0  0  0  0  0  0  0  0
  160.0520  212.4190  152.0840 C   0  0  1  0  0  3  0  0  0  0  0  0
  158.2420  212.3860  151.7580 S   0  0  0  0  0  0  0  0  0  0  0  0
  156.9100  214.2480  154.8800 C   0  0  0  0  0  3  0  0  0  0  0  0
  160.4540  211.8880  153.4460 C   0  0  0  0  0  3  0  0  0  0  0  0
  160.0700  208.6550  152.2300 C   0  0  0  0  0  2  0  0  0  0  0  0
  162.1830  208.7020  152.6730 C   0  0  0  0  0  2  0  0  0  0  0  0
  161.1140  209.7490  152.3970 C   0  0  1  0  0  3  0  0  0  0  0  0
  161.1370  207.6060  152.5060 C   0  0  1  0  0  3  0  0  0  0  0  0
  160.8530  206.8410  153.7360 N   0  0  0  0  0  0  0  0  0  0  0  0
  160.4940  207.7100  156.0760 C   0  0  0  0  0  1  0  0  0  0  0  0
  161.4850  207.3520  154.9690 C   0  0  0  0  0  2  0  0  0  0  0  0
  161.1500  205.4270  153.5180 C   0  0  0  0  0  2  0  0  0  0  0  0
  161.7350  205.2190  152.1280 C   0  0  0  0  0  2  0  0  0  0  0  0
  160.8950  204.2470  151.3070 C   0  0  0  0  0  2  0  0  0  0  0  0
  161.0310  204.5120  149.8440 C   0  0  0  0  0  0  0  0  0  0  0  0
  161.0830  206.0750  147.9920 C   0  0  0  0  0  3  0  0  0  0  0  0
  161.2580  205.0110  147.1000 C   0  0  0  0  0  3  0  0  0  0  0  0
  161.3180  203.6990  147.5780 C   0  0  0  0  0  3  0  0  0  0  0  0
  160.9690  205.8250  149.3630 C   0  0  0  0  0  3  0  0  0  0  0  0
  161.2040  203.4490  148.9500 C   0  0  0  0  0  3  0  0  0  0  0  0
  162.1240  214.4490  146.0820 C   0  0  0  0  0  2  0  0  0  0  0  0
  161.7680  213.6110  144.9500 N   0  0  0  0  0  1  0  0  0  0  0  0
  2  4  1  0  0  0  0
  3  1  1  1  0  0  0
  3  8  1  0  0  0  0
  3  4  1  0  0  0  0
  4  5  2  0  0  0  0
  5  7  1  0  0  0  0
  6  2  2  0  0  0  0
  8  9  2  0  0  0  0
  9  7  1  0  0  0  0
 10  1  2  0  0  0  0
 10  6  1  0  0  0  0
 11 12  1  0  0  0  0
 11 13  1  0  0  0  0
 14 15  1  0  0  0  0
 14 11  2  0  0  0  0
 15 18  2  0  0  0  0
 16  5  1  6  0  0  0
 16 19  1  0  0  0  0
 17 16  1  0  0  0  0
 17 14  1  0  0  0  0
 18 13  1  0  0  0  0
 19 12  2  0  0  0  0
 20 22  1  0  0  0  0
 20 23  1  0  0  0  0
 22  7  1  6  0  0  0
 22 21  1  0  0  0  0
 23 21  1  0  0  0  0
 23 24  1  1  0  0  0
 24 26  1  0  0  0  0
 26 25  1  0  0  0  0
 27 24  1  0  0  0  0
 28 27  1  0  0  0  0
 29 28  1  0  0  0  0
 30 29  1  0  0  0  0
 31 34  2  0  0  0  0
 32 33  2  0  0  0  0
 32 31  1  0  0  0  0
 33 35  1  0  0  0  0
 34 30  1  0  0  0  0
 35 30  2  0  0  0  0
 36 10  1  0  0  0  0
 37 36  1  0  0  0  0
M  END
>  <MODEL>
6

>  <REMARK>
 VINA RESULT:      -6.0      2.386      7.399
  Name = 
  9 active torsions:
  status: ('A' for Active; 'I' for Inactive)
    1  A    between atoms: C_3  and  C_35
    2  A    between atoms: C_3  and  C_37
    3  A    between atoms: C_5  and  C_29
    4  A    between atoms: N_8  and  C_16
    5  A    between atoms: N_8  and  C_34
    6  A    between atoms: N_8  and  C_35
    7  A    between atoms: C_11  and  C_26
    8  A    between atoms: C_14  and  C_37
    9  A    between atoms: N_19  and  C_27
                            x       y       z     vdW  Elec       q    Type
                         _______ _______ _______ _____ _____    ______ ____

>  <TORSDO>
F 9

$$$$
=
 OpenBabel11072413043D

 37 42  0  0  1  0  0  0  0  0999 V2000
  161.8570  212.9520  147.3980 C   0  0  0  0  0  3  0  0  0  0  0  0
  159.3250  213.9050  148.4850 C   0  0  0  0  0  2  0  0  0  0  0  0
  161.4970  212.5020  148.6000 C   0  0  0  0  0  0  0  0  0  0  0  0
  160.2390  212.9580  149.2330 C   0  0  0  0  0  0  0  0  0  0  0  0
  159.9280  212.4920  150.4640 C   0  0  0  0  0  0  0  0  0  0  0  0
  159.8760  214.3660  147.1630 C   0  0  0  0  0  3  0  0  0  0  0  0
  160.8280  211.5710  151.1240 N   0  0  0  0  0  0  0  0  0  0  0  0
  162.3470  211.5820  149.2880 N   0  0  0  0  0  0  0  0  0  0  0  0
  162.0380  211.1450  150.4680 C   0  0  0  0  0  3  0  0  0  0  0  0
  161.0260  213.9130  146.6550 C   0  0  0  0  0  0  0  0  0  0  0  0
  156.2920  214.2140  152.1340 C   0  0  0  0  0  0  0  0  0  0  0  0
  156.4980  214.0510  150.6940 C   0  0  0  0  0  3  0  0  0  0  0  0
  155.1630  214.4280  152.7530 O   0  0  0  0  0  0  0  0  0  0  0  0
  157.2780  214.1160  153.0640 C   0  0  0  0  0  0  0  0  0  0  0  0
  156.7550  214.2610  154.2940 N   0  0  0  0  0  0  0  0  0  0  0  0
  158.6670  212.9080  151.1820 C   0  0  1  0  0  3  0  0  0  0  0  0
  159.0150  213.9420  152.6630 S   0  0  0  0  0  0  0  0  0  0  0  0
  155.4340  214.4530  154.0460 C   0  0  0  0  0  3  0  0  0  0  0  0
  157.6260  213.4870  150.2450 C   0  0  0  0  0  3  0  0  0  0  0  0
  159.8950  209.6850  152.4300 C   0  0  0  0  0  2  0  0  0  0  0  0
  161.7290  210.5400  153.1830 C   0  0  0  0  0  2  0  0  0  0  0  0
  160.5000  211.0810  152.4700 C   0  0  1  0  0  3  0  0  0  0  0  0
  161.1230  209.1420  153.1450 C   0  0  1  0  0  3  0  0  0  0  0  0
  160.7890  208.5850  154.4700 N   0  0  0  0  0  0  0  0  0  0  0  0
  160.1590  210.2710  156.2360 C   0  0  0  0  0  1  0  0  0  0  0  0
  161.2410  209.3780  155.6320 C   0  0  0  0  0  2  0  0  0  0  0  0
  161.2390  207.1970  154.5510 C   0  0  0  0  0  2  0  0  0  0  0  0
  161.8140  206.7500  153.2140 C   0  0  0  0  0  2  0  0  0  0  0  0
  161.2310  205.4120  152.7730 C   0  0  0  0  0  2  0  0  0  0  0  0
  161.0650  205.3530  151.2910 C   0  0  0  0  0  0  0  0  0  0  0  0
  160.9640  204.0620  149.2430 C   0  0  0  0  0  3  0  0  0  0  0  0
  160.7850  205.2390  148.5090 C   0  0  0  0  0  3  0  0  0  0  0  0
  160.7470  206.4740  149.1650 C   0  0  0  0  0  3  0  0  0  0  0  0
  161.1050  204.1190  150.6320 C   0  0  0  0  0  3  0  0  0  0  0  0
  160.8880  206.5310  150.5560 C   0  0  0  0  0  3  0  0  0  0  0  0
  161.5000  214.4290  145.3430 C   0  0  0  0  0  2  0  0  0  0  0  0
  162.6330  213.6420  144.8850 N   0  0  0  0  0  1  0  0  0  0  0  0
  1  3  2  0  0  0  0
  2  4  1  0  0  0  0
  3  4  1  0  0  0  0
  3  8  1  0  0  0  0
  4  5  2  0  0  0  0
  5  7  1  0  0  0  0
  6  2  1  0  0  0  0
  8  9  2  0  0  0  0
  9  7  1  0  0  0  0
 10  6  2  0  0  0  0
 10  1  1  0  0  0  0
 11 13  1  0  0  0  0
 11 14  2  0  0  0  0
 12 11  1  0  0  0  0
 13 18  1  0  0  0  0
 14 15  1  0  0  0  0
 16  5  1  6  0  0  0
 16 17  1  0  0  0  0
 17 14  1  0  0  0  0
 18 15  2  0  0  0  0
 19 12  2  0  0  0  0
 19 16  1  0  0  0  0
 20 22  1  0  0  0  0
 20 23  1  0  0  0  0
 22  7  1  6  0  0  0
 22 21  1  0  0  0  0
 23 21  1  0  0  0  0
 23 24  1  1  0  0  0
 24 27  1  0  0  0  0
 24 26  1  0  0  0  0
 26 25  1  0  0  0  0
 28 27  1  0  0  0  0
 29 28  1  0  0  0  0
 30 29  1  0  0  0  0
 31 34  2  0  0  0  0
 32 33  2  0  0  0  0
 32 31  1  0  0  0  0
 33 35  1  0  0  0  0
 34 30  1  0  0  0  0
 35 30  2  0  0  0  0
 36 10  1  0  0  0  0
 37 36  1  0  0  0  0
M  END
>  <MODEL>
7

>  <REMARK>
 VINA RESULT:      -5.8      2.647      7.839
  Name = 
  9 active torsions:
  status: ('A' for Active; 'I' for Inactive)
    1  A    between atoms: C_3  and  C_35
    2  A    between atoms: C_3  and  C_37
    3  A    between atoms: C_5  and  C_29
    4  A    between atoms: N_8  and  C_16
    5  A    between atoms: N_8  and  C_34
    6  A    between atoms: N_8  and  C_35
    7  A    between atoms: C_11  and  C_26
    8  A    between atoms: C_14  and  C_37
    9  A    between atoms: N_19  and  C_27
                            x       y       z     vdW  Elec       q    Type
                         _______ _______ _______ _____ _____    ______ ____

>  <TORSDO>
F 9

$$$$
=
 OpenBabel11072413043D

 37 42  0  0  1  0  0  0  0  0999 V2000
  160.7490  209.4770  153.4480 C   0  0  0  0  0  3  0  0  0  0  0  0
  160.9380  211.6470  151.5100 C   0  0  0  0  0  2  0  0  0  0  0  0
  161.1480  209.1660  152.2150 C   0  0  0  0  0  0  0  0  0  0  0  0
  161.2450  210.2050  151.1650 C   0  0  0  0  0  0  0  0  0  0  0  0
  161.6310  209.8360  149.9230 C   0  0  0  0  0  0  0  0  0  0  0  0
  160.4590  211.8480  152.9220 C   0  0  0  0  0  3  0  0  0  0  0  0
  161.9320  208.4470  149.6550 N   0  0  0  0  0  0  0  0  0  0  0  0
  161.4690  207.8090  151.9030 N   0  0  0  0  0  0  0  0  0  0  0  0
  161.8350  207.4680  150.7080 C   0  0  0  0  0  3  0  0  0  0  0  0
  160.3920  210.8570  153.8160 C   0  0  0  0  0  0  0  0  0  0  0  0
  162.3350  213.0690  147.0890 C   0  0  0  0  0  0  0  0  0  0  0  0
  163.4100  212.4640  147.8780 C   0  0  0  0  0  3  0  0  0  0  0  0
  162.4580  213.8110  146.0220 O   0  0  0  0  0  0  0  0  0  0  0  0
  161.0110  212.8980  147.3410 C   0  0  0  0  0  0  0  0  0  0  0  0
  160.2870  213.5370  146.4070 N   0  0  0  0  0  0  0  0  0  0  0  0
  161.7530  210.8320  148.7940 C   0  0  1  0  0  3  0  0  0  0  0  0
  160.3710  212.0460  148.7810 S   0  0  0  0  0  0  0  0  0  0  0  0
  161.2350  214.0900  145.6080 C   0  0  0  0  0  3  0  0  0  0  0  0
  163.1330  211.4530  148.7100 C   0  0  0  0  0  3  0  0  0  0  0  0
  162.7990  206.5960  148.2560 C   0  0  0  0  0  2  0  0  0  0  0  0
  161.1270  207.6930  147.4410 C   0  0  0  0  0  2  0  0  0  0  0  0
  162.3320  208.0430  148.3000 C   0  0  1  0  0  3  0  0  0  0  0  0
  161.5940  206.2430  147.3960 C   0  0  1  0  0  3  0  0  0  0  0  0
  161.9920  205.7700  146.0560 N   0  0  0  0  0  0  0  0  0  0  0  0
  161.4780  205.5420  143.5980 C   0  0  0  0  0  1  0  0  0  0  0  0
  161.0600  206.0970  144.9580 C   0  0  0  0  0  2  0  0  0  0  0  0
  162.2960  204.3430  146.1050 C   0  0  0  0  0  2  0  0  0  0  0  0
  161.0120  203.5270  146.0460 C   0  0  0  0  0  2  0  0  0  0  0  0
  161.2060  202.1330  146.6320 C   0  0  0  0  0  2  0  0  0  0  0  0
  161.0860  202.1470  148.1190 C   0  0  0  0  0  0  0  0  0  0  0  0
  161.0800  200.9610  150.2330 C   0  0  0  0  0  3  0  0  0  0  0  0
  160.8310  202.1620  150.9060 C   0  0  0  0  0  3  0  0  0  0  0  0
  160.7090  203.3550  150.1870 C   0  0  0  0  0  3  0  0  0  0  0  0
  161.2060  200.9530  148.8410 C   0  0  0  0  0  3  0  0  0  0  0  0
  160.8350  203.3470  148.7940 C   0  0  0  0  0  3  0  0  0  0  0  0
  159.8980  211.1420  155.1900 C   0  0  0  0  0  2  0  0  0  0  0  0
  158.5210  211.6030  155.1320 N   0  0  0  0  0  1  0  0  0  0  0  0
  1 10  1  0  0  0  0
  2  6  1  0  0  0  0
  3  1  2  0  0  0  0
  4  2  1  0  0  0  0
  4  3  1  0  0  0  0
  5  4  2  0  0  0  0
  6 10  2  0  0  0  0
  7  5  1  0  0  0  0
  7  9  1  0  0  0  0
  8  3  1  0  0  0  0
  9  8  2  0  0  0  0
 10 36  1  0  0  0  0
 11 14  2  0  0  0  0
 11 12  1  0  0  0  0
 12 19  2  0  0  0  0
 13 11  1  0  0  0  0
 14 17  1  0  0  0  0
 15 14  1  0  0  0  0
 16  5  1  1  0  0  0
 17 16  1  0  0  0  0
 18 13  1  0  0  0  0
 18 15  2  0  0  0  0
 19 16  1  0  0  0  0
 20 22  1  0  0  0  0
 22 21  1  6  0  0  0
 22  7  1  0  0  0  0
 23 24  1  6  0  0  0
 23 21  1  0  0  0  0
 23 20  1  0  0  0  0
 24 27  1  0  0  0  0
 25 26  1  0  0  0  0
 26 24  1  0  0  0  0
 28 27  1  0  0  0  0
 28 29  1  0  0  0  0
 29 30  1  0  0  0  0
 30 35  2  0  0  0  0
 30 34  1  0  0  0  0
 31 32  1  0  0  0  0
 33 32  2  0  0  0  0
 34 31  2  0  0  0  0
 35 33  1  0  0  0  0
 37 36  1  0  0  0  0
M  END
>  <MODEL>
8

>  <REMARK>
 VINA RESULT:      -5.8      3.336      8.070
  Name = 
  9 active torsions:
  status: ('A' for Active; 'I' for Inactive)
    1  A    between atoms: C_3  and  C_35
    2  A    between atoms: C_3  and  C_37
    3  A    between atoms: C_5  and  C_29
    4  A    between atoms: N_8  and  C_16
    5  A    between atoms: N_8  and  C_34
    6  A    between atoms: N_8  and  C_35
    7  A    between atoms: C_11  and  C_26
    8  A    between atoms: C_14  and  C_37
    9  A    between atoms: N_19  and  C_27
                            x       y       z     vdW  Elec       q    Type
                         _______ _______ _______ _____ _____    ______ ____

>  <TORSDO>
F 9

$$$$
=
 OpenBabel11072413043D

 37 42  0  0  1  0  0  0  0  0999 V2000
  161.3060  208.9640  153.9240 C   0  0  0  0  0  3  0  0  0  0  0  0
  161.0190  206.7630  152.0330 C   0  0  0  0  0  2  0  0  0  0  0  0
  161.4390  209.2470  152.6280 C   0  0  0  0  0  0  0  0  0  0  0  0
  161.3340  208.1810  151.6050 C   0  0  0  0  0  0  0  0  0  0  0  0
  161.4990  208.5130  150.3050 C   0  0  0  0  0  0  0  0  0  0  0  0
  160.9400  206.5790  153.5240 C   0  0  0  0  0  3  0  0  0  0  0  0
  161.7770  209.8870  149.9510 N   0  0  0  0  0  0  0  0  0  0  0  0
  161.7020  210.5930  152.2260 N   0  0  0  0  0  0  0  0  0  0  0  0
  161.8610  210.8970  150.9770 C   0  0  0  0  0  3  0  0  0  0  0  0
  161.0510  207.5920  154.3900 C   0  0  0  0  0  0  0  0  0  0  0  0
  161.4380  205.1200  147.5730 C   0  0  0  0  0  0  0  0  0  0  0  0
  160.8060  205.0810  148.8930 C   0  0  0  0  0  3  0  0  0  0  0  0
  161.2370  204.3040  146.5750 O   0  0  0  0  0  0  0  0  0  0  0  0
  162.3220  206.0720  147.1760 C   0  0  0  0  0  0  0  0  0  0  0  0
  162.6740  205.8570  145.8970 N   0  0  0  0  0  0  0  0  0  0  0  0
  161.4110  207.4870  149.2000 C   0  0  1  0  0  3  0  0  0  0  0  0
  162.9850  207.3340  148.2600 S   0  0  0  0  0  0  0  0  0  0  0  0
  161.9710  204.7430  145.5680 C   0  0  0  0  0  3  0  0  0  0  0  0
  160.8330  206.1670  149.6740 C   0  0  0  0  0  3  0  0  0  0  0  0
  160.7210  210.8430  147.9250 C   0  0  0  0  0  2  0  0  0  0  0  0
  162.6970  211.5760  148.3960 C   0  0  0  0  0  2  0  0  0  0  0  0
  161.9770  210.2440  148.5400 C   0  0  1  0  0  3  0  0  0  0  0  0
  161.4390  212.1760  147.7790 C   0  0  1  0  0  3  0  0  0  0  0  0
  161.5820  212.5730  146.3640 N   0  0  0  0  0  0  0  0  0  0  0  0
  163.2050  213.3920  144.6160 C   0  0  0  0  0  1  0  0  0  0  0  0
  162.7170  213.4700  146.0620 C   0  0  0  0  0  2  0  0  0  0  0  0
  160.3170  213.1120  145.8720 C   0  0  0  0  0  2  0  0  0  0  0  0
  159.7160  214.0680  146.8930 C   0  0  0  0  0  2  0  0  0  0  0  0
  158.1980  213.9400  146.9550 C   0  0  0  0  0  2  0  0  0  0  0  0
  157.7040  213.9990  148.3620 C   0  0  0  0  0  0  0  0  0  0  0  0
  158.1540  213.9990  150.7430 C   0  0  0  0  0  3  0  0  0  0  0  0
  156.7820  214.0790  151.0020 C   0  0  0  0  0  3  0  0  0  0  0  0
  155.8700  214.1170  149.9430 C   0  0  0  0  0  3  0  0  0  0  0  0
  158.6150  213.9580  149.4240 C   0  0  0  0  0  3  0  0  0  0  0  0
  156.3310  214.0770  148.6220 C   0  0  0  0  0  3  0  0  0  0  0  0
  160.9680  207.3200  155.8500 C   0  0  0  0  0  2  0  0  0  0  0  0
  159.5790  207.1610  156.2430 N   0  0  0  0  0  1  0  0  0  0  0  0
  1 10  1  0  0  0  0
  2  6  1  0  0  0  0
  3  1  2  0  0  0  0
  4  2  1  0  0  0  0
  4  3  1  0  0  0  0
  5  4  2  0  0  0  0
  6 10  2  0  0  0  0
  7  5  1  0  0  0  0
  7  9  1  0  0  0  0
  8  3  1  0  0  0  0
  9  8  2  0  0  0  0
 10 36  1  0  0  0  0
 11 12  1  0  0  0  0
 12 19  2  0  0  0  0
 13 11  1  0  0  0  0
 14 11  2  0  0  0  0
 14 17  1  0  0  0  0
 15 14  1  0  0  0  0
 16 19  1  0  0  0  0
 16  5  1  1  0  0  0
 17 16  1  0  0  0  0
 18 15  2  0  0  0  0
 18 13  1  0  0  0  0
 21 22  1  0  0  0  0
 22 20  1  6  0  0  0
 22  7  1  0  0  0  0
 23 24  1  6  0  0  0
 23 20  1  0  0  0  0
 23 21  1  0  0  0  0
 25 26  1  0  0  0  0
 26 24  1  0  0  0  0
 27 24  1  0  0  0  0
 27 28  1  0  0  0  0
 28 29  1  0  0  0  0
 29 30  1  0  0  0  0
 30 35  2  0  0  0  0
 30 34  1  0  0  0  0
 31 32  1  0  0  0  0
 33 32  2  0  0  0  0
 34 31  2  0  0  0  0
 35 33  1  0  0  0  0
 36 37  1  0  0  0  0
M  END
>  <MODEL>
9

>  <REMARK>
 VINA RESULT:      -5.7      3.380      6.398
  Name = 
  9 active torsions:
  status: ('A' for Active; 'I' for Inactive)
    1  A    between atoms: C_3  and  C_35
    2  A    between atoms: C_3  and  C_37
    3  A    between atoms: C_5  and  C_29
    4  A    between atoms: N_8  and  C_16
    5  A    between atoms: N_8  and  C_34
    6  A    between atoms: N_8  and  C_35
    7  A    between atoms: C_11  and  C_26
    8  A    between atoms: C_14  and  C_37
    9  A    between atoms: N_19  and  C_27
                            x       y       z     vdW  Elec       q    Type
                         _______ _______ _______ _____ _____    ______ ____

>  <TORSDO>
F 9

$$$$
