=
 OpenBabel11072411163D

 28 31  0  0  1  0  0  0  0  0999 V2000
  160.7010  206.3110  147.4930 C   0  0  0  0  0  2  0  0  0  0  0  0
  162.5020  208.0190  150.7810 N   0  0  0  0  0  2  0  0  0  0  0  0
  161.0160  206.4400  148.9670 C   0  0  2  0  0  3  0  0  0  0  0  0
  162.1980  207.2060  148.4960 C   0  0  1  0  0  3  0  0  0  0  0  0
  162.5180  204.5450  151.7420 O   0  0  0  0  0  1  0  0  0  0  0  0
  161.7390  209.8540  148.9980 S   0  0  0  0  0  0  0  0  0  0  0  0
  161.6840  207.3400  147.1420 N   0  0  0  0  0  2  0  0  0  0  0  0
  161.9560  205.6760  151.1400 C   0  0  2  0  0  0  0  0  0  0  0  0
  161.5130  205.3230  149.7590 N   0  0  0  0  0  0  0  0  0  0  0  0
  163.0000  206.7390  151.1340 N   0  0  0  0  0  2  0  0  0  0  0  0
  162.2810  208.3660  149.4070 C   0  0  0  0  0  0  0  0  0  0  0  0
  160.2460  201.9120  150.4890 C   0  0  0  0  0  3  0  0  0  0  0  0
  160.2740  203.2360  150.3390 C   0  0  0  0  0  3  0  0  0  0  0  0
  161.4710  203.5230  148.1750 C   0  0  0  0  0  3  0  0  0  0  0  0
  161.1440  202.2060  147.5940 C   0  0  0  0  0  3  0  0  0  0  0  0
  161.1640  200.9900  149.7600 C   0  0  0  0  0  2  0  0  0  0  0  0
  160.9660  201.0810  148.2850 C   0  0  0  0  0  3  0  0  0  0  0  0
  161.1360  203.9830  149.3950 C   0  0  0  0  0  0  0  0  0  0  0  0
  160.7370  206.1060  151.9720 C   0  0  0  0  0  2  0  0  0  0  0  0
  160.9540  208.1270  154.9190 C   0  0  0  0  0  3  0  0  0  0  0  0
  160.9770  205.9790  153.4400 C   0  0  0  0  0  3  0  0  0  0  0  0
  160.9640  207.0460  154.1860 C   0  0  0  0  0  0  0  0  0  0  0  0
  160.6450  209.4530  154.3660 C   0  0  0  0  0  0  0  0  0  0  0  0
  160.0600  212.0110  153.3750 C   0  0  0  0  0  3  0  0  0  0  0  0
  160.4110  209.6470  152.9940 C   0  0  0  0  0  3  0  0  0  0  0  0
  160.1200  210.9220  152.5010 C   0  0  0  0  0  3  0  0  0  0  0  0
  160.5820  210.5490  155.2340 C   0  0  0  0  0  3  0  0  0  0  0  0
  160.2910  211.8250  154.7410 C   0  0  0  0  0  3  0  0  0  0  0  0
  2 10  1  0  0  0  0
  3  1  1  6  0  0  0
  3  9  1  0  0  0  0
  4  7  1  6  0  0  0
  4  3  1  0  0  0  0
  4 11  1  0  0  0  0
  6 11  2  0  0  0  0
  7  1  1  0  0  0  0
  8  5  1  1  0  0  0
  8 19  1  0  0  0  0
  9  8  1  0  0  0  0
 10  8  1  0  0  0  0
 11  2  1  0  0  0  0
 13 12  2  0  0  0  0
 14 18  2  0  0  0  0
 15 14  1  0  0  0  0
 15 17  2  0  0  0  0
 16 12  1  0  0  0  0
 17 16  1  0  0  0  0
 18  9  1  0  0  0  0
 18 13  1  0  0  0  0
 19 21  1  0  0  0  0
 21 22  2  0  0  0  0
 22 20  2  0  0  0  0
 23 20  1  0  0  0  0
 23 27  1  0  0  0  0
 24 28  1  0  0  0  0
 25 23  2  0  0  0  0
 26 25  1  0  0  0  0
 26 24  2  0  0  0  0
 28 27  2  0  0  0  0
M  END
>  <MODEL>
1

>  <REMARK>
 VINA RESULT:      -8.8      0.000      0.000
  Name = 
  4 active torsions:
  status: ('A' for Active; 'I' for Inactive)
    1  A    between atoms: C_3  and  C_15
    2  A    between atoms: C_3  and  C_22
    3  A    between atoms: C_4  and  C_12
    4  A    between atoms: N_16  and  C_28
                            x       y       z     vdW  Elec       q    Type
                         _______ _______ _______ _____ _____    ______ ____

>  <TORSDO>
F 4

$$$$
=
 OpenBabel11072411163D

 28 31  0  0  1  0  0  0  0  0999 V2000
  160.0730  207.1530  154.3980 C   0  0  0  0  0  2  0  0  0  0  0  0
  162.3180  205.6970  151.2650 N   0  0  0  0  0  2  0  0  0  0  0  0
  160.6570  207.1850  153.0020 C   0  0  2  0  0  3  0  0  0  0  0  0
  161.6490  206.2280  153.5550 C   0  0  1  0  0  3  0  0  0  0  0  0
  162.8390  209.2410  150.8680 O   0  0  0  0  0  1  0  0  0  0  0  0
  161.0570  203.7450  152.5780 S   0  0  0  0  0  0  0  0  0  0  0  0
  160.8700  205.9760  154.7580 N   0  0  0  0  0  2  0  0  0  0  0  0
  162.0690  208.1150  151.1780 C   0  0  2  0  0  0  0  0  0  0  0  0
  161.4000  208.3300  152.4930 N   0  0  0  0  0  0  0  0  0  0  0  0
  162.9900  206.9450  151.2080 N   0  0  0  0  0  2  0  0  0  0  0  0
  161.8020  205.1990  152.5070 C   0  0  0  0  0  0  0  0  0  0  0  0
  161.5720  211.0780  154.9830 C   0  0  0  0  0  3  0  0  0  0  0  0
  161.9470  210.2010  154.0530 C   0  0  0  0  0  3  0  0  0  0  0  0
  160.1130  210.3510  152.3760 C   0  0  0  0  0  3  0  0  0  0  0  0
  159.6690  211.7230  152.6930 C   0  0  0  0  0  3  0  0  0  0  0  0
  160.1700  211.5680  155.1210 C   0  0  0  0  0  2  0  0  0  0  0  0
  159.7230  212.2920  153.8970 C   0  0  0  0  0  3  0  0  0  0  0  0
  161.0830  209.6460  152.9860 C   0  0  0  0  0  0  0  0  0  0  0  0
  161.0020  207.9480  150.0840 C   0  0  0  0  0  2  0  0  0  0  0  0
  161.9200  206.2940  147.0440 C   0  0  0  0  0  3  0  0  0  0  0  0
  161.5310  208.2530  148.7210 C   0  0  0  0  0  3  0  0  0  0  0  0
  161.7250  207.2810  147.8770 C   0  0  0  0  0  0  0  0  0  0  0  0
  161.5710  204.9040  147.3720 C   0  0  0  0  0  0  0  0  0  0  0  0
  160.9170  202.2340  147.9310 C   0  0  0  0  0  3  0  0  0  0  0  0
  161.1920  204.5220  148.6710 C   0  0  0  0  0  3  0  0  0  0  0  0
  160.8660  203.1920  148.9480 C   0  0  0  0  0  3  0  0  0  0  0  0
  161.6180  203.9390  146.3600 C   0  0  0  0  0  3  0  0  0  0  0  0
  161.2930  202.6080  146.6380 C   0  0  0  0  0  3  0  0  0  0  0  0
  1  7  1  0  0  0  0
  2 11  1  0  0  0  0
  3  4  1  0  0  0  0
  3  1  1  1  0  0  0
  4 11  1  6  0  0  0
  4  7  1  0  0  0  0
  8  5  1  6  0  0  0
  8 10  1  0  0  0  0
  8  9  1  0  0  0  0
  9 18  1  0  0  0  0
  9  3  1  0  0  0  0
 10  2  1  0  0  0  0
 11  6  2  0  0  0  0
 12 16  1  0  0  0  0
 13 12  2  0  0  0  0
 14 15  1  0  0  0  0
 14 18  2  0  0  0  0
 15 17  2  0  0  0  0
 17 16  1  0  0  0  0
 18 13  1  0  0  0  0
 19  8  1  0  0  0  0
 20 23  1  0  0  0  0
 20 22  2  0  0  0  0
 21 19  1  0  0  0  0
 22 21  2  0  0  0  0
 23 25  1  0  0  0  0
 24 26  1  0  0  0  0
 25 26  2  0  0  0  0
 27 28  1  0  0  0  0
 27 23  2  0  0  0  0
 28 24  2  0  0  0  0
M  END
>  <MODEL>
2

>  <REMARK>
 VINA RESULT:      -7.8      2.155      7.809
  Name = 
  4 active torsions:
  status: ('A' for Active; 'I' for Inactive)
    1  A    between atoms: C_3  and  C_15
    2  A    between atoms: C_3  and  C_22
    3  A    between atoms: C_4  and  C_12
    4  A    between atoms: N_16  and  C_28
                            x       y       z     vdW  Elec       q    Type
                         _______ _______ _______ _____ _____    ______ ____

>  <TORSDO>
F 4

$$$$
=
 OpenBabel11072411163D

 28 31  0  0  1  0  0  0  0  0999 V2000
  160.2280  209.9480  153.2820 C   0  0  0  0  0  2  0  0  0  0  0  0
  161.1880  206.0920  154.3710 N   0  0  0  0  0  2  0  0  0  0  0  0
  160.5490  208.4920  153.0200 C   0  0  2  0  0  3  0  0  0  0  0  0
  161.1550  208.5360  154.3760 C   0  0  1  0  0  3  0  0  0  0  0  0
  163.0020  206.3800  151.2690 O   0  0  0  0  0  1  0  0  0  0  0  0
  159.4810  207.2160  156.0870 S   0  0  0  0  0  0  0  0  0  0  0  0
  160.5400  209.8120  154.7080 N   0  0  0  0  0  2  0  0  0  0  0  0
  161.9080  206.6190  152.1070 C   0  0  2  0  0  0  0  0  0  0  0  0
  161.5950  208.0780  152.0950 N   0  0  0  0  0  0  0  0  0  0  0  0
  162.2820  206.1430  153.4690 N   0  0  0  0  0  2  0  0  0  0  0  0
  160.7200  207.2800  155.0220 C   0  0  0  0  0  0  0  0  0  0  0  0
  162.4020  211.3290  150.4970 C   0  0  0  0  0  3  0  0  0  0  0  0
  162.5200  210.2370  151.2510 C   0  0  0  0  0  3  0  0  0  0  0  0
  161.7520  208.4250  149.7270 C   0  0  0  0  0  3  0  0  0  0  0  0
  162.0560  209.1010  148.4500 C   0  0  0  0  0  3  0  0  0  0  0  0
  161.5470  211.3870  149.2760 C   0  0  0  0  0  2  0  0  0  0  0  0
  162.0080  210.4160  148.2430 C   0  0  0  0  0  3  0  0  0  0  0  0
  161.9080  208.9180  150.9690 C   0  0  0  0  0  0  0  0  0  0  0  0
  160.7040  205.8350  151.5610 C   0  0  0  0  0  2  0  0  0  0  0  0
  161.2810  203.3330  149.0650 C   0  0  0  0  0  3  0  0  0  0  0  0
  160.9860  204.3730  151.4380 C   0  0  0  0  0  3  0  0  0  0  0  0
  161.1380  203.8470  150.2570 C   0  0  0  0  0  0  0  0  0  0  0  0
  161.2460  204.1510  147.8440 C   0  0  0  0  0  0  0  0  0  0  0  0
  161.2010  205.6550  145.4770 C   0  0  0  0  0  3  0  0  0  0  0  0
  160.8880  205.5090  147.8720 C   0  0  0  0  0  3  0  0  0  0  0  0
  160.8650  206.2580  146.6930 C   0  0  0  0  0  3  0  0  0  0  0  0
  161.5830  203.5550  146.6230 C   0  0  0  0  0  3  0  0  0  0  0  0
  161.5590  204.3050  145.4420 C   0  0  0  0  0  3  0  0  0  0  0  0
  1  7  1  0  0  0  0
  2 11  1  0  0  0  0
  3  1  1  6  0  0  0
  3  4  1  0  0  0  0
  4  7  1  1  0  0  0
  4 11  1  0  0  0  0
  8  5  1  6  0  0  0
  8 10  1  0  0  0  0
  9  8  1  0  0  0  0
  9  3  1  0  0  0  0
 10  2  1  0  0  0  0
 11  6  2  0  0  0  0
 12 13  2  0  0  0  0
 14 18  2  0  0  0  0
 15 14  1  0  0  0  0
 16 12  1  0  0  0  0
 17 15  2  0  0  0  0
 17 16  1  0  0  0  0
 18 13  1  0  0  0  0
 18  9  1  0  0  0  0
 19  8  1  0  0  0  0
 20 22  2  0  0  0  0
 21 19  1  0  0  0  0
 22 21  2  0  0  0  0
 23 25  1  0  0  0  0
 23 20  1  0  0  0  0
 24 26  1  0  0  0  0
 26 25  2  0  0  0  0
 27 23  2  0  0  0  0
 28 24  2  0  0  0  0
 28 27  1  0  0  0  0
M  END
>  <MODEL>
3

>  <REMARK>
 VINA RESULT:      -7.5      2.494      7.051
  Name = 
  4 active torsions:
  status: ('A' for Active; 'I' for Inactive)
    1  A    between atoms: C_3  and  C_15
    2  A    between atoms: C_3  and  C_22
    3  A    between atoms: C_4  and  C_12
    4  A    between atoms: N_16  and  C_28
                            x       y       z     vdW  Elec       q    Type
                         _______ _______ _______ _____ _____    ______ ____

>  <TORSDO>
F 4

$$$$
=
 OpenBabel11072411163D

 28 31  0  0  1  0  0  0  0  0999 V2000
  160.9310  211.0980  151.5930 C   0  0  0  0  0  2  0  0  0  0  0  0
  162.1260  207.1580  151.4250 N   0  0  0  0  0  2  0  0  0  0  0  0
  161.1730  209.7690  150.9100 C   0  0  2  0  0  3  0  0  0  0  0  0
  162.1010  209.5230  152.0430 C   0  0  1  0  0  3  0  0  0  0  0  0
  163.1000  208.2900  148.1450 O   0  0  0  0  0  1  0  0  0  0  0  0
  160.9090  207.7320  153.7310 S   0  0  0  0  0  0  0  0  0  0  0  0
  161.5920  210.6430  152.8200 N   0  0  0  0  0  2  0  0  0  0  0  0
  162.2540  208.2550  149.2580 C   0  0  2  0  0  0  0  0  0  0  0  0
  161.9510  209.6530  149.6830 N   0  0  0  0  0  0  0  0  0  0  0  0
  162.9570  207.4900  150.3250 N   0  0  0  0  0  2  0  0  0  0  0  0
  161.8390  208.1250  152.4450 C   0  0  0  0  0  0  0  0  0  0  0  0
  163.4150  212.7300  148.2120 C   0  0  0  0  0  3  0  0  0  0  0  0
  163.2640  211.4510  148.5550 C   0  0  0  0  0  3  0  0  0  0  0  0
  160.8660  211.0200  148.0380 C   0  0  0  0  0  3  0  0  0  0  0  0
  160.6950  212.0690  147.0130 C   0  0  0  0  0  3  0  0  0  0  0  0
  162.2710  213.6750  148.0650 C   0  0  0  0  0  2  0  0  0  0  0  0
  161.3380  213.2350  146.9870 C   0  0  0  0  0  3  0  0  0  0  0  0
  161.9710  210.7560  148.7590 C   0  0  0  0  0  0  0  0  0  0  0  0
  160.9490  207.5540  148.8460 C   0  0  0  0  0  2  0  0  0  0  0  0
  161.2310  204.2660  147.4570 C   0  0  0  0  0  3  0  0  0  0  0  0
  161.0650  206.8680  147.5250 C   0  0  0  0  0  3  0  0  0  0  0  0
  161.1440  205.5690  147.4820 C   0  0  0  0  0  0  0  0  0  0  0  0
  161.1460  203.4460  148.6740 C   0  0  0  0  0  0  0  0  0  0  0  0
  160.9880  201.9400  151.0360 C   0  0  0  0  0  3  0  0  0  0  0  0
  161.0130  202.0480  148.6180 C   0  0  0  0  0  3  0  0  0  0  0  0
  160.9350  201.2990  149.7950 C   0  0  0  0  0  3  0  0  0  0  0  0
  161.2000  204.0800  149.9210 C   0  0  0  0  0  3  0  0  0  0  0  0
  161.1200  203.3300  151.0980 C   0  0  0  0  0  3  0  0  0  0  0  0
  1  7  1  0  0  0  0
  2 11  1  0  0  0  0
  3  1  1  1  0  0  0
  3  4  1  0  0  0  0
  4 11  1  1  0  0  0
  4  7  1  0  0  0  0
  8  5  1  6  0  0  0
  8  9  1  0  0  0  0
  8 10  1  0  0  0  0
  9  3  1  0  0  0  0
 10  2  1  0  0  0  0
 11  6  2  0  0  0  0
 12 13  2  0  0  0  0
 13 18  1  0  0  0  0
 14 18  2  0  0  0  0
 15 14  1  0  0  0  0
 16 12  1  0  0  0  0
 17 15  2  0  0  0  0
 17 16  1  0  0  0  0
 18  9  1  0  0  0  0
 19  8  1  0  0  0  0
 20 22  2  0  0  0  0
 20 23  1  0  0  0  0
 21 19  1  0  0  0  0
 22 21  2  0  0  0  0
 23 27  1  0  0  0  0
 24 28  1  0  0  0  0
 25 23  2  0  0  0  0
 25 26  1  0  0  0  0
 26 24  2  0  0  0  0
 27 28  2  0  0  0  0
M  END
>  <MODEL>
4

>  <REMARK>
 VINA RESULT:      -7.4      2.851      7.597
  Name = 
  4 active torsions:
  status: ('A' for Active; 'I' for Inactive)
    1  A    between atoms: C_3  and  C_15
    2  A    between atoms: C_3  and  C_22
    3  A    between atoms: C_4  and  C_12
    4  A    between atoms: N_16  and  C_28
                            x       y       z     vdW  Elec       q    Type
                         _______ _______ _______ _____ _____    ______ ____

>  <TORSDO>
F 4

$$$$
=
 OpenBabel11072411163D

 28 31  0  0  1  0  0  0  0  0999 V2000
  161.7150  203.0710  151.2610 C   0  0  0  0  0  2  0  0  0  0  0  0
  160.8160  207.0890  151.4120 N   0  0  0  0  0  2  0  0  0  0  0  0
  161.6960  204.4890  150.7330 C   0  0  2  0  0  3  0  0  0  0  0  0
  160.5750  204.6730  151.6910 C   0  0  1  0  0  3  0  0  0  0  0  0
  160.4560  206.4580  147.8810 O   0  0  0  0  0  1  0  0  0  0  0  0
  161.5080  206.1320  153.8060 S   0  0  0  0  0  0  0  0  0  0  0  0
  160.8500  203.4260  152.3890 N   0  0  0  0  0  2  0  0  0  0  0  0
  161.0620  206.2830  149.1300 C   0  0  2  0  0  0  0  0  0  0  0  0
  161.1890  204.8220  149.4090 N   0  0  0  0  0  0  0  0  0  0  0  0
  160.2050  206.9670  150.1370 N   0  0  0  0  0  2  0  0  0  0  0  0
  160.8340  205.9820  152.3240 C   0  0  0  0  0  0  0  0  0  0  0  0
  161.9560  203.7420  145.9410 C   0  0  0  0  0  3  0  0  0  0  0  0
  162.1290  204.1920  147.1840 C   0  0  0  0  0  3  0  0  0  0  0  0
  160.7310  202.6360  148.5350 C   0  0  0  0  0  3  0  0  0  0  0  0
  160.7590  201.4900  147.6050 C   0  0  0  0  0  3  0  0  0  0  0  0
  160.8130  202.8720  145.5420 C   0  0  0  0  0  2  0  0  0  0  0  0
  160.8340  201.5750  146.2780 C   0  0  0  0  0  3  0  0  0  0  0  0
  161.2890  203.8470  148.3550 C   0  0  0  0  0  0  0  0  0  0  0  0
  162.4630  206.9150  149.0760 C   0  0  0  0  0  2  0  0  0  0  0  0
  161.9560  210.4430  149.4130 C   0  0  0  0  0  3  0  0  0  0  0  0
  162.4910  208.1660  148.2610 C   0  0  0  0  0  3  0  0  0  0  0  0
  162.2280  209.3070  148.8290 C   0  0  0  0  0  0  0  0  0  0  0  0
  161.6930  210.5460  150.8560 C   0  0  0  0  0  0  0  0  0  0  0  0
  161.2490  210.7010  153.6210 C   0  0  0  0  0  3  0  0  0  0  0  0
  160.6180  211.2950  151.3620 C   0  0  0  0  0  3  0  0  0  0  0  0
  160.3970  211.3720  152.7400 C   0  0  0  0  0  3  0  0  0  0  0  0
  162.5410  209.8760  151.7460 C   0  0  0  0  0  3  0  0  0  0  0  0
  162.3200  209.9530  153.1240 C   0  0  0  0  0  3  0  0  0  0  0  0
  1  7  1  0  0  0  0
  2 11  1  0  0  0  0
  3  1  1  6  0  0  0
  3  4  1  0  0  0  0
  4 11  1  1  0  0  0
  4  7  1  0  0  0  0
  8  5  1  6  0  0  0
  8  9  1  0  0  0  0
  8 10  1  0  0  0  0
  9  3  1  0  0  0  0
 10  2  1  0  0  0  0
 11  6  2  0  0  0  0
 12 13  2  0  0  0  0
 13 18  1  0  0  0  0
 15 14  1  0  0  0  0
 16 12  1  0  0  0  0
 16 17  1  0  0  0  0
 17 15  2  0  0  0  0
 18 14  2  0  0  0  0
 18  9  1  0  0  0  0
 19  8  1  0  0  0  0
 20 23  1  0  0  0  0
 21 22  2  0  0  0  0
 21 19  1  0  0  0  0
 22 20  2  0  0  0  0
 23 25  2  0  0  0  0
 23 27  1  0  0  0  0
 25 26  1  0  0  0  0
 26 24  2  0  0  0  0
 27 28  2  0  0  0  0
 28 24  1  0  0  0  0
M  END
>  <MODEL>
5

>  <REMARK>
 VINA RESULT:      -7.1      2.153      3.915
  Name = 
  4 active torsions:
  status: ('A' for Active; 'I' for Inactive)
    1  A    between atoms: C_3  and  C_15
    2  A    between atoms: C_3  and  C_22
    3  A    between atoms: C_4  and  C_12
    4  A    between atoms: N_16  and  C_28
                            x       y       z     vdW  Elec       q    Type
                         _______ _______ _______ _____ _____    ______ ____

>  <TORSDO>
F 4

$$$$
=
 OpenBabel11072411163D

 28 31  0  0  1  0  0  0  0  0999 V2000
  158.1660  212.6430  151.8000 C   0  0  0  0  0  2  0  0  0  0  0  0
  159.5430  210.5230  155.0540 N   0  0  0  0  0  2  0  0  0  0  0  0
  158.9580  211.5510  152.4860 C   0  0  2  0  0  3  0  0  0  0  0  0
  158.8390  212.4210  153.6840 C   0  0  1  0  0  3  0  0  0  0  0  0
  162.4150  210.3510  152.8820 O   0  0  0  0  0  1  0  0  0  0  0  0
  157.0050  211.2890  155.3660 S   0  0  0  0  0  0  0  0  0  0  0  0
  157.8160  213.2620  153.0820 N   0  0  0  0  0  2  0  0  0  0  0  0
  161.0410  210.3590  153.1440 C   0  0  2  0  0  0  0  0  0  0  0  0
  160.3800  211.3470  152.2410 N   0  0  0  0  0  0  0  0  0  0  0  0
  160.8660  210.7160  154.5790 N   0  0  0  0  0  2  0  0  0  0  0  0
  158.5220  211.4950  154.7900 C   0  0  0  0  0  0  0  0  0  0  0  0
  160.7710  213.5560  149.2840 C   0  0  0  0  0  3  0  0  0  0  0  0
  160.8380  213.1150  150.5400 C   0  0  0  0  0  3  0  0  0  0  0  0
  161.5980  210.7610  150.2600 C   0  0  0  0  0  3  0  0  0  0  0  0
  162.2690  210.9250  148.9550 C   0  0  0  0  0  3  0  0  0  0  0  0
  160.6940  212.6470  148.1050 C   0  0  0  0  0  2  0  0  0  0  0  0
  161.9060  211.7830  148.0040 C   0  0  0  0  0  3  0  0  0  0  0  0
  160.9270  211.6960  150.9560 C   0  0  0  0  0  0  0  0  0  0  0  0
  160.4880  208.9550  152.8530 C   0  0  0  0  0  2  0  0  0  0  0  0
  161.4360  205.5040  152.9660 C   0  0  0  0  0  3  0  0  0  0  0  0
  161.0020  207.9320  153.8130 C   0  0  0  0  0  3  0  0  0  0  0  0
  161.2250  206.7180  153.3970 C   0  0  0  0  0  0  0  0  0  0  0  0
  161.2570  205.1240  151.5570 C   0  0  0  0  0  0  0  0  0  0  0  0
  160.9090  204.3320  148.8890 C   0  0  0  0  0  3  0  0  0  0  0  0
  161.2490  206.0800  150.5270 C   0  0  0  0  0  3  0  0  0  0  0  0
  161.0750  205.6850  149.1980 C   0  0  0  0  0  3  0  0  0  0  0  0
  161.0910  203.7710  151.2390 C   0  0  0  0  0  3  0  0  0  0  0  0
  160.9170  203.3760  149.9090 C   0  0  0  0  0  3  0  0  0  0  0  0
  1  7  1  0  0  0  0
  3  1  1  6  0  0  0
  3  4  1  0  0  0  0
  4  7  1  6  0  0  0
  4 11  1  0  0  0  0
  8  5  1  6  0  0  0
  8 10  1  0  0  0  0
  9  3  1  0  0  0  0
  9  8  1  0  0  0  0
 10  2  1  0  0  0  0
 11  2  1  0  0  0  0
 11  6  2  0  0  0  0
 12 13  2  0  0  0  0
 13 18  1  0  0  0  0
 14 18  2  0  0  0  0
 15 14  1  0  0  0  0
 16 12  1  0  0  0  0
 17 16  1  0  0  0  0
 17 15  2  0  0  0  0
 18  9  1  0  0  0  0
 19  8  1  0  0  0  0
 19 21  1  0  0  0  0
 20 22  2  0  0  0  0
 22 21  2  0  0  0  0
 23 20  1  0  0  0  0
 24 26  2  0  0  0  0
 24 28  1  0  0  0  0
 25 23  2  0  0  0  0
 26 25  1  0  0  0  0
 27 23  1  0  0  0  0
 28 27  2  0  0  0  0
M  END
>  <MODEL>
6

>  <REMARK>
 VINA RESULT:      -7.1      3.448      7.518
  Name = 
  4 active torsions:
  status: ('A' for Active; 'I' for Inactive)
    1  A    between atoms: C_3  and  C_15
    2  A    between atoms: C_3  and  C_22
    3  A    between atoms: C_4  and  C_12
    4  A    between atoms: N_16  and  C_28
                            x       y       z     vdW  Elec       q    Type
                         _______ _______ _______ _____ _____    ______ ____

>  <TORSDO>
F 4

$$$$
=
 OpenBabel11072411163D

 28 31  0  0  1  0  0  0  0  0999 V2000
  162.3190  210.6820  155.7380 C   0  0  0  0  0  2  0  0  0  0  0  0
  158.9470  213.0060  155.2860 N   0  0  0  0  0  2  0  0  0  0  0  0
  161.2370  211.3830  154.9460 C   0  0  2  0  0  3  0  0  0  0  0  0
  160.4890  211.3610  156.2300 C   0  0  1  0  0  3  0  0  0  0  0  0
  158.5090  210.6650  152.5820 O   0  0  0  0  0  1  0  0  0  0  0  0
  160.5120  213.8940  157.2590 S   0  0  0  0  0  0  0  0  0  0  0  0
  161.6630  210.9990  157.0100 N   0  0  0  0  0  2  0  0  0  0  0  0
  159.2750  211.4820  153.4190 C   0  0  2  0  0  0  0  0  0  0  0  0
  160.4180  210.6910  153.9600 N   0  0  0  0  0  0  0  0  0  0  0  0
  158.3770  211.9710  154.5020 N   0  0  0  0  0  2  0  0  0  0  0  0
  159.8810  212.7040  156.3320 C   0  0  0  0  0  0  0  0  0  0  0  0
  162.1100  209.0910  151.0690 C   0  0  0  0  0  3  0  0  0  0  0  0
  161.9110  209.8580  152.1410 C   0  0  0  0  0  3  0  0  0  0  0  0
  160.7260  208.3260  153.7050 C   0  0  0  0  0  3  0  0  0  0  0  0
  161.2340  207.0530  153.1560 C   0  0  0  0  0  3  0  0  0  0  0  0
  161.3350  207.8450  150.8040 C   0  0  0  0  0  2  0  0  0  0  0  0
  161.5460  206.8330  151.8800 C   0  0  0  0  0  3  0  0  0  0  0  0
  160.9750  209.5680  153.2520 C   0  0  0  0  0  0  0  0  0  0  0  0
  159.8170  212.6530  152.5820 C   0  0  0  0  0  2  0  0  0  0  0  0
  159.3890  213.7750  149.2090 C   0  0  0  0  0  3  0  0  0  0  0  0
  158.7760  213.2410  151.6870 C   0  0  0  0  0  3  0  0  0  0  0  0
  159.0730  213.5070  150.4470 C   0  0  0  0  0  0  0  0  0  0  0  0
  160.7070  213.4520  148.6440 C   0  0  0  0  0  0  0  0  0  0  0  0
  163.2190  212.7740  147.5970 C   0  0  0  0  0  3  0  0  0  0  0  0
  161.3990  214.3530  147.8170 C   0  0  0  0  0  3  0  0  0  0  0  0
  162.6510  214.0140  147.2960 C   0  0  0  0  0  3  0  0  0  0  0  0
  161.2840  212.2120  148.9420 C   0  0  0  0  0  3  0  0  0  0  0  0
  162.5360  211.8730  148.4200 C   0  0  0  0  0  3  0  0  0  0  0  0
  1  7  1  0  0  0  0
  2 11  1  0  0  0  0
  3  1  1  1  0  0  0
  3  4  1  0  0  0  0
  4 11  1  1  0  0  0
  4  7  1  0  0  0  0
  8  5  1  6  0  0  0
  8  9  1  0  0  0  0
  8 10  1  0  0  0  0
  9  3  1  0  0  0  0
 10  2  1  0  0  0  0
 11  6  2  0  0  0  0
 12 13  2  0  0  0  0
 13 18  1  0  0  0  0
 15 14  1  0  0  0  0
 16 12  1  0  0  0  0
 16 17  1  0  0  0  0
 17 15  2  0  0  0  0
 18 14  2  0  0  0  0
 18  9  1  0  0  0  0
 19  8  1  0  0  0  0
 20 22  2  0  0  0  0
 21 19  1  0  0  0  0
 22 21  2  0  0  0  0
 23 27  1  0  0  0  0
 23 20  1  0  0  0  0
 24 28  1  0  0  0  0
 25 23  2  0  0  0  0
 26 24  2  0  0  0  0
 26 25  1  0  0  0  0
 28 27  2  0  0  0  0
M  END
>  <MODEL>
7

>  <REMARK>
 VINA RESULT:      -7.0      4.436      7.616
  Name = 
  4 active torsions:
  status: ('A' for Active; 'I' for Inactive)
    1  A    between atoms: C_3  and  C_15
    2  A    between atoms: C_3  and  C_22
    3  A    between atoms: C_4  and  C_12
    4  A    between atoms: N_16  and  C_28
                            x       y       z     vdW  Elec       q    Type
                         _______ _______ _______ _____ _____    ______ ____

>  <TORSDO>
F 4

$$$$
=
 OpenBabel11072411163D

 28 31  0  0  1  0  0  0  0  0999 V2000
  162.4070  208.5890  149.9600 C   0  0  0  0  0  2  0  0  0  0  0  0
  160.9480  204.9650  148.6530 N   0  0  0  0  0  2  0  0  0  0  0  0
  162.0300  207.1320  150.1110 C   0  0  2  0  0  3  0  0  0  0  0  0
  161.1730  207.3830  148.9240 C   0  0  1  0  0  3  0  0  0  0  0  0
  159.8110  204.9470  152.0740 O   0  0  0  0  0  1  0  0  0  0  0  0
  162.3670  206.2070  146.7630 S   0  0  0  0  0  0  0  0  0  0  0  0
  161.8110  208.6560  148.6220 N   0  0  0  0  0  2  0  0  0  0  0  0
  160.7340  205.2330  151.0620 C   0  0  2  0  0  0  0  0  0  0  0  0
  161.1580  206.6590  151.1780 N   0  0  0  0  0  0  0  0  0  0  0  0
  160.0620  204.9580  149.7610 N   0  0  0  0  0  2  0  0  0  0  0  0
  161.3720  206.2000  148.0610 C   0  0  0  0  0  0  0  0  0  0  0  0
  161.2060  206.8450  154.8850 C   0  0  0  0  0  3  0  0  0  0  0  0
  161.6090  206.6290  153.6330 C   0  0  0  0  0  3  0  0  0  0  0  0
  160.8310  208.6720  152.4410 C   0  0  0  0  0  3  0  0  0  0  0  0
  160.8010  209.5790  153.6050 C   0  0  0  0  0  3  0  0  0  0  0  0
  160.1430  207.8290  155.2400 C   0  0  0  0  0  2  0  0  0  0  0  0
  160.5370  209.2160  154.8590 C   0  0  0  0  0  3  0  0  0  0  0  0
  161.1420  207.3620  152.4340 C   0  0  0  0  0  0  0  0  0  0  0  0
  161.9560  204.3210  151.2540 C   0  0  0  0  0  2  0  0  0  0  0  0
  160.8530  201.0090  150.4540 C   0  0  0  0  0  3  0  0  0  0  0  0
  161.6030  203.0310  151.9210 C   0  0  0  0  0  3  0  0  0  0  0  0
  161.2310  202.0160  151.1950 C   0  0  0  0  0  0  0  0  0  0  0  0
  160.8310  201.0750  148.9860 C   0  0  0  0  0  0  0  0  0  0  0  0
  160.8320  201.1450  146.1820 C   0  0  0  0  0  3  0  0  0  0  0  0
  160.0800  202.0440  148.2990 C   0  0  0  0  0  3  0  0  0  0  0  0
  160.0810  202.0790  146.9020 C   0  0  0  0  0  3  0  0  0  0  0  0
  161.5810  200.1450  148.2570 C   0  0  0  0  0  3  0  0  0  0  0  0
  161.5810  200.1790  146.8590 C   0  0  0  0  0  3  0  0  0  0  0  0
  2 10  1  0  0  0  0
  3  1  1  1  0  0  0
  3  9  1  0  0  0  0
  4 11  1  6  0  0  0
  4  3  1  0  0  0  0
  6 11  2  0  0  0  0
  7  4  1  0  0  0  0
  7  1  1  0  0  0  0
  8  9  1  0  0  0  0
  8 19  1  0  0  0  0
  8  5  1  1  0  0  0
  9 18  1  0  0  0  0
 10  8  1  0  0  0  0
 11  2  1  0  0  0  0
 12 16  1  0  0  0  0
 13 12  2  0  0  0  0
 14 15  1  0  0  0  0
 15 17  2  0  0  0  0
 17 16  1  0  0  0  0
 18 14  2  0  0  0  0
 18 13  1  0  0  0  0
 19 21  1  0  0  0  0
 20 22  2  0  0  0  0
 22 21  2  0  0  0  0
 23 20  1  0  0  0  0
 24 28  2  0  0  0  0
 24 26  1  0  0  0  0
 25 23  1  0  0  0  0
 26 25  2  0  0  0  0
 27 23  2  0  0  0  0
 28 27  1  0  0  0  0
M  END
>  <MODEL>
8

>  <REMARK>
 VINA RESULT:      -7.0      1.720      7.176
  Name = 
  4 active torsions:
  status: ('A' for Active; 'I' for Inactive)
    1  A    between atoms: C_3  and  C_15
    2  A    between atoms: C_3  and  C_22
    3  A    between atoms: C_4  and  C_12
    4  A    between atoms: N_16  and  C_28
                            x       y       z     vdW  Elec       q    Type
                         _______ _______ _______ _____ _____    ______ ____

>  <TORSDO>
F 4

$$$$
=
 OpenBabel11072411163D

 28 31  0  0  1  0  0  0  0  0999 V2000
  161.6360  202.5030  148.0790 C   0  0  0  0  0  2  0  0  0  0  0  0
  160.5900  204.6320  151.4470 N   0  0  0  0  0  2  0  0  0  0  0  0
  161.6070  203.7250  148.9700 C   0  0  2  0  0  3  0  0  0  0  0  0
  160.4120  203.0780  149.5690 C   0  0  1  0  0  3  0  0  0  0  0  0
  160.5190  207.2410  148.9610 O   0  0  0  0  0  1  0  0  0  0  0  0
  161.1310  202.0800  152.0110 S   0  0  0  0  0  0  0  0  0  0  0  0
  160.6750  201.7960  148.9320 N   0  0  0  0  0  2  0  0  0  0  0  0
  161.0350  206.0780  149.5410 C   0  0  2  0  0  0  0  0  0  0  0  0
  161.1910  205.0340  148.4860 N   0  0  0  0  0  0  0  0  0  0  0  0
  160.0820  205.6540  150.6040 N   0  0  0  0  0  2  0  0  0  0  0  0
  160.5770  203.2610  151.0260 C   0  0  0  0  0  0  0  0  0  0  0  0
  160.0810  206.1880  145.1370 C   0  0  0  0  0  3  0  0  0  0  0  0
  160.3750  206.2030  146.4370 C   0  0  0  0  0  3  0  0  0  0  0  0
  162.5680  205.0280  146.5230 C   0  0  0  0  0  3  0  0  0  0  0  0
  162.9990  205.3150  145.1410 C   0  0  0  0  0  3  0  0  0  0  0  0
  160.7140  205.2450  144.1700 C   0  0  0  0  0  2  0  0  0  0  0  0
  162.1890  205.4540  144.0930 C   0  0  0  0  0  3  0  0  0  0  0  0
  161.4030  205.3700  147.1030 C   0  0  0  0  0  0  0  0  0  0  0  0
  162.4130  206.4090  150.1370 C   0  0  0  0  0  2  0  0  0  0  0  0
  161.9370  209.3550  152.1170 C   0  0  0  0  0  3  0  0  0  0  0  0
  162.7060  207.8740  150.1130 C   0  0  0  0  0  3  0  0  0  0  0  0
  162.3280  208.6190  151.1110 C   0  0  0  0  0  0  0  0  0  0  0  0
  161.2840  208.7840  153.3040 C   0  0  0  0  0  0  0  0  0  0  0  0
  160.0240  207.7620  155.5920 C   0  0  0  0  0  3  0  0  0  0  0  0
  161.2060  207.3970  153.5120 C   0  0  0  0  0  3  0  0  0  0  0  0
  160.5780  206.8880  154.6520 C   0  0  0  0  0  3  0  0  0  0  0  0
  160.7280  209.6520  154.2510 C   0  0  0  0  0  3  0  0  0  0  0  0
  160.0990  209.1430  155.3910 C   0  0  0  0  0  3  0  0  0  0  0  0
  1  7  1  0  0  0  0
  3  1  1  6  0  0  0
  3  4  1  0  0  0  0
  4  7  1  1  0  0  0
  4 11  1  0  0  0  0
  8  5  1  6  0  0  0
  8 19  1  0  0  0  0
  8 10  1  0  0  0  0
  9  3  1  0  0  0  0
  9  8  1  0  0  0  0
 10  2  1  0  0  0  0
 11  2  1  0  0  0  0
 11  6  2  0  0  0  0
 12 13  2  0  0  0  0
 13 18  1  0  0  0  0
 14 18  2  0  0  0  0
 15 14  1  0  0  0  0
 16 12  1  0  0  0  0
 17 16  1  0  0  0  0
 17 15  2  0  0  0  0
 18  9  1  0  0  0  0
 20 23  1  0  0  0  0
 21 19  1  0  0  0  0
 21 22  2  0  0  0  0
 22 20  2  0  0  0  0
 23 25  2  0  0  0  0
 23 27  1  0  0  0  0
 25 26  1  0  0  0  0
 26 24  2  0  0  0  0
 27 28  2  0  0  0  0
 28 24  1  0  0  0  0
M  END
>  <MODEL>
9

>  <REMARK>
 VINA RESULT:      -6.2      2.549      4.359
  Name = 
  4 active torsions:
  status: ('A' for Active; 'I' for Inactive)
    1  A    between atoms: C_3  and  C_15
    2  A    between atoms: C_3  and  C_22
    3  A    between atoms: C_4  and  C_12
    4  A    between atoms: N_16  and  C_28
                            x       y       z     vdW  Elec       q    Type
                         _______ _______ _______ _____ _____    ______ ____

>  <TORSDO>
F 4

$$$$
