=
 OpenBabel11072411353D

 25 27  0  0  1  0  0  0  0  0999 V2000
  160.3870  205.4470  149.2560 C   0  0  0  0  0  3  0  0  0  0  0  0
  160.3220  206.6010  150.0480 O   0  0  0  0  0  0  0  0  0  0  0  0
  161.6170  204.3050  151.0590 C   0  0  0  0  0  2  0  0  0  0  0  0
  161.0200  204.3410  149.6750 C   0  0  0  0  0  0  0  0  0  0  0  0
  162.0130  205.6920  151.5570 C   0  0  2  0  0  3  0  0  0  0  0  0
  162.4150  205.5890  153.0170 C   0  0  0  0  0  1  0  0  0  0  0  0
  160.8240  206.6440  151.3850 C   0  0  1  0  0  3  0  0  0  0  0  0
  161.8530  208.9380  150.9110 C   0  0  0  0  0  0  0  0  0  0  0  0
  160.6220  210.3840  154.6610 N   0  0  0  0  0  1  0  0  0  0  0  0
  162.3050  208.5080  149.5560 C   0  0  0  0  0  1  0  0  0  0  0  0
  161.7520  210.6750  152.5290 C   0  0  0  0  0  3  0  0  0  0  0  0
  161.1540  208.0640  151.7730 C   0  0  0  0  0  0  0  0  0  0  0  0
  160.7780  208.5220  153.0480 C   0  0  0  0  0  0  0  0  0  0  0  0
  161.0680  209.8480  153.4180 C   0  0  0  0  0  0  0  0  0  0  0  0
  162.1310  210.2060  151.3130 N   0  0  0  0  0  0  0  0  0  0  0  0
  160.0900  207.6550  153.9090 O   0  0  0  0  0  0  0  0  0  0  0  0
  160.3990  207.4970  155.2620 C   0  0  0  0  0  0  0  0  0  0  0  0
  159.4840  207.2160  156.0780 O   0  0  0  0  0  1  0  0  0  0  0  0
  161.7110  207.6010  155.7130 O   0  0  0  0  0  0  0  0  0  0  0  0
  161.1230  202.1230  146.6040 C   0  0  0  0  0  3  0  0  0  0  0  0
  161.0780  201.8440  149.3830 C   0  0  0  0  0  3  0  0  0  0  0  0
  161.0860  203.2580  147.4210 C   0  0  0  0  0  3  0  0  0  0  0  0
  161.0640  203.1320  148.8190 C   0  0  0  0  0  0  0  0  0  0  0  0
  161.1390  200.8500  147.1780 C   0  0  0  0  0  3  0  0  0  0  0  0
  161.1170  200.7100  148.5670 C   0  0  0  0  0  3  0  0  0  0  0  0
  1  4  2  0  0  0  0
  1  2  1  0  0  0  0
  2  7  1  0  0  0  0
  3  5  1  0  0  0  0
  4  3  1  0  0  0  0
  5  6  1  1  0  0  0
  7  5  1  0  0  0  0
  7 12  1  6  0  0  0
  8 15  2  0  0  0  0
  8 12  1  0  0  0  0
 10  8  1  0  0  0  0
 11 14  2  0  0  0  0
 12 13  2  0  0  0  0
 13 14  1  0  0  0  0
 13 16  1  0  0  0  0
 14  9  1  0  0  0  0
 15 11  1  0  0  0  0
 16 17  1  0  0  0  0
 17 19  2  0  0  0  0
 17 18  1  0  0  0  0
 20 24  2  0  0  0  0
 20 22  1  0  0  0  0
 22 23  2  0  0  0  0
 23 21  1  0  0  0  0
 23  4  1  0  0  0  0
 24 25  1  0  0  0  0
 25 21  2  0  0  0  0
M  END
>  <MODEL>
1

>  <REMARK>
 VINA RESULT:      -7.6      0.000      0.000
  Name = 
  4 active torsions:
  status: ('A' for Active; 'I' for Inactive)
    1  A    between atoms: C_8  and  O_21
    2  A    between atoms: C_11  and  C_23
    3  A    between atoms: C_12  and  O_21
    4  A    between atoms: C_15  and  C_16
                            x       y       z     vdW  Elec       q    Type
                         _______ _______ _______ _____ _____    ______ ____

>  <TORSDO>
F 4

$$$$
=
 OpenBabel11072411353D

 25 27  0  0  1  0  0  0  0  0999 V2000
  160.7000  208.7210  152.6170 C   0  0  0  0  0  3  0  0  0  0  0  0
  160.3900  209.7620  153.5010 O   0  0  0  0  0  0  0  0  0  0  0  0
  160.3970  207.1030  154.4480 C   0  0  0  0  0  2  0  0  0  0  0  0
  160.7510  207.4440  153.0230 C   0  0  0  0  0  0  0  0  0  0  0  0
  160.6640  208.2600  155.4060 C   0  0  2  0  0  3  0  0  0  0  0  0
  160.0990  207.9030  156.7690 C   0  0  0  0  0  1  0  0  0  0  0  0
  160.0030  209.5280  154.8560 C   0  0  1  0  0  3  0  0  0  0  0  0
  161.5970  211.0860  156.1120 C   0  0  0  0  0  0  0  0  0  0  0  0
  158.4220  213.5960  157.2460 N   0  0  0  0  0  1  0  0  0  0  0  0
  162.7790  210.2600  155.7320 C   0  0  0  0  0  1  0  0  0  0  0  0
  160.7770  212.9970  157.2610 C   0  0  0  0  0  3  0  0  0  0  0  0
  160.2890  210.7460  155.6990 C   0  0  0  0  0  0  0  0  0  0  0  0
  159.2130  211.5520  156.1110 C   0  0  0  0  0  0  0  0  0  0  0  0
  159.4680  212.6990  156.8860 C   0  0  0  0  0  0  0  0  0  0  0  0
  161.7980  212.1910  156.8760 N   0  0  0  0  0  0  0  0  0  0  0  0
  157.9140  211.2140  155.7090 O   0  0  0  0  0  0  0  0  0  0  0  0
  157.2430  211.8320  154.6510 C   0  0  0  0  0  0  0  0  0  0  0  0
  156.0480  212.1950  154.8020 O   0  0  0  0  0  1  0  0  0  0  0  0
  157.8900  212.0920  153.4470 O   0  0  0  0  0  0  0  0  0  0  0  0
  161.3530  205.6030  149.7650 C   0  0  0  0  0  3  0  0  0  0  0  0
  161.3960  205.0690  152.5060 C   0  0  0  0  0  3  0  0  0  0  0  0
  161.0540  206.6170  150.6810 C   0  0  0  0  0  3  0  0  0  0  0  0
  161.0730  206.3630  152.0610 C   0  0  0  0  0  0  0  0  0  0  0  0
  161.6730  204.3230  150.2210 C   0  0  0  0  0  3  0  0  0  0  0  0
  161.6950  204.0550  151.5920 C   0  0  0  0  0  3  0  0  0  0  0  0
  1  4  2  0  0  0  0
  1  2  1  0  0  0  0
  2  7  1  0  0  0  0
  3  5  1  0  0  0  0
  4  3  1  0  0  0  0
  5  6  1  1  0  0  0
  7  5  1  0  0  0  0
  7 12  1  1  0  0  0
  8 15  1  0  0  0  0
 10  8  1  0  0  0  0
 12 13  1  0  0  0  0
 12  8  2  0  0  0  0
 13 14  2  0  0  0  0
 14  9  1  0  0  0  0
 14 11  1  0  0  0  0
 15 11  2  0  0  0  0
 16 13  1  0  0  0  0
 17 18  1  0  0  0  0
 17 16  1  0  0  0  0
 19 17  2  0  0  0  0
 20 24  2  0  0  0  0
 20 22  1  0  0  0  0
 22 23  2  0  0  0  0
 23 21  1  0  0  0  0
 23  4  1  0  0  0  0
 24 25  1  0  0  0  0
 25 21  2  0  0  0  0
M  END
>  <MODEL>
2

>  <REMARK>
 VINA RESULT:      -6.8      3.074      5.044
  Name = 
  4 active torsions:
  status: ('A' for Active; 'I' for Inactive)
    1  A    between atoms: C_8  and  O_21
    2  A    between atoms: C_11  and  C_23
    3  A    between atoms: C_12  and  O_21
    4  A    between atoms: C_15  and  C_16
                            x       y       z     vdW  Elec       q    Type
                         _______ _______ _______ _____ _____    ______ ____

>  <TORSDO>
F 4

$$$$
=
 OpenBabel11072411353D

 25 27  0  0  1  0  0  0  0  0999 V2000
  161.7340  205.7800  149.6720 C   0  0  0  0  0  3  0  0  0  0  0  0
  161.8360  204.7810  148.6950 O   0  0  0  0  0  0  0  0  0  0  0  0
  160.7550  204.1350  151.2210 C   0  0  0  0  0  2  0  0  0  0  0  0
  161.1960  205.5350  150.8760 C   0  0  0  0  0  0  0  0  0  0  0  0
  160.3590  203.3300  149.9870 C   0  0  2  0  0  3  0  0  0  0  0  0
  160.1220  201.8890  150.4020 C   0  0  0  0  0  1  0  0  0  0  0  0
  161.4820  203.4210  148.9480 C   0  0  1  0  0  3  0  0  0  0  0  0
  161.2270  201.3190  147.5120 C   0  0  0  0  0  0  0  0  0  0  0  0
  159.9060  203.5900  144.2310 N   0  0  0  0  0  1  0  0  0  0  0  0
  161.6650  200.4410  148.6360 C   0  0  0  0  0  1  0  0  0  0  0  0
  160.5000  201.4680  145.2550 C   0  0  0  0  0  3  0  0  0  0  0  0
  161.1370  202.7220  147.6570 C   0  0  0  0  0  0  0  0  0  0  0  0
  160.7410  203.4960  146.5520 C   0  0  0  0  0  0  0  0  0  0  0  0
  160.4040  202.8550  145.3460 C   0  0  0  0  0  0  0  0  0  0  0  0
  160.9100  200.7400  146.3250 N   0  0  0  0  0  0  0  0  0  0  0  0
  160.6570  204.8880  146.6900 O   0  0  0  0  0  0  0  0  0  0  0  0
  161.1500  205.7930  145.7460 C   0  0  0  0  0  0  0  0  0  0  0  0
  160.3610  206.5980  145.1880 O   0  0  0  0  0  0  0  0  0  0  0  0
  162.5080  205.8490  145.4490 O   0  0  0  0  0  1  0  0  0  0  0  0
  160.9150  208.9730  152.4440 C   0  0  0  0  0  3  0  0  0  0  0  0
  161.1470  206.3140  153.2670 C   0  0  0  0  0  3  0  0  0  0  0  0
  160.9940  207.9510  151.4930 C   0  0  0  0  0  3  0  0  0  0  0  0
  161.1100  206.6100  151.8930 C   0  0  0  0  0  0  0  0  0  0  0  0
  160.9520  208.6650  153.8060 C   0  0  0  0  0  3  0  0  0  0  0  0
  161.0680  207.3350  154.2170 C   0  0  0  0  0  3  0  0  0  0  0  0
  1  4  2  0  0  0  0
  2  7  1  0  0  0  0
  2  1  1  0  0  0  0
  4  3  1  0  0  0  0
  4 23  1  0  0  0  0
  5  6  1  1  0  0  0
  5  3  1  0  0  0  0
  7 12  1  6  0  0  0
  7  5  1  0  0  0  0
  8 12  1  0  0  0  0
  8 10  1  0  0  0  0
  9 14  1  0  0  0  0
 11 14  2  0  0  0  0
 11 15  1  0  0  0  0
 13 16  1  0  0  0  0
 13 12  2  0  0  0  0
 14 13  1  0  0  0  0
 15  8  2  0  0  0  0
 17 16  1  0  0  0  0
 18 17  2  0  0  0  0
 19 17  1  0  0  0  0
 20 24  1  0  0  0  0
 21 25  1  0  0  0  0
 22 23  1  0  0  0  0
 22 20  2  0  0  0  0
 23 21  2  0  0  0  0
 24 25  2  0  0  0  0
M  END
>  <MODEL>
3

>  <REMARK>
 VINA RESULT:      -6.6      4.250      7.952
  Name = 
  4 active torsions:
  status: ('A' for Active; 'I' for Inactive)
    1  A    between atoms: C_8  and  O_21
    2  A    between atoms: C_11  and  C_23
    3  A    between atoms: C_12  and  O_21
    4  A    between atoms: C_15  and  C_16
                            x       y       z     vdW  Elec       q    Type
                         _______ _______ _______ _____ _____    ______ ____

>  <TORSDO>
F 4

$$$$
=
 OpenBabel11072411353D

 25 27  0  0  1  0  0  0  0  0999 V2000
  160.3620  206.1360  149.4650 C   0  0  0  0  0  3  0  0  0  0  0  0
  160.1630  205.1370  148.5030 O   0  0  0  0  0  0  0  0  0  0  0  0
  162.3460  206.9040  148.2250 C   0  0  0  0  0  2  0  0  0  0  0  0
  161.4020  206.9790  149.3990 C   0  0  0  0  0  0  0  0  0  0  0  0
  162.4070  205.5060  147.6170 C   0  0  2  0  0  3  0  0  0  0  0  0
  163.2180  205.5690  146.3350 C   0  0  0  0  0  1  0  0  0  0  0  0
  160.9820  205.0180  147.3380 C   0  0  1  0  0  3  0  0  0  0  0  0
  160.6190  203.3090  145.4700 C   0  0  0  0  0  0  0  0  0  0  0  0
  161.5470  200.1270  148.0560 N   0  0  0  0  0  1  0  0  0  0  0  0
  160.2990  204.3820  144.4850 C   0  0  0  0  0  1  0  0  0  0  0  0
  160.8740  200.9830  145.8830 C   0  0  0  0  0  3  0  0  0  0  0  0
  160.9430  203.6050  146.8130 C   0  0  0  0  0  0  0  0  0  0  0  0
  161.2100  202.5460  147.6990 C   0  0  0  0  0  0  0  0  0  0  0  0
  161.1900  201.2230  147.2190 C   0  0  0  0  0  0  0  0  0  0  0  0
  160.5920  202.0170  145.0500 N   0  0  0  0  0  0  0  0  0  0  0  0
  161.5250  202.8360  149.0330 O   0  0  0  0  0  0  0  0  0  0  0  0
  160.7190  202.4780  150.1170 C   0  0  0  0  0  0  0  0  0  0  0  0
  159.6430  201.8600  149.9110 O   0  0  0  0  0  0  0  0  0  0  0  0
  161.1100  202.7550  151.4230 O   0  0  0  0  0  1  0  0  0  0  0  0
  161.3800  208.7730  152.7370 C   0  0  0  0  0  3  0  0  0  0  0  0
  162.1100  209.2910  150.0910 C   0  0  0  0  0  3  0  0  0  0  0  0
  161.2180  207.7850  151.7600 C   0  0  0  0  0  3  0  0  0  0  0  0
  161.5820  208.0320  150.4270 C   0  0  0  0  0  0  0  0  0  0  0  0
  161.9070  210.0190  152.3900 C   0  0  0  0  0  3  0  0  0  0  0  0
  162.2720  210.2780  151.0670 C   0  0  0  0  0  3  0  0  0  0  0  0
  2  1  1  0  0  0  0
  3  4  1  0  0  0  0
  4  1  2  0  0  0  0
  4 23  1  0  0  0  0
  5  6  1  6  0  0  0
  5  3  1  0  0  0  0
  7 12  1  1  0  0  0
  7  5  1  0  0  0  0
  7  2  1  0  0  0  0
  8 12  1  0  0  0  0
 10  8  1  0  0  0  0
 11 14  2  0  0  0  0
 12 13  2  0  0  0  0
 13 16  1  0  0  0  0
 14 13  1  0  0  0  0
 14  9  1  0  0  0  0
 15  8  2  0  0  0  0
 15 11  1  0  0  0  0
 16 17  1  0  0  0  0
 17 19  1  0  0  0  0
 18 17  2  0  0  0  0
 21 23  2  0  0  0  0
 21 25  1  0  0  0  0
 22 20  2  0  0  0  0
 23 22  1  0  0  0  0
 24 20  1  0  0  0  0
 25 24  2  0  0  0  0
M  END
>  <MODEL>
4

>  <REMARK>
 VINA RESULT:      -6.5      4.121      7.648
  Name = 
  4 active torsions:
  status: ('A' for Active; 'I' for Inactive)
    1  A    between atoms: C_8  and  O_21
    2  A    between atoms: C_11  and  C_23
    3  A    between atoms: C_12  and  O_21
    4  A    between atoms: C_15  and  C_16
                            x       y       z     vdW  Elec       q    Type
                         _______ _______ _______ _____ _____    ______ ____

>  <TORSDO>
F 4

$$$$
=
 OpenBabel11072411353D

 25 27  0  0  1  0  0  0  0  0999 V2000
  160.1200  206.0080  150.7900 C   0  0  0  0  0  3  0  0  0  0  0  0
  160.0220  205.4290  149.5180 O   0  0  0  0  0  0  0  0  0  0  0  0
  161.8820  207.5080  149.9480 C   0  0  0  0  0  2  0  0  0  0  0  0
  161.0100  206.9740  151.0560 C   0  0  0  0  0  0  0  0  0  0  0  0
  162.1240  206.4750  148.8520 C   0  0  2  0  0  3  0  0  0  0  0  0
  162.8370  207.1510  147.6950 C   0  0  0  0  0  1  0  0  0  0  0  0
  160.7780  205.8970  148.4010 C   0  0  1  0  0  3  0  0  0  0  0  0
  160.7730  205.0390  145.9910 C   0  0  0  0  0  0  0  0  0  0  0  0
  161.7390  201.1510  147.2600 N   0  0  0  0  0  1  0  0  0  0  0  0
  160.4520  206.3950  145.4590 C   0  0  0  0  0  1  0  0  0  0  0  0
  161.2080  202.7540  145.5120 C   0  0  0  0  0  3  0  0  0  0  0  0
  160.9290  204.8020  147.3750 C   0  0  0  0  0  0  0  0  0  0  0  0
  161.2070  203.4960  147.8150 C   0  0  0  0  0  0  0  0  0  0  0  0
  161.3630  202.4670  146.8670 C   0  0  0  0  0  0  0  0  0  0  0  0
  160.9130  204.0160  145.1090 N   0  0  0  0  0  0  0  0  0  0  0  0
  161.3560  203.2560  149.1880 O   0  0  0  0  0  0  0  0  0  0  0  0
  160.6770  202.2490  149.8780 C   0  0  0  0  0  0  0  0  0  0  0  0
  161.1770  201.7740  150.9300 O   0  0  0  0  0  1  0  0  0  0  0  0
  159.4350  201.7950  149.4450 O   0  0  0  0  0  0  0  0  0  0  0  0
  161.1580  207.3080  154.8290 C   0  0  0  0  0  3  0  0  0  0  0  0
  161.1410  208.9690  152.5830 C   0  0  0  0  0  3  0  0  0  0  0  0
  161.0920  206.7520  153.5470 C   0  0  0  0  0  3  0  0  0  0  0  0
  161.0840  207.5750  152.4100 C   0  0  0  0  0  0  0  0  0  0  0  0
  161.2160  208.6950  154.9860 C   0  0  0  0  0  3  0  0  0  0  0  0
  161.2080  209.5260  153.8630 C   0  0  0  0  0  3  0  0  0  0  0  0
  1  4  2  0  0  0  0
  2  1  1  0  0  0  0
  3  4  1  0  0  0  0
  4 23  1  0  0  0  0
  5  6  1  6  0  0  0
  5  3  1  0  0  0  0
  7 12  1  6  0  0  0
  7  5  1  0  0  0  0
  7  2  1  0  0  0  0
  8 12  1  0  0  0  0
 10  8  1  0  0  0  0
 11 14  2  0  0  0  0
 12 13  2  0  0  0  0
 13 16  1  0  0  0  0
 14  9  1  0  0  0  0
 14 13  1  0  0  0  0
 15 11  1  0  0  0  0
 15  8  2  0  0  0  0
 16 17  1  0  0  0  0
 17 18  1  0  0  0  0
 19 17  2  0  0  0  0
 20 24  1  0  0  0  0
 21 25  1  0  0  0  0
 22 20  2  0  0  0  0
 23 21  2  0  0  0  0
 23 22  1  0  0  0  0
 25 24  2  0  0  0  0
M  END
>  <MODEL>
5

>  <REMARK>
 VINA RESULT:      -6.3      3.819      7.359
  Name = 
  4 active torsions:
  status: ('A' for Active; 'I' for Inactive)
    1  A    between atoms: C_8  and  O_21
    2  A    between atoms: C_11  and  C_23
    3  A    between atoms: C_12  and  O_21
    4  A    between atoms: C_15  and  C_16
                            x       y       z     vdW  Elec       q    Type
                         _______ _______ _______ _____ _____    ______ ____

>  <TORSDO>
F 4

$$$$
=
 OpenBabel11072411353D

 25 27  0  0  1  0  0  0  0  0999 V2000
  160.7350  206.6980  150.9350 C   0  0  0  0  0  3  0  0  0  0  0  0
  160.9590  205.8410  149.8500 O   0  0  0  0  0  0  0  0  0  0  0  0
  161.7770  205.0410  152.4300 C   0  0  0  0  0  2  0  0  0  0  0  0
  161.0730  206.3520  152.1850 C   0  0  0  0  0  0  0  0  0  0  0  0
  161.4390  203.9940  151.3730 C   0  0  2  0  0  3  0  0  0  0  0  0
  162.3340  202.7860  151.5810 C   0  0  0  0  0  1  0  0  0  0  0  0
  161.6540  204.6000  149.9810 C   0  0  1  0  0  3  0  0  0  0  0  0
  160.4900  202.4980  149.1030 C   0  0  0  0  0  0  0  0  0  0  0  0
  161.6700  203.3610  145.1620 N   0  0  0  0  0  1  0  0  0  0  0  0
  160.0140  202.1340  150.4690 C   0  0  0  0  0  1  0  0  0  0  0  0
  160.5600  201.9430  146.7940 C   0  0  0  0  0  3  0  0  0  0  0  0
  161.2610  203.6590  148.8700 C   0  0  0  0  0  0  0  0  0  0  0  0
  161.7000  203.9340  147.5630 C   0  0  0  0  0  0  0  0  0  0  0  0
  161.3280  203.0710  146.5150 C   0  0  0  0  0  0  0  0  0  0  0  0
  160.1680  201.6810  148.0670 N   0  0  0  0  0  0  0  0  0  0  0  0
  162.4700  205.0810  147.3290 O   0  0  0  0  0  0  0  0  0  0  0  0
  161.9260  206.3450  147.0850 C   0  0  0  0  0  0  0  0  0  0  0  0
  160.9160  206.4520  146.3420 O   0  0  0  0  0  0  0  0  0  0  0  0
  162.4560  207.4820  147.6870 O   0  0  0  0  0  1  0  0  0  0  0  0
  160.6220  209.5590  154.1540 C   0  0  0  0  0  3  0  0  0  0  0  0
  160.5950  206.8040  154.6130 C   0  0  0  0  0  3  0  0  0  0  0  0
  160.8440  208.6710  153.0960 C   0  0  0  0  0  3  0  0  0  0  0  0
  160.8320  207.2840  153.3130 C   0  0  0  0  0  0  0  0  0  0  0  0
  160.3860  209.0680  155.4400 C   0  0  0  0  0  3  0  0  0  0  0  0
  160.3720  207.6900  155.6700 C   0  0  0  0  0  3  0  0  0  0  0  0
  1  4  2  0  0  0  0
  2  7  1  0  0  0  0
  2  1  1  0  0  0  0
  4  3  1  0  0  0  0
  4 23  1  0  0  0  0
  5  6  1  1  0  0  0
  5  3  1  0  0  0  0
  7 12  1  6  0  0  0
  7  5  1  0  0  0  0
  8 10  1  0  0  0  0
  9 14  1  0  0  0  0
 11 15  1  0  0  0  0
 12  8  1  0  0  0  0
 13 12  2  0  0  0  0
 14 11  2  0  0  0  0
 14 13  1  0  0  0  0
 15  8  2  0  0  0  0
 16 13  1  0  0  0  0
 17 16  1  0  0  0  0
 17 19  1  0  0  0  0
 18 17  2  0  0  0  0
 20 24  1  0  0  0  0
 21 25  1  0  0  0  0
 22 23  1  0  0  0  0
 22 20  2  0  0  0  0
 23 21  2  0  0  0  0
 24 25  2  0  0  0  0
M  END
>  <MODEL>
6

>  <REMARK>
 VINA RESULT:      -6.2      3.703      7.568
  Name = 
  4 active torsions:
  status: ('A' for Active; 'I' for Inactive)
    1  A    between atoms: C_8  and  O_21
    2  A    between atoms: C_11  and  C_23
    3  A    between atoms: C_12  and  O_21
    4  A    between atoms: C_15  and  C_16
                            x       y       z     vdW  Elec       q    Type
                         _______ _______ _______ _____ _____    ______ ____

>  <TORSDO>
F 4

$$$$
=
 OpenBabel11072411353D

 25 27  0  0  1  0  0  0  0  0999 V2000
  160.5530  206.9510  153.8990 C   0  0  0  0  0  3  0  0  0  0  0  0
  160.4810  208.1320  154.6480 O   0  0  0  0  0  0  0  0  0  0  0  0
  161.2390  208.2650  151.9320 C   0  0  0  0  0  2  0  0  0  0  0  0
  160.8750  206.9620  152.5970 C   0  0  0  0  0  0  0  0  0  0  0  0
  160.5780  209.4650  152.6050 C   0  0  2  0  0  3  0  0  0  0  0  0
  161.1490  210.7360  152.0040 C   0  0  0  0  0  1  0  0  0  0  0  0
  160.8470  209.4050  154.1130 C   0  0  1  0  0  3  0  0  0  0  0  0
  158.7590  210.7150  154.7970 C   0  0  0  0  0  0  0  0  0  0  0  0
  161.0310  213.2530  157.2610 N   0  0  0  0  0  1  0  0  0  0  0  0
  157.8810  209.8440  153.9640 C   0  0  0  0  0  1  0  0  0  0  0  0
  158.9160  212.5640  156.2810 C   0  0  0  0  0  3  0  0  0  0  0  0
  160.1550  210.5100  154.8710 C   0  0  0  0  0  0  0  0  0  0  0  0
  160.9320  211.3810  155.6560 C   0  0  0  0  0  0  0  0  0  0  0  0
  160.2970  212.4080  156.3790 C   0  0  0  0  0  0  0  0  0  0  0  0
  158.1880  211.7300  155.4970 N   0  0  0  0  0  0  0  0  0  0  0  0
  162.3170  211.1840  155.7260 O   0  0  0  0  0  0  0  0  0  0  0  0
  162.9500  210.4750  156.7510 C   0  0  0  0  0  0  0  0  0  0  0  0
  164.0130  210.9250  157.2500 O   0  0  0  0  0  0  0  0  0  0  0  0
  162.3980  209.3030  157.2580 O   0  0  0  0  0  1  0  0  0  0  0  0
  160.8640  204.5110  149.7070 C   0  0  0  0  0  3  0  0  0  0  0  0
  161.1770  204.4680  152.4820 C   0  0  0  0  0  3  0  0  0  0  0  0
  160.7960  205.7010  150.4370 C   0  0  0  0  0  3  0  0  0  0  0  0
  160.9530  205.6940  151.8320 C   0  0  0  0  0  0  0  0  0  0  0  0
  161.0890  203.3000  150.3640 C   0  0  0  0  0  3  0  0  0  0  0  0
  161.2460  203.2780  151.7520 C   0  0  0  0  0  3  0  0  0  0  0  0
  1  2  1  0  0  0  0
  3  4  1  0  0  0  0
  3  5  1  0  0  0  0
  4  1  2  0  0  0  0
  5  6  1  6  0  0  0
  5  7  1  0  0  0  0
  7  2  1  0  0  0  0
  7 12  1  1  0  0  0
  8 12  2  0  0  0  0
  8 15  1  0  0  0  0
 10  8  1  0  0  0  0
 11 14  1  0  0  0  0
 12 13  1  0  0  0  0
 13 16  1  0  0  0  0
 13 14  2  0  0  0  0
 14  9  1  0  0  0  0
 15 11  2  0  0  0  0
 16 17  1  0  0  0  0
 17 18  2  0  0  0  0
 17 19  1  0  0  0  0
 20 24  2  0  0  0  0
 20 22  1  0  0  0  0
 22 23  2  0  0  0  0
 23 21  1  0  0  0  0
 23  4  1  0  0  0  0
 24 25  1  0  0  0  0
 25 21  2  0  0  0  0
M  END
>  <MODEL>
7

>  <REMARK>
 VINA RESULT:      -6.2      2.507      4.511
  Name = 
  4 active torsions:
  status: ('A' for Active; 'I' for Inactive)
    1  A    between atoms: C_8  and  O_21
    2  A    between atoms: C_11  and  C_23
    3  A    between atoms: C_12  and  O_21
    4  A    between atoms: C_15  and  C_16
                            x       y       z     vdW  Elec       q    Type
                         _______ _______ _______ _____ _____    ______ ____

>  <TORSDO>
F 4

$$$$
=
 OpenBabel11072411353D

 25 27  0  0  1  0  0  0  0  0999 V2000
  160.6520  206.5900  149.3070 C   0  0  0  0  0  3  0  0  0  0  0  0
  160.4360  205.2620  148.9180 O   0  0  0  0  0  0  0  0  0  0  0  0
  162.5060  206.7390  147.6920 C   0  0  0  0  0  2  0  0  0  0  0  0
  161.6430  207.3240  148.7820 C   0  0  0  0  0  0  0  0  0  0  0  0
  162.5930  205.2180  147.7760 C   0  0  2  0  0  3  0  0  0  0  0  0
  163.3080  204.7030  146.5400 C   0  0  0  0  0  1  0  0  0  0  0  0
  161.1770  204.6390  147.8670 C   0  0  1  0  0  3  0  0  0  0  0  0
  161.1200  202.5290  149.3130 C   0  0  0  0  0  0  0  0  0  0  0  0
  161.2060  200.0650  145.9080 N   0  0  0  0  0  1  0  0  0  0  0  0
  161.0650  203.3330  150.5680 C   0  0  0  0  0  1  0  0  0  0  0  0
  161.1680  200.3720  148.3190 C   0  0  0  0  0  3  0  0  0  0  0  0
  161.1700  203.1410  148.0400 C   0  0  0  0  0  0  0  0  0  0  0  0
  161.2460  202.3270  146.8960 C   0  0  0  0  0  0  0  0  0  0  0  0
  161.2280  200.9270  147.0420 C   0  0  0  0  0  0  0  0  0  0  0  0
  161.1230  201.1740  149.4120 N   0  0  0  0  0  0  0  0  0  0  0  0
  161.3030  202.9300  145.6320 O   0  0  0  0  0  0  0  0  0  0  0  0
  160.1740  203.2770  144.8860 C   0  0  0  0  0  0  0  0  0  0  0  0
  160.0210  204.4680  144.5110 O   0  0  0  0  0  0  0  0  0  0  0  0
  159.2400  202.3160  144.5120 O   0  0  0  0  0  1  0  0  0  0  0  0
  162.0960  210.3760  150.9830 C   0  0  0  0  0  3  0  0  0  0  0  0
  161.9560  209.7650  148.2610 C   0  0  0  0  0  3  0  0  0  0  0  0
  161.9130  209.0520  150.5710 C   0  0  0  0  0  3  0  0  0  0  0  0
  161.8420  208.7310  149.2070 C   0  0  0  0  0  0  0  0  0  0  0  0
  162.2100  211.3930  150.0330 C   0  0  0  0  0  3  0  0  0  0  0  0
  162.1400  211.0880  148.6720 C   0  0  0  0  0  3  0  0  0  0  0  0
  2  1  1  0  0  0  0
  3  5  1  0  0  0  0
  3  4  1  0  0  0  0
  4 23  1  0  0  0  0
  4  1  2  0  0  0  0
  5  6  1  6  0  0  0
  5  7  1  0  0  0  0
  7 12  1  1  0  0  0
  7  2  1  0  0  0  0
  8 15  1  0  0  0  0
  8 10  1  0  0  0  0
  9 14  1  0  0  0  0
 11 15  2  0  0  0  0
 12  8  2  0  0  0  0
 13 14  2  0  0  0  0
 13 12  1  0  0  0  0
 14 11  1  0  0  0  0
 16 13  1  0  0  0  0
 17 16  1  0  0  0  0
 18 17  2  0  0  0  0
 19 17  1  0  0  0  0
 21 25  2  0  0  0  0
 21 23  1  0  0  0  0
 22 20  1  0  0  0  0
 23 22  2  0  0  0  0
 24 20  2  0  0  0  0
 25 24  1  0  0  0  0
M  END
>  <MODEL>
8

>  <REMARK>
 VINA RESULT:      -6.1      4.103      8.455
  Name = 
  4 active torsions:
  status: ('A' for Active; 'I' for Inactive)
    1  A    between atoms: C_8  and  O_21
    2  A    between atoms: C_11  and  C_23
    3  A    between atoms: C_12  and  O_21
    4  A    between atoms: C_15  and  C_16
                            x       y       z     vdW  Elec       q    Type
                         _______ _______ _______ _____ _____    ______ ____

>  <TORSDO>
F 4

$$$$
=
 OpenBabel11072411353D

 25 27  0  0  1  0  0  0  0  0999 V2000
  160.1450  205.3260  149.4900 C   0  0  0  0  0  3  0  0  0  0  0  0
  160.0810  206.3690  150.4230 O   0  0  0  0  0  0  0  0  0  0  0  0
  161.8910  204.2450  150.8500 C   0  0  0  0  0  2  0  0  0  0  0  0
  161.0100  204.3110  149.6270 C   0  0  0  0  0  0  0  0  0  0  0  0
  162.1740  205.6250  151.4360 C   0  0  2  0  0  3  0  0  0  0  0  0
  162.8930  205.4520  152.7620 C   0  0  0  0  0  1  0  0  0  0  0  0
  160.8480  206.3690  151.6280 C   0  0  1  0  0  3  0  0  0  0  0  0
  161.0350  208.1010  153.5020 C   0  0  0  0  0  0  0  0  0  0  0  0
  161.6500  211.1960  150.7260 N   0  0  0  0  0  1  0  0  0  0  0  0
  160.8450  207.0560  154.5500 C   0  0  0  0  0  1  0  0  0  0  0  0
  161.3880  210.3970  153.0060 C   0  0  0  0  0  3  0  0  0  0  0  0
  161.0390  207.7800  152.1260 C   0  0  0  0  0  0  0  0  0  0  0  0
  161.1980  208.8140  151.1860 C   0  0  0  0  0  0  0  0  0  0  0  0
  161.3900  210.1330  151.6380 C   0  0  0  0  0  0  0  0  0  0  0  0
  161.2060  209.3890  153.8970 N   0  0  0  0  0  0  0  0  0  0  0  0
  161.1950  208.5010  149.8200 O   0  0  0  0  0  0  0  0  0  0  0  0
  162.3310  208.5570  149.0080 C   0  0  0  0  0  0  0  0  0  0  0  0
  163.0610  207.5390  148.8930 O   0  0  0  0  0  1  0  0  0  0  0  0
  162.6420  209.7080  148.2910 O   0  0  0  0  0  0  0  0  0  0  0  0
  160.9760  200.8390  148.1100 C   0  0  0  0  0  3  0  0  0  0  0  0
  161.2000  203.4890  147.2580 C   0  0  0  0  0  3  0  0  0  0  0  0
  160.9370  201.8790  149.0430 C   0  0  0  0  0  3  0  0  0  0  0  0
  161.0480  203.2160  148.6290 C   0  0  0  0  0  0  0  0  0  0  0  0
  161.1260  201.1240  146.7510 C   0  0  0  0  0  3  0  0  0  0  0  0
  161.2380  202.4500  146.3240 C   0  0  0  0  0  3  0  0  0  0  0  0
  1  4  2  0  0  0  0
  1  2  1  0  0  0  0
  2  7  1  0  0  0  0
  3  5  1  0  0  0  0
  4  3  1  0  0  0  0
  5  7  1  0  0  0  0
  5  6  1  1  0  0  0
  7 12  1  6  0  0  0
  8 15  1  0  0  0  0
  8 10  1  0  0  0  0
  9 14  1  0  0  0  0
 11 15  2  0  0  0  0
 12  8  2  0  0  0  0
 13 14  2  0  0  0  0
 13 12  1  0  0  0  0
 14 11  1  0  0  0  0
 16 13  1  0  0  0  0
 17 16  1  0  0  0  0
 18 17  1  0  0  0  0
 19 17  2  0  0  0  0
 20 22  1  0  0  0  0
 21 23  1  0  0  0  0
 23 22  2  0  0  0  0
 23  4  1  0  0  0  0
 24 20  2  0  0  0  0
 25 24  1  0  0  0  0
 25 21  2  0  0  0  0
M  END
>  <MODEL>
9

>  <REMARK>
 VINA RESULT:      -6.1      1.875      3.365
  Name = 
  4 active torsions:
  status: ('A' for Active; 'I' for Inactive)
    1  A    between atoms: C_8  and  O_21
    2  A    between atoms: C_11  and  C_23
    3  A    between atoms: C_12  and  O_21
    4  A    between atoms: C_15  and  C_16
                            x       y       z     vdW  Elec       q    Type
                         _______ _______ _______ _____ _____    ______ ____

>  <TORSDO>
F 4

$$$$
