=
 OpenBabel11072410373D

 54 58  0  0  1  0  0  0  0  0999 V2000
  158.5480  212.8640  145.3340 C   0  0  2  0  0  3  0  0  0  0  0  0
  158.6900  213.2100  143.8560 C   0  0  0  0  0  2  0  0  0  0  0  0
  157.0430  213.5950  147.1990 C   0  0  0  0  0  2  0  0  0  0  0  0
  161.4070  212.8690  143.1820 N   0  0  0  0  0  1  0  0  0  0  0  0
  159.8770  213.3510  148.2220 C   0  0  2  0  0  3  0  0  0  0  0  0
  159.1560  212.0950  143.1210 O   0  0  0  0  0  0  0  0  0  0  0  0
  159.8610  212.0880  147.3660 C   0  0  2  0  0  3  0  0  0  0  0  0
  164.5400  213.3890  148.1700 C   0  0  0  0  0  2  0  0  0  0  0  0
  163.5370  214.4280  148.6780 C   0  0  0  0  0  2  0  0  0  0  0  0
  161.6290  211.9270  149.0410 C   0  0  2  0  0  3  0  0  0  0  0  0
  162.1600  214.2510  148.0560 C   0  0  0  0  0  2  0  0  0  0  0  0
  163.9750  211.9750  148.0630 C   0  0  0  0  0  2  0  0  0  0  0  0
  161.2260  213.3990  148.9330 C   0  0  1  0  0  0  0  0  0  0  0  0
  157.9280  214.0600  146.0470 C   0  0  0  0  0  2  0  0  0  0  0  0
  163.1140  211.6120  149.2720 C   0  0  0  0  0  2  0  0  0  0  0  0
  161.0210  211.2070  147.8510 C   0  0  1  0  0  3  0  0  0  0  0  0
  160.4800  211.7900  143.5210 C   0  0  2  0  0  3  0  0  0  0  0  0
  158.6600  213.3450  149.1380 C   0  0  0  0  0  2  0  0  0  0  0  0
  159.9400  212.5030  145.8850 C   0  0  1  0  0  3  0  0  0  0  0  0
  161.1150  213.9720  150.2060 O   0  0  0  0  0  1  0  0  0  0  0  0
  160.5650  211.4220  145.0020 C   0  0  0  0  0  2  0  0  0  0  0  0
  157.5280  214.1650  148.5310 C   0  0  2  0  0  3  0  0  0  0  0  0
  155.2080  214.2020  149.1080 O   0  0  0  0  0  0  0  0  0  0  0  0
  156.6900  214.3910  150.8980 N   0  0  0  0  0  2  0  0  0  0  0  0
  156.4010  214.2570  149.5060 C   0  0  0  0  0  0  0  0  0  0  0  0
  155.6950  214.4440  151.8180 O   0  0  0  0  0  0  0  0  0  0  0  0
  156.2740  213.9870  153.0070 C   0  0  0  0  0  2  0  0  0  0  0  0
  157.7430  213.6820  152.7820 C   0  0  0  0  0  2  0  0  0  0  0  0
  158.0450  212.3280  153.2150 N   0  0  0  0  0  2  0  0  0  0  0  0
  159.3820  212.3640  153.7810 C   0  0  0  0  0  1  0  0  0  0  0  0
  160.4850  209.8600  148.3170 C   0  0  0  0  0  2  0  0  0  0  0  0
  162.0770  207.5040  151.7040 C   0  0  0  0  0  0  0  0  0  0  0  0
  162.8260  206.8500  152.4140 O   0  0  0  0  0  0  0  0  0  0  0  0
  160.5260  210.7940  150.9570 O   0  0  0  0  0  1  0  0  0  0  0  0
  161.3270  209.6980  150.6380 C   0  0  0  0  0  0  0  0  0  0  0  0
  161.7490  206.7970  149.3690 O   0  0  0  0  0  0  0  0  0  0  0  0
  162.1450  209.0210  151.7320 C   0  0  1  0  0  3  0  0  0  0  0  0
  162.2680  208.0780  149.0200 C   0  0  2  0  0  3  0  0  0  0  0  0
  161.3760  209.2600  149.3620 C   0  0  0  0  0  0  0  0  0  0  0  0
  161.1900  206.8120  150.6810 C   0  0  1  0  0  3  0  0  0  0  0  0
  160.6410  209.2590  155.3160 C   0  0  0  0  0  0  0  0  0  0  0  0
  160.9350  208.8730  153.9630 N   0  0  0  0  0  2  0  0  0  0  0  0
  161.2220  210.2410  155.8540 O   0  0  0  0  0  0  0  0  0  0  0  0
  161.8560  209.5540  153.1010 C   0  0  0  0  0  0  0  0  0  0  0  0
  162.4430  210.6030  153.4830 O   0  0  0  0  0  0  0  0  0  0  0  0
  160.3070  207.4410  156.9390 C   0  0  0  0  0  1  0  0  0  0  0  0
  159.6240  208.4980  156.0890 C   0  0  0  0  0  2  0  0  0  0  0  0
  163.7260  208.8500  147.3180 O   0  0  0  0  0  0  0  0  0  0  0  0
  162.8180  208.0930  147.6220 C   0  0  0  0  0  0  0  0  0  0  0  0
  162.2550  207.1670  146.5960 C   0  0  0  0  0  1  0  0  0  0  0  0
  160.7620  205.4040  151.0970 C   0  0  1  0  0  3  0  0  0  0  0  0
  161.7130  204.4680  150.6700 O   0  0  0  0  0  1  0  0  0  0  0  0
  160.6300  205.3260  152.6110 C   0  0  0  0  0  2  0  0  0  0  0  0
  160.5840  203.8690  153.0500 C   0  0  0  0  0  1  0  0  0  0  0  0
  1  2  1  6  0  0  0
  1 19  1  0  0  0  0
  1 14  1  0  0  0  0
  3 22  1  0  0  0  0
  4 17  1  0  0  0  0
  5 13  1  0  0  0  0
  5 18  1  1  0  0  0
  6 17  1  0  0  0  0
  6  2  1  0  0  0  0
  7 16  1  0  0  0  0
  7  5  1  0  0  0  0
  8  9  1  0  0  0  0
 10 15  1  0  0  0  0
 11  9  1  0  0  0  0
 11 13  1  0  0  0  0
 12  8  1  0  0  0  0
 12 15  1  0  0  0  0
 13 10  1  0  0  0  0
 13 20  1  0  0  0  0
 14  3  1  0  0  0  0
 16 31  1  0  0  0  0
 16 10  1  0  0  0  0
 17 21  1  0  0  0  0
 19  7  1  0  0  0  0
 21 19  1  0  0  0  0
 22 18  1  0  0  0  0
 22 25  1  0  0  0  0
 23 25  2  0  0  0  0
 24 26  1  0  0  0  0
 25 24  1  0  0  0  0
 26 27  1  0  0  0  0
 28 27  1  0  0  0  0
 28 29  1  0  0  0  0
 29 30  1  0  0  0  0
 31 39  1  0  0  0  0
 32 37  1  0  0  0  0
 32 33  2  0  0  0  0
 35 34  1  0  0  0  0
 35 37  1  0  0  0  0
 36 40  1  0  0  0  0
 37 44  1  0  0  0  0
 38 39  1  0  0  0  0
 38 36  1  0  0  0  0
 39 35  2  0  0  0  0
 40 51  1  0  0  0  0
 40 32  1  0  0  0  0
 41 43  2  0  0  0  0
 41 47  1  0  0  0  0
 42 41  1  0  0  0  0
 44 45  2  0  0  0  0
 44 42  1  0  0  0  0
 47 46  1  0  0  0  0
 48 49  2  0  0  0  0
 49 38  1  0  0  0  0
 50 49  1  0  0  0  0
 51 53  1  0  0  0  0
 52 51  1  0  0  0  0
 53 54  1  0  0  0  0
M  END
>  <MODEL>
1

>  <REMARK>
 VINA RESULT:       5.3      0.000      0.000
  Name = 
  12 active torsions:
  status: ('A' for Active; 'I' for Inactive)
    1  A    between atoms: C_3  and  O_31
    2  A    between atoms: C_3  and  C_52
    3  A    between atoms: C_11  and  C_28
    4  A    between atoms: C_11  and  C_34
    5  A    between atoms: N_12  and  C_52
    6  A    between atoms: C_18  and  C_33
    7  A    between atoms: C_23  and  C_40
    8  A    between atoms: C_23  and  C_41
    9  A    between atoms: C_29  and  C_50
   10  A    between atoms: O_31  and  N_38
   11  A    between atoms: C_42  and  C_49
   12  A    between atoms: C_46  and  C_53
                            x       y       z     vdW  Elec       q    Type
                         _______ _______ _______ _____ _____    ______ ____

>  <TORSDO>
F 12

$$$$
=
 OpenBabel11072410373D

 54 58  0  0  1  0  0  0  0  0999 V2000
  160.2780  206.3190  153.6920 C   0  0  2  0  0  3  0  0  0  0  0  0
  160.1580  205.2160  154.7380 C   0  0  0  0  0  2  0  0  0  0  0  0
  161.3120  206.5170  151.4190 C   0  0  0  0  0  2  0  0  0  0  0  0
  160.0580  206.4710  157.2610 N   0  0  0  0  0  1  0  0  0  0  0  0
  161.8550  209.0350  152.9980 C   0  0  2  0  0  3  0  0  0  0  0  0
  158.9580  205.3480  155.4730 O   0  0  0  0  0  0  0  0  0  0  0  0
  160.4000  208.8420  153.4180 C   0  0  2  0  0  3  0  0  0  0  0  0
  162.6110  211.7750  156.6960 C   0  0  0  0  0  2  0  0  0  0  0  0
  163.5840  211.1840  155.6730 C   0  0  0  0  0  2  0  0  0  0  0  0
  161.0570  211.1680  153.7660 C   0  0  2  0  0  3  0  0  0  0  0  0
  163.0050  209.9710  154.9610 C   0  0  0  0  0  2  0  0  0  0  0  0
  161.1650  211.8470  156.2140 C   0  0  0  0  0  2  0  0  0  0  0  0
  162.3370  210.3410  153.6250 C   0  0  1  0  0  0  0  0  0  0  0  0
  161.5240  206.0530  152.8560 C   0  0  0  0  0  2  0  0  0  0  0  0
  161.0700  212.3310  154.7680 C   0  0  0  0  0  2  0  0  0  0  0  0
  159.9120  210.1910  153.9660 C   0  0  1  0  0  3  0  0  0  0  0  0
  159.0080  206.5340  156.2440 C   0  0  2  0  0  3  0  0  0  0  0  0
  161.9450  208.9730  151.4790 C   0  0  0  0  0  2  0  0  0  0  0  0
  160.3350  207.6750  154.4210 C   0  0  1  0  0  3  0  0  0  0  0  0
  163.2560  210.9980  152.7980 O   0  0  0  0  0  1  0  0  0  0  0  0
  159.1430  207.7830  155.3740 C   0  0  0  0  0  2  0  0  0  0  0  0
  162.3420  207.5740  151.0230 C   0  0  2  0  0  3  0  0  0  0  0  0
  163.4080  208.3390  149.0250 O   0  0  0  0  0  0  0  0  0  0  0  0
  161.7950  206.6820  148.7300 N   0  0  0  0  0  2  0  0  0  0  0  0
  162.5560  207.5730  149.5460 C   0  0  0  0  0  0  0  0  0  0  0  0
  161.9840  206.6270  147.3880 O   0  0  0  0  0  0  0  0  0  0  0  0
  161.2670  205.5020  146.9660 C   0  0  0  0  0  2  0  0  0  0  0  0
  162.0960  204.2500  147.1840 C   0  0  0  0  0  2  0  0  0  0  0  0
  161.2510  203.0700  147.1020 N   0  0  0  0  0  2  0  0  0  0  0  0
  161.0980  202.7700  145.6890 C   0  0  0  0  0  1  0  0  0  0  0  0
  158.7140  210.6720  153.1590 C   0  0  0  0  0  2  0  0  0  0  0  0
  159.1240  213.4340  149.7300 C   0  0  0  0  0  0  0  0  0  0  0  0
  159.2410  214.4530  149.0660 O   0  0  0  0  0  0  0  0  0  0  0  0
  160.7550  210.4670  151.2530 O   0  0  0  0  0  1  0  0  0  0  0  0
  160.0420  211.6630  151.3220 C   0  0  0  0  0  0  0  0  0  0  0  0
  157.3010  213.3030  151.3790 O   0  0  0  0  0  0  0  0  0  0  0  0
  160.3550  212.7820  150.3350 C   0  0  1  0  0  3  0  0  0  0  0  0
  158.3330  213.1300  152.3470 C   0  0  2  0  0  3  0  0  0  0  0  0
  159.0910  211.8160  152.2670 C   0  0  0  0  0  0  0  0  0  0  0  0
  157.7440  212.9030  150.0830 C   0  0  1  0  0  3  0  0  0  0  0  0
  162.3660  212.8590  147.0020 C   0  0  0  0  0  0  0  0  0  0  0  0
  161.4160  213.1160  148.0490 N   0  0  0  0  0  2  0  0  0  0  0  0
  163.2360  211.9530  147.1190 O   0  0  0  0  0  0  0  0  0  0  0  0
  161.3350  212.3800  149.2760 C   0  0  0  0  0  0  0  0  0  0  0  0
  162.0890  211.3920  149.4890 O   0  0  0  0  0  0  0  0  0  0  0  0
  161.4640  212.9480  144.7150 C   0  0  0  0  0  1  0  0  0  0  0  0
  162.3120  213.6630  145.7520 C   0  0  0  0  0  2  0  0  0  0  0  0
  158.5910  214.1380  154.4770 O   0  0  0  0  0  0  0  0  0  0  0  0
  157.8680  213.5020  153.7260 C   0  0  0  0  0  0  0  0  0  0  0  0
  156.5050  213.0990  154.1810 C   0  0  0  0  0  1  0  0  0  0  0  0
  156.6790  213.2200  149.0320 C   0  0  1  0  0  3  0  0  0  0  0  0
  155.7070  214.0700  149.5750 O   0  0  0  0  0  1  0  0  0  0  0  0
  157.3210  213.8980  147.8300 C   0  0  0  0  0  2  0  0  0  0  0  0
  156.9970  213.1160  146.5640 C   0  0  0  0  0  1  0  0  0  0  0  0
  1 14  1  1  0  0  0
  1 19  1  0  0  0  0
  1  2  1  0  0  0  0
  2  6  1  0  0  0  0
  3 14  1  0  0  0  0
  5 18  1  6  0  0  0
  5  7  1  0  0  0  0
  5 13  1  0  0  0  0
  6 17  1  0  0  0  0
  7 16  1  0  0  0  0
  7 19  1  0  0  0  0
  9  8  1  0  0  0  0
 10 16  1  0  0  0  0
 10 15  1  0  0  0  0
 11  9  1  0  0  0  0
 12  8  1  0  0  0  0
 13 10  1  0  0  0  0
 13 11  1  0  0  0  0
 15 12  1  0  0  0  0
 17  4  1  0  0  0  0
 19 21  1  0  0  0  0
 20 13  1  0  0  0  0
 21 17  1  0  0  0  0
 22  3  1  0  0  0  0
 22 18  1  0  0  0  0
 23 25  2  0  0  0  0
 24 25  1  0  0  0  0
 25 22  1  0  0  0  0
 26 24  1  0  0  0  0
 27 28  1  0  0  0  0
 27 26  1  0  0  0  0
 29 28  1  0  0  0  0
 30 29  1  0  0  0  0
 31 16  1  0  0  0  0
 32 40  1  0  0  0  0
 32 37  1  0  0  0  0
 33 32  2  0  0  0  0
 34 35  1  0  0  0  0
 35 39  2  0  0  0  0
 36 38  1  0  0  0  0
 37 35  1  0  0  0  0
 38 49  1  0  0  0  0
 39 38  1  0  0  0  0
 39 31  1  0  0  0  0
 40 36  1  0  0  0  0
 41 43  2  0  0  0  0
 41 42  1  0  0  0  0
 42 44  1  0  0  0  0
 44 45  2  0  0  0  0
 44 37  1  0  0  0  0
 46 47  1  0  0  0  0
 47 41  1  0  0  0  0
 49 50  1  0  0  0  0
 49 48  2  0  0  0  0
 51 52  1  0  0  0  0
 51 40  1  0  0  0  0
 53 51  1  0  0  0  0
 54 53  1  0  0  0  0
M  END
>  <MODEL>
2

>  <REMARK>
 VINA RESULT:       7.2      2.623      9.316
  Name = 
  12 active torsions:
  status: ('A' for Active; 'I' for Inactive)
    1  A    between atoms: C_3  and  O_31
    2  A    between atoms: C_3  and  C_52
    3  A    between atoms: C_11  and  C_28
    4  A    between atoms: C_11  and  C_34
    5  A    between atoms: N_12  and  C_52
    6  A    between atoms: C_18  and  C_33
    7  A    between atoms: C_23  and  C_40
    8  A    between atoms: C_23  and  C_41
    9  A    between atoms: C_29  and  C_50
   10  A    between atoms: O_31  and  N_38
   11  A    between atoms: C_42  and  C_49
   12  A    between atoms: C_46  and  C_53
                            x       y       z     vdW  Elec       q    Type
                         _______ _______ _______ _____ _____    ______ ____

>  <TORSDO>
F 12

$$$$
