=
 OpenBabel11072414543D

 47 49  0  0  1  0  0  0  0  0999 V2000
  160.7920  207.2740  149.0010 O   0  0  0  0  0  0  0  0  0  0  0  0
  161.6300  207.7110  148.1660 C   0  0  0  0  0  0  0  0  0  0  0  0
  161.7190  207.1410  146.8580 N   0  0  0  0  0  2  0  0  0  0  0  0
  160.8330  206.0750  146.4270 C   0  0  0  0  0  2  0  0  0  0  0  0
  161.6150  205.0280  145.6500 C   0  0  2  0  0  3  0  0  0  0  0  0
  161.0600  204.8800  144.3790 O   0  0  0  0  0  1  0  0  0  0  0  0
  161.5570  203.6990  146.3780 C   0  0  0  0  0  2  0  0  0  0  0  0
  161.8450  203.8980  147.8560 C   0  0  0  0  0  2  0  0  0  0  0  0
  160.7330  203.3020  148.7010 C   0  0  1  0  0  3  0  0  0  0  0  0
  160.2910  201.9410  148.1330 C   0  0  0  0  0  2  0  0  0  0  0  0
  161.6260  201.8580  150.6140 C   0  0  0  0  0  2  0  0  0  0  0  0
  161.1900  203.2560  150.1680 C   0  0  2  0  0  3  0  0  0  0  0  0
  160.9920  200.7430  148.7950 C   0  0  0  0  0  2  0  0  0  0  0  0
  162.1250  201.1390  149.5200 O   0  0  0  0  0  0  0  0  0  0  0  0
  160.4860  203.6070  152.4290 O   0  0  0  0  0  0  0  0  0  0  0  0
  160.0950  203.7840  151.0880 C   0  0  1  0  0  3  0  0  0  0  0  0
  160.5090  204.9310  151.9520 C   0  0  2  0  0  3  0  0  0  0  0  0
  161.8340  205.3270  151.7350 O   0  0  0  0  0  0  0  0  0  0  0  0
  162.0190  206.4420  152.5530 C   0  0  1  0  0  3  0  0  0  0  0  0
  161.0940  207.5600  152.0910 C   0  0  0  0  0  2  0  0  0  0  0  0
  160.7010  210.2330  152.5680 S   0  0  0  0  0  1  0  0  0  0  0  0
  161.8190  208.8970  152.0600 C   0  0  0  0  0  2  0  0  0  0  0  0
  161.7050  206.0790  153.9970 C   0  0  0  0  0  2  0  0  0  0  0  0
  160.6580  207.0180  154.5640 C   0  0  0  0  0  2  0  0  0  0  0  0
  161.2180  207.7170  155.7840 C   0  0  0  0  0  1  0  0  0  0  0  0
  162.5300  208.8340  148.5420 C   0  0  0  0  0  2  0  0  0  0  0  0
  163.1070  211.5770  147.9850 O   0  0  0  0  0  0  0  0  0  0  0  0
  161.7280  209.9680  148.9730 N   0  0  0  0  0  2  0  0  0  0  0  0
  162.0600  211.3160  148.6370 C   0  0  0  0  0  0  0  0  0  0  0  0
  161.1240  212.4140  149.0100 C   0  0  0  0  0  2  0  0  0  0  0  0
  160.9860  213.3500  147.9050 N   0  0  0  0  0  2  0  0  0  0  0  0
  159.8220  212.9470  147.1280 C   0  0  0  0  0  2  0  0  0  0  0  0
  160.0200  213.3180  145.6720 C   0  0  2  0  0  3  0  0  0  0  0  0
  163.2200  213.6310  143.5940 C   0  0  0  0  0  1  0  0  0  0  0  0
  161.7350  213.6960  143.8850 C   0  0  1  0  0  3  0  0  0  0  0  0
  159.4840  212.7230  143.3110 C   0  0  0  0  0  2  0  0  0  0  0  0
  159.2950  212.3230  144.7700 C   0  0  0  0  0  2  0  0  0  0  0  0
  160.9710  212.7500  142.9500 C   0  0  1  0  0  3  0  0  0  0  0  0
  161.5070  213.3150  145.3460 C   0  0  0  0  0  2  0  0  0  0  0  0
  161.1110  213.1700  141.6210 O   0  0  0  0  0  0  0  0  0  0  0  0
  161.2180  211.9940  140.8700 C   0  0  1  0  0  3  0  0  0  0  0  0
  160.1270  212.8870  138.9290 O   0  0  0  0  0  0  0  0  0  0  0  0
  160.1770  211.9710  139.7940 C   0  0  0  0  0  0  0  0  0  0  0  0
  159.2150  210.9240  139.7700 N   0  0  0  0  0  1  0  0  0  0  0  0
  162.5910  211.8760  140.2910 C   0  0  0  0  0  0  0  0  0  0  0  0
  163.1060  210.6310  139.9540 O   0  0  0  0  0  0  0  0  0  0  0  0
  163.2980  212.9070  140.1420 O   0  0  0  0  0  1  0  0  0  0  0  0
  2 26  1  0  0  0  0
  2  1  2  0  0  0  0
  3  2  1  0  0  0  0
  4  3  1  0  0  0  0
  5  6  1  6  0  0  0
  5  7  1  0  0  0  0
  5  4  1  0  0  0  0
  7  8  1  0  0  0  0
  9  8  1  6  0  0  0
  9 12  1  0  0  0  0
 10  9  1  0  0  0  0
 10 13  1  0  0  0  0
 12 11  1  1  0  0  0
 12 16  1  0  0  0  0
 13 14  1  0  0  0  0
 14 11  1  0  0  0  0
 16 17  1  0  0  0  0
 16 15  1  1  0  0  0
 17 18  1  6  0  0  0
 17 15  1  0  0  0  0
 18 19  1  0  0  0  0
 19 20  1  6  0  0  0
 19 23  1  0  0  0  0
 22 20  1  0  0  0  0
 22 21  1  0  0  0  0
 23 24  1  0  0  0  0
 24 25  1  0  0  0  0
 26 28  1  0  0  0  0
 27 29  2  0  0  0  0
 29 28  1  0  0  0  0
 29 30  1  0  0  0  0
 31 30  1  0  0  0  0
 32 31  1  0  0  0  0
 33 32  1  1  0  0  0
 35 34  1  6  0  0  0
 35 39  1  0  0  0  0
 36 37  1  0  0  0  0
 37 33  1  0  0  0  0
 38 40  1  6  0  0  0
 38 36  1  0  0  0  0
 38 35  1  0  0  0  0
 39 33  1  0  0  0  0
 41 43  1  6  0  0  0
 41 40  1  0  0  0  0
 42 43  2  0  0  0  0
 44 43  1  0  0  0  0
 45 41  1  0  0  0  0
 46 45  2  0  0  0  0
 47 45  1  0  0  0  0
M  END
>  <MODEL>
1

>  <REMARK>
 VINA RESULT:      -6.0      0.000      0.000
  Name = 
  22 active torsions:
  status: ('A' for Active; 'I' for Inactive)
    1  A    between atoms: C_1  and  C_10
    2  A    between atoms: C_3  and  C_41
    3  A    between atoms: C_4  and  C_5
    4  A    between atoms: C_4  and  C_36
    5  A    between atoms: C_5  and  N_35
    6  A    between atoms: C_8  and  C_9
    7  A    between atoms: C_8  and  C_30
    8  A    between atoms: C_10  and  N_32
    9  A    between atoms: C_11  and  N_13
   10  A    between atoms: C_11  and  C_18
   11  A    between atoms: C_12  and  C_20
   12  A    between atoms: O_19  and  C_20
   13  A    between atoms: O_19  and  C_46
   14  A    between atoms: C_20  and  C_44
   15  A    between atoms: C_21  and  C_27
   16  A    between atoms: C_22  and  C_24
   17  A    between atoms: C_24  and  N_32
   18  A    between atoms: O_29  and  C_30
   19  A    between atoms: O_29  and  C_34
   20  A    between atoms: C_30  and  C_42
   21  A    between atoms: C_36  and  C_41
   22  A    between atoms: C_39  and  C_42
                            x       y       z     vdW  Elec       q    Type
                         _______ _______ _______ _____ _____    ______ ____

>  <TORSDO>
F 22

$$$$
=
 OpenBabel11072414543D

 47 49  0  0  1  0  0  0  0  0999 V2000
  163.2140  207.4550  148.3550 O   0  0  0  0  0  0  0  0  0  0  0  0
  162.2030  208.2050  148.4330 C   0  0  0  0  0  0  0  0  0  0  0  0
  160.8890  207.6830  148.2250 N   0  0  0  0  0  2  0  0  0  0  0  0
  160.6610  206.2750  147.9550 C   0  0  0  0  0  2  0  0  0  0  0  0
  161.0960  205.9380  146.5380 C   0  0  2  0  0  3  0  0  0  0  0  0
  160.0190  206.1060  145.6670 O   0  0  0  0  0  1  0  0  0  0  0  0
  161.5680  204.4970  146.4750 C   0  0  0  0  0  2  0  0  0  0  0  0
  161.9810  204.0220  147.8570 C   0  0  0  0  0  2  0  0  0  0  0  0
  160.8130  203.3540  148.5620 C   0  0  1  0  0  3  0  0  0  0  0  0
  160.2410  202.2130  147.7010 C   0  0  0  0  0  2  0  0  0  0  0  0
  161.5540  201.4230  150.0670 C   0  0  0  0  0  2  0  0  0  0  0  0
  161.2600  202.9220  149.9680 C   0  0  2  0  0  3  0  0  0  0  0  0
  160.8190  200.8320  148.0510 C   0  0  0  0  0  2  0  0  0  0  0  0
  161.9840  200.9350  148.8250 O   0  0  0  0  0  0  0  0  0  0  0  0
  160.7360  203.0960  152.2980 O   0  0  0  0  0  0  0  0  0  0  0  0
  160.2190  203.3230  151.0080 C   0  0  1  0  0  3  0  0  0  0  0  0
  160.6350  204.4430  151.9040 C   0  0  2  0  0  3  0  0  0  0  0  0
  161.9100  204.9390  151.6010 O   0  0  0  0  0  0  0  0  0  0  0  0
  162.1150  205.9870  152.5000 C   0  0  1  0  0  3  0  0  0  0  0  0
  162.1720  207.3010  151.7310 C   0  0  0  0  0  2  0  0  0  0  0  0
  161.1220  209.7690  152.3040 S   0  0  0  0  0  1  0  0  0  0  0  0
  160.8470  208.0440  151.8150 C   0  0  0  0  0  2  0  0  0  0  0  0
  160.9780  206.0310  153.5090 C   0  0  0  0  0  2  0  0  0  0  0  0
  161.3970  206.7980  154.7480 C   0  0  0  0  0  2  0  0  0  0  0  0
  160.1680  207.3650  155.4260 C   0  0  0  0  0  1  0  0  0  0  0  0
  162.3790  209.6480  148.7530 C   0  0  0  0  0  2  0  0  0  0  0  0
  162.3390  212.4970  148.5350 O   0  0  0  0  0  0  0  0  0  0  0  0
  161.3810  210.4240  148.0330 N   0  0  0  0  0  2  0  0  0  0  0  0
  161.4360  211.8480  147.9410 C   0  0  0  0  0  0  0  0  0  0  0  0
  160.4490  212.5640  147.0840 C   0  0  0  0  0  2  0  0  0  0  0  0
  161.1210  213.5800  146.2890 N   0  0  0  0  0  2  0  0  0  0  0  0
  160.3530  213.7650  145.0670 C   0  0  0  0  0  2  0  0  0  0  0  0
  160.8860  212.8540  143.9790 C   0  0  2  0  0  3  0  0  0  0  0  0
  159.2940  211.7030  140.6930 C   0  0  0  0  0  1  0  0  0  0  0  0
  160.3460  211.7820  141.7790 C   0  0  1  0  0  3  0  0  0  0  0  0
  162.7030  212.4930  142.3110 C   0  0  0  0  0  2  0  0  0  0  0  0
  162.1670  213.4320  143.3860 C   0  0  0  0  0  2  0  0  0  0  0  0
  161.6670  212.3020  141.2010 C   0  0  1  0  0  3  0  0  0  0  0  0
  159.8380  212.7040  142.8850 C   0  0  0  0  0  2  0  0  0  0  0  0
  162.1700  211.3960  140.2570 O   0  0  0  0  0  0  0  0  0  0  0  0
  162.2740  212.1230  139.0650 C   0  0  1  0  0  3  0  0  0  0  0  0
  164.6380  211.7090  139.0610 O   0  0  0  0  0  0  0  0  0  0  0  0
  163.6980  212.5170  138.8240 C   0  0  0  0  0  0  0  0  0  0  0  0
  163.9950  213.8260  138.3550 N   0  0  0  0  0  1  0  0  0  0  0  0
  161.7380  211.3200  137.9240 C   0  0  0  0  0  0  0  0  0  0  0  0
  160.5620  211.6990  137.2910 O   0  0  0  0  0  0  0  0  0  0  0  0
  162.3370  210.2740  137.5590 O   0  0  0  0  0  1  0  0  0  0  0  0
  1  2  2  0  0  0  0
  2 26  1  0  0  0  0
  3  2  1  0  0  0  0
  4  3  1  0  0  0  0
  5  6  1  6  0  0  0
  5  4  1  0  0  0  0
  7  5  1  0  0  0  0
  7  8  1  0  0  0  0
  9  8  1  6  0  0  0
  9 12  1  0  0  0  0
 10 13  1  0  0  0  0
 10  9  1  0  0  0  0
 12 11  1  6  0  0  0
 12 16  1  0  0  0  0
 13 14  1  0  0  0  0
 14 11  1  0  0  0  0
 16 17  1  0  0  0  0
 16 15  1  1  0  0  0
 17 18  1  6  0  0  0
 17 15  1  0  0  0  0
 18 19  1  0  0  0  0
 19 20  1  6  0  0  0
 19 23  1  0  0  0  0
 20 22  1  0  0  0  0
 22 21  1  0  0  0  0
 23 24  1  0  0  0  0
 24 25  1  0  0  0  0
 28 26  1  0  0  0  0
 29 28  1  0  0  0  0
 29 27  2  0  0  0  0
 30 29  1  0  0  0  0
 31 30  1  0  0  0  0
 32 31  1  0  0  0  0
 33 32  1  1  0  0  0
 35 34  1  6  0  0  0
 35 39  1  0  0  0  0
 36 37  1  0  0  0  0
 37 33  1  0  0  0  0
 38 40  1  6  0  0  0
 38 35  1  0  0  0  0
 38 36  1  0  0  0  0
 39 33  1  0  0  0  0
 41 45  1  6  0  0  0
 41 40  1  0  0  0  0
 43 42  2  0  0  0  0
 43 41  1  0  0  0  0
 44 43  1  0  0  0  0
 46 45  2  0  0  0  0
 47 45  1  0  0  0  0
M  END
>  <MODEL>
2

>  <REMARK>
 VINA RESULT:      -5.6      1.490      2.249
  Name = 
  22 active torsions:
  status: ('A' for Active; 'I' for Inactive)
    1  A    between atoms: C_1  and  C_10
    2  A    between atoms: C_3  and  C_41
    3  A    between atoms: C_4  and  C_5
    4  A    between atoms: C_4  and  C_36
    5  A    between atoms: C_5  and  N_35
    6  A    between atoms: C_8  and  C_9
    7  A    between atoms: C_8  and  C_30
    8  A    between atoms: C_10  and  N_32
    9  A    between atoms: C_11  and  N_13
   10  A    between atoms: C_11  and  C_18
   11  A    between atoms: C_12  and  C_20
   12  A    between atoms: O_19  and  C_20
   13  A    between atoms: O_19  and  C_46
   14  A    between atoms: C_20  and  C_44
   15  A    between atoms: C_21  and  C_27
   16  A    between atoms: C_22  and  C_24
   17  A    between atoms: C_24  and  N_32
   18  A    between atoms: O_29  and  C_30
   19  A    between atoms: O_29  and  C_34
   20  A    between atoms: C_30  and  C_42
   21  A    between atoms: C_36  and  C_41
   22  A    between atoms: C_39  and  C_42
                            x       y       z     vdW  Elec       q    Type
                         _______ _______ _______ _____ _____    ______ ____

>  <TORSDO>
F 22

$$$$
=
 OpenBabel11072414543D

 47 49  0  0  1  0  0  0  0  0999 V2000
  164.1190  212.7160  148.5500 O   0  0  0  0  0  0  0  0  0  0  0  0
  162.9620  212.3520  148.2060 C   0  0  0  0  0  0  0  0  0  0  0  0
  162.1840  211.5000  149.0490 N   0  0  0  0  0  2  0  0  0  0  0  0
  162.6710  211.0540  150.3420 C   0  0  0  0  0  2  0  0  0  0  0  0
  161.7870  209.9390  150.8770 C   0  0  2  0  0  3  0  0  0  0  0  0
  161.3760  209.1240  149.8220 O   0  0  0  0  0  1  0  0  0  0  0  0
  160.5660  210.5320  151.5550 C   0  0  0  0  0  2  0  0  0  0  0  0
  160.0980  209.6220  152.6770 C   0  0  0  0  0  2  0  0  0  0  0  0
  161.2810  208.9180  153.3200 C   0  0  1  0  0  3  0  0  0  0  0  0
  161.4920  209.4190  154.7600 C   0  0  0  0  0  2  0  0  0  0  0  0
  160.6030  206.7560  154.5070 C   0  0  0  0  0  2  0  0  0  0  0  0
  161.0810  207.3980  153.2030 C   0  0  2  0  0  3  0  0  0  0  0  0
  160.8100  208.5400  155.8220 C   0  0  0  0  0  2  0  0  0  0  0  0
  159.8590  207.6800  155.2530 O   0  0  0  0  0  0  0  0  0  0  0  0
  162.1540  205.3350  152.6350 O   0  0  0  0  0  0  0  0  0  0  0  0
  162.3620  206.7240  152.7220 C   0  0  1  0  0  3  0  0  0  0  0  0
  162.2410  206.0220  151.4100 C   0  0  2  0  0  3  0  0  0  0  0  0
  160.9640  206.1370  150.8460 O   0  0  0  0  0  0  0  0  0  0  0  0
  161.0230  205.4050  149.6590 C   0  0  1  0  0  3  0  0  0  0  0  0
  160.3870  204.0390  149.8820 C   0  0  0  0  0  2  0  0  0  0  0  0
  160.7140  201.3160  149.8280 S   0  0  0  0  0  1  0  0  0  0  0  0
  161.1690  202.9450  149.1720 C   0  0  0  0  0  2  0  0  0  0  0  0
  160.2780  206.1460  148.5590 C   0  0  0  0  0  2  0  0  0  0  0  0
  161.2500  206.6760  147.5230 C   0  0  0  0  0  2  0  0  0  0  0  0
  161.9330  205.5150  146.8350 C   0  0  0  0  0  1  0  0  0  0  0  0
  162.3970  212.8190  146.9110 C   0  0  0  0  0  2  0  0  0  0  0  0
  160.0650  214.4530  147.1470 O   0  0  0  0  0  0  0  0  0  0  0  0
  161.0250  212.3520  146.7890 N   0  0  0  0  0  2  0  0  0  0  0  0
  159.9030  213.2290  146.8920 C   0  0  0  0  0  0  0  0  0  0  0  0
  158.5340  212.6980  146.6340 C   0  0  0  0  0  2  0  0  0  0  0  0
  158.0080  213.2550  145.3970 N   0  0  0  0  0  2  0  0  0  0  0  0
  159.1410  213.6600  144.5780 C   0  0  0  0  0  2  0  0  0  0  0  0
  159.2460  212.7630  143.3610 C   0  0  2  0  0  3  0  0  0  0  0  0
  158.6560  213.5170  139.6540 C   0  0  0  0  0  1  0  0  0  0  0  0
  158.9730  212.6740  140.8710 C   0  0  1  0  0  3  0  0  0  0  0  0
  160.7460  211.2970  142.0140 C   0  0  0  0  0  2  0  0  0  0  0  0
  160.6640  212.2150  143.2280 C   0  0  0  0  0  2  0  0  0  0  0  0
  160.3710  212.0570  140.7400 C   0  0  1  0  0  3  0  0  0  0  0  0
  158.8860  213.5580  142.1130 C   0  0  0  0  0  2  0  0  0  0  0  0
  160.4070  211.1740  139.6520 O   0  0  0  0  0  0  0  0  0  0  0  0
  161.6280  210.4990  139.7630 C   0  0  1  0  0  3  0  0  0  0  0  0
  162.0780  208.1710  140.1280 O   0  0  0  0  0  0  0  0  0  0  0  0
  161.4420  209.0420  139.4740 C   0  0  0  0  0  0  0  0  0  0  0  0
  160.5660  208.6400  138.4290 N   0  0  0  0  0  1  0  0  0  0  0  0
  162.6370  211.1060  138.8420 C   0  0  0  0  0  0  0  0  0  0  0  0
  163.5560  212.0310  139.3180 O   0  0  0  0  0  1  0  0  0  0  0  0
  162.6300  210.8030  137.6200 O   0  0  0  0  0  0  0  0  0  0  0  0
  2  1  2  0  0  0  0
  2  3  1  0  0  0  0
  3  4  1  0  0  0  0
  4  5  1  0  0  0  0
  5  6  1  6  0  0  0
  5  7  1  0  0  0  0
  7  8  1  0  0  0  0
  9  8  1  1  0  0  0
  9 10  1  0  0  0  0
 10 13  1  0  0  0  0
 11 14  1  0  0  0  0
 12  9  1  0  0  0  0
 12 11  1  1  0  0  0
 14 13  1  0  0  0  0
 16 15  1  1  0  0  0
 16 12  1  0  0  0  0
 17 18  1  1  0  0  0
 17 15  1  0  0  0  0
 17 16  1  0  0  0  0
 19 23  1  6  0  0  0
 19 20  1  0  0  0  0
 19 18  1  0  0  0  0
 22 21  1  0  0  0  0
 22 20  1  0  0  0  0
 24 23  1  0  0  0  0
 25 24  1  0  0  0  0
 26  2  1  0  0  0  0
 28 29  1  0  0  0  0
 28 26  1  0  0  0  0
 29 27  2  0  0  0  0
 30 29  1  0  0  0  0
 31 30  1  0  0  0  0
 32 31  1  0  0  0  0
 33 32  1  1  0  0  0
 35 34  1  6  0  0  0
 35 39  1  0  0  0  0
 36 37  1  0  0  0  0
 37 33  1  0  0  0  0
 38 40  1  6  0  0  0
 38 35  1  0  0  0  0
 38 36  1  0  0  0  0
 39 33  1  0  0  0  0
 40 41  1  0  0  0  0
 41 45  1  6  0  0  0
 43 41  1  0  0  0  0
 43 42  2  0  0  0  0
 44 43  1  0  0  0  0
 45 46  1  0  0  0  0
 47 45  2  0  0  0  0
M  END
>  <MODEL>
3

>  <REMARK>
 VINA RESULT:      -4.9      2.469      5.447
  Name = 
  22 active torsions:
  status: ('A' for Active; 'I' for Inactive)
    1  A    between atoms: C_1  and  C_10
    2  A    between atoms: C_3  and  C_41
    3  A    between atoms: C_4  and  C_5
    4  A    between atoms: C_4  and  C_36
    5  A    between atoms: C_5  and  N_35
    6  A    between atoms: C_8  and  C_9
    7  A    between atoms: C_8  and  C_30
    8  A    between atoms: C_10  and  N_32
    9  A    between atoms: C_11  and  N_13
   10  A    between atoms: C_11  and  C_18
   11  A    between atoms: C_12  and  C_20
   12  A    between atoms: O_19  and  C_20
   13  A    between atoms: O_19  and  C_46
   14  A    between atoms: C_20  and  C_44
   15  A    between atoms: C_21  and  C_27
   16  A    between atoms: C_22  and  C_24
   17  A    between atoms: C_24  and  N_32
   18  A    between atoms: O_29  and  C_30
   19  A    between atoms: O_29  and  C_34
   20  A    between atoms: C_30  and  C_42
   21  A    between atoms: C_36  and  C_41
   22  A    between atoms: C_39  and  C_42
                            x       y       z     vdW  Elec       q    Type
                         _______ _______ _______ _____ _____    ______ ____

>  <TORSDO>
F 22

$$$$
=
 OpenBabel11072414543D

 47 49  0  0  1  0  0  0  0  0999 V2000
  160.8980  206.1240  144.8160 O   0  0  0  0  0  0  0  0  0  0  0  0
  161.5870  205.3190  144.1330 C   0  0  0  0  0  0  0  0  0  0  0  0
  161.9710  205.6400  142.7940 N   0  0  0  0  0  2  0  0  0  0  0  0
  161.6200  206.9090  142.1830 C   0  0  0  0  0  2  0  0  0  0  0  0
  161.8580  206.8500  140.6830 C   0  0  2  0  0  3  0  0  0  0  0  0
  163.1580  206.4100  140.4340 O   0  0  0  0  0  1  0  0  0  0  0  0
  161.6730  208.2290  140.0790 C   0  0  0  0  0  2  0  0  0  0  0  0
  161.4770  208.1200  138.5770 C   0  0  0  0  0  2  0  0  0  0  0  0
  160.9700  209.4340  138.0090 C   0  0  1  0  0  3  0  0  0  0  0  0
  159.8200  209.1870  137.0160 C   0  0  0  0  0  2  0  0  0  0  0  0
  159.1030  210.4560  139.4280 C   0  0  0  0  0  2  0  0  0  0  0  0
  160.6100  210.3740  139.1710 C   0  0  2  0  0  3  0  0  0  0  0  0
  158.4250  209.2990  137.6520 C   0  0  0  0  0  2  0  0  0  0  0  0
  158.4860  209.2550  139.0530 O   0  0  0  0  0  0  0  0  0  0  0  0
  160.1950  212.7310  139.2230 O   0  0  0  0  0  0  0  0  0  0  0  0
  161.1790  211.7680  138.9290 C   0  0  1  0  0  3  0  0  0  0  0  0
  161.2530  212.6300  140.1460 C   0  0  2  0  0  3  0  0  0  0  0  0
  160.8030  211.9800  141.3030 O   0  0  0  0  0  0  0  0  0  0  0  0
  160.4670  213.0040  142.1890 C   0  0  1  0  0  3  0  0  0  0  0  0
  159.7910  212.4030  143.4140 C   0  0  0  0  0  2  0  0  0  0  0  0
  158.6430  212.7490  145.8810 S   0  0  0  0  0  1  0  0  0  0  0  0
  159.3130  213.4890  144.3660 C   0  0  0  0  0  2  0  0  0  0  0  0
  161.7240  213.7520  142.6110 C   0  0  0  0  0  2  0  0  0  0  0  0
  162.5870  212.8790  143.5010 C   0  0  0  0  0  2  0  0  0  0  0  0
  163.7070  213.7110  144.0870 C   0  0  0  0  0  1  0  0  0  0  0  0
  162.0130  204.0230  144.7290 C   0  0  0  0  0  2  0  0  0  0  0  0
  160.7960  201.7770  146.0090 O   0  0  0  0  0  0  0  0  0  0  0  0
  161.5910  203.9730  146.1200 N   0  0  0  0  0  2  0  0  0  0  0  0
  161.0110  202.8060  146.7050 C   0  0  0  0  0  0  0  0  0  0  0  0
  160.7180  202.7900  148.1660 C   0  0  0  0  0  2  0  0  0  0  0  0
  161.1260  204.0480  148.7710 N   0  0  0  0  0  2  0  0  0  0  0  0
  161.0910  203.8750  150.2160 C   0  0  0  0  0  2  0  0  0  0  0  0
  161.5850  205.1340  150.9000 C   0  0  2  0  0  3  0  0  0  0  0  0
  161.8400  208.7300  149.6110 C   0  0  0  0  0  1  0  0  0  0  0  0
  161.9960  207.5870  150.5920 C   0  0  1  0  0  3  0  0  0  0  0  0
  161.2690  206.6830  152.8270 C   0  0  0  0  0  2  0  0  0  0  0  0
  160.7440  205.4270  152.1390 C   0  0  0  0  0  2  0  0  0  0  0  0
  161.2110  207.8800  151.8760 C   0  0  1  0  0  3  0  0  0  0  0  0
  161.4940  206.3050  149.9310 C   0  0  0  0  0  2  0  0  0  0  0  0
  161.7460  209.0030  152.5210 O   0  0  0  0  0  0  0  0  0  0  0  0
  160.6990  209.5220  153.2920 C   0  0  1  0  0  3  0  0  0  0  0  0
  161.4310  211.0380  155.0010 O   0  0  0  0  0  0  0  0  0  0  0  0
  161.1830  209.8460  154.6710 C   0  0  0  0  0  0  0  0  0  0  0  0
  161.3990  208.7970  155.6050 N   0  0  0  0  0  1  0  0  0  0  0  0
  160.1200  210.7300  152.6270 C   0  0  0  0  0  0  0  0  0  0  0  0
  158.8690  211.2030  152.9990 O   0  0  0  0  0  1  0  0  0  0  0  0
  160.7550  211.2990  151.7010 O   0  0  0  0  0  0  0  0  0  0  0  0
  2 26  1  0  0  0  0
  2  1  2  0  0  0  0
  3  2  1  0  0  0  0
  4  3  1  0  0  0  0
  5  6  1  1  0  0  0
  5  4  1  0  0  0  0
  7  5  1  0  0  0  0
  8  7  1  0  0  0  0
  9  8  1  1  0  0  0
  9 12  1  0  0  0  0
 10 13  1  0  0  0  0
 10  9  1  0  0  0  0
 12 11  1  6  0  0  0
 13 14  1  0  0  0  0
 14 11  1  0  0  0  0
 15 17  1  0  0  0  0
 16 12  1  0  0  0  0
 16 15  1  6  0  0  0
 16 17  1  0  0  0  0
 17 18  1  1  0  0  0
 18 19  1  0  0  0  0
 19 23  1  1  0  0  0
 19 20  1  0  0  0  0
 20 22  1  0  0  0  0
 22 21  1  0  0  0  0
 23 24  1  0  0  0  0
 24 25  1  0  0  0  0
 26 28  1  0  0  0  0
 27 29  2  0  0  0  0
 28 29  1  0  0  0  0
 29 30  1  0  0  0  0
 30 31  1  0  0  0  0
 31 32  1  0  0  0  0
 33 32  1  6  0  0  0
 33 37  1  0  0  0  0
 35 34  1  6  0  0  0
 35 38  1  0  0  0  0
 37 36  1  0  0  0  0
 38 40  1  1  0  0  0
 38 36  1  0  0  0  0
 39 35  1  0  0  0  0
 39 33  1  0  0  0  0
 41 40  1  6  0  0  0
 41 43  1  0  0  0  0
 43 42  2  0  0  0  0
 43 44  1  0  0  0  0
 45 46  1  0  0  0  0
 45 41  1  0  0  0  0
 47 45  2  0  0  0  0
M  END
>  <MODEL>
4

>  <REMARK>
 VINA RESULT:      -4.6      3.164     11.171
  Name = 
  22 active torsions:
  status: ('A' for Active; 'I' for Inactive)
    1  A    between atoms: C_1  and  C_10
    2  A    between atoms: C_3  and  C_41
    3  A    between atoms: C_4  and  C_5
    4  A    between atoms: C_4  and  C_36
    5  A    between atoms: C_5  and  N_35
    6  A    between atoms: C_8  and  C_9
    7  A    between atoms: C_8  and  C_30
    8  A    between atoms: C_10  and  N_32
    9  A    between atoms: C_11  and  N_13
   10  A    between atoms: C_11  and  C_18
   11  A    between atoms: C_12  and  C_20
   12  A    between atoms: O_19  and  C_20
   13  A    between atoms: O_19  and  C_46
   14  A    between atoms: C_20  and  C_44
   15  A    between atoms: C_21  and  C_27
   16  A    between atoms: C_22  and  C_24
   17  A    between atoms: C_24  and  N_32
   18  A    between atoms: O_29  and  C_30
   19  A    between atoms: O_29  and  C_34
   20  A    between atoms: C_30  and  C_42
   21  A    between atoms: C_36  and  C_41
   22  A    between atoms: C_39  and  C_42
                            x       y       z     vdW  Elec       q    Type
                         _______ _______ _______ _____ _____    ______ ____

>  <TORSDO>
F 22

$$$$
=
 OpenBabel11072414543D

 47 49  0  0  1  0  0  0  0  0999 V2000
  158.1800  213.0650  151.4700 O   0  0  0  0  0  0  0  0  0  0  0  0
  159.4270  212.9900  151.2980 C   0  0  0  0  0  0  0  0  0  0  0  0
  160.2040  212.0260  152.0110 N   0  0  0  0  0  2  0  0  0  0  0  0
  159.5930  211.0760  152.9230 C   0  0  0  0  0  2  0  0  0  0  0  0
  160.5930  209.9930  153.2960 C   0  0  2  0  0  3  0  0  0  0  0  0
  161.8880  210.5060  153.2160 O   0  0  0  0  0  1  0  0  0  0  0  0
  160.4600  208.8210  152.3420 C   0  0  0  0  0  2  0  0  0  0  0  0
  161.4210  207.7140  152.7380 C   0  0  0  0  0  2  0  0  0  0  0  0
  161.9960  207.0400  151.5030 C   0  0  1  0  0  3  0  0  0  0  0  0
  162.7760  205.7720  151.8920 C   0  0  0  0  0  2  0  0  0  0  0  0
  160.3790  205.3480  150.4710 C   0  0  0  0  0  2  0  0  0  0  0  0
  160.8630  206.8010  150.4930 C   0  0  2  0  0  3  0  0  0  0  0  0
  161.9380  204.4850  151.8030 C   0  0  0  0  0  2  0  0  0  0  0  0
  160.5660  204.7620  151.7300 O   0  0  0  0  0  0  0  0  0  0  0  0
  162.6040  206.7880  148.8500 O   0  0  0  0  0  0  0  0  0  0  0  0
  161.2910  207.2330  149.0940 C   0  0  1  0  0  3  0  0  0  0  0  0
  161.5850  206.1080  148.1570 C   0  0  2  0  0  3  0  0  0  0  0  0
  161.3850  204.8490  148.7380 O   0  0  0  0  0  0  0  0  0  0  0  0
  161.3570  203.9550  147.6670 C   0  0  1  0  0  3  0  0  0  0  0  0
  162.2130  204.5050  146.5340 C   0  0  0  0  0  2  0  0  0  0  0  0
  160.5870  205.8440  144.7760 S   0  0  0  0  0  1  0  0  0  0  0  0
  161.5170  204.3430  145.1910 C   0  0  0  0  0  2  0  0  0  0  0  0
  161.8980  202.6030  148.1100 C   0  0  0  0  0  2  0  0  0  0  0  0
  160.7870  201.5710  148.1420 C   0  0  0  0  0  2  0  0  0  0  0  0
  159.9500  201.7740  149.3860 C   0  0  0  0  0  1  0  0  0  0  0  0
  160.0960  213.9100  150.3390 C   0  0  0  0  0  2  0  0  0  0  0  0
  162.1930  213.1030  148.5750 O   0  0  0  0  0  0  0  0  0  0  0  0
  159.9130  213.4090  148.9860 N   0  0  0  0  0  2  0  0  0  0  0  0
  161.0060  212.9970  148.1650 C   0  0  0  0  0  0  0  0  0  0  0  0
  160.7300  212.3790  146.8370 C   0  0  0  0  0  2  0  0  0  0  0  0
  161.2930  213.2020  145.7770 N   0  0  0  0  0  2  0  0  0  0  0  0
  160.2210  214.0290  145.2430 C   0  0  0  0  0  2  0  0  0  0  0  0
  160.1800  213.9110  143.7330 C   0  0  2  0  0  3  0  0  0  0  0  0
  162.3800  211.8960  141.3330 C   0  0  0  0  0  1  0  0  0  0  0  0
  161.2870  212.8590  141.7460 C   0  0  1  0  0  3  0  0  0  0  0  0
  158.8010  213.2630  141.7610 C   0  0  0  0  0  2  0  0  0  0  0  0
  158.8330  213.3530  143.2820 C   0  0  0  0  0  2  0  0  0  0  0  0
  159.9240  212.3570  141.2520 C   0  0  1  0  0  3  0  0  0  0  0  0
  161.2980  212.9880  143.2670 C   0  0  0  0  0  2  0  0  0  0  0  0
  159.8980  212.3370  139.8510 O   0  0  0  0  0  0  0  0  0  0  0  0
  159.2200  211.1600  139.5110 C   0  0  1  0  0  3  0  0  0  0  0  0
  158.2110  211.8480  137.4460 O   0  0  0  0  0  0  0  0  0  0  0  0
  158.0450  211.4740  138.6390 C   0  0  0  0  0  0  0  0  0  0  0  0
  156.7300  211.3820  139.1720 N   0  0  0  0  0  1  0  0  0  0  0  0
  160.1520  210.2070  138.8340 C   0  0  0  0  0  0  0  0  0  0  0  0
  161.0480  210.6630  137.8760 O   0  0  0  0  0  0  0  0  0  0  0  0
  160.0990  208.9790  139.1070 O   0  0  0  0  0  1  0  0  0  0  0  0
  2  1  2  0  0  0  0
  2  3  1  0  0  0  0
  3  4  1  0  0  0  0
  4  5  1  0  0  0  0
  5  6  1  6  0  0  0
  7  8  1  0  0  0  0
  7  5  1  0  0  0  0
  9 10  1  0  0  0  0
  9  8  1  1  0  0  0
 11 14  1  0  0  0  0
 12 11  1  6  0  0  0
 12  9  1  0  0  0  0
 13 10  1  0  0  0  0
 14 13  1  0  0  0  0
 16 15  1  1  0  0  0
 16 12  1  0  0  0  0
 17 18  1  1  0  0  0
 17 15  1  0  0  0  0
 17 16  1  0  0  0  0
 19 20  1  6  0  0  0
 19 23  1  0  0  0  0
 19 18  1  0  0  0  0
 21 22  1  0  0  0  0
 22 20  1  0  0  0  0
 23 24  1  0  0  0  0
 24 25  1  0  0  0  0
 26  2  1  0  0  0  0
 28 26  1  0  0  0  0
 29 27  2  0  0  0  0
 29 28  1  0  0  0  0
 30 29  1  0  0  0  0
 31 30  1  0  0  0  0
 32 31  1  0  0  0  0
 33 32  1  1  0  0  0
 35 34  1  1  0  0  0
 35 39  1  0  0  0  0
 36 37  1  0  0  0  0
 37 33  1  0  0  0  0
 38 40  1  6  0  0  0
 38 35  1  0  0  0  0
 38 36  1  0  0  0  0
 39 33  1  0  0  0  0
 41 43  1  6  0  0  0
 41 40  1  0  0  0  0
 42 43  2  0  0  0  0
 43 44  1  0  0  0  0
 45 47  1  0  0  0  0
 45 41  1  0  0  0  0
 46 45  2  0  0  0  0
M  END
>  <MODEL>
5

>  <REMARK>
 VINA RESULT:      -4.5      2.513      5.272
  Name = 
  22 active torsions:
  status: ('A' for Active; 'I' for Inactive)
    1  A    between atoms: C_1  and  C_10
    2  A    between atoms: C_3  and  C_41
    3  A    between atoms: C_4  and  C_5
    4  A    between atoms: C_4  and  C_36
    5  A    between atoms: C_5  and  N_35
    6  A    between atoms: C_8  and  C_9
    7  A    between atoms: C_8  and  C_30
    8  A    between atoms: C_10  and  N_32
    9  A    between atoms: C_11  and  N_13
   10  A    between atoms: C_11  and  C_18
   11  A    between atoms: C_12  and  C_20
   12  A    between atoms: O_19  and  C_20
   13  A    between atoms: O_19  and  C_46
   14  A    between atoms: C_20  and  C_44
   15  A    between atoms: C_21  and  C_27
   16  A    between atoms: C_22  and  C_24
   17  A    between atoms: C_24  and  N_32
   18  A    between atoms: O_29  and  C_30
   19  A    between atoms: O_29  and  C_34
   20  A    between atoms: C_30  and  C_42
   21  A    between atoms: C_36  and  C_41
   22  A    between atoms: C_39  and  C_42
                            x       y       z     vdW  Elec       q    Type
                         _______ _______ _______ _____ _____    ______ ____

>  <TORSDO>
F 22

$$$$
=
 OpenBabel11072414543D

 47 49  0  0  1  0  0  0  0  0999 V2000
  160.4260  213.2450  149.9170 O   0  0  0  0  0  0  0  0  0  0  0  0
  161.1810  212.2390  149.8210 C   0  0  0  0  0  0  0  0  0  0  0  0
  161.2870  211.3010  150.8950 N   0  0  0  0  0  2  0  0  0  0  0  0
  160.5090  211.4450  152.1130 C   0  0  0  0  0  2  0  0  0  0  0  0
  161.1450  210.6410  153.2360 C   0  0  2  0  0  3  0  0  0  0  0  0
  162.4370  210.2660  152.8670 O   0  0  0  0  0  1  0  0  0  0  0  0
  160.3220  209.3950  153.5040 C   0  0  0  0  0  2  0  0  0  0  0  0
  161.2330  208.1900  153.6590 C   0  0  0  0  0  2  0  0  0  0  0  0
  160.8210  207.0840  152.7030 C   0  0  1  0  0  3  0  0  0  0  0  0
  160.5480  207.6550  151.3000 C   0  0  0  0  0  2  0  0  0  0  0  0
  162.8240  206.0080  151.5310 C   0  0  0  0  0  2  0  0  0  0  0  0
  161.8830  205.9730  152.7380 C   0  0  2  0  0  3  0  0  0  0  0  0
  161.7590  207.5700  150.3570 C   0  0  0  0  0  2  0  0  0  0  0  0
  162.9480  207.3210  151.0580 O   0  0  0  0  0  0  0  0  0  0  0  0
  160.0220  204.6020  152.1140 O   0  0  0  0  0  0  0  0  0  0  0  0
  161.2220  204.6030  152.8500 C   0  0  1  0  0  3  0  0  0  0  0  0
  161.0870  203.8690  151.5560 C   0  0  2  0  0  3  0  0  0  0  0  0
  161.6220  204.5750  150.4710 O   0  0  0  0  0  0  0  0  0  0  0  0
  161.5680  203.6860  149.3970 C   0  0  1  0  0  3  0  0  0  0  0  0
  160.8760  202.4050  149.8430 C   0  0  0  0  0  2  0  0  0  0  0  0
  161.5320  200.6180  147.8670 S   0  0  0  0  0  1  0  0  0  0  0  0
  160.2770  201.6630  148.6580 C   0  0  0  0  0  2  0  0  0  0  0  0
  160.7940  204.3150  148.2470 C   0  0  0  0  0  2  0  0  0  0  0  0
  161.6770  205.2770  147.4760 C   0  0  0  0  0  2  0  0  0  0  0  0
  160.8810  206.5140  147.1210 C   0  0  0  0  0  1  0  0  0  0  0  0
  161.9640  212.0200  148.5750 C   0  0  0  0  0  2  0  0  0  0  0  0
  161.4290  213.9530  146.5400 O   0  0  0  0  0  0  0  0  0  0  0  0
  161.0490  211.8370  147.4590 N   0  0  0  0  0  2  0  0  0  0  0  0
  160.8480  212.8370  146.4600 C   0  0  0  0  0  0  0  0  0  0  0  0
  159.9890  212.5300  145.2810 C   0  0  0  0  0  2  0  0  0  0  0  0
  160.3050  213.4320  144.1840 N   0  0  0  0  0  2  0  0  0  0  0  0
  161.3580  212.8110  143.3920 C   0  0  0  0  0  2  0  0  0  0  0  0
  160.8860  212.6210  141.9640 C   0  0  2  0  0  3  0  0  0  0  0  0
  161.1810  209.6030  139.6270 C   0  0  0  0  0  1  0  0  0  0  0  0
  160.8200  211.0130  140.0430 C   0  0  1  0  0  3  0  0  0  0  0  0
  158.9170  212.6170  140.4360 C   0  0  0  0  0  2  0  0  0  0  0  0
  159.3720  212.7880  141.8810 C   0  0  0  0  0  2  0  0  0  0  0  0
  159.3070  211.2340  139.9110 C   0  0  1  0  0  3  0  0  0  0  0  0
  161.2740  211.2290  141.4840 C   0  0  0  0  0  2  0  0  0  0  0  0
  158.9220  211.1280  138.5680 O   0  0  0  0  0  0  0  0  0  0  0  0
  157.7190  210.4120  138.5830 C   0  0  1  0  0  3  0  0  0  0  0  0
  156.7110  212.3140  137.5230 O   0  0  0  0  0  0  0  0  0  0  0  0
  156.5690  211.3270  138.2950 C   0  0  0  0  0  0  0  0  0  0  0  0
  155.3150  211.0980  138.9250 N   0  0  0  0  0  1  0  0  0  0  0  0
  157.7740  209.2910  137.5960 C   0  0  0  0  0  0  0  0  0  0  0  0
  158.9970  208.8340  137.1220 O   0  0  0  0  0  0  0  0  0  0  0  0
  156.7060  208.7840  137.1650 O   0  0  0  0  0  1  0  0  0  0  0  0
  2  1  2  0  0  0  0
  2  3  1  0  0  0  0
  3  4  1  0  0  0  0
  4  5  1  0  0  0  0
  5  6  1  6  0  0  0
  5  7  1  0  0  0  0
  7  8  1  0  0  0  0
  9 12  1  0  0  0  0
  9  8  1  1  0  0  0
 10  9  1  0  0  0  0
 12 11  1  6  0  0  0
 12 16  1  0  0  0  0
 13 14  1  0  0  0  0
 13 10  1  0  0  0  0
 14 11  1  0  0  0  0
 16 15  1  6  0  0  0
 17 18  1  6  0  0  0
 17 15  1  0  0  0  0
 17 16  1  0  0  0  0
 19 23  1  6  0  0  0
 19 20  1  0  0  0  0
 19 18  1  0  0  0  0
 21 22  1  0  0  0  0
 22 20  1  0  0  0  0
 24 23  1  0  0  0  0
 25 24  1  0  0  0  0
 26  2  1  0  0  0  0
 28 26  1  0  0  0  0
 29 27  2  0  0  0  0
 29 28  1  0  0  0  0
 30 29  1  0  0  0  0
 31 30  1  0  0  0  0
 32 31  1  0  0  0  0
 33 32  1  1  0  0  0
 35 34  1  1  0  0  0
 35 39  1  0  0  0  0
 36 37  1  0  0  0  0
 37 33  1  0  0  0  0
 38 40  1  6  0  0  0
 38 35  1  0  0  0  0
 38 36  1  0  0  0  0
 39 33  1  0  0  0  0
 40 41  1  0  0  0  0
 41 45  1  6  0  0  0
 42 43  2  0  0  0  0
 43 41  1  0  0  0  0
 43 44  1  0  0  0  0
 46 45  2  0  0  0  0
 47 45  1  0  0  0  0
M  END
>  <MODEL>
6

>  <REMARK>
 VINA RESULT:      -3.9      2.857      5.680
  Name = 
  22 active torsions:
  status: ('A' for Active; 'I' for Inactive)
    1  A    between atoms: C_1  and  C_10
    2  A    between atoms: C_3  and  C_41
    3  A    between atoms: C_4  and  C_5
    4  A    between atoms: C_4  and  C_36
    5  A    between atoms: C_5  and  N_35
    6  A    between atoms: C_8  and  C_9
    7  A    between atoms: C_8  and  C_30
    8  A    between atoms: C_10  and  N_32
    9  A    between atoms: C_11  and  N_13
   10  A    between atoms: C_11  and  C_18
   11  A    between atoms: C_12  and  C_20
   12  A    between atoms: O_19  and  C_20
   13  A    between atoms: O_19  and  C_46
   14  A    between atoms: C_20  and  C_44
   15  A    between atoms: C_21  and  C_27
   16  A    between atoms: C_22  and  C_24
   17  A    between atoms: C_24  and  N_32
   18  A    between atoms: O_29  and  C_30
   19  A    between atoms: O_29  and  C_34
   20  A    between atoms: C_30  and  C_42
   21  A    between atoms: C_36  and  C_41
   22  A    between atoms: C_39  and  C_42
                            x       y       z     vdW  Elec       q    Type
                         _______ _______ _______ _____ _____    ______ ____

>  <TORSDO>
F 22

$$$$
=
 OpenBabel11072414543D

 47 49  0  0  1  0  0  0  0  0999 V2000
  160.7200  213.3570  149.7270 O   0  0  0  0  0  0  0  0  0  0  0  0
  161.3470  212.2950  149.4670 C   0  0  0  0  0  0  0  0  0  0  0  0
  161.3990  211.2270  150.4160 N   0  0  0  0  0  2  0  0  0  0  0  0
  160.7060  211.3040  151.6890 C   0  0  0  0  0  2  0  0  0  0  0  0
  161.3940  210.4130  152.7120 C   0  0  2  0  0  3  0  0  0  0  0  0
  162.5550  209.8740  152.1550 O   0  0  0  0  0  1  0  0  0  0  0  0
  160.4650  209.2840  153.1160 C   0  0  0  0  0  2  0  0  0  0  0  0
  161.2590  208.0100  153.3450 C   0  0  0  0  0  2  0  0  0  0  0  0
  160.8960  206.9620  152.3070 C   0  0  1  0  0  3  0  0  0  0  0  0
  160.6440  207.6200  150.9380 C   0  0  0  0  0  2  0  0  0  0  0  0
  162.9510  206.0100  151.1180 C   0  0  0  0  0  2  0  0  0  0  0  0
  161.9810  205.8740  152.2950 C   0  0  2  0  0  3  0  0  0  0  0  0
  161.8800  207.6250  150.0230 C   0  0  0  0  0  2  0  0  0  0  0  0
  163.0560  207.3540  150.7370 O   0  0  0  0  0  0  0  0  0  0  0  0
  160.1070  204.5370  151.6400 O   0  0  0  0  0  0  0  0  0  0  0  0
  161.3500  204.4860  152.2980 C   0  0  1  0  0  3  0  0  0  0  0  0
  161.1450  203.8920  150.9430 C   0  0  2  0  0  3  0  0  0  0  0  0
  161.6020  204.7210  149.9100 O   0  0  0  0  0  0  0  0  0  0  0  0
  161.0140  204.2130  148.7500 C   0  0  1  0  0  3  0  0  0  0  0  0
  161.9460  204.4570  147.5710 C   0  0  0  0  0  2  0  0  0  0  0  0
  160.7140  205.3070  145.2720 S   0  0  0  0  0  1  0  0  0  0  0  0
  161.5630  205.7230  146.8200 C   0  0  0  0  0  2  0  0  0  0  0  0
  160.7660  202.7200  148.9090 C   0  0  0  0  0  2  0  0  0  0  0  0
  161.5580  201.9380  147.8790 C   0  0  0  0  0  2  0  0  0  0  0  0
  161.1610  200.4790  147.9440 C   0  0  0  0  0  1  0  0  0  0  0  0
  162.0350  212.1460  148.1560 C   0  0  0  0  0  2  0  0  0  0  0  0
  161.2550  214.3570  146.5220 O   0  0  0  0  0  0  0  0  0  0  0  0
  161.0410  212.1000  147.0940 N   0  0  0  0  0  2  0  0  0  0  0  0
  160.7180  213.2400  146.2960 C   0  0  0  0  0  0  0  0  0  0  0  0
  159.7800  213.0840  145.1480 C   0  0  0  0  0  2  0  0  0  0  0  0
  160.2150  213.9100  144.0320 N   0  0  0  0  0  2  0  0  0  0  0  0
  161.5000  213.3960  143.5780 C   0  0  0  0  0  2  0  0  0  0  0  0
  161.3880  212.9240  142.1420 C   0  0  2  0  0  3  0  0  0  0  0  0
  163.8450  213.2330  139.2220 C   0  0  0  0  0  1  0  0  0  0  0  0
  162.5560  212.8640  139.9250 C   0  0  1  0  0  3  0  0  0  0  0  0
  161.0800  210.9540  140.6460 C   0  0  0  0  0  2  0  0  0  0  0  0
  161.2140  211.4090  142.0950 C   0  0  0  0  0  2  0  0  0  0  0  0
  162.3200  211.3510  139.8420 C   0  0  1  0  0  3  0  0  0  0  0  0
  162.6460  213.3190  141.3800 C   0  0  0  0  0  2  0  0  0  0  0  0
  162.1430  210.9640  138.5070 O   0  0  0  0  0  0  0  0  0  0  0  0
  161.0260  210.1210  138.5110 C   0  0  1  0  0  3  0  0  0  0  0  0
  160.0470  211.8380  137.1490 O   0  0  0  0  0  0  0  0  0  0  0  0
  159.9660  210.6630  137.6010 C   0  0  0  0  0  0  0  0  0  0  0  0
  158.8430  209.8560  137.2730 N   0  0  0  0  0  1  0  0  0  0  0  0
  161.4230  208.7380  138.1080 C   0  0  0  0  0  0  0  0  0  0  0  0
  161.1830  207.6640  138.9560 O   0  0  0  0  0  1  0  0  0  0  0  0
  162.0110  208.5500  137.0110 O   0  0  0  0  0  0  0  0  0  0  0  0
  2  1  2  0  0  0  0
  2  3  1  0  0  0  0
  3  4  1  0  0  0  0
  4  5  1  0  0  0  0
  5  6  1  6  0  0  0
  5  7  1  0  0  0  0
  7  8  1  0  0  0  0
  9  8  1  1  0  0  0
 10  9  1  0  0  0  0
 12 11  1  6  0  0  0
 12 16  1  0  0  0  0
 12  9  1  0  0  0  0
 13 14  1  0  0  0  0
 13 10  1  0  0  0  0
 14 11  1  0  0  0  0
 16 15  1  6  0  0  0
 17 18  1  6  0  0  0
 17 15  1  0  0  0  0
 17 16  1  0  0  0  0
 19 20  1  6  0  0  0
 19 23  1  0  0  0  0
 19 18  1  0  0  0  0
 21 22  1  0  0  0  0
 22 20  1  0  0  0  0
 24 25  1  0  0  0  0
 24 23  1  0  0  0  0
 26  2  1  0  0  0  0
 28 26  1  0  0  0  0
 29 27  2  0  0  0  0
 29 28  1  0  0  0  0
 30 29  1  0  0  0  0
 31 30  1  0  0  0  0
 32 31  1  0  0  0  0
 33 32  1  1  0  0  0
 35 34  1  6  0  0  0
 35 39  1  0  0  0  0
 36 37  1  0  0  0  0
 37 33  1  0  0  0  0
 38 40  1  6  0  0  0
 38 35  1  0  0  0  0
 38 36  1  0  0  0  0
 39 33  1  0  0  0  0
 40 41  1  0  0  0  0
 41 43  1  6  0  0  0
 42 43  2  0  0  0  0
 44 43  1  0  0  0  0
 45 41  1  0  0  0  0
 45 46  1  0  0  0  0
 47 45  2  0  0  0  0
M  END
>  <MODEL>
7

>  <REMARK>
 VINA RESULT:      -3.9      2.411      5.316
  Name = 
  22 active torsions:
  status: ('A' for Active; 'I' for Inactive)
    1  A    between atoms: C_1  and  C_10
    2  A    between atoms: C_3  and  C_41
    3  A    between atoms: C_4  and  C_5
    4  A    between atoms: C_4  and  C_36
    5  A    between atoms: C_5  and  N_35
    6  A    between atoms: C_8  and  C_9
    7  A    between atoms: C_8  and  C_30
    8  A    between atoms: C_10  and  N_32
    9  A    between atoms: C_11  and  N_13
   10  A    between atoms: C_11  and  C_18
   11  A    between atoms: C_12  and  C_20
   12  A    between atoms: O_19  and  C_20
   13  A    between atoms: O_19  and  C_46
   14  A    between atoms: C_20  and  C_44
   15  A    between atoms: C_21  and  C_27
   16  A    between atoms: C_22  and  C_24
   17  A    between atoms: C_24  and  N_32
   18  A    between atoms: O_29  and  C_30
   19  A    between atoms: O_29  and  C_34
   20  A    between atoms: C_30  and  C_42
   21  A    between atoms: C_36  and  C_41
   22  A    between atoms: C_39  and  C_42
                            x       y       z     vdW  Elec       q    Type
                         _______ _______ _______ _____ _____    ______ ____

>  <TORSDO>
F 22

$$$$
=
 OpenBabel11072414543D

 47 49  0  0  1  0  0  0  0  0999 V2000
  160.8760  207.2370  154.3800 O   0  0  0  0  0  0  0  0  0  0  0  0
  161.4660  207.7140  153.3730 C   0  0  0  0  0  0  0  0  0  0  0  0
  162.0950  206.8530  152.4210 N   0  0  0  0  0  2  0  0  0  0  0  0
  162.0480  205.4080  152.5500 C   0  0  0  0  0  2  0  0  0  0  0  0
  160.6480  204.9020  152.2420 C   0  0  2  0  0  3  0  0  0  0  0  0
  160.3740  203.7820  153.0270 O   0  0  0  0  0  1  0  0  0  0  0  0
  160.5510  204.5200  150.7770 C   0  0  0  0  0  2  0  0  0  0  0  0
  161.5580  205.3130  149.9620 C   0  0  0  0  0  2  0  0  0  0  0  0
  160.8600  206.0740  148.8480 C   0  0  1  0  0  3  0  0  0  0  0  0
  160.4850  207.4920  149.3130 C   0  0  0  0  0  2  0  0  0  0  0  0
  162.5040  207.3400  147.3520 C   0  0  0  0  0  2  0  0  0  0  0  0
  161.7410  206.0340  147.5890 C   0  0  2  0  0  3  0  0  0  0  0  0
  161.5300  208.5570  148.9410 C   0  0  0  0  0  2  0  0  0  0  0  0
  162.7540  207.9780  148.5740 O   0  0  0  0  0  0  0  0  0  0  0  0
  161.7560  205.2130  145.3400 O   0  0  0  0  0  0  0  0  0  0  0  0
  160.9070  205.6810  146.3620 C   0  0  1  0  0  3  0  0  0  0  0  0
  160.9560  204.2400  145.9700 C   0  0  2  0  0  3  0  0  0  0  0  0
  161.7490  203.4680  146.8290 O   0  0  0  0  0  0  0  0  0  0  0  0
  160.9660  202.3570  147.1450 C   0  0  1  0  0  3  0  0  0  0  0  0
  161.7320  201.0890  146.7890 C   0  0  0  0  0  2  0  0  0  0  0  0
  161.6140  198.6470  145.5450 S   0  0  0  0  0  1  0  0  0  0  0  0
  161.1090  200.3880  145.5910 C   0  0  0  0  0  2  0  0  0  0  0  0
  160.6430  202.3600  148.6320 C   0  0  0  0  0  2  0  0  0  0  0  0
  160.6380  200.9450  149.1770 C   0  0  0  0  0  2  0  0  0  0  0  0
  161.6060  200.8520  150.3370 C   0  0  0  0  0  1  0  0  0  0  0  0
  161.5030  209.1870  153.1700 C   0  0  0  0  0  2  0  0  0  0  0  0
  160.7650  211.8710  153.8140 O   0  0  0  0  0  0  0  0  0  0  0  0
  160.1450  209.7080  153.1810 N   0  0  0  0  0  2  0  0  0  0  0  0
  159.8480  211.0710  153.4870 C   0  0  0  0  0  0  0  0  0  0  0  0
  158.4460  211.5590  153.3580 C   0  0  0  0  0  2  0  0  0  0  0  0
  158.2560  212.1970  152.0640 N   0  0  0  0  0  2  0  0  0  0  0  0
  158.9580  213.4720  152.0940 C   0  0  0  0  0  2  0  0  0  0  0  0
  159.3410  213.8840  150.6860 C   0  0  2  0  0  3  0  0  0  0  0  0
  162.2820  212.7970  148.4890 C   0  0  0  0  0  1  0  0  0  0  0  0
  161.0370  213.5710  148.8680 C   0  0  1  0  0  3  0  0  0  0  0  0
  158.6150  213.9720  148.3040 C   0  0  0  0  0  2  0  0  0  0  0  0
  158.2240  213.5310  149.7090 C   0  0  0  0  0  2  0  0  0  0  0  0
  159.9100  213.2850  147.8660 C   0  0  1  0  0  3  0  0  0  0  0  0
  160.6210  213.1660  150.2800 C   0  0  0  0  0  2  0  0  0  0  0  0
  160.2690  213.7500  146.5940 O   0  0  0  0  0  0  0  0  0  0  0  0
  159.9280  212.7170  145.7130 C   0  0  1  0  0  3  0  0  0  0  0  0
  157.6490  211.9860  145.8700 O   0  0  0  0  0  0  0  0  0  0  0  0
  158.4740  212.7930  145.3640 C   0  0  0  0  0  0  0  0  0  0  0  0
  158.0270  213.7640  144.4260 N   0  0  0  0  0  1  0  0  0  0  0  0
  160.7800  212.7850  144.4860 C   0  0  0  0  0  0  0  0  0  0  0  0
  160.4730  212.0120  143.3750 O   0  0  0  0  0  0  0  0  0  0  0  0
  161.8020  213.5210  144.4740 O   0  0  0  0  0  1  0  0  0  0  0  0
  2  1  2  0  0  0  0
  3  4  1  0  0  0  0
  3  2  1  0  0  0  0
  5  4  1  0  0  0  0
  5  6  1  1  0  0  0
  7  5  1  0  0  0  0
  8  7  1  0  0  0  0
  9 10  1  0  0  0  0
  9  8  1  1  0  0  0
 11 14  1  0  0  0  0
 12 11  1  6  0  0  0
 12  9  1  0  0  0  0
 13 10  1  0  0  0  0
 14 13  1  0  0  0  0
 15 17  1  0  0  0  0
 16 15  1  6  0  0  0
 16 12  1  0  0  0  0
 17 16  1  0  0  0  0
 17 18  1  1  0  0  0
 18 19  1  0  0  0  0
 19 20  1  1  0  0  0
 19 23  1  0  0  0  0
 21 22  1  0  0  0  0
 22 20  1  0  0  0  0
 23 24  1  0  0  0  0
 24 25  1  0  0  0  0
 26 28  1  0  0  0  0
 26  2  1  0  0  0  0
 28 29  1  0  0  0  0
 29 27  2  0  0  0  0
 30 29  1  0  0  0  0
 31 32  1  0  0  0  0
 31 30  1  0  0  0  0
 33 32  1  1  0  0  0
 35 34  1  6  0  0  0
 35 39  1  0  0  0  0
 36 37  1  0  0  0  0
 37 33  1  0  0  0  0
 38 40  1  6  0  0  0
 38 36  1  0  0  0  0
 38 35  1  0  0  0  0
 39 33  1  0  0  0  0
 41 45  1  6  0  0  0
 41 40  1  0  0  0  0
 43 41  1  0  0  0  0
 43 42  2  0  0  0  0
 44 43  1  0  0  0  0
 46 45  2  0  0  0  0
 47 45  1  0  0  0  0
M  END
>  <MODEL>
8

>  <REMARK>
 VINA RESULT:      -3.5      3.314      6.250
  Name = 
  22 active torsions:
  status: ('A' for Active; 'I' for Inactive)
    1  A    between atoms: C_1  and  C_10
    2  A    between atoms: C_3  and  C_41
    3  A    between atoms: C_4  and  C_5
    4  A    between atoms: C_4  and  C_36
    5  A    between atoms: C_5  and  N_35
    6  A    between atoms: C_8  and  C_9
    7  A    between atoms: C_8  and  C_30
    8  A    between atoms: C_10  and  N_32
    9  A    between atoms: C_11  and  N_13
   10  A    between atoms: C_11  and  C_18
   11  A    between atoms: C_12  and  C_20
   12  A    between atoms: O_19  and  C_20
   13  A    between atoms: O_19  and  C_46
   14  A    between atoms: C_20  and  C_44
   15  A    between atoms: C_21  and  C_27
   16  A    between atoms: C_22  and  C_24
   17  A    between atoms: C_24  and  N_32
   18  A    between atoms: O_29  and  C_30
   19  A    between atoms: O_29  and  C_34
   20  A    between atoms: C_30  and  C_42
   21  A    between atoms: C_36  and  C_41
   22  A    between atoms: C_39  and  C_42
                            x       y       z     vdW  Elec       q    Type
                         _______ _______ _______ _____ _____    ______ ____

>  <TORSDO>
F 22

$$$$
=
 OpenBabel11072414543D

 47 49  0  0  1  0  0  0  0  0999 V2000
  160.3770  211.4360  152.1070 O   0  0  0  0  0  0  0  0  0  0  0  0
  161.3880  210.6830  152.1380 C   0  0  0  0  0  0  0  0  0  0  0  0
  161.6450  209.8520  153.2720 N   0  0  0  0  0  2  0  0  0  0  0  0
  160.7420  209.8100  154.4080 C   0  0  0  0  0  2  0  0  0  0  0  0
  160.8270  208.4560  155.0920 C   0  0  2  0  0  3  0  0  0  0  0  0
  161.9030  208.4480  155.9800 O   0  0  0  0  0  1  0  0  0  0  0  0
  161.0290  207.3680  154.0540 C   0  0  0  0  0  2  0  0  0  0  0  0
  160.5660  207.8530  152.6920 C   0  0  0  0  0  2  0  0  0  0  0  0
  160.6600  206.7350  151.6680 C   0  0  1  0  0  3  0  0  0  0  0  0
  160.8140  207.3110  150.2490 C   0  0  0  0  0  2  0  0  0  0  0  0
  163.0690  205.9680  151.2770 C   0  0  0  0  0  2  0  0  0  0  0  0
  161.7830  205.7710  152.0830 C   0  0  2  0  0  3  0  0  0  0  0  0
  162.2760  207.4170  149.7850 C   0  0  0  0  0  2  0  0  0  0  0  0
  163.1720  207.3010  150.8570 O   0  0  0  0  0  0  0  0  0  0  0  0
  160.1350  204.2700  151.2110 O   0  0  0  0  0  0  0  0  0  0  0  0
  161.3130  204.3240  151.9790 C   0  0  1  0  0  3  0  0  0  0  0  0
  161.2960  203.7740  150.5900 C   0  0  2  0  0  3  0  0  0  0  0  0
  161.7440  204.6940  149.6340 O   0  0  0  0  0  0  0  0  0  0  0  0
  161.1330  204.3050  148.4410 C   0  0  1  0  0  3  0  0  0  0  0  0
  161.3470  205.3910  147.3940 C   0  0  0  0  0  2  0  0  0  0  0  0
  160.8930  204.6570  144.7900 S   0  0  0  0  0  1  0  0  0  0  0  0
  162.0590  204.8400  146.1680 C   0  0  0  0  0  2  0  0  0  0  0  0
  161.7390  202.9970  147.9550 C   0  0  0  0  0  2  0  0  0  0  0  0
  160.6650  201.9350  147.8140 C   0  0  0  0  0  2  0  0  0  0  0  0
  161.2170  200.6000  148.2640 C   0  0  0  0  0  1  0  0  0  0  0  0
  162.3210  210.6540  150.9780 C   0  0  0  0  0  2  0  0  0  0  0  0
  163.0230  212.2620  148.7230 O   0  0  0  0  0  0  0  0  0  0  0  0
  161.5570  210.7540  149.7450 N   0  0  0  0  0  2  0  0  0  0  0  0
  161.9800  211.5590  148.6430 C   0  0  0  0  0  0  0  0  0  0  0  0
  161.2090  211.5150  147.3680 C   0  0  0  0  0  2  0  0  0  0  0  0
  160.0660  212.4110  147.4440 N   0  0  0  0  0  2  0  0  0  0  0  0
  160.5120  213.7320  147.0220 C   0  0  0  0  0  2  0  0  0  0  0  0
  160.4050  213.8550  145.5150 C   0  0  2  0  0  3  0  0  0  0  0  0
  163.0920  213.5960  142.8000 C   0  0  0  0  0  1  0  0  0  0  0  0
  161.7090  213.8190  143.3750 C   0  0  1  0  0  3  0  0  0  0  0  0
  159.3480  212.9440  143.4500 C   0  0  0  0  0  2  0  0  0  0  0  0
  159.4620  212.7910  144.9620 C   0  0  0  0  0  2  0  0  0  0  0  0
  160.7210  212.8010  142.7910 C   0  0  1  0  0  3  0  0  0  0  0  0
  161.7860  213.6880  144.8940 C   0  0  0  0  0  2  0  0  0  0  0  0
  160.5890  212.9980  141.4090 O   0  0  0  0  0  0  0  0  0  0  0  0
  160.5930  211.7140  140.8510 C   0  0  1  0  0  3  0  0  0  0  0  0
  159.0540  210.3670  139.5980 O   0  0  0  0  0  0  0  0  0  0  0  0
  159.3800  211.5180  139.9960 C   0  0  0  0  0  0  0  0  0  0  0  0
  158.6080  212.6450  139.6020 N   0  0  0  0  0  1  0  0  0  0  0  0
  161.8460  211.5000  140.0630 C   0  0  0  0  0  0  0  0  0  0  0  0
  162.2410  212.4280  139.1090 O   0  0  0  0  0  0  0  0  0  0  0  0
  162.5260  210.4560  140.2410 O   0  0  0  0  0  1  0  0  0  0  0  0
  1  2  2  0  0  0  0
  2  3  1  0  0  0  0
  3  4  1  0  0  0  0
  4  5  1  0  0  0  0
  5  6  1  1  0  0  0
  7  5  1  0  0  0  0
  8  7  1  0  0  0  0
  9 12  1  0  0  0  0
  9  8  1  1  0  0  0
 10  9  1  0  0  0  0
 12 11  1  6  0  0  0
 13 10  1  0  0  0  0
 13 14  1  0  0  0  0
 14 11  1  0  0  0  0
 16 15  1  6  0  0  0
 16 12  1  0  0  0  0
 17 18  1  6  0  0  0
 17 15  1  0  0  0  0
 17 16  1  0  0  0  0
 19 20  1  6  0  0  0
 19 18  1  0  0  0  0
 21 22  1  0  0  0  0
 22 20  1  0  0  0  0
 23 19  1  0  0  0  0
 24 23  1  0  0  0  0
 24 25  1  0  0  0  0
 26  2  1  0  0  0  0
 28 26  1  0  0  0  0
 29 27  2  0  0  0  0
 29 28  1  0  0  0  0
 30 31  1  0  0  0  0
 30 29  1  0  0  0  0
 32 31  1  0  0  0  0
 33 32  1  1  0  0  0
 35 34  1  6  0  0  0
 35 39  1  0  0  0  0
 36 37  1  0  0  0  0
 37 33  1  0  0  0  0
 38 40  1  6  0  0  0
 38 35  1  0  0  0  0
 38 36  1  0  0  0  0
 39 33  1  0  0  0  0
 41 43  1  6  0  0  0
 41 40  1  0  0  0  0
 42 43  2  0  0  0  0
 44 43  1  0  0  0  0
 45 47  1  0  0  0  0
 45 41  1  0  0  0  0
 46 45  2  0  0  0  0
M  END
>  <MODEL>
9

>  <REMARK>
 VINA RESULT:      -3.0      2.244      5.028
  Name = 
  22 active torsions:
  status: ('A' for Active; 'I' for Inactive)
    1  A    between atoms: C_1  and  C_10
    2  A    between atoms: C_3  and  C_41
    3  A    between atoms: C_4  and  C_5
    4  A    between atoms: C_4  and  C_36
    5  A    between atoms: C_5  and  N_35
    6  A    between atoms: C_8  and  C_9
    7  A    between atoms: C_8  and  C_30
    8  A    between atoms: C_10  and  N_32
    9  A    between atoms: C_11  and  N_13
   10  A    between atoms: C_11  and  C_18
   11  A    between atoms: C_12  and  C_20
   12  A    between atoms: O_19  and  C_20
   13  A    between atoms: O_19  and  C_46
   14  A    between atoms: C_20  and  C_44
   15  A    between atoms: C_21  and  C_27
   16  A    between atoms: C_22  and  C_24
   17  A    between atoms: C_24  and  N_32
   18  A    between atoms: O_29  and  C_30
   19  A    between atoms: O_29  and  C_34
   20  A    between atoms: C_30  and  C_42
   21  A    between atoms: C_36  and  C_41
   22  A    between atoms: C_39  and  C_42
                            x       y       z     vdW  Elec       q    Type
                         _______ _______ _______ _____ _____    ______ ____

>  <TORSDO>
F 22

$$$$
