=
 OpenBabel11072412383D

 31 38  0  0  1  0  0  0  0  0999 V2000
  160.4560  210.7850  151.0520 C   0  0  1  0  0  3  0  0  0  0  0  0
  161.4380  209.1730  152.4340 C   0  0  2  0  0  3  0  0  0  0  0  0
  157.0970  212.6150  153.7000 C   0  0  2  0  0  3  0  0  0  0  0  0
  160.1340  211.2540  152.3980 C   0  0  1  0  0  0  0  0  0  0  0  0
  158.4760  213.6010  155.4910 N   0  0  2  0  0  0  0  0  0  0  0  0
  159.3750  213.3590  154.3440 C   0  0  2  0  0  3  0  0  0  0  0  0
  155.3480  212.9750  156.9510 C   0  0  0  0  0  1  0  0  0  0  0  0
  158.7950  212.7810  156.5370 O   0  0  0  0  0  0  0  0  0  0  0  0
  158.4510  213.0630  153.1850 C   0  0  1  0  0  0  0  0  0  0  0  0
  161.9490  210.7350  150.8200 C   0  0  1  0  0  3  0  0  0  0  0  0
  157.1050  213.2560  155.1190 C   0  0  2  0  0  0  0  0  0  0  0  0
  156.6440  212.4500  156.3410 C   0  0  0  0  0  0  0  0  0  0  0  0
  160.1500  209.7970  152.1060 N   0  0  1  0  0  0  0  0  0  0  0  0
  162.4320  209.5060  151.4190 N   0  0  0  0  0  2  0  0  0  0  0  0
  156.4580  210.9520  156.1390 C   0  0  0  0  0  1  0  0  0  0  0  0
  159.8550  211.8870  154.2860 C   0  0  2  0  0  3  0  0  0  0  0  0
  161.0580  211.6390  153.4590 N   0  0  0  0  0  2  0  0  0  0  0  0
  158.8970  211.6480  153.1180 C   0  0  2  0  0  0  0  0  0  0  0  0
  158.5300  213.8850  151.9090 C   0  0  0  0  0  1  0  0  0  0  0  0
  157.6820  212.6530  157.2600 O   0  0  0  0  0  0  0  0  0  0  0  0
  157.5550  211.1260  153.5500 C   0  0  0  0  0  2  0  0  0  0  0  0
  156.3830  214.4530  155.0210 O   0  0  0  0  0  1  0  0  0  0  0  0
  161.2740  207.6910  152.5540 C   0  0  0  0  0  0  0  0  0  0  0  0
  161.0580  205.6820  153.9020 C   0  0  0  0  0  3  0  0  0  0  0  0
  161.1730  207.0740  153.8110 C   0  0  0  0  0  3  0  0  0  0  0  0
  161.0460  204.9040  152.7420 C   0  0  0  0  0  3  0  0  0  0  0  0
  161.1540  205.5160  151.4890 C   0  0  0  0  0  3  0  0  0  0  0  0
  161.2710  206.9070  151.3950 C   0  0  0  0  0  3  0  0  0  0  0  0
  162.3140  209.7050  148.6870 O   0  0  0  0  0  0  0  0  0  0  0  0
  162.4490  212.0270  148.7150 N   0  0  0  0  0  1  0  0  0  0  0  0
  162.2590  210.7700  149.3610 C   0  0  0  0  0  0  0  0  0  0  0  0
  1 13  1  0  0  0  0
  1  4  1  0  0  0  0
  2 23  1  0  0  0  0
  3 11  1  0  0  0  0
  4 18  1  0  0  0  0
  4 17  1  0  0  0  0
  5  8  1  0  0  0  0
  6  5  1  0  0  0  0
  8 20  1  0  0  0  0
  9  3  1  0  0  0  0
  9  6  1  0  0  0  0
 10  1  1  0  0  0  0
 10 14  1  0  0  0  0
 11  5  1  0  0  0  0
 11 12  1  0  0  0  0
 12  7  1  0  0  0  0
 12 20  1  0  0  0  0
 13  4  1  0  0  0  0
 13  2  1  0  0  0  0
 14  2  1  0  0  0  0
 15 12  1  0  0  0  0
 16  6  1  0  0  0  0
 17 16  1  0  0  0  0
 18  9  1  0  0  0  0
 18 21  1  0  0  0  0
 18 16  1  0  0  0  0
 19  9  1  0  0  0  0
 21  3  1  0  0  0  0
 22 11  1  0  0  0  0
 23 25  1  0  0  0  0
 25 24  2  0  0  0  0
 26 24  1  0  0  0  0
 27 26  2  0  0  0  0
 28 27  1  0  0  0  0
 28 23  2  0  0  0  0
 29 31  2  0  0  0  0
 30 31  1  0  0  0  0
 31 10  1  0  0  0  0
M  END
>  <MODEL>
1

>  <REMARK>
 VINA RESULT:      -5.3      0.000      0.000
  Name = 
  2 active torsions:
  status: ('A' for Active; 'I' for Inactive)
    1  A    between atoms: C_1  and  C_3
    2  A    between atoms: C_15  and  C_29
                            x       y       z     vdW  Elec       q    Type
                         _______ _______ _______ _____ _____    ______ ____

>  <TORSDO>
F 2

$$$$
=
 OpenBabel11072412383D

 31 38  0  0  1  0  0  0  0  0999 V2000
  160.8320  208.0620  151.8180 C   0  0  1  0  0  3  0  0  0  0  0  0
  161.9350  209.8750  150.8360 C   0  0  2  0  0  3  0  0  0  0  0  0
  160.2180  205.0960  148.2860 C   0  0  2  0  0  3  0  0  0  0  0  0
  161.4710  207.4710  150.6450 C   0  0  1  0  0  0  0  0  0  0  0  0
  162.5740  204.6040  147.7470 N   0  0  2  0  0  0  0  0  0  0  0  0
  162.5580  205.1790  149.1080 C   0  0  2  0  0  3  0  0  0  0  0  0
  160.7960  204.0540  144.7740 C   0  0  0  0  0  1  0  0  0  0  0  0
  163.1890  205.4550  146.8710 O   0  0  0  0  0  0  0  0  0  0  0  0
  161.1030  205.1650  149.5160 C   0  0  1  0  0  0  0  0  0  0  0  0
  161.8470  208.6380  152.7770 C   0  0  1  0  0  3  0  0  0  0  0  0
  161.2030  204.4580  147.2620 C   0  0  2  0  0  0  0  0  0  0  0  0
  161.3140  205.0160  145.8370 C   0  0  0  0  0  0  0  0  0  0  0  0
  160.9190  208.8490  150.5720 N   0  0  1  0  0  0  0  0  0  0  0  0
  162.2250  209.9410  152.2650 N   0  0  0  0  0  2  0  0  0  0  0  0
  160.6460  206.3590  145.5760 C   0  0  0  0  0  1  0  0  0  0  0  0
  162.4960  206.7270  149.0820 C   0  0  2  0  0  3  0  0  0  0  0  0
  162.8950  207.4040  150.3370 N   0  0  0  0  0  2  0  0  0  0  0  0
  161.0240  206.6480  149.4920 C   0  0  2  0  0  0  0  0  0  0  0  0
  160.6670  204.4600  150.7900 C   0  0  0  0  0  1  0  0  0  0  0  0
  162.6980  205.1630  145.6660 O   0  0  0  0  0  0  0  0  0  0  0  0
  160.0820  206.6540  148.3210 C   0  0  0  0  0  2  0  0  0  0  0  0
  160.9140  203.0870  147.2300 O   0  0  0  0  0  1  0  0  0  0  0  0
  161.4700  211.2020  150.3250 C   0  0  0  0  0  0  0  0  0  0  0  0
  160.1230  213.2100  150.5530 C   0  0  0  0  0  3  0  0  0  0  0  0
  160.5750  211.9890  151.0660 C   0  0  0  0  0  3  0  0  0  0  0  0
  160.5600  213.6450  149.2990 C   0  0  0  0  0  3  0  0  0  0  0  0
  161.4450  212.8590  148.5550 C   0  0  0  0  0  3  0  0  0  0  0  0
  161.8970  211.6380  149.0660 C   0  0  0  0  0  3  0  0  0  0  0  0
  160.7900  209.8480  154.5550 O   0  0  0  0  0  0  0  0  0  0  0  0
  161.2280  207.6050  154.9910 N   0  0  0  0  0  1  0  0  0  0  0  0
  161.2720  208.7550  154.1490 C   0  0  0  0  0  0  0  0  0  0  0  0
  1 10  1  0  0  0  0
  2 14  1  0  0  0  0
  3 21  1  0  0  0  0
  3  9  1  0  0  0  0
  4  1  1  0  0  0  0
  5  6  1  0  0  0  0
  6  9  1  0  0  0  0
  7 12  1  0  0  0  0
  8  5  1  0  0  0  0
  9 19  1  0  0  0  0
 10 31  1  0  0  0  0
 11  5  1  0  0  0  0
 11  3  1  0  0  0  0
 12 11  1  0  0  0  0
 13  4  1  0  0  0  0
 13  2  1  0  0  0  0
 13  1  1  0  0  0  0
 14 10  1  0  0  0  0
 15 12  1  0  0  0  0
 16  6  1  0  0  0  0
 16 18  1  0  0  0  0
 16 17  1  0  0  0  0
 17  4  1  0  0  0  0
 18  9  1  0  0  0  0
 18  4  1  0  0  0  0
 20 12  1  0  0  0  0
 20  8  1  0  0  0  0
 21 18  1  0  0  0  0
 22 11  1  0  0  0  0
 23  2  1  0  0  0  0
 23 25  1  0  0  0  0
 24 25  2  0  0  0  0
 26 24  1  0  0  0  0
 27 28  1  0  0  0  0
 27 26  2  0  0  0  0
 28 23  2  0  0  0  0
 31 29  2  0  0  0  0
 31 30  1  0  0  0  0
M  END
>  <MODEL>
2

>  <REMARK>
 VINA RESULT:      -4.7      3.766      9.040
  Name = 
  2 active torsions:
  status: ('A' for Active; 'I' for Inactive)
    1  A    between atoms: C_1  and  C_3
    2  A    between atoms: C_15  and  C_29
                            x       y       z     vdW  Elec       q    Type
                         _______ _______ _______ _____ _____    ______ ____

>  <TORSDO>
F 2

$$$$
=
 OpenBabel11072412383D

 31 38  0  0  1  0  0  0  0  0999 V2000
  160.7260  210.2440  150.8400 C   0  0  1  0  0  3  0  0  0  0  0  0
  161.6810  208.5390  152.1260 C   0  0  2  0  0  3  0  0  0  0  0  0
  157.7250  212.2800  153.7540 C   0  0  2  0  0  3  0  0  0  0  0  0
  160.5430  210.7140  152.2110 C   0  0  1  0  0  0  0  0  0  0  0  0
  159.3050  213.1290  155.4460 N   0  0  2  0  0  0  0  0  0  0  0  0
  160.0960  212.8380  154.2320 C   0  0  2  0  0  3  0  0  0  0  0  0
  156.2560  212.7180  157.1310 C   0  0  0  0  0  1  0  0  0  0  0  0
  159.6370  212.2690  156.4560 O   0  0  0  0  0  0  0  0  0  0  0  0
  159.0670  212.6330  153.1430 C   0  0  1  0  0  0  0  0  0  0  0  0
  162.1890  210.0850  150.4950 C   0  0  1  0  0  3  0  0  0  0  0  0
  157.8880  212.8950  155.1750 C   0  0  2  0  0  0  0  0  0  0  0  0
  157.4580  212.1070  156.4190 C   0  0  0  0  0  0  0  0  0  0  0  0
  160.4240  209.2650  151.9030 N   0  0  1  0  0  0  0  0  0  0  0  0
  162.6190  208.8120  151.0420 N   0  0  0  0  0  2  0  0  0  0  0  0
  157.1430  210.6310  156.2160 C   0  0  0  0  0  1  0  0  0  0  0  0
  160.4550  211.3350  154.1220 C   0  0  2  0  0  3  0  0  0  0  0  0
  161.5700  211.0100  153.2030 N   0  0  0  0  0  2  0  0  0  0  0  0
  159.3960  211.1890  153.0270 C   0  0  2  0  0  0  0  0  0  0  0  0
  159.1140  213.4680  151.8730 C   0  0  0  0  0  1  0  0  0  0  0  0
  158.5750  212.2150  157.2600 O   0  0  0  0  0  0  0  0  0  0  0  0
  158.0550  210.7640  153.5530 C   0  0  0  0  0  2  0  0  0  0  0  0
  157.2560  214.1460  155.1450 O   0  0  0  0  0  1  0  0  0  0  0  0
  161.4120  207.0730  152.2420 C   0  0  0  0  0  0  0  0  0  0  0  0
  160.9370  204.9150  151.2310 C   0  0  0  0  0  3  0  0  0  0  0  0
  161.2250  206.2790  151.1000 C   0  0  0  0  0  3  0  0  0  0  0  0
  160.8340  204.3430  152.5020 C   0  0  0  0  0  3  0  0  0  0  0  0
  161.0140  205.1330  153.6420 C   0  0  0  0  0  3  0  0  0  0  0  0
  161.2990  206.4960  153.5120 C   0  0  0  0  0  3  0  0  0  0  0  0
  162.4790  209.0520  148.3520 O   0  0  0  0  0  0  0  0  0  0  0  0
  162.4390  211.3780  148.3460 N   0  0  0  0  0  1  0  0  0  0  0  0
  162.3910  210.1200  149.0170 C   0  0  0  0  0  0  0  0  0  0  0  0
  1 13  1  0  0  0  0
  1  4  1  0  0  0  0
  2 23  1  0  0  0  0
  3 11  1  0  0  0  0
  4 18  1  0  0  0  0
  4 17  1  0  0  0  0
  5  8  1  0  0  0  0
  6  5  1  0  0  0  0
  8 20  1  0  0  0  0
  9  3  1  0  0  0  0
  9  6  1  0  0  0  0
 10  1  1  0  0  0  0
 10 14  1  0  0  0  0
 11  5  1  0  0  0  0
 11 12  1  0  0  0  0
 12  7  1  0  0  0  0
 12 20  1  0  0  0  0
 13  2  1  0  0  0  0
 13  4  1  0  0  0  0
 14  2  1  0  0  0  0
 15 12  1  0  0  0  0
 16  6  1  0  0  0  0
 17 16  1  0  0  0  0
 18  9  1  0  0  0  0
 18 21  1  0  0  0  0
 18 16  1  0  0  0  0
 19  9  1  0  0  0  0
 21  3  1  0  0  0  0
 22 11  1  0  0  0  0
 23 28  1  0  0  0  0
 24 26  2  0  0  0  0
 25 24  1  0  0  0  0
 25 23  2  0  0  0  0
 26 27  1  0  0  0  0
 28 27  2  0  0  0  0
 29 31  2  0  0  0  0
 30 31  1  0  0  0  0
 31 10  1  0  0  0  0
M  END
>  <MODEL>
3

>  <REMARK>
 VINA RESULT:      -4.7      0.779      1.168
  Name = 
  2 active torsions:
  status: ('A' for Active; 'I' for Inactive)
    1  A    between atoms: C_1  and  C_3
    2  A    between atoms: C_15  and  C_29
                            x       y       z     vdW  Elec       q    Type
                         _______ _______ _______ _____ _____    ______ ____

>  <TORSDO>
F 2

$$$$
=
 OpenBabel11072412383D

 31 38  0  0  1  0  0  0  0  0999 V2000
  160.6760  207.5880  153.2930 C   0  0  1  0  0  3  0  0  0  0  0  0
  161.0250  209.7820  152.5590 C   0  0  2  0  0  3  0  0  0  0  0  0
  160.4800  205.1210  149.3530 C   0  0  2  0  0  3  0  0  0  0  0  0
  161.2860  207.4100  151.9770 C   0  0  1  0  0  0  0  0  0  0  0  0
  162.7690  205.4970  148.5170 N   0  0  2  0  0  0  0  0  0  0  0  0
  162.7790  205.8350  149.9560 C   0  0  2  0  0  3  0  0  0  0  0  0
  160.8280  204.8350  145.6710 C   0  0  0  0  0  1  0  0  0  0  0  0
  162.9640  206.6170  147.7570 O   0  0  0  0  0  0  0  0  0  0  0  0
  161.4710  205.2950  150.4880 C   0  0  1  0  0  0  0  0  0  0  0  0
  161.5980  208.3170  154.2420 C   0  0  1  0  0  3  0  0  0  0  0  0
  161.4510  204.9880  148.1440 C   0  0  2  0  0  0  0  0  0  0  0  0
  161.1810  205.7500  146.8400 C   0  0  0  0  0  0  0  0  0  0  0  0
  160.3390  208.5320  152.2080 N   0  0  1  0  0  0  0  0  0  0  0  0
  161.4860  209.7320  153.9420 N   0  0  0  0  0  2  0  0  0  0  0  0
  160.1070  206.8290  146.8900 C   0  0  0  0  0  1  0  0  0  0  0  0
  162.2490  207.2670  150.2170 C   0  0  2  0  0  3  0  0  0  0  0  0
  162.6030  207.8500  151.5320 N   0  0  0  0  0  2  0  0  0  0  0  0
  160.9450  206.6610  150.7410 C   0  0  2  0  0  0  0  0  0  0  0  0
  161.4590  204.3120  151.6470 C   0  0  0  0  0  1  0  0  0  0  0  0
  162.4150  206.3590  146.5700 O   0  0  0  0  0  0  0  0  0  0  0  0
  159.8860  206.5310  149.6830 C   0  0  0  0  0  2  0  0  0  0  0  0
  161.5890  203.6170  147.8900 O   0  0  0  0  0  1  0  0  0  0  0  0
  160.1110  210.9460  152.3430 C   0  0  0  0  0  0  0  0  0  0  0  0
  159.5790  213.0540  151.2590 C   0  0  0  0  0  3  0  0  0  0  0  0
  160.4300  211.9530  151.4190 C   0  0  0  0  0  3  0  0  0  0  0  0
  158.4130  213.1520  152.0220 C   0  0  0  0  0  3  0  0  0  0  0  0
  158.0970  212.1530  152.9480 C   0  0  0  0  0  3  0  0  0  0  0  0
  158.9470  211.0540  153.1110 C   0  0  0  0  0  3  0  0  0  0  0  0
  161.9490  208.4450  156.6090 O   0  0  0  0  0  0  0  0  0  0  0  0
  159.9990  207.3660  155.9420 N   0  0  0  0  0  1  0  0  0  0  0  0
  161.2210  208.0460  155.6600 C   0  0  0  0  0  0  0  0  0  0  0  0
  1 10  1  0  0  0  0
  2 14  1  0  0  0  0
  3 21  1  0  0  0  0
  3  9  1  0  0  0  0
  4 13  1  0  0  0  0
  4  1  1  0  0  0  0
  5  6  1  0  0  0  0
  6 16  1  0  0  0  0
  6  9  1  0  0  0  0
  7 12  1  0  0  0  0
  8  5  1  0  0  0  0
  9 18  1  0  0  0  0
  9 19  1  0  0  0  0
 10 31  1  0  0  0  0
 11  5  1  0  0  0  0
 11  3  1  0  0  0  0
 12 15  1  0  0  0  0
 12 11  1  0  0  0  0
 13  2  1  0  0  0  0
 13  1  1  0  0  0  0
 14 10  1  0  0  0  0
 16 18  1  0  0  0  0
 16 17  1  0  0  0  0
 17  4  1  0  0  0  0
 18  4  1  0  0  0  0
 20 12  1  0  0  0  0
 20  8  1  0  0  0  0
 21 18  1  0  0  0  0
 22 11  1  0  0  0  0
 23  2  1  0  0  0  0
 23 28  1  0  0  0  0
 24 25  1  0  0  0  0
 24 26  2  0  0  0  0
 25 23  2  0  0  0  0
 26 27  1  0  0  0  0
 27 28  2  0  0  0  0
 31 30  1  0  0  0  0
 31 29  2  0  0  0  0
M  END
>  <MODEL>
4

>  <REMARK>
 VINA RESULT:      -4.7      3.124      8.562
  Name = 
  2 active torsions:
  status: ('A' for Active; 'I' for Inactive)
    1  A    between atoms: C_1  and  C_3
    2  A    between atoms: C_15  and  C_29
                            x       y       z     vdW  Elec       q    Type
                         _______ _______ _______ _____ _____    ______ ____

>  <TORSDO>
F 2

$$$$
=
 OpenBabel11072412383D

 31 38  0  0  1  0  0  0  0  0999 V2000
  160.8910  209.4880  150.7240 C   0  0  1  0  0  3  0  0  0  0  0  0
  161.7690  207.7110  151.9660 C   0  0  2  0  0  3  0  0  0  0  0  0
  158.2810  211.8050  153.8010 C   0  0  2  0  0  3  0  0  0  0  0  0
  160.8400  209.9810  152.0980 C   0  0  1  0  0  0  0  0  0  0  0  0
  160.0390  212.5170  155.3780 N   0  0  2  0  0  0  0  0  0  0  0  0
  160.7190  212.1490  154.1190 C   0  0  2  0  0  3  0  0  0  0  0  0
  157.0820  212.3950  157.2610 C   0  0  0  0  0  1  0  0  0  0  0  0
  160.3570  211.6370  156.3740 O   0  0  0  0  0  0  0  0  0  0  0  0
  159.6080  212.0310  153.1000 C   0  0  1  0  0  0  0  0  0  0  0  0
  162.3070  209.1950  150.2870 C   0  0  1  0  0  3  0  0  0  0  0  0
  158.5920  212.4110  155.2010 C   0  0  2  0  0  0  0  0  0  0  0  0
  158.1750  211.6730  156.4800 C   0  0  0  0  0  0  0  0  0  0  0  0
  160.5720  208.5470  151.8160 N   0  0  1  0  0  0  0  0  0  0  0  0
  162.6560  207.8910  150.8210 N   0  0  0  0  0  2  0  0  0  0  0  0
  157.7150  210.2300  156.3150 C   0  0  0  0  0  1  0  0  0  0  0  0
  160.9330  210.6190  154.0040 C   0  0  2  0  0  3  0  0  0  0  0  0
  161.9520  210.1880  153.0190 N   0  0  0  0  0  2  0  0  0  0  0  0
  159.7970  210.5630  152.9810 C   0  0  2  0  0  0  0  0  0  0  0  0
  159.6460  212.8510  151.8210 C   0  0  0  0  0  1  0  0  0  0  0  0
  159.3490  211.6840  157.2460 O   0  0  0  0  0  0  0  0  0  0  0  0
  158.4590  210.2640  153.5980 C   0  0  0  0  0  2  0  0  0  0  0  0
  158.0740  213.7140  155.1970 O   0  0  0  0  0  1  0  0  0  0  0  0
  161.3780  206.2760  152.1160 C   0  0  0  0  0  0  0  0  0  0  0  0
  160.8180  204.3630  153.5050 C   0  0  0  0  0  3  0  0  0  0  0  0
  161.1470  205.7180  153.3830 C   0  0  0  0  0  3  0  0  0  0  0  0
  160.7230  203.5620  152.3630 C   0  0  0  0  0  3  0  0  0  0  0  0
  160.9590  204.1140  151.1000 C   0  0  0  0  0  3  0  0  0  0  0  0
  161.2900  205.4680  150.9770 C   0  0  0  0  0  3  0  0  0  0  0  0
  162.3020  210.2790  148.1500 O   0  0  0  0  0  0  0  0  0  0  0  0
  162.6930  207.9860  148.1100 N   0  0  0  0  0  1  0  0  0  0  0  0
  162.4150  209.2030  148.7990 C   0  0  0  0  0  0  0  0  0  0  0  0
  1 13  1  0  0  0  0
  1  4  1  0  0  0  0
  2 23  1  0  0  0  0
  3 11  1  0  0  0  0
  4 18  1  0  0  0  0
  4 17  1  0  0  0  0
  5  8  1  0  0  0  0
  6  5  1  0  0  0  0
  8 20  1  0  0  0  0
  9  3  1  0  0  0  0
  9  6  1  0  0  0  0
 10  1  1  0  0  0  0
 10 14  1  0  0  0  0
 11  5  1  0  0  0  0
 11 12  1  0  0  0  0
 12 20  1  0  0  0  0
 12  7  1  0  0  0  0
 13  2  1  0  0  0  0
 13  4  1  0  0  0  0
 14  2  1  0  0  0  0
 15 12  1  0  0  0  0
 16  6  1  0  0  0  0
 17 16  1  0  0  0  0
 18  9  1  0  0  0  0
 18 21  1  0  0  0  0
 18 16  1  0  0  0  0
 19  9  1  0  0  0  0
 21  3  1  0  0  0  0
 22 11  1  0  0  0  0
 23 25  1  0  0  0  0
 25 24  2  0  0  0  0
 26 24  1  0  0  0  0
 27 26  2  0  0  0  0
 28 27  1  0  0  0  0
 28 23  2  0  0  0  0
 29 31  2  0  0  0  0
 30 31  1  0  0  0  0
 31 10  1  0  0  0  0
M  END
>  <MODEL>
5

>  <REMARK>
 VINA RESULT:      -4.3      1.538      1.730
  Name = 
  2 active torsions:
  status: ('A' for Active; 'I' for Inactive)
    1  A    between atoms: C_1  and  C_3
    2  A    between atoms: C_15  and  C_29
                            x       y       z     vdW  Elec       q    Type
                         _______ _______ _______ _____ _____    ______ ____

>  <TORSDO>
F 2

$$$$
=
 OpenBabel11072412383D

 31 38  0  0  1  0  0  0  0  0999 V2000
  160.7850  208.8010  153.4680 C   0  0  1  0  0  3  0  0  0  0  0  0
  160.8760  210.8520  152.3470 C   0  0  2  0  0  3  0  0  0  0  0  0
  160.6880  205.6650  150.0330 C   0  0  2  0  0  3  0  0  0  0  0  0
  161.3570  208.4500  152.1710 C   0  0  1  0  0  0  0  0  0  0  0  0
  162.8910  206.1020  149.0140 N   0  0  2  0  0  0  0  0  0  0  0  0
  162.9240  206.6900  150.3700 C   0  0  2  0  0  3  0  0  0  0  0  0
  160.9160  204.7630  146.4430 C   0  0  0  0  0  1  0  0  0  0  0  0
  162.9380  207.0820  148.0620 O   0  0  0  0  0  0  0  0  0  0  0  0
  161.7010  206.1310  151.0610 C   0  0  1  0  0  0  0  0  0  0  0  0
  161.6650  209.7720  154.2230 C   0  0  1  0  0  3  0  0  0  0  0  0
  161.6190  205.4120  148.8110 C   0  0  2  0  0  0  0  0  0  0  0  0
  161.2190  205.9000  147.4130 C   0  0  0  0  0  0  0  0  0  0  0  0
  160.3100  209.5010  152.2580 N   0  0  1  0  0  0  0  0  0  0  0  0
  161.3950  211.0940  153.6890 N   0  0  0  0  0  2  0  0  0  0  0  0
  160.0420  206.8640  147.3370 C   0  0  0  0  0  1  0  0  0  0  0  0
  162.2590  208.0890  150.4090 C   0  0  2  0  0  3  0  0  0  0  0  0
  162.6030  208.9270  151.5810 N   0  0  0  0  0  2  0  0  0  0  0  0
  161.0470  207.4640  151.1040 C   0  0  2  0  0  0  0  0  0  0  0  0
  161.8370  205.3730  152.3720 C   0  0  0  0  0  1  0  0  0  0  0  0
  162.3710  206.5650  146.9710 O   0  0  0  0  0  0  0  0  0  0  0  0
  159.9650  207.0480  150.1480 C   0  0  0  0  0  2  0  0  0  0  0  0
  161.8870  204.0360  148.7910 O   0  0  0  0  0  1  0  0  0  0  0  0
  159.8390  211.8670  151.9860 C   0  0  0  0  0  0  0  0  0  0  0  0
  157.6730  212.9090  152.3430 C   0  0  0  0  0  3  0  0  0  0  0  0
  158.6480  211.9780  152.7200 C   0  0  0  0  0  3  0  0  0  0  0  0
  157.8850  213.7290  151.2310 C   0  0  0  0  0  3  0  0  0  0  0  0
  159.0670  213.6170  150.4940 C   0  0  0  0  0  3  0  0  0  0  0  0
  160.0420  212.6850  150.8690 C   0  0  0  0  0  3  0  0  0  0  0  0
  160.2730  209.2760  156.1100 O   0  0  0  0  0  0  0  0  0  0  0  0
  162.3730  210.1420  156.6120 N   0  0  0  0  0  1  0  0  0  0  0  0
  161.3740  209.7220  155.6860 C   0  0  0  0  0  0  0  0  0  0  0  0
  1 10  1  0  0  0  0
  2 14  1  0  0  0  0
  3 21  1  0  0  0  0
  3  9  1  0  0  0  0
  4 13  1  0  0  0  0
  4  1  1  0  0  0  0
  5  6  1  0  0  0  0
  6 16  1  0  0  0  0
  6  9  1  0  0  0  0
  7 12  1  0  0  0  0
  8  5  1  0  0  0  0
  9 18  1  0  0  0  0
  9 19  1  0  0  0  0
 10 31  1  0  0  0  0
 11  5  1  0  0  0  0
 11  3  1  0  0  0  0
 12 11  1  0  0  0  0
 13  2  1  0  0  0  0
 13  1  1  0  0  0  0
 14 10  1  0  0  0  0
 15 12  1  0  0  0  0
 16 18  1  0  0  0  0
 16 17  1  0  0  0  0
 17  4  1  0  0  0  0
 18  4  1  0  0  0  0
 20 12  1  0  0  0  0
 20  8  1  0  0  0  0
 21 18  1  0  0  0  0
 22 11  1  0  0  0  0
 23  2  1  0  0  0  0
 23 25  1  0  0  0  0
 24 25  2  0  0  0  0
 26 24  1  0  0  0  0
 27 28  1  0  0  0  0
 27 26  2  0  0  0  0
 28 23  2  0  0  0  0
 31 29  2  0  0  0  0
 31 30  1  0  0  0  0
M  END
>  <MODEL>
6

>  <REMARK>
 VINA RESULT:      -3.8      2.736      8.212
  Name = 
  2 active torsions:
  status: ('A' for Active; 'I' for Inactive)
    1  A    between atoms: C_1  and  C_3
    2  A    between atoms: C_15  and  C_29
                            x       y       z     vdW  Elec       q    Type
                         _______ _______ _______ _____ _____    ______ ____

>  <TORSDO>
F 2

$$$$
=
 OpenBabel11072412383D

 31 38  0  0  1  0  0  0  0  0999 V2000
  160.9190  207.9610  149.8400 C   0  0  1  0  0  3  0  0  0  0  0  0
  161.8920  206.0320  150.7350 C   0  0  2  0  0  3  0  0  0  0  0  0
  159.7310  210.4440  153.5920 C   0  0  2  0  0  3  0  0  0  0  0  0
  161.3640  208.3920  151.1630 C   0  0  1  0  0  0  0  0  0  0  0  0
  161.9700  210.8530  154.5400 N   0  0  2  0  0  0  0  0  0  0  0  0
  162.1700  210.4610  153.1300 C   0  0  2  0  0  3  0  0  0  0  0  0
  159.7560  211.0180  157.2560 C   0  0  0  0  0  1  0  0  0  0  0  0
  162.4600  209.8940  155.3830 O   0  0  0  0  0  0  0  0  0  0  0  0
  160.7920  210.5320  152.5120 C   0  0  1  0  0  0  0  0  0  0  0  0
  162.0770  207.5120  148.9800 C   0  0  1  0  0  3  0  0  0  0  0  0
  160.5390  210.9400  154.8270 C   0  0  2  0  0  0  0  0  0  0  0  0
  160.4450  210.2000  156.1680 C   0  0  0  0  0  0  0  0  0  0  0  0
  160.8310  207.0180  150.9730 N   0  0  1  0  0  0  0  0  0  0  0  0
  162.3950  206.1510  149.3710 N   0  0  0  0  0  2  0  0  0  0  0  0
  159.7660  208.8370  156.1490 C   0  0  0  0  0  1  0  0  0  0  0  0
  162.1290  208.9230  152.9460 C   0  0  2  0  0  3  0  0  0  0  0  0
  162.7240  208.4140  151.6890 N   0  0  0  0  0  2  0  0  0  0  0  0
  160.7350  209.0590  152.3320 C   0  0  2  0  0  0  0  0  0  0  0  0
  160.5420  211.3990  151.2880 C   0  0  0  0  0  1  0  0  0  0  0  0
  161.7890  210.0270  156.5270 O   0  0  0  0  0  0  0  0  0  0  0  0
  159.6280  208.9030  153.3360 C   0  0  0  0  0  2  0  0  0  0  0  0
  160.2270  212.2960  154.9920 O   0  0  0  0  0  1  0  0  0  0  0  0
  161.3760  204.6520  150.9940 C   0  0  0  0  0  0  0  0  0  0  0  0
  160.7280  202.8810  152.5250 C   0  0  0  0  0  3  0  0  0  0  0  0
  161.1750  204.1890  152.3030 C   0  0  0  0  0  3  0  0  0  0  0  0
  160.4840  202.0330  151.4420 C   0  0  0  0  0  3  0  0  0  0  0  0
  160.6910  202.4900  150.1360 C   0  0  0  0  0  3  0  0  0  0  0  0
  161.1390  203.7960  149.9130 C   0  0  0  0  0  3  0  0  0  0  0  0
  161.0530  208.5460  147.0760 O   0  0  0  0  0  0  0  0  0  0  0  0
  162.1700  206.5500  146.6530 N   0  0  0  0  0  1  0  0  0  0  0  0
  161.7170  207.5760  147.5330 C   0  0  0  0  0  0  0  0  0  0  0  0
  1 13  1  0  0  0  0
  1  4  1  0  0  0  0
  2 13  1  0  0  0  0
  2 23  1  0  0  0  0
  3 11  1  0  0  0  0
  4 17  1  0  0  0  0
  4 18  1  0  0  0  0
  5 11  1  0  0  0  0
  5  8  1  0  0  0  0
  6  5  1  0  0  0  0
  8 20  1  0  0  0  0
  9  6  1  0  0  0  0
  9  3  1  0  0  0  0
 10 14  1  0  0  0  0
 10  1  1  0  0  0  0
 11 22  1  0  0  0  0
 11 12  1  0  0  0  0
 12 20  1  0  0  0  0
 12  7  1  0  0  0  0
 13  4  1  0  0  0  0
 14  2  1  0  0  0  0
 15 12  1  0  0  0  0
 16  6  1  0  0  0  0
 17 16  1  0  0  0  0
 18  9  1  0  0  0  0
 18 16  1  0  0  0  0
 18 21  1  0  0  0  0
 19  9  1  0  0  0  0
 21  3  1  0  0  0  0
 23 25  1  0  0  0  0
 25 24  2  0  0  0  0
 26 24  1  0  0  0  0
 27 26  2  0  0  0  0
 28 27  1  0  0  0  0
 28 23  2  0  0  0  0
 29 31  2  0  0  0  0
 30 31  1  0  0  0  0
 31 10  1  0  0  0  0
M  END
>  <MODEL>
7

>  <REMARK>
 VINA RESULT:      -3.0      2.759      3.848
  Name = 
  2 active torsions:
  status: ('A' for Active; 'I' for Inactive)
    1  A    between atoms: C_1  and  C_3
    2  A    between atoms: C_15  and  C_29
                            x       y       z     vdW  Elec       q    Type
                         _______ _______ _______ _____ _____    ______ ____

>  <TORSDO>
F 2

$$$$
