=
 OpenBabel11072413053D

 37 41  0  0  1  0  0  0  0  0999 V2000
  161.6210  208.0670  149.0660 C   0  0  0  0  0  0  0  0  0  0  0  0
  162.1990  206.3800  146.0800 F   0  0  0  0  0  0  0  0  0  0  0  0
  160.9630  207.5950  147.8030 C   0  0  0  0  0  2  0  0  0  0  0  0
  160.8740  206.0150  150.2620 C   0  0  0  0  0  3  0  0  0  0  0  0
  161.5120  205.1900  147.9750 C   0  0  0  0  0  0  0  0  0  0  0  0
  161.6000  206.3450  147.2980 C   0  0  0  0  0  0  0  0  0  0  0  0
  161.5300  207.3450  150.2020 C   0  0  0  0  0  0  0  0  0  0  0  0
  160.8710  205.0810  149.3010 C   0  0  0  0  0  3  0  0  0  0  0  0
  161.7500  210.4910  148.6370 C   0  0  0  0  0  3  0  0  0  0  0  0
  162.3210  209.3680  149.0610 C   0  0  0  0  0  3  0  0  0  0  0  0
  162.5030  211.7840  148.6520 C   0  0  1  0  0  3  0  0  0  0  0  0
  163.5400  211.7620  147.5360 C   0  0  0  0  0  1  0  0  0  0  0  0
  160.3250  212.5890  147.6190 C   0  0  0  0  0  2  0  0  0  0  0  0
  160.8140  212.8230  143.7510 C   0  0  0  0  0  0  0  0  0  0  0  0
  161.5490  212.9770  148.4860 C   0  0  2  0  0  3  0  0  0  0  0  0
  161.6760  213.6870  144.3340 N   0  0  0  0  0  0  0  0  0  0  0  0
  162.3390  214.4530  146.6140 C   0  0  0  0  0  3  0  0  0  0  0  0
  160.7090  212.6990  142.5040 O   0  0  0  0  0  0  0  0  0  0  0  0
  159.8940  211.9510  144.8680 S   0  0  0  0  0  0  0  0  0  0  0  0
  160.6610  212.6960  146.1650 C   0  0  1  0  0  3  0  0  0  0  0  0
  161.5800  213.6100  145.6850 C   0  0  0  0  0  0  0  0  0  0  0  0
  162.2840  214.1890  147.9270 C   0  0  0  0  0  3  0  0  0  0  0  0
  161.2680  202.7930  147.8860 N   0  0  0  0  0  1  0  0  0  0  0  0
  161.9960  203.9280  147.3430 C   0  0  0  0  0  2  0  0  0  0  0  0
  162.0580  207.9070  151.4970 C   0  0  1  0  0  3  0  0  0  0  0  0
  162.6640  209.1410  151.2480 O   0  0  0  0  0  1  0  0  0  0  0  0
  160.3590  210.2870  155.2710 O   0  0  0  0  0  0  0  0  0  0  0  0
  160.6390  209.3580  154.5310 C   0  0  0  0  0  0  0  0  0  0  0  0
  160.7610  209.5010  153.0560 C   0  0  0  0  0  0  0  0  0  0  0  0
  162.1480  206.2200  153.9150 F   0  0  0  0  0  0  0  0  0  0  0  0
  161.8430  210.3160  152.7630 F   0  0  0  0  0  0  0  0  0  0  0  0
  160.0270  206.9610  154.5810 O   0  0  0  0  0  0  0  0  0  0  0  0
  160.9530  208.0580  152.5560 C   0  0  2  0  0  3  0  0  0  0  0  0
  159.6030  210.0350  152.5230 F   0  0  0  0  0  0  0  0  0  0  0  0
  161.1830  207.2060  153.8130 C   0  0  2  0  0  0  0  0  0  0  0  0
  161.7460  207.7010  156.0740 F   0  0  0  0  0  0  0  0  0  0  0  0
  160.8900  207.9860  155.0240 C   0  0  1  0  0  0  0  0  0  0  0  0
  1  7  2  0  0  0  0
  2  6  1  0  0  0  0
  3  1  1  0  0  0  0
  5  8  1  0  0  0  0
  6  3  1  0  0  0  0
  6  5  2  0  0  0  0
  7  4  1  0  0  0  0
  7 25  1  0  0  0  0
  8  4  2  0  0  0  0
  9 11  1  0  0  0  0
  9 10  2  0  0  0  0
 10  1  1  0  0  0  0
 11 12  1  6  0  0  0
 13 15  1  0  0  0  0
 14 16  1  0  0  0  0
 14 19  1  0  0  0  0
 15 11  1  6  0  0  0
 16 21  2  0  0  0  0
 17 22  2  0  0  0  0
 18 14  2  0  0  0  0
 19 20  1  0  0  0  0
 20 13  1  1  0  0  0
 21 20  1  0  0  0  0
 21 17  1  0  0  0  0
 22 15  1  0  0  0  0
 24 23  1  0  0  0  0
 24  5  1  0  0  0  0
 25 26  1  6  0  0  0
 28 37  1  0  0  0  0
 28 27  2  0  0  0  0
 29 28  1  0  0  0  0
 31 29  1  0  0  0  0
 32 37  1  0  0  0  0
 33 25  1  6  0  0  0
 33 29  1  0  0  0  0
 33 35  1  0  0  0  0
 34 29  1  0  0  0  0
 35 30  1  1  0  0  0
 35 32  1  0  0  0  0
 35 37  1  0  0  0  0
 37 36  1  1  0  0  0
M  END
>  <MODEL>
1

>  <REMARK>
 VINA RESULT:      -9.1      0.000      0.000
  Name = 
  6 active torsions:
  status: ('A' for Active; 'I' for Inactive)
    1  A    between atoms: C_1  and  C_9
    2  A    between atoms: C_6  and  C_8
    3  A    between atoms: C_7  and  C_8
    4  A    between atoms: C_20  and  C_23
    5  A    between atoms: C_26  and  C_28
    6  A    between atoms: C_26  and  C_31
                            x       y       z     vdW  Elec       q    Type
                         _______ _______ _______ _____ _____    ______ ____

>  <TORSDO>
F 6

$$$$
=
 OpenBabel11072413053D

 37 41  0  0  1  0  0  0  0  0999 V2000
  161.5860  208.4050  148.9140 C   0  0  0  0  0  0  0  0  0  0  0  0
  162.2790  206.5570  146.0500 F   0  0  0  0  0  0  0  0  0  0  0  0
  160.9700  207.8360  147.6700 C   0  0  0  0  0  2  0  0  0  0  0  0
  160.8760  206.4060  150.2200 C   0  0  0  0  0  3  0  0  0  0  0  0
  161.5880  205.4640  148.0000 C   0  0  0  0  0  0  0  0  0  0  0  0
  161.6550  206.5780  147.2560 C   0  0  0  0  0  0  0  0  0  0  0  0
  161.4930  207.7500  150.0910 C   0  0  0  0  0  0  0  0  0  0  0  0
  160.9220  205.4160  149.3180 C   0  0  0  0  0  3  0  0  0  0  0  0
  161.6880  210.7780  148.2570 C   0  0  0  0  0  3  0  0  0  0  0  0
  162.2470  209.7240  148.8430 C   0  0  0  0  0  3  0  0  0  0  0  0
  162.3990  212.0930  148.2110 C   0  0  1  0  0  3  0  0  0  0  0  0
  163.8690  211.8470  147.8920 C   0  0  0  0  0  1  0  0  0  0  0  0
  161.0150  214.1940  147.8560 C   0  0  0  0  0  2  0  0  0  0  0  0
  157.3530  213.4570  148.9970 C   0  0  0  0  0  0  0  0  0  0  0  0
  161.7630  213.0250  147.1680 C   0  0  2  0  0  3  0  0  0  0  0  0
  157.6450  212.6270  147.9700 N   0  0  0  0  0  0  0  0  0  0  0  0
  159.5430  212.1050  146.4370 C   0  0  0  0  0  3  0  0  0  0  0  0
  156.2260  213.4830  149.5550 O   0  0  0  0  0  0  0  0  0  0  0  0
  158.6460  214.4530  149.4320 S   0  0  0  0  0  0  0  0  0  0  0  0
  159.6400  213.7650  148.2640 C   0  0  1  0  0  3  0  0  0  0  0  0
  158.9270  212.8100  147.5660 C   0  0  0  0  0  0  0  0  0  0  0  0
  160.8590  212.2450  146.2210 C   0  0  0  0  0  3  0  0  0  0  0  0
  161.3730  203.0630  148.0030 N   0  0  0  0  0  1  0  0  0  0  0  0
  162.1230  204.1810  147.4570 C   0  0  0  0  0  2  0  0  0  0  0  0
  161.9760  208.4070  151.3590 C   0  0  1  0  0  3  0  0  0  0  0  0
  162.3410  209.7270  151.0820 O   0  0  0  0  0  1  0  0  0  0  0  0
  160.3230  210.2320  155.4490 O   0  0  0  0  0  0  0  0  0  0  0  0
  160.6200  209.4120  154.5950 C   0  0  0  0  0  0  0  0  0  0  0  0
  160.6650  209.7290  153.1430 C   0  0  0  0  0  0  0  0  0  0  0  0
  162.2760  206.4640  153.5590 F   0  0  0  0  0  0  0  0  0  0  0  0
  161.6830  210.6380  152.9030 F   0  0  0  0  0  0  0  0  0  0  0  0
  160.1490  206.9920  154.3900 O   0  0  0  0  0  0  0  0  0  0  0  0
  160.9150  208.3670  152.4720 C   0  0  2  0  0  3  0  0  0  0  0  0
  159.4540  210.2480  152.7230 F   0  0  0  0  0  0  0  0  0  0  0  0
  161.2510  207.3930  153.6110 C   0  0  2  0  0  0  0  0  0  0  0  0
  161.8910  207.6630  155.8890 F   0  0  0  0  0  0  0  0  0  0  0  0
  160.9720  208.0120  154.9150 C   0  0  1  0  0  0  0  0  0  0  0  0
  1  7  2  0  0  0  0
  2  6  1  0  0  0  0
  3  1  1  0  0  0  0
  5  8  1  0  0  0  0
  6  3  1  0  0  0  0
  6  5  2  0  0  0  0
  7  4  1  0  0  0  0
  7 25  1  0  0  0  0
  8  4  2  0  0  0  0
  9 10  2  0  0  0  0
 10  1  1  0  0  0  0
 11 12  1  6  0  0  0
 11  9  1  0  0  0  0
 14 19  1  0  0  0  0
 14 18  2  0  0  0  0
 15 13  1  0  0  0  0
 15 11  1  1  0  0  0
 16 14  1  0  0  0  0
 17 21  1  0  0  0  0
 20 13  1  6  0  0  0
 20 19  1  0  0  0  0
 21 16  2  0  0  0  0
 21 20  1  0  0  0  0
 22 17  2  0  0  0  0
 22 15  1  0  0  0  0
 24  5  1  0  0  0  0
 24 23  1  0  0  0  0
 25 26  1  6  0  0  0
 28 37  1  0  0  0  0
 28 27  2  0  0  0  0
 29 28  1  0  0  0  0
 31 29  1  0  0  0  0
 32 37  1  0  0  0  0
 33 25  1  6  0  0  0
 33 29  1  0  0  0  0
 33 35  1  0  0  0  0
 34 29  1  0  0  0  0
 35 30  1  6  0  0  0
 35 32  1  0  0  0  0
 35 37  1  0  0  0  0
 37 36  1  1  0  0  0
M  END
>  <MODEL>
2

>  <REMARK>
 VINA RESULT:      -8.7      2.016      2.427
  Name = 
  6 active torsions:
  status: ('A' for Active; 'I' for Inactive)
    1  A    between atoms: C_1  and  C_9
    2  A    between atoms: C_6  and  C_8
    3  A    between atoms: C_7  and  C_8
    4  A    between atoms: C_20  and  C_23
    5  A    between atoms: C_26  and  C_28
    6  A    between atoms: C_26  and  C_31
                            x       y       z     vdW  Elec       q    Type
                         _______ _______ _______ _____ _____    ______ ____

>  <TORSDO>
F 6

$$$$
=
 OpenBabel11072413053D

 37 41  0  0  1  0  0  0  0  0999 V2000
  161.9520  209.2970  150.5890 C   0  0  0  0  0  0  0  0  0  0  0  0
  161.2330  211.3660  153.2900 F   0  0  0  0  0  0  0  0  0  0  0  0
  162.5470  209.9300  151.8110 C   0  0  0  0  0  2  0  0  0  0  0  0
  161.4750  207.2090  151.8610 C   0  0  0  0  0  3  0  0  0  0  0  0
  160.9620  209.0510  153.4940 C   0  0  0  0  0  0  0  0  0  0  0  0
  161.5220  210.1040  152.8810 C   0  0  0  0  0  0  0  0  0  0  0  0
  161.5030  208.0240  150.6200 C   0  0  0  0  0  0  0  0  0  0  0  0
  161.2350  207.6520  153.1020 C   0  0  0  0  0  3  0  0  0  0  0  0
  161.9290  211.3990  149.3010 C   0  0  0  0  0  3  0  0  0  0  0  0
  161.9180  210.0700  149.3300 C   0  0  0  0  0  3  0  0  0  0  0  0
  161.8930  212.1360  148.0000 C   0  0  1  0  0  3  0  0  0  0  0  0
  160.7640  211.5720  147.1470 C   0  0  0  0  0  1  0  0  0  0  0  0
  160.9480  213.9110  149.5530 C   0  0  0  0  0  2  0  0  0  0  0  0
  157.0500  213.7510  149.3720 C   0  0  0  0  0  0  0  0  0  0  0  0
  161.7050  213.6430  148.2280 C   0  0  2  0  0  3  0  0  0  0  0  0
  157.5120  214.0690  148.1410 N   0  0  0  0  0  0  0  0  0  0  0  0
  159.6840  214.4530  146.9740 C   0  0  0  0  0  3  0  0  0  0  0  0
  155.8250  213.6630  149.6400 O   0  0  0  0  0  0  0  0  0  0  0  0
  158.2840  213.5040  150.4990 S   0  0  0  0  0  0  0  0  0  0  0  0
  159.4720  213.7900  149.3450 C   0  0  1  0  0  3  0  0  0  0  0  0
  158.8690  214.0910  148.1380 C   0  0  0  0  0  0  0  0  0  0  0  0
  161.0140  214.2920  147.0340 C   0  0  0  0  0  3  0  0  0  0  0  0
  160.1570  208.1150  155.5650 N   0  0  0  0  0  1  0  0  0  0  0  0
  160.0900  209.2700  154.6850 C   0  0  0  0  0  2  0  0  0  0  0  0
  161.0560  207.3510  149.3480 C   0  0  1  0  0  3  0  0  0  0  0  0
  161.3320  208.1880  148.2640 O   0  0  0  0  0  1  0  0  0  0  0  0
  161.4110  203.3430  146.7780 O   0  0  0  0  0  0  0  0  0  0  0  0
  161.3770  204.0870  147.7450 C   0  0  0  0  0  0  0  0  0  0  0  0
  161.7790  205.5180  147.6840 C   0  0  0  0  0  0  0  0  0  0  0  0
  160.0810  205.0350  150.8950 F   0  0  0  0  0  0  0  0  0  0  0  0
  160.8920  206.2090  146.8740 F   0  0  0  0  0  0  0  0  0  0  0  0
  161.8610  203.7100  150.1420 O   0  0  0  0  0  0  0  0  0  0  0  0
  161.7290  205.9820  149.1500 C   0  0  2  0  0  3  0  0  0  0  0  0
  163.0660  205.6400  147.1940 F   0  0  0  0  0  0  0  0  0  0  0  0
  161.0520  204.8440  149.9270 C   0  0  2  0  0  0  0  0  0  0  0  0
  159.7540  202.9480  149.2990 F   0  0  0  0  0  0  0  0  0  0  0  0
  160.9290  203.6460  149.0830 C   0  0  1  0  0  0  0  0  0  0  0  0
  1  7  2  0  0  0  0
  1  3  1  0  0  0  0
  3  6  1  0  0  0  0
  4  8  2  0  0  0  0
  5 24  1  0  0  0  0
  6  2  1  0  0  0  0
  6  5  2  0  0  0  0
  7  4  1  0  0  0  0
  8  5  1  0  0  0  0
  9 10  2  0  0  0  0
 10  1  1  0  0  0  0
 11 12  1  6  0  0  0
 11  9  1  0  0  0  0
 14 18  2  0  0  0  0
 14 19  1  0  0  0  0
 15 11  1  6  0  0  0
 15 13  1  0  0  0  0
 16 14  1  0  0  0  0
 17 22  2  0  0  0  0
 17 21  1  0  0  0  0
 20 13  1  1  0  0  0
 20 19  1  0  0  0  0
 21 16  2  0  0  0  0
 21 20  1  0  0  0  0
 22 15  1  0  0  0  0
 24 23  1  0  0  0  0
 25 26  1  6  0  0  0
 25  7  1  0  0  0  0
 27 28  2  0  0  0  0
 28 37  1  0  0  0  0
 29 28  1  0  0  0  0
 29 33  1  0  0  0  0
 31 29  1  0  0  0  0
 33 25  1  6  0  0  0
 33 35  1  0  0  0  0
 34 29  1  0  0  0  0
 35 32  1  0  0  0  0
 35 30  1  1  0  0  0
 37 36  1  1  0  0  0
 37 35  1  0  0  0  0
 37 32  1  0  0  0  0
M  END
>  <MODEL>
3

>  <REMARK>
 VINA RESULT:      -8.7      3.383      5.754
  Name = 
  6 active torsions:
  status: ('A' for Active; 'I' for Inactive)
    1  A    between atoms: C_1  and  C_9
    2  A    between atoms: C_6  and  C_8
    3  A    between atoms: C_7  and  C_8
    4  A    between atoms: C_20  and  C_23
    5  A    between atoms: C_26  and  C_28
    6  A    between atoms: C_26  and  C_31
                            x       y       z     vdW  Elec       q    Type
                         _______ _______ _______ _____ _____    ______ ____

>  <TORSDO>
F 6

$$$$
=
 OpenBabel11072413053D

 37 41  0  0  1  0  0  0  0  0999 V2000
  159.6190  212.5960  152.6610 C   0  0  0  0  0  0  0  0  0  0  0  0
  156.2210  213.2520  153.0050 F   0  0  0  0  0  0  0  0  0  0  0  0
  158.6330  213.5590  153.2520 C   0  0  0  0  0  2  0  0  0  0  0  0
  159.7570  211.3600  154.8190 C   0  0  0  0  0  3  0  0  0  0  0  0
  157.3250  211.9620  154.6150 C   0  0  0  0  0  0  0  0  0  0  0  0
  157.3650  212.8690  153.6280 C   0  0  0  0  0  0  0  0  0  0  0  0
  160.1600  211.6140  153.4130 C   0  0  0  0  0  0  0  0  0  0  0  0
  158.5300  211.5050  155.3370 C   0  0  0  0  0  3  0  0  0  0  0  0
  159.7090  213.8460  150.5390 C   0  0  0  0  0  3  0  0  0  0  0  0
  160.0340  212.7740  151.2540 C   0  0  0  0  0  3  0  0  0  0  0  0
  160.1530  213.9800  149.1170 C   0  0  1  0  0  3  0  0  0  0  0  0
  161.6320  214.3460  149.0960 C   0  0  0  0  0  1  0  0  0  0  0  0
  161.1390  212.2960  147.4900 C   0  0  0  0  0  2  0  0  0  0  0  0
  161.4150  213.9940  143.9840 C   0  0  0  0  0  0  0  0  0  0  0  0
  159.9020  212.6800  148.3390 C   0  0  2  0  0  3  0  0  0  0  0  0
  160.1070  213.9550  144.3270 N   0  0  0  0  0  0  0  0  0  0  0  0
  158.6660  213.1800  146.2100 C   0  0  0  0  0  3  0  0  0  0  0  0
  161.8190  214.4510  142.8840 O   0  0  0  0  0  0  0  0  0  0  0  0
  162.4310  213.3540  145.1720 S   0  0  0  0  0  0  0  0  0  0  0  0
  161.1320  213.0380  146.1910 C   0  0  1  0  0  3  0  0  0  0  0  0
  159.9600  213.4150  145.5630 C   0  0  0  0  0  0  0  0  0  0  0  0
  158.6390  212.7870  147.4920 C   0  0  0  0  0  3  0  0  0  0  0  0
  155.9010  211.5950  156.5260 N   0  0  0  0  0  1  0  0  0  0  0  0
  156.0070  211.4420  155.0850 C   0  0  0  0  0  2  0  0  0  0  0  0
  161.2650  210.7570  152.8510 C   0  0  1  0  0  3  0  0  0  0  0  0
  162.3090  210.6890  153.7770 O   0  0  0  0  0  1  0  0  0  0  0  0
  161.6120  206.0470  153.5540 O   0  0  0  0  0  0  0  0  0  0  0  0
  161.4700  207.1140  152.9790 C   0  0  0  0  0  0  0  0  0  0  0  0
  160.9150  208.3260  153.6390 C   0  0  0  0  0  0  0  0  0  0  0  0
  162.3520  209.4260  150.4530 F   0  0  0  0  0  0  0  0  0  0  0  0
  161.7880  208.7510  154.6280 F   0  0  0  0  0  0  0  0  0  0  0  0
  160.8130  207.6710  150.6600 O   0  0  0  0  0  0  0  0  0  0  0  0
  160.7750  209.3430  152.4930 C   0  0  2  0  0  3  0  0  0  0  0  0
  159.6730  208.0550  154.1840 F   0  0  0  0  0  0  0  0  0  0  0  0
  161.5030  208.7240  151.2910 C   0  0  2  0  0  0  0  0  0  0  0  0
  163.0630  206.9420  151.0340 F   0  0  0  0  0  0  0  0  0  0  0  0
  161.8400  207.3190  151.5620 C   0  0  1  0  0  0  0  0  0  0  0  0
  1  3  1  0  0  0  0
  1  7  2  0  0  0  0
  2  6  1  0  0  0  0
  3  6  1  0  0  0  0
  4  8  2  0  0  0  0
  5 24  1  0  0  0  0
  5  8  1  0  0  0  0
  6  5  2  0  0  0  0
  7  4  1  0  0  0  0
  9 10  2  0  0  0  0
 10  1  1  0  0  0  0
 11 12  1  1  0  0  0
 11  9  1  0  0  0  0
 13 15  1  0  0  0  0
 14 16  1  0  0  0  0
 14 19  1  0  0  0  0
 15 11  1  6  0  0  0
 16 21  2  0  0  0  0
 17 22  2  0  0  0  0
 18 14  2  0  0  0  0
 19 20  1  0  0  0  0
 20 13  1  6  0  0  0
 21 20  1  0  0  0  0
 21 17  1  0  0  0  0
 22 15  1  0  0  0  0
 24 23  1  0  0  0  0
 25  7  1  0  0  0  0
 25 26  1  1  0  0  0
 28 27  2  0  0  0  0
 28 29  1  0  0  0  0
 29 34  1  0  0  0  0
 29 31  1  0  0  0  0
 32 35  1  0  0  0  0
 32 37  1  0  0  0  0
 33 25  1  1  0  0  0
 33 29  1  0  0  0  0
 35 30  1  6  0  0  0
 35 37  1  0  0  0  0
 35 33  1  0  0  0  0
 37 36  1  6  0  0  0
 37 28  1  0  0  0  0
M  END
>  <MODEL>
4

>  <REMARK>
 VINA RESULT:      -8.5      3.373      5.737
  Name = 
  6 active torsions:
  status: ('A' for Active; 'I' for Inactive)
    1  A    between atoms: C_1  and  C_9
    2  A    between atoms: C_6  and  C_8
    3  A    between atoms: C_7  and  C_8
    4  A    between atoms: C_20  and  C_23
    5  A    between atoms: C_26  and  C_28
    6  A    between atoms: C_26  and  C_31
                            x       y       z     vdW  Elec       q    Type
                         _______ _______ _______ _____ _____    ______ ____

>  <TORSDO>
F 6

$$$$
=
 OpenBabel11072413053D

 37 41  0  0  1  0  0  0  0  0999 V2000
  161.8740  209.1450  152.0650 C   0  0  0  0  0  0  0  0  0  0  0  0
  159.3630  210.6880  153.9110 F   0  0  0  0  0  0  0  0  0  0  0  0
  161.6240  210.0740  153.2150 C   0  0  0  0  0  2  0  0  0  0  0  0
  162.0430  207.2080  153.6200 C   0  0  0  0  0  3  0  0  0  0  0  0
  160.1800  208.5980  154.5770 C   0  0  0  0  0  0  0  0  0  0  0  0
  160.3420  209.7470  153.9040 C   0  0  0  0  0  0  0  0  0  0  0  0
  162.1100  207.8330  152.2750 C   0  0  0  0  0  0  0  0  0  0  0  0
  161.2050  207.5350  154.6130 C   0  0  0  0  0  3  0  0  0  0  0  0
  162.0120  211.0040  150.4520 C   0  0  0  0  0  3  0  0  0  0  0  0
  161.9170  209.7010  150.6960 C   0  0  0  0  0  3  0  0  0  0  0  0
  162.0510  211.5180  149.0480 C   0  0  1  0  0  3  0  0  0  0  0  0
  161.5800  210.4160  148.1080 C   0  0  0  0  0  1  0  0  0  0  0  0
  160.1010  212.5690  147.8040 C   0  0  0  0  0  2  0  0  0  0  0  0
  161.2250  213.2740  144.1300 C   0  0  0  0  0  0  0  0  0  0  0  0
  161.1780  212.7730  148.8980 C   0  0  2  0  0  3  0  0  0  0  0  0
  162.0090  214.0060  144.9540 N   0  0  0  0  0  0  0  0  0  0  0  0
  162.3140  214.4330  147.3940 C   0  0  0  0  0  3  0  0  0  0  0  0
  161.3230  213.3180  142.8780 O   0  0  0  0  0  0  0  0  0  0  0  0
  160.1060  212.3170  144.9580 S   0  0  0  0  0  0  0  0  0  0  0  0
  160.6740  212.8450  146.4490 C   0  0  1  0  0  3  0  0  0  0  0  0
  161.6900  213.7610  146.2500 C   0  0  0  0  0  0  0  0  0  0  0  0
  162.0360  214.0050  148.6340 C   0  0  0  0  0  3  0  0  0  0  0  0
  159.0540  207.1440  156.1350 N   0  0  0  0  0  1  0  0  0  0  0  0
  158.9560  208.3980  155.4070 C   0  0  0  0  0  2  0  0  0  0  0  0
  162.5160  206.9460  151.1270 C   0  0  1  0  0  3  0  0  0  0  0  0
  163.4020  205.9710  151.5900 O   0  0  0  0  0  1  0  0  0  0  0  0
  160.5190  202.9890  149.3520 O   0  0  0  0  0  0  0  0  0  0  0  0
  160.8310  204.1620  149.4710 C   0  0  0  0  0  0  0  0  0  0  0  0
  161.1360  204.7940  150.7830 C   0  0  0  0  0  0  0  0  0  0  0  0
  162.2200  207.1550  148.1980 F   0  0  0  0  0  0  0  0  0  0  0  0
  162.2900  204.2310  151.3050 F   0  0  0  0  0  0  0  0  0  0  0  0
  160.0810  206.2030  148.2890 O   0  0  0  0  0  0  0  0  0  0  0  0
  161.3030  206.2860  150.4480 C   0  0  2  0  0  3  0  0  0  0  0  0
  160.0820  204.6220  151.6610 F   0  0  0  0  0  0  0  0  0  0  0  0
  161.3320  206.3720  148.9150 C   0  0  2  0  0  0  0  0  0  0  0  0
  161.6500  204.7820  147.1700 F   0  0  0  0  0  0  0  0  0  0  0  0
  160.9430  205.0850  148.3210 C   0  0  1  0  0  0  0  0  0  0  0  0
  1  7  2  0  0  0  0
  1  3  1  0  0  0  0
  3  6  1  0  0  0  0
  4  8  2  0  0  0  0
  5  8  1  0  0  0  0
  5 24  1  0  0  0  0
  6  2  1  0  0  0  0
  6  5  2  0  0  0  0
  7  4  1  0  0  0  0
  9 10  2  0  0  0  0
 10  1  1  0  0  0  0
 11 12  1  6  0  0  0
 11  9  1  0  0  0  0
 13 15  1  0  0  0  0
 14 16  1  0  0  0  0
 14 19  1  0  0  0  0
 15 11  1  6  0  0  0
 16 21  2  0  0  0  0
 17 22  2  0  0  0  0
 18 14  2  0  0  0  0
 19 20  1  0  0  0  0
 20 13  1  6  0  0  0
 21 20  1  0  0  0  0
 21 17  1  0  0  0  0
 22 15  1  0  0  0  0
 24 23  1  0  0  0  0
 25 26  1  1  0  0  0
 25  7  1  0  0  0  0
 27 28  2  0  0  0  0
 28 29  1  0  0  0  0
 29 31  1  0  0  0  0
 29 34  1  0  0  0  0
 32 37  1  0  0  0  0
 32 35  1  0  0  0  0
 33 29  1  0  0  0  0
 33 25  1  1  0  0  0
 35 30  1  6  0  0  0
 35 33  1  0  0  0  0
 37 36  1  6  0  0  0
 37 35  1  0  0  0  0
 37 28  1  0  0  0  0
M  END
>  <MODEL>
5

>  <REMARK>
 VINA RESULT:      -8.5      2.553      5.204
  Name = 
  6 active torsions:
  status: ('A' for Active; 'I' for Inactive)
    1  A    between atoms: C_1  and  C_9
    2  A    between atoms: C_6  and  C_8
    3  A    between atoms: C_7  and  C_8
    4  A    between atoms: C_20  and  C_23
    5  A    between atoms: C_26  and  C_28
    6  A    between atoms: C_26  and  C_31
                            x       y       z     vdW  Elec       q    Type
                         _______ _______ _______ _____ _____    ______ ____

>  <TORSDO>
F 6

$$$$
=
 OpenBabel11072413053D

 37 41  0  0  1  0  0  0  0  0999 V2000
  160.8380  208.9850  153.7190 C   0  0  0  0  0  0  0  0  0  0  0  0
  162.5910  207.7130  156.4410 F   0  0  0  0  0  0  0  0  0  0  0  0
  160.6790  208.4610  155.1150 C   0  0  0  0  0  2  0  0  0  0  0  0
  160.9100  211.3250  154.5680 C   0  0  0  0  0  3  0  0  0  0  0  0
  162.2140  210.0160  156.2730 C   0  0  0  0  0  0  0  0  0  0  0  0
  161.8820  208.7590  155.9440 C   0  0  0  0  0  0  0  0  0  0  0  0
  160.8980  210.3120  153.4830 C   0  0  0  0  0  0  0  0  0  0  0  0
  161.4830  211.1990  155.7730 C   0  0  0  0  0  3  0  0  0  0  0  0
  161.9340  207.2770  152.3190 C   0  0  0  0  0  3  0  0  0  0  0  0
  160.8700  208.0240  152.5970 C   0  0  0  0  0  3  0  0  0  0  0  0
  161.9170  206.3190  151.1700 C   0  0  1  0  0  3  0  0  0  0  0  0
  161.7170  204.9080  151.7090 C   0  0  0  0  0  1  0  0  0  0  0  0
  160.3710  205.4390  149.3560 C   0  0  0  0  0  2  0  0  0  0  0  0
  162.5270  204.5870  146.2130 C   0  0  0  0  0  0  0  0  0  0  0  0
  160.8100  206.6830  150.1690 C   0  0  2  0  0  3  0  0  0  0  0  0
  162.6450  205.9130  146.4530 N   0  0  0  0  0  0  0  0  0  0  0  0
  161.8260  207.6250  148.0740 C   0  0  0  0  0  3  0  0  0  0  0  0
  163.0800  204.0180  145.2380 O   0  0  0  0  0  0  0  0  0  0  0  0
  161.5560  203.7930  147.3450 S   0  0  0  0  0  0  0  0  0  0  0  0
  161.2970  205.2150  148.2030 C   0  0  1  0  0  3  0  0  0  0  0  0
  161.9500  206.2540  147.5670 C   0  0  0  0  0  0  0  0  0  0  0  0
  161.2480  207.8300  149.2660 C   0  0  0  0  0  3  0  0  0  0  0  0
  163.8370  211.5990  157.0940 N   0  0  0  0  0  1  0  0  0  0  0  0
  163.3090  210.2550  157.2590 C   0  0  0  0  0  2  0  0  0  0  0  0
  160.8990  210.8270  152.0660 C   0  0  1  0  0  3  0  0  0  0  0  0
  160.0990  209.9970  151.2760 O   0  0  0  0  0  1  0  0  0  0  0  0
  157.2610  213.8480  151.4120 O   0  0  0  0  0  0  0  0  0  0  0  0
  158.3840  213.3750  151.3540 C   0  0  0  0  0  0  0  0  0  0  0  0
  158.9420  212.4730  152.3970 C   0  0  0  0  0  0  0  0  0  0  0  0
  161.2120  212.2950  149.5260 F   0  0  0  0  0  0  0  0  0  0  0  0
  158.2290  211.2850  152.4050 F   0  0  0  0  0  0  0  0  0  0  0  0
  160.5280  214.2970  150.5330 O   0  0  0  0  0  0  0  0  0  0  0  0
  160.4100  212.2820  151.9780 C   0  0  2  0  0  3  0  0  0  0  0  0
  158.8800  213.0740  153.6410 F   0  0  0  0  0  0  0  0  0  0  0  0
  160.5280  212.8890  150.5720 C   0  0  2  0  0  0  0  0  0  0  0  0
  158.9510  213.5280  148.9040 F   0  0  0  0  0  0  0  0  0  0  0  0
  159.3120  213.6440  150.2350 C   0  0  1  0  0  0  0  0  0  0  0  0
  1  3  1  0  0  0  0
  3  6  1  0  0  0  0
  4  8  2  0  0  0  0
  5 24  1  0  0  0  0
  6  5  2  0  0  0  0
  6  2  1  0  0  0  0
  7  1  2  0  0  0  0
  7  4  1  0  0  0  0
  8  5  1  0  0  0  0
  9 10  2  0  0  0  0
 10  1  1  0  0  0  0
 11 12  1  1  0  0  0
 11  9  1  0  0  0  0
 13 15  1  0  0  0  0
 14 16  1  0  0  0  0
 14 19  1  0  0  0  0
 15 11  1  1  0  0  0
 16 21  2  0  0  0  0
 17 22  2  0  0  0  0
 18 14  2  0  0  0  0
 19 20  1  0  0  0  0
 20 13  1  6  0  0  0
 21 17  1  0  0  0  0
 21 20  1  0  0  0  0
 22 15  1  0  0  0  0
 23 24  1  0  0  0  0
 25 26  1  6  0  0  0
 25  7  1  0  0  0  0
 28 27  2  0  0  0  0
 28 29  1  0  0  0  0
 29 31  1  0  0  0  0
 29 34  1  0  0  0  0
 32 35  1  0  0  0  0
 33 25  1  6  0  0  0
 33 29  1  0  0  0  0
 35 30  1  6  0  0  0
 35 33  1  0  0  0  0
 37 36  1  6  0  0  0
 37 32  1  0  0  0  0
 37 35  1  0  0  0  0
 37 28  1  0  0  0  0
M  END
>  <MODEL>
6

>  <REMARK>
 VINA RESULT:      -8.3      3.875      7.421
  Name = 
  6 active torsions:
  status: ('A' for Active; 'I' for Inactive)
    1  A    between atoms: C_1  and  C_9
    2  A    between atoms: C_6  and  C_8
    3  A    between atoms: C_7  and  C_8
    4  A    between atoms: C_20  and  C_23
    5  A    between atoms: C_26  and  C_28
    6  A    between atoms: C_26  and  C_31
                            x       y       z     vdW  Elec       q    Type
                         _______ _______ _______ _____ _____    ______ ____

>  <TORSDO>
F 6

$$$$
=
 OpenBabel11072413053D

 37 41  0  0  1  0  0  0  0  0999 V2000
  161.7120  211.0240  149.7130 C   0  0  0  0  0  0  0  0  0  0  0  0
  160.7440  212.2700  146.6140 F   0  0  0  0  0  0  0  0  0  0  0  0
  162.1610  211.8790  148.5670 C   0  0  0  0  0  2  0  0  0  0  0  0
  160.9130  213.0350  150.9460 C   0  0  0  0  0  3  0  0  0  0  0  0
  160.2910  213.4970  148.5550 C   0  0  0  0  0  0  0  0  0  0  0  0
  161.0050  212.5590  147.9150 C   0  0  0  0  0  0  0  0  0  0  0  0
  161.1790  211.5800  150.8220 C   0  0  0  0  0  0  0  0  0  0  0  0
  160.5240  213.8630  149.9670 C   0  0  0  0  0  3  0  0  0  0  0  0
  162.1380  208.9270  148.4890 C   0  0  0  0  0  3  0  0  0  0  0  0
  161.9160  209.5620  149.6350 C   0  0  0  0  0  3  0  0  0  0  0  0
  162.3380  207.4450  148.4620 C   0  0  1  0  0  3  0  0  0  0  0  0
  162.4180  206.9340  149.8950 C   0  0  0  0  0  1  0  0  0  0  0  0
  160.2040  206.0850  148.6760 C   0  0  0  0  0  2  0  0  0  0  0  0
  161.1490  202.5060  149.9240 C   0  0  0  0  0  0  0  0  0  0  0  0
  161.2010  206.7520  147.6970 C   0  0  2  0  0  3  0  0  0  0  0  0
  161.7410  202.6990  148.7230 N   0  0  0  0  0  0  0  0  0  0  0  0
  161.9310  204.4620  146.9670 C   0  0  0  0  0  3  0  0  0  0  0  0
  161.2380  201.4270  150.5630 O   0  0  0  0  0  0  0  0  0  0  0  0
  160.2770  203.8520  150.4560 S   0  0  0  0  0  0  0  0  0  0  0  0
  160.7030  204.7370  149.0930 C   0  0  1  0  0  3  0  0  0  0  0  0
  161.4820  203.9500  148.2660 C   0  0  0  0  0  0  0  0  0  0  0  0
  161.7540  205.7600  146.6800 C   0  0  0  0  0  3  0  0  0  0  0  0
  157.9940  213.5880  147.8260 N   0  0  0  0  0  1  0  0  0  0  0  0
  159.2690  214.2850  147.8040 C   0  0  0  0  0  2  0  0  0  0  0  0
  160.8800  210.7230  152.0250 C   0  0  1  0  0  3  0  0  0  0  0  0
  162.0430  210.0530  152.4120 O   0  0  0  0  0  1  0  0  0  0  0  0
  158.8860  210.7660  156.3630 O   0  0  0  0  0  0  0  0  0  0  0  0
  159.1290  211.0770  155.2090 C   0  0  0  0  0  0  0  0  0  0  0  0
  160.4500  210.8520  154.5650 C   0  0  0  0  0  0  0  0  0  0  0  0
  158.1100  211.7300  151.8860 F   0  0  0  0  0  0  0  0  0  0  0  0
  160.6790  209.4900  154.4520 F   0  0  0  0  0  0  0  0  0  0  0  0
  158.4140  213.0030  153.8290 O   0  0  0  0  0  0  0  0  0  0  0  0
  160.3230  211.5480  153.1990 C   0  0  2  0  0  3  0  0  0  0  0  0
  161.4570  211.4440  155.3050 F   0  0  0  0  0  0  0  0  0  0  0  0
  158.8380  211.9100  153.0490 C   0  0  2  0  0  0  0  0  0  0  0  0
  156.8430  211.2260  154.1570 F   0  0  0  0  0  0  0  0  0  0  0  0
  158.1290  211.7110  154.3210 C   0  0  1  0  0  0  0  0  0  0  0  0
  1  7  2  0  0  0  0
  2  6  1  0  0  0  0
  3  1  1  0  0  0  0
  5  8  1  0  0  0  0
  6  5  2  0  0  0  0
  6  3  1  0  0  0  0
  7  4  1  0  0  0  0
  7 25  1  0  0  0  0
  8  4  2  0  0  0  0
  9 10  2  0  0  0  0
 10  1  1  0  0  0  0
 11  9  1  0  0  0  0
 11 12  1  1  0  0  0
 14 19  1  0  0  0  0
 14 18  2  0  0  0  0
 15 11  1  1  0  0  0
 15 13  1  0  0  0  0
 16 14  1  0  0  0  0
 17 21  1  0  0  0  0
 20 13  1  6  0  0  0
 20 19  1  0  0  0  0
 21 16  2  0  0  0  0
 21 20  1  0  0  0  0
 22 17  2  0  0  0  0
 22 15  1  0  0  0  0
 24 23  1  0  0  0  0
 24  5  1  0  0  0  0
 25 26  1  1  0  0  0
 28 27  2  0  0  0  0
 29 28  1  0  0  0  0
 29 34  1  0  0  0  0
 31 29  1  0  0  0  0
 32 37  1  0  0  0  0
 33 25  1  6  0  0  0
 33 29  1  0  0  0  0
 35 30  1  6  0  0  0
 35 33  1  0  0  0  0
 35 32  1  0  0  0  0
 35 37  1  0  0  0  0
 37 36  1  6  0  0  0
 37 28  1  0  0  0  0
M  END
>  <MODEL>
7

>  <REMARK>
 VINA RESULT:      -8.1      3.349      7.083
  Name = 
  6 active torsions:
  status: ('A' for Active; 'I' for Inactive)
    1  A    between atoms: C_1  and  C_9
    2  A    between atoms: C_6  and  C_8
    3  A    between atoms: C_7  and  C_8
    4  A    between atoms: C_20  and  C_23
    5  A    between atoms: C_26  and  C_28
    6  A    between atoms: C_26  and  C_31
                            x       y       z     vdW  Elec       q    Type
                         _______ _______ _______ _____ _____    ______ ____

>  <TORSDO>
F 6

$$$$
=
 OpenBabel11072413053D

 37 41  0  0  1  0  0  0  0  0999 V2000
  161.7650  208.6320  151.0970 C   0  0  0  0  0  0  0  0  0  0  0  0
  161.2140  210.7240  153.8200 F   0  0  0  0  0  0  0  0  0  0  0  0
  162.4190  209.2300  152.3070 C   0  0  0  0  0  2  0  0  0  0  0  0
  161.2130  206.5660  152.3740 C   0  0  0  0  0  3  0  0  0  0  0  0
  160.8310  208.4250  154.0240 C   0  0  0  0  0  0  0  0  0  0  0  0
  161.4290  209.4510  153.4010 C   0  0  0  0  0  0  0  0  0  0  0  0
  161.2540  207.3840  151.1350 C   0  0  0  0  0  0  0  0  0  0  0  0
  161.0240  207.0160  153.6220 C   0  0  0  0  0  3  0  0  0  0  0  0
  162.0140  210.7110  149.7960 C   0  0  0  0  0  3  0  0  0  0  0  0
  161.7420  209.4110  149.8420 C   0  0  0  0  0  3  0  0  0  0  0  0
  161.9760  211.4550  148.5000 C   0  0  1  0  0  3  0  0  0  0  0  0
  161.1820  210.6390  147.4870 C   0  0  0  0  0  1  0  0  0  0  0  0
  160.0050  212.9550  147.9330 C   0  0  0  0  0  2  0  0  0  0  0  0
  160.2100  213.8730  144.1430 C   0  0  0  0  0  0  0  0  0  0  0  0
  161.3550  212.8490  148.6840 C   0  0  2  0  0  3  0  0  0  0  0  0
  161.3140  214.3640  144.7510 N   0  0  0  0  0  0  0  0  0  0  0  0
  162.3430  214.4530  147.0230 C   0  0  0  0  0  3  0  0  0  0  0  0
  159.9730  214.0430  142.9200 O   0  0  0  0  0  0  0  0  0  0  0  0
  159.1930  213.0300  145.1960 S   0  0  0  0  0  0  0  0  0  0  0  0
  160.2330  213.2820  146.4910 C   0  0  1  0  0  3  0  0  0  0  0  0
  161.3150  214.0300  146.0670 C   0  0  0  0  0  0  0  0  0  0  0  0
  162.3320  213.9400  148.2620 C   0  0  0  0  0  3  0  0  0  0  0  0
  159.7380  207.4330  155.9310 N   0  0  0  0  0  1  0  0  0  0  0  0
  159.9980  208.6830  155.2350 C   0  0  0  0  0  2  0  0  0  0  0  0
  160.7450  206.7390  149.8720 C   0  0  1  0  0  3  0  0  0  0  0  0
  160.8650  207.6430  148.8140 O   0  0  0  0  0  1  0  0  0  0  0  0
  161.2470  202.9680  146.9870 O   0  0  0  0  0  0  0  0  0  0  0  0
  161.2040  203.6330  148.0090 C   0  0  0  0  0  0  0  0  0  0  0  0
  161.5160  205.0870  148.0480 C   0  0  0  0  0  0  0  0  0  0  0  0
  159.9670  204.2550  151.2630 F   0  0  0  0  0  0  0  0  0  0  0  0
  160.5600  205.7810  147.3230 F   0  0  0  0  0  0  0  0  0  0  0  0
  161.7950  203.1060  150.3530 O   0  0  0  0  0  0  0  0  0  0  0  0
  161.4910  205.4330  149.5470 C   0  0  2  0  0  3  0  0  0  0  0  0
  162.7750  205.3260  147.5290 F   0  0  0  0  0  0  0  0  0  0  0  0
  160.9120  204.1990  150.2530 C   0  0  2  0  0  0  0  0  0  0  0  0
  159.7090  202.2790  149.5190 F   0  0  0  0  0  0  0  0  0  0  0  0
  160.8310  203.0640  149.3220 C   0  0  1  0  0  0  0  0  0  0  0  0
  1  7  2  0  0  0  0
  1  3  1  0  0  0  0
  3  6  1  0  0  0  0
  4  8  2  0  0  0  0
  5 24  1  0  0  0  0
  6  2  1  0  0  0  0
  6  5  2  0  0  0  0
  7  4  1  0  0  0  0
  8  5  1  0  0  0  0
  9 10  2  0  0  0  0
 10  1  1  0  0  0  0
 11 12  1  6  0  0  0
 11  9  1  0  0  0  0
 13 15  1  0  0  0  0
 14 16  1  0  0  0  0
 14 19  1  0  0  0  0
 15 11  1  6  0  0  0
 16 21  2  0  0  0  0
 17 22  2  0  0  0  0
 18 14  2  0  0  0  0
 19 20  1  0  0  0  0
 20 13  1  1  0  0  0
 21 20  1  0  0  0  0
 21 17  1  0  0  0  0
 22 15  1  0  0  0  0
 24 23  1  0  0  0  0
 25 26  1  6  0  0  0
 25  7  1  0  0  0  0
 27 28  2  0  0  0  0
 28 29  1  0  0  0  0
 28 37  1  0  0  0  0
 29 33  1  0  0  0  0
 31 29  1  0  0  0  0
 33 25  1  6  0  0  0
 33 35  1  0  0  0  0
 34 29  1  0  0  0  0
 35 32  1  0  0  0  0
 35 30  1  1  0  0  0
 37 36  1  1  0  0  0
 37 35  1  0  0  0  0
 37 32  1  0  0  0  0
M  END
>  <MODEL>
8

>  <REMARK>
 VINA RESULT:      -8.1      2.777      5.251
  Name = 
  6 active torsions:
  status: ('A' for Active; 'I' for Inactive)
    1  A    between atoms: C_1  and  C_9
    2  A    between atoms: C_6  and  C_8
    3  A    between atoms: C_7  and  C_8
    4  A    between atoms: C_20  and  C_23
    5  A    between atoms: C_26  and  C_28
    6  A    between atoms: C_26  and  C_31
                            x       y       z     vdW  Elec       q    Type
                         _______ _______ _______ _____ _____    ______ ____

>  <TORSDO>
F 6

$$$$
=
 OpenBabel11072413053D

 37 41  0  0  1  0  0  0  0  0999 V2000
  161.8680  209.7760  151.7660 C   0  0  0  0  0  0  0  0  0  0  0  0
  160.2580  212.2090  153.6600 F   0  0  0  0  0  0  0  0  0  0  0  0
  162.0370  210.6960  152.9380 C   0  0  0  0  0  2  0  0  0  0  0  0
  161.1790  207.9210  153.2780 C   0  0  0  0  0  3  0  0  0  0  0  0
  160.0920  209.9570  154.2750 C   0  0  0  0  0  0  0  0  0  0  0  0
  160.7360  210.9380  153.6260 C   0  0  0  0  0  0  0  0  0  0  0  0
  161.5140  208.4860  151.9470 C   0  0  0  0  0  0  0  0  0  0  0  0
  160.5590  208.5550  154.2820 C   0  0  0  0  0  3  0  0  0  0  0  0
  161.7550  211.4900  149.9970 C   0  0  0  0  0  3  0  0  0  0  0  0
  162.1520  210.2900  150.4100 C   0  0  0  0  0  3  0  0  0  0  0  0
  162.0670  211.9640  148.6130 C   0  0  1  0  0  3  0  0  0  0  0  0
  161.2040  211.1910  147.6230 C   0  0  0  0  0  1  0  0  0  0  0  0
  161.0010  214.0080  149.6810 C   0  0  0  0  0  2  0  0  0  0  0  0
  157.1220  213.6640  149.3890 C   0  0  0  0  0  0  0  0  0  0  0  0
  161.8260  213.4750  148.4830 C   0  0  2  0  0  3  0  0  0  0  0  0
  157.6320  213.7120  148.1370 N   0  0  0  0  0  0  0  0  0  0  0  0
  159.8450  213.9030  146.9990 C   0  0  0  0  0  3  0  0  0  0  0  0
  155.8880  213.5930  149.6210 O   0  0  0  0  0  0  0  0  0  0  0  0
  158.3080  213.7270  150.5900 S   0  0  0  0  0  0  0  0  0  0  0  0
  159.5400  213.7870  149.4490 C   0  0  1  0  0  3  0  0  0  0  0  0
  158.9860  213.7830  148.1820 C   0  0  0  0  0  0  0  0  0  0  0  0
  161.1740  213.8100  147.1460 C   0  0  0  0  0  3  0  0  0  0  0  0
  159.3210  210.8810  156.3640 N   0  0  0  0  0  1  0  0  0  0  0  0
  158.8980  210.2850  155.1080 C   0  0  0  0  0  2  0  0  0  0  0  0
  161.5030  207.5370  150.7770 C   0  0  1  0  0  3  0  0  0  0  0  0
  162.8140  207.3350  150.3370 O   0  0  0  0  0  1  0  0  0  0  0  0
  162.0440  202.9230  151.8780 O   0  0  0  0  0  0  0  0  0  0  0  0
  161.5800  203.9380  151.3850 C   0  0  0  0  0  0  0  0  0  0  0  0
  161.7170  205.2810  152.0090 C   0  0  0  0  0  0  0  0  0  0  0  0
  160.4880  205.8230  148.6000 F   0  0  0  0  0  0  0  0  0  0  0  0
  163.0520  205.6550  152.0060 F   0  0  0  0  0  0  0  0  0  0  0  0
  159.4870  204.3650  150.1380 O   0  0  0  0  0  0  0  0  0  0  0  0
  160.8440  206.1920  151.1280 C   0  0  2  0  0  3  0  0  0  0  0  0
  161.2290  205.2670  153.3030 F   0  0  0  0  0  0  0  0  0  0  0  0
  160.4650  205.3510  149.9010 C   0  0  2  0  0  0  0  0  0  0  0  0
  161.2920  203.3250  148.9580 F   0  0  0  0  0  0  0  0  0  0  0  0
  160.8340  203.9430  150.1090 C   0  0  1  0  0  0  0  0  0  0  0  0
  1  7  2  0  0  0  0
  1  3  1  0  0  0  0
  3  6  1  0  0  0  0
  4  8  2  0  0  0  0
  5  8  1  0  0  0  0
  5 24  1  0  0  0  0
  6  2  1  0  0  0  0
  6  5  2  0  0  0  0
  7  4  1  0  0  0  0
  9 10  2  0  0  0  0
 10  1  1  0  0  0  0
 11 12  1  6  0  0  0
 11  9  1  0  0  0  0
 14 18  2  0  0  0  0
 14 19  1  0  0  0  0
 15 11  1  1  0  0  0
 15 13  1  0  0  0  0
 16 21  2  0  0  0  0
 16 14  1  0  0  0  0
 17 22  2  0  0  0  0
 17 21  1  0  0  0  0
 20 13  1  1  0  0  0
 20 19  1  0  0  0  0
 21 20  1  0  0  0  0
 22 15  1  0  0  0  0
 24 23  1  0  0  0  0
 25 26  1  1  0  0  0
 25  7  1  0  0  0  0
 28 27  2  0  0  0  0
 28 29  1  0  0  0  0
 29 34  1  0  0  0  0
 31 29  1  0  0  0  0
 33 25  1  6  0  0  0
 33 29  1  0  0  0  0
 35 30  1  6  0  0  0
 35 37  1  0  0  0  0
 35 32  1  0  0  0  0
 35 33  1  0  0  0  0
 37 36  1  6  0  0  0
 37 32  1  0  0  0  0
 37 28  1  0  0  0  0
M  END
>  <MODEL>
9

>  <REMARK>
 VINA RESULT:      -8.1      3.521      5.682
  Name = 
  6 active torsions:
  status: ('A' for Active; 'I' for Inactive)
    1  A    between atoms: C_1  and  C_9
    2  A    between atoms: C_6  and  C_8
    3  A    between atoms: C_7  and  C_8
    4  A    between atoms: C_20  and  C_23
    5  A    between atoms: C_26  and  C_28
    6  A    between atoms: C_26  and  C_31
                            x       y       z     vdW  Elec       q    Type
                         _______ _______ _______ _____ _____    ______ ____

>  <TORSDO>
F 6

$$$$
