=
 OpenBabel11072411463D

 53 59  0  0  1  0  0  0  0  0999 V2000
  160.8210  207.8780  153.0890 C   0  0  0  0  0  2  0  0  0  0  0  0
  159.6760  210.9840  156.6130 C   0  0  2  0  0  3  0  0  0  0  0  0
  162.4180  209.9930  152.5640 C   0  0  1  0  0  0  0  0  0  0  0  0
  160.9680  207.9660  154.5970 C   0  0  2  0  0  3  0  0  0  0  0  0
  160.3840  212.0580  155.7650 C   0  0  0  0  0  2  0  0  0  0  0  0
  163.7470  210.2390  152.2520 F   0  0  0  0  0  0  0  0  0  0  0  0
  161.3770  211.7850  153.4720 C   0  0  0  0  0  2  0  0  0  0  0  0
  161.9720  208.5500  152.3390 C   0  0  1  0  0  0  0  0  0  0  0  0
  160.2760  209.5750  156.4500 C   0  0  1  0  0  3  0  0  0  0  0  0
  159.7140  207.4510  155.2660 C   0  0  0  0  0  2  0  0  0  0  0  0
  159.9150  208.9440  155.1000 C   0  0  2  0  0  3  0  0  0  0  0  0
  161.6580  209.6150  156.6680 O   0  0  0  0  0  1  0  0  0  0  0  0
  161.9340  210.5340  153.7620 O   0  0  0  0  0  0  0  0  0  0  0  0
  160.0890  211.9490  154.2700 C   0  0  2  0  0  3  0  0  0  0  0  0
  162.8970  207.7060  151.7190 O   0  0  0  0  0  1  0  0  0  0  0  0
  161.4290  209.6680  151.4410 C   0  0  2  0  0  3  0  0  0  0  0  0
  156.1970  210.4220  154.9720 C   0  0  0  0  0  2  0  0  0  0  0  0
  155.2970  212.3510  156.2380 C   0  0  0  0  0  2  0  0  0  0  0  0
  157.7260  210.5160  155.0890 C   0  0  0  0  0  2  0  0  0  0  0  0
  156.4160  212.1300  157.2610 C   0  0  0  0  0  2  0  0  0  0  0  0
  155.5150  211.7290  154.9180 N   0  0  0  0  0  0  0  0  0  0  0  0
  157.6670  212.3120  156.6690 O   0  0  0  0  0  0  0  0  0  0  0  0
  158.1490  211.0130  156.4700 C   0  0  2  0  0  3  0  0  0  0  0  0
  156.1880  212.6620  154.0150 C   0  0  0  0  0  2  0  0  0  0  0  0
  155.6870  214.0800  154.2380 C   0  0  0  0  0  2  0  0  0  0  0  0
  154.7370  214.4060  153.2680 O   0  0  0  0  0  1  0  0  0  0  0  0
  159.1030  213.3660  152.4850 C   0  0  0  0  0  2  0  0  0  0  0  0
  159.2970  213.1270  153.7840 C   0  0  0  0  0  3  0  0  0  0  0  0
  162.0960  209.7200  150.0710 C   0  0  0  0  0  2  0  0  0  0  0  0
  160.7790  205.7290  148.6060 N   0  0  0  0  0  0  0  0  0  0  0  0
  161.1420  209.2700  149.0210 C   0  0  0  0  0  3  0  0  0  0  0  0
  162.1790  206.5930  146.4640 S   0  0  0  0  0  0  0  0  0  0  0  0
  160.8980  204.5450  147.7700 C   0  0  0  0  0  2  0  0  0  0  0  0
  161.2850  205.0000  146.3630 C   0  0  2  0  0  3  0  0  0  0  0  0
  161.2610  208.0720  148.5240 C   0  0  0  0  0  0  0  0  0  0  0  0
  161.4060  206.8690  148.0370 C   0  0  0  0  0  0  0  0  0  0  0  0
  162.1680  203.9410  145.7180 C   0  0  0  0  0  2  0  0  0  0  0  0
  161.4990  202.5700  145.6590 C   0  0  1  0  0  3  0  0  0  0  0  0
  159.1980  201.7500  145.8460 O   0  0  0  0  0  0  0  0  0  0  0  0
  159.9830  202.4770  143.7680 O   0  0  0  0  0  1  0  0  0  0  0  0
  161.7010  200.5410  146.7310 C   0  0  2  0  0  3  0  0  0  0  0  0
  161.5380  201.9370  146.9150 O   0  0  0  0  0  0  0  0  0  0  0  0
  160.9460  198.5390  145.5760 O   0  0  0  0  0  1  0  0  0  0  0  0
  160.0510  202.6480  145.1550 C   0  0  2  0  0  3  0  0  0  0  0  0
  159.4220  200.4030  145.4620 C   0  0  0  0  0  2  0  0  0  0  0  0
  160.8840  199.9320  145.5630 C   0  0  1  0  0  3  0  0  0  0  0  0
  161.1520  200.9070  148.8440 C   0  0  0  0  0  1  0  0  0  0  0  0
  161.3980  199.8830  147.9270 O   0  0  0  0  0  0  0  0  0  0  0  0
  160.1830  205.7410  149.9450 C   0  0  0  0  0  2  0  0  0  0  0  0
  160.1500  204.3590  150.5800 C   0  0  0  0  0  2  0  0  0  0  0  0
  160.9530  204.1490  152.9010 C   0  0  0  0  0  2  0  0  0  0  0  0
  161.2690  202.8540  152.1840 C   0  0  0  0  0  2  0  0  0  0  0  0
  161.3760  204.1740  151.4480 C   0  0  0  0  0  3  0  0  0  0  0  0
  2  5  1  6  0  0  0
  3  6  1  6  0  0  0
  3 13  1  0  0  0  0
  4  1  1  6  0  0  0
  4 11  1  0  0  0  0
  4 10  1  0  0  0  0
  7 13  1  0  0  0  0
  7 14  1  0  0  0  0
  8 15  1  6  0  0  0
  8  3  1  0  0  0  0
  8  1  1  0  0  0  0
  9  2  1  0  0  0  0
  9 12  1  6  0  0  0
 11 10  1  1  0  0  0
 11  9  1  0  0  0  0
 14 28  1  6  0  0  0
 14  5  1  0  0  0  0
 16 29  1  6  0  0  0
 16  8  1  0  0  0  0
 16  3  1  0  0  0  0
 17 19  1  0  0  0  0
 18 20  1  0  0  0  0
 21 17  1  0  0  0  0
 21 18  1  0  0  0  0
 22 20  1  0  0  0  0
 23 19  1  6  0  0  0
 23  2  1  0  0  0  0
 23 22  1  0  0  0  0
 24 25  1  0  0  0  0
 24 21  1  0  0  0  0
 26 25  1  0  0  0  0
 27 28  2  0  0  0  0
 30 49  1  0  0  0  0
 31 29  1  0  0  0  0
 32 36  1  0  0  0  0
 33 30  1  0  0  0  0
 34 37  1  1  0  0  0
 34 32  1  0  0  0  0
 34 33  1  0  0  0  0
 35 31  2  0  0  0  0
 36 35  2  0  0  0  0
 36 30  1  0  0  0  0
 38 37  1  1  0  0  0
 38 42  1  0  0  0  0
 41 42  1  0  0  0  0
 41 48  1  1  0  0  0
 44 40  1  6  0  0  0
 44 38  1  0  0  0  0
 44 39  1  0  0  0  0
 45 46  1  0  0  0  0
 45 39  1  0  0  0  0
 46 43  1  1  0  0  0
 46 41  1  0  0  0  0
 48 47  1  0  0  0  0
 49 50  1  0  0  0  0
 50 53  1  0  0  0  0
 52 51  1  0  0  0  0
 53 52  1  0  0  0  0
 53 51  1  0  0  0  0
M  END
>  <MODEL>
1

>  <REMARK>
 VINA RESULT:      -1.9      0.000      0.000
  Name = 
  12 active torsions:
  status: ('A' for Active; 'I' for Inactive)
    1  A    between atoms: N_1  and  C_29
    2  A    between atoms: C_2  and  C_4
    3  A    between atoms: C_2  and  C_43
    4  A    between atoms: C_3  and  C_25
    5  A    between atoms: O_11  and  C_19
    6  A    between atoms: C_12  and  C_35
    7  A    between atoms: C_13  and  C_50
    8  A    between atoms: C_25  and  C_47
    9  A    between atoms: N_27  and  C_35
   10  A    between atoms: C_29  and  C_52
   11  A    between atoms: C_40  and  C_51
   12  A    between atoms: C_49  and  C_52
                            x       y       z     vdW  Elec       q    Type
                         _______ _______ _______ _____ _____    ______ ____

>  <TORSDO>
F 12

$$$$
=
 OpenBabel11072411463D

 53 59  0  0  1  0  0  0  0  0999 V2000
  162.3170  205.4750  153.2890 C   0  0  0  0  0  2  0  0  0  0  0  0
  160.3320  205.2860  148.8840 C   0  0  2  0  0  3  0  0  0  0  0  0
  160.5860  207.5500  153.3240 C   0  0  1  0  0  0  0  0  0  0  0  0
  161.4020  204.5470  152.5110 C   0  0  2  0  0  3  0  0  0  0  0  0
  159.8310  206.7180  149.1540 C   0  0  0  0  0  2  0  0  0  0  0  0
  159.6140  208.0770  154.1610 F   0  0  0  0  0  0  0  0  0  0  0  0
  160.3130  208.1530  151.1610 C   0  0  0  0  0  2  0  0  0  0  0  0
  161.5580  206.5900  154.0080 C   0  0  1  0  0  0  0  0  0  0  0  0
  160.4380  204.4200  150.1530 C   0  0  1  0  0  3  0  0  0  0  0  0
  162.2280  203.5890  151.6810 C   0  0  0  0  0  2  0  0  0  0  0  0
  161.6310  204.8210  151.0300 C   0  0  2  0  0  3  0  0  0  0  0  0
  159.2270  204.4480  150.8540 O   0  0  0  0  0  1  0  0  0  0  0  0
  160.1670  207.0970  152.0660 O   0  0  0  0  0  0  0  0  0  0  0  0
  160.8620  207.6070  149.8480 C   0  0  2  0  0  3  0  0  0  0  0  0
  161.4420  206.4800  155.3970 O   0  0  0  0  0  1  0  0  0  0  0  0
  162.0490  207.9580  153.5180 C   0  0  2  0  0  3  0  0  0  0  0  0
  162.7870  206.2870  146.0400 C   0  0  0  0  0  2  0  0  0  0  0  0
  163.6710  203.9740  146.0010 C   0  0  0  0  0  2  0  0  0  0  0  0
  161.4820  206.2270  146.8500 C   0  0  0  0  0  2  0  0  0  0  0  0
  163.1890  203.8240  147.4470 C   0  0  0  0  0  2  0  0  0  0  0  0
  163.0550  205.0770  145.2400 N   0  0  0  0  0  0  0  0  0  0  0  0
  161.8010  203.9510  147.5190 O   0  0  0  0  0  0  0  0  0  0  0  0
  161.5950  205.2440  148.0140 C   0  0  2  0  0  3  0  0  0  0  0  0
  161.8630  204.6110  144.5330 C   0  0  0  0  0  2  0  0  0  0  0  0
  161.1770  205.7640  143.8180 C   0  0  0  0  0  2  0  0  0  0  0  0
  161.5970  205.8130  142.4880 O   0  0  0  0  0  1  0  0  0  0  0  0
  162.5910  209.1100  148.8930 C   0  0  0  0  0  2  0  0  0  0  0  0
  161.3170  208.7170  148.9480 C   0  0  0  0  0  3  0  0  0  0  0  0
  162.2040  208.9810  154.6370 C   0  0  0  0  0  2  0  0  0  0  0  0
  159.6740  212.5720  153.9180 N   0  0  0  0  0  0  0  0  0  0  0  0
  162.4650  210.3300  154.0630 C   0  0  0  0  0  3  0  0  0  0  0  0
  160.1350  211.7880  151.3750 S   0  0  0  0  0  0  0  0  0  0  0  0
  158.7530  213.3800  153.1350 C   0  0  0  0  0  2  0  0  0  0  0  0
  159.2140  213.3400  151.6780 C   0  0  2  0  0  3  0  0  0  0  0  0
  161.4700  211.0250  153.5900 C   0  0  0  0  0  0  0  0  0  0  0  0
  160.4560  211.6980  153.1180 C   0  0  0  0  0  0  0  0  0  0  0  0
  157.9990  213.4180  150.7640 C   0  0  0  0  0  2  0  0  0  0  0  0
  158.3750  213.5180  149.2890 C   0  0  1  0  0  3  0  0  0  0  0  0
  157.6120  212.4430  147.2230 O   0  0  0  0  0  0  0  0  0  0  0  0
  156.4800  214.3290  148.0120 O   0  0  0  0  0  1  0  0  0  0  0  0
  160.2820  213.3190  148.0100 C   0  0  2  0  0  3  0  0  0  0  0  0
  159.4740  212.6910  148.9920 O   0  0  0  0  0  0  0  0  0  0  0  0
  160.3600  214.4510  145.8600 O   0  0  0  0  0  1  0  0  0  0  0  0
  157.1990  213.1820  148.3610 C   0  0  2  0  0  3  0  0  0  0  0  0
  158.3150  213.2510  146.2930 C   0  0  0  0  0  2  0  0  0  0  0  0
  159.5020  214.0360  146.8780 C   0  0  1  0  0  3  0  0  0  0  0  0
  162.2310  212.3320  148.3670 C   0  0  0  0  0  1  0  0  0  0  0  0
  161.1610  212.3760  147.4700 O   0  0  0  0  0  0  0  0  0  0  0  0
  159.7260  212.5610  155.3830 C   0  0  0  0  0  2  0  0  0  0  0  0
  158.7180  213.5120  156.0080 C   0  0  0  0  0  2  0  0  0  0  0  0
  156.2620  213.6170  156.1930 C   0  0  0  0  0  2  0  0  0  0  0  0
  156.6030  212.5400  155.1880 C   0  0  0  0  0  2  0  0  0  0  0  0
  157.4780  212.7420  156.4080 C   0  0  0  0  0  3  0  0  0  0  0  0
  1  8  1  0  0  0  0
  2  5  1  1  0  0  0
  2  9  1  0  0  0  0
  3 16  1  0  0  0  0
  3  8  1  0  0  0  0
  3  6  1  1  0  0  0
  4 10  1  6  0  0  0
  4  1  1  0  0  0  0
  5 14  1  0  0  0  0
  7 13  1  0  0  0  0
  8 15  1  1  0  0  0
  9 12  1  1  0  0  0
  9 11  1  0  0  0  0
 11 10  1  6  0  0  0
 11  4  1  0  0  0  0
 13  3  1  0  0  0  0
 14 28  1  6  0  0  0
 14  7  1  0  0  0  0
 16  8  1  0  0  0  0
 16 29  1  1  0  0  0
 17 19  1  0  0  0  0
 18 20  1  0  0  0  0
 20 22  1  0  0  0  0
 21 18  1  0  0  0  0
 21 17  1  0  0  0  0
 22 23  1  0  0  0  0
 23 19  1  6  0  0  0
 23  2  1  0  0  0  0
 24 21  1  0  0  0  0
 25 24  1  0  0  0  0
 26 25  1  0  0  0  0
 27 28  2  0  0  0  0
 30 49  1  0  0  0  0
 31 29  1  0  0  0  0
 32 34  1  0  0  0  0
 32 36  1  0  0  0  0
 33 30  1  0  0  0  0
 34 37  1  6  0  0  0
 34 33  1  0  0  0  0
 35 31  2  0  0  0  0
 36 35  2  0  0  0  0
 36 30  1  0  0  0  0
 38 37  1  1  0  0  0
 39 44  1  0  0  0  0
 41 48  1  6  0  0  0
 41 42  1  0  0  0  0
 42 38  1  0  0  0  0
 44 40  1  6  0  0  0
 44 38  1  0  0  0  0
 45 46  1  0  0  0  0
 45 39  1  0  0  0  0
 46 43  1  6  0  0  0
 46 41  1  0  0  0  0
 48 47  1  0  0  0  0
 49 50  1  0  0  0  0
 50 53  1  0  0  0  0
 51 53  1  0  0  0  0
 52 51  1  0  0  0  0
 52 53  1  0  0  0  0
M  END
>  <MODEL>
2

>  <REMARK>
 VINA RESULT:       1.0      3.380     10.061
  Name = 
  12 active torsions:
  status: ('A' for Active; 'I' for Inactive)
    1  A    between atoms: N_1  and  C_29
    2  A    between atoms: C_2  and  C_4
    3  A    between atoms: C_2  and  C_43
    4  A    between atoms: C_3  and  C_25
    5  A    between atoms: O_11  and  C_19
    6  A    between atoms: C_12  and  C_35
    7  A    between atoms: C_13  and  C_50
    8  A    between atoms: C_25  and  C_47
    9  A    between atoms: N_27  and  C_35
   10  A    between atoms: C_29  and  C_52
   11  A    between atoms: C_40  and  C_51
   12  A    between atoms: C_49  and  C_52
                            x       y       z     vdW  Elec       q    Type
                         _______ _______ _______ _____ _____    ______ ____

>  <TORSDO>
F 12

$$$$
