=
 OpenBabel11072413173D

 27 31  0  0  1  0  0  0  0  0999 V2000
  161.4390  210.4740  154.5850 C   0  0  0  0  0  2  0  0  0  0  0  0
  161.6240  206.2120  154.1100 N   0  0  0  0  0  0  0  0  0  0  0  0
  161.3080  210.2590  156.0940 C   0  0  0  0  0  2  0  0  0  0  0  0
  161.1480  206.6700  151.8230 C   0  0  0  0  0  0  0  0  0  0  0  0
  161.2600  207.8000  155.8710 N   0  0  0  0  0  2  0  0  0  0  0  0
  160.7450  207.9180  152.1820 N   0  0  0  0  0  0  0  0  0  0  0  0
  160.6090  208.9550  156.4770 C   0  0  0  0  0  2  0  0  0  0  0  0
  161.2090  207.4530  154.4790 C   0  0  0  0  0  0  0  0  0  0  0  0
  161.6040  205.8010  152.8180 C   0  0  0  0  0  3  0  0  0  0  0  0
  160.7630  208.3490  153.4750 C   0  0  0  0  0  0  0  0  0  0  0  0
  160.3390  209.7640  153.7960 C   0  0  2  0  0  3  0  0  0  0  0  0
  161.0440  206.8460  148.0450 C   0  0  0  0  0  3  0  0  0  0  0  0
  161.0610  203.2020  148.3780 F   0  0  0  0  0  0  0  0  0  0  0  0
  161.0670  204.5170  148.7040 C   0  0  0  0  0  0  0  0  0  0  0  0
  161.0030  205.1300  146.3950 F   0  0  0  0  0  0  0  0  0  0  0  0
  161.0380  205.4920  147.7020 C   0  0  0  0  0  0  0  0  0  0  0  0
  161.1030  204.8980  150.0490 C   0  0  0  0  0  3  0  0  0  0  0  0
  161.0800  207.2270  149.3900 C   0  0  0  0  0  3  0  0  0  0  0  0
  161.1100  206.2570  150.4040 C   0  0  0  0  0  0  0  0  0  0  0  0
  160.9660  211.3790  152.0920 O   0  0  0  0  0  0  0  0  0  0  0  0
  160.3340  212.4440  151.4340 C   0  0  0  0  0  2  0  0  0  0  0  0
  158.7190  211.4380  152.8530 C   0  0  0  0  0  2  0  0  0  0  0  0
  159.0120  212.7130  152.1170 C   0  0  2  0  0  3  0  0  0  0  0  0
  159.9190  210.5660  152.5580 C   0  0  2  0  0  3  0  0  0  0  0  0
  157.9370  212.9780  151.0790 C   0  0  2  0  0  3  0  0  0  0  0  0
  158.3280  214.1040  150.2360 C   0  0  0  0  0  2  0  0  0  0  0  0
  157.3510  214.3070  151.3150 N   0  0  0  0  0  2  0  0  0  0  0  0
  1  3  1  0  0  0  0
  2  8  2  0  0  0  0
  3  7  1  0  0  0  0
  4  6  1  0  0  0  0
  4  9  2  0  0  0  0
  5  7  1  0  0  0  0
  6 10  2  0  0  0  0
  8  5  1  0  0  0  0
  9  2  1  0  0  0  0
 10 11  1  0  0  0  0
 10  8  1  0  0  0  0
 11  1  1  6  0  0  0
 12 18  1  0  0  0  0
 13 14  1  0  0  0  0
 14 17  2  0  0  0  0
 15 16  1  0  0  0  0
 16 12  2  0  0  0  0
 16 14  1  0  0  0  0
 17 19  1  0  0  0  0
 18 19  2  0  0  0  0
 19  4  1  0  0  0  0
 20 24  1  0  0  0  0
 21 20  1  0  0  0  0
 23 21  1  6  0  0  0
 23 22  1  0  0  0  0
 24 22  1  1  0  0  0
 24 11  1  0  0  0  0
 25 26  1  6  0  0  0
 25 27  1  0  0  0  0
 25 23  1  0  0  0  0
 26 27  1  0  0  0  0
M  END
>  <MODEL>
1

>  <REMARK>
 VINA RESULT:      -8.0      0.000      0.000
  Name = 
  3 active torsions:
  status: ('A' for Active; 'I' for Inactive)
    1  A    between atoms: C_5  and  C_25
    2  A    between atoms: C_10  and  C_26
    3  A    between atoms: C_24  and  C_27
                            x       y       z     vdW  Elec       q    Type
                         _______ _______ _______ _____ _____    ______ ____

>  <TORSDO>
F 3

$$$$
=
 OpenBabel11072413173D

 27 31  0  0  1  0  0  0  0  0999 V2000
  162.2420  210.0080  152.9520 C   0  0  0  0  0  2  0  0  0  0  0  0
  161.1890  205.9510  153.8800 N   0  0  0  0  0  0  0  0  0  0  0  0
  161.8870  210.3850  154.3910 C   0  0  0  0  0  2  0  0  0  0  0  0
  161.1280  205.6620  151.5180 C   0  0  0  0  0  0  0  0  0  0  0  0
  161.1270  208.1020  154.9420 N   0  0  0  0  0  2  0  0  0  0  0  0
  161.0810  207.0130  151.3780 N   0  0  0  0  0  0  0  0  0  0  0  0
  160.7910  209.5180  155.0090 C   0  0  0  0  0  2  0  0  0  0  0  0
  161.1280  207.3030  153.7490 C   0  0  0  0  0  0  0  0  0  0  0  0
  161.1890  205.1230  152.8060 C   0  0  0  0  0  3  0  0  0  0  0  0
  161.0860  207.8600  152.4460 C   0  0  0  0  0  0  0  0  0  0  0  0
  161.0740  209.3540  152.2150 C   0  0  2  0  0  3  0  0  0  0  0  0
  161.3940  204.5180  147.9220 C   0  0  0  0  0  3  0  0  0  0  0  0
  160.5860  201.2790  149.4210 F   0  0  0  0  0  0  0  0  0  0  0  0
  160.8500  202.6020  149.2980 C   0  0  0  0  0  0  0  0  0  0  0  0
  161.1220  202.3680  146.9350 F   0  0  0  0  0  0  0  0  0  0  0  0
  161.1220  203.1530  148.0410 C   0  0  0  0  0  0  0  0  0  0  0  0
  160.8520  203.4180  150.4330 C   0  0  0  0  0  3  0  0  0  0  0  0
  161.3940  205.3330  149.0570 C   0  0  0  0  0  3  0  0  0  0  0  0
  161.1240  204.7920  150.3240 C   0  0  0  0  0  0  0  0  0  0  0  0
  162.0220  209.0260  150.0020 O   0  0  0  0  0  0  0  0  0  0  0  0
  162.3290  209.8460  148.9060 C   0  0  0  0  0  2  0  0  0  0  0  0
  161.2940  211.2180  150.5430 C   0  0  0  0  0  2  0  0  0  0  0  0
  162.1750  211.2900  149.3300 C   0  0  2  0  0  3  0  0  0  0  0  0
  161.0540  209.7360  150.7300 C   0  0  2  0  0  3  0  0  0  0  0  0
  161.4910  212.0820  148.2310 C   0  0  2  0  0  3  0  0  0  0  0  0
  162.4910  212.6440  147.3280 C   0  0  0  0  0  2  0  0  0  0  0  0
  161.8680  213.4990  148.3470 N   0  0  0  0  0  2  0  0  0  0  0  0
  1  3  1  0  0  0  0
  3  7  1  0  0  0  0
  4  9  2  0  0  0  0
  5  7  1  0  0  0  0
  6  4  1  0  0  0  0
  6 10  2  0  0  0  0
  8  2  2  0  0  0  0
  8  5  1  0  0  0  0
  9  2  1  0  0  0  0
 10  8  1  0  0  0  0
 11 10  1  0  0  0  0
 11  1  1  6  0  0  0
 12 16  2  0  0  0  0
 12 18  1  0  0  0  0
 14 13  1  0  0  0  0
 14 17  2  0  0  0  0
 15 16  1  0  0  0  0
 16 14  1  0  0  0  0
 18 19  2  0  0  0  0
 19 17  1  0  0  0  0
 19  4  1  0  0  0  0
 20 24  1  0  0  0  0
 21 20  1  0  0  0  0
 23 21  1  6  0  0  0
 23 22  1  0  0  0  0
 24 22  1  1  0  0  0
 24 11  1  0  0  0  0
 25 26  1  6  0  0  0
 25 27  1  0  0  0  0
 25 23  1  0  0  0  0
 26 27  1  0  0  0  0
M  END
>  <MODEL>
2

>  <REMARK>
 VINA RESULT:      -7.6      2.224      2.723
  Name = 
  3 active torsions:
  status: ('A' for Active; 'I' for Inactive)
    1  A    between atoms: C_5  and  C_25
    2  A    between atoms: C_10  and  C_26
    3  A    between atoms: C_24  and  C_27
                            x       y       z     vdW  Elec       q    Type
                         _______ _______ _______ _____ _____    ______ ____

>  <TORSDO>
F 3

$$$$
=
 OpenBabel11072413173D

 27 31  0  0  1  0  0  0  0  0999 V2000
  160.8300  210.0370  151.5300 C   0  0  0  0  0  2  0  0  0  0  0  0
  161.4960  207.7460  147.9620 N   0  0  0  0  0  0  0  0  0  0  0  0
  161.3130  211.2760  150.7750 C   0  0  0  0  0  2  0  0  0  0  0  0
  161.3780  205.8640  149.4160 C   0  0  0  0  0  0  0  0  0  0  0  0
  161.8560  209.9860  148.7400 N   0  0  0  0  0  2  0  0  0  0  0  0
  161.5610  206.6990  150.4720 N   0  0  0  0  0  0  0  0  0  0  0  0
  162.3470  210.9790  149.6890 C   0  0  0  0  0  2  0  0  0  0  0  0
  161.6940  208.5850  149.0120 C   0  0  0  0  0  0  0  0  0  0  0  0
  161.3400  206.4090  148.1290 C   0  0  0  0  0  3  0  0  0  0  0  0
  161.7140  208.0450  150.3220 C   0  0  0  0  0  0  0  0  0  0  0  0
  161.8720  208.9190  151.5460 C   0  0  2  0  0  3  0  0  0  0  0  0
  161.0280  202.5270  151.1630 C   0  0  0  0  0  3  0  0  0  0  0  0
  160.8030  201.3150  147.7170 F   0  0  0  0  0  0  0  0  0  0  0  0
  160.9270  202.1550  148.7730 C   0  0  0  0  0  0  0  0  0  0  0  0
  160.7490  200.3250  150.2990 F   0  0  0  0  0  0  0  0  0  0  0  0
  160.9000  201.6550  150.0790 C   0  0  0  0  0  0  0  0  0  0  0  0
  161.0820  203.5270  148.5540 C   0  0  0  0  0  3  0  0  0  0  0  0
  161.1850  203.8980  150.9430 C   0  0  0  0  0  3  0  0  0  0  0  0
  161.2130  204.4120  149.6370 C   0  0  0  0  0  0  0  0  0  0  0  0
  160.9230  207.0690  152.8030 O   0  0  0  0  0  0  0  0  0  0  0  0
  160.5350  206.8500  154.1330 C   0  0  0  0  0  2  0  0  0  0  0  0
  161.4790  209.0250  154.0260 C   0  0  0  0  0  2  0  0  0  0  0  0
  160.5770  208.1710  154.8690 C   0  0  2  0  0  3  0  0  0  0  0  0
  161.8410  208.1310  152.8610 C   0  0  2  0  0  3  0  0  0  0  0  0
  161.1790  207.9760  156.2490 C   0  0  2  0  0  3  0  0  0  0  0  0
  160.3250  207.0980  157.0430 C   0  0  0  0  0  2  0  0  0  0  0  0
  160.2770  208.5510  157.2580 N   0  0  0  0  0  2  0  0  0  0  0  0
  2  9  1  0  0  0  0
  2  8  2  0  0  0  0
  3  1  1  0  0  0  0
  4 19  1  0  0  0  0
  4  6  1  0  0  0  0
  5  8  1  0  0  0  0
  5  7  1  0  0  0  0
  7  3  1  0  0  0  0
  8 10  1  0  0  0  0
  9  4  2  0  0  0  0
 10  6  2  0  0  0  0
 10 11  1  0  0  0  0
 11  1  1  1  0  0  0
 11 24  1  0  0  0  0
 13 14  1  0  0  0  0
 14 16  1  0  0  0  0
 16 15  1  0  0  0  0
 16 12  2  0  0  0  0
 17 14  2  0  0  0  0
 17 19  1  0  0  0  0
 18 12  1  0  0  0  0
 19 18  2  0  0  0  0
 20 24  1  0  0  0  0
 20 21  1  0  0  0  0
 21 23  1  0  0  0  0
 23 22  1  6  0  0  0
 23 25  1  0  0  0  0
 24 22  1  1  0  0  0
 25 26  1  1  0  0  0
 25 27  1  0  0  0  0
 26 27  1  0  0  0  0
M  END
>  <MODEL>
3

>  <REMARK>
 VINA RESULT:      -7.6      2.636      5.246
  Name = 
  3 active torsions:
  status: ('A' for Active; 'I' for Inactive)
    1  A    between atoms: C_5  and  C_25
    2  A    between atoms: C_10  and  C_26
    3  A    between atoms: C_24  and  C_27
                            x       y       z     vdW  Elec       q    Type
                         _______ _______ _______ _____ _____    ______ ____

>  <TORSDO>
F 3

$$$$
=
 OpenBabel11072413173D

 27 31  0  0  1  0  0  0  0  0999 V2000
  160.7760  206.0250  150.3240 C   0  0  0  0  0  2  0  0  0  0  0  0
  161.9190  209.9230  151.7110 N   0  0  0  0  0  0  0  0  0  0  0  0
  161.1380  205.4740  151.7030 C   0  0  0  0  0  2  0  0  0  0  0  0
  161.9620  210.4890  149.3990 C   0  0  0  0  0  0  0  0  0  0  0  0
  161.9490  207.6610  152.5110 N   0  0  0  0  0  2  0  0  0  0  0  0
  161.9800  209.1630  149.1000 N   0  0  0  0  0  0  0  0  0  0  0  0
  162.2580  206.2410  152.4060 C   0  0  0  0  0  2  0  0  0  0  0  0
  161.9520  208.5960  151.4200 C   0  0  0  0  0  0  0  0  0  0  0  0
  161.9250  210.8720  150.7420 C   0  0  0  0  0  3  0  0  0  0  0  0
  161.9700  208.1960  150.0600 C   0  0  0  0  0  0  0  0  0  0  0  0
  161.9490  206.7400  149.6540 C   0  0  2  0  0  3  0  0  0  0  0  0
  163.1450  213.2060  147.0470 C   0  0  0  0  0  3  0  0  0  0  0  0
  159.7460  212.8520  145.7370 F   0  0  0  0  0  0  0  0  0  0  0  0
  160.8520  212.6600  146.4960 C   0  0  0  0  0  0  0  0  0  0  0  0
  162.0330  214.3360  145.2700 F   0  0  0  0  0  0  0  0  0  0  0  0
  162.0090  213.4100  146.2600 C   0  0  0  0  0  0  0  0  0  0  0  0
  160.8340  211.7060  147.5180 C   0  0  0  0  0  3  0  0  0  0  0  0
  163.1260  212.2530  148.0700 C   0  0  0  0  0  3  0  0  0  0  0  0
  161.9710  211.4940  148.3150 C   0  0  0  0  0  0  0  0  0  0  0  0
  160.8660  207.1970  147.5280 O   0  0  0  0  0  0  0  0  0  0  0  0
  160.6110  206.4760  146.3520 C   0  0  0  0  0  2  0  0  0  0  0  0
  161.8800  205.0660  147.7800 C   0  0  0  0  0  2  0  0  0  0  0  0
  160.9580  205.0240  146.5960 C   0  0  2  0  0  3  0  0  0  0  0  0
  161.9470  206.5360  148.1340 C   0  0  2  0  0  3  0  0  0  0  0  0
  161.6810  204.4550  145.3890 C   0  0  2  0  0  3  0  0  0  0  0  0
  161.2190  205.1200  144.1740 C   0  0  0  0  0  2  0  0  0  0  0  0
  160.7090  203.7840  144.5120 N   0  0  0  0  0  2  0  0  0  0  0  0
  1  3  1  0  0  0  0
  3  7  1  0  0  0  0
  4  9  2  0  0  0  0
  6  4  1  0  0  0  0
  6 10  2  0  0  0  0
  7  5  1  0  0  0  0
  8  2  2  0  0  0  0
  8  5  1  0  0  0  0
  9  2  1  0  0  0  0
 10  8  1  0  0  0  0
 11 10  1  0  0  0  0
 11  1  1  6  0  0  0
 12 18  1  0  0  0  0
 13 14  1  0  0  0  0
 14 17  2  0  0  0  0
 15 16  1  0  0  0  0
 16 14  1  0  0  0  0
 16 12  2  0  0  0  0
 17 19  1  0  0  0  0
 18 19  2  0  0  0  0
 19  4  1  0  0  0  0
 20 24  1  0  0  0  0
 21 20  1  0  0  0  0
 23 21  1  6  0  0  0
 23 22  1  0  0  0  0
 24 22  1  1  0  0  0
 24 11  1  0  0  0  0
 25 26  1  6  0  0  0
 25 23  1  0  0  0  0
 26 27  1  0  0  0  0
 27 25  1  0  0  0  0
M  END
>  <MODEL>
4

>  <REMARK>
 VINA RESULT:      -7.4      4.143      7.370
  Name = 
  3 active torsions:
  status: ('A' for Active; 'I' for Inactive)
    1  A    between atoms: C_5  and  C_25
    2  A    between atoms: C_10  and  C_26
    3  A    between atoms: C_24  and  C_27
                            x       y       z     vdW  Elec       q    Type
                         _______ _______ _______ _____ _____    ______ ____

>  <TORSDO>
F 3

$$$$
=
 OpenBabel11072413173D

 27 31  0  0  1  0  0  0  0  0999 V2000
  162.4330  208.7080  150.5850 C   0  0  0  0  0  2  0  0  0  0  0  0
  161.1900  205.2620  152.8230 N   0  0  0  0  0  0  0  0  0  0  0  0
  162.0440  209.5750  151.7830 C   0  0  0  0  0  2  0  0  0  0  0  0
  161.1980  204.1640  150.7110 C   0  0  0  0  0  0  0  0  0  0  0  0
  161.1760  207.6500  153.0620 N   0  0  0  0  0  2  0  0  0  0  0  0
  161.2100  205.3810  150.1050 N   0  0  0  0  0  0  0  0  0  0  0  0
  160.8930  209.0070  152.6140 C   0  0  0  0  0  2  0  0  0  0  0  0
  161.1860  206.4830  152.2250 C   0  0  0  0  0  0  0  0  0  0  0  0
  161.1940  204.1100  152.1070 C   0  0  0  0  0  3  0  0  0  0  0  0
  161.2110  206.5480  150.8090 C   0  0  0  0  0  0  0  0  0  0  0  0
  161.2660  207.8660  150.0700 C   0  0  2  0  0  3  0  0  0  0  0  0
  161.2050  200.5020  149.7630 C   0  0  0  0  0  3  0  0  0  0  0  0
  161.2060  201.8960  146.3790 F   0  0  0  0  0  0  0  0  0  0  0  0
  161.2050  201.8190  147.7320 C   0  0  0  0  0  0  0  0  0  0  0  0
  161.2090  199.4320  147.6360 F   0  0  0  0  0  0  0  0  0  0  0  0
  161.2060  200.5730  148.3680 C   0  0  0  0  0  0  0  0  0  0  0  0
  161.2020  202.9920  148.4930 C   0  0  0  0  0  3  0  0  0  0  0  0
  161.2030  201.6750  150.5230 C   0  0  0  0  0  3  0  0  0  0  0  0
  161.2010  202.9300  149.8970 C   0  0  0  0  0  0  0  0  0  0  0  0
  160.0820  207.2510  148.0390 O   0  0  0  0  0  0  0  0  0  0  0  0
  160.4020  206.5780  146.8520 C   0  0  0  0  0  2  0  0  0  0  0  0
  162.3950  206.7330  148.1310 C   0  0  0  0  0  2  0  0  0  0  0  0
  161.7730  205.9560  147.0070 C   0  0  2  0  0  3  0  0  0  0  0  0
  161.3110  207.7030  148.5460 C   0  0  2  0  0  3  0  0  0  0  0  0
  162.5740  206.1450  145.7320 C   0  0  2  0  0  3  0  0  0  0  0  0
  161.9170  205.4550  144.6270 C   0  0  0  0  0  2  0  0  0  0  0  0
  163.0810  204.8400  145.2800 N   0  0  0  0  0  2  0  0  0  0  0  0
  1  3  1  0  0  0  0
  3  7  1  0  0  0  0
  4  9  2  0  0  0  0
  6  4  1  0  0  0  0
  6 10  2  0  0  0  0
  7  5  1  0  0  0  0
  8  2  2  0  0  0  0
  8  5  1  0  0  0  0
  9  2  1  0  0  0  0
 10  8  1  0  0  0  0
 11  1  1  1  0  0  0
 11 10  1  0  0  0  0
 12 18  1  0  0  0  0
 13 14  1  0  0  0  0
 14 16  1  0  0  0  0
 14 17  2  0  0  0  0
 15 16  1  0  0  0  0
 16 12  2  0  0  0  0
 17 19  1  0  0  0  0
 19 18  2  0  0  0  0
 19  4  1  0  0  0  0
 20 24  1  0  0  0  0
 21 20  1  0  0  0  0
 23 21  1  6  0  0  0
 23 22  1  0  0  0  0
 24 22  1  1  0  0  0
 24 11  1  0  0  0  0
 25 26  1  6  0  0  0
 25 23  1  0  0  0  0
 26 27  1  0  0  0  0
 27 25  1  0  0  0  0
M  END
>  <MODEL>
5

>  <REMARK>
 VINA RESULT:      -7.3      3.239      5.824
  Name = 
  3 active torsions:
  status: ('A' for Active; 'I' for Inactive)
    1  A    between atoms: C_5  and  C_25
    2  A    between atoms: C_10  and  C_26
    3  A    between atoms: C_24  and  C_27
                            x       y       z     vdW  Elec       q    Type
                         _______ _______ _______ _____ _____    ______ ____

>  <TORSDO>
F 3

$$$$
=
 OpenBabel11072413173D

 27 31  0  0  1  0  0  0  0  0999 V2000
  162.5510  206.5890  151.1190 C   0  0  0  0  0  2  0  0  0  0  0  0
  160.9730  202.6690  151.8700 N   0  0  0  0  0  0  0  0  0  0  0  0
  162.1350  206.9830  152.5360 C   0  0  0  0  0  2  0  0  0  0  0  0
  161.0560  202.4250  149.5030 C   0  0  0  0  0  0  0  0  0  0  0  0
  161.0790  204.7950  152.9760 N   0  0  0  0  0  2  0  0  0  0  0  0
  161.1760  203.7750  149.3930 N   0  0  0  0  0  0  0  0  0  0  0  0
  160.9030  206.2400  153.0520 C   0  0  0  0  0  2  0  0  0  0  0  0
  161.0770  204.0200  151.7670 C   0  0  0  0  0  0  0  0  0  0  0  0
  160.9580  201.8630  150.7790 C   0  0  0  0  0  3  0  0  0  0  0  0
  161.1970  204.5980  150.4790 C   0  0  0  0  0  0  0  0  0  0  0  0
  161.3740  206.0870  150.2830 C   0  0  2  0  0  3  0  0  0  0  0  0
  161.5810  199.4800  147.1870 C   0  0  0  0  0  3  0  0  0  0  0  0
  159.9320  201.7100  144.7990 F   0  0  0  0  0  0  0  0  0  0  0  0
  160.4750  201.2420  145.9490 C   0  0  0  0  0  0  0  0  0  0  0  0
  161.0180  199.1680  144.8950 F   0  0  0  0  0  0  0  0  0  0  0  0
  161.0230  199.9560  145.9980 C   0  0  0  0  0  0  0  0  0  0  0  0
  160.4830  202.0490  147.0910 C   0  0  0  0  0  3  0  0  0  0  0  0
  161.5900  200.2880  148.3280 C   0  0  0  0  0  3  0  0  0  0  0  0
  161.0420  201.5790  148.2910 C   0  0  0  0  0  0  0  0  0  0  0  0
  160.2660  206.8420  148.2570 O   0  0  0  0  0  0  0  0  0  0  0  0
  160.3920  206.5840  146.8840 C   0  0  0  0  0  2  0  0  0  0  0  0
  162.1100  205.3730  147.9870 C   0  0  0  0  0  2  0  0  0  0  0  0
  161.3390  205.4190  146.7000 C   0  0  2  0  0  3  0  0  0  0  0  0
  161.5090  206.4920  148.8100 C   0  0  2  0  0  3  0  0  0  0  0  0
  162.2760  205.6910  145.5370 C   0  0  2  0  0  3  0  0  0  0  0  0
  161.5280  205.6780  144.2840 C   0  0  0  0  0  2  0  0  0  0  0  0
  162.3260  204.5060  144.6670 N   0  0  0  0  0  2  0  0  0  0  0  0
  1  3  1  0  0  0  0
  3  7  1  0  0  0  0
  4  9  2  0  0  0  0
  5  7  1  0  0  0  0
  6  4  1  0  0  0  0
  6 10  2  0  0  0  0
  8  2  2  0  0  0  0
  8  5  1  0  0  0  0
  9  2  1  0  0  0  0
 10  8  1  0  0  0  0
 11 10  1  0  0  0  0
 11  1  1  1  0  0  0
 12 18  1  0  0  0  0
 13 14  1  0  0  0  0
 14 16  1  0  0  0  0
 14 17  2  0  0  0  0
 15 16  1  0  0  0  0
 16 12  2  0  0  0  0
 17 19  1  0  0  0  0
 19 18  2  0  0  0  0
 19  4  1  0  0  0  0
 20 24  1  0  0  0  0
 21 20  1  0  0  0  0
 23 21  1  1  0  0  0
 23 22  1  0  0  0  0
 24 22  1  6  0  0  0
 24 11  1  0  0  0  0
 25 26  1  6  0  0  0
 25 23  1  0  0  0  0
 26 27  1  0  0  0  0
 27 25  1  0  0  0  0
M  END
>  <MODEL>
6

>  <REMARK>
 VINA RESULT:      -7.1      4.503      6.577
  Name = 
  3 active torsions:
  status: ('A' for Active; 'I' for Inactive)
    1  A    between atoms: C_5  and  C_25
    2  A    between atoms: C_10  and  C_26
    3  A    between atoms: C_24  and  C_27
                            x       y       z     vdW  Elec       q    Type
                         _______ _______ _______ _____ _____    ______ ____

>  <TORSDO>
F 3

$$$$
=
 OpenBabel11072413173D

 27 31  0  0  1  0  0  0  0  0999 V2000
  160.4560  207.9390  153.1510 C   0  0  0  0  0  2  0  0  0  0  0  0
  162.0440  209.7920  149.6200 N   0  0  0  0  0  0  0  0  0  0  0  0
  160.9960  209.1180  153.9620 C   0  0  0  0  0  2  0  0  0  0  0  0
  161.7570  207.6440  148.6340 C   0  0  0  0  0  0  0  0  0  0  0  0
  162.0590  210.1580  151.9910 N   0  0  0  0  0  2  0  0  0  0  0  0
  161.6450  207.1140  149.8800 N   0  0  0  0  0  0  0  0  0  0  0  0
  162.2580  209.7500  153.3760 C   0  0  0  0  0  2  0  0  0  0  0  0
  161.9480  209.2670  150.8700 C   0  0  0  0  0  0  0  0  0  0  0  0
  161.9560  209.0220  148.5070 C   0  0  0  0  0  3  0  0  0  0  0  0
  161.7260  207.8740  151.0080 C   0  0  0  0  0  0  0  0  0  0  0  0
  161.5510  207.2220  152.3610 C   0  0  2  0  0  3  0  0  0  0  0  0
  160.3840  205.9500  145.5420 C   0  0  0  0  0  3  0  0  0  0  0  0
  163.6570  204.3150  145.5980 F   0  0  0  0  0  0  0  0  0  0  0  0
  162.6200  205.1150  145.9440 C   0  0  0  0  0  0  0  0  0  0  0  0
  161.3420  204.3290  144.0850 F   0  0  0  0  0  0  0  0  0  0  0  0
  161.4490  205.1230  145.1790 C   0  0  0  0  0  0  0  0  0  0  0  0
  162.7230  205.9370  147.0710 C   0  0  0  0  0  3  0  0  0  0  0  0
  160.4870  206.7700  146.6690 C   0  0  0  0  0  3  0  0  0  0  0  0
  161.6570  206.7720  147.4440 C   0  0  0  0  0  0  0  0  0  0  0  0
  162.4980  204.9850  152.3140 O   0  0  0  0  0  0  0  0  0  0  0  0
  162.2200  203.7880  151.6380 C   0  0  0  0  0  2  0  0  0  0  0  0
  160.5470  205.3530  151.0140 C   0  0  0  0  0  2  0  0  0  0  0  0
  161.1870  204.0700  150.5690 C   0  0  2  0  0  3  0  0  0  0  0  0
  161.2960  205.7120  152.2780 C   0  0  2  0  0  3  0  0  0  0  0  0
  160.1590  202.9550  150.5350 C   0  0  2  0  0  3  0  0  0  0  0  0
  160.8320  201.6610  150.4660 C   0  0  0  0  0  2  0  0  0  0  0  0
  160.2530  202.2470  149.2490 N   0  0  0  0  0  2  0  0  0  0  0  0
  1  3  1  0  0  0  0
  2  8  2  0  0  0  0
  4  6  1  0  0  0  0
  5  7  1  0  0  0  0
  6 10  2  0  0  0  0
  7  3  1  0  0  0  0
  8 10  1  0  0  0  0
  8  5  1  0  0  0  0
  9  4  2  0  0  0  0
  9  2  1  0  0  0  0
 10 11  1  0  0  0  0
 11  1  1  6  0  0  0
 12 18  1  0  0  0  0
 13 14  1  0  0  0  0
 14 17  2  0  0  0  0
 15 16  1  0  0  0  0
 16 12  2  0  0  0  0
 16 14  1  0  0  0  0
 17 19  1  0  0  0  0
 18 19  2  0  0  0  0
 19  4  1  0  0  0  0
 21 20  1  0  0  0  0
 23 22  1  1  0  0  0
 23 21  1  0  0  0  0
 24 22  1  6  0  0  0
 24 20  1  0  0  0  0
 24 11  1  0  0  0  0
 25 26  1  1  0  0  0
 25 23  1  0  0  0  0
 27 26  1  0  0  0  0
 27 25  1  0  0  0  0
M  END
>  <MODEL>
7

>  <REMARK>
 VINA RESULT:      -7.0      3.327      5.895
  Name = 
  3 active torsions:
  status: ('A' for Active; 'I' for Inactive)
    1  A    between atoms: C_5  and  C_25
    2  A    between atoms: C_10  and  C_26
    3  A    between atoms: C_24  and  C_27
                            x       y       z     vdW  Elec       q    Type
                         _______ _______ _______ _____ _____    ______ ____

>  <TORSDO>
F 3

$$$$
=
 OpenBabel11072413173D

 27 31  0  0  1  0  0  0  0  0999 V2000
  160.4720  205.3250  150.6390 C   0  0  0  0  0  2  0  0  0  0  0  0
  161.2970  208.9240  152.8280 N   0  0  0  0  0  0  0  0  0  0  0  0
  160.6780  204.5390  151.9350 C   0  0  0  0  0  2  0  0  0  0  0  0
  161.6070  209.8960  150.6770 C   0  0  0  0  0  0  0  0  0  0  0  0
  161.3060  206.5560  153.2130 N   0  0  0  0  0  2  0  0  0  0  0  0
  161.7080  208.6450  150.1540 N   0  0  0  0  0  0  0  0  0  0  0  0
  161.6750  205.1810  152.9000 C   0  0  0  0  0  2  0  0  0  0  0  0
  161.4120  207.6710  152.3140 C   0  0  0  0  0  0  0  0  0  0  0  0
  161.3900  210.0310  152.0520 C   0  0  0  0  0  3  0  0  0  0  0  0
  161.6120  207.5220  150.9190 C   0  0  0  0  0  0  0  0  0  0  0  0
  161.6930  206.1630  150.2630 C   0  0  2  0  0  3  0  0  0  0  0  0
  161.0080  213.3310  149.2100 C   0  0  0  0  0  3  0  0  0  0  0  0
  163.5880  212.2240  146.8610 F   0  0  0  0  0  0  0  0  0  0  0  0
  162.7130  212.2230  147.8960 C   0  0  0  0  0  0  0  0  0  0  0  0
  161.9950  214.4340  147.3440 F   0  0  0  0  0  0  0  0  0  0  0  0
  161.9080  213.3400  148.1410 C   0  0  0  0  0  0  0  0  0  0  0  0
  162.6170  211.0980  148.7220 C   0  0  0  0  0  3  0  0  0  0  0  0
  160.9130  212.2060  150.0340 C   0  0  0  0  0  3  0  0  0  0  0  0
  161.7160  211.0800  149.7990 C   0  0  0  0  0  0  0  0  0  0  0  0
  160.9270  207.0640  148.1410 O   0  0  0  0  0  0  0  0  0  0  0  0
  160.8020  206.5830  146.8290 C   0  0  0  0  0  2  0  0  0  0  0  0
  161.8070  204.8600  148.1160 C   0  0  0  0  0  2  0  0  0  0  0  0
  161.0520  205.0910  146.8390 C   0  0  2  0  0  3  0  0  0  0  0  0
  161.8870  206.2340  148.7430 C   0  0  2  0  0  3  0  0  0  0  0  0
  161.9060  204.7010  145.6470 C   0  0  2  0  0  3  0  0  0  0  0  0
  161.2080  205.0300  144.4080 C   0  0  0  0  0  2  0  0  0  0  0  0
  161.2260  203.6410  144.8880 N   0  0  0  0  0  2  0  0  0  0  0  0
  1  3  1  0  0  0  0
  3  7  1  0  0  0  0
  4  9  2  0  0  0  0
  6  4  1  0  0  0  0
  6 10  2  0  0  0  0
  7  5  1  0  0  0  0
  8  2  2  0  0  0  0
  8  5  1  0  0  0  0
  9  2  1  0  0  0  0
 10  8  1  0  0  0  0
 11  1  1  6  0  0  0
 11 10  1  0  0  0  0
 12 18  1  0  0  0  0
 13 14  1  0  0  0  0
 14 16  1  0  0  0  0
 14 17  2  0  0  0  0
 15 16  1  0  0  0  0
 16 12  2  0  0  0  0
 17 19  1  0  0  0  0
 19 18  2  0  0  0  0
 19  4  1  0  0  0  0
 20 24  1  0  0  0  0
 21 20  1  0  0  0  0
 23 21  1  6  0  0  0
 23 22  1  0  0  0  0
 24 22  1  6  0  0  0
 24 11  1  0  0  0  0
 25 26  1  6  0  0  0
 25 23  1  0  0  0  0
 26 27  1  0  0  0  0
 27 25  1  0  0  0  0
M  END
>  <MODEL>
8

>  <REMARK>
 VINA RESULT:      -6.9      3.657      7.085
  Name = 
  3 active torsions:
  status: ('A' for Active; 'I' for Inactive)
    1  A    between atoms: C_5  and  C_25
    2  A    between atoms: C_10  and  C_26
    3  A    between atoms: C_24  and  C_27
                            x       y       z     vdW  Elec       q    Type
                         _______ _______ _______ _____ _____    ______ ____

>  <TORSDO>
F 3

$$$$
=
 OpenBabel11072413173D

 27 31  0  0  1  0  0  0  0  0999 V2000
  160.4550  203.1380  149.5520 C   0  0  0  0  0  2  0  0  0  0  0  0
  160.9730  205.1000  153.3350 N   0  0  0  0  0  0  0  0  0  0  0  0
  160.8150  201.8180  150.2340 C   0  0  0  0  0  2  0  0  0  0  0  0
  161.0610  207.0940  152.0360 C   0  0  0  0  0  0  0  0  0  0  0  0
  161.2720  202.9100  152.4010 N   0  0  0  0  0  2  0  0  0  0  0  0
  161.2780  206.3350  150.9300 N   0  0  0  0  0  0  0  0  0  0  0  0
  161.7790  201.9690  151.4110 C   0  0  0  0  0  2  0  0  0  0  0  0
  161.2040  204.3350  152.2350 C   0  0  0  0  0  0  0  0  0  0  0  0
  160.9000  206.4520  153.2680 C   0  0  0  0  0  3  0  0  0  0  0  0
  161.3500  204.9750  150.9790 C   0  0  0  0  0  0  0  0  0  0  0  0
  161.5520  204.1920  149.7010 C   0  0  2  0  0  3  0  0  0  0  0  0
  160.1760  210.7000  152.7630 C   0  0  0  0  0  3  0  0  0  0  0  0
  162.2260  211.2750  149.7870 F   0  0  0  0  0  0  0  0  0  0  0  0
  161.5800  210.6370  150.7910 C   0  0  0  0  0  0  0  0  0  0  0  0
  160.7640  212.7160  151.6410 F   0  0  0  0  0  0  0  0  0  0  0  0
  160.8410  211.3650  151.7300 C   0  0  0  0  0  0  0  0  0  0  0  0
  161.6540  209.2440  150.8890 C   0  0  0  0  0  3  0  0  0  0  0  0
  160.2500  209.3070  152.8590 C   0  0  0  0  0  3  0  0  0  0  0  0
  160.9890  208.5660  151.9250 C   0  0  0  0  0  0  0  0  0  0  0  0
  160.4780  205.8110  148.2420 O   0  0  0  0  0  0  0  0  0  0  0  0
  160.4480  206.0580  146.8620 C   0  0  0  0  0  2  0  0  0  0  0  0
  161.9560  204.2600  147.2210 C   0  0  0  0  0  2  0  0  0  0  0  0
  161.1190  204.9020  146.1530 C   0  0  2  0  0  3  0  0  0  0  0  0
  161.6590  205.0810  148.4570 C   0  0  2  0  0  3  0  0  0  0  0  0
  162.0030  205.4230  145.0360 C   0  0  2  0  0  3  0  0  0  0  0  0
  161.2070  206.2030  144.0940 C   0  0  0  0  0  2  0  0  0  0  0  0
  161.5810  204.8220  143.7610 N   0  0  0  0  0  2  0  0  0  0  0  0
  1  3  1  0  0  0  0
  3  7  1  0  0  0  0
  4  9  2  0  0  0  0
  6 10  2  0  0  0  0
  6  4  1  0  0  0  0
  7  5  1  0  0  0  0
  8  5  1  0  0  0  0
  8  2  2  0  0  0  0
  9  2  1  0  0  0  0
 10  8  1  0  0  0  0
 11  1  1  6  0  0  0
 11 10  1  0  0  0  0
 12 18  1  0  0  0  0
 13 14  1  0  0  0  0
 14 17  2  0  0  0  0
 14 16  1  0  0  0  0
 15 16  1  0  0  0  0
 16 12  2  0  0  0  0
 17 19  1  0  0  0  0
 19  4  1  0  0  0  0
 19 18  2  0  0  0  0
 20 24  1  0  0  0  0
 21 20  1  0  0  0  0
 23 21  1  1  0  0  0
 23 22  1  0  0  0  0
 24 22  1  6  0  0  0
 24 11  1  0  0  0  0
 25 26  1  6  0  0  0
 25 23  1  0  0  0  0
 27 26  1  0  0  0  0
 27 25  1  0  0  0  0
M  END
>  <MODEL>
9

>  <REMARK>
 VINA RESULT:      -6.8      3.647      7.335
  Name = 
  3 active torsions:
  status: ('A' for Active; 'I' for Inactive)
    1  A    between atoms: C_5  and  C_25
    2  A    between atoms: C_10  and  C_26
    3  A    between atoms: C_24  and  C_27
                            x       y       z     vdW  Elec       q    Type
                         _______ _______ _______ _____ _____    ______ ____

>  <TORSDO>
F 3

$$$$
