=
 OpenBabel11072413563D

 46 48  0  0  1  0  0  0  0  0999 V2000
  162.1670  209.7020  152.2280 C   0  0  1  0  0  3  0  0  0  0  0  0
  160.9600  209.3120  153.0720 C   0  0  1  0  0  0  0  0  0  0  0  0
  161.1230  207.9790  152.3470 C   0  0  1  0  0  3  0  0  0  0  0  0
  162.2470  208.4280  151.6300 O   0  0  0  0  0  0  0  0  0  0  0  0
  161.5060  206.7850  153.2170 C   0  0  0  0  0  2  0  0  0  0  0  0
  162.0460  205.7250  152.3800 N   0  0  0  0  0  2  0  0  0  0  0  0
  160.0530  204.5060  152.3300 O   0  0  0  0  0  0  0  0  0  0  0  0
  161.2600  204.6050  151.9770 C   0  0  0  0  0  0  0  0  0  0  0  0
  161.8640  203.5530  151.1120 C   0  0  0  0  0  2  0  0  0  0  0  0
  160.8660  202.4340  150.8380 C   0  0  0  0  0  2  0  0  0  0  0  0
  160.8820  201.3970  148.5780 C   0  0  0  0  0  2  0  0  0  0  0  0
  160.3200  202.5080  149.4190 C   0  0  2  0  0  3  0  0  0  0  0  0
  160.7260  203.6990  148.8260 O   0  0  0  0  0  0  0  0  0  0  0  0
  161.0870  203.3290  147.5230 C   0  0  1  0  0  3  0  0  0  0  0  0
  162.1560  204.1900  147.0540 N   0  0  0  0  0  1  0  0  0  0  0  0
  161.5140  201.9930  147.4890 O   0  0  0  0  0  0  0  0  0  0  0  0
  161.3310  209.3280  154.5660 C   0  0  0  0  0  2  0  0  0  0  0  0
  162.0590  210.6020  154.9720 C   0  0  0  0  0  2  0  0  0  0  0  0
  162.8480  210.3750  156.2480 C   0  0  0  0  0  2  0  0  0  0  0  0
  162.5410  211.4610  157.2610 C   0  0  0  0  0  2  0  0  0  0  0  0
  161.5890  212.3320  156.7340 O   0  0  0  0  0  1  0  0  0  0  0  0
  161.9080  210.7600  151.1540 C   0  0  0  0  0  2  0  0  0  0  0  0
  162.5770  210.3820  149.8420 C   0  0  0  0  0  2  0  0  0  0  0  0
  162.3200  211.3990  148.8180 C   0  0  0  0  0  0  0  0  0  0  0  0
  162.1170  212.1990  148.0080 N   0  0  0  0  0  0  0  0  0  0  0  0
  159.6170  209.9790  152.7050 C   0  0  0  0  0  2  0  0  0  0  0  0
  159.2930  211.2130  153.5450 C   0  0  0  0  0  2  0  0  0  0  0  0
  157.0700  212.4100  153.7660 C   0  0  1  0  0  3  0  0  0  0  0  0
  157.3600  212.1910  156.0660 C   0  0  0  0  0  2  0  0  0  0  0  0
  158.3600  214.1970  155.0250 C   0  0  0  0  0  1  0  0  0  0  0  0
  155.8840  214.0180  155.2470 C   0  0  0  0  0  1  0  0  0  0  0  0
  157.8700  211.1630  154.0880 C   0  0  2  0  0  3  0  0  0  0  0  0
  157.9170  211.0240  155.4900 O   0  0  0  0  0  0  0  0  0  0  0  0
  157.1680  213.2520  155.0060 C   0  0  0  0  0  0  0  0  0  0  0  0
  157.2900  213.0510  152.4130 C   0  0  0  0  0  0  0  0  0  0  0  0
  156.3880  213.7470  151.8780 O   0  0  0  0  0  0  0  0  0  0  0  0
  158.5190  212.9250  151.7640 O   0  0  0  0  0  0  0  0  0  0  0  0
  159.3670  214.0020  151.5990 N   0  0  0  0  0  2  0  0  0  0  0  0
  160.0130  213.8630  150.3000 C   0  0  0  0  0  2  0  0  0  0  0  0
  158.9690  213.6930  149.2110 C   0  0  0  0  0  2  0  0  0  0  0  0
  159.3610  214.4010  148.0620 O   0  0  0  0  0  0  0  0  0  0  0  0
  158.2740  214.4460  147.1620 C   0  0  2  0  0  3  0  0  0  0  0  0
  156.6700  214.3610  147.9610 Cl  0  0  0  0  0  0  0  0  0  0  0  0
  157.6630  212.3460  145.9560 O   0  0  0  0  0  1  0  0  0  0  0  0
  159.2000  213.7820  145.0480 O   0  0  0  0  0  0  0  0  0  0  0  0
  158.4260  213.5050  146.0030 C   0  0  0  0  0  0  0  0  0  0  0  0
  1 22  1  6  0  0  0
  1  2  1  0  0  0  0
  2 26  1  6  0  0  0
  2 17  1  0  0  0  0
  3  2  1  0  0  0  0
  3  5  1  1  0  0  0
  4  1  1  0  0  0  0
  4  3  1  0  0  0  0
  6  5  1  0  0  0  0
  8  7  2  0  0  0  0
  8  6  1  0  0  0  0
  9  8  1  0  0  0  0
 10  9  1  0  0  0  0
 11 12  1  0  0  0  0
 12 10  1  1  0  0  0
 13 12  1  0  0  0  0
 14 15  1  1  0  0  0
 14 13  1  0  0  0  0
 16 14  1  0  0  0  0
 16 11  1  0  0  0  0
 17 18  1  0  0  0  0
 18 19  1  0  0  0  0
 19 20  1  0  0  0  0
 21 20  1  0  0  0  0
 23 22  1  0  0  0  0
 24 23  1  0  0  0  0
 25 24  3  0  0  0  0
 26 27  1  0  0  0  0
 28 35  1  6  0  0  0
 28 32  1  0  0  0  0
 28 34  1  0  0  0  0
 32 27  1  1  0  0  0
 32 33  1  0  0  0  0
 33 29  1  0  0  0  0
 34 30  1  0  0  0  0
 34 31  1  0  0  0  0
 34 29  1  0  0  0  0
 36 35  2  0  0  0  0
 37 35  1  0  0  0  0
 38 37  1  0  0  0  0
 39 38  1  0  0  0  0
 40 39  1  0  0  0  0
 41 40  1  0  0  0  0
 42 43  1  1  0  0  0
 42 41  1  0  0  0  0
 44 46  1  0  0  0  0
 45 46  2  0  0  0  0
 46 42  1  0  0  0  0
M  END
>  <MODEL>
1

>  <REMARK>
 VINA RESULT:      -4.4      0.000      0.000
  Name = 
  23 active torsions:
  status: ('A' for Active; 'I' for Inactive)
    1  A    between atoms: C_2  and  C_9
    2  A    between atoms: C_2  and  C_18
    3  A    between atoms: N_3  and  C_25
    4  A    between atoms: C_4  and  C_13
    5  A    between atoms: C_4  and  C_24
    6  A    between atoms: C_6  and  C_17
    7  A    between atoms: C_6  and  C_27
    8  A    between atoms: C_7  and  C_21
    9  A    between atoms: C_7  and  C_39
   10  A    between atoms: C_8  and  C_31
   11  A    between atoms: C_14  and  N_16
   12  A    between atoms: C_14  and  C_43
   13  A    between atoms: C_15  and  C_39
   14  A    between atoms: N_16  and  O_45
   15  A    between atoms: C_17  and  C_29
   16  A    between atoms: C_18  and  C_23
   17  A    between atoms: C_21  and  C_27
   18  A    between atoms: C_24  and  C_36
   19  A    between atoms: C_25  and  C_30
   20  A    between atoms: C_26  and  C_33
   21  A    between atoms: C_26  and  O_42
   22  A    between atoms: C_31  and  O_45
   23  A    between atoms: O_42  and  C_43
                            x       y       z     vdW  Elec       q    Type
                         _______ _______ _______ _____ _____    ______ ____

>  <TORSDO>
F 23

$$$$
=
 OpenBabel11072413563D

 46 48  0  0  1  0  0  0  0  0999 V2000
  161.9800  209.0470  154.6760 C   0  0  1  0  0  3  0  0  0  0  0  0
  160.8250  209.1180  153.6860 C   0  0  1  0  0  0  0  0  0  0  0  0
  161.6930  210.1930  153.0410 C   0  0  1  0  0  3  0  0  0  0  0  0
  162.7160  210.0360  153.9930 O   0  0  0  0  0  0  0  0  0  0  0  0
  162.2280  209.8760  151.6480 C   0  0  0  0  0  2  0  0  0  0  0  0
  161.5740  208.6830  151.1340 N   0  0  0  0  0  2  0  0  0  0  0  0
  162.3270  208.9950  148.9450 O   0  0  0  0  0  0  0  0  0  0  0  0
  161.6610  208.3040  149.7610 C   0  0  0  0  0  0  0  0  0  0  0  0
  160.9760  207.0660  149.2930 C   0  0  0  0  0  2  0  0  0  0  0  0
  161.1510  206.8820  147.7910 C   0  0  0  0  0  2  0  0  0  0  0  0
  162.5300  205.7910  146.0330 C   0  0  0  0  0  2  0  0  0  0  0  0
  162.1140  205.7450  147.4760 C   0  0  2  0  0  3  0  0  0  0  0  0
  161.4720  204.5260  147.6650 O   0  0  0  0  0  0  0  0  0  0  0  0
  161.8820  203.7470  146.5740 C   0  0  1  0  0  3  0  0  0  0  0  0
  160.8230  202.8240  146.2130 N   0  0  0  0  0  1  0  0  0  0  0  0
  162.1880  204.5620  145.4740 O   0  0  0  0  0  0  0  0  0  0  0  0
  160.7000  207.7880  152.9210 C   0  0  0  0  0  2  0  0  0  0  0  0
  161.3490  206.6260  153.6610 C   0  0  0  0  0  2  0  0  0  0  0  0
  161.9090  205.6180  152.6750 C   0  0  0  0  0  2  0  0  0  0  0  0
  161.0690  204.3550  152.6740 C   0  0  0  0  0  2  0  0  0  0  0  0
  161.0210  203.8300  151.3840 O   0  0  0  0  0  1  0  0  0  0  0  0
  161.6650  209.5260  156.0950 C   0  0  0  0  0  2  0  0  0  0  0  0
  162.4390  210.7920  156.4270 C   0  0  0  0  0  2  0  0  0  0  0  0
  161.5310  211.8460  156.8930 C   0  0  0  0  0  0  0  0  0  0  0  0
  160.8140  212.6760  157.2580 N   0  0  0  0  0  0  0  0  0  0  0  0
  159.5020  209.7170  154.2110 C   0  0  0  0  0  2  0  0  0  0  0  0
  159.1630  211.0810  153.6110 C   0  0  0  0  0  2  0  0  0  0  0  0
  157.2910  212.7330  153.1780 C   0  0  1  0  0  3  0  0  0  0  0  0
  156.5860  212.2610  155.3460 C   0  0  0  0  0  2  0  0  0  0  0  0
  158.2590  214.0640  155.1090 C   0  0  0  0  0  1  0  0  0  0  0  0
  155.9150  214.4400  154.3520 C   0  0  0  0  0  1  0  0  0  0  0  0
  157.6580  211.3130  153.5630 C   0  0  2  0  0  3  0  0  0  0  0  0
  157.1110  211.0500  154.8350 O   0  0  0  0  0  0  0  0  0  0  0  0
  157.0290  213.4230  154.4860 C   0  0  0  0  0  0  0  0  0  0  0  0
  158.1470  213.4170  152.1340 C   0  0  0  0  0  0  0  0  0  0  0  0
  158.9410  214.3390  152.4590 O   0  0  0  0  0  0  0  0  0  0  0  0
  158.1080  212.9960  150.8040 O   0  0  0  0  0  0  0  0  0  0  0  0
  157.0160  213.2420  149.9960 N   0  0  0  0  0  2  0  0  0  0  0  0
  157.4990  213.8830  148.7800 C   0  0  0  0  0  2  0  0  0  0  0  0
  158.9940  213.6600  148.6290 C   0  0  0  0  0  2  0  0  0  0  0  0
  159.2490  212.9210  147.4610 O   0  0  0  0  0  0  0  0  0  0  0  0
  160.5960  212.4980  147.4760 C   0  0  2  0  0  3  0  0  0  0  0  0
  161.3260  212.4640  149.1150 Cl  0  0  0  0  0  0  0  0  0  0  0  0
  162.5390  213.9390  146.8540 O   0  0  0  0  0  1  0  0  0  0  0  0
  161.2020  213.0500  145.2190 O   0  0  0  0  0  0  0  0  0  0  0  0
  161.4440  213.1880  146.4480 C   0  0  0  0  0  0  0  0  0  0  0  0
  1 22  1  1  0  0  0
  2 17  1  6  0  0  0
  2 26  1  0  0  0  0
  2  1  1  0  0  0  0
  3  5  1  6  0  0  0
  3  2  1  0  0  0  0
  3  4  1  0  0  0  0
  4  1  1  0  0  0  0
  6  5  1  0  0  0  0
  7  8  2  0  0  0  0
  8  6  1  0  0  0  0
  9  8  1  0  0  0  0
 10  9  1  0  0  0  0
 11 12  1  0  0  0  0
 12 13  1  0  0  0  0
 12 10  1  6  0  0  0
 14 15  1  6  0  0  0
 14 13  1  0  0  0  0
 16 11  1  0  0  0  0
 16 14  1  0  0  0  0
 17 18  1  0  0  0  0
 19 18  1  0  0  0  0
 20 19  1  0  0  0  0
 21 20  1  0  0  0  0
 22 23  1  0  0  0  0
 23 24  1  0  0  0  0
 24 25  3  0  0  0  0
 27 26  1  0  0  0  0
 28 35  1  1  0  0  0
 28 32  1  0  0  0  0
 28 34  1  0  0  0  0
 31 34  1  0  0  0  0
 32 27  1  1  0  0  0
 32 33  1  0  0  0  0
 33 29  1  0  0  0  0
 34 30  1  0  0  0  0
 34 29  1  0  0  0  0
 35 36  2  0  0  0  0
 37 35  1  0  0  0  0
 38 37  1  0  0  0  0
 39 38  1  0  0  0  0
 40 39  1  0  0  0  0
 41 42  1  0  0  0  0
 41 40  1  0  0  0  0
 42 43  1  1  0  0  0
 45 46  2  0  0  0  0
 46 44  1  0  0  0  0
 46 42  1  0  0  0  0
M  END
>  <MODEL>
2

>  <REMARK>
 VINA RESULT:      -4.4      2.201      4.123
  Name = 
  23 active torsions:
  status: ('A' for Active; 'I' for Inactive)
    1  A    between atoms: C_2  and  C_9
    2  A    between atoms: C_2  and  C_18
    3  A    between atoms: N_3  and  C_25
    4  A    between atoms: C_4  and  C_13
    5  A    between atoms: C_4  and  C_24
    6  A    between atoms: C_6  and  C_17
    7  A    between atoms: C_6  and  C_27
    8  A    between atoms: C_7  and  C_21
    9  A    between atoms: C_7  and  C_39
   10  A    between atoms: C_8  and  C_31
   11  A    between atoms: C_14  and  N_16
   12  A    between atoms: C_14  and  C_43
   13  A    between atoms: C_15  and  C_39
   14  A    between atoms: N_16  and  O_45
   15  A    between atoms: C_17  and  C_29
   16  A    between atoms: C_18  and  C_23
   17  A    between atoms: C_21  and  C_27
   18  A    between atoms: C_24  and  C_36
   19  A    between atoms: C_25  and  C_30
   20  A    between atoms: C_26  and  C_33
   21  A    between atoms: C_26  and  O_42
   22  A    between atoms: C_31  and  O_45
   23  A    between atoms: O_42  and  C_43
                            x       y       z     vdW  Elec       q    Type
                         _______ _______ _______ _____ _____    ______ ____

>  <TORSDO>
F 23

$$$$
=
 OpenBabel11072413563D

 46 48  0  0  1  0  0  0  0  0999 V2000
  160.2820  211.1600  152.9090 C   0  0  1  0  0  3  0  0  0  0  0  0
  161.2310  210.0400  153.3160 C   0  0  1  0  0  0  0  0  0  0  0  0
  161.7340  211.0850  154.3070 C   0  0  1  0  0  3  0  0  0  0  0  0
  160.8020  212.0450  153.8740 O   0  0  0  0  0  0  0  0  0  0  0  0
  161.5080  210.7720  155.7840 C   0  0  0  0  0  2  0  0  0  0  0  0
  160.7470  211.8480  156.3990 N   0  0  0  0  0  2  0  0  0  0  0  0
  158.7090  210.7100  156.2890 O   0  0  0  0  0  0  0  0  0  0  0  0
  159.3410  211.7510  156.6170 C   0  0  0  0  0  0  0  0  0  0  0  0
  158.6130  212.8820  157.2610 C   0  0  0  0  0  2  0  0  0  0  0  0
  158.0390  213.8260  156.2130 C   0  0  0  0  0  2  0  0  0  0  0  0
  155.9240  213.0160  157.2390 C   0  0  0  0  0  2  0  0  0  0  0  0
  156.5510  213.5850  155.9980 C   0  0  2  0  0  3  0  0  0  0  0  0
  156.3740  212.6390  154.9950 O   0  0  0  0  0  0  0  0  0  0  0  0
  155.3470  211.8150  155.4750 C   0  0  1  0  0  3  0  0  0  0  0  0
  155.5400  210.4640  154.9840 N   0  0  0  0  0  1  0  0  0  0  0  0
  155.3370  211.8060  156.8770 O   0  0  0  0  0  0  0  0  0  0  0  0
  160.4360  208.8620  153.9080 C   0  0  0  0  0  2  0  0  0  0  0  0
  161.3310  207.8550  154.6210 C   0  0  0  0  0  2  0  0  0  0  0  0
  160.5240  206.6430  155.0480 C   0  0  0  0  0  2  0  0  0  0  0  0
  159.5560  207.0160  156.1550 C   0  0  0  0  0  2  0  0  0  0  0  0
  160.2380  207.7060  157.1550 O   0  0  0  0  0  1  0  0  0  0  0  0
  160.5030  211.7370  151.5090 C   0  0  0  0  0  2  0  0  0  0  0  0
  160.0380  213.1820  151.4350 C   0  0  0  0  0  2  0  0  0  0  0  0
  158.9270  213.3210  150.4880 C   0  0  0  0  0  0  0  0  0  0  0  0
  158.0510  213.4290  149.7390 N   0  0  0  0  0  0  0  0  0  0  0  0
  162.3330  209.6660  152.3010 C   0  0  0  0  0  2  0  0  0  0  0  0
  162.1380  208.2940  151.6600 C   0  0  0  0  0  2  0  0  0  0  0  0
  160.9410  207.0190  149.8250 C   0  0  1  0  0  3  0  0  0  0  0  0
  161.6150  208.7390  148.4080 C   0  0  0  0  0  2  0  0  0  0  0  0
  163.2080  206.8710  148.6940 C   0  0  0  0  0  1  0  0  0  0  0  0
  161.1100  206.5250  147.3940 C   0  0  0  0  0  1  0  0  0  0  0  0
  161.0570  208.3250  150.5860 C   0  0  2  0  0  3  0  0  0  0  0  0
  161.3570  209.3450  149.6600 O   0  0  0  0  0  0  0  0  0  0  0  0
  161.7370  207.2410  148.5720 C   0  0  0  0  0  0  0  0  0  0  0  0
  161.1250  205.7360  150.6070 C   0  0  0  0  0  0  0  0  0  0  0  0
  161.7160  205.7410  151.7180 O   0  0  0  0  0  0  0  0  0  0  0  0
  160.5910  204.5380  150.1310 O   0  0  0  0  0  0  0  0  0  0  0  0
  160.5840  203.3910  150.8990 N   0  0  0  0  0  2  0  0  0  0  0  0
  160.6290  202.2500  149.9940 C   0  0  0  0  0  2  0  0  0  0  0  0
  160.5770  202.7230  148.5520 C   0  0  0  0  0  2  0  0  0  0  0  0
  160.8370  201.6460  147.6880 O   0  0  0  0  0  0  0  0  0  0  0  0
  161.3940  202.1470  146.4910 C   0  0  2  0  0  3  0  0  0  0  0  0
  162.1970  203.7410  146.6770 Cl  0  0  0  0  0  0  0  0  0  0  0  0
  160.1530  203.2270  144.6120 O   0  0  0  0  0  0  0  0  0  0  0  0
  159.9710  200.9690  144.9560 O   0  0  0  0  0  1  0  0  0  0  0  0
  160.4520  202.0740  145.3250 C   0  0  0  0  0  0  0  0  0  0  0  0
  1 22  1  6  0  0  0
  1  2  1  0  0  0  0
  1  4  1  0  0  0  0
  2 26  1  6  0  0  0
  2 17  1  0  0  0  0
  2  3  1  0  0  0  0
  3  5  1  1  0  0  0
  4  3  1  0  0  0  0
  5  6  1  0  0  0  0
  6  8  1  0  0  0  0
  7  8  2  0  0  0  0
  8  9  1  0  0  0  0
 10  9  1  0  0  0  0
 12 10  1  1  0  0  0
 12 11  1  0  0  0  0
 13 14  1  0  0  0  0
 13 12  1  0  0  0  0
 14 15  1  6  0  0  0
 14 16  1  0  0  0  0
 16 11  1  0  0  0  0
 17 18  1  0  0  0  0
 18 19  1  0  0  0  0
 19 20  1  0  0  0  0
 20 21  1  0  0  0  0
 23 22  1  0  0  0  0
 24 23  1  0  0  0  0
 25 24  3  0  0  0  0
 27 26  1  0  0  0  0
 28 32  1  0  0  0  0
 28 35  1  1  0  0  0
 29 34  1  0  0  0  0
 29 33  1  0  0  0  0
 31 34  1  0  0  0  0
 32 27  1  1  0  0  0
 33 32  1  0  0  0  0
 34 30  1  0  0  0  0
 34 28  1  0  0  0  0
 35 36  2  0  0  0  0
 37 35  1  0  0  0  0
 37 38  1  0  0  0  0
 39 38  1  0  0  0  0
 40 39  1  0  0  0  0
 41 40  1  0  0  0  0
 42 43  1  1  0  0  0
 42 41  1  0  0  0  0
 44 46  2  0  0  0  0
 45 46  1  0  0  0  0
 46 42  1  0  0  0  0
M  END
>  <MODEL>
3

>  <REMARK>
 VINA RESULT:      -4.3      3.186      9.181
  Name = 
  23 active torsions:
  status: ('A' for Active; 'I' for Inactive)
    1  A    between atoms: C_2  and  C_9
    2  A    between atoms: C_2  and  C_18
    3  A    between atoms: N_3  and  C_25
    4  A    between atoms: C_4  and  C_13
    5  A    between atoms: C_4  and  C_24
    6  A    between atoms: C_6  and  C_17
    7  A    between atoms: C_6  and  C_27
    8  A    between atoms: C_7  and  C_21
    9  A    between atoms: C_7  and  C_39
   10  A    between atoms: C_8  and  C_31
   11  A    between atoms: C_14  and  N_16
   12  A    between atoms: C_14  and  C_43
   13  A    between atoms: C_15  and  C_39
   14  A    between atoms: N_16  and  O_45
   15  A    between atoms: C_17  and  C_29
   16  A    between atoms: C_18  and  C_23
   17  A    between atoms: C_21  and  C_27
   18  A    between atoms: C_24  and  C_36
   19  A    between atoms: C_25  and  C_30
   20  A    between atoms: C_26  and  C_33
   21  A    between atoms: C_26  and  O_42
   22  A    between atoms: C_31  and  O_45
   23  A    between atoms: O_42  and  C_43
                            x       y       z     vdW  Elec       q    Type
                         _______ _______ _______ _____ _____    ______ ____

>  <TORSDO>
F 23

$$$$
=
 OpenBabel11072413563D

 46 48  0  0  1  0  0  0  0  0999 V2000
  162.3540  206.4350  150.6340 C   0  0  1  0  0  3  0  0  0  0  0  0
  161.2640  207.4780  150.4200 C   0  0  1  0  0  0  0  0  0  0  0  0
  162.4510  208.4370  150.4030 C   0  0  1  0  0  3  0  0  0  0  0  0
  163.3810  207.3980  150.5810 O   0  0  0  0  0  0  0  0  0  0  0  0
  162.7170  209.1510  149.0810 C   0  0  0  0  0  2  0  0  0  0  0  0
  161.6760  210.1380  148.8420 N   0  0  0  0  0  2  0  0  0  0  0  0
  163.1560  211.7790  148.0840 O   0  0  0  0  0  0  0  0  0  0  0  0
  161.9700  211.4420  148.3450 C   0  0  0  0  0  0  0  0  0  0  0  0
  160.8610  212.4100  148.1110 C   0  0  0  0  0  2  0  0  0  0  0  0
  161.2370  213.8000  148.6060 C   0  0  0  0  0  2  0  0  0  0  0  0
  159.8300  213.7290  150.6550 C   0  0  0  0  0  2  0  0  0  0  0  0
  160.0900  214.4530  149.3650 C   0  0  2  0  0  3  0  0  0  0  0  0
  158.9230  214.3570  148.6140 O   0  0  0  0  0  0  0  0  0  0  0  0
  157.9360  214.0210  149.5520 C   0  0  1  0  0  3  0  0  0  0  0  0
  156.9240  213.2000  148.9170 N   0  0  0  0  0  1  0  0  0  0  0  0
  158.4980  213.3220  150.6300 O   0  0  0  0  0  0  0  0  0  0  0  0
  160.5590  207.2390  149.0720 C   0  0  0  0  0  2  0  0  0  0  0  0
  160.8990  205.8820  148.4690 C   0  0  0  0  0  2  0  0  0  0  0  0
  161.5910  206.0590  147.1310 C   0  0  0  0  0  2  0  0  0  0  0  0
  160.8540  205.2940  146.0480 C   0  0  0  0  0  2  0  0  0  0  0  0
  160.3490  206.1910  145.1090 O   0  0  0  0  0  1  0  0  0  0  0  0
  162.3550  205.7530  152.0040 C   0  0  0  0  0  2  0  0  0  0  0  0
  161.0870  204.9410  152.2110 C   0  0  0  0  0  2  0  0  0  0  0  0
  161.3160  203.5310  151.8820 C   0  0  0  0  0  0  0  0  0  0  0  0
  161.4990  202.4180  151.6220 N   0  0  0  0  0  0  0  0  0  0  0  0
  160.3390  207.7660  151.6220 C   0  0  0  0  0  2  0  0  0  0  0  0
  160.8660  208.8510  152.5580 C   0  0  0  0  0  2  0  0  0  0  0  0
  160.2380  210.1230  154.6590 C   0  0  1  0  0  3  0  0  0  0  0  0
  161.4050  208.4750  155.8160 C   0  0  0  0  0  2  0  0  0  0  0  0
  162.7340  210.4020  155.0230 C   0  0  0  0  0  1  0  0  0  0  0  0
  161.1310  210.6920  156.9090 C   0  0  0  0  0  1  0  0  0  0  0  0
  160.1760  208.8030  153.9170 C   0  0  2  0  0  3  0  0  0  0  0  0
  160.8010  207.8230  154.7150 O   0  0  0  0  0  0  0  0  0  0  0  0
  161.3950  209.9720  155.6030 C   0  0  0  0  0  0  0  0  0  0  0  0
  160.1050  211.3900  153.8420 C   0  0  0  0  0  0  0  0  0  0  0  0
  160.7450  211.5320  152.7680 O   0  0  0  0  0  0  0  0  0  0  0  0
  159.2250  212.3970  154.2420 O   0  0  0  0  0  0  0  0  0  0  0  0
  159.6310  213.4340  155.0590 N   0  0  0  0  0  2  0  0  0  0  0  0
  158.4640  213.9010  155.7960 C   0  0  0  0  0  2  0  0  0  0  0  0
  158.0020  212.8350  156.7750 C   0  0  0  0  0  2  0  0  0  0  0  0
  156.6480  213.0350  157.0920 O   0  0  0  0  0  0  0  0  0  0  0  0
  155.8530  212.4830  156.0640 C   0  0  2  0  0  3  0  0  0  0  0  0
  156.4280  210.8860  155.4830 Cl  0  0  0  0  0  0  0  0  0  0  0  0
  156.0490  213.2260  153.6870 O   0  0  0  0  0  0  0  0  0  0  0  0
  154.8090  214.4530  155.1730 O   0  0  0  0  0  1  0  0  0  0  0  0
  155.5510  213.4570  154.9630 C   0  0  0  0  0  0  0  0  0  0  0  0
  1 22  1  1  0  0  0
  2 17  1  6  0  0  0
  2  1  1  0  0  0  0
  2 26  1  0  0  0  0
  3  5  1  6  0  0  0
  3  2  1  0  0  0  0
  3  4  1  0  0  0  0
  4  1  1  0  0  0  0
  6  5  1  0  0  0  0
  7  8  2  0  0  0  0
  8  6  1  0  0  0  0
  9  8  1  0  0  0  0
  9 10  1  0  0  0  0
 12 10  1  6  0  0  0
 12 11  1  0  0  0  0
 13 12  1  0  0  0  0
 13 14  1  0  0  0  0
 14 15  1  6  0  0  0
 14 16  1  0  0  0  0
 16 11  1  0  0  0  0
 18 17  1  0  0  0  0
 19 18  1  0  0  0  0
 20 19  1  0  0  0  0
 21 20  1  0  0  0  0
 22 23  1  0  0  0  0
 24 23  1  0  0  0  0
 25 24  3  0  0  0  0
 26 27  1  0  0  0  0
 28 35  1  6  0  0  0
 28 34  1  0  0  0  0
 30 34  1  0  0  0  0
 32 27  1  6  0  0  0
 32 28  1  0  0  0  0
 32 33  1  0  0  0  0
 33 29  1  0  0  0  0
 34 29  1  0  0  0  0
 34 31  1  0  0  0  0
 35 37  1  0  0  0  0
 36 35  2  0  0  0  0
 37 38  1  0  0  0  0
 38 39  1  0  0  0  0
 39 40  1  0  0  0  0
 40 41  1  0  0  0  0
 42 43  1  6  0  0  0
 42 41  1  0  0  0  0
 44 46  2  0  0  0  0
 46 45  1  0  0  0  0
 46 42  1  0  0  0  0
M  END
>  <MODEL>
4

>  <REMARK>
 VINA RESULT:      -4.3      2.716      7.960
  Name = 
  23 active torsions:
  status: ('A' for Active; 'I' for Inactive)
    1  A    between atoms: C_2  and  C_9
    2  A    between atoms: C_2  and  C_18
    3  A    between atoms: N_3  and  C_25
    4  A    between atoms: C_4  and  C_13
    5  A    between atoms: C_4  and  C_24
    6  A    between atoms: C_6  and  C_17
    7  A    between atoms: C_6  and  C_27
    8  A    between atoms: C_7  and  C_21
    9  A    between atoms: C_7  and  C_39
   10  A    between atoms: C_8  and  C_31
   11  A    between atoms: C_14  and  N_16
   12  A    between atoms: C_14  and  C_43
   13  A    between atoms: C_15  and  C_39
   14  A    between atoms: N_16  and  O_45
   15  A    between atoms: C_17  and  C_29
   16  A    between atoms: C_18  and  C_23
   17  A    between atoms: C_21  and  C_27
   18  A    between atoms: C_24  and  C_36
   19  A    between atoms: C_25  and  C_30
   20  A    between atoms: C_26  and  C_33
   21  A    between atoms: C_26  and  O_42
   22  A    between atoms: C_31  and  O_45
   23  A    between atoms: O_42  and  C_43
                            x       y       z     vdW  Elec       q    Type
                         _______ _______ _______ _____ _____    ______ ____

>  <TORSDO>
F 23

$$$$
=
 OpenBabel11072413563D

 46 48  0  0  1  0  0  0  0  0999 V2000
  161.4090  211.1490  153.7440 C   0  0  1  0  0  3  0  0  0  0  0  0
  161.1500  210.6770  152.3190 C   0  0  1  0  0  0  0  0  0  0  0  0
  159.8130  210.2410  152.9090 C   0  0  1  0  0  3  0  0  0  0  0  0
  160.1380  210.7310  154.1860 O   0  0  0  0  0  0  0  0  0  0  0  0
  158.5780  210.9620  152.3760 C   0  0  0  0  0  2  0  0  0  0  0  0
  158.1380  211.9560  153.3430 N   0  0  0  0  0  2  0  0  0  0  0  0
  158.2620  213.7370  151.8360 O   0  0  0  0  0  0  0  0  0  0  0  0
  158.0070  213.3350  153.0040 C   0  0  0  0  0  0  0  0  0  0  0  0
  157.5440  214.3070  154.0340 C   0  0  0  0  0  2  0  0  0  0  0  0
  158.5320  214.3880  155.1900 C   0  0  0  0  0  2  0  0  0  0  0  0
  158.7880  212.5790  156.8760 C   0  0  0  0  0  2  0  0  0  0  0  0
  157.9630  213.7620  156.4560 C   0  0  2  0  0  3  0  0  0  0  0  0
  156.6830  213.2820  156.2020 O   0  0  0  0  0  0  0  0  0  0  0  0
  156.6430  212.0420  156.8540 C   0  0  1  0  0  3  0  0  0  0  0  0
  155.7680  211.1410  156.1280 N   0  0  0  0  0  1  0  0  0  0  0  0
  157.9280  211.4840  156.9300 O   0  0  0  0  0  0  0  0  0  0  0  0
  161.1150  211.8810  151.3590 C   0  0  0  0  0  2  0  0  0  0  0  0
  161.6250  211.5310  149.9670 C   0  0  0  0  0  2  0  0  0  0  0  0
  161.0970  212.5230  148.9480 C   0  0  0  0  0  2  0  0  0  0  0  0
  162.0080  212.5720  147.7360 C   0  0  0  0  0  2  0  0  0  0  0  0
  163.2710  213.0140  148.1230 O   0  0  0  0  0  1  0  0  0  0  0  0
  162.4970  210.3890  154.5050 C   0  0  0  0  0  2  0  0  0  0  0  0
  162.2550  210.4470  156.0050 C   0  0  0  0  0  2  0  0  0  0  0  0
  162.0010  209.1060  156.5400 C   0  0  0  0  0  0  0  0  0  0  0  0
  161.7990  208.0480  156.9620 N   0  0  0  0  0  0  0  0  0  0  0  0
  161.9650  209.4570  151.8380 C   0  0  0  0  0  2  0  0  0  0  0  0
  161.1480  208.1700  151.7410 C   0  0  0  0  0  2  0  0  0  0  0  0
  162.0800  206.1410  150.5420 C   0  0  1  0  0  3  0  0  0  0  0  0
  161.1120  204.8850  152.2470 C   0  0  0  0  0  2  0  0  0  0  0  0
  159.6660  205.3930  150.3080 C   0  0  0  0  0  1  0  0  0  0  0  0
  161.5340  203.7610  150.0690 C   0  0  0  0  0  1  0  0  0  0  0  0
  162.0360  206.9350  151.8330 C   0  0  2  0  0  3  0  0  0  0  0  0
  161.5460  206.0900  152.8490 O   0  0  0  0  0  0  0  0  0  0  0  0
  161.0800  205.0390  150.7430 C   0  0  0  0  0  0  0  0  0  0  0  0
  162.0790  206.9180  149.2440 C   0  0  0  0  0  0  0  0  0  0  0  0
  162.6090  208.0590  149.1780 O   0  0  0  0  0  0  0  0  0  0  0  0
  161.5410  206.3560  148.0850 O   0  0  0  0  0  0  0  0  0  0  0  0
  162.1370  205.2830  147.4540 N   0  0  0  0  0  2  0  0  0  0  0  0
  161.9110  205.4280  146.0220 C   0  0  0  0  0  2  0  0  0  0  0  0
  161.4540  204.1070  145.4280 C   0  0  0  0  0  2  0  0  0  0  0  0
  161.3290  203.1450  146.4440 O   0  0  0  0  0  0  0  0  0  0  0  0
  161.0190  201.9000  145.8560 C   0  0  2  0  0  3  0  0  0  0  0  0
  159.5670  201.9380  144.8020 Cl  0  0  0  0  0  0  0  0  0  0  0  0
  161.4440  199.5050  146.4250 O   0  0  0  0  0  0  0  0  0  0  0  0
  160.7080  200.9530  148.0410 O   0  0  0  0  0  1  0  0  0  0  0  0
  161.0270  200.7640  146.8370 C   0  0  0  0  0  0  0  0  0  0  0  0
  1  4  1  0  0  0  0
  1 22  1  1  0  0  0
  2 17  1  6  0  0  0
  2  3  1  0  0  0  0
  2  1  1  0  0  0  0
  3  5  1  6  0  0  0
  3  4  1  0  0  0  0
  5  6  1  0  0  0  0
  7  8  2  0  0  0  0
  8  6  1  0  0  0  0
  8  9  1  0  0  0  0
  9 10  1  0  0  0  0
 11 16  1  0  0  0  0
 12 10  1  6  0  0  0
 12 11  1  0  0  0  0
 13 12  1  0  0  0  0
 13 14  1  0  0  0  0
 14 15  1  6  0  0  0
 14 16  1  0  0  0  0
 18 17  1  0  0  0  0
 19 18  1  0  0  0  0
 20 21  1  0  0  0  0
 20 19  1  0  0  0  0
 22 23  1  0  0  0  0
 23 24  1  0  0  0  0
 24 25  3  0  0  0  0
 26  2  1  0  0  0  0
 27 26  1  0  0  0  0
 28 35  1  6  0  0  0
 28 34  1  0  0  0  0
 28 32  1  0  0  0  0
 29 33  1  0  0  0  0
 30 34  1  0  0  0  0
 31 34  1  0  0  0  0
 32 27  1  6  0  0  0
 32 33  1  0  0  0  0
 34 29  1  0  0  0  0
 36 35  2  0  0  0  0
 37 35  1  0  0  0  0
 38 37  1  0  0  0  0
 39 38  1  0  0  0  0
 40 39  1  0  0  0  0
 40 41  1  0  0  0  0
 42 43  1  1  0  0  0
 42 41  1  0  0  0  0
 42 46  1  0  0  0  0
 44 46  2  0  0  0  0
 46 45  1  0  0  0  0
M  END
>  <MODEL>
5

>  <REMARK>
 VINA RESULT:      -4.1      3.161      9.694
  Name = 
  23 active torsions:
  status: ('A' for Active; 'I' for Inactive)
    1  A    between atoms: C_2  and  C_9
    2  A    between atoms: C_2  and  C_18
    3  A    between atoms: N_3  and  C_25
    4  A    between atoms: C_4  and  C_13
    5  A    between atoms: C_4  and  C_24
    6  A    between atoms: C_6  and  C_17
    7  A    between atoms: C_6  and  C_27
    8  A    between atoms: C_7  and  C_21
    9  A    between atoms: C_7  and  C_39
   10  A    between atoms: C_8  and  C_31
   11  A    between atoms: C_14  and  N_16
   12  A    between atoms: C_14  and  C_43
   13  A    between atoms: C_15  and  C_39
   14  A    between atoms: N_16  and  O_45
   15  A    between atoms: C_17  and  C_29
   16  A    between atoms: C_18  and  C_23
   17  A    between atoms: C_21  and  C_27
   18  A    between atoms: C_24  and  C_36
   19  A    between atoms: C_25  and  C_30
   20  A    between atoms: C_26  and  C_33
   21  A    between atoms: C_26  and  O_42
   22  A    between atoms: C_31  and  O_45
   23  A    between atoms: O_42  and  C_43
                            x       y       z     vdW  Elec       q    Type
                         _______ _______ _______ _____ _____    ______ ____

>  <TORSDO>
F 23

$$$$
=
 OpenBabel11072413563D

 46 48  0  0  1  0  0  0  0  0999 V2000
  158.8960  210.8470  154.8240 C   0  0  1  0  0  3  0  0  0  0  0  0
  159.8210  211.5680  153.8530 C   0  0  1  0  0  0  0  0  0  0  0  0
  158.7180  211.2390  152.8530 C   0  0  1  0  0  3  0  0  0  0  0  0
  157.9250  210.6110  153.8300 O   0  0  0  0  0  0  0  0  0  0  0  0
  157.9690  212.4310  152.2640 C   0  0  0  0  0  2  0  0  0  0  0  0
  158.8160  213.1090  151.2960 N   0  0  0  0  0  2  0  0  0  0  0  0
  157.0440  213.7090  149.8970 O   0  0  0  0  0  0  0  0  0  0  0  0
  158.2840  213.7240  150.1250 C   0  0  0  0  0  0  0  0  0  0  0  0
  159.1990  214.4130  149.1710 C   0  0  0  0  0  2  0  0  0  0  0  0
  158.6440  214.3680  147.7540 C   0  0  0  0  0  2  0  0  0  0  0  0
  159.8230  212.2770  147.1050 C   0  0  0  0  0  2  0  0  0  0  0  0
  159.6330  213.7320  146.7860 C   0  0  2  0  0  3  0  0  0  0  0  0
  160.8780  214.3360  146.9320 O   0  0  0  0  0  0  0  0  0  0  0  0
  161.7860  213.2690  146.8810 C   0  0  1  0  0  3  0  0  0  0  0  0
  162.9370  213.5730  147.7090 N   0  0  0  0  0  1  0  0  0  0  0  0
  161.1830  212.0870  147.3350 O   0  0  0  0  0  0  0  0  0  0  0  0
  159.9620  213.0480  154.2550 C   0  0  0  0  0  2  0  0  0  0  0  0
  159.3090  213.3520  155.5970 C   0  0  0  0  0  2  0  0  0  0  0  0
  158.0500  214.1740  155.3970 C   0  0  0  0  0  2  0  0  0  0  0  0
  157.2230  214.1930  156.6690 C   0  0  0  0  0  2  0  0  0  0  0  0
  155.8790  214.0030  156.3510 O   0  0  0  0  0  1  0  0  0  0  0  0
  159.4150  209.5130  155.3650 C   0  0  0  0  0  2  0  0  0  0  0  0
  159.8230  209.6380  156.8230 C   0  0  0  0  0  2  0  0  0  0  0  0
  161.0880  210.3700  156.9460 C   0  0  0  0  0  0  0  0  0  0  0  0
  162.0860  210.9470  157.0410 N   0  0  0  0  0  0  0  0  0  0  0  0
  161.1350  210.8440  153.4850 C   0  0  0  0  0  2  0  0  0  0  0  0
  160.9290  209.5920  152.6340 C   0  0  0  0  0  2  0  0  0  0  0  0
  162.3360  207.7600  151.5910 C   0  0  1  0  0  3  0  0  0  0  0  0
  161.5910  206.4120  153.3360 C   0  0  0  0  0  2  0  0  0  0  0  0
  160.1580  206.4850  151.3240 C   0  0  0  0  0  1  0  0  0  0  0  0
  162.3480  205.2970  151.2450 C   0  0  0  0  0  1  0  0  0  0  0  0
  162.0620  208.5910  152.8290 C   0  0  2  0  0  3  0  0  0  0  0  0
  161.7230  207.7120  153.8790 O   0  0  0  0  0  0  0  0  0  0  0  0
  161.5940  206.4760  151.8260 C   0  0  0  0  0  0  0  0  0  0  0  0
  162.2240  208.4490  150.2480 C   0  0  0  0  0  0  0  0  0  0  0  0
  162.1430  209.7040  150.1750 O   0  0  0  0  0  0  0  0  0  0  0  0
  162.2650  207.7060  149.0680 O   0  0  0  0  0  0  0  0  0  0  0  0
  161.1150  207.2580  148.4510 N   0  0  0  0  0  2  0  0  0  0  0  0
  161.4400  206.9700  147.0600 C   0  0  0  0  0  2  0  0  0  0  0  0
  162.2190  205.6710  146.9620 C   0  0  0  0  0  2  0  0  0  0  0  0
  161.7560  204.7640  147.9300 O   0  0  0  0  0  0  0  0  0  0  0  0
  161.7740  203.4640  147.3810 C   0  0  2  0  0  3  0  0  0  0  0  0
  161.3800  203.4110  145.6310 Cl  0  0  0  0  0  0  0  0  0  0  0  0
  160.6200  201.2620  147.6310 O   0  0  0  0  0  0  0  0  0  0  0  0
  160.7800  202.6810  149.4220 O   0  0  0  0  0  1  0  0  0  0  0  0
  161.0160  202.4630  148.2040 C   0  0  0  0  0  0  0  0  0  0  0  0
  1 22  1  6  0  0  0
  2 26  1  6  0  0  0
  2 17  1  0  0  0  0
  2  1  1  0  0  0  0
  3  5  1  1  0  0  0
  3  4  1  0  0  0  0
  3  2  1  0  0  0  0
  4  1  1  0  0  0  0
  6  5  1  0  0  0  0
  7  8  2  0  0  0  0
  8  6  1  0  0  0  0
  9  8  1  0  0  0  0
 10  9  1  0  0  0  0
 11 16  1  0  0  0  0
 12 13  1  0  0  0  0
 12 11  1  0  0  0  0
 12 10  1  1  0  0  0
 14 13  1  0  0  0  0
 14 16  1  0  0  0  0
 14 15  1  1  0  0  0
 17 18  1  0  0  0  0
 19 18  1  0  0  0  0
 19 20  1  0  0  0  0
 21 20  1  0  0  0  0
 22 23  1  0  0  0  0
 23 24  1  0  0  0  0
 24 25  3  0  0  0  0
 27 26  1  0  0  0  0
 28 35  1  6  0  0  0
 28 34  1  0  0  0  0
 28 32  1  0  0  0  0
 29 33  1  0  0  0  0
 30 34  1  0  0  0  0
 31 34  1  0  0  0  0
 32 27  1  6  0  0  0
 32 33  1  0  0  0  0
 34 29  1  0  0  0  0
 36 35  2  0  0  0  0
 37 35  1  0  0  0  0
 38 37  1  0  0  0  0
 39 38  1  0  0  0  0
 40 39  1  0  0  0  0
 40 41  1  0  0  0  0
 42 43  1  6  0  0  0
 42 41  1  0  0  0  0
 42 46  1  0  0  0  0
 44 46  2  0  0  0  0
 46 45  1  0  0  0  0
M  END
>  <MODEL>
6

>  <REMARK>
 VINA RESULT:      -4.1      2.773      8.476
  Name = 
  23 active torsions:
  status: ('A' for Active; 'I' for Inactive)
    1  A    between atoms: C_2  and  C_9
    2  A    between atoms: C_2  and  C_18
    3  A    between atoms: N_3  and  C_25
    4  A    between atoms: C_4  and  C_13
    5  A    between atoms: C_4  and  C_24
    6  A    between atoms: C_6  and  C_17
    7  A    between atoms: C_6  and  C_27
    8  A    between atoms: C_7  and  C_21
    9  A    between atoms: C_7  and  C_39
   10  A    between atoms: C_8  and  C_31
   11  A    between atoms: C_14  and  N_16
   12  A    between atoms: C_14  and  C_43
   13  A    between atoms: C_15  and  C_39
   14  A    between atoms: N_16  and  O_45
   15  A    between atoms: C_17  and  C_29
   16  A    between atoms: C_18  and  C_23
   17  A    between atoms: C_21  and  C_27
   18  A    between atoms: C_24  and  C_36
   19  A    between atoms: C_25  and  C_30
   20  A    between atoms: C_26  and  C_33
   21  A    between atoms: C_26  and  O_42
   22  A    between atoms: C_31  and  O_45
   23  A    between atoms: O_42  and  C_43
                            x       y       z     vdW  Elec       q    Type
                         _______ _______ _______ _____ _____    ______ ____

>  <TORSDO>
F 23

$$$$
=
 OpenBabel11072413563D

 46 48  0  0  1  0  0  0  0  0999 V2000
  161.6800  208.6630  153.3920 C   0  0  1  0  0  3  0  0  0  0  0  0
  161.2200  209.0240  151.9860 C   0  0  1  0  0  0  0  0  0  0  0  0
  160.2010  209.8700  152.7420 C   0  0  1  0  0  3  0  0  0  0  0  0
  160.7140  209.4920  153.9960 O   0  0  0  0  0  0  0  0  0  0  0  0
  160.3200  211.3810  152.5660 C   0  0  0  0  0  2  0  0  0  0  0  0
  159.0570  211.9170  152.0850 N   0  0  0  0  0  2  0  0  0  0  0  0
  159.3200  213.9780  153.1530 O   0  0  0  0  0  0  0  0  0  0  0  0
  158.6140  213.2300  152.4250 C   0  0  0  0  0  0  0  0  0  0  0  0
  157.3130  213.7300  151.8960 C   0  0  0  0  0  2  0  0  0  0  0  0
  157.5070  214.4530  150.5690 C   0  0  0  0  0  2  0  0  0  0  0  0
  159.2230  214.2990  148.7770 C   0  0  0  0  0  2  0  0  0  0  0  0
  158.1620  213.5510  149.5320 C   0  0  2  0  0  3  0  0  0  0  0  0
  157.2130  213.1550  148.5950 O   0  0  0  0  0  0  0  0  0  0  0  0
  157.8810  213.2520  147.3660 C   0  0  1  0  0  3  0  0  0  0  0  0
  156.9320  213.6010  146.3260 N   0  0  0  0  0  1  0  0  0  0  0  0
  158.8870  214.2280  147.4270 O   0  0  0  0  0  0  0  0  0  0  0  0
  162.3310  209.7910  151.2450 C   0  0  0  0  0  2  0  0  0  0  0  0
  161.9790  210.0660  149.7890 C   0  0  0  0  0  2  0  0  0  0  0  0
  161.9550  211.5590  149.5240 C   0  0  0  0  0  2  0  0  0  0  0  0
  162.4970  211.8600  148.1400 C   0  0  0  0  0  2  0  0  0  0  0  0
  161.4360  212.0090  147.2490 O   0  0  0  0  0  1  0  0  0  0  0  0
  161.4470  207.2100  153.8110 C   0  0  0  0  0  2  0  0  0  0  0  0
  160.4240  207.1230  154.9320 C   0  0  0  0  0  2  0  0  0  0  0  0
  160.9930  207.6130  156.1910 C   0  0  0  0  0  0  0  0  0  0  0  0
  161.4400  208.0000  157.1860 N   0  0  0  0  0  0  0  0  0  0  0  0
  160.5230  207.9070  151.1800 C   0  0  0  0  0  2  0  0  0  0  0  0
  161.3720  207.3480  150.0400 C   0  0  0  0  0  2  0  0  0  0  0  0
  160.7780  205.3040  148.6640 C   0  0  1  0  0  3  0  0  0  0  0  0
  161.3390  206.5880  146.8050 C   0  0  0  0  0  2  0  0  0  0  0  0
  163.1910  205.3520  147.8780 C   0  0  0  0  0  1  0  0  0  0  0  0
  161.4550  204.1130  146.5880 C   0  0  0  0  0  1  0  0  0  0  0  0
  160.5060  206.7730  148.9260 C   0  0  2  0  0  3  0  0  0  0  0  0
  160.7580  207.4830  147.7340 O   0  0  0  0  0  0  0  0  0  0  0  0
  161.7200  205.2970  147.4940 C   0  0  0  0  0  0  0  0  0  0  0  0
  161.0710  204.4240  149.8600 C   0  0  0  0  0  0  0  0  0  0  0  0
  160.9220  204.8620  151.0310 O   0  0  0  0  0  0  0  0  0  0  0  0
  161.4550  203.0950  149.6790 O   0  0  0  0  0  0  0  0  0  0  0  0
  160.9810  202.0850  150.4920 N   0  0  0  0  0  2  0  0  0  0  0  0
  160.5460  200.9910  149.6340 C   0  0  0  0  0  2  0  0  0  0  0  0
  161.1590  201.1340  148.2520 C   0  0  0  0  0  2  0  0  0  0  0  0
  161.3150  199.8660  147.6670 O   0  0  0  0  0  0  0  0  0  0  0  0
  161.3690  200.0150  146.2650 C   0  0  2  0  0  3  0  0  0  0  0  0
  160.1480  201.1540  145.6090 Cl  0  0  0  0  0  0  0  0  0  0  0  0
  160.2780  198.1780  144.9700 O   0  0  0  0  0  0  0  0  0  0  0  0
  162.5310  198.1080  145.3810 O   0  0  0  0  0  1  0  0  0  0  0  0
  161.4330  198.7060  145.5330 C   0  0  0  0  0  0  0  0  0  0  0  0
  1 22  1  1  0  0  0
  1  4  1  0  0  0  0
  2 26  1  6  0  0  0
  2  3  1  0  0  0  0
  2  1  1  0  0  0  0
  3  5  1  6  0  0  0
  3  4  1  0  0  0  0
  6  8  1  0  0  0  0
  6  5  1  0  0  0  0
  8  7  2  0  0  0  0
  9  8  1  0  0  0  0
 10  9  1  0  0  0  0
 11 12  1  0  0  0  0
 12 10  1  1  0  0  0
 13 12  1  0  0  0  0
 14 15  1  6  0  0  0
 14 16  1  0  0  0  0
 14 13  1  0  0  0  0
 16 11  1  0  0  0  0
 17  2  1  0  0  0  0
 18 17  1  0  0  0  0
 19 18  1  0  0  0  0
 20 19  1  0  0  0  0
 21 20  1  0  0  0  0
 22 23  1  0  0  0  0
 23 24  1  0  0  0  0
 24 25  3  0  0  0  0
 27 26  1  0  0  0  0
 28 32  1  0  0  0  0
 28 35  1  1  0  0  0
 29 34  1  0  0  0  0
 29 33  1  0  0  0  0
 31 34  1  0  0  0  0
 32 27  1  1  0  0  0
 33 32  1  0  0  0  0
 34 30  1  0  0  0  0
 34 28  1  0  0  0  0
 35 36  2  0  0  0  0
 37 35  1  0  0  0  0
 37 38  1  0  0  0  0
 39 38  1  0  0  0  0
 40 39  1  0  0  0  0
 41 40  1  0  0  0  0
 42 43  1  6  0  0  0
 42 41  1  0  0  0  0
 44 46  2  0  0  0  0
 45 46  1  0  0  0  0
 46 42  1  0  0  0  0
M  END
>  <MODEL>
7

>  <REMARK>
 VINA RESULT:      -4.0      3.236     10.224
  Name = 
  23 active torsions:
  status: ('A' for Active; 'I' for Inactive)
    1  A    between atoms: C_2  and  C_9
    2  A    between atoms: C_2  and  C_18
    3  A    between atoms: N_3  and  C_25
    4  A    between atoms: C_4  and  C_13
    5  A    between atoms: C_4  and  C_24
    6  A    between atoms: C_6  and  C_17
    7  A    between atoms: C_6  and  C_27
    8  A    between atoms: C_7  and  C_21
    9  A    between atoms: C_7  and  C_39
   10  A    between atoms: C_8  and  C_31
   11  A    between atoms: C_14  and  N_16
   12  A    between atoms: C_14  and  C_43
   13  A    between atoms: C_15  and  C_39
   14  A    between atoms: N_16  and  O_45
   15  A    between atoms: C_17  and  C_29
   16  A    between atoms: C_18  and  C_23
   17  A    between atoms: C_21  and  C_27
   18  A    between atoms: C_24  and  C_36
   19  A    between atoms: C_25  and  C_30
   20  A    between atoms: C_26  and  C_33
   21  A    between atoms: C_26  and  O_42
   22  A    between atoms: C_31  and  O_45
   23  A    between atoms: O_42  and  C_43
                            x       y       z     vdW  Elec       q    Type
                         _______ _______ _______ _____ _____    ______ ____

>  <TORSDO>
F 23

$$$$
=
 OpenBabel11072413563D

 46 48  0  0  1  0  0  0  0  0999 V2000
  161.8320  209.7630  153.9100 C   0  0  1  0  0  3  0  0  0  0  0  0
  161.2410  209.7180  152.5070 C   0  0  1  0  0  0  0  0  0  0  0  0
  160.1200  210.5210  153.1590 C   0  0  1  0  0  3  0  0  0  0  0  0
  160.7590  210.5260  154.4120 O   0  0  0  0  0  0  0  0  0  0  0  0
  159.9440  211.9520  152.6600 C   0  0  0  0  0  2  0  0  0  0  0  0
  158.8070  212.5650  153.3300 N   0  0  0  0  0  2  0  0  0  0  0  0
  158.2770  213.9640  151.5360 O   0  0  0  0  0  0  0  0  0  0  0  0
  158.0170  213.5760  152.7070 C   0  0  0  0  0  0  0  0  0  0  0  0
  156.8580  214.1620  153.4380 C   0  0  0  0  0  2  0  0  0  0  0  0
  157.2210  214.4530  154.8880 C   0  0  0  0  0  2  0  0  0  0  0  0
  157.3300  212.7260  156.6740 C   0  0  0  0  0  2  0  0  0  0  0  0
  156.4170  213.5890  155.8500 C   0  0  2  0  0  3  0  0  0  0  0  0
  155.6010  212.7250  155.1260 O   0  0  0  0  0  0  0  0  0  0  0  0
  155.7070  211.5020  155.8040 C   0  0  1  0  0  3  0  0  0  0  0  0
  155.5710  210.4110  154.8590 N   0  0  0  0  0  1  0  0  0  0  0  0
  156.9440  211.4060  156.4570 O   0  0  0  0  0  0  0  0  0  0  0  0
  162.1480  210.4810  151.5240 C   0  0  0  0  0  2  0  0  0  0  0  0
  161.3670  211.1110  150.3790 C   0  0  0  0  0  2  0  0  0  0  0  0
  162.3130  211.5760  149.2880 C   0  0  0  0  0  2  0  0  0  0  0  0
  161.6190  211.5520  147.9390 C   0  0  0  0  0  2  0  0  0  0  0  0
  160.8500  212.7050  147.7920 O   0  0  0  0  0  1  0  0  0  0  0  0
  161.8990  208.4220  154.6440 C   0  0  0  0  0  2  0  0  0  0  0  0
  161.2490  208.5170  156.0140 C   0  0  0  0  0  2  0  0  0  0  0  0
  160.0510  207.6750  156.0780 C   0  0  0  0  0  0  0  0  0  0  0  0
  159.1060  207.0100  156.1270 N   0  0  0  0  0  0  0  0  0  0  0  0
  160.7270  208.3460  152.0200 C   0  0  0  0  0  2  0  0  0  0  0  0
  161.5860  207.7210  150.9220 C   0  0  0  0  0  2  0  0  0  0  0  0
  160.9120  205.9650  149.2230 C   0  0  1  0  0  3  0  0  0  0  0  0
  161.7450  207.4280  147.6150 C   0  0  0  0  0  2  0  0  0  0  0  0
  163.3740  205.8630  148.6160 C   0  0  0  0  0  1  0  0  0  0  0  0
  161.6380  205.0100  147.0440 C   0  0  0  0  0  1  0  0  0  0  0  0
  160.7630  207.4030  149.6790 C   0  0  2  0  0  3  0  0  0  0  0  0
  161.1780  208.2420  148.6250 O   0  0  0  0  0  0  0  0  0  0  0  0
  161.9410  206.0210  148.1310 C   0  0  0  0  0  0  0  0  0  0  0  0
  161.0190  204.9000  150.2920 C   0  0  0  0  0  0  0  0  0  0  0  0
  160.8570  205.1910  151.5070 O   0  0  0  0  0  0  0  0  0  0  0  0
  161.2420  203.5680  149.9410 O   0  0  0  0  0  0  0  0  0  0  0  0
  160.8770  202.5270  150.7710 N   0  0  0  0  0  2  0  0  0  0  0  0
  160.8630  201.3080  149.9740 C   0  0  0  0  0  2  0  0  0  0  0  0
  160.0680  201.5240  148.6990 C   0  0  0  0  0  2  0  0  0  0  0  0
  160.9440  201.7030  147.6150 O   0  0  0  0  0  0  0  0  0  0  0  0
  160.5440  200.8540  146.5610 C   0  0  2  0  0  3  0  0  0  0  0  0
  161.5390  199.3690  146.4100 Cl  0  0  0  0  0  0  0  0  0  0  0  0
  159.8230  200.8950  144.1700 O   0  0  0  0  0  0  0  0  0  0  0  0
  160.5730  202.8140  145.1730 O   0  0  0  0  0  1  0  0  0  0  0  0
  160.3360  201.5800  145.2640 C   0  0  0  0  0  0  0  0  0  0  0  0
  1  4  1  0  0  0  0
  1 22  1  1  0  0  0
  2 17  1  6  0  0  0
  2  3  1  0  0  0  0
  2  1  1  0  0  0  0
  3  5  1  6  0  0  0
  3  4  1  0  0  0  0
  5  6  1  0  0  0  0
  7  8  2  0  0  0  0
  8  6  1  0  0  0  0
  8  9  1  0  0  0  0
  9 10  1  0  0  0  0
 12 10  1  6  0  0  0
 12 11  1  0  0  0  0
 13 14  1  0  0  0  0
 13 12  1  0  0  0  0
 14 15  1  6  0  0  0
 14 16  1  0  0  0  0
 16 11  1  0  0  0  0
 18 17  1  0  0  0  0
 19 18  1  0  0  0  0
 20 19  1  0  0  0  0
 21 20  1  0  0  0  0
 22 23  1  0  0  0  0
 23 24  1  0  0  0  0
 24 25  3  0  0  0  0
 26  2  1  0  0  0  0
 27 26  1  0  0  0  0
 28 32  1  0  0  0  0
 28 35  1  1  0  0  0
 29 34  1  0  0  0  0
 29 33  1  0  0  0  0
 31 34  1  0  0  0  0
 32 27  1  1  0  0  0
 33 32  1  0  0  0  0
 34 30  1  0  0  0  0
 34 28  1  0  0  0  0
 35 36  2  0  0  0  0
 37 35  1  0  0  0  0
 37 38  1  0  0  0  0
 39 38  1  0  0  0  0
 40 39  1  0  0  0  0
 41 40  1  0  0  0  0
 42 43  1  6  0  0  0
 42 41  1  0  0  0  0
 44 46  2  0  0  0  0
 45 46  1  0  0  0  0
 46 42  1  0  0  0  0
M  END
>  <MODEL>
8

>  <REMARK>
 VINA RESULT:      -3.8      3.326     10.033
  Name = 
  23 active torsions:
  status: ('A' for Active; 'I' for Inactive)
    1  A    between atoms: C_2  and  C_9
    2  A    between atoms: C_2  and  C_18
    3  A    between atoms: N_3  and  C_25
    4  A    between atoms: C_4  and  C_13
    5  A    between atoms: C_4  and  C_24
    6  A    between atoms: C_6  and  C_17
    7  A    between atoms: C_6  and  C_27
    8  A    between atoms: C_7  and  C_21
    9  A    between atoms: C_7  and  C_39
   10  A    between atoms: C_8  and  C_31
   11  A    between atoms: C_14  and  N_16
   12  A    between atoms: C_14  and  C_43
   13  A    between atoms: C_15  and  C_39
   14  A    between atoms: N_16  and  O_45
   15  A    between atoms: C_17  and  C_29
   16  A    between atoms: C_18  and  C_23
   17  A    between atoms: C_21  and  C_27
   18  A    between atoms: C_24  and  C_36
   19  A    between atoms: C_25  and  C_30
   20  A    between atoms: C_26  and  C_33
   21  A    between atoms: C_26  and  O_42
   22  A    between atoms: C_31  and  O_45
   23  A    between atoms: O_42  and  C_43
                            x       y       z     vdW  Elec       q    Type
                         _______ _______ _______ _____ _____    ______ ____

>  <TORSDO>
F 23

$$$$
=
 OpenBabel11072413563D

 46 48  0  0  1  0  0  0  0  0999 V2000
  159.8020  209.4580  154.4830 C   0  0  1  0  0  3  0  0  0  0  0  0
  160.8640  210.2440  153.7250 C   0  0  1  0  0  0  0  0  0  0  0  0
  159.7410  210.4110  152.7070 C   0  0  1  0  0  3  0  0  0  0  0  0
  158.8270  209.6880  153.4930 O   0  0  0  0  0  0  0  0  0  0  0  0
  159.2320  211.8350  152.4970 C   0  0  0  0  0  2  0  0  0  0  0  0
  160.1060  212.5330  151.5670 N   0  0  0  0  0  2  0  0  0  0  0  0
  158.3520  213.4970  150.3630 O   0  0  0  0  0  0  0  0  0  0  0  0
  159.5940  213.3470  150.5140 C   0  0  0  0  0  0  0  0  0  0  0  0
  160.5380  214.0460  149.5960 C   0  0  0  0  0  2  0  0  0  0  0  0
  160.7400  213.2500  148.3130 C   0  0  0  0  0  2  0  0  0  0  0  0
  158.7180  213.9800  147.0650 C   0  0  0  0  0  2  0  0  0  0  0  0
  160.2200  214.0050  147.0980 C   0  0  2  0  0  3  0  0  0  0  0  0
  160.6530  213.3720  145.9380 O   0  0  0  0  0  0  0  0  0  0  0  0
  159.5330  213.3950  145.0940 C   0  0  1  0  0  3  0  0  0  0  0  0
  159.5460  212.2220  144.2410 N   0  0  0  0  0  1  0  0  0  0  0  0
  158.3500  213.4140  145.8470 O   0  0  0  0  0  0  0  0  0  0  0  0
  161.2610  211.5020  154.5200 C   0  0  0  0  0  2  0  0  0  0  0  0
  161.3980  211.2300  156.0120 C   0  0  0  0  0  2  0  0  0  0  0  0
  160.6340  212.2700  156.8100 C   0  0  0  0  0  2  0  0  0  0  0  0
  159.8260  213.1590  155.8850 C   0  0  0  0  0  2  0  0  0  0  0  0
  158.4680  212.9150  156.0770 O   0  0  0  0  0  1  0  0  0  0  0  0
  160.0610  207.9550  154.6140 C   0  0  0  0  0  2  0  0  0  0  0  0
  160.0870  207.5320  156.0740 C   0  0  0  0  0  2  0  0  0  0  0  0
  161.2970  208.0300  156.7350 C   0  0  0  0  0  0  0  0  0  0  0  0
  162.2510  208.4240  157.2580 N   0  0  0  0  0  0  0  0  0  0  0  0
  162.0330  209.4290  153.1300 C   0  0  0  0  0  2  0  0  0  0  0  0
  161.6700  208.6760  151.8520 C   0  0  0  0  0  2  0  0  0  0  0  0
  162.1790  206.6450  150.4240 C   0  0  1  0  0  3  0  0  0  0  0  0
  161.5390  205.3820  152.2720 C   0  0  0  0  0  2  0  0  0  0  0  0
  159.7320  206.0430  150.7220 C   0  0  0  0  0  1  0  0  0  0  0  0
  161.3920  204.3190  150.0280 C   0  0  0  0  0  1  0  0  0  0  0  0
  162.4760  207.3910  151.7100 C   0  0  2  0  0  3  0  0  0  0  0  0
  162.1730  206.5360  152.7900 O   0  0  0  0  0  0  0  0  0  0  0  0
  161.1820  205.5940  150.8180 C   0  0  0  0  0  0  0  0  0  0  0  0
  161.9380  207.4690  149.1780 C   0  0  0  0  0  0  0  0  0  0  0  0
  161.4560  208.6300  149.2600 O   0  0  0  0  0  0  0  0  0  0  0  0
  162.3000  206.9750  147.9250 O   0  0  0  0  0  0  0  0  0  0  0  0
  161.6060  205.9440  147.3230 N   0  0  0  0  0  2  0  0  0  0  0  0
  162.4010  205.4720  146.1970 C   0  0  0  0  0  2  0  0  0  0  0  0
  161.6060  204.4700  145.3780 C   0  0  0  0  0  2  0  0  0  0  0  0
  161.9860  203.1630  145.7250 O   0  0  0  0  0  0  0  0  0  0  0  0
  160.8740  202.5010  146.2890 C   0  0  2  0  0  3  0  0  0  0  0  0
  161.0240  202.2070  148.0530 Cl  0  0  0  0  0  0  0  0  0  0  0  0
  161.1830  200.1200  145.5990 O   0  0  0  0  0  1  0  0  0  0  0  0
  159.3980  201.3190  144.8090 O   0  0  0  0  0  0  0  0  0  0  0  0
  160.4470  201.2930  145.5070 C   0  0  0  0  0  0  0  0  0  0  0  0
  1 22  1  6  0  0  0
  2 26  1  6  0  0  0
  2  1  1  0  0  0  0
  2 17  1  0  0  0  0
  3  5  1  1  0  0  0
  3  4  1  0  0  0  0
  3  2  1  0  0  0  0
  4  1  1  0  0  0  0
  6  5  1  0  0  0  0
  7  8  2  0  0  0  0
  8  6  1  0  0  0  0
  9  8  1  0  0  0  0
 10  9  1  0  0  0  0
 11 12  1  0  0  0  0
 12 10  1  1  0  0  0
 13 12  1  0  0  0  0
 14 15  1  6  0  0  0
 14 16  1  0  0  0  0
 14 13  1  0  0  0  0
 16 11  1  0  0  0  0
 17 18  1  0  0  0  0
 18 19  1  0  0  0  0
 20 21  1  0  0  0  0
 20 19  1  0  0  0  0
 22 23  1  0  0  0  0
 23 24  1  0  0  0  0
 24 25  3  0  0  0  0
 27 26  1  0  0  0  0
 28 35  1  6  0  0  0
 28 34  1  0  0  0  0
 28 32  1  0  0  0  0
 29 33  1  0  0  0  0
 30 34  1  0  0  0  0
 31 34  1  0  0  0  0
 32 27  1  1  0  0  0
 32 33  1  0  0  0  0
 34 29  1  0  0  0  0
 35 36  2  0  0  0  0
 37 35  1  0  0  0  0
 38 37  1  0  0  0  0
 39 38  1  0  0  0  0
 40 41  1  0  0  0  0
 40 39  1  0  0  0  0
 41 42  1  0  0  0  0
 42 43  1  1  0  0  0
 45 46  2  0  0  0  0
 46 44  1  0  0  0  0
 46 42  1  0  0  0  0
M  END
>  <MODEL>
9

>  <REMARK>
 VINA RESULT:      -3.6      2.929      8.772
  Name = 
  23 active torsions:
  status: ('A' for Active; 'I' for Inactive)
    1  A    between atoms: C_2  and  C_9
    2  A    between atoms: C_2  and  C_18
    3  A    between atoms: N_3  and  C_25
    4  A    between atoms: C_4  and  C_13
    5  A    between atoms: C_4  and  C_24
    6  A    between atoms: C_6  and  C_17
    7  A    between atoms: C_6  and  C_27
    8  A    between atoms: C_7  and  C_21
    9  A    between atoms: C_7  and  C_39
   10  A    between atoms: C_8  and  C_31
   11  A    between atoms: C_14  and  N_16
   12  A    between atoms: C_14  and  C_43
   13  A    between atoms: C_15  and  C_39
   14  A    between atoms: N_16  and  O_45
   15  A    between atoms: C_17  and  C_29
   16  A    between atoms: C_18  and  C_23
   17  A    between atoms: C_21  and  C_27
   18  A    between atoms: C_24  and  C_36
   19  A    between atoms: C_25  and  C_30
   20  A    between atoms: C_26  and  C_33
   21  A    between atoms: C_26  and  O_42
   22  A    between atoms: C_31  and  O_45
   23  A    between atoms: O_42  and  C_43
                            x       y       z     vdW  Elec       q    Type
                         _______ _______ _______ _____ _____    ______ ____

>  <TORSDO>
F 23

$$$$
