=
 OpenBabel11072410473D

 38 42  0  0  1  0  0  0  0  0999 V2000
  160.9360  206.5920  153.4580 C   0  0  0  0  0  0  0  0  0  0  0  0
  161.4440  203.3200  147.1260 O   0  0  0  0  0  0  0  0  0  0  0  0
  161.2600  206.3920  151.2320 C   0  0  0  0  0  0  0  0  0  0  0  0
  160.8740  205.0080  151.6810 C   0  0  1  0  0  3  0  0  0  0  0  0
  161.1120  208.6550  154.6100 N   0  0  0  0  0  0  0  0  0  0  0  0
  161.6380  202.6830  149.3190 O   0  0  0  0  0  0  0  0  0  0  0  0
  160.5780  204.8950  148.6810 C   0  0  0  0  0  2  0  0  0  0  0  0
  161.8000  208.2750  149.8270 C   0  0  0  0  0  3  0  0  0  0  0  0
  161.2460  207.2340  152.3040 C   0  0  0  0  0  0  0  0  0  0  0  0
  161.6540  206.7310  147.4120 C   0  0  0  0  0  1  0  0  0  0  0  0
  161.9490  203.9860  151.3520 C   0  0  0  0  0  2  0  0  0  0  0  0
  161.4930  208.6050  152.2280 C   0  0  0  0  0  0  0  0  0  0  0  0
  160.8660  207.3120  154.6460 C   0  0  0  0  0  3  0  0  0  0  0  0
  161.7860  209.1360  150.9460 C   0  0  0  0  0  0  0  0  0  0  0  0
  161.2820  202.7870  150.6940 C   0  0  0  0  0  2  0  0  0  0  0  0
  161.2200  203.5880  148.3350 C   0  0  0  0  0  0  0  0  0  0  0  0
  161.4190  209.3220  153.4510 C   0  0  0  0  0  0  0  0  0  0  0  0
  160.7050  205.1390  153.2160 C   0  0  0  0  0  2  0  0  0  0  0  0
  161.5190  206.8930  149.9390 C   0  0  0  0  0  0  0  0  0  0  0  0
  161.6480  205.9810  148.7350 C   0  0  1  0  0  3  0  0  0  0  0  0
  161.6570  210.7250  153.5100 N   0  0  0  0  0  1  0  0  0  0  0  0
  162.0180  210.5900  150.7080 C   0  0  0  0  0  2  0  0  0  0  0  0
  161.2740  213.0410  149.4540 O   0  0  0  0  0  0  0  0  0  0  0  0
  161.6690  212.1000  148.7160 C   0  0  0  0  0  0  0  0  0  0  0  0
  162.0420  210.8430  149.2780 N   0  0  0  0  0  2  0  0  0  0  0  0
  161.7890  212.3050  147.2450 C   0  0  0  0  0  2  0  0  0  0  0  0
  160.2830  212.6940  145.3190 C   0  0  0  0  0  3  0  0  0  0  0  0
  160.4270  212.4630  146.6240 C   0  0  0  0  0  0  0  0  0  0  0  0
  158.3220  213.4350  147.4840 C   0  0  0  0  0  1  0  0  0  0  0  0
  159.2730  212.3800  147.4120 O   0  0  0  0  0  0  0  0  0  0  0  0
  161.4450  212.8000  144.3630 C   0  0  0  0  0  2  0  0  0  0  0  0
  161.7080  211.7250  141.2710 C   0  0  0  0  0  0  0  0  0  0  0  0
  161.7980  210.4990  140.4370 C   0  0  0  0  0  1  0  0  0  0  0  0
  162.1050  213.7150  142.1300 C   0  0  1  0  0  3  0  0  0  0  0  0
  163.3040  214.3040  142.8750 C   0  0  0  0  0  1  0  0  0  0  0  0
  162.5210  212.7110  141.1570 N   0  0  0  0  0  0  0  0  0  0  0  0
  161.0450  213.1000  142.9740 N   0  0  0  0  0  0  0  0  0  0  0  0
  160.7720  211.8910  142.3120 N   0  0  0  0  0  2  0  0  0  0  0  0
  1 13  1  0  0  0  0
  2 16  2  0  0  0  0
  3  4  1  0  0  0  0
  3  9  1  0  0  0  0
  4 11  1  1  0  0  0
  4 18  1  0  0  0  0
  5 13  2  0  0  0  0
  6 15  1  0  0  0  0
  7 20  1  0  0  0  0
  8 19  1  0  0  0  0
  8 14  2  0  0  0  0
  9  1  2  0  0  0  0
 12  9  1  0  0  0  0
 12 17  2  0  0  0  0
 14 12  1  0  0  0  0
 15 11  1  0  0  0  0
 16  7  1  0  0  0  0
 16  6  1  0  0  0  0
 17 21  1  0  0  0  0
 17  5  1  0  0  0  0
 18  1  1  0  0  0  0
 19  3  2  0  0  0  0
 20 10  1  6  0  0  0
 20 19  1  0  0  0  0
 22 14  1  0  0  0  0
 24 25  1  0  0  0  0
 24 23  2  0  0  0  0
 25 22  1  0  0  0  0
 26 24  1  0  0  0  0
 27 28  2  0  0  0  0
 28 26  1  0  0  0  0
 28 30  1  0  0  0  0
 30 29  1  0  0  0  0
 31 27  1  0  0  0  0
 32 38  1  0  0  0  0
 33 32  1  0  0  0  0
 34 35  1  1  0  0  0
 34 37  1  0  0  0  0
 36 32  2  0  0  0  0
 36 34  1  0  0  0  0
 37 31  1  0  0  0  0
 38 37  1  0  0  0  0
M  END
>  <MODEL>
1

>  <REMARK>
 VINA RESULT:      -9.0      0.000      0.000
  Name = 
  7 active torsions:
  status: ('A' for Active; 'I' for Inactive)
    1  A    between atoms: C_1  and  N_25
    2  A    between atoms: C_1  and  C_28
    3  A    between atoms: C_8  and  C_11
    4  A    between atoms: C_8  and  N_32
    5  A    between atoms: C_16  and  C_22
    6  A    between atoms: C_16  and  O_29
    7  A    between atoms: C_20  and  C_22
                            x       y       z     vdW  Elec       q    Type
                         _______ _______ _______ _____ _____    ______ ____

>  <TORSDO>
F 7

$$$$
=
 OpenBabel11072410473D

 38 42  0  0  1  0  0  0  0  0999 V2000
  160.8210  203.2130  150.6850 C   0  0  0  0  0  0  0  0  0  0  0  0
  161.2830  205.7890  144.0370 O   0  0  0  0  0  0  0  0  0  0  0  0
  161.1280  204.7490  149.0590 C   0  0  0  0  0  0  0  0  0  0  0  0
  160.7460  203.4930  148.3220 C   0  0  1  0  0  3  0  0  0  0  0  0
  161.0040  203.7180  152.9930 N   0  0  0  0  0  0  0  0  0  0  0  0
  161.4930  203.7260  145.0120 O   0  0  0  0  0  0  0  0  0  0  0  0
  160.4280  205.6640  146.2500 C   0  0  0  0  0  2  0  0  0  0  0  0
  161.6580  207.0520  149.5360 C   0  0  0  0  0  3  0  0  0  0  0  0
  161.1220  204.5040  150.4000 C   0  0  0  0  0  0  0  0  0  0  0  0
  161.4940  207.8370  146.7800 C   0  0  0  0  0  1  0  0  0  0  0  0
  161.8190  203.0690  147.3330 C   0  0  0  0  0  2  0  0  0  0  0  0
  161.3680  205.4700  151.3750 C   0  0  0  0  0  0  0  0  0  0  0  0
  160.7590  202.8000  152.0120 C   0  0  0  0  0  3  0  0  0  0  0  0
  161.6510  206.7850  150.9220 C   0  0  0  0  0  0  0  0  0  0  0  0
  161.1480  202.7630  146.0030 C   0  0  0  0  0  2  0  0  0  0  0  0
  161.0670  205.0600  145.0390 C   0  0  0  0  0  0  0  0  0  0  0  0
  161.3020  205.0300  152.7230 C   0  0  0  0  0  0  0  0  0  0  0  0
  160.5890  202.4290  149.4380 C   0  0  0  0  0  2  0  0  0  0  0  0
  161.3780  206.0510  148.5760 C   0  0  0  0  0  0  0  0  0  0  0  0
  161.4980  206.3480  147.0950 C   0  0  1  0  0  3  0  0  0  0  0  0
  161.5410  205.9160  153.8120 N   0  0  0  0  0  1  0  0  0  0  0  0
  161.8810  207.9280  151.8520 C   0  0  0  0  0  2  0  0  0  0  0  0
  161.6110  210.4400  153.1740 O   0  0  0  0  0  0  0  0  0  0  0  0
  160.5700  209.9070  152.7070 C   0  0  0  0  0  0  0  0  0  0  0  0
  160.6330  208.6450  152.0470 N   0  0  0  0  0  2  0  0  0  0  0  0
  159.2620  210.6150  152.8050 C   0  0  0  0  0  2  0  0  0  0  0  0
  159.2230  211.7540  155.0030 C   0  0  0  0  0  3  0  0  0  0  0  0
  159.3880  211.8320  153.6810 C   0  0  0  0  0  0  0  0  0  0  0  0
  159.6040  213.3290  151.7240 C   0  0  0  0  0  1  0  0  0  0  0  0
  159.6720  213.0830  153.1230 O   0  0  0  0  0  0  0  0  0  0  0  0
  158.9190  210.4660  155.7250 C   0  0  0  0  0  2  0  0  0  0  0  0
  162.0490  210.2820  156.7000 C   0  0  0  0  0  0  0  0  0  0  0  0
  163.4070  210.8390  156.4690 C   0  0  0  0  0  1  0  0  0  0  0  0
  160.3770  208.8760  156.9910 C   0  0  1  0  0  3  0  0  0  0  0  0
  159.7560  207.8030  156.0950 C   0  0  0  0  0  1  0  0  0  0  0  0
  161.8060  209.0220  156.7360 N   0  0  0  0  0  0  0  0  0  0  0  0
  159.7720  210.2330  156.9070 N   0  0  0  0  0  0  0  0  0  0  0  0
  160.8920  211.0780  156.8280 N   0  0  0  0  0  2  0  0  0  0  0  0
  1 13  1  0  0  0  0
  2 16  2  0  0  0  0
  3  9  1  0  0  0  0
  4 11  1  6  0  0  0
  4  3  1  0  0  0  0
  4 18  1  0  0  0  0
  6 16  1  0  0  0  0
  6 15  1  0  0  0  0
  7 20  1  0  0  0  0
  8 14  2  0  0  0  0
  9  1  2  0  0  0  0
  9 12  1  0  0  0  0
 12 17  2  0  0  0  0
 13  5  2  0  0  0  0
 14 12  1  0  0  0  0
 14 22  1  0  0  0  0
 15 11  1  0  0  0  0
 16  7  1  0  0  0  0
 17  5  1  0  0  0  0
 17 21  1  0  0  0  0
 18  1  1  0  0  0  0
 19  3  2  0  0  0  0
 19  8  1  0  0  0  0
 20 10  1  1  0  0  0
 20 19  1  0  0  0  0
 22 25  1  0  0  0  0
 24 26  1  0  0  0  0
 24 23  2  0  0  0  0
 25 24  1  0  0  0  0
 26 28  1  0  0  0  0
 27 31  1  0  0  0  0
 28 27  2  0  0  0  0
 29 30  1  0  0  0  0
 30 28  1  0  0  0  0
 31 37  1  0  0  0  0
 32 36  2  0  0  0  0
 32 38  1  0  0  0  0
 33 32  1  0  0  0  0
 34 35  1  6  0  0  0
 36 34  1  0  0  0  0
 37 34  1  0  0  0  0
 38 37  1  0  0  0  0
M  END
>  <MODEL>
2

>  <REMARK>
 VINA RESULT:      -8.9      4.639      7.920
  Name = 
  7 active torsions:
  status: ('A' for Active; 'I' for Inactive)
    1  A    between atoms: C_1  and  N_25
    2  A    between atoms: C_1  and  C_28
    3  A    between atoms: C_8  and  C_11
    4  A    between atoms: C_8  and  N_32
    5  A    between atoms: C_16  and  C_22
    6  A    between atoms: C_16  and  O_29
    7  A    between atoms: C_20  and  C_22
                            x       y       z     vdW  Elec       q    Type
                         _______ _______ _______ _____ _____    ______ ____

>  <TORSDO>
F 7

$$$$
=
 OpenBabel11072410473D

 38 42  0  0  1  0  0  0  0  0999 V2000
  160.9280  205.8250  152.6510 C   0  0  0  0  0  0  0  0  0  0  0  0
  161.2720  202.3300  146.4290 O   0  0  0  0  0  0  0  0  0  0  0  0
  161.2780  205.5300  150.4400 C   0  0  0  0  0  0  0  0  0  0  0  0
  160.7630  204.1990  150.9200 C   0  0  1  0  0  3  0  0  0  0  0  0
  161.2620  207.8990  153.7480 N   0  0  0  0  0  0  0  0  0  0  0  0
  161.3650  201.7460  148.6440 O   0  0  0  0  0  0  0  0  0  0  0  0
  160.5170  204.0210  147.9180 C   0  0  0  0  0  2  0  0  0  0  0  0
  162.0100  207.3150  148.9940 C   0  0  0  0  0  3  0  0  0  0  0  0
  161.3170  206.4030  151.4870 C   0  0  0  0  0  0  0  0  0  0  0  0
  161.7760  205.7170  146.6220 C   0  0  0  0  0  1  0  0  0  0  0  0
  161.7500  203.0780  150.6440 C   0  0  0  0  0  2  0  0  0  0  0  0
  161.6850  207.7430  151.3780 C   0  0  0  0  0  0  0  0  0  0  0  0
  160.8980  206.5840  153.8160 C   0  0  0  0  0  3  0  0  0  0  0  0
  162.0490  208.2070  150.0870 C   0  0  0  0  0  0  0  0  0  0  0  0
  160.9930  201.9220  150.0070 C   0  0  0  0  0  2  0  0  0  0  0  0
  161.0480  202.6530  147.6240 C   0  0  0  0  0  0  0  0  0  0  0  0
  161.6500  208.5010  152.5770 C   0  0  0  0  0  0  0  0  0  0  0  0
  160.5750  204.3910  152.4470 C   0  0  0  0  0  2  0  0  0  0  0  0
  161.6060  205.9660  149.1390 C   0  0  0  0  0  0  0  0  0  0  0  0
  161.6780  205.0100  147.9660 C   0  0  1  0  0  3  0  0  0  0  0  0
  162.0100  209.8790  152.6020 N   0  0  0  0  0  1  0  0  0  0  0  0
  162.4130  209.6280  149.8130 C   0  0  0  0  0  2  0  0  0  0  0  0
  162.4560  212.2950  148.8050 O   0  0  0  0  0  0  0  0  0  0  0  0
  161.7090  211.4610  148.2290 C   0  0  0  0  0  0  0  0  0  0  0  0
  161.6300  210.1150  148.6910 N   0  0  0  0  0  2  0  0  0  0  0  0
  160.9290  211.8660  147.0260 C   0  0  0  0  0  2  0  0  0  0  0  0
  160.1230  214.1890  147.3220 C   0  0  0  0  0  3  0  0  0  0  0  0
  161.0280  213.3530  146.8120 C   0  0  0  0  0  0  0  0  0  0  0  0
  162.5010  213.3260  144.8250 C   0  0  0  0  0  1  0  0  0  0  0  0
  162.0750  213.8940  146.0570 O   0  0  0  0  0  0  0  0  0  0  0  0
  158.9510  213.7330  148.1550 C   0  0  0  0  0  2  0  0  0  0  0  0
  159.0650  213.3240  151.4120 C   0  0  0  0  0  0  0  0  0  0  0  0
  159.7340  212.5620  152.4970 C   0  0  0  0  0  1  0  0  0  0  0  0
  157.5230  214.2560  150.1420 C   0  0  1  0  0  3  0  0  0  0  0  0
  156.3810  213.6800  149.3040 C   0  0  0  0  0  1  0  0  0  0  0  0
  157.7900  213.4360  151.3180 N   0  0  0  0  0  0  0  0  0  0  0  0
  158.8200  214.4520  149.4380 N   0  0  0  0  0  0  0  0  0  0  0  0
  159.7580  213.9320  150.3450 N   0  0  0  0  0  2  0  0  0  0  0  0
  1 13  1  0  0  0  0
  2 16  2  0  0  0  0
  3  4  1  0  0  0  0
  3  9  1  0  0  0  0
  4 11  1  1  0  0  0
  4 18  1  0  0  0  0
  5 13  2  0  0  0  0
  6 15  1  0  0  0  0
  7 20  1  0  0  0  0
  8 19  1  0  0  0  0
  8 14  2  0  0  0  0
  9  1  2  0  0  0  0
 12  9  1  0  0  0  0
 12 17  2  0  0  0  0
 14 12  1  0  0  0  0
 15 11  1  0  0  0  0
 16  7  1  0  0  0  0
 16  6  1  0  0  0  0
 17 21  1  0  0  0  0
 17  5  1  0  0  0  0
 18  1  1  0  0  0  0
 19  3  2  0  0  0  0
 20 10  1  6  0  0  0
 20 19  1  0  0  0  0
 22 14  1  0  0  0  0
 24 25  1  0  0  0  0
 24 23  2  0  0  0  0
 25 22  1  0  0  0  0
 26 24  1  0  0  0  0
 27 31  1  0  0  0  0
 28 26  1  0  0  0  0
 28 27  2  0  0  0  0
 29 30  1  0  0  0  0
 30 28  1  0  0  0  0
 31 37  1  0  0  0  0
 32 33  1  0  0  0  0
 34 35  1  6  0  0  0
 34 36  1  0  0  0  0
 36 32  2  0  0  0  0
 37 34  1  0  0  0  0
 37 38  1  0  0  0  0
 38 32  1  0  0  0  0
M  END
>  <MODEL>
3

>  <REMARK>
 VINA RESULT:      -8.8      2.584      4.554
  Name = 
  7 active torsions:
  status: ('A' for Active; 'I' for Inactive)
    1  A    between atoms: C_1  and  N_25
    2  A    between atoms: C_1  and  C_28
    3  A    between atoms: C_8  and  C_11
    4  A    between atoms: C_8  and  N_32
    5  A    between atoms: C_16  and  C_22
    6  A    between atoms: C_16  and  O_29
    7  A    between atoms: C_20  and  C_22
                            x       y       z     vdW  Elec       q    Type
                         _______ _______ _______ _____ _____    ______ ____

>  <TORSDO>
F 7

$$$$
=
 OpenBabel11072410473D

 38 42  0  0  1  0  0  0  0  0999 V2000
  160.6610  207.9280  155.0270 C   0  0  0  0  0  0  0  0  0  0  0  0
  157.8930  214.4530  154.1260 O   0  0  0  0  0  0  0  0  0  0  0  0
  160.1430  209.8440  153.9520 C   0  0  0  0  0  0  0  0  0  0  0  0
  159.6470  210.0560  155.3580 C   0  0  1  0  0  3  0  0  0  0  0  0
  161.8320  206.1440  153.9970 N   0  0  0  0  0  0  0  0  0  0  0  0
  157.4940  212.6830  155.5270 O   0  0  0  0  0  0  0  0  0  0  0  0
  159.6270  212.8290  154.1660 C   0  0  0  0  0  2  0  0  0  0  0  0
  160.7540  210.2480  151.6550 C   0  0  0  0  0  3  0  0  0  0  0  0
  160.7270  208.6160  153.8600 C   0  0  0  0  0  0  0  0  0  0  0  0
  159.7920  212.9510  151.6970 C   0  0  0  0  0  1  0  0  0  0  0  0
  158.1560  210.3450  155.3940 C   0  0  0  0  0  2  0  0  0  0  0  0
  161.3480  208.1260  152.7120 C   0  0  0  0  0  0  0  0  0  0  0  0
  161.2240  206.6580  155.1070 C   0  0  0  0  0  3  0  0  0  0  0  0
  161.3530  208.9730  151.5730 C   0  0  0  0  0  0  0  0  0  0  0  0
  157.9260  211.5570  156.2840 C   0  0  0  0  0  2  0  0  0  0  0  0
  158.3090  213.3730  154.6200 C   0  0  0  0  0  0  0  0  0  0  0  0
  161.9150  206.8290  152.8120 C   0  0  0  0  0  0  0  0  0  0  0  0
  159.9570  208.7190  156.0770 C   0  0  0  0  0  2  0  0  0  0  0  0
  160.1560  210.7210  152.8470 C   0  0  0  0  0  0  0  0  0  0  0  0
  159.4290  212.0510  152.8680 C   0  0  1  0  0  3  0  0  0  0  0  0
  162.5710  206.2130  151.7080 N   0  0  0  0  0  1  0  0  0  0  0  0
  162.0260  208.6010  150.2940 C   0  0  0  0  0  2  0  0  0  0  0  0
  162.7180  207.2070  147.9040 O   0  0  0  0  0  0  0  0  0  0  0  0
  161.5230  207.1430  148.2970 C   0  0  0  0  0  0  0  0  0  0  0  0
  161.1080  207.8290  149.4760 N   0  0  0  0  0  2  0  0  0  0  0  0
  160.5370  206.3120  147.5510 C   0  0  0  0  0  2  0  0  0  0  0  0
  161.8790  204.5010  146.5270 C   0  0  0  0  0  3  0  0  0  0  0  0
  161.1980  205.6380  146.3790 C   0  0  0  0  0  0  0  0  0  0  0  0
  161.2050  205.4190  143.9160 C   0  0  0  0  0  1  0  0  0  0  0  0
  161.1230  206.2020  145.1000 O   0  0  0  0  0  0  0  0  0  0  0  0
  162.0310  203.7920  147.8490 C   0  0  0  0  0  2  0  0  0  0  0  0
  160.7010  202.8820  150.7110 C   0  0  0  0  0  0  0  0  0  0  0  0
  160.8250  203.0250  152.1840 C   0  0  0  0  0  1  0  0  0  0  0  0
  160.4820  202.0190  148.6950 C   0  0  1  0  0  3  0  0  0  0  0  0
  161.3470  201.0600  147.8770 C   0  0  0  0  0  1  0  0  0  0  0  0
  160.5860  201.7470  150.1240 N   0  0  0  0  0  0  0  0  0  0  0  0
  160.7460  203.4710  148.5010 N   0  0  0  0  0  0  0  0  0  0  0  0
  160.7700  203.9690  149.8150 N   0  0  0  0  0  2  0  0  0  0  0  0
  1 13  1  0  0  0  0
  1 18  1  0  0  0  0
  2 16  2  0  0  0  0
  3  4  1  0  0  0  0
  4 11  1  6  0  0  0
  4 18  1  0  0  0  0
  5 13  2  0  0  0  0
  6 15  1  0  0  0  0
  7 16  1  0  0  0  0
  8 19  1  0  0  0  0
  9  3  1  0  0  0  0
  9  1  2  0  0  0  0
 11 15  1  0  0  0  0
 12 17  2  0  0  0  0
 12  9  1  0  0  0  0
 14  8  2  0  0  0  0
 14 12  1  0  0  0  0
 16  6  1  0  0  0  0
 17  5  1  0  0  0  0
 19 20  1  0  0  0  0
 19  3  2  0  0  0  0
 20 10  1  6  0  0  0
 20  7  1  0  0  0  0
 21 17  1  0  0  0  0
 22 14  1  0  0  0  0
 23 24  2  0  0  0  0
 24 25  1  0  0  0  0
 25 22  1  0  0  0  0
 26 24  1  0  0  0  0
 27 31  1  0  0  0  0
 28 27  2  0  0  0  0
 28 26  1  0  0  0  0
 29 30  1  0  0  0  0
 30 28  1  0  0  0  0
 31 37  1  0  0  0  0
 32 33  1  0  0  0  0
 34 35  1  6  0  0  0
 34 36  1  0  0  0  0
 36 32  2  0  0  0  0
 37 34  1  0  0  0  0
 37 38  1  0  0  0  0
 38 32  1  0  0  0  0
M  END
>  <MODEL>
4

>  <REMARK>
 VINA RESULT:      -8.7      4.666      8.445
  Name = 
  7 active torsions:
  status: ('A' for Active; 'I' for Inactive)
    1  A    between atoms: C_1  and  N_25
    2  A    between atoms: C_1  and  C_28
    3  A    between atoms: C_8  and  C_11
    4  A    between atoms: C_8  and  N_32
    5  A    between atoms: C_16  and  C_22
    6  A    between atoms: C_16  and  O_29
    7  A    between atoms: C_20  and  C_22
                            x       y       z     vdW  Elec       q    Type
                         _______ _______ _______ _____ _____    ______ ____

>  <TORSDO>
F 7

$$$$
=
 OpenBabel11072410473D

 38 42  0  0  1  0  0  0  0  0999 V2000
  160.8770  203.5950  151.0510 C   0  0  0  0  0  0  0  0  0  0  0  0
  161.3450  205.8480  144.2870 O   0  0  0  0  0  0  0  0  0  0  0  0
  161.1580  205.0570  149.3530 C   0  0  0  0  0  0  0  0  0  0  0  0
  160.8240  203.7540  148.6760 C   0  0  1  0  0  3  0  0  0  0  0  0
  161.0150  204.2220  153.3320 N   0  0  0  0  0  0  0  0  0  0  0  0
  161.6060  203.8440  145.3680 O   0  0  0  0  0  0  0  0  0  0  0  0
  160.4650  205.8070  146.4940 C   0  0  0  0  0  2  0  0  0  0  0  0
  161.6100  207.3970  149.7180 C   0  0  0  0  0  3  0  0  0  0  0  0
  161.1420  204.8800  150.7050 C   0  0  0  0  0  0  0  0  0  0  0  0
  161.4570  208.0360  146.9250 C   0  0  0  0  0  1  0  0  0  0  0  0
  161.9220  203.3150  147.7230 C   0  0  0  0  0  2  0  0  0  0  0  0
  161.3460  205.9010  151.6320 C   0  0  0  0  0  0  0  0  0  0  0  0
  160.8110  203.2480  152.3960 C   0  0  0  0  0  3  0  0  0  0  0  0
  161.5930  207.1990  151.1160 C   0  0  0  0  0  0  0  0  0  0  0  0
  161.2780  202.9220  146.4020 C   0  0  0  0  0  2  0  0  0  0  0  0
  161.1390  205.1640  145.3220 C   0  0  0  0  0  0  0  0  0  0  0  0
  161.2760  205.5270  153.0000 C   0  0  0  0  0  0  0  0  0  0  0  0
  160.6850  202.7430  149.8430 C   0  0  0  0  0  2  0  0  0  0  0  0
  161.3730  206.3400  148.8070 C   0  0  0  0  0  0  0  0  0  0  0  0
  161.5040  206.5670  147.3150 C   0  0  1  0  0  3  0  0  0  0  0  0
  161.4730  206.4740  154.0450 N   0  0  0  0  0  1  0  0  0  0  0  0
  161.7760  208.3950  151.9900 C   0  0  0  0  0  2  0  0  0  0  0  0
  161.2770  210.6650  153.6430 O   0  0  0  0  0  0  0  0  0  0  0  0
  160.3660  210.3030  152.8510 C   0  0  0  0  0  0  0  0  0  0  0  0
  160.5460  209.1670  152.0080 N   0  0  0  0  0  2  0  0  0  0  0  0
  159.1030  211.0870  152.7590 C   0  0  0  0  0  2  0  0  0  0  0  0
  159.7540  213.2320  151.7080 C   0  0  0  0  0  3  0  0  0  0  0  0
  159.3970  212.5630  152.8050 C   0  0  0  0  0  0  0  0  0  0  0  0
  158.7840  212.6890  155.1980 C   0  0  0  0  0  1  0  0  0  0  0  0
  159.3130  213.2670  154.0110 O   0  0  0  0  0  0  0  0  0  0  0  0
  159.8770  212.5910  150.3490 C   0  0  0  0  0  2  0  0  0  0  0  0
  160.2490  213.3410  147.1740 C   0  0  0  0  0  0  0  0  0  0  0  0
  159.5070  213.6130  145.9160 C   0  0  0  0  0  1  0  0  0  0  0  0
  161.6910  212.5270  148.6280 C   0  0  1  0  0  3  0  0  0  0  0  0
  161.9530  211.1140  149.1490 C   0  0  0  0  0  1  0  0  0  0  0  0
  161.2230  212.5090  147.2470 N   0  0  0  0  0  0  0  0  0  0  0  0
  160.7270  213.3490  149.4100 N   0  0  0  0  0  0  0  0  0  0  0  0
  159.9100  213.9140  148.4170 N   0  0  0  0  0  2  0  0  0  0  0  0
  1 13  1  0  0  0  0
  2 16  2  0  0  0  0
  3  9  1  0  0  0  0
  4 11  1  6  0  0  0
  4  3  1  0  0  0  0
  4 18  1  0  0  0  0
  6 15  1  0  0  0  0
  7 20  1  0  0  0  0
  8 14  2  0  0  0  0
  9  1  2  0  0  0  0
  9 12  1  0  0  0  0
 12 17  2  0  0  0  0
 13  5  2  0  0  0  0
 14 12  1  0  0  0  0
 14 22  1  0  0  0  0
 15 11  1  0  0  0  0
 16  6  1  0  0  0  0
 16  7  1  0  0  0  0
 17  5  1  0  0  0  0
 17 21  1  0  0  0  0
 18  1  1  0  0  0  0
 19  3  2  0  0  0  0
 19  8  1  0  0  0  0
 20 10  1  1  0  0  0
 20 19  1  0  0  0  0
 22 25  1  0  0  0  0
 24 23  2  0  0  0  0
 25 24  1  0  0  0  0
 26 28  1  0  0  0  0
 26 24  1  0  0  0  0
 27 28  2  0  0  0  0
 28 30  1  0  0  0  0
 30 29  1  0  0  0  0
 31 27  1  0  0  0  0
 32 36  2  0  0  0  0
 32 38  1  0  0  0  0
 33 32  1  0  0  0  0
 34 35  1  1  0  0  0
 34 37  1  0  0  0  0
 36 34  1  0  0  0  0
 37 31  1  0  0  0  0
 38 37  1  0  0  0  0
M  END
>  <MODEL>
5

>  <REMARK>
 VINA RESULT:      -8.7      3.025      4.757
  Name = 
  7 active torsions:
  status: ('A' for Active; 'I' for Inactive)
    1  A    between atoms: C_1  and  N_25
    2  A    between atoms: C_1  and  C_28
    3  A    between atoms: C_8  and  C_11
    4  A    between atoms: C_8  and  N_32
    5  A    between atoms: C_16  and  C_22
    6  A    between atoms: C_16  and  O_29
    7  A    between atoms: C_20  and  C_22
                            x       y       z     vdW  Elec       q    Type
                         _______ _______ _______ _____ _____    ______ ____

>  <TORSDO>
F 7

$$$$
=
 OpenBabel11072410473D

 38 42  0  0  1  0  0  0  0  0999 V2000
  160.1900  212.0250  152.4290 C   0  0  0  0  0  0  0  0  0  0  0  0
  160.4650  206.6540  157.1330 O   0  0  0  0  0  0  0  0  0  0  0  0
  160.6190  209.9470  153.2000 C   0  0  0  0  0  0  0  0  0  0  0  0
  159.9340  210.6400  154.3480 C   0  0  1  0  0  3  0  0  0  0  0  0
  160.6960  212.7130  150.2180 N   0  0  0  0  0  0  0  0  0  0  0  0
  160.3770  208.9420  157.2610 O   0  0  0  0  0  0  0  0  0  0  0  0
  159.8270  207.7220  155.1080 C   0  0  0  0  0  2  0  0  0  0  0  0
  161.6190  208.2360  151.8280 C   0  0  0  0  0  3  0  0  0  0  0  0
  160.7000  210.8010  152.1410 C   0  0  0  0  0  0  0  0  0  0  0  0
  161.3320  206.2140  153.8440 C   0  0  0  0  0  1  0  0  0  0  0  0
  160.8030  210.6630  155.5940 C   0  0  0  0  0  2  0  0  0  0  0  0
  161.2210  210.4580  150.8940 C   0  0  0  0  0  0  0  0  0  0  0  0
  160.1840  213.0130  151.4490 C   0  0  0  0  0  3  0  0  0  0  0  0
  161.7000  209.1310  150.7400 C   0  0  0  0  0  0  0  0  0  0  0  0
  159.9570  210.2120  156.7750 C   0  0  0  0  0  2  0  0  0  0  0  0
  160.2170  207.7430  156.5530 C   0  0  0  0  0  0  0  0  0  0  0  0
  161.2080  211.4790  149.9080 C   0  0  0  0  0  0  0  0  0  0  0  0
  159.6910  212.0810  153.8320 C   0  0  0  0  0  2  0  0  0  0  0  0
  161.0600  208.6130  153.0720 C   0  0  0  0  0  0  0  0  0  0  0  0
  161.0870  207.6590  154.2500 C   0  0  1  0  0  3  0  0  0  0  0  0
  161.7170  211.2580  148.5960 N   0  0  0  0  0  1  0  0  0  0  0  0
  162.2340  208.6100  149.4480 C   0  0  0  0  0  2  0  0  0  0  0  0
  162.7090  206.7340  147.3530 O   0  0  0  0  0  0  0  0  0  0  0  0
  161.5270  206.8640  147.7690 C   0  0  0  0  0  0  0  0  0  0  0  0
  161.2190  207.7950  148.8050 N   0  0  0  0  0  2  0  0  0  0  0  0
  160.4410  206.0120  147.2090 C   0  0  0  0  0  2  0  0  0  0  0  0
  161.6440  204.0890  146.2170 C   0  0  0  0  0  3  0  0  0  0  0  0
  160.9520  205.2140  146.0380 C   0  0  0  0  0  0  0  0  0  0  0  0
  161.6680  205.4680  143.6850 C   0  0  0  0  0  1  0  0  0  0  0  0
  160.7180  205.6460  144.7280 O   0  0  0  0  0  0  0  0  0  0  0  0
  161.9590  203.5160  147.5750 C   0  0  0  0  0  2  0  0  0  0  0  0
  160.9370  202.6520  150.5750 C   0  0  0  0  0  0  0  0  0  0  0  0
  161.1560  202.8870  152.0250 C   0  0  0  0  0  1  0  0  0  0  0  0
  160.6510  201.6600  148.6270 C   0  0  1  0  0  3  0  0  0  0  0  0
  161.5400  200.7390  147.7910 C   0  0  0  0  0  1  0  0  0  0  0  0
  160.8870  201.4790  150.0550 N   0  0  0  0  0  0  0  0  0  0  0  0
  160.7610  203.1170  148.3430 N   0  0  0  0  0  0  0  0  0  0  0  0
  160.8360  203.6880  149.6240 N   0  0  0  0  0  2  0  0  0  0  0  0
  1 18  1  0  0  0  0
  3  4  1  0  0  0  0
  4 18  1  6  0  0  0
  4 11  1  0  0  0  0
  5 13  1  0  0  0  0
  7 16  1  0  0  0  0
  8 19  2  0  0  0  0
  9  1  1  0  0  0  0
  9  3  2  0  0  0  0
 11 15  1  0  0  0  0
 12  9  1  0  0  0  0
 13  1  2  0  0  0  0
 14 12  2  0  0  0  0
 14  8  1  0  0  0  0
 15  6  1  0  0  0  0
 16  2  2  0  0  0  0
 16  6  1  0  0  0  0
 17  5  2  0  0  0  0
 17 12  1  0  0  0  0
 19  3  1  0  0  0  0
 19 20  1  0  0  0  0
 20 10  1  6  0  0  0
 20  7  1  0  0  0  0
 21 17  1  0  0  0  0
 22 14  1  0  0  0  0
 23 24  2  0  0  0  0
 24 25  1  0  0  0  0
 25 22  1  0  0  0  0
 26 24  1  0  0  0  0
 27 31  1  0  0  0  0
 28 27  2  0  0  0  0
 28 26  1  0  0  0  0
 29 30  1  0  0  0  0
 30 28  1  0  0  0  0
 31 37  1  0  0  0  0
 32 33  1  0  0  0  0
 34 35  1  6  0  0  0
 34 36  1  0  0  0  0
 36 32  2  0  0  0  0
 37 34  1  0  0  0  0
 37 38  1  0  0  0  0
 38 32  1  0  0  0  0
M  END
>  <MODEL>
6

>  <REMARK>
 VINA RESULT:      -8.5      4.108      8.273
  Name = 
  7 active torsions:
  status: ('A' for Active; 'I' for Inactive)
    1  A    between atoms: C_1  and  N_25
    2  A    between atoms: C_1  and  C_28
    3  A    between atoms: C_8  and  C_11
    4  A    between atoms: C_8  and  N_32
    5  A    between atoms: C_16  and  C_22
    6  A    between atoms: C_16  and  O_29
    7  A    between atoms: C_20  and  C_22
                            x       y       z     vdW  Elec       q    Type
                         _______ _______ _______ _____ _____    ______ ____

>  <TORSDO>
F 7

$$$$
=
 OpenBabel11072410473D

 38 42  0  0  1  0  0  0  0  0999 V2000
  160.9060  203.5910  150.9270 C   0  0  0  0  0  0  0  0  0  0  0  0
  161.2900  205.8630  144.1640 O   0  0  0  0  0  0  0  0  0  0  0  0
  161.1510  205.0600  149.2300 C   0  0  0  0  0  0  0  0  0  0  0  0
  160.8340  203.7530  148.5530 C   0  0  1  0  0  3  0  0  0  0  0  0
  161.0510  204.2160  153.2080 N   0  0  0  0  0  0  0  0  0  0  0  0
  161.5910  203.8610  145.2390 O   0  0  0  0  0  0  0  0  0  0  0  0
  160.4270  205.8040  146.3770 C   0  0  0  0  0  2  0  0  0  0  0  0
  161.5680  207.4060  149.5960 C   0  0  0  0  0  3  0  0  0  0  0  0
  161.1480  204.8810  150.5810 C   0  0  0  0  0  0  0  0  0  0  0  0
  161.3850  208.0480  146.8050 C   0  0  0  0  0  1  0  0  0  0  0  0
  161.9330  203.3340  147.5910 C   0  0  0  0  0  2  0  0  0  0  0  0
  161.3420  205.9030  151.5090 C   0  0  0  0  0  0  0  0  0  0  0  0
  160.8560  203.2400  152.2720 C   0  0  0  0  0  3  0  0  0  0  0  0
  161.5640  207.2060  150.9930 C   0  0  0  0  0  0  0  0  0  0  0  0
  161.2850  202.9320  146.2740 C   0  0  0  0  0  2  0  0  0  0  0  0
  161.1020  205.1740  145.1990 C   0  0  0  0  0  0  0  0  0  0  0  0
  161.2880  205.5260  152.8770 C   0  0  0  0  0  0  0  0  0  0  0  0
  160.7200  202.7380  149.7180 C   0  0  0  0  0  2  0  0  0  0  0  0
  161.3420  206.3470  148.6850 C   0  0  0  0  0  0  0  0  0  0  0  0
  161.4580  206.5780  147.1920 C   0  0  1  0  0  3  0  0  0  0  0  0
  161.4770  206.4740  153.9220 N   0  0  0  0  0  1  0  0  0  0  0  0
  161.7340  208.4030  151.8680 C   0  0  0  0  0  2  0  0  0  0  0  0
  161.2400  210.6910  153.4970 O   0  0  0  0  0  0  0  0  0  0  0  0
  160.2930  210.2590  152.7880 C   0  0  0  0  0  0  0  0  0  0  0  0
  160.4680  209.1100  151.9620 N   0  0  0  0  0  2  0  0  0  0  0  0
  158.9850  210.9730  152.7750 C   0  0  0  0  0  2  0  0  0  0  0  0
  158.4270  213.3730  153.0260 C   0  0  0  0  0  3  0  0  0  0  0  0
  159.1880  212.4320  152.4630 C   0  0  0  0  0  0  0  0  0  0  0  0
  159.9950  213.9230  150.6620 C   0  0  0  0  0  1  0  0  0  0  0  0
  160.1780  212.8350  151.5610 O   0  0  0  0  0  0  0  0  0  0  0  0
  157.3310  213.0690  154.0160 C   0  0  0  0  0  2  0  0  0  0  0  0
  159.4150  212.3400  156.4470 C   0  0  0  0  0  0  0  0  0  0  0  0
  160.8130  211.9310  156.7400 C   0  0  0  0  0  1  0  0  0  0  0  0
  157.2130  212.4340  156.4330 C   0  0  1  0  0  3  0  0  0  0  0  0
  156.1350  211.4470  155.9830 C   0  0  0  0  0  1  0  0  0  0  0  0
  158.3920  211.7420  156.9410 N   0  0  0  0  0  0  0  0  0  0  0  0
  157.6800  213.4090  155.4100 N   0  0  0  0  0  0  0  0  0  0  0  0
  159.0780  213.3710  155.5470 N   0  0  0  0  0  2  0  0  0  0  0  0
  1 13  1  0  0  0  0
  2 16  2  0  0  0  0
  3  9  1  0  0  0  0
  4 11  1  6  0  0  0
  4  3  1  0  0  0  0
  4 18  1  0  0  0  0
  6 15  1  0  0  0  0
  7 20  1  0  0  0  0
  8 14  2  0  0  0  0
  9  1  2  0  0  0  0
  9 12  1  0  0  0  0
 12 17  2  0  0  0  0
 13  5  2  0  0  0  0
 14 12  1  0  0  0  0
 14 22  1  0  0  0  0
 15 11  1  0  0  0  0
 16  6  1  0  0  0  0
 16  7  1  0  0  0  0
 17  5  1  0  0  0  0
 17 21  1  0  0  0  0
 18  1  1  0  0  0  0
 19  3  2  0  0  0  0
 19  8  1  0  0  0  0
 20 10  1  1  0  0  0
 20 19  1  0  0  0  0
 22 25  1  0  0  0  0
 24 23  2  0  0  0  0
 25 24  1  0  0  0  0
 26 24  1  0  0  0  0
 27 31  1  0  0  0  0
 28 26  1  0  0  0  0
 28 27  2  0  0  0  0
 29 30  1  0  0  0  0
 30 28  1  0  0  0  0
 31 37  1  0  0  0  0
 32 33  1  0  0  0  0
 32 36  2  0  0  0  0
 34 35  1  6  0  0  0
 34 36  1  0  0  0  0
 37 38  1  0  0  0  0
 37 34  1  0  0  0  0
 38 32  1  0  0  0  0
M  END
>  <MODEL>
7

>  <REMARK>
 VINA RESULT:      -8.2      4.430      7.547
  Name = 
  7 active torsions:
  status: ('A' for Active; 'I' for Inactive)
    1  A    between atoms: C_1  and  N_25
    2  A    between atoms: C_1  and  C_28
    3  A    between atoms: C_8  and  C_11
    4  A    between atoms: C_8  and  N_32
    5  A    between atoms: C_16  and  C_22
    6  A    between atoms: C_16  and  O_29
    7  A    between atoms: C_20  and  C_22
                            x       y       z     vdW  Elec       q    Type
                         _______ _______ _______ _____ _____    ______ ____

>  <TORSDO>
F 7

$$$$
=
 OpenBabel11072410473D

 38 42  0  0  1  0  0  0  0  0999 V2000
  160.8260  203.3610  150.9620 C   0  0  0  0  0  0  0  0  0  0  0  0
  161.0890  204.7030  143.9490 O   0  0  0  0  0  0  0  0  0  0  0  0
  161.1570  204.5610  149.0780 C   0  0  0  0  0  0  0  0  0  0  0  0
  160.6310  203.2360  148.5930 C   0  0  1  0  0  3  0  0  0  0  0  0
  161.1900  204.2380  153.1330 N   0  0  0  0  0  0  0  0  0  0  0  0
  161.1920  202.8280  145.2630 O   0  0  0  0  0  0  0  0  0  0  0  0
  160.3620  205.0380  146.1870 C   0  0  0  0  0  2  0  0  0  0  0  0
  161.8970  206.8550  149.1150 C   0  0  0  0  0  3  0  0  0  0  0  0
  161.2120  204.5520  150.4400 C   0  0  0  0  0  0  0  0  0  0  0  0
  161.6300  207.1650  146.2750 C   0  0  0  0  0  1  0  0  0  0  0  0
  161.6040  202.5540  147.6460 C   0  0  0  0  0  2  0  0  0  0  0  0
  161.5940  205.6460  151.2170 C   0  0  0  0  0  0  0  0  0  0  0  0
  160.8120  203.1900  152.3420 C   0  0  0  0  0  3  0  0  0  0  0  0
  161.9530  206.8320  150.5260 C   0  0  0  0  0  0  0  0  0  0  0  0
  160.8310  202.0850  146.4230 C   0  0  0  0  0  2  0  0  0  0  0  0
  160.8770  204.1800  145.0730 C   0  0  0  0  0  0  0  0  0  0  0  0
  161.5750  205.4510  152.6230 C   0  0  0  0  0  0  0  0  0  0  0  0
  160.4560  202.3990  149.8850 C   0  0  0  0  0  2  0  0  0  0  0  0
  161.4800  205.7320  148.3610 C   0  0  0  0  0  0  0  0  0  0  0  0
  161.5340  205.7580  146.8470 C   0  0  1  0  0  3  0  0  0  0  0  0
  161.9500  206.4870  153.5260 N   0  0  0  0  0  1  0  0  0  0  0  0
  162.3310  208.0930  151.2280 C   0  0  0  0  0  2  0  0  0  0  0  0
  162.3270  210.3280  152.9990 O   0  0  0  0  0  0  0  0  0  0  0  0
  161.2220  209.7820  152.7390 C   0  0  0  0  0  0  0  0  0  0  0  0
  161.1550  208.6520  151.8720 N   0  0  0  0  0  2  0  0  0  0  0  0
  159.9620  210.3430  153.3040 C   0  0  0  0  0  2  0  0  0  0  0  0
  159.5780  211.0960  155.6310 C   0  0  0  0  0  3  0  0  0  0  0  0
  159.9070  210.1140  154.7910 C   0  0  0  0  0  0  0  0  0  0  0  0
  161.1710  208.6880  156.3670 C   0  0  0  0  0  1  0  0  0  0  0  0
  160.2150  208.8590  155.3290 O   0  0  0  0  0  0  0  0  0  0  0  0
  159.2220  212.4890  155.1780 C   0  0  0  0  0  2  0  0  0  0  0  0
  156.0850  211.5150  155.2270 C   0  0  0  0  0  0  0  0  0  0  0  0
  155.2060  210.3290  155.3860 C   0  0  0  0  0  1  0  0  0  0  0  0
  156.9940  213.3680  154.4530 C   0  0  1  0  0  3  0  0  0  0  0  0
  157.7040  213.7060  153.1410 C   0  0  0  0  0  1  0  0  0  0  0  0
  155.9690  212.3490  154.2580 N   0  0  0  0  0  0  0  0  0  0  0  0
  157.8630  212.9120  155.5720 N   0  0  0  0  0  0  0  0  0  0  0  0
  157.1730  211.7980  156.0790 N   0  0  0  0  0  2  0  0  0  0  0  0
  1 13  1  0  0  0  0
  2 16  2  0  0  0  0
  3  9  1  0  0  0  0
  4 11  1  6  0  0  0
  4  3  1  0  0  0  0
  4 18  1  0  0  0  0
  6 15  1  0  0  0  0
  7 20  1  0  0  0  0
  8 14  2  0  0  0  0
  9  1  2  0  0  0  0
  9 12  1  0  0  0  0
 12 17  2  0  0  0  0
 13  5  2  0  0  0  0
 14 12  1  0  0  0  0
 14 22  1  0  0  0  0
 15 11  1  0  0  0  0
 16  6  1  0  0  0  0
 16  7  1  0  0  0  0
 17  5  1  0  0  0  0
 17 21  1  0  0  0  0
 18  1  1  0  0  0  0
 19  3  2  0  0  0  0
 19  8  1  0  0  0  0
 20 10  1  6  0  0  0
 20 19  1  0  0  0  0
 22 25  1  0  0  0  0
 24 23  2  0  0  0  0
 24 26  1  0  0  0  0
 25 24  1  0  0  0  0
 26 28  1  0  0  0  0
 28 30  1  0  0  0  0
 28 27  2  0  0  0  0
 30 29  1  0  0  0  0
 31 37  1  0  0  0  0
 31 27  1  0  0  0  0
 32 33  1  0  0  0  0
 32 38  1  0  0  0  0
 34 35  1  6  0  0  0
 34 37  1  0  0  0  0
 36 34  1  0  0  0  0
 36 32  2  0  0  0  0
 37 38  1  0  0  0  0
M  END
>  <MODEL>
8

>  <REMARK>
 VINA RESULT:      -8.2      4.795      7.681
  Name = 
  7 active torsions:
  status: ('A' for Active; 'I' for Inactive)
    1  A    between atoms: C_1  and  N_25
    2  A    between atoms: C_1  and  C_28
    3  A    between atoms: C_8  and  C_11
    4  A    between atoms: C_8  and  N_32
    5  A    between atoms: C_16  and  C_22
    6  A    between atoms: C_16  and  O_29
    7  A    between atoms: C_20  and  C_22
                            x       y       z     vdW  Elec       q    Type
                         _______ _______ _______ _____ _____    ______ ____

>  <TORSDO>
F 7

$$$$
=
 OpenBabel11072410473D

 38 42  0  0  1  0  0  0  0  0999 V2000
  160.7480  203.2050  150.7410 C   0  0  0  0  0  0  0  0  0  0  0  0
  161.5060  205.6330  144.0640 O   0  0  0  0  0  0  0  0  0  0  0  0
  161.1550  204.6980  149.0970 C   0  0  0  0  0  0  0  0  0  0  0  0
  160.7590  203.4400  148.3710 C   0  0  1  0  0  3  0  0  0  0  0  0
  160.8720  203.7510  153.0430 N   0  0  0  0  0  0  0  0  0  0  0  0
  161.6210  203.5840  145.0850 O   0  0  0  0  0  0  0  0  0  0  0  0
  160.5750  205.5770  146.2500 C   0  0  0  0  0  2  0  0  0  0  0  0
  161.7390  206.9940  149.5470 C   0  0  0  0  0  3  0  0  0  0  0  0
  161.0980  204.4810  150.4410 C   0  0  0  0  0  0  0  0  0  0  0  0
  161.6890  207.7270  146.7730 C   0  0  0  0  0  1  0  0  0  0  0  0
  161.8500  202.9640  147.4280 C   0  0  0  0  0  2  0  0  0  0  0  0
  161.3410  205.4580  151.4060 C   0  0  0  0  0  0  0  0  0  0  0  0
  160.6310  202.8200  152.0720 C   0  0  0  0  0  3  0  0  0  0  0  0
  161.6790  206.7540  150.9370 C   0  0  0  0  0  0  0  0  0  0  0  0
  161.2140  202.6520  146.0820 C   0  0  0  0  0  2  0  0  0  0  0  0
  161.2350  204.9310  145.0720 C   0  0  0  0  0  0  0  0  0  0  0  0
  161.2180  205.0470  152.7590 C   0  0  0  0  0  0  0  0  0  0  0  0
  160.5330  202.4040  149.5020 C   0  0  0  0  0  2  0  0  0  0  0  0
  161.4600  205.9820  148.5980 C   0  0  0  0  0  0  0  0  0  0  0  0
  161.6380  206.2460  147.1160 C   0  0  1  0  0  3  0  0  0  0  0  0
  161.4480  205.9480  153.8380 N   0  0  0  0  0  1  0  0  0  0  0  0
  161.9130  207.9090  151.8520 C   0  0  0  0  0  2  0  0  0  0  0  0
  161.5730  210.4990  152.9960 O   0  0  0  0  0  0  0  0  0  0  0  0
  160.5380  209.8240  152.7510 C   0  0  0  0  0  0  0  0  0  0  0  0
  160.6380  208.5160  152.1930 N   0  0  0  0  0  2  0  0  0  0  0  0
  159.1910  210.4070  153.0060 C   0  0  0  0  0  2  0  0  0  0  0  0
  159.3080  212.7220  153.8780 C   0  0  0  0  0  3  0  0  0  0  0  0
  159.2570  211.4120  154.1250 C   0  0  0  0  0  0  0  0  0  0  0  0
  159.0460  211.8790  156.5440 C   0  0  0  0  0  1  0  0  0  0  0  0
  159.2780  210.9900  155.4590 O   0  0  0  0  0  0  0  0  0  0  0  0
  159.2880  213.3040  152.4870 C   0  0  0  0  0  2  0  0  0  0  0  0
  156.1680  214.2380  152.9160 C   0  0  0  0  0  0  0  0  0  0  0  0
  154.9770  214.0570  153.7830 C   0  0  0  0  0  1  0  0  0  0  0  0
  157.4760  214.3940  151.1490 C   0  0  1  0  0  3  0  0  0  0  0  0
  157.8680  213.3980  150.0560 C   0  0  0  0  0  1  0  0  0  0  0  0
  156.1240  214.1480  151.6370 N   0  0  0  0  0  0  0  0  0  0  0  0
  158.3700  214.4510  152.3370 N   0  0  0  0  0  0  0  0  0  0  0  0
  157.4700  214.4520  153.4150 N   0  0  0  0  0  2  0  0  0  0  0  0
  1 13  1  0  0  0  0
  2 16  2  0  0  0  0
  3  9  1  0  0  0  0
  4 11  1  6  0  0  0
  4  3  1  0  0  0  0
  4 18  1  0  0  0  0
  6 15  1  0  0  0  0
  7 20  1  0  0  0  0
  8 14  2  0  0  0  0
  9  1  2  0  0  0  0
  9 12  1  0  0  0  0
 12 17  2  0  0  0  0
 13  5  2  0  0  0  0
 14 12  1  0  0  0  0
 14 22  1  0  0  0  0
 15 11  1  0  0  0  0
 16  6  1  0  0  0  0
 16  7  1  0  0  0  0
 17  5  1  0  0  0  0
 17 21  1  0  0  0  0
 18  1  1  0  0  0  0
 19  3  2  0  0  0  0
 19  8  1  0  0  0  0
 20 10  1  1  0  0  0
 20 19  1  0  0  0  0
 22 25  1  0  0  0  0
 24 23  2  0  0  0  0
 24 26  1  0  0  0  0
 25 24  1  0  0  0  0
 26 28  1  0  0  0  0
 27 28  2  0  0  0  0
 28 30  1  0  0  0  0
 30 29  1  0  0  0  0
 31 27  1  0  0  0  0
 32 38  1  0  0  0  0
 32 33  1  0  0  0  0
 34 35  1  6  0  0  0
 34 36  1  0  0  0  0
 34 37  1  0  0  0  0
 36 32  2  0  0  0  0
 37 31  1  0  0  0  0
 37 38  1  0  0  0  0
M  END
>  <MODEL>
9

>  <REMARK>
 VINA RESULT:      -7.9      4.673      6.753
  Name = 
  7 active torsions:
  status: ('A' for Active; 'I' for Inactive)
    1  A    between atoms: C_1  and  N_25
    2  A    between atoms: C_1  and  C_28
    3  A    between atoms: C_8  and  C_11
    4  A    between atoms: C_8  and  N_32
    5  A    between atoms: C_16  and  C_22
    6  A    between atoms: C_16  and  O_29
    7  A    between atoms: C_20  and  C_22
                            x       y       z     vdW  Elec       q    Type
                         _______ _______ _______ _____ _____    ______ ____

>  <TORSDO>
F 7

$$$$
