=
 OpenBabel11072411413D

 53 62  0  0  1  0  0  0  0  0999 V2000
  160.3210  208.4580  153.8330 C   0  0  0  0  0  0  0  0  0  0  0  0
  161.1850  206.6050  157.2610 O   0  0  0  0  0  0  0  0  0  0  0  0
  160.7250  210.4620  152.5910 C   0  0  2  0  0  3  0  0  0  0  0  0
  159.3560  207.5820  155.8780 C   0  0  1  0  0  3  0  0  0  0  0  0
  161.8990  206.0340  153.6570 C   0  0  0  0  0  2  0  0  0  0  0  0
  159.5680  211.4500  152.7930 C   0  0  1  0  0  3  0  0  0  0  0  0
  160.8790  211.3700  150.1650 C   0  0  0  0  0  2  0  0  0  0  0  0
  160.0330  212.8400  152.6910 N   0  0  0  0  0  0  0  0  0  0  0  0
  161.7020  206.8310  154.9540 C   0  0  1  0  0  3  0  0  0  0  0  0
  158.4760  211.1790  151.9530 O   0  0  0  0  0  1  0  0  0  0  0  0
  161.2770  206.8980  151.6890 C   0  0  1  0  0  3  0  0  0  0  0  0
  161.5200  210.5440  151.2770 C   0  0  2  0  0  3  0  0  0  0  0  0
  162.3330  206.8730  152.6160 O   0  0  0  0  0  0  0  0  0  0  0  0
  159.5950  208.3590  157.1560 C   0  0  0  0  0  2  0  0  0  0  0  0
  160.4890  207.7320  154.9000 C   0  0  0  0  0  0  0  0  0  0  0  0
  160.2850  209.0570  152.6760 C   0  0  0  0  0  0  0  0  0  0  0  0
  159.7980  206.8540  157.1660 C   0  0  2  0  0  3  0  0  0  0  0  0
  161.5610  205.8730  156.1260 C   0  0  0  0  0  2  0  0  0  0  0  0
  160.7420  208.3320  151.4460 C   0  0  1  0  0  3  0  0  0  0  0  0
  161.0240  212.8580  150.4420 C   0  0  0  0  0  2  0  0  0  0  0  0
  159.8930  213.3560  151.3300 C   0  0  0  0  0  2  0  0  0  0  0  0
  161.7440  209.1790  150.8020 N   0  0  0  0  0  2  0  0  0  0  0  0
  161.6610  206.1960  150.4200 C   0  0  0  0  0  0  0  0  0  0  0  0
  161.5050  203.8340  149.7690 C   0  0  0  0  0  3  0  0  0  0  0  0
  161.2360  203.8780  148.4630 C   0  0  0  0  0  0  0  0  0  0  0  0
  162.3260  204.8570  150.4750 C   0  0  0  0  0  2  0  0  0  0  0  0
  161.7570  206.2620  147.9260 C   0  0  0  0  0  3  0  0  0  0  0  0
  161.4730  206.8290  149.2600 C   0  0  0  0  0  3  0  0  0  0  0  0
  161.6990  204.9720  147.5570 C   0  0  0  0  0  0  0  0  0  0  0  0
  160.4820  202.8390  147.9310 O   0  0  0  0  0  1  0  0  0  0  0  0
  162.0290  204.7010  146.2230 O   0  0  0  0  0  0  0  0  0  0  0  0
  162.2350  205.7080  145.2420 C   0  0  0  0  0  2  0  0  0  0  0  0
  159.7460  205.7920  144.6000 C   0  0  0  0  0  2  0  0  0  0  0  0
  161.1750  205.5960  144.1650 C   0  0  0  0  0  0  0  0  0  0  0  0
  161.4730  206.1020  142.8370 N   0  0  0  0  0  1  0  0  0  0  0  0
  160.2510  204.4060  144.2040 C   0  0  0  0  0  2  0  0  0  0  0  0
  159.1830  213.6480  153.5520 C   0  0  0  0  0  2  0  0  0  0  0  0
  154.5220  213.9010  156.4710 C   0  0  0  0  0  1  0  0  0  0  0  0
  159.7120  213.9930  156.0330 C   0  0  2  0  0  3  0  0  0  0  0  0
  157.6800  212.5940  155.2780 C   0  0  0  0  0  0  0  0  0  0  0  0
  160.7910  212.9480  156.2740 C   0  0  0  0  0  2  0  0  0  0  0  0
  155.0440  211.5380  155.8590 C   0  0  2  0  0  3  0  0  0  0  0  0
  157.5250  214.4530  156.8650 C   0  0  0  0  0  2  0  0  0  0  0  0
  156.1850  210.6180  155.4410 C   0  0  0  0  0  2  0  0  0  0  0  0
  156.9130  213.2780  156.1590 C   0  0  0  0  0  0  0  0  0  0  0  0
  158.8940  214.1180  157.2450 N   0  0  0  0  0  2  0  0  0  0  0  0
  160.1410  212.0140  155.2600 C   0  0  0  0  0  2  0  0  0  0  0  0
  157.1360  211.3960  154.5480 C   0  0  0  0  0  2  0  0  0  0  0  0
  155.5480  212.7860  156.6040 C   0  0  1  0  0  3  0  0  0  0  0  0
  159.0860  213.0680  154.9690 C   0  0  1  0  0  0  0  0  0  0  0  0
  152.9460  211.4730  157.2600 N   0  0  0  0  0  1  0  0  0  0  0  0
  154.2110  209.5560  156.9170 O   0  0  0  0  0  0  0  0  0  0  0  0
  154.0570  210.7870  156.6950 C   0  0  0  0  0  0  0  0  0  0  0  0
  1 15  2  0  0  0  0
  3 16  1  6  0  0  0
  3  6  1  0  0  0  0
  4 14  1  1  0  0  0
  4 17  1  0  0  0  0
  6 10  1  6  0  0  0
  7 20  1  0  0  0  0
  8  6  1  0  0  0  0
  8 37  1  0  0  0  0
  9  5  1  6  0  0  0
  9 18  1  0  0  0  0
 11 23  1  6  0  0  0
 11 13  1  0  0  0  0
 12  7  1  6  0  0  0
 12  3  1  0  0  0  0
 13  5  1  0  0  0  0
 15  9  1  0  0  0  0
 15  4  1  0  0  0  0
 16  1  2  0  0  0  0
 17 14  1  1  0  0  0
 17  2  1  0  0  0  0
 18  2  1  0  0  0  0
 19 22  1  1  0  0  0
 19 11  1  0  0  0  0
 19 16  1  0  0  0  0
 20 21  1  0  0  0  0
 21  8  1  0  0  0  0
 22 12  1  0  0  0  0
 23 26  1  0  0  0  0
 24 26  1  0  0  0  0
 25 24  2  0  0  0  0
 27 28  1  0  0  0  0
 28 23  2  0  0  0  0
 29 27  2  0  0  0  0
 29 25  1  0  0  0  0
 30 25  1  0  0  0  0
 31 29  1  0  0  0  0
 32 31  1  0  0  0  0
 34 36  1  0  0  0  0
 34 33  1  0  0  0  0
 34 32  1  0  0  0  0
 35 34  1  0  0  0  0
 36 33  1  0  0  0  0
 39 41  1  1  0  0  0
 39 46  1  0  0  0  0
 40 45  2  0  0  0  0
 42 49  1  0  0  0  0
 42 53  1  1  0  0  0
 43 46  1  0  0  0  0
 44 42  1  0  0  0  0
 45 49  1  0  0  0  0
 45 43  1  0  0  0  0
 47 41  1  0  0  0  0
 48 40  1  0  0  0  0
 48 44  1  0  0  0  0
 49 38  1  6  0  0  0
 50 37  1  6  0  0  0
 50 47  1  0  0  0  0
 50 40  1  0  0  0  0
 50 39  1  0  0  0  0
 53 52  2  0  0  0  0
 53 51  1  0  0  0  0
M  END
>  <MODEL>
1

>  <REMARK>
 VINA RESULT:       2.3      0.000      0.000
  Name = 
  7 active torsions:
  status: ('A' for Active; 'I' for Inactive)
    1  A    between atoms: N_10  and  C_46
    2  A    between atoms: C_12  and  C_16
    3  A    between atoms: C_19  and  C_40
    4  A    between atoms: O_20  and  C_28
    5  A    between atoms: O_20  and  C_42
    6  A    between atoms: C_28  and  C_32
    7  A    between atoms: C_46  and  C_53
                            x       y       z     vdW  Elec       q    Type
                         _______ _______ _______ _____ _____    ______ ____

>  <TORSDO>
F 7

$$$$
=
 OpenBabel11072411413D

 53 62  0  0  1  0  0  0  0  0999 V2000
  159.8760  212.5660  150.1630 C   0  0  0  0  0  0  0  0  0  0  0  0
  156.4910  214.0500  151.6670 O   0  0  0  0  0  0  0  0  0  0  0  0
  161.0130  210.5190  149.6760 C   0  0  2  0  0  3  0  0  0  0  0  0
  158.9630  213.9210  151.9550 C   0  0  1  0  0  3  0  0  0  0  0  0
  158.1370  213.9900  148.3340 C   0  0  0  0  0  2  0  0  0  0  0  0
  161.9980  210.1810  150.8040 C   0  0  1  0  0  3  0  0  0  0  0  0
  162.7500  209.4790  148.0520 C   0  0  0  0  0  2  0  0  0  0  0  0
  162.1680  208.7290  150.9420 N   0  0  0  0  0  0  0  0  0  0  0  0
  157.6860  213.4600  149.7020 C   0  0  1  0  0  3  0  0  0  0  0  0
  163.2190  210.8620  150.6740 O   0  0  0  0  0  1  0  0  0  0  0  0
  160.1070  213.3730  147.4720 C   0  0  1  0  0  3  0  0  0  0  0  0
  161.3300  209.9960  148.2650 C   0  0  2  0  0  3  0  0  0  0  0  0
  158.7630  212.9770  147.5880 O   0  0  0  0  0  0  0  0  0  0  0  0
  158.2120  213.2080  153.0610 C   0  0  0  0  0  2  0  0  0  0  0  0
  158.8480  213.2060  150.6360 C   0  0  0  0  0  0  0  0  0  0  0  0
  160.8330  211.9730  149.5060 C   0  0  0  0  0  0  0  0  0  0  0  0
  157.5990  214.4530  152.4450 C   0  0  2  0  0  3  0  0  0  0  0  0
  156.7330  214.4530  150.3460 C   0  0  0  0  0  2  0  0  0  0  0  0
  161.0820  212.3260  148.0700 C   0  0  1  0  0  3  0  0  0  0  0  0
  162.9300  208.1100  148.6890 C   0  0  0  0  0  2  0  0  0  0  0  0
  163.3030  208.2410  150.1580 C   0  0  0  0  0  2  0  0  0  0  0  0
  161.0580  211.0740  147.3150 N   0  0  0  0  0  2  0  0  0  0  0  0
  160.4400  213.7360  146.0560 C   0  0  0  0  0  0  0  0  0  0  0  0
  162.4400  213.2970  144.7010 C   0  0  0  0  0  3  0  0  0  0  0  0
  161.9610  213.1210  143.4680 C   0  0  0  0  0  0  0  0  0  0  0  0
  161.8170  214.2050  145.7040 C   0  0  0  0  0  2  0  0  0  0  0  0
  159.6340  214.0000  143.7070 C   0  0  0  0  0  3  0  0  0  0  0  0
  159.4630  213.7120  145.1450 C   0  0  0  0  0  3  0  0  0  0  0  0
  160.7260  213.7880  142.9550 C   0  0  0  0  0  0  0  0  0  0  0  0
  162.6620  212.2650  142.6270 O   0  0  0  0  0  1  0  0  0  0  0  0
  160.6260  214.1620  141.6090 O   0  0  0  0  0  0  0  0  0  0  0  0
  159.6920  213.5940  140.7020 C   0  0  0  0  0  2  0  0  0  0  0  0
  161.7050  213.0550  139.1940 C   0  0  0  0  0  2  0  0  0  0  0  0
  160.3970  212.6070  139.7940 C   0  0  0  0  0  0  0  0  0  0  0  0
  160.3420  211.1930  140.1220 N   0  0  0  0  0  1  0  0  0  0  0  0
  160.4590  212.9200  138.3210 C   0  0  0  0  0  2  0  0  0  0  0  0
  162.4580  208.4550  152.3420 C   0  0  0  0  0  2  0  0  0  0  0  0
  160.6800  210.3850  157.1810 C   0  0  0  0  0  1  0  0  0  0  0  0
  161.6150  206.5310  153.8050 C   0  0  2  0  0  3  0  0  0  0  0  0
  160.5210  208.8650  153.9000 C   0  0  0  0  0  0  0  0  0  0  0  0
  160.7270  205.7630  152.8370 C   0  0  0  0  0  2  0  0  0  0  0  0
  158.9990  210.8300  155.3910 C   0  0  2  0  0  3  0  0  0  0  0  0
  161.3380  207.6740  155.8790 C   0  0  0  0  0  2  0  0  0  0  0  0
  158.5470  210.3680  154.0110 C   0  0  0  0  0  2  0  0  0  0  0  0
  160.5890  208.8140  155.2510 C   0  0  0  0  0  0  0  0  0  0  0  0
  161.0320  206.4480  155.1500 N   0  0  0  0  0  2  0  0  0  0  0  0
  160.3320  207.0590  152.1400 C   0  0  0  0  0  2  0  0  0  0  0  0
  159.7710  209.9700  153.2060 C   0  0  0  0  0  2  0  0  0  0  0  0
  159.7780  209.7370  156.1430 C   0  0  1  0  0  3  0  0  0  0  0  0
  161.2550  207.8350  153.0650 C   0  0  1  0  0  0  0  0  0  0  0  0
  156.5060  210.9390  155.7700 N   0  0  0  0  0  1  0  0  0  0  0  0
  157.9810  211.9810  157.2310 O   0  0  0  0  0  0  0  0  0  0  0  0
  157.8200  211.2830  156.1930 C   0  0  0  0  0  0  0  0  0  0  0  0
  1 15  2  0  0  0  0
  2 17  1  0  0  0  0
  3 16  1  6  0  0  0
  3  6  1  0  0  0  0
  4 17  1  0  0  0  0
  4 14  1  1  0  0  0
  6 10  1  6  0  0  0
  6  8  1  0  0  0  0
  7 20  1  0  0  0  0
  8 37  1  0  0  0  0
  9  5  1  6  0  0  0
  9 18  1  0  0  0  0
  9 15  1  0  0  0  0
 11 23  1  6  0  0  0
 11 13  1  0  0  0  0
 11 19  1  0  0  0  0
 12  7  1  1  0  0  0
 12  3  1  0  0  0  0
 13  5  1  0  0  0  0
 15  4  1  0  0  0  0
 16  1  2  0  0  0  0
 17 14  1  1  0  0  0
 18  2  1  0  0  0  0
 19 22  1  6  0  0  0
 19 16  1  0  0  0  0
 20 21  1  0  0  0  0
 21  8  1  0  0  0  0
 22 12  1  0  0  0  0
 24 26  1  0  0  0  0
 25 24  2  0  0  0  0
 26 23  1  0  0  0  0
 27 28  1  0  0  0  0
 28 23  2  0  0  0  0
 29 25  1  0  0  0  0
 29 27  2  0  0  0  0
 30 25  1  0  0  0  0
 31 29  1  0  0  0  0
 32 31  1  0  0  0  0
 33 34  1  0  0  0  0
 34 35  1  0  0  0  0
 34 32  1  0  0  0  0
 36 33  1  0  0  0  0
 36 34  1  0  0  0  0
 39 41  1  6  0  0  0
 39 46  1  0  0  0  0
 40 45  2  0  0  0  0
 42 49  1  0  0  0  0
 42 53  1  1  0  0  0
 44 42  1  0  0  0  0
 45 43  1  0  0  0  0
 45 49  1  0  0  0  0
 46 43  1  0  0  0  0
 47 41  1  0  0  0  0
 47 50  1  0  0  0  0
 48 40  1  0  0  0  0
 48 44  1  0  0  0  0
 49 38  1  1  0  0  0
 50 37  1  6  0  0  0
 50 39  1  0  0  0  0
 50 40  1  0  0  0  0
 51 53  1  0  0  0  0
 53 52  2  0  0  0  0
M  END
>  <MODEL>
2

>  <REMARK>
 VINA RESULT:       2.3      4.449      7.431
  Name = 
  7 active torsions:
  status: ('A' for Active; 'I' for Inactive)
    1  A    between atoms: N_10  and  C_46
    2  A    between atoms: C_12  and  C_16
    3  A    between atoms: C_19  and  C_40
    4  A    between atoms: O_20  and  C_28
    5  A    between atoms: O_20  and  C_42
    6  A    between atoms: C_28  and  C_32
    7  A    between atoms: C_46  and  C_53
                            x       y       z     vdW  Elec       q    Type
                         _______ _______ _______ _____ _____    ______ ____

>  <TORSDO>
F 7

$$$$
=
 OpenBabel11072411413D

 53 62  0  0  1  0  0  0  0  0999 V2000
  161.6070  209.1040  150.8470 C   0  0  0  0  0  0  0  0  0  0  0  0
  161.2000  211.3380  147.5650 O   0  0  0  0  0  0  0  0  0  0  0  0
  160.5400  208.5270  152.9080 C   0  0  2  0  0  3  0  0  0  0  0  0
  162.5890  210.9340  149.5950 C   0  0  1  0  0  3  0  0  0  0  0  0
  161.2620  207.7010  148.3350 C   0  0  0  0  0  2  0  0  0  0  0  0
  161.1240  209.3620  154.0570 C   0  0  1  0  0  3  0  0  0  0  0  0
  160.3180  206.5950  154.6270 C   0  0  0  0  0  2  0  0  0  0  0  0
  160.1230  209.5930  155.1070 N   0  0  0  0  0  0  0  0  0  0  0  0
  160.9320  209.1870  148.5350 C   0  0  1  0  0  3  0  0  0  0  0  0
  162.3230  208.8280  154.5550 O   0  0  0  0  0  1  0  0  0  0  0  0
  161.6940  206.3890  150.0950 C   0  0  1  0  0  3  0  0  0  0  0  0
  159.9600  207.1440  153.2480 C   0  0  2  0  0  3  0  0  0  0  0  0
  160.6450  206.9160  149.3230 O   0  0  0  0  0  0  0  0  0  0  0  0
  161.8800  212.2710  149.6350 C   0  0  0  0  0  2  0  0  0  0  0  0
  161.6350  209.7790  149.7350 C   0  0  0  0  0  0  0  0  0  0  0  0
  161.5280  208.2690  151.8440 C   0  0  0  0  0  0  0  0  0  0  0  0
  162.3450  211.7290  148.2950 C   0  0  2  0  0  3  0  0  0  0  0  0
  161.3220  209.9690  147.2900 C   0  0  0  0  0  2  0  0  0  0  0  0
  161.5860  206.7930  151.5880 C   0  0  1  0  0  3  0  0  0  0  0  0
  159.5130  207.2910  155.7140 C   0  0  0  0  0  2  0  0  0  0  0  0
  160.1970  208.5760  156.1550 C   0  0  0  0  0  2  0  0  0  0  0  0
  160.4070  206.2040  152.2210 N   0  0  0  0  0  2  0  0  0  0  0  0
  161.8130  204.9070  149.8990 C   0  0  0  0  0  0  0  0  0  0  0  0
  161.1330  203.0280  151.3260 C   0  0  0  0  0  3  0  0  0  0  0  0
  160.7600  202.0850  150.4590 C   0  0  0  0  0  0  0  0  0  0  0  0
  162.2020  204.0270  151.0460 C   0  0  0  0  0  2  0  0  0  0  0  0
  161.6920  202.9770  148.3200 C   0  0  0  0  0  3  0  0  0  0  0  0
  161.6490  204.4110  148.6700 C   0  0  0  0  0  3  0  0  0  0  0  0
  161.3460  201.9350  149.0930 C   0  0  0  0  0  0  0  0  0  0  0  0
  159.7690  201.2000  150.8660 O   0  0  0  0  0  1  0  0  0  0  0  0
  161.4910  200.6680  148.5150 O   0  0  0  0  0  0  0  0  0  0  0  0
  162.0820  200.4450  147.2430 C   0  0  0  0  0  2  0  0  0  0  0  0
  160.5950  201.4100  145.3790 C   0  0  0  0  0  2  0  0  0  0  0  0
  160.9980  200.2180  146.2090 C   0  0  0  0  0  0  0  0  0  0  0  0
  160.9640  198.9530  145.4970 N   0  0  0  0  0  1  0  0  0  0  0  0
  159.6520  200.8550  146.4450 C   0  0  0  0  0  2  0  0  0  0  0  0
  160.4270  210.8760  155.7240 C   0  0  0  0  0  2  0  0  0  0  0  0
  160.2260  214.4530  151.5440 C   0  0  0  0  0  1  0  0  0  0  0  0
  159.4100  213.0910  156.5040 C   0  0  2  0  0  3  0  0  0  0  0  0
  159.0190  212.2070  154.1130 C   0  0  0  0  0  0  0  0  0  0  0  0
  158.1750  212.6230  157.2610 C   0  0  0  0  0  2  0  0  0  0  0  0
  158.4040  212.7610  151.3350 C   0  0  2  0  0  3  0  0  0  0  0  0
  159.8650  214.4530  154.6010 C   0  0  0  0  0  2  0  0  0  0  0  0
  157.5800  211.7610  152.1390 C   0  0  0  0  0  2  0  0  0  0  0  0
  159.3380  213.4320  153.6340 C   0  0  0  0  0  0  0  0  0  0  0  0
  159.1050  214.3660  155.8440 N   0  0  0  0  0  2  0  0  0  0  0  0
  158.0090  211.4490  156.3040 C   0  0  0  0  0  2  0  0  0  0  0  0
  158.4690  211.1420  153.2030 C   0  0  0  0  0  2  0  0  0  0  0  0
  158.9970  213.8690  152.2210 C   0  0  1  0  0  3  0  0  0  0  0  0
  159.2700  211.8730  155.5700 C   0  0  1  0  0  0  0  0  0  0  0  0
  156.2820  213.8690  150.5360 N   0  0  0  0  0  1  0  0  0  0  0  0
  157.9990  213.3730  149.0530 O   0  0  0  0  0  0  0  0  0  0  0  0
  157.5720  213.3490  150.2400 C   0  0  0  0  0  0  0  0  0  0  0  0
  1 16  2  0  0  0  0
  2 17  1  0  0  0  0
  3 16  1  6  0  0  0
  3 12  1  0  0  0  0
  3  6  1  0  0  0  0
  4 14  1  1  0  0  0
  4 15  1  0  0  0  0
  5  9  1  0  0  0  0
  5 13  1  0  0  0  0
  6 10  1  1  0  0  0
  6  8  1  0  0  0  0
  7 20  1  0  0  0  0
  8 37  1  0  0  0  0
  8 21  1  0  0  0  0
  9 18  1  6  0  0  0
  9 15  1  0  0  0  0
 11 23  1  1  0  0  0
 11 19  1  0  0  0  0
 12  7  1  1  0  0  0
 13 11  1  0  0  0  0
 15  1  2  0  0  0  0
 17  4  1  0  0  0  0
 17 14  1  1  0  0  0
 18  2  1  0  0  0  0
 19 16  1  6  0  0  0
 19 22  1  0  0  0  0
 20 21  1  0  0  0  0
 22 12  1  0  0  0  0
 23 26  1  0  0  0  0
 25 30  1  0  0  0  0
 25 24  2  0  0  0  0
 26 24  1  0  0  0  0
 27 28  1  0  0  0  0
 27 29  2  0  0  0  0
 28 23  2  0  0  0  0
 29 25  1  0  0  0  0
 31 29  1  0  0  0  0
 32 31  1  0  0  0  0
 33 34  1  0  0  0  0
 33 36  1  0  0  0  0
 34 36  1  0  0  0  0
 34 32  1  0  0  0  0
 35 34  1  0  0  0  0
 39 41  1  1  0  0  0
 40 50  1  0  0  0  0
 42 53  1  6  0  0  0
 42 44  1  0  0  0  0
 42 49  1  0  0  0  0
 43 46  1  0  0  0  0
 44 48  1  0  0  0  0
 45 40  2  0  0  0  0
 45 43  1  0  0  0  0
 46 39  1  0  0  0  0
 47 41  1  0  0  0  0
 48 40  1  0  0  0  0
 49 38  1  6  0  0  0
 49 45  1  0  0  0  0
 50 37  1  1  0  0  0
 50 47  1  0  0  0  0
 50 39  1  0  0  0  0
 52 53  2  0  0  0  0
 53 51  1  0  0  0  0
M  END
>  <MODEL>
3

>  <REMARK>
 VINA RESULT:       2.7      2.870      5.303
  Name = 
  7 active torsions:
  status: ('A' for Active; 'I' for Inactive)
    1  A    between atoms: N_10  and  C_46
    2  A    between atoms: C_12  and  C_16
    3  A    between atoms: C_19  and  C_40
    4  A    between atoms: O_20  and  C_28
    5  A    between atoms: O_20  and  C_42
    6  A    between atoms: C_28  and  C_32
    7  A    between atoms: C_46  and  C_53
                            x       y       z     vdW  Elec       q    Type
                         _______ _______ _______ _____ _____    ______ ____

>  <TORSDO>
F 7

$$$$
