=
 OpenBabel11072409553D

 48 54  0  0  1  0  0  0  0  0999 V2000
  156.9600  214.1820  153.2440 N   0  0  0  0  0  0  0  0  0  0  0  0
  160.7600  211.9140  151.9050 C   0  0  0  0  0  2  0  0  0  0  0  0
  157.7650  214.4360  155.6670 C   0  0  0  0  0  3  0  0  0  0  0  0
  158.7390  213.6320  156.5300 C   0  0  0  0  0  3  0  0  0  0  0  0
  156.7110  214.0030  149.7220 C   0  0  0  0  0  3  0  0  0  0  0  0
  156.4620  214.4520  150.9240 N   0  0  0  0  0  0  0  0  0  0  0  0
  158.6530  213.6450  151.6950 C   0  0  0  0  0  2  0  0  0  0  0  0
  159.8930  211.3950  156.2200 C   0  0  0  0  0  0  0  0  0  0  0  0
  157.8970  213.0940  149.4250 C   0  0  2  0  0  3  0  0  0  0  0  0
  158.4840  212.5750  154.4420 C   0  0  0  0  0  0  0  0  0  0  0  0
  159.0550  212.4540  155.7410 N   0  0  0  0  0  0  0  0  0  0  0  0
  159.9650  214.2830  148.4670 C   0  0  0  0  0  2  0  0  0  0  0  0
  158.4470  209.6160  155.6460 O   0  0  0  0  0  0  0  0  0  0  0  0
  158.5990  211.4870  153.3860 C   0  0  0  0  0  2  0  0  0  0  0  0
  161.0870  211.6700  156.8240 N   0  0  0  0  0  0  0  0  0  0  0  0
  157.3610  214.1830  152.0060 C   0  0  0  0  0  0  0  0  0  0  0  0
  161.6470  210.1530  157.1800 S   0  0  0  0  0  0  0  0  0  0  0  0
  160.4510  209.1590  156.6420 N   0  0  0  0  0  0  0  0  0  0  0  0
  161.1530  213.3670  148.8740 C   0  0  1  0  0  3  0  0  0  0  0  0
  159.9660  211.9650  150.5650 C   0  0  2  0  0  3  0  0  0  0  0  0
  160.7590  212.0000  149.3090 N   0  0  0  0  0  0  0  0  0  0  0  0
  160.0490  211.0880  153.0080 C   0  0  0  0  0  2  0  0  0  0  0  0
  157.7410  213.6990  154.3700 C   0  0  0  0  0  0  0  0  0  0  0  0
  158.8440  212.9620  150.5890 C   0  0  2  0  0  3  0  0  0  0  0  0
  159.5370  210.0170  156.1330 C   0  0  0  0  0  0  0  0  0  0  0  0
  158.6520  213.5370  148.1600 C   0  0  0  0  0  2  0  0  0  0  0  0
  161.7140  207.2270  156.9250 O   0  0  0  0  0  1  0  0  0  0  0  0
  160.4370  207.7070  156.6390 C   0  0  0  0  0  2  0  0  0  0  0  0
  162.1620  213.3490  147.7100 C   0  0  0  0  0  2  0  0  0  0  0  0
  162.7210  214.4530  145.7290 C   0  0  0  0  0  2  0  0  0  0  0  0
  162.5970  214.0700  144.3840 O   0  0  0  0  0  0  0  0  0  0  0  0
  161.6000  213.9320  146.4970 N   0  0  0  0  0  0  0  0  0  0  0  0
  161.0840  212.8550  145.6840 C   0  0  0  0  0  2  0  0  0  0  0  0
  161.8930  212.8640  144.4190 C   0  0  1  0  0  3  0  0  0  0  0  0
  160.9830  212.7640  143.2410 C   0  0  0  0  0  3  0  0  0  0  0  0
  160.6230  211.6720  142.8330 O   0  0  0  0  0  0  0  0  0  0  0  0
  161.9390  211.1460  149.4640 C   0  0  0  0  0  2  0  0  0  0  0  0
  161.8440  209.9450  148.5370 C   0  0  0  0  0  2  0  0  0  0  0  0
  161.7460  208.9130  150.7810 C   0  0  0  0  0  2  0  0  0  0  0  0
  162.0660  207.6790  151.6270 C   0  0  1  0  0  3  0  0  0  0  0  0
  161.5440  207.1910  147.5050 F   0  0  0  0  0  0  0  0  0  0  0  0
  161.4190  207.8340  152.9910 C   0  0  0  0  0  1  0  0  0  0  0  0
  161.6580  206.3720  150.9720 C   0  0  0  0  0  0  0  0  0  0  0  0
  162.0880  208.6660  149.3170 C   0  0  1  0  0  3  0  0  0  0  0  0
  161.2010  207.5300  148.8010 C   0  0  2  0  0  3  0  0  0  0  0  0
  161.3200  206.3100  149.6720 C   0  0  0  0  0  3  0  0  0  0  0  0
  160.7630  204.2150  151.3840 O   0  0  0  0  0  1  0  0  0  0  0  0
  161.7870  205.0930  151.7390 C   0  0  0  0  0  2  0  0  0  0  0  0
  1 23  1  0  0  0  0
  2 22  1  0  0  0  0
  3  4  2  0  0  0  0
  5  6  2  0  0  0  0
  6 16  1  0  0  0  0
  7 16  1  0  0  0  0
  8 15  2  0  0  0  0
  9 26  1  6  0  0  0
  9  5  1  0  0  0  0
  9 24  1  0  0  0  0
 10 11  1  0  0  0  0
 11  8  1  0  0  0  0
 11  4  1  0  0  0  0
 12 19  1  0  0  0  0
 13 25  2  0  0  0  0
 14 10  1  0  0  0  0
 15 17  1  0  0  0  0
 16  1  2  0  0  0  0
 18 17  1  0  0  0  0
 19 29  1  6  0  0  0
 19 21  1  0  0  0  0
 20 24  1  0  0  0  0
 20  2  1  1  0  0  0
 21 37  1  0  0  0  0
 21 20  1  0  0  0  0
 22 14  1  0  0  0  0
 23 10  2  0  0  0  0
 23  3  1  0  0  0  0
 24  7  1  1  0  0  0
 25  8  1  0  0  0  0
 25 18  1  0  0  0  0
 26 12  1  0  0  0  0
 28 18  1  0  0  0  0
 28 27  1  0  0  0  0
 30 32  1  0  0  0  0
 31 34  1  0  0  0  0
 31 30  1  0  0  0  0
 32 29  1  0  0  0  0
 33 32  1  0  0  0  0
 34 35  1  6  0  0  0
 34 33  1  0  0  0  0
 36 35  2  0  0  0  0
 38 37  1  0  0  0  0
 39 40  1  0  0  0  0
 40 42  1  1  0  0  0
 43 40  1  0  0  0  0
 43 48  1  0  0  0  0
 44 38  1  6  0  0  0
 44 39  1  0  0  0  0
 45 41  1  6  0  0  0
 45 44  1  0  0  0  0
 45 46  1  0  0  0  0
 46 43  2  0  0  0  0
 47 48  1  0  0  0  0
M  END
>  <MODEL>
1

>  <REMARK>
 VINA RESULT:      -6.2      0.000      0.000
  Name = 
  8 active torsions:
  status: ('A' for Active; 'I' for Inactive)
    1  A    between atoms: C_2  and  C_42
    2  A    between atoms: C_16  and  N_28
    3  A    between atoms: C_16  and  C_33
    4  A    between atoms: C_21  and  C_23
    5  A    between atoms: C_21  and  N_37
    6  A    between atoms: C_23  and  C_29
    7  A    between atoms: C_27  and  C_40
    8  A    between atoms: N_32  and  C_38
                            x       y       z     vdW  Elec       q    Type
                         _______ _______ _______ _____ _____    ______ ____

>  <TORSDO>
F 8

$$$$
=
 OpenBabel11072409553D

 48 54  0  0  1  0  0  0  0  0999 V2000
  159.1470  212.7570  155.8150 N   0  0  0  0  0  0  0  0  0  0  0  0
  159.9270  209.7490  152.3920 C   0  0  0  0  0  2  0  0  0  0  0  0
  157.1730  213.8700  154.6090 C   0  0  0  0  0  3  0  0  0  0  0  0
  156.7930  213.9980  153.1330 C   0  0  0  0  0  3  0  0  0  0  0  0
  161.5050  210.4790  157.1360 C   0  0  0  0  0  3  0  0  0  0  0  0
  160.5750  211.3960  157.1600 N   0  0  0  0  0  0  0  0  0  0  0  0
  159.7500  210.6410  154.9710 C   0  0  0  0  0  2  0  0  0  0  0  0
  158.0240  213.4920  150.9740 C   0  0  0  0  0  0  0  0  0  0  0  0
  161.8120  209.6690  155.8820 C   0  0  2  0  0  3  0  0  0  0  0  0
  158.8820  212.9280  153.3160 C   0  0  0  0  0  0  0  0  0  0  0  0
  157.9420  213.4870  152.4050 N   0  0  0  0  0  0  0  0  0  0  0  0
  160.7280  207.3390  155.8000 C   0  0  0  0  0  2  0  0  0  0  0  0
  160.1800  214.4500  150.8240 O   0  0  0  0  0  0  0  0  0  0  0  0
  160.2140  212.3430  152.8720 C   0  0  0  0  0  2  0  0  0  0  0  0
  156.9780  213.0530  150.2140 N   0  0  0  0  0  0  0  0  0  0  0  0
  159.7310  211.6130  156.0250 C   0  0  0  0  0  0  0  0  0  0  0  0
  157.5610  213.2600  148.6780 S   0  0  0  0  0  0  0  0  0  0  0  0
  159.0570  213.9030  148.9120 N   0  0  0  0  0  0  0  0  0  0  0  0
  160.6130  207.0270  154.2820 C   0  0  1  0  0  3  0  0  0  0  0  0
  161.0320  209.3270  153.4060 C   0  0  2  0  0  3  0  0  0  0  0  0
  161.4420  207.8980  153.4070 N   0  0  0  0  0  0  0  0  0  0  0  0
  160.1140  211.1870  151.8440 C   0  0  0  0  0  2  0  0  0  0  0  0
  158.4700  213.1320  154.5850 C   0  0  0  0  0  0  0  0  0  0  0  0
  160.8050  209.8810  154.7820 C   0  0  2  0  0  3  0  0  0  0  0  0
  159.1600  213.9720  150.2590 C   0  0  0  0  0  0  0  0  0  0  0  0
  161.9640  208.1710  156.1940 C   0  0  0  0  0  2  0  0  0  0  0  0
  160.7730  213.0810  147.5740 O   0  0  0  0  0  1  0  0  0  0  0  0
  160.0520  214.2280  147.9050 C   0  0  0  0  0  2  0  0  0  0  0  0
  160.9130  205.5290  154.0790 C   0  0  0  0  0  2  0  0  0  0  0  0
  162.3420  204.7020  152.4260 C   0  0  0  0  0  2  0  0  0  0  0  0
  162.3040  203.5180  151.6720 O   0  0  0  0  0  0  0  0  0  0  0  0
  160.9890  205.1800  152.6650 N   0  0  0  0  0  0  0  0  0  0  0  0
  160.1600  204.0160  152.4500 C   0  0  0  0  0  2  0  0  0  0  0  0
  161.0860  202.9220  152.0030 C   0  0  1  0  0  3  0  0  0  0  0  0
  160.5090  202.2330  150.8120 C   0  0  0  0  0  3  0  0  0  0  0  0
  161.2230  201.5620  150.0840 O   0  0  0  0  0  0  0  0  0  0  0  0
  161.4400  207.4000  152.0290 C   0  0  0  0  0  2  0  0  0  0  0  0
  162.3390  208.2610  151.1580 C   0  0  0  0  0  2  0  0  0  0  0  0
  161.7150  206.3310  149.7440 C   0  0  0  0  0  2  0  0  0  0  0  0
  161.8360  205.6720  148.3690 C   0  0  1  0  0  3  0  0  0  0  0  0
  162.3240  209.8180  148.6440 F   0  0  0  0  0  0  0  0  0  0  0  0
  160.8780  204.4960  148.3000 C   0  0  0  0  0  1  0  0  0  0  0  0
  161.6100  206.6320  147.2150 C   0  0  0  0  0  0  0  0  0  0  0  0
  162.4010  207.6910  149.7520 C   0  0  1  0  0  3  0  0  0  0  0  0
  161.6760  208.6010  148.7570 C   0  0  2  0  0  3  0  0  0  0  0  0
  161.5940  207.9630  147.3980 C   0  0  0  0  0  3  0  0  0  0  0  0
  160.2580  206.1510  145.3270 O   0  0  0  0  0  1  0  0  0  0  0  0
  161.5640  206.1010  145.8160 C   0  0  0  0  0  2  0  0  0  0  0  0
  1 16  2  0  0  0  0
  4  3  2  0  0  0  0
  5  6  2  0  0  0  0
  7 16  1  0  0  0  0
  8 11  1  0  0  0  0
  9 26  1  1  0  0  0
  9  5  1  0  0  0  0
 10 23  2  0  0  0  0
 11  4  1  0  0  0  0
 11 10  1  0  0  0  0
 12 26  1  0  0  0  0
 14 10  1  0  0  0  0
 15  8  2  0  0  0  0
 16  6  1  0  0  0  0
 17 18  1  0  0  0  0
 17 15  1  0  0  0  0
 18 25  1  0  0  0  0
 19 29  1  1  0  0  0
 19 12  1  0  0  0  0
 20  2  1  6  0  0  0
 20 21  1  0  0  0  0
 20 24  1  0  0  0  0
 21 19  1  0  0  0  0
 22  2  1  0  0  0  0
 22 14  1  0  0  0  0
 23  3  1  0  0  0  0
 23  1  1  0  0  0  0
 24  7  1  6  0  0  0
 24  9  1  0  0  0  0
 25 13  2  0  0  0  0
 25  8  1  0  0  0  0
 27 28  1  0  0  0  0
 28 18  1  0  0  0  0
 30 32  1  0  0  0  0
 31 34  1  0  0  0  0
 31 30  1  0  0  0  0
 32 29  1  0  0  0  0
 33 32  1  0  0  0  0
 34 35  1  6  0  0  0
 34 33  1  0  0  0  0
 36 35  2  0  0  0  0
 37 21  1  0  0  0  0
 38 37  1  0  0  0  0
 39 44  1  0  0  0  0
 40 42  1  1  0  0  0
 40 39  1  0  0  0  0
 43 46  2  0  0  0  0
 43 40  1  0  0  0  0
 44 38  1  1  0  0  0
 45 41  1  6  0  0  0
 45 44  1  0  0  0  0
 46 45  1  0  0  0  0
 47 48  1  0  0  0  0
 48 43  1  0  0  0  0
M  END
>  <MODEL>
2

>  <REMARK>
 VINA RESULT:      -4.8      2.833      7.411
  Name = 
  8 active torsions:
  status: ('A' for Active; 'I' for Inactive)
    1  A    between atoms: C_2  and  C_42
    2  A    between atoms: C_16  and  N_28
    3  A    between atoms: C_16  and  C_33
    4  A    between atoms: C_21  and  C_23
    5  A    between atoms: C_21  and  N_37
    6  A    between atoms: C_23  and  C_29
    7  A    between atoms: C_27  and  C_40
    8  A    between atoms: N_32  and  C_38
                            x       y       z     vdW  Elec       q    Type
                         _______ _______ _______ _____ _____    ______ ____

>  <TORSDO>
F 8

$$$$
=
 OpenBabel11072409553D

 48 54  0  0  1  0  0  0  0  0999 V2000
  158.6040  212.7410  154.2160 N   0  0  0  0  0  0  0  0  0  0  0  0
  160.6690  209.7060  151.4060 C   0  0  0  0  0  2  0  0  0  0  0  0
  157.1150  213.6990  152.3580 C   0  0  0  0  0  3  0  0  0  0  0  0
  157.2620  213.7680  150.8370 C   0  0  0  0  0  3  0  0  0  0  0  0
  160.4720  210.6470  156.3660 C   0  0  0  0  0  3  0  0  0  0  0  0
  159.5460  211.5050  156.0290 N   0  0  0  0  0  0  0  0  0  0  0  0
  159.5670  210.6480  153.7250 C   0  0  0  0  0  2  0  0  0  0  0  0
  159.1870  213.2880  149.2570 C   0  0  0  0  0  0  0  0  0  0  0  0
  161.2350  209.8290  155.3310 C   0  0  2  0  0  3  0  0  0  0  0  0
  159.2100  212.8350  151.7740 C   0  0  0  0  0  0  0  0  0  0  0  0
  158.6160  213.3120  150.5710 N   0  0  0  0  0  0  0  0  0  0  0  0
  160.3640  207.4340  154.9840 C   0  0  0  0  0  2  0  0  0  0  0  0
  161.2100  214.3750  149.8140 O   0  0  0  0  0  0  0  0  0  0  0  0
  160.6410  212.3240  151.8400 C   0  0  0  0  0  2  0  0  0  0  0  0
  158.4910  212.7660  148.2040 N   0  0  0  0  0  0  0  0  0  0  0  0
  159.1360  211.6420  154.6640 C   0  0  0  0  0  0  0  0  0  0  0  0
  159.5570  212.9720  146.9540 S   0  0  0  0  0  0  0  0  0  0  0  0
  160.8460  213.7130  147.6590 N   0  0  0  0  0  0  0  0  0  0  0  0
  160.7960  207.0790  153.5350 C   0  0  1  0  0  3  0  0  0  0  0  0
  161.3760  209.3790  152.7560 C   0  0  2  0  0  3  0  0  0  0  0  0
  161.8310  207.9790  152.9600 N   0  0  0  0  0  0  0  0  0  0  0  0
  160.9610  211.1400  150.8920 C   0  0  0  0  0  2  0  0  0  0  0  0
  158.3750  213.0430  152.8130 C   0  0  0  0  0  0  0  0  0  0  0  0
  160.6600  209.9510  153.9440 C   0  0  2  0  0  3  0  0  0  0  0  0
  160.4740  213.8210  148.9550 C   0  0  0  0  0  0  0  0  0  0  0  0
  161.3450  208.3510  155.7420 C   0  0  0  0  0  2  0  0  0  0  0  0
  162.9730  212.9800  147.0670 O   0  0  0  0  0  1  0  0  0  0  0  0
  162.1100  214.0750  147.0420 C   0  0  0  0  0  2  0  0  0  0  0  0
  161.2230  205.5990  153.5130 C   0  0  0  0  0  2  0  0  0  0  0  0
  162.5310  204.3770  152.0110 C   0  0  0  0  0  2  0  0  0  0  0  0
  162.3310  203.1240  151.4100 O   0  0  0  0  0  0  0  0  0  0  0  0
  161.2570  205.0650  152.1560 N   0  0  0  0  0  0  0  0  0  0  0  0
  160.2740  204.0100  152.0690 C   0  0  0  0  0  2  0  0  0  0  0  0
  161.0390  202.7500  151.7850 C   0  0  1  0  0  3  0  0  0  0  0  0
  160.3780  202.0020  150.6760 C   0  0  0  0  0  3  0  0  0  0  0  0
  160.9950  201.1520  150.0540 O   0  0  0  0  0  0  0  0  0  0  0  0
  162.3310  207.4480  151.6880 C   0  0  0  0  0  2  0  0  0  0  0  0
  161.2080  207.3870  150.6670 C   0  0  0  0  0  2  0  0  0  0  0  0
  161.2850  205.4530  149.1290 C   0  0  0  0  0  2  0  0  0  0  0  0
  161.8780  204.8760  147.8420 C   0  0  1  0  0  3  0  0  0  0  0  0
  161.6810  209.0350  148.2590 F   0  0  0  0  0  0  0  0  0  0  0  0
  161.1530  203.5870  147.5000 C   0  0  0  0  0  1  0  0  0  0  0  0
  161.8530  205.8460  146.6740 C   0  0  0  0  0  0  0  0  0  0  0  0
  161.7420  206.8910  149.3350 C   0  0  1  0  0  3  0  0  0  0  0  0
  161.2060  207.7380  148.1780 C   0  0  2  0  0  3  0  0  0  0  0  0
  161.6000  207.1540  146.8500 C   0  0  0  0  0  3  0  0  0  0  0  0
  161.2060  205.4530  144.4280 O   0  0  0  0  0  1  0  0  0  0  0  0
  162.2770  205.3750  145.3190 C   0  0  0  0  0  2  0  0  0  0  0  0
  1 16  2  0  0  0  0
  3 23  1  0  0  0  0
  4  3  2  0  0  0  0
  6  5  2  0  0  0  0
  7 16  1  0  0  0  0
  8 11  1  0  0  0  0
  9 26  1  1  0  0  0
  9  5  1  0  0  0  0
 10 14  1  0  0  0  0
 10 23  2  0  0  0  0
 11  4  1  0  0  0  0
 11 10  1  0  0  0  0
 12 26  1  0  0  0  0
 15  8  2  0  0  0  0
 16  6  1  0  0  0  0
 17 18  1  0  0  0  0
 17 15  1  0  0  0  0
 18 25  1  0  0  0  0
 19 29  1  1  0  0  0
 19 12  1  0  0  0  0
 20  2  1  6  0  0  0
 20 21  1  0  0  0  0
 20 24  1  0  0  0  0
 21 19  1  0  0  0  0
 22  2  1  0  0  0  0
 22 14  1  0  0  0  0
 23  1  1  0  0  0  0
 24  7  1  6  0  0  0
 24  9  1  0  0  0  0
 25  8  1  0  0  0  0
 25 13  2  0  0  0  0
 28 27  1  0  0  0  0
 28 18  1  0  0  0  0
 30 32  1  0  0  0  0
 31 34  1  0  0  0  0
 31 30  1  0  0  0  0
 32 29  1  0  0  0  0
 33 32  1  0  0  0  0
 34 35  1  6  0  0  0
 34 33  1  0  0  0  0
 36 35  2  0  0  0  0
 37 21  1  0  0  0  0
 38 37  1  0  0  0  0
 39 44  1  0  0  0  0
 40 42  1  6  0  0  0
 40 39  1  0  0  0  0
 43 46  2  0  0  0  0
 43 40  1  0  0  0  0
 44 38  1  1  0  0  0
 45 41  1  1  0  0  0
 45 44  1  0  0  0  0
 46 45  1  0  0  0  0
 47 48  1  0  0  0  0
 48 43  1  0  0  0  0
M  END
>  <MODEL>
3

>  <REMARK>
 VINA RESULT:      -4.6      2.882      7.557
  Name = 
  8 active torsions:
  status: ('A' for Active; 'I' for Inactive)
    1  A    between atoms: C_2  and  C_42
    2  A    between atoms: C_16  and  N_28
    3  A    between atoms: C_16  and  C_33
    4  A    between atoms: C_21  and  C_23
    5  A    between atoms: C_21  and  N_37
    6  A    between atoms: C_23  and  C_29
    7  A    between atoms: C_27  and  C_40
    8  A    between atoms: N_32  and  C_38
                            x       y       z     vdW  Elec       q    Type
                         _______ _______ _______ _____ _____    ______ ____

>  <TORSDO>
F 8

$$$$
