=
 OpenBabel11072413273D

 41 45  0  0  1  0  0  0  0  0999 V2000
  160.8620  205.9850  154.2030 O   0  0  0  0  0  0  0  0  0  0  0  0
  161.5640  209.4930  151.3510 N   0  0  0  0  0  2  0  0  0  0  0  0
  161.3570  206.8250  152.2560 C   0  0  0  0  0  0  0  0  0  0  0  0
  160.8120  207.2950  154.3430 C   0  0  0  0  0  3  0  0  0  0  0  0
  161.1920  205.6570  152.9700 C   0  0  0  0  0  3  0  0  0  0  0  0
  161.3380  209.2890  152.7820 C   0  0  2  0  0  3  0  0  0  0  0  0
  161.9440  208.4390  150.4510 C   0  0  0  0  0  0  0  0  0  0  0  0
  161.0940  207.8540  153.1160 C   0  0  0  0  0  0  0  0  0  0  0  0
  161.7980  206.9790  150.8320 C   0  0  2  0  0  3  0  0  0  0  0  0
  162.3870  208.7380  149.3120 O   0  0  0  0  0  0  0  0  0  0  0  0
  160.6370  211.1980  155.7560 C   0  0  1  0  0  3  0  0  0  0  0  0
  158.4700  210.6050  154.9270 O   0  0  0  0  0  0  0  0  0  0  0  0
  160.5430  209.7000  156.0240 C   0  0  2  0  0  0  0  0  0  0  0  0
  157.8670  211.5110  154.0420 C   0  0  0  0  0  0  0  0  0  0  0  0
  158.4410  211.7460  152.8420 C   0  0  0  0  0  0  0  0  0  0  0  0
  162.8830  210.3430  156.0180 C   0  0  0  0  0  2  0  0  0  0  0  0
  159.6640  211.0030  152.4700 C   0  0  0  0  0  3  0  0  0  0  0  0
  159.7040  209.4210  157.2580 C   0  0  0  0  0  1  0  0  0  0  0  0
  160.3420  210.2630  153.3530 C   0  0  0  0  0  0  0  0  0  0  0  0
  161.9580  209.1500  155.9910 C   0  0  0  0  0  2  0  0  0  0  0  0
  162.0880  211.4650  155.3950 C   0  0  0  0  0  2  0  0  0  0  0  0
  159.8540  210.2920  154.7960 C   0  0  2  0  0  0  0  0  0  0  0  0
  157.8840  212.6860  151.8510 C   0  0  0  0  0  3  0  0  0  0  0  0
  158.6000  213.3820  150.9640 C   0  0  0  0  0  3  0  0  0  0  0  0
  160.0240  213.3280  150.9260 N   0  0  0  0  0  2  0  0  0  0  0  0
  160.7150  213.3060  149.6520 C   0  0  0  0  0  1  0  0  0  0  0  0
  156.6960  212.1750  154.4170 O   0  0  0  0  0  0  0  0  0  0  0  0
  156.6760  213.1270  155.4730 C   0  0  0  0  0  2  0  0  0  0  0  0
  155.8030  211.4670  156.9350 O   0  0  0  0  0  1  0  0  0  0  0  0
  155.5980  212.7690  156.4790 C   0  0  0  0  0  2  0  0  0  0  0  0
  160.7950  206.2850  149.9170 C   0  0  0  0  0  2  0  0  0  0  0  0
  161.4710  205.2280  149.0480 C   0  0  2  0  0  3  0  0  0  0  0  0
  161.3980  205.6040  147.6030 C   0  0  0  0  0  0  0  0  0  0  0  0
  160.4500  206.3310  147.2030 O   0  0  0  0  0  0  0  0  0  0  0  0
  162.3990  205.1530  146.6880 N   0  0  0  0  0  2  0  0  0  0  0  0
  162.3640  205.4990  145.2770 C   0  0  0  0  0  1  0  0  0  0  0  0
  160.8960  203.8670  149.2820 C   0  0  0  0  0  0  0  0  0  0  0  0
  160.9680  202.8930  148.2410 N   0  0  0  0  0  2  0  0  0  0  0  0
  160.3520  203.5850  150.3850 O   0  0  0  0  0  0  0  0  0  0  0  0
  161.5720  200.5680  148.5510 C   0  0  0  0  0  1  0  0  0  0  0  0
  160.4310  201.5520  148.4040 C   0  0  0  0  0  2  0  0  0  0  0  0
  1  4  1  0  0  0  0
  2  6  1  0  0  0  0
  3  5  2  0  0  0  0
  3  8  1  0  0  0  0
  5  1  1  0  0  0  0
  6  8  1  0  0  0  0
  6 19  1  6  0  0  0
  7  9  1  0  0  0  0
  7  2  1  0  0  0  0
  8  4  2  0  0  0  0
  9 31  1  6  0  0  0
  9  3  1  0  0  0  0
 10  7  2  0  0  0  0
 11 21  1  6  0  0  0
 11 13  1  0  0  0  0
 13 18  1  1  0  0  0
 14 27  1  0  0  0  0
 14 12  1  0  0  0  0
 15 14  2  0  0  0  0
 17 15  1  0  0  0  0
 17 19  2  0  0  0  0
 20 16  1  0  0  0  0
 20 13  1  0  0  0  0
 21 16  1  0  0  0  0
 22 19  1  6  0  0  0
 22 12  1  0  0  0  0
 22 11  1  0  0  0  0
 22 13  1  0  0  0  0
 23 15  1  0  0  0  0
 24 23  2  0  0  0  0
 25 24  1  0  0  0  0
 26 25  1  0  0  0  0
 27 28  1  0  0  0  0
 28 30  1  0  0  0  0
 30 29  1  0  0  0  0
 32 37  1  0  0  0  0
 32 31  1  1  0  0  0
 33 32  1  0  0  0  0
 34 33  2  0  0  0  0
 35 33  1  0  0  0  0
 36 35  1  0  0  0  0
 37 39  2  0  0  0  0
 38 41  1  0  0  0  0
 38 37  1  0  0  0  0
 41 40  1  0  0  0  0
M  END
>  <MODEL>
1

>  <REMARK>
 VINA RESULT:      -7.7      0.000      0.000
  Name = 
  11 active torsions:
  status: ('A' for Active; 'I' for Inactive)
    1  A    between atoms: C_2  and  C_25
    2  A    between atoms: C_5  and  C_12
    3  A    between atoms: N_10  and  C_22
    4  A    between atoms: C_12  and  O_16
    5  A    between atoms: C_13  and  O_16
    6  A    between atoms: C_14  and  C_18
    7  A    between atoms: C_17  and  C_25
    8  A    between atoms: C_17  and  C_40
    9  A    between atoms: C_20  and  C_25
   10  A    between atoms: C_21  and  N_30
   11  A    between atoms: C_28  and  C_33
                            x       y       z     vdW  Elec       q    Type
                         _______ _______ _______ _____ _____    ______ ____

>  <TORSDO>
F 11

$$$$
=
 OpenBabel11072413273D

 41 45  0  0  1  0  0  0  0  0999 V2000
  160.9080  205.6080  153.7650 O   0  0  0  0  0  0  0  0  0  0  0  0
  161.5740  209.4160  151.3180 N   0  0  0  0  0  2  0  0  0  0  0  0
  161.3990  206.6620  151.9250 C   0  0  0  0  0  0  0  0  0  0  0  0
  160.8400  206.8930  154.0470 C   0  0  0  0  0  3  0  0  0  0  0  0
  161.2480  205.4210  152.5050 C   0  0  0  0  0  3  0  0  0  0  0  0
  161.3450  209.0530  152.7170 C   0  0  2  0  0  3  0  0  0  0  0  0
  161.9710  208.4720  150.3100 C   0  0  0  0  0  0  0  0  0  0  0  0
  161.1190  207.5880  152.8900 C   0  0  0  0  0  0  0  0  0  0  0  0
  161.8440  206.9780  150.5280 C   0  0  2  0  0  3  0  0  0  0  0  0
  162.4140  208.9010  149.2130 O   0  0  0  0  0  0  0  0  0  0  0  0
  160.6610  210.7010  155.8480 C   0  0  1  0  0  3  0  0  0  0  0  0
  158.4940  210.1010  155.0260 O   0  0  0  0  0  0  0  0  0  0  0  0
  160.6230  209.1840  156.0000 C   0  0  2  0  0  0  0  0  0  0  0  0
  157.8390  211.0520  154.2290 C   0  0  0  0  0  0  0  0  0  0  0  0
  158.3740  211.3990  153.0390 C   0  0  0  0  0  0  0  0  0  0  0  0
  162.9390  209.9040  155.9890 C   0  0  0  0  0  2  0  0  0  0  0  0
  159.6090  210.7290  152.5800 C   0  0  0  0  0  3  0  0  0  0  0  0
  159.8260  208.7820  157.2270 C   0  0  0  0  0  1  0  0  0  0  0  0
  160.3340  209.9460  153.3860 C   0  0  0  0  0  0  0  0  0  0  0  0
  162.0530  208.6860  155.8900 C   0  0  0  0  0  2  0  0  0  0  0  0
  162.0930  211.0440  155.4740 C   0  0  0  0  0  2  0  0  0  0  0  0
  159.8830  209.8460  154.8380 C   0  0  2  0  0  0  0  0  0  0  0  0
  157.7610  212.3940  152.1380 C   0  0  0  0  0  3  0  0  0  0  0  0
  158.0840  213.6890  152.0900 C   0  0  0  0  0  3  0  0  0  0  0  0
  159.0420  214.2670  152.9730 N   0  0  0  0  0  2  0  0  0  0  0  0
  158.7580  214.3570  154.3930 C   0  0  0  0  0  1  0  0  0  0  0  0
  156.6570  211.6450  154.6830 O   0  0  0  0  0  0  0  0  0  0  0  0
  156.4450  211.9430  156.0570 C   0  0  0  0  0  2  0  0  0  0  0  0
  155.0930  213.8510  156.4850 O   0  0  0  0  0  1  0  0  0  0  0  0
  155.0400  212.4750  156.2650 C   0  0  0  0  0  2  0  0  0  0  0  0
  160.8540  206.3750  149.5370 C   0  0  0  0  0  2  0  0  0  0  0  0
  161.5670  205.5640  148.4590 C   0  0  2  0  0  3  0  0  0  0  0  0
  161.0170  205.8810  147.1060 C   0  0  0  0  0  0  0  0  0  0  0  0
  159.9650  206.5680  147.0140 O   0  0  0  0  0  0  0  0  0  0  0  0
  161.6840  205.4200  145.9290 N   0  0  0  0  0  2  0  0  0  0  0  0
  161.1830  205.7100  144.5960 C   0  0  0  0  0  1  0  0  0  0  0  0
  161.5030  204.0940  148.7370 C   0  0  0  0  0  0  0  0  0  0  0  0
  160.9200  203.6420  149.9580 N   0  0  0  0  0  2  0  0  0  0  0  0
  161.9610  203.2670  147.9020 O   0  0  0  0  0  0  0  0  0  0  0  0
  160.6900  202.0720  151.7880 C   0  0  0  0  0  1  0  0  0  0  0  0
  160.8250  202.2300  150.2890 C   0  0  0  0  0  2  0  0  0  0  0  0
  1  4  1  0  0  0  0
  2  6  1  0  0  0  0
  3  5  2  0  0  0  0
  3  8  1  0  0  0  0
  5  1  1  0  0  0  0
  6  8  1  0  0  0  0
  6 19  1  6  0  0  0
  7  9  1  0  0  0  0
  7  2  1  0  0  0  0
  8  4  2  0  0  0  0
  9 31  1  6  0  0  0
  9  3  1  0  0  0  0
 10  7  2  0  0  0  0
 11 21  1  6  0  0  0
 11 13  1  0  0  0  0
 13 18  1  1  0  0  0
 14 27  1  0  0  0  0
 14 12  1  0  0  0  0
 15 14  2  0  0  0  0
 17 15  1  0  0  0  0
 17 19  2  0  0  0  0
 20 16  1  0  0  0  0
 20 13  1  0  0  0  0
 21 16  1  0  0  0  0
 22 19  1  6  0  0  0
 22 12  1  0  0  0  0
 22 11  1  0  0  0  0
 22 13  1  0  0  0  0
 23 15  1  0  0  0  0
 24 23  2  0  0  0  0
 24 25  1  0  0  0  0
 25 26  1  0  0  0  0
 27 28  1  0  0  0  0
 28 30  1  0  0  0  0
 30 29  1  0  0  0  0
 32 37  1  0  0  0  0
 32 31  1  1  0  0  0
 33 32  1  0  0  0  0
 34 33  2  0  0  0  0
 35 33  1  0  0  0  0
 36 35  1  0  0  0  0
 37 38  1  0  0  0  0
 38 41  1  0  0  0  0
 39 37  2  0  0  0  0
 41 40  1  0  0  0  0
M  END
>  <MODEL>
2

>  <REMARK>
 VINA RESULT:      -6.1      1.223      1.427
  Name = 
  11 active torsions:
  status: ('A' for Active; 'I' for Inactive)
    1  A    between atoms: C_2  and  C_25
    2  A    between atoms: C_5  and  C_12
    3  A    between atoms: N_10  and  C_22
    4  A    between atoms: C_12  and  O_16
    5  A    between atoms: C_13  and  O_16
    6  A    between atoms: C_14  and  C_18
    7  A    between atoms: C_17  and  C_25
    8  A    between atoms: C_17  and  C_40
    9  A    between atoms: C_20  and  C_25
   10  A    between atoms: C_21  and  N_30
   11  A    between atoms: C_28  and  C_33
                            x       y       z     vdW  Elec       q    Type
                         _______ _______ _______ _____ _____    ______ ____

>  <TORSDO>
F 11

$$$$
=
 OpenBabel11072413273D

 41 45  0  0  1  0  0  0  0  0999 V2000
  162.2910  210.2070  148.7250 O   0  0  0  0  0  0  0  0  0  0  0  0
  161.4370  207.2000  152.0670 N   0  0  0  0  0  2  0  0  0  0  0  0
  161.6980  209.6890  150.7550 C   0  0  0  0  0  0  0  0  0  0  0  0
  162.3410  208.8920  148.8010 C   0  0  0  0  0  3  0  0  0  0  0  0
  161.9160  210.7280  149.8760 C   0  0  0  0  0  3  0  0  0  0  0  0
  161.9960  207.1870  150.7150 C   0  0  2  0  0  3  0  0  0  0  0  0
  161.2700  208.3980  152.8430 C   0  0  0  0  0  0  0  0  0  0  0  0
  161.9430  208.5320  150.0690 C   0  0  0  0  0  0  0  0  0  0  0  0
  161.3240  209.7720  152.2050 C   0  0  2  0  0  3  0  0  0  0  0  0
  161.0500  208.3000  154.0790 O   0  0  0  0  0  0  0  0  0  0  0  0
  160.4810  203.9320  151.0160 C   0  0  1  0  0  3  0  0  0  0  0  0
  161.8460  203.7550  149.0570 O   0  0  0  0  0  0  0  0  0  0  0  0
  161.9040  203.9340  151.5640 C   0  0  2  0  0  0  0  0  0  0  0  0
  161.2340  204.0740  147.8340 C   0  0  0  0  0  0  0  0  0  0  0  0
  160.8050  205.3350  147.6190 C   0  0  0  0  0  0  0  0  0  0  0  0
  160.4300  204.9060  153.2270 C   0  0  0  0  0  2  0  0  0  0  0  0
  161.0360  206.3630  148.6560 C   0  0  0  0  0  3  0  0  0  0  0  0
  162.4740  202.5280  151.5980 C   0  0  0  0  0  1  0  0  0  0  0  0
  161.4650  206.0510  149.8830 C   0  0  0  0  0  0  0  0  0  0  0  0
  161.8840  204.7220  152.8620 C   0  0  0  0  0  2  0  0  0  0  0  0
  159.6900  204.8690  151.9120 C   0  0  0  0  0  2  0  0  0  0  0  0
  161.6170  204.5680  150.2040 C   0  0  2  0  0  0  0  0  0  0  0  0
  160.1450  205.7610  146.3700 C   0  0  0  0  0  3  0  0  0  0  0  0
  160.7740  206.0510  145.2280 C   0  0  0  0  0  3  0  0  0  0  0  0
  162.1940  206.0350  145.1180 N   0  0  0  0  0  2  0  0  0  0  0  0
  162.8940  204.7780  144.9360 C   0  0  0  0  0  1  0  0  0  0  0  0
  161.0580  203.0810  146.8660 O   0  0  0  0  0  0  0  0  0  0  0  0
  160.7950  201.7290  147.2140 C   0  0  0  0  0  2  0  0  0  0  0  0
  159.9600  201.6140  144.9900 O   0  0  0  0  0  1  0  0  0  0  0  0
  160.6460  200.8860  145.9610 C   0  0  0  0  0  2  0  0  0  0  0  0
  159.9800  210.4780  152.3380 C   0  0  0  0  0  2  0  0  0  0  0  0
  160.0910  211.7340  153.1970 C   0  0  2  0  0  3  0  0  0  0  0  0
  159.8380  211.4180  154.6350 C   0  0  0  0  0  0  0  0  0  0  0  0
  158.7340  210.9100  154.9690 O   0  0  0  0  0  0  0  0  0  0  0  0
  160.8400  211.6790  155.6200 N   0  0  0  0  0  2  0  0  0  0  0  0
  160.6310  211.3830  157.0280 C   0  0  0  0  0  1  0  0  0  0  0  0
  159.1810  212.8200  152.7130 C   0  0  0  0  0  0  0  0  0  0  0  0
  158.5020  212.6550  151.4700 N   0  0  0  0  0  2  0  0  0  0  0  0
  159.0190  213.8680  153.3970 O   0  0  0  0  0  0  0  0  0  0  0  0
  157.2430  213.3300  149.5140 C   0  0  0  0  0  1  0  0  0  0  0  0
  157.6030  213.6690  150.9440 C   0  0  0  0  0  2  0  0  0  0  0  0
  1  4  1  0  0  0  0
  1  5  1  0  0  0  0
  2  7  1  0  0  0  0
  3  9  1  0  0  0  0
  4  8  2  0  0  0  0
  5  3  2  0  0  0  0
  6 19  1  6  0  0  0
  6  2  1  0  0  0  0
  7 10  2  0  0  0  0
  8  6  1  0  0  0  0
  8  3  1  0  0  0  0
  9 31  1  6  0  0  0
  9  7  1  0  0  0  0
 11 13  1  0  0  0  0
 11 21  1  1  0  0  0
 13 18  1  1  0  0  0
 13 20  1  0  0  0  0
 14 12  1  0  0  0  0
 15 14  2  0  0  0  0
 15 17  1  0  0  0  0
 17 19  2  0  0  0  0
 19 22  1  0  0  0  0
 20 16  1  0  0  0  0
 21 16  1  0  0  0  0
 22 12  1  6  0  0  0
 22 11  1  0  0  0  0
 22 13  1  0  0  0  0
 23 15  1  0  0  0  0
 24 23  2  0  0  0  0
 25 24  1  0  0  0  0
 26 25  1  0  0  0  0
 27 28  1  0  0  0  0
 27 14  1  0  0  0  0
 29 30  1  0  0  0  0
 30 28  1  0  0  0  0
 32 31  1  6  0  0  0
 32 33  1  0  0  0  0
 33 34  2  0  0  0  0
 33 35  1  0  0  0  0
 35 36  1  0  0  0  0
 37 32  1  0  0  0  0
 37 39  2  0  0  0  0
 38 37  1  0  0  0  0
 40 41  1  0  0  0  0
 41 38  1  0  0  0  0
M  END
>  <MODEL>
3

>  <REMARK>
 VINA RESULT:      -5.1      2.103      9.166
  Name = 
  11 active torsions:
  status: ('A' for Active; 'I' for Inactive)
    1  A    between atoms: C_2  and  C_25
    2  A    between atoms: C_5  and  C_12
    3  A    between atoms: N_10  and  C_22
    4  A    between atoms: C_12  and  O_16
    5  A    between atoms: C_13  and  O_16
    6  A    between atoms: C_14  and  C_18
    7  A    between atoms: C_17  and  C_25
    8  A    between atoms: C_17  and  C_40
    9  A    between atoms: C_20  and  C_25
   10  A    between atoms: C_21  and  N_30
   11  A    between atoms: C_28  and  C_33
                            x       y       z     vdW  Elec       q    Type
                         _______ _______ _______ _____ _____    ______ ____

>  <TORSDO>
F 11

$$$$
