=
 OpenBabel11072412093D

 50 53  0  0  1  0  0  0  0  0999 V2000
  160.8690  207.0510  153.8280 C   0  0  0  0  0  2  0  0  0  0  0  0
  160.7410  209.7620  152.8950 C   0  0  1  0  0  3  0  0  0  0  0  0
  160.8940  209.3140  154.2280 O   0  0  0  0  0  0  0  0  0  0  0  0
  161.5710  207.4030  152.5120 C   0  0  0  0  0  2  0  0  0  0  0  0
  160.1270  208.1950  154.3650 N   0  0  0  0  0  0  0  0  0  0  0  0
  160.9350  208.6330  151.8680 C   0  0  2  0  0  3  0  0  0  0  0  0
  159.9840  207.9780  155.6920 O   0  0  0  0  0  1  0  0  0  0  0  0
  161.7080  209.1010  150.6320 C   0  0  0  0  0  2  0  0  0  0  0  0
  161.5590  208.1640  149.4320 C   0  0  1  0  0  3  0  0  0  0  0  0
  162.7940  207.6280  149.0590 O   0  0  0  0  0  1  0  0  0  0  0  0
  160.5650  207.0480  149.7290 C   0  0  0  0  0  2  0  0  0  0  0  0
  161.1280  205.6810  149.3720 C   0  0  0  0  0  2  0  0  0  0  0  0
  160.3120  204.6740  149.9200 O   0  0  0  0  0  0  0  0  0  0  0  0
  162.3010  204.6570  151.2880 C   0  0  0  0  0  1  0  0  0  0  0  0
  160.2740  203.6560  151.9560 O   0  0  0  0  0  1  0  0  0  0  0  0
  161.0620  203.8810  150.8250 C   0  0  1  0  0  0  0  0  0  0  0  0
  161.4530  202.5000  150.2060 C   0  0  1  0  0  3  0  0  0  0  0  0
  161.5030  201.3820  151.2600 C   0  0  0  0  0  2  0  0  0  0  0  0
  162.5180  201.6190  152.1880 O   0  0  0  0  0  1  0  0  0  0  0  0
  160.5880  202.0700  148.9920 C   0  0  2  0  0  3  0  0  0  0  0  0
  158.3590  201.2460  148.9480 O   0  0  0  0  0  0  0  0  0  0  0  0
  159.4890  201.1220  149.3940 C   0  0  0  0  0  3  0  0  0  0  0  0
  161.3080  200.1410  147.6770 O   0  0  0  0  0  1  0  0  0  0  0  0
  161.4140  201.5300  147.8060 C   0  0  1  0  0  3  0  0  0  0  0  0
  161.1380  202.2380  146.4710 C   0  0  2  0  0  3  0  0  0  0  0  0
  160.8530  205.6430  145.3590 O   0  0  0  0  0  1  0  0  0  0  0  0
  161.0180  203.6830  146.6690 N   0  0  0  0  0  0  0  0  0  0  0  0
  162.7160  204.3040  145.1170 O   0  0  0  0  0  0  0  0  0  0  0  0
  162.3400  204.2910  146.4650 C   0  0  1  0  0  3  0  0  0  0  0  0
  161.3470  204.3410  145.3980 C   0  0  1  0  0  0  0  0  0  0  0  0
  160.2160  200.9630  144.6560 O   0  0  0  0  0  1  0  0  0  0  0  0
  159.8820  201.6910  145.7990 C   0  0  0  0  0  2  0  0  0  0  0  0
  159.4360  210.3950  152.7130 N   0  0  0  0  0  2  0  0  0  0  0  0
  159.3290  211.6010  153.5400 C   0  0  0  0  0  0  0  0  0  0  0  0
  160.6100  212.0790  153.8340 O   0  0  0  0  0  1  0  0  0  0  0  0
  158.6590  211.3110  154.7350 O   0  0  0  0  0  1  0  0  0  0  0  0
  158.5610  212.6780  152.7520 C   0  0  1  0  0  3  0  0  0  0  0  0
  158.2020  213.8320  154.7720 O   0  0  0  0  0  0  0  0  0  0  0  0
  157.8200  213.6550  153.6270 C   0  0  0  0  0  0  0  0  0  0  0  0
  156.5880  214.3780  151.7160 O   0  0  0  0  0  1  0  0  0  0  0  0
  156.6150  214.3900  153.1130 C   0  0  1  0  0  3  0  0  0  0  0  0
  155.3140  213.8300  153.6810 C   0  0  0  0  0  2  0  0  0  0  0  0
  154.2350  214.1310  152.8450 O   0  0  0  0  0  1  0  0  0  0  0  0
  160.1610  214.3160  152.0890 O   0  0  0  0  0  0  0  0  0  0  0  0
  159.3940  213.3840  151.7240 C   0  0  0  0  0  0  0  0  0  0  0  0
  159.3500  212.9800  150.3880 O   0  0  0  0  0  0  0  0  0  0  0  0
  160.9610  213.4490  148.6630 C   0  0  1  0  0  3  0  0  0  0  0  0
  159.6940  213.8610  149.3250 C   0  0  1  0  0  3  0  0  0  0  0  0
  161.4970  212.3020  149.2200 F   0  0  0  0  0  0  0  0  0  0  0  0
  159.7020  213.1470  148.1110 O   0  0  0  0  0  0  0  0  0  0  0  0
  1  5  1  0  0  0  0
  2 33  1  1  0  0  0
  2  3  1  0  0  0  0
  3  5  1  0  0  0  0
  4  1  1  0  0  0  0
  5  7  1  0  0  0  0
  6  8  1  6  0  0  0
  6  4  1  0  0  0  0
  6  2  1  0  0  0  0
  9 10  1  1  0  0  0
  9 11  1  0  0  0  0
  9  8  1  0  0  0  0
 12 11  1  0  0  0  0
 12 13  1  0  0  0  0
 13 16  1  0  0  0  0
 16 14  1  1  0  0  0
 16 15  1  0  0  0  0
 17 16  1  0  0  0  0
 17 18  1  1  0  0  0
 18 19  1  0  0  0  0
 20 22  1  1  0  0  0
 20 17  1  0  0  0  0
 21 22  2  0  0  0  0
 24 23  1  6  0  0  0
 24 20  1  0  0  0  0
 25 32  1  1  0  0  0
 25 27  1  0  0  0  0
 25 24  1  0  0  0  0
 28 30  1  0  0  0  0
 29 28  1  6  0  0  0
 29 27  1  0  0  0  0
 30 26  1  6  0  0  0
 30 29  1  0  0  0  0
 30 27  1  0  0  0  0
 31 32  1  0  0  0  0
 33 34  1  0  0  0  0
 34 35  1  0  0  0  0
 34 36  1  0  0  0  0
 37 45  1  1  0  0  0
 37 34  1  0  0  0  0
 37 39  1  0  0  0  0
 39 38  2  0  0  0  0
 41 40  1  6  0  0  0
 41 39  1  0  0  0  0
 41 42  1  0  0  0  0
 43 42  1  0  0  0  0
 45 44  2  0  0  0  0
 46 45  1  0  0  0  0
 47 49  1  1  0  0  0
 47 48  1  0  0  0  0
 48 46  1  1  0  0  0
 50 47  1  0  0  0  0
 50 48  1  0  0  0  0
M  END
>  <MODEL>
1

>  <REMARK>
 VINA RESULT:      -4.8      0.000      0.000
  Name = 
  23 active torsions:
  status: ('A' for Active; 'I' for Inactive)
    1  A    between atoms: N_1  and  C_17
    2  A    between atoms: N_1  and  C_37
    3  A    between atoms: C_2  and  C_37
    4  A    between atoms: C_2  and  C_39
    5  A    between atoms: C_2  and  C_45
    6  A    between atoms: C_4  and  N_8
    7  A    between atoms: C_4  and  C_15
    8  A    between atoms: C_4  and  C_50
    9  A    between atoms: C_9  and  C_33
   10  A    between atoms: C_10  and  C_22
   11  A    between atoms: C_10  and  C_39
   12  A    between atoms: C_11  and  C_20
   13  A    between atoms: C_11  and  C_47
   14  A    between atoms: C_12  and  C_15
   15  A    between atoms: C_12  and  C_33
   16  A    between atoms: C_12  and  C_40
   17  A    between atoms: C_18  and  O_25
   18  A    between atoms: C_20  and  C_21
   19  A    between atoms: C_21  and  O_27
   20  A    between atoms: O_25  and  C_45
   21  A    between atoms: O_27  and  C_38
   22  A    between atoms: C_33  and  C_38
   23  A    between atoms: C_36  and  C_47
                            x       y       z     vdW  Elec       q    Type
                         _______ _______ _______ _____ _____    ______ ____

>  <TORSDO>
F 23

$$$$
=
 OpenBabel11072412093D

 50 53  0  0  1  0  0  0  0  0999 V2000
  160.4690  206.4520  155.0880 C   0  0  0  0  0  2  0  0  0  0  0  0
  161.0880  209.2460  154.8700 C   0  0  1  0  0  3  0  0  0  0  0  0
  161.1550  208.4350  156.0260 O   0  0  0  0  0  0  0  0  0  0  0  0
  161.1930  206.9420  153.8300 C   0  0  0  0  0  2  0  0  0  0  0  0
  160.1050  207.5660  155.9680 N   0  0  0  0  0  0  0  0  0  0  0  0
  160.9130  208.4230  153.5820 C   0  0  2  0  0  3  0  0  0  0  0  0
  159.9550  207.0490  157.2090 O   0  0  0  0  0  1  0  0  0  0  0  0
  161.7420  208.9800  152.4220 C   0  0  0  0  0  2  0  0  0  0  0  0
  161.9780  207.9640  151.3020 C   0  0  1  0  0  3  0  0  0  0  0  0
  160.9450  207.0240  151.2530 O   0  0  0  0  0  1  0  0  0  0  0  0
  162.1260  208.6600  149.9540 C   0  0  0  0  0  2  0  0  0  0  0  0
  161.2260  208.0380  148.8970 C   0  0  0  0  0  2  0  0  0  0  0  0
  161.9260  207.0260  148.2140 O   0  0  0  0  0  0  0  0  0  0  0  0
  161.9510  204.8390  149.2370 C   0  0  0  0  0  1  0  0  0  0  0  0
  159.9710  206.0660  148.8760 O   0  0  0  0  0  1  0  0  0  0  0  0
  161.2150  205.8030  148.2980 C   0  0  1  0  0  0  0  0  0  0  0  0
  160.9860  205.1630  146.8900 C   0  0  1  0  0  3  0  0  0  0  0  0
  161.3130  206.1380  145.7470 C   0  0  0  0  0  2  0  0  0  0  0  0
  160.1590  206.4800  145.0400 O   0  0  0  0  0  1  0  0  0  0  0  0
  161.7060  203.8050  146.6740 C   0  0  2  0  0  3  0  0  0  0  0  0
  163.7970  204.5160  145.7940 O   0  0  0  0  0  0  0  0  0  0  0  0
  162.7630  203.8950  145.6040 C   0  0  0  0  0  3  0  0  0  0  0  0
  160.9830  201.9790  145.2230 O   0  0  0  0  0  1  0  0  0  0  0  0
  160.7410  202.6250  146.4390 C   0  0  1  0  0  3  0  0  0  0  0  0
  160.6750  201.6230  147.6020 C   0  0  2  0  0  3  0  0  0  0  0  0
  161.3900  201.8840  151.1120 O   0  0  0  0  0  1  0  0  0  0  0  0
  160.7270  202.3200  148.8870 N   0  0  0  0  0  0  0  0  0  0  0  0
  159.7390  200.5760  150.1740 O   0  0  0  0  0  0  0  0  0  0  0  0
  159.5840  201.8830  149.7000 C   0  0  1  0  0  3  0  0  0  0  0  0
  160.9040  201.3120  149.9390 C   0  0  1  0  0  0  0  0  0  0  0  0
  161.4390  199.5530  146.6530 O   0  0  0  0  0  1  0  0  0  0  0  0
  161.7970  200.5930  147.5130 C   0  0  0  0  0  2  0  0  0  0  0  0
  160.0140  210.2280  154.9940 N   0  0  0  0  0  2  0  0  0  0  0  0
  160.5590  211.5890  155.0160 C   0  0  0  0  0  0  0  0  0  0  0  0
  161.7360  211.6300  154.2600 O   0  0  0  0  0  1  0  0  0  0  0  0
  160.8420  211.9770  156.3320 O   0  0  0  0  0  1  0  0  0  0  0  0
  159.5300  212.5490  154.3920 C   0  0  1  0  0  3  0  0  0  0  0  0
  158.5880  211.0430  152.8480 O   0  0  0  0  0  0  0  0  0  0  0  0
  159.0840  212.1450  153.0110 C   0  0  0  0  0  0  0  0  0  0  0  0
  160.4650  212.8050  151.1810 O   0  0  0  0  0  1  0  0  0  0  0  0
  159.2640  213.0720  151.8420 C   0  0  1  0  0  3  0  0  0  0  0  0
  158.0890  213.0070  150.8710 C   0  0  0  0  0  2  0  0  0  0  0  0
  158.2420  213.9390  149.8410 O   0  0  0  0  0  1  0  0  0  0  0  0
  158.2840  213.9640  155.8500 O   0  0  0  0  0  0  0  0  0  0  0  0
  158.3590  212.8410  155.2830 C   0  0  0  0  0  0  0  0  0  0  0  0
  157.3450  211.8940  155.4430 O   0  0  0  0  0  0  0  0  0  0  0  0
  155.0630  211.7370  156.1910 C   0  0  1  0  0  3  0  0  0  0  0  0
  155.9900  212.1800  155.1160 C   0  0  1  0  0  3  0  0  0  0  0  0
  155.7320  211.1700  157.2610 F   0  0  0  0  0  0  0  0  0  0  0  0
  155.4620  213.0810  156.0610 O   0  0  0  0  0  0  0  0  0  0  0  0
  1  5  1  0  0  0  0
  2 33  1  1  0  0  0
  2  3  1  0  0  0  0
  4  1  1  0  0  0  0
  5  3  1  0  0  0  0
  5  7  1  0  0  0  0
  6  8  1  6  0  0  0
  6  4  1  0  0  0  0
  6  2  1  0  0  0  0
  9 10  1  6  0  0  0
  9  8  1  0  0  0  0
 11  9  1  0  0  0  0
 12 11  1  0  0  0  0
 13 16  1  0  0  0  0
 13 12  1  0  0  0  0
 16 15  1  0  0  0  0
 16 14  1  1  0  0  0
 17 18  1  6  0  0  0
 17 16  1  0  0  0  0
 19 18  1  0  0  0  0
 20 22  1  6  0  0  0
 20 17  1  0  0  0  0
 22 21  2  0  0  0  0
 24 23  1  6  0  0  0
 24 20  1  0  0  0  0
 24 25  1  0  0  0  0
 25 32  1  6  0  0  0
 25 27  1  0  0  0  0
 27 29  1  0  0  0  0
 27 30  1  0  0  0  0
 29 30  1  0  0  0  0
 29 28  1  6  0  0  0
 30 28  1  0  0  0  0
 30 26  1  1  0  0  0
 31 32  1  0  0  0  0
 33 34  1  0  0  0  0
 34 36  1  0  0  0  0
 35 34  1  0  0  0  0
 37 39  1  6  0  0  0
 37 34  1  0  0  0  0
 37 45  1  0  0  0  0
 38 39  2  0  0  0  0
 41 40  1  6  0  0  0
 41 39  1  0  0  0  0
 42 41  1  0  0  0  0
 43 42  1  0  0  0  0
 45 46  1  0  0  0  0
 45 44  2  0  0  0  0
 47 49  1  1  0  0  0
 48 46  1  1  0  0  0
 48 50  1  0  0  0  0
 48 47  1  0  0  0  0
 50 47  1  0  0  0  0
M  END
>  <MODEL>
2

>  <REMARK>
 VINA RESULT:      -4.7      2.222      4.506
  Name = 
  23 active torsions:
  status: ('A' for Active; 'I' for Inactive)
    1  A    between atoms: N_1  and  C_17
    2  A    between atoms: N_1  and  C_37
    3  A    between atoms: C_2  and  C_37
    4  A    between atoms: C_2  and  C_39
    5  A    between atoms: C_2  and  C_45
    6  A    between atoms: C_4  and  N_8
    7  A    between atoms: C_4  and  C_15
    8  A    between atoms: C_4  and  C_50
    9  A    between atoms: C_9  and  C_33
   10  A    between atoms: C_10  and  C_22
   11  A    between atoms: C_10  and  C_39
   12  A    between atoms: C_11  and  C_20
   13  A    between atoms: C_11  and  C_47
   14  A    between atoms: C_12  and  C_15
   15  A    between atoms: C_12  and  C_33
   16  A    between atoms: C_12  and  C_40
   17  A    between atoms: C_18  and  O_25
   18  A    between atoms: C_20  and  C_21
   19  A    between atoms: C_21  and  O_27
   20  A    between atoms: O_25  and  C_45
   21  A    between atoms: O_27  and  C_38
   22  A    between atoms: C_33  and  C_38
   23  A    between atoms: C_36  and  C_47
                            x       y       z     vdW  Elec       q    Type
                         _______ _______ _______ _____ _____    ______ ____

>  <TORSDO>
F 23

$$$$
=
 OpenBabel11072412093D

 50 53  0  0  1  0  0  0  0  0999 V2000
  161.3680  212.5650  149.3440 C   0  0  0  0  0  2  0  0  0  0  0  0
  159.6850  212.1930  151.6390 C   0  0  1  0  0  3  0  0  0  0  0  0
  159.3760  212.8840  150.4440 O   0  0  0  0  0  0  0  0  0  0  0  0
  161.4040  211.2120  150.0620 C   0  0  0  0  0  2  0  0  0  0  0  0
  160.5120  213.5250  150.0460 N   0  0  0  0  0  0  0  0  0  0  0  0
  160.9710  211.3580  151.5200 C   0  0  2  0  0  3  0  0  0  0  0  0
  160.1400  214.4530  149.1360 O   0  0  0  0  0  1  0  0  0  0  0  0
  160.8500  210.0030  152.2230 C   0  0  0  0  0  2  0  0  0  0  0  0
  161.4550  208.8480  151.4240 C   0  0  1  0  0  3  0  0  0  0  0  0
  162.8490  208.9400  151.3880 O   0  0  0  0  0  1  0  0  0  0  0  0
  161.0280  207.5020  151.9970 C   0  0  0  0  0  2  0  0  0  0  0  0
  162.1900  206.5240  152.0650 C   0  0  0  0  0  2  0  0  0  0  0  0
  162.1670  205.6810  150.9370 O   0  0  0  0  0  0  0  0  0  0  0  0
  160.6860  204.6130  152.5160 C   0  0  0  0  0  1  0  0  0  0  0  0
  160.0030  205.2770  150.3590 O   0  0  0  0  0  1  0  0  0  0  0  0
  161.1010  204.7540  151.0460 C   0  0  1  0  0  0  0  0  0  0  0  0
  161.4670  203.3680  150.4220 C   0  0  1  0  0  3  0  0  0  0  0  0
  161.2710  202.2110  151.4150 C   0  0  0  0  0  2  0  0  0  0  0  0
  162.4150  201.4150  151.4830 O   0  0  0  0  0  1  0  0  0  0  0  0
  160.7580  203.0600  149.0760 C   0  0  2  0  0  3  0  0  0  0  0  0
  158.8930  201.5890  149.1520 O   0  0  0  0  0  0  0  0  0  0  0  0
  160.1070  201.7020  149.0840 C   0  0  0  0  0  3  0  0  0  0  0  0
  161.6510  202.1530  146.9910 O   0  0  0  0  0  1  0  0  0  0  0  0
  161.6620  203.2630  147.8420 C   0  0  1  0  0  3  0  0  0  0  0  0
  161.3920  204.5630  147.0700 C   0  0  2  0  0  3  0  0  0  0  0  0
  161.6910  205.6320  143.6530 O   0  0  0  0  0  1  0  0  0  0  0  0
  161.5390  204.3470  145.6300 N   0  0  0  0  0  0  0  0  0  0  0  0
  159.8020  205.8340  144.9610 O   0  0  0  0  0  0  0  0  0  0  0  0
  160.2210  204.5000  145.0000 C   0  0  1  0  0  3  0  0  0  0  0  0
  161.1800  205.5960  144.9480 C   0  0  1  0  0  0  0  0  0  0  0  0
  161.5680  206.7910  147.9500 O   0  0  0  0  0  1  0  0  0  0  0  0
  162.3140  205.6870  147.5320 C   0  0  0  0  0  2  0  0  0  0  0  0
  159.7870  213.1250  152.7590 N   0  0  0  0  0  2  0  0  0  0  0  0
  158.6650  212.9440  153.6850 C   0  0  0  0  0  0  0  0  0  0  0  0
  158.1900  211.6320  153.5880 O   0  0  0  0  0  1  0  0  0  0  0  0
  157.6290  213.8340  153.3700 O   0  0  0  0  0  1  0  0  0  0  0  0
  159.1570  213.1950  155.1220 C   0  0  1  0  0  3  0  0  0  0  0  0
  158.2850  214.4520  156.9100 O   0  0  0  0  0  0  0  0  0  0  0  0
  158.0620  213.5890  156.0770 C   0  0  0  0  0  0  0  0  0  0  0  0
  156.7720  211.6570  156.6190 O   0  0  0  0  0  1  0  0  0  0  0  0
  156.7170  212.9210  156.0260 C   0  0  1  0  0  3  0  0  0  0  0  0
  155.6270  213.7720  156.6700 C   0  0  0  0  0  2  0  0  0  0  0  0
  154.4960  213.8360  155.8500 O   0  0  0  0  0  1  0  0  0  0  0  0
  160.9120  212.3520  156.4970 O   0  0  0  0  0  0  0  0  0  0  0  0
  159.9940  212.0810  155.6760 C   0  0  0  0  0  0  0  0  0  0  0  0
  159.7270  210.7570  155.3190 O   0  0  0  0  0  0  0  0  0  0  0  0
  160.0270  208.4830  156.0470 C   0  0  1  0  0  3  0  0  0  0  0  0
  159.3410  209.7820  156.2800 C   0  0  1  0  0  3  0  0  0  0  0  0
  160.8890  208.5310  154.9670 F   0  0  0  0  0  0  0  0  0  0  0  0
  160.4680  209.3910  157.0280 O   0  0  0  0  0  0  0  0  0  0  0  0
  1  5  1  0  0  0  0
  1  4  1  0  0  0  0
  2 33  1  1  0  0  0
  3  2  1  0  0  0  0
  4  6  1  0  0  0  0
  5  3  1  0  0  0  0
  6  2  1  0  0  0  0
  6  8  1  6  0  0  0
  7  5  1  0  0  0  0
  9 10  1  1  0  0  0
  9 11  1  0  0  0  0
  9  8  1  0  0  0  0
 11 12  1  0  0  0  0
 13 16  1  0  0  0  0
 13 12  1  0  0  0  0
 15 16  1  0  0  0  0
 16 14  1  1  0  0  0
 17 16  1  0  0  0  0
 17 18  1  1  0  0  0
 18 19  1  0  0  0  0
 20 22  1  1  0  0  0
 20 17  1  0  0  0  0
 22 21  2  0  0  0  0
 24 23  1  6  0  0  0
 24 20  1  0  0  0  0
 25 32  1  1  0  0  0
 25 24  1  0  0  0  0
 27 25  1  0  0  0  0
 29 28  1  1  0  0  0
 29 27  1  0  0  0  0
 30 26  1  6  0  0  0
 30 28  1  0  0  0  0
 30 29  1  0  0  0  0
 30 27  1  0  0  0  0
 32 31  1  0  0  0  0
 33 34  1  0  0  0  0
 34 37  1  0  0  0  0
 35 34  1  0  0  0  0
 36 34  1  0  0  0  0
 37 45  1  1  0  0  0
 37 39  1  0  0  0  0
 39 38  2  0  0  0  0
 41 39  1  0  0  0  0
 41 40  1  1  0  0  0
 41 42  1  0  0  0  0
 43 42  1  0  0  0  0
 45 44  2  0  0  0  0
 46 45  1  0  0  0  0
 47 49  1  6  0  0  0
 47 48  1  0  0  0  0
 47 50  1  0  0  0  0
 48 46  1  6  0  0  0
 48 50  1  0  0  0  0
M  END
>  <MODEL>
3

>  <REMARK>
 VINA RESULT:      -4.6      2.137      4.171
  Name = 
  23 active torsions:
  status: ('A' for Active; 'I' for Inactive)
    1  A    between atoms: N_1  and  C_17
    2  A    between atoms: N_1  and  C_37
    3  A    between atoms: C_2  and  C_37
    4  A    between atoms: C_2  and  C_39
    5  A    between atoms: C_2  and  C_45
    6  A    between atoms: C_4  and  N_8
    7  A    between atoms: C_4  and  C_15
    8  A    between atoms: C_4  and  C_50
    9  A    between atoms: C_9  and  C_33
   10  A    between atoms: C_10  and  C_22
   11  A    between atoms: C_10  and  C_39
   12  A    between atoms: C_11  and  C_20
   13  A    between atoms: C_11  and  C_47
   14  A    between atoms: C_12  and  C_15
   15  A    between atoms: C_12  and  C_33
   16  A    between atoms: C_12  and  C_40
   17  A    between atoms: C_18  and  O_25
   18  A    between atoms: C_20  and  C_21
   19  A    between atoms: C_21  and  O_27
   20  A    between atoms: O_25  and  C_45
   21  A    between atoms: O_27  and  C_38
   22  A    between atoms: C_33  and  C_38
   23  A    between atoms: C_36  and  C_47
                            x       y       z     vdW  Elec       q    Type
                         _______ _______ _______ _____ _____    ______ ____

>  <TORSDO>
F 23

$$$$
=
 OpenBabel11072412093D

 50 53  0  0  1  0  0  0  0  0999 V2000
  160.9090  206.3400  154.1060 C   0  0  0  0  0  2  0  0  0  0  0  0
  161.3070  209.0860  153.3690 C   0  0  1  0  0  3  0  0  0  0  0  0
  161.5470  208.4870  154.6270 O   0  0  0  0  0  0  0  0  0  0  0  0
  161.4670  206.6470  152.7120 C   0  0  0  0  0  2  0  0  0  0  0  0
  160.5600  207.5670  154.8280 N   0  0  0  0  0  0  0  0  0  0  0  0
  161.0610  208.0480  152.2600 C   0  0  2  0  0  3  0  0  0  0  0  0
  160.5720  207.2610  156.1450 O   0  0  0  0  0  1  0  0  0  0  0  0
  161.7270  208.4430  150.9390 C   0  0  0  0  0  2  0  0  0  0  0  0
  161.6500  207.3510  149.8700 C   0  0  1  0  0  3  0  0  0  0  0  0
  160.3230  207.0770  149.5290 O   0  0  0  0  0  1  0  0  0  0  0  0
  162.4470  207.7400  148.6310 C   0  0  0  0  0  2  0  0  0  0  0  0
  162.9300  206.5190  147.8650 C   0  0  0  0  0  2  0  0  0  0  0  0
  161.9910  206.1790  146.8730 O   0  0  0  0  0  0  0  0  0  0  0  0
  162.9090  204.8540  145.0760 C   0  0  0  0  0  1  0  0  0  0  0  0
  163.0720  204.2320  147.3450 O   0  0  0  0  0  1  0  0  0  0  0  0
  162.2050  204.8470  146.4390 C   0  0  1  0  0  0  0  0  0  0  0  0
  160.8740  204.0290  146.3880 C   0  0  1  0  0  3  0  0  0  0  0  0
  159.8630  204.6220  145.3920 C   0  0  0  0  0  2  0  0  0  0  0  0
  159.8050  206.0110  145.5110 O   0  0  0  0  0  1  0  0  0  0  0  0
  161.0600  202.5090  146.1380 C   0  0  2  0  0  3  0  0  0  0  0  0
  160.0860  200.8220  144.7760 O   0  0  0  0  0  0  0  0  0  0  0  0
  160.1930  202.0160  145.0090 C   0  0  0  0  0  3  0  0  0  0  0  0
  162.0640  200.9400  147.7180 O   0  0  0  0  0  1  0  0  0  0  0  0
  160.9000  201.6500  147.4100 C   0  0  1  0  0  3  0  0  0  0  0  0
  160.3760  202.4220  148.6310 C   0  0  2  0  0  3  0  0  0  0  0  0
  161.9180  202.7200  151.8610 O   0  0  0  0  0  1  0  0  0  0  0  0
  161.4720  202.7520  149.5410 N   0  0  0  0  0  0  0  0  0  0  0  0
  160.1620  204.0010  151.0910 O   0  0  0  0  0  0  0  0  0  0  0  0
  161.1950  204.0610  150.1480 C   0  0  1  0  0  3  0  0  0  0  0  0
  160.9200  202.8420  150.8980 C   0  0  1  0  0  0  0  0  0  0  0  0
  158.3040  201.2160  148.4780 O   0  0  0  0  0  1  0  0  0  0  0  0
  159.2970  201.6340  149.3670 C   0  0  0  0  0  2  0  0  0  0  0  0
  160.1840  210.0180  153.4500 N   0  0  0  0  0  2  0  0  0  0  0  0
  160.3840  210.9710  154.5460 C   0  0  0  0  0  0  0  0  0  0  0  0
  161.7320  210.9740  154.9200 O   0  0  0  0  0  1  0  0  0  0  0  0
  159.5990  210.6110  155.6500 O   0  0  0  0  0  1  0  0  0  0  0  0
  159.9960  212.3790  154.0590 C   0  0  1  0  0  3  0  0  0  0  0  0
  158.4010  211.4940  152.5720 O   0  0  0  0  0  0  0  0  0  0  0  0
  159.2150  212.3800  152.7720 C   0  0  0  0  0  0  0  0  0  0  0  0
  159.8610  212.8740  150.5290 O   0  0  0  0  0  1  0  0  0  0  0  0
  159.4410  213.4430  151.7340 C   0  0  1  0  0  3  0  0  0  0  0  0
  158.2050  214.3100  151.5190 C   0  0  0  0  0  2  0  0  0  0  0  0
  157.7870  214.2600  150.1850 O   0  0  0  0  0  1  0  0  0  0  0  0
  160.0110  213.6520  156.0740 O   0  0  0  0  0  0  0  0  0  0  0  0
  159.3290  213.2180  155.1070 C   0  0  0  0  0  0  0  0  0  0  0  0
  157.9770  213.5500  154.9860 O   0  0  0  0  0  0  0  0  0  0  0  0
  155.6930  212.8020  155.1180 C   0  0  1  0  0  3  0  0  0  0  0  0
  156.9840  212.9840  155.8330 C   0  0  1  0  0  3  0  0  0  0  0  0
  155.7630  213.2060  153.7960 F   0  0  0  0  0  0  0  0  0  0  0  0
  156.5880  211.7350  155.3190 O   0  0  0  0  0  0  0  0  0  0  0  0
  1  5  1  0  0  0  0
  2 33  1  1  0  0  0
  2  3  1  0  0  0  0
  3  5  1  0  0  0  0
  4  1  1  0  0  0  0
  5  7  1  0  0  0  0
  6  8  1  6  0  0  0
  6  4  1  0  0  0  0
  6  2  1  0  0  0  0
  9 10  1  6  0  0  0
  9  8  1  0  0  0  0
 11  9  1  0  0  0  0
 12 11  1  0  0  0  0
 13 12  1  0  0  0  0
 16 14  1  6  0  0  0
 16 13  1  0  0  0  0
 16 15  1  0  0  0  0
 17 18  1  6  0  0  0
 17 16  1  0  0  0  0
 18 19  1  0  0  0  0
 20 22  1  6  0  0  0
 20 17  1  0  0  0  0
 20 24  1  0  0  0  0
 21 22  2  0  0  0  0
 24 23  1  1  0  0  0
 24 25  1  0  0  0  0
 25 32  1  1  0  0  0
 25 27  1  0  0  0  0
 27 29  1  0  0  0  0
 27 30  1  0  0  0  0
 29 30  1  0  0  0  0
 29 28  1  6  0  0  0
 30 28  1  0  0  0  0
 30 26  1  1  0  0  0
 31 32  1  0  0  0  0
 33 34  1  0  0  0  0
 34 35  1  0  0  0  0
 34 36  1  0  0  0  0
 37 39  1  6  0  0  0
 37 34  1  0  0  0  0
 37 45  1  0  0  0  0
 38 39  2  0  0  0  0
 41 40  1  6  0  0  0
 41 39  1  0  0  0  0
 42 41  1  0  0  0  0
 43 42  1  0  0  0  0
 45 44  2  0  0  0  0
 46 45  1  0  0  0  0
 47 49  1  6  0  0  0
 47 50  1  0  0  0  0
 47 48  1  0  0  0  0
 48 46  1  6  0  0  0
 50 48  1  0  0  0  0
M  END
>  <MODEL>
4

>  <REMARK>
 VINA RESULT:      -4.6      1.879      4.197
  Name = 
  23 active torsions:
  status: ('A' for Active; 'I' for Inactive)
    1  A    between atoms: N_1  and  C_17
    2  A    between atoms: N_1  and  C_37
    3  A    between atoms: C_2  and  C_37
    4  A    between atoms: C_2  and  C_39
    5  A    between atoms: C_2  and  C_45
    6  A    between atoms: C_4  and  N_8
    7  A    between atoms: C_4  and  C_15
    8  A    between atoms: C_4  and  C_50
    9  A    between atoms: C_9  and  C_33
   10  A    between atoms: C_10  and  C_22
   11  A    between atoms: C_10  and  C_39
   12  A    between atoms: C_11  and  C_20
   13  A    between atoms: C_11  and  C_47
   14  A    between atoms: C_12  and  C_15
   15  A    between atoms: C_12  and  C_33
   16  A    between atoms: C_12  and  C_40
   17  A    between atoms: C_18  and  O_25
   18  A    between atoms: C_20  and  C_21
   19  A    between atoms: C_21  and  O_27
   20  A    between atoms: O_25  and  C_45
   21  A    between atoms: O_27  and  C_38
   22  A    between atoms: C_33  and  C_38
   23  A    between atoms: C_36  and  C_47
                            x       y       z     vdW  Elec       q    Type
                         _______ _______ _______ _____ _____    ______ ____

>  <TORSDO>
F 23

$$$$
=
 OpenBabel11072412093D

 50 53  0  0  1  0  0  0  0  0999 V2000
  161.0240  206.9330  154.4670 C   0  0  0  0  0  2  0  0  0  0  0  0
  160.8020  209.7330  153.8800 C   0  0  1  0  0  3  0  0  0  0  0  0
  160.9950  209.1290  155.1440 O   0  0  0  0  0  0  0  0  0  0  0  0
  161.6880  207.4650  153.1930 C   0  0  0  0  0  2  0  0  0  0  0  0
  160.2620  207.9790  155.1550 N   0  0  0  0  0  0  0  0  0  0  0  0
  161.0050  208.7460  152.7180 C   0  0  2  0  0  3  0  0  0  0  0  0
  160.1540  207.5960  156.4470 O   0  0  0  0  0  1  0  0  0  0  0  0
  161.7380  209.3850  151.5350 C   0  0  0  0  0  2  0  0  0  0  0  0
  161.6420  208.5660  150.2470 C   0  0  1  0  0  3  0  0  0  0  0  0
  162.9020  208.1210  149.8410 O   0  0  0  0  0  1  0  0  0  0  0  0
  160.6920  207.3860  150.4170 C   0  0  0  0  0  2  0  0  0  0  0  0
  161.4010  206.0570  150.2080 C   0  0  0  0  0  2  0  0  0  0  0  0
  160.4500  205.0330  150.0430 O   0  0  0  0  0  0  0  0  0  0  0  0
  161.9930  204.2130  151.7090 C   0  0  0  0  0  1  0  0  0  0  0  0
  159.8010  203.3780  151.4660 O   0  0  0  0  0  1  0  0  0  0  0  0
  160.8770  203.8620  150.7170 C   0  0  1  0  0  0  0  0  0  0  0  0
  161.3320  202.7480  149.7190 C   0  0  1  0  0  3  0  0  0  0  0  0
  161.4070  201.3640  150.3850 C   0  0  0  0  0  2  0  0  0  0  0  0
  161.8130  200.3920  149.4690 O   0  0  0  0  0  1  0  0  0  0  0  0
  160.5060  202.6800  148.4080 C   0  0  2  0  0  3  0  0  0  0  0  0
  158.4790  201.5340  148.8850 O   0  0  0  0  0  0  0  0  0  0  0  0
  159.5900  201.4840  148.3830 C   0  0  0  0  0  3  0  0  0  0  0  0
  160.9950  201.8340  146.1690 O   0  0  0  0  0  1  0  0  0  0  0  0
  161.3650  202.7790  147.1310 C   0  0  1  0  0  3  0  0  0  0  0  0
  161.4380  204.1910  146.5280 C   0  0  2  0  0  3  0  0  0  0  0  0
  161.4110  205.5050  143.1840 O   0  0  0  0  0  1  0  0  0  0  0  0
  161.1060  204.1600  145.1040 N   0  0  0  0  0  0  0  0  0  0  0  0
  160.2650  206.3870  144.9810 O   0  0  0  0  0  0  0  0  0  0  0  0
  159.9420  205.0290  144.8790 C   0  0  1  0  0  3  0  0  0  0  0  0
  161.2810  205.5170  144.5710 C   0  0  1  0  0  0  0  0  0  0  0  0
  162.6960  206.0910  147.2870 O   0  0  0  0  0  1  0  0  0  0  0  0
  162.8150  204.8140  146.7350 C   0  0  0  0  0  2  0  0  0  0  0  0
  159.4770  210.3440  153.8000 N   0  0  0  0  0  2  0  0  0  0  0  0
  159.4090  211.5400  154.6470 C   0  0  0  0  0  0  0  0  0  0  0  0
  160.6240  212.2300  154.5740 O   0  0  0  0  0  1  0  0  0  0  0  0
  159.1610  211.1780  155.9770 O   0  0  0  0  0  1  0  0  0  0  0  0
  158.2830  212.4530  154.1300 C   0  0  1  0  0  3  0  0  0  0  0  0
  158.5070  213.9160  155.9600 O   0  0  0  0  0  0  0  0  0  0  0  0
  157.7360  213.3910  155.1740 C   0  0  0  0  0  0  0  0  0  0  0  0
  155.7050  213.8080  153.9950 O   0  0  0  0  0  1  0  0  0  0  0  0
  156.2620  213.6650  155.2680 C   0  0  1  0  0  3  0  0  0  0  0  0
  155.5260  212.5900  156.0600 C   0  0  0  0  0  2  0  0  0  0  0  0
  156.4240  211.6580  156.5880 O   0  0  0  0  0  1  0  0  0  0  0  0
  159.3490  214.2130  152.9270 O   0  0  0  0  0  0  0  0  0  0  0  0
  158.6280  213.1810  152.8650 C   0  0  0  0  0  0  0  0  0  0  0  0
  158.1900  212.6930  151.6320 O   0  0  0  0  0  0  0  0  0  0  0  0
  158.3510  213.7130  149.4580 C   0  0  1  0  0  3  0  0  0  0  0  0
  157.5310  213.5240  150.6840 C   0  0  1  0  0  3  0  0  0  0  0  0
  159.5490  213.0250  149.5160 F   0  0  0  0  0  0  0  0  0  0  0  0
  157.2890  212.7910  149.5070 O   0  0  0  0  0  0  0  0  0  0  0  0
  1  5  1  0  0  0  0
  2 33  1  1  0  0  0
  2  3  1  0  0  0  0
  3  5  1  0  0  0  0
  4  1  1  0  0  0  0
  5  7  1  0  0  0  0
  6  8  1  6  0  0  0
  6  4  1  0  0  0  0
  6  2  1  0  0  0  0
  9 10  1  1  0  0  0
  9 11  1  0  0  0  0
  9  8  1  0  0  0  0
 12 11  1  0  0  0  0
 13 12  1  0  0  0  0
 13 16  1  0  0  0  0
 16 15  1  0  0  0  0
 16 14  1  1  0  0  0
 17 18  1  1  0  0  0
 17 16  1  0  0  0  0
 19 18  1  0  0  0  0
 20 22  1  6  0  0  0
 20 17  1  0  0  0  0
 22 21  2  0  0  0  0
 24 23  1  6  0  0  0
 24 20  1  0  0  0  0
 25 32  1  6  0  0  0
 25 24  1  0  0  0  0
 27 25  1  0  0  0  0
 29 28  1  1  0  0  0
 29 27  1  0  0  0  0
 30 26  1  6  0  0  0
 30 29  1  0  0  0  0
 30 28  1  0  0  0  0
 30 27  1  0  0  0  0
 32 31  1  0  0  0  0
 33 34  1  0  0  0  0
 34 36  1  0  0  0  0
 35 34  1  0  0  0  0
 37 45  1  6  0  0  0
 37 34  1  0  0  0  0
 37 39  1  0  0  0  0
 39 41  1  0  0  0  0
 39 38  2  0  0  0  0
 41 40  1  6  0  0  0
 41 42  1  0  0  0  0
 42 43  1  0  0  0  0
 45 44  2  0  0  0  0
 46 45  1  0  0  0  0
 47 50  1  0  0  0  0
 47 49  1  1  0  0  0
 47 48  1  0  0  0  0
 48 46  1  1  0  0  0
 50 48  1  0  0  0  0
M  END
>  <MODEL>
5

>  <REMARK>
 VINA RESULT:      -4.6      1.440      2.044
  Name = 
  23 active torsions:
  status: ('A' for Active; 'I' for Inactive)
    1  A    between atoms: N_1  and  C_17
    2  A    between atoms: N_1  and  C_37
    3  A    between atoms: C_2  and  C_37
    4  A    between atoms: C_2  and  C_39
    5  A    between atoms: C_2  and  C_45
    6  A    between atoms: C_4  and  N_8
    7  A    between atoms: C_4  and  C_15
    8  A    between atoms: C_4  and  C_50
    9  A    between atoms: C_9  and  C_33
   10  A    between atoms: C_10  and  C_22
   11  A    between atoms: C_10  and  C_39
   12  A    between atoms: C_11  and  C_20
   13  A    between atoms: C_11  and  C_47
   14  A    between atoms: C_12  and  C_15
   15  A    between atoms: C_12  and  C_33
   16  A    between atoms: C_12  and  C_40
   17  A    between atoms: C_18  and  O_25
   18  A    between atoms: C_20  and  C_21
   19  A    between atoms: C_21  and  O_27
   20  A    between atoms: O_25  and  C_45
   21  A    between atoms: O_27  and  C_38
   22  A    between atoms: C_33  and  C_38
   23  A    between atoms: C_36  and  C_47
                            x       y       z     vdW  Elec       q    Type
                         _______ _______ _______ _____ _____    ______ ____

>  <TORSDO>
F 23

$$$$
=
 OpenBabel11072412093D

 50 53  0  0  1  0  0  0  0  0999 V2000
  161.2020  206.5790  153.6710 C   0  0  0  0  0  2  0  0  0  0  0  0
  161.0970  209.3870  153.0860 C   0  0  1  0  0  3  0  0  0  0  0  0
  161.2510  208.7740  154.3510 O   0  0  0  0  0  0  0  0  0  0  0  0
  161.9020  207.0860  152.4060 C   0  0  0  0  0  2  0  0  0  0  0  0
  160.4730  207.6540  154.3510 N   0  0  0  0  0  0  0  0  0  0  0  0
  161.2760  208.3940  151.9250 C   0  0  2  0  0  3  0  0  0  0  0  0
  160.3330  207.2740  155.6410 O   0  0  0  0  0  1  0  0  0  0  0  0
  162.0490  209.0050  150.7530 C   0  0  0  0  0  2  0  0  0  0  0  0
  161.6550  208.4210  149.3950 C   0  0  1  0  0  3  0  0  0  0  0  0
  162.7570  207.8430  148.7600 O   0  0  0  0  0  1  0  0  0  0  0  0
  160.5320  207.4010  149.5430 C   0  0  0  0  0  2  0  0  0  0  0  0
  160.5980  206.3310  148.4640 C   0  0  0  0  0  2  0  0  0  0  0  0
  160.3690  205.0650  149.0370 O   0  0  0  0  0  0  0  0  0  0  0  0
  162.6440  204.8710  148.2520 C   0  0  0  0  0  1  0  0  0  0  0  0
  162.0640  204.8180  150.5370 O   0  0  0  0  0  1  0  0  0  0  0  0
  161.6030  204.4130  149.2820 C   0  0  1  0  0  0  0  0  0  0  0  0
  161.4500  202.8570  149.2840 C   0  0  1  0  0  3  0  0  0  0  0  0
  161.0160  202.3160  150.6560 C   0  0  0  0  0  2  0  0  0  0  0  0
  160.2860  203.2740  151.3600 O   0  0  0  0  0  1  0  0  0  0  0  0
  160.5370  202.2970  148.1610 C   0  0  2  0  0  3  0  0  0  0  0  0
  158.3930  201.3720  148.6030 O   0  0  0  0  0  0  0  0  0  0  0  0
  159.6040  201.2330  148.6760 C   0  0  0  0  0  3  0  0  0  0  0  0
  161.1530  200.4660  146.6660 O   0  0  0  0  0  1  0  0  0  0  0  0
  161.3110  201.8340  146.9090 C   0  0  1  0  0  3  0  0  0  0  0  0
  161.0250  202.6630  145.6480 C   0  0  2  0  0  3  0  0  0  0  0  0
  160.0370  206.0590  145.0180 O   0  0  0  0  0  1  0  0  0  0  0  0
  160.9020  204.0820  145.9800 N   0  0  0  0  0  0  0  0  0  0  0  0
  161.6910  204.9130  143.8920 O   0  0  0  0  0  0  0  0  0  0  0  0
  161.9510  204.8200  145.2640 C   0  0  1  0  0  3  0  0  0  0  0  0
  160.5890  204.8100  144.7450 C   0  0  1  0  0  0  0  0  0  0  0  0
  159.6240  200.7960  145.0830 O   0  0  0  0  0  1  0  0  0  0  0  0
  159.7650  202.1770  144.9370 C   0  0  0  0  0  2  0  0  0  0  0  0
  159.7980  210.0500  152.9910 N   0  0  0  0  0  2  0  0  0  0  0  0
  159.9590  211.5060  153.0290 C   0  0  0  0  0  0  0  0  0  0  0  0
  160.7590  211.9140  151.9570 O   0  0  0  0  0  1  0  0  0  0  0  0
  160.5640  211.8960  154.2310 O   0  0  0  0  0  1  0  0  0  0  0  0
  158.5730  212.1650  152.8990 C   0  0  1  0  0  3  0  0  0  0  0  0
  158.5170  213.5840  154.7760 O   0  0  0  0  0  0  0  0  0  0  0  0
  158.0010  212.6340  154.2100 C   0  0  0  0  0  0  0  0  0  0  0  0
  157.1660  211.4030  156.0750 O   0  0  0  0  0  1  0  0  0  0  0  0
  156.8230  211.9370  154.8310 C   0  0  1  0  0  3  0  0  0  0  0  0
  155.6110  212.8550  154.9540 C   0  0  0  0  0  2  0  0  0  0  0  0
  155.3650  213.5200  153.7490 O   0  0  0  0  0  1  0  0  0  0  0  0
  159.5350  213.9390  151.6320 O   0  0  0  0  0  0  0  0  0  0  0  0
  158.5110  213.2400  151.8560 C   0  0  0  0  0  0  0  0  0  0  0  0
  157.3430  213.4300  151.1130 O   0  0  0  0  0  0  0  0  0  0  0  0
  156.9630  213.8890  148.7810 C   0  0  1  0  0  3  0  0  0  0  0  0
  157.2360  214.4530  150.1300 C   0  0  1  0  0  3  0  0  0  0  0  0
  156.8600  212.5090  148.8000 F   0  0  0  0  0  0  0  0  0  0  0  0
  155.9410  214.4370  149.5780 O   0  0  0  0  0  0  0  0  0  0  0  0
  1  5  1  0  0  0  0
  2 33  1  1  0  0  0
  2  3  1  0  0  0  0
  3  5  1  0  0  0  0
  4  1  1  0  0  0  0
  5  7  1  0  0  0  0
  6  8  1  6  0  0  0
  6  4  1  0  0  0  0
  6  2  1  0  0  0  0
  9 10  1  1  0  0  0
  9 11  1  0  0  0  0
  9  8  1  0  0  0  0
 12 13  1  0  0  0  0
 12 11  1  0  0  0  0
 13 16  1  0  0  0  0
 16 14  1  6  0  0  0
 16 17  1  0  0  0  0
 16 15  1  0  0  0  0
 17 18  1  1  0  0  0
 18 19  1  0  0  0  0
 20 22  1  1  0  0  0
 20 17  1  0  0  0  0
 21 22  2  0  0  0  0
 24 23  1  6  0  0  0
 24 20  1  0  0  0  0
 25 32  1  1  0  0  0
 25 27  1  0  0  0  0
 25 24  1  0  0  0  0
 28 30  1  0  0  0  0
 29 28  1  6  0  0  0
 29 27  1  0  0  0  0
 30 26  1  1  0  0  0
 30 29  1  0  0  0  0
 30 27  1  0  0  0  0
 32 31  1  0  0  0  0
 33 34  1  0  0  0  0
 34 36  1  0  0  0  0
 35 34  1  0  0  0  0
 37 45  1  6  0  0  0
 37 34  1  0  0  0  0
 37 39  1  0  0  0  0
 39 38  2  0  0  0  0
 39 41  1  0  0  0  0
 41 42  1  0  0  0  0
 41 40  1  1  0  0  0
 43 42  1  0  0  0  0
 44 45  2  0  0  0  0
 46 45  1  0  0  0  0
 47 49  1  1  0  0  0
 47 50  1  0  0  0  0
 47 48  1  0  0  0  0
 48 46  1  1  0  0  0
 50 48  1  0  0  0  0
M  END
>  <MODEL>
6

>  <REMARK>
 VINA RESULT:      -4.0      1.537      1.849
  Name = 
  23 active torsions:
  status: ('A' for Active; 'I' for Inactive)
    1  A    between atoms: N_1  and  C_17
    2  A    between atoms: N_1  and  C_37
    3  A    between atoms: C_2  and  C_37
    4  A    between atoms: C_2  and  C_39
    5  A    between atoms: C_2  and  C_45
    6  A    between atoms: C_4  and  N_8
    7  A    between atoms: C_4  and  C_15
    8  A    between atoms: C_4  and  C_50
    9  A    between atoms: C_9  and  C_33
   10  A    between atoms: C_10  and  C_22
   11  A    between atoms: C_10  and  C_39
   12  A    between atoms: C_11  and  C_20
   13  A    between atoms: C_11  and  C_47
   14  A    between atoms: C_12  and  C_15
   15  A    between atoms: C_12  and  C_33
   16  A    between atoms: C_12  and  C_40
   17  A    between atoms: C_18  and  O_25
   18  A    between atoms: C_20  and  C_21
   19  A    between atoms: C_21  and  O_27
   20  A    between atoms: O_25  and  C_45
   21  A    between atoms: O_27  and  C_38
   22  A    between atoms: C_33  and  C_38
   23  A    between atoms: C_36  and  C_47
                            x       y       z     vdW  Elec       q    Type
                         _______ _______ _______ _____ _____    ______ ____

>  <TORSDO>
F 23

$$$$
=
 OpenBabel11072412093D

 50 53  0  0  1  0  0  0  0  0999 V2000
  161.1020  206.1550  153.8170 C   0  0  0  0  0  2  0  0  0  0  0  0
  161.2120  208.8990  152.9820 C   0  0  1  0  0  3  0  0  0  0  0  0
  161.2470  208.3970  154.3030 O   0  0  0  0  0  0  0  0  0  0  0  0
  161.9110  206.5030  152.5630 C   0  0  0  0  0  2  0  0  0  0  0  0
  160.4020  207.3280  154.3480 N   0  0  0  0  0  0  0  0  0  0  0  0
  161.4010  207.7950  151.9270 C   0  0  2  0  0  3  0  0  0  0  0  0
  160.1570  207.0760  155.6540 O   0  0  0  0  0  1  0  0  0  0  0  0
  162.2820  208.2510  150.7620 C   0  0  0  0  0  2  0  0  0  0  0  0
  161.5820  208.1740  149.4040 C   0  0  1  0  0  3  0  0  0  0  0  0
  162.3950  208.6870  148.3910 O   0  0  0  0  0  1  0  0  0  0  0  0
  161.1720  206.7420  149.0800 C   0  0  0  0  0  2  0  0  0  0  0  0
  160.7800  206.5850  147.6190 C   0  0  0  0  0  2  0  0  0  0  0  0
  160.5950  205.2210  147.3210 O   0  0  0  0  0  0  0  0  0  0  0  0
  159.9190  204.9110  145.0250 C   0  0  0  0  0  1  0  0  0  0  0  0
  161.9260  205.9860  145.6400 O   0  0  0  0  0  1  0  0  0  0  0  0
  161.0840  204.9380  146.0220 C   0  0  1  0  0  0  0  0  0  0  0  0
  161.8990  203.6040  145.9830 C   0  0  1  0  0  3  0  0  0  0  0  0
  163.2220  203.7060  146.7600 C   0  0  0  0  0  2  0  0  0  0  0  0
  164.0740  204.6400  146.1700 O   0  0  0  0  0  1  0  0  0  0  0  0
  161.1010  202.3480  146.4230 C   0  0  2  0  0  3  0  0  0  0  0  0
  160.4570  200.5930  144.9550 O   0  0  0  0  0  0  0  0  0  0  0  0
  160.3090  201.7600  145.2850 C   0  0  0  0  0  3  0  0  0  0  0  0
  158.9220  202.1210  147.5020 O   0  0  0  0  0  1  0  0  0  0  0  0
  160.2330  202.5760  147.6770 C   0  0  1  0  0  3  0  0  0  0  0  0
  160.8450  202.0310  148.9770 C   0  0  2  0  0  3  0  0  0  0  0  0
  162.4760  203.4190  151.8610 O   0  0  0  0  0  1  0  0  0  0  0  0
  161.4500  203.1120  149.7550 N   0  0  0  0  0  0  0  0  0  0  0  0
  160.3050  202.6450  151.7910 O   0  0  0  0  0  0  0  0  0  0  0  0
  160.4740  203.5690  150.7530 C   0  0  1  0  0  3  0  0  0  0  0  0
  161.5470  202.6650  151.1490 C   0  0  1  0  0  0  0  0  0  0  0  0
  161.2910  199.8810  148.0030 O   0  0  0  0  0  1  0  0  0  0  0  0
  161.8780  200.9440  148.6920 C   0  0  0  0  0  2  0  0  0  0  0  0
  159.9660  209.6240  152.7410 N   0  0  0  0  0  2  0  0  0  0  0  0
  160.2070  211.0700  152.7200 C   0  0  0  0  0  0  0  0  0  0  0  0
  160.9300  211.4040  151.5690 O   0  0  0  0  0  1  0  0  0  0  0  0
  160.9370  211.4560  153.8520 O   0  0  0  0  0  1  0  0  0  0  0  0
  158.8520  211.8000  152.6900 C   0  0  1  0  0  3  0  0  0  0  0  0
  158.3820  213.1610  154.5520 O   0  0  0  0  0  0  0  0  0  0  0  0
  158.2710  212.0520  154.0560 C   0  0  0  0  0  0  0  0  0  0  0  0
  158.3290  210.5780  155.9310 O   0  0  0  0  0  1  0  0  0  0  0  0
  157.5790  210.9530  154.8140 C   0  0  1  0  0  3  0  0  0  0  0  0
  156.1620  211.3400  155.2220 C   0  0  0  0  0  2  0  0  0  0  0  0
  155.2420  210.3740  154.8040 O   0  0  0  0  0  1  0  0  0  0  0  0
  159.0730  214.1570  152.4130 O   0  0  0  0  0  0  0  0  0  0  0  0
  158.8560  213.0470  151.8570 C   0  0  0  0  0  0  0  0  0  0  0  0
  158.6660  212.9690  150.4750 O   0  0  0  0  0  0  0  0  0  0  0  0
  158.3960  213.8000  148.2330 C   0  0  1  0  0  3  0  0  0  0  0  0
  158.4110  214.1230  149.6840 C   0  0  1  0  0  3  0  0  0  0  0  0
  158.6140  212.4550  147.9920 F   0  0  0  0  0  0  0  0  0  0  0  0
  157.2090  213.9470  148.9740 O   0  0  0  0  0  0  0  0  0  0  0  0
  1  5  1  0  0  0  0
  2 33  1  6  0  0  0
  2  3  1  0  0  0  0
  3  5  1  0  0  0  0
  4  1  1  0  0  0  0
  5  7  1  0  0  0  0
  6  8  1  6  0  0  0
  6  4  1  0  0  0  0
  6  2  1  0  0  0  0
  9 10  1  6  0  0  0
  9  8  1  0  0  0  0
 11  9  1  0  0  0  0
 12 11  1  0  0  0  0
 13 12  1  0  0  0  0
 15 16  1  0  0  0  0
 16 14  1  6  0  0  0
 16 13  1  0  0  0  0
 17 16  1  0  0  0  0
 17 20  1  0  0  0  0
 17 18  1  1  0  0  0
 19 18  1  0  0  0  0
 20 22  1  6  0  0  0
 20 24  1  0  0  0  0
 21 22  2  0  0  0  0
 24 23  1  6  0  0  0
 24 25  1  0  0  0  0
 25 32  1  6  0  0  0
 25 27  1  0  0  0  0
 27 29  1  0  0  0  0
 27 30  1  0  0  0  0
 29 30  1  0  0  0  0
 29 28  1  6  0  0  0
 30 28  1  0  0  0  0
 30 26  1  1  0  0  0
 31 32  1  0  0  0  0
 34 33  1  0  0  0  0
 34 36  1  0  0  0  0
 35 34  1  0  0  0  0
 37 45  1  1  0  0  0
 37 34  1  0  0  0  0
 37 39  1  0  0  0  0
 39 38  2  0  0  0  0
 39 41  1  0  0  0  0
 41 42  1  0  0  0  0
 41 40  1  1  0  0  0
 43 42  1  0  0  0  0
 45 44  2  0  0  0  0
 46 45  1  0  0  0  0
 47 49  1  1  0  0  0
 47 50  1  0  0  0  0
 47 48  1  0  0  0  0
 48 46  1  1  0  0  0
 50 48  1  0  0  0  0
M  END
>  <MODEL>
7

>  <REMARK>
 VINA RESULT:      -4.0      1.638      3.527
  Name = 
  23 active torsions:
  status: ('A' for Active; 'I' for Inactive)
    1  A    between atoms: N_1  and  C_17
    2  A    between atoms: N_1  and  C_37
    3  A    between atoms: C_2  and  C_37
    4  A    between atoms: C_2  and  C_39
    5  A    between atoms: C_2  and  C_45
    6  A    between atoms: C_4  and  N_8
    7  A    between atoms: C_4  and  C_15
    8  A    between atoms: C_4  and  C_50
    9  A    between atoms: C_9  and  C_33
   10  A    between atoms: C_10  and  C_22
   11  A    between atoms: C_10  and  C_39
   12  A    between atoms: C_11  and  C_20
   13  A    between atoms: C_11  and  C_47
   14  A    between atoms: C_12  and  C_15
   15  A    between atoms: C_12  and  C_33
   16  A    between atoms: C_12  and  C_40
   17  A    between atoms: C_18  and  O_25
   18  A    between atoms: C_20  and  C_21
   19  A    between atoms: C_21  and  O_27
   20  A    between atoms: O_25  and  C_45
   21  A    between atoms: O_27  and  C_38
   22  A    between atoms: C_33  and  C_38
   23  A    between atoms: C_36  and  C_47
                            x       y       z     vdW  Elec       q    Type
                         _______ _______ _______ _____ _____    ______ ____

>  <TORSDO>
F 23

$$$$
=
 OpenBabel11072412093D

 50 53  0  0  1  0  0  0  0  0999 V2000
  161.3330  206.8710  153.2260 C   0  0  0  0  0  2  0  0  0  0  0  0
  161.0500  209.7170  153.4680 C   0  0  1  0  0  3  0  0  0  0  0  0
  161.1110  208.7640  154.5110 O   0  0  0  0  0  0  0  0  0  0  0  0
  162.1260  207.7660  152.2680 C   0  0  0  0  0  2  0  0  0  0  0  0
  160.4400  207.6570  154.0820 N   0  0  0  0  0  0  0  0  0  0  0  0
  161.4470  209.1240  152.1040 C   0  0  2  0  0  3  0  0  0  0  0  0
  160.1870  206.9040  155.1770 O   0  0  0  0  0  1  0  0  0  0  0  0
  162.2920  210.0940  151.2750 C   0  0  0  0  0  2  0  0  0  0  0  0
  161.7900  210.2620  149.8400 C   0  0  1  0  0  3  0  0  0  0  0  0
  162.8040  210.7410  149.0070 O   0  0  0  0  0  1  0  0  0  0  0  0
  161.2340  208.9510  149.2970 C   0  0  0  0  0  2  0  0  0  0  0  0
  161.9710  208.5010  148.0450 C   0  0  0  0  0  2  0  0  0  0  0  0
  161.1350  207.6710  147.2750 O   0  0  0  0  0  0  0  0  0  0  0  0
  162.7100  206.1570  148.3030 C   0  0  0  0  0  1  0  0  0  0  0  0
  160.3760  205.9620  148.5730 O   0  0  0  0  0  1  0  0  0  0  0  0
  161.3420  206.3140  147.6270 C   0  0  1  0  0  0  0  0  0  0  0  0
  161.2030  205.3630  146.3940 C   0  0  1  0  0  3  0  0  0  0  0  0
  161.7690  205.9900  145.1090 C   0  0  0  0  0  2  0  0  0  0  0  0
  161.0500  205.5650  143.9910 O   0  0  0  0  0  1  0  0  0  0  0  0
  161.7810  203.9390  146.6090 C   0  0  2  0  0  3  0  0  0  0  0  0
  163.8340  204.5830  145.5960 O   0  0  0  0  0  0  0  0  0  0  0  0
  163.0080  203.6990  145.7680 C   0  0  0  0  0  3  0  0  0  0  0  0
  160.7760  202.2410  145.1700 O   0  0  0  0  0  1  0  0  0  0  0  0
  160.7360  202.8170  146.4440 C   0  0  1  0  0  3  0  0  0  0  0  0
  160.7820  201.7450  147.5430 C   0  0  2  0  0  3  0  0  0  0  0  0
  161.4720  201.7060  151.0690 O   0  0  0  0  0  1  0  0  0  0  0  0
  160.9580  202.3620  148.8580 N   0  0  0  0  0  0  0  0  0  0  0  0
  159.5970  200.8190  150.0590 O   0  0  0  0  0  0  0  0  0  0  0  0
  159.7330  202.1470  149.6400 C   0  0  1  0  0  3  0  0  0  0  0  0
  160.8970  201.2990  149.8670 C   0  0  1  0  0  0  0  0  0  0  0  0
  161.3470  199.4900  146.9400 O   0  0  0  0  0  1  0  0  0  0  0  0
  161.8900  200.7290  147.2840 C   0  0  0  0  0  2  0  0  0  0  0  0
  159.7170  210.3120  153.3930 N   0  0  0  0  0  2  0  0  0  0  0  0
  159.7520  211.7100  153.8320 C   0  0  0  0  0  0  0  0  0  0  0  0
  160.3370  212.4960  152.8340 O   0  0  0  0  0  1  0  0  0  0  0  0
  160.4990  211.8290  155.0120 O   0  0  0  0  0  1  0  0  0  0  0  0
  158.3100  212.1940  154.0700 C   0  0  1  0  0  3  0  0  0  0  0  0
  158.6440  212.9150  156.2850 O   0  0  0  0  0  0  0  0  0  0  0  0
  157.9320  212.2800  155.5250 C   0  0  0  0  0  0  0  0  0  0  0  0
  155.9420  212.4460  156.8300 O   0  0  0  0  0  1  0  0  0  0  0  0
  156.7090  211.5800  156.0470 C   0  0  1  0  0  3  0  0  0  0  0  0
  155.8670  210.9810  154.9250 C   0  0  0  0  0  2  0  0  0  0  0  0
  154.9970  210.0060  155.4210 O   0  0  0  0  0  1  0  0  0  0  0  0
  157.3210  214.3590  153.9370 O   0  0  0  0  0  0  0  0  0  0  0  0
  157.9680  213.4570  153.3380 C   0  0  0  0  0  0  0  0  0  0  0  0
  158.4030  213.6480  152.0240 O   0  0  0  0  0  0  0  0  0  0  0  0
  158.2370  214.4220  149.7520 C   0  0  1  0  0  3  0  0  0  0  0  0
  157.5070  214.0090  150.9800 C   0  0  1  0  0  3  0  0  0  0  0  0
  159.6100  214.3410  149.9040 F   0  0  0  0  0  0  0  0  0  0  0  0
  157.6840  213.1350  149.8910 O   0  0  0  0  0  0  0  0  0  0  0  0
  1  5  1  0  0  0  0
  2 33  1  6  0  0  0
  2  3  1  0  0  0  0
  4  1  1  0  0  0  0
  5  3  1  0  0  0  0
  5  7  1  0  0  0  0
  6  8  1  1  0  0  0
  6  4  1  0  0  0  0
  6  2  1  0  0  0  0
  9 10  1  6  0  0  0
  9  8  1  0  0  0  0
 11  9  1  0  0  0  0
 12 11  1  0  0  0  0
 13 16  1  0  0  0  0
 13 12  1  0  0  0  0
 16 14  1  1  0  0  0
 16 15  1  0  0  0  0
 17 18  1  6  0  0  0
 17 20  1  0  0  0  0
 17 16  1  0  0  0  0
 19 18  1  0  0  0  0
 20 22  1  6  0  0  0
 21 22  2  0  0  0  0
 24 23  1  6  0  0  0
 24 20  1  0  0  0  0
 24 25  1  0  0  0  0
 25 32  1  6  0  0  0
 25 27  1  0  0  0  0
 27 29  1  0  0  0  0
 27 30  1  0  0  0  0
 29 30  1  0  0  0  0
 29 28  1  6  0  0  0
 30 28  1  0  0  0  0
 30 26  1  1  0  0  0
 31 32  1  0  0  0  0
 33 34  1  0  0  0  0
 34 37  1  0  0  0  0
 34 36  1  0  0  0  0
 35 34  1  0  0  0  0
 37 45  1  1  0  0  0
 37 39  1  0  0  0  0
 39 41  1  0  0  0  0
 39 38  2  0  0  0  0
 41 40  1  6  0  0  0
 42 43  1  0  0  0  0
 42 41  1  0  0  0  0
 45 44  2  0  0  0  0
 46 45  1  0  0  0  0
 47 50  1  0  0  0  0
 47 49  1  1  0  0  0
 47 48  1  0  0  0  0
 48 46  1  1  0  0  0
 50 48  1  0  0  0  0
M  END
>  <MODEL>
8

>  <REMARK>
 VINA RESULT:      -3.9      1.753      3.723
  Name = 
  23 active torsions:
  status: ('A' for Active; 'I' for Inactive)
    1  A    between atoms: N_1  and  C_17
    2  A    between atoms: N_1  and  C_37
    3  A    between atoms: C_2  and  C_37
    4  A    between atoms: C_2  and  C_39
    5  A    between atoms: C_2  and  C_45
    6  A    between atoms: C_4  and  N_8
    7  A    between atoms: C_4  and  C_15
    8  A    between atoms: C_4  and  C_50
    9  A    between atoms: C_9  and  C_33
   10  A    between atoms: C_10  and  C_22
   11  A    between atoms: C_10  and  C_39
   12  A    between atoms: C_11  and  C_20
   13  A    between atoms: C_11  and  C_47
   14  A    between atoms: C_12  and  C_15
   15  A    between atoms: C_12  and  C_33
   16  A    between atoms: C_12  and  C_40
   17  A    between atoms: C_18  and  O_25
   18  A    between atoms: C_20  and  C_21
   19  A    between atoms: C_21  and  O_27
   20  A    between atoms: O_25  and  C_45
   21  A    between atoms: O_27  and  C_38
   22  A    between atoms: C_33  and  C_38
   23  A    between atoms: C_36  and  C_47
                            x       y       z     vdW  Elec       q    Type
                         _______ _______ _______ _____ _____    ______ ____

>  <TORSDO>
F 23

$$$$
=
 OpenBabel11072412093D

 50 53  0  0  1  0  0  0  0  0999 V2000
  160.5900  206.6290  154.7820 C   0  0  0  0  0  2  0  0  0  0  0  0
  160.4700  209.4950  154.9050 C   0  0  1  0  0  3  0  0  0  0  0  0
  160.8280  208.6000  155.9400 O   0  0  0  0  0  0  0  0  0  0  0  0
  161.0680  207.4320  153.5670 C   0  0  0  0  0  2  0  0  0  0  0  0
  160.0280  207.5030  155.8160 N   0  0  0  0  0  0  0  0  0  0  0  0
  160.4070  208.8080  153.5290 C   0  0  2  0  0  3  0  0  0  0  0  0
  160.1090  206.8250  156.9840 O   0  0  0  0  0  1  0  0  0  0  0  0
  160.9770  209.6910  152.4160 C   0  0  0  0  0  2  0  0  0  0  0  0
  161.2600  208.9270  151.1210 C   0  0  1  0  0  3  0  0  0  0  0  0
  161.0400  209.7360  150.0030 O   0  0  0  0  0  1  0  0  0  0  0  0
  162.6820  208.3800  151.1070 C   0  0  0  0  0  2  0  0  0  0  0  0
  162.7220  206.9240  150.6680 C   0  0  0  0  0  2  0  0  0  0  0  0
  161.4370  206.3600  150.7790 O   0  0  0  0  0  0  0  0  0  0  0  0
  159.9960  205.9030  148.8970 C   0  0  0  0  0  1  0  0  0  0  0  0
  162.3190  205.5020  148.8640 O   0  0  0  0  0  1  0  0  0  0  0  0
  161.2120  205.4520  149.7150 C   0  0  1  0  0  0  0  0  0  0  0  0
  161.0420  203.9840  150.2260 C   0  0  1  0  0  3  0  0  0  0  0  0
  160.1110  203.8970  151.4470 C   0  0  0  0  0  2  0  0  0  0  0  0
  160.8470  203.7520  152.6240 O   0  0  0  0  0  1  0  0  0  0  0  0
  160.6120  202.9670  149.1360 C   0  0  2  0  0  3  0  0  0  0  0  0
  159.2640  201.0090  149.1050 O   0  0  0  0  0  0  0  0  0  0  0  0
  160.0390  201.7100  149.7370 C   0  0  0  0  0  3  0  0  0  0  0  0
  162.3280  201.4280  148.3300 O   0  0  0  0  0  1  0  0  0  0  0  0
  161.7160  202.6650  148.1030 C   0  0  1  0  0  3  0  0  0  0  0  0
  161.2680  202.8070  146.6410 C   0  0  2  0  0  3  0  0  0  0  0  0
  161.3660  205.5500  144.3220 O   0  0  0  0  0  1  0  0  0  0  0  0
  161.1760  204.2180  146.2650 N   0  0  0  0  0  0  0  0  0  0  0  0
  163.1780  204.2800  144.9740 O   0  0  0  0  0  0  0  0  0  0  0  0
  162.5370  204.7520  146.1250 C   0  0  1  0  0  3  0  0  0  0  0  0
  161.7830  204.3720  144.9370 C   0  0  1  0  0  0  0  0  0  0  0  0
  159.8870  201.5830  145.1030 O   0  0  0  0  0  1  0  0  0  0  0  0
  159.9350  202.1070  146.3970 C   0  0  0  0  0  2  0  0  0  0  0  0
  159.1960  210.1450  155.2060 N   0  0  0  0  0  2  0  0  0  0  0  0
  159.4190  211.4320  155.8710 C   0  0  0  0  0  0  0  0  0  0  0  0
  160.7130  211.8840  155.5870 O   0  0  0  0  0  1  0  0  0  0  0  0
  159.2720  211.2930  157.2570 O   0  0  0  0  0  1  0  0  0  0  0  0
  158.4020  212.4550  155.3320 C   0  0  1  0  0  3  0  0  0  0  0  0
  157.1700  213.5630  157.0030 O   0  0  0  0  0  0  0  0  0  0  0  0
  157.1960  212.6320  156.2170 C   0  0  0  0  0  0  0  0  0  0  0  0
  155.1990  211.8360  157.2510 O   0  0  0  0  0  1  0  0  0  0  0  0
  156.0450  211.6680  156.1520 C   0  0  1  0  0  3  0  0  0  0  0  0
  155.2650  211.7900  154.8470 C   0  0  0  0  0  2  0  0  0  0  0  0
  155.2110  213.1200  154.4220 O   0  0  0  0  0  1  0  0  0  0  0  0
  159.5940  214.4530  155.8490 O   0  0  0  0  0  0  0  0  0  0  0  0
  159.0100  213.7740  154.9620 C   0  0  0  0  0  0  0  0  0  0  0  0
  158.9660  214.2210  153.6390 O   0  0  0  0  0  0  0  0  0  0  0  0
  158.7790  213.5310  151.3410 C   0  0  1  0  0  3  0  0  0  0  0  0
  158.1160  213.6190  152.6700 C   0  0  1  0  0  3  0  0  0  0  0  0
  160.0670  214.0350  151.3620 F   0  0  0  0  0  0  0  0  0  0  0  0
  158.7040  212.4260  152.2090 O   0  0  0  0  0  0  0  0  0  0  0  0
  1  5  1  0  0  0  0
  2 33  1  1  0  0  0
  2  3  1  0  0  0  0
  4  1  1  0  0  0  0
  5  3  1  0  0  0  0
  5  7  1  0  0  0  0
  6  8  1  6  0  0  0
  6  4  1  0  0  0  0
  6  2  1  0  0  0  0
  9 10  1  6  0  0  0
  9  8  1  0  0  0  0
 11  9  1  0  0  0  0
 12 13  1  0  0  0  0
 12 11  1  0  0  0  0
 15 16  1  0  0  0  0
 16 14  1  6  0  0  0
 16 17  1  0  0  0  0
 16 13  1  0  0  0  0
 17 18  1  1  0  0  0
 18 19  1  0  0  0  0
 20 22  1  1  0  0  0
 20 17  1  0  0  0  0
 21 22  2  0  0  0  0
 24 23  1  6  0  0  0
 24 20  1  0  0  0  0
 25 32  1  1  0  0  0
 25 24  1  0  0  0  0
 27 25  1  0  0  0  0
 29 28  1  1  0  0  0
 29 27  1  0  0  0  0
 30 26  1  6  0  0  0
 30 28  1  0  0  0  0
 30 29  1  0  0  0  0
 30 27  1  0  0  0  0
 31 32  1  0  0  0  0
 33 34  1  0  0  0  0
 34 36  1  0  0  0  0
 35 34  1  0  0  0  0
 37 45  1  1  0  0  0
 37 34  1  0  0  0  0
 37 39  1  0  0  0  0
 39 38  2  0  0  0  0
 41 39  1  0  0  0  0
 41 40  1  1  0  0  0
 42 41  1  0  0  0  0
 43 42  1  0  0  0  0
 45 44  2  0  0  0  0
 46 45  1  0  0  0  0
 47 49  1  1  0  0  0
 47 50  1  0  0  0  0
 47 48  1  0  0  0  0
 48 46  1  1  0  0  0
 50 48  1  0  0  0  0
M  END
>  <MODEL>
9

>  <REMARK>
 VINA RESULT:      -3.8      1.777      2.516
  Name = 
  23 active torsions:
  status: ('A' for Active; 'I' for Inactive)
    1  A    between atoms: N_1  and  C_17
    2  A    between atoms: N_1  and  C_37
    3  A    between atoms: C_2  and  C_37
    4  A    between atoms: C_2  and  C_39
    5  A    between atoms: C_2  and  C_45
    6  A    between atoms: C_4  and  N_8
    7  A    between atoms: C_4  and  C_15
    8  A    between atoms: C_4  and  C_50
    9  A    between atoms: C_9  and  C_33
   10  A    between atoms: C_10  and  C_22
   11  A    between atoms: C_10  and  C_39
   12  A    between atoms: C_11  and  C_20
   13  A    between atoms: C_11  and  C_47
   14  A    between atoms: C_12  and  C_15
   15  A    between atoms: C_12  and  C_33
   16  A    between atoms: C_12  and  C_40
   17  A    between atoms: C_18  and  O_25
   18  A    between atoms: C_20  and  C_21
   19  A    between atoms: C_21  and  O_27
   20  A    between atoms: O_25  and  C_45
   21  A    between atoms: O_27  and  C_38
   22  A    between atoms: C_33  and  C_38
   23  A    between atoms: C_36  and  C_47
                            x       y       z     vdW  Elec       q    Type
                         _______ _______ _______ _____ _____    ______ ____

>  <TORSDO>
F 23

$$$$
