=
 OpenBabel11072412143D

 31 35  0  0  1  0  0  0  0  0999 V2000
  161.6200  207.0490  148.6170 C   0  0  0  0  0  0  0  0  0  0  0  0
  161.0640  205.1030  147.2930 C   0  0  0  0  0  0  0  0  0  0  0  0
  162.2010  208.8280  150.1880 N   0  0  0  0  0  0  0  0  0  0  0  0
  161.2700  204.5280  152.1940 C   0  0  0  0  0  2  0  0  0  0  0  0
  161.2600  205.6150  148.4820 C   0  0  0  0  0  0  0  0  0  0  0  0
  160.8710  204.5950  146.1070 C   0  0  0  0  0  3  0  0  0  0  0  0
  160.3540  202.7290  150.8270 N   0  0  0  0  0  2  0  0  0  0  0  0
  161.7870  207.8660  147.5020 O   0  0  0  0  0  1  0  0  0  0  0  0
  161.2750  203.0270  151.9190 C   0  0  0  0  0  2  0  0  0  0  0  0
  161.3840  205.3280  150.9220 C   0  0  0  0  0  0  0  0  0  0  0  0
  162.0070  207.5730  152.1220 C   0  0  2  0  0  3  0  0  0  0  0  0
  162.3470  208.9160  151.5880 N   0  0  0  0  0  0  0  0  0  0  0  0
  161.6480  206.7380  150.9840 N   0  0  0  0  0  0  0  0  0  0  0  0
  161.1560  204.7670  149.7100 C   0  0  0  0  0  0  0  0  0  0  0  0
  160.9240  203.2780  149.5980 C   0  0  0  0  0  2  0  0  0  0  0  0
  161.7940  207.5310  149.8450 C   0  0  0  0  0  0  0  0  0  0  0  0
  161.8700  204.7350  145.0450 C   0  0  0  0  0  0  0  0  0  0  0  0
  161.5310  205.2940  143.8170 O   0  0  0  0  0  0  0  0  0  0  0  0
  163.0470  204.3450  145.2480 O   0  0  0  0  0  1  0  0  0  0  0  0
  160.8260  207.6870  153.0740 C   0  0  0  0  0  2  0  0  0  0  0  0
  157.8690  211.8200  153.9740 C   0  0  0  0  0  3  0  0  0  0  0  0
  158.5660  211.6850  152.8280 C   0  0  0  0  0  3  0  0  0  0  0  0
  159.8440  209.8500  153.8640 C   0  0  1  0  0  3  0  0  0  0  0  0
  158.3320  211.1740  155.2260 C   0  0  0  0  0  0  0  0  0  0  0  0
  160.8570  208.3960  155.4560 C   0  0  0  0  0  2  0  0  0  0  0  0
  159.6680  210.4880  155.2230 C   0  0  1  0  0  0  0  0  0  0  0  0
  159.8230  209.3000  156.1470 C   0  0  0  0  0  2  0  0  0  0  0  0
  159.8590  210.8990  152.7540 C   0  0  0  0  0  2  0  0  0  0  0  0
  160.7610  211.5120  155.5370 C   0  0  0  0  0  1  0  0  0  0  0  0
  157.6490  211.2680  156.2790 O   0  0  0  0  0  0  0  0  0  0  0  0
  160.9910  208.8760  154.0080 C   0  0  1  0  0  3  0  0  0  0  0  0
  1 16  2  0  0  0  0
  2  5  2  0  0  0  0
  3 12  2  0  0  0  0
  5  1  1  0  0  0  0
  5 14  1  0  0  0  0
  6  2  2  0  0  0  0
  7  9  1  0  0  0  0
  8  1  1  0  0  0  0
  9  4  1  0  0  0  0
 10 13  1  0  0  0  0
 10  4  1  0  0  0  0
 11 20  1  1  0  0  0
 12 11  1  0  0  0  0
 13 11  1  0  0  0  0
 14 10  2  0  0  0  0
 15 14  1  0  0  0  0
 15  7  1  0  0  0  0
 16  3  1  0  0  0  0
 16 13  1  0  0  0  0
 17 19  1  0  0  0  0
 17  6  1  0  0  0  0
 18 17  2  0  0  0  0
 21 24  1  0  0  0  0
 22 21  2  0  0  0  0
 23 28  1  6  0  0  0
 23 31  1  0  0  0  0
 23 26  1  0  0  0  0
 24 30  2  0  0  0  0
 25 27  1  0  0  0  0
 26 24  1  0  0  0  0
 26 29  1  1  0  0  0
 26 27  1  0  0  0  0
 28 22  1  0  0  0  0
 31 20  1  6  0  0  0
 31 25  1  0  0  0  0
M  END
>  <MODEL>
1

>  <REMARK>
 VINA RESULT:      -9.7      0.000      0.000
  Name = 
  3 active torsions:
  status: ('A' for Active; 'I' for Inactive)
    1  A    between atoms: C_8  and  C_13
    2  A    between atoms: C_17  and  C_23
    3  A    between atoms: C_23  and  C_29
                            x       y       z     vdW  Elec       q    Type
                         _______ _______ _______ _____ _____    ______ ____

>  <TORSDO>
F 3

$$$$
=
 OpenBabel11072412143D

 31 35  0  0  1  0  0  0  0  0999 V2000
  160.8230  207.2380  153.7870 C   0  0  2  0  0  3  0  0  0  0  0  0
  160.5680  209.5540  154.4300 C   0  0  0  0  0  0  0  0  0  0  0  0
  161.2010  204.9990  152.8830 N   0  0  0  0  0  0  0  0  0  0  0  0
  161.9610  208.6310  149.7830 C   0  0  0  0  0  2  0  0  0  0  0  0
  160.8590  208.6910  153.4900 C   0  0  0  0  0  0  0  0  0  0  0  0
  160.2780  210.4130  155.3690 C   0  0  0  0  0  3  0  0  0  0  0  0
  161.3180  210.9010  150.3980 N   0  0  0  0  0  2  0  0  0  0  0  0
  160.5130  206.7620  155.0580 O   0  0  0  0  0  1  0  0  0  0  0  0
  162.3280  210.1100  149.7030 C   0  0  0  0  0  2  0  0  0  0  0  0
  161.5730  208.2280  151.1820 C   0  0  0  0  0  0  0  0  0  0  0  0
  161.7810  205.6530  150.7400 C   0  0  2  0  0  3  0  0  0  0  0  0
  161.6090  204.4810  151.6360 N   0  0  0  0  0  2  0  0  0  0  0  0
  161.4380  206.8380  151.5150 N   0  0  0  0  0  0  0  0  0  0  0  0
  161.2600  209.1500  152.1240 C   0  0  0  0  0  0  0  0  0  0  0  0
  161.4370  210.6220  151.8290 C   0  0  0  0  0  2  0  0  0  0  0  0
  161.1110  206.3960  152.7980 C   0  0  0  0  0  0  0  0  0  0  0  0
  160.9480  210.3750  156.6700 C   0  0  0  0  0  0  0  0  0  0  0  0
  161.4270  211.5410  157.2610 O   0  0  0  0  0  1  0  0  0  0  0  0
  161.0930  209.2750  157.2610 O   0  0  0  0  0  0  0  0  0  0  0  0
  160.8460  205.5240  149.5480 C   0  0  0  0  0  2  0  0  0  0  0  0
  160.4790  202.0290  145.7700 C   0  0  0  0  0  3  0  0  0  0  0  0
  160.9720  201.7090  146.9820 C   0  0  0  0  0  3  0  0  0  0  0  0
  161.1470  204.1120  147.5040 C   0  0  1  0  0  3  0  0  0  0  0  0
  160.5770  203.4130  145.2490 C   0  0  0  0  0  0  0  0  0  0  0  0
  161.3070  206.4800  147.3010 C   0  0  0  0  0  2  0  0  0  0  0  0
  161.3650  204.4180  146.0390 C   0  0  1  0  0  0  0  0  0  0  0  0
  160.9100  205.8590  145.9520 C   0  0  0  0  0  2  0  0  0  0  0  0
  161.6700  202.7230  147.8660 C   0  0  0  0  0  2  0  0  0  0  0  0
  162.8380  204.3340  145.6350 C   0  0  0  0  0  1  0  0  0  0  0  0
  160.0710  203.7110  144.1350 O   0  0  0  0  0  0  0  0  0  0  0  0
  161.6280  205.3290  148.2590 C   0  0  1  0  0  3  0  0  0  0  0  0
  1  8  1  1  0  0  0
  2  6  2  0  0  0  0
  4 10  1  0  0  0  0
  5  1  1  0  0  0  0
  5  2  2  0  0  0  0
  6 17  1  0  0  0  0
  7 15  1  0  0  0  0
  9  4  1  0  0  0  0
  9  7  1  0  0  0  0
 10 13  1  0  0  0  0
 10 14  2  0  0  0  0
 11 20  1  6  0  0  0
 11 13  1  0  0  0  0
 11 12  1  0  0  0  0
 12  3  1  0  0  0  0
 13 16  1  0  0  0  0
 14  5  1  0  0  0  0
 15 14  1  0  0  0  0
 16  3  2  0  0  0  0
 16  1  1  0  0  0  0
 17 19  2  0  0  0  0
 17 18  1  0  0  0  0
 21 22  2  0  0  0  0
 22 28  1  0  0  0  0
 23 28  1  1  0  0  0
 23 31  1  0  0  0  0
 24 21  1  0  0  0  0
 24 26  1  0  0  0  0
 25 31  1  0  0  0  0
 26 29  1  6  0  0  0
 26 23  1  0  0  0  0
 27 26  1  0  0  0  0
 27 25  1  0  0  0  0
 30 24  2  0  0  0  0
 31 20  1  1  0  0  0
M  END
>  <MODEL>
2

>  <REMARK>
 VINA RESULT:      -9.6      2.118      9.078
  Name = 
  3 active torsions:
  status: ('A' for Active; 'I' for Inactive)
    1  A    between atoms: C_8  and  C_13
    2  A    between atoms: C_17  and  C_23
    3  A    between atoms: C_23  and  C_29
                            x       y       z     vdW  Elec       q    Type
                         _______ _______ _______ _____ _____    ______ ____

>  <TORSDO>
F 3

$$$$
=
 OpenBabel11072412143D

 31 35  0  0  1  0  0  0  0  0999 V2000
  161.0480  204.7030  151.6570 C   0  0  0  0  0  0  0  0  0  0  0  0
  161.5350  204.0610  149.3780 C   0  0  0  0  0  0  0  0  0  0  0  0
  160.5500  205.6360  153.8610 N   0  0  0  0  0  0  0  0  0  0  0  0
  161.5950  208.8840  150.4360 C   0  0  0  0  0  2  0  0  0  0  0  0
  161.4030  205.0260  150.2530 C   0  0  0  0  0  0  0  0  0  0  0  0
  161.6640  203.0970  148.5070 C   0  0  0  0  0  3  0  0  0  0  0  0
  162.4390  208.1350  148.2740 N   0  0  0  0  0  2  0  0  0  0  0  0
  160.8200  203.3930  152.0690 O   0  0  0  0  0  1  0  0  0  0  0  0
  161.5780  209.1150  148.9270 C   0  0  0  0  0  2  0  0  0  0  0  0
  161.4110  207.4280  150.7780 C   0  0  0  0  0  0  0  0  0  0  0  0
  160.8500  207.8610  153.3020 C   0  0  2  0  0  3  0  0  0  0  0  0
  160.4800  206.9360  154.4030 N   0  0  0  0  0  0  0  0  0  0  0  0
  161.1490  207.0400  152.1360 N   0  0  0  0  0  0  0  0  0  0  0  0
  161.5740  206.4560  149.8490 C   0  0  0  0  0  0  0  0  0  0  0  0
  161.8020  206.8240  148.4010 C   0  0  0  0  0  2  0  0  0  0  0  0
  160.9400  205.7140  152.5160 C   0  0  0  0  0  0  0  0  0  0  0  0
  160.6100  202.1010  148.3090 C   0  0  0  0  0  0  0  0  0  0  0  0
  159.7530  201.7530  149.3490 O   0  0  0  0  0  1  0  0  0  0  0  0
  160.4770  201.5540  147.1850 O   0  0  0  0  0  0  0  0  0  0  0  0
  162.0800  208.6610  153.7010 C   0  0  0  0  0  2  0  0  0  0  0  0
  157.8470  211.6120  153.6900 C   0  0  0  0  0  3  0  0  0  0  0  0
  158.7350  211.6460  152.6770 C   0  0  0  0  0  3  0  0  0  0  0  0
  160.3380  210.4150  154.0880 C   0  0  1  0  0  3  0  0  0  0  0  0
  158.2720  211.2410  155.0610 C   0  0  0  0  0  0  0  0  0  0  0  0
  161.4760  209.4900  155.9650 C   0  0  0  0  0  2  0  0  0  0  0  0
  159.7370  211.0430  155.3250 C   0  0  1  0  0  0  0  0  0  0  0  0
  160.1050  210.0370  156.3940 C   0  0  0  0  0  2  0  0  0  0  0  0
  160.2040  211.3360  152.8760 C   0  0  0  0  0  2  0  0  0  0  0  0
  160.3730  212.3920  155.6680 C   0  0  0  0  0  1  0  0  0  0  0  0
  157.4250  211.1670  155.9910 O   0  0  0  0  0  0  0  0  0  0  0  0
  161.6930  209.8930  154.5040 C   0  0  1  0  0  3  0  0  0  0  0  0
  1  8  1  0  0  0  0
  1 16  2  0  0  0  0
  2  5  2  0  0  0  0
  3 12  2  0  0  0  0
  4 10  1  0  0  0  0
  5  1  1  0  0  0  0
  6  2  2  0  0  0  0
  7 15  1  0  0  0  0
  7  9  1  0  0  0  0
  9  4  1  0  0  0  0
 10 13  1  0  0  0  0
 11 20  1  1  0  0  0
 11 12  1  0  0  0  0
 13 16  1  0  0  0  0
 13 11  1  0  0  0  0
 14  5  1  0  0  0  0
 14 10  2  0  0  0  0
 15 14  1  0  0  0  0
 16  3  1  0  0  0  0
 17  6  1  0  0  0  0
 17 18  1  0  0  0  0
 19 17  2  0  0  0  0
 21 24  1  0  0  0  0
 22 28  1  0  0  0  0
 22 21  2  0  0  0  0
 23 28  1  6  0  0  0
 23 31  1  0  0  0  0
 23 26  1  0  0  0  0
 24 26  1  0  0  0  0
 24 30  2  0  0  0  0
 25 27  1  0  0  0  0
 26 29  1  1  0  0  0
 26 27  1  0  0  0  0
 31 20  1  6  0  0  0
 31 25  1  0  0  0  0
M  END
>  <MODEL>
3

>  <REMARK>
 VINA RESULT:      -7.8      2.272      3.389
  Name = 
  3 active torsions:
  status: ('A' for Active; 'I' for Inactive)
    1  A    between atoms: C_8  and  C_13
    2  A    between atoms: C_17  and  C_23
    3  A    between atoms: C_23  and  C_29
                            x       y       z     vdW  Elec       q    Type
                         _______ _______ _______ _____ _____    ______ ____

>  <TORSDO>
F 3

$$$$
=
 OpenBabel11072412143D

 31 35  0  0  1  0  0  0  0  0999 V2000
  161.3240  205.2210  149.6750 C   0  0  0  0  0  0  0  0  0  0  0  0
  161.8530  206.2580  147.5560 C   0  0  0  0  0  0  0  0  0  0  0  0
  160.7560  204.4510  151.9240 N   0  0  0  0  0  0  0  0  0  0  0  0
  161.4740  209.2130  151.4950 C   0  0  0  0  0  2  0  0  0  0  0  0
  161.6390  206.4060  148.8390 C   0  0  0  0  0  0  0  0  0  0  0  0
  162.0660  206.1080  146.2770 C   0  0  0  0  0  3  0  0  0  0  0  0
  162.3700  210.1190  149.4160 N   0  0  0  0  0  2  0  0  0  0  0  0
  161.2200  203.9470  149.1240 O   0  0  0  0  0  1  0  0  0  0  0  0
  161.4260  210.3690  150.5000 C   0  0  0  0  0  2  0  0  0  0  0  0
  161.4280  207.8770  150.7990 C   0  0  0  0  0  0  0  0  0  0  0  0
  160.8460  206.5170  152.9620 C   0  0  2  0  0  3  0  0  0  0  0  0
  160.5700  205.0740  153.1760 N   0  0  0  0  0  0  0  0  0  0  0  0
  161.2120  206.6800  151.5620 N   0  0  0  0  0  0  0  0  0  0  0  0
  161.6740  207.7610  149.4720 C   0  0  0  0  0  0  0  0  0  0  0  0
  161.8580  209.0000  148.6260 C   0  0  0  0  0  2  0  0  0  0  0  0
  161.1280  205.4160  150.9770 C   0  0  0  0  0  0  0  0  0  0  0  0
  161.1060  205.4060  145.4220 C   0  0  0  0  0  0  0  0  0  0  0  0
  161.2970  204.0700  145.0820 O   0  0  0  0  0  1  0  0  0  0  0  0
  160.0980  206.0210  144.9900 O   0  0  0  0  0  0  0  0  0  0  0  0
  162.0000  206.9520  153.8530 C   0  0  0  0  0  2  0  0  0  0  0  0
  159.7260  211.5020  154.7220 C   0  0  0  0  0  3  0  0  0  0  0  0
  161.0360  211.4140  154.4160 C   0  0  0  0  0  3  0  0  0  0  0  0
  160.9340  208.9880  154.8440 C   0  0  1  0  0  3  0  0  0  0  0  0
  159.0250  210.3840  155.3960 C   0  0  0  0  0  0  0  0  0  0  0  0
  160.2670  206.8410  155.6310 C   0  0  0  0  0  2  0  0  0  0  0  0
  159.8370  209.2100  155.8610 C   0  0  1  0  0  0  0  0  0  0  0  0
  159.1440  207.8650  155.8680 C   0  0  0  0  0  2  0  0  0  0  0  0
  161.8670  210.1950  154.7610 C   0  0  0  0  0  2  0  0  0  0  0  0
  160.3840  209.4980  157.2610 C   0  0  0  0  0  1  0  0  0  0  0  0
  157.7910  210.4590  155.6350 O   0  0  0  0  0  0  0  0  0  0  0  0
  161.4890  207.6120  155.1250 C   0  0  1  0  0  3  0  0  0  0  0  0
  1 16  2  0  0  0  0
  2  5  2  0  0  0  0
  3 12  2  0  0  0  0
  5 14  1  0  0  0  0
  5  1  1  0  0  0  0
  6  2  2  0  0  0  0
  7  9  1  0  0  0  0
  8  1  1  0  0  0  0
  9  4  1  0  0  0  0
 10  4  1  0  0  0  0
 10 13  1  0  0  0  0
 11 12  1  0  0  0  0
 11 20  1  1  0  0  0
 13 11  1  0  0  0  0
 14 10  2  0  0  0  0
 15  7  1  0  0  0  0
 15 14  1  0  0  0  0
 16 13  1  0  0  0  0
 16  3  1  0  0  0  0
 17  6  1  0  0  0  0
 18 17  1  0  0  0  0
 19 17  2  0  0  0  0
 21 24  1  0  0  0  0
 22 21  2  0  0  0  0
 22 28  1  0  0  0  0
 23 28  1  1  0  0  0
 23 31  1  0  0  0  0
 23 26  1  0  0  0  0
 24 30  2  0  0  0  0
 24 26  1  0  0  0  0
 25 27  1  0  0  0  0
 26 27  1  0  0  0  0
 26 29  1  1  0  0  0
 31 20  1  6  0  0  0
 31 25  1  0  0  0  0
M  END
>  <MODEL>
4

>  <REMARK>
 VINA RESULT:      -7.8      1.648      3.293
  Name = 
  3 active torsions:
  status: ('A' for Active; 'I' for Inactive)
    1  A    between atoms: C_8  and  C_13
    2  A    between atoms: C_17  and  C_23
    3  A    between atoms: C_23  and  C_29
                            x       y       z     vdW  Elec       q    Type
                         _______ _______ _______ _____ _____    ______ ____

>  <TORSDO>
F 3

$$$$
=
 OpenBabel11072412143D

 31 35  0  0  1  0  0  0  0  0999 V2000
  161.1850  203.9220  149.7280 C   0  0  0  0  0  0  0  0  0  0  0  0
  161.6960  204.3830  147.4100 C   0  0  0  0  0  0  0  0  0  0  0  0
  160.6530  203.7560  152.1080 N   0  0  0  0  0  0  0  0  0  0  0  0
  161.6020  208.2210  150.5150 C   0  0  0  0  0  2  0  0  0  0  0  0
  161.5320  204.8490  148.6220 C   0  0  0  0  0  0  0  0  0  0  0  0
  161.8580  203.9150  146.2020 C   0  0  0  0  0  3  0  0  0  0  0  0
  162.4740  208.5420  148.2610 N   0  0  0  0  0  2  0  0  0  0  0  0
  160.9970  202.5610  149.5060 O   0  0  0  0  0  1  0  0  0  0  0  0
  161.5810  209.1030  149.2690 C   0  0  0  0  0  2  0  0  0  0  0  0
  161.4640  206.7620  150.1670 C   0  0  0  0  0  0  0  0  0  0  0  0
  160.8840  206.0030  152.6080 C   0  0  2  0  0  3  0  0  0  0  0  0
  160.5410  204.6730  153.1730 N   0  0  0  0  0  0  0  0  0  0  0  0
  161.2110  205.8000  151.2030 N   0  0  0  0  0  0  0  0  0  0  0  0
  161.6590  206.3130  148.9040 C   0  0  0  0  0  0  0  0  0  0  0  0
  161.8790  207.2970  147.7780 C   0  0  0  0  0  2  0  0  0  0  0  0
  161.0430  204.4390  150.9470 C   0  0  0  0  0  0  0  0  0  0  0  0
  160.8360  203.0840  145.5630 C   0  0  0  0  0  0  0  0  0  0  0  0
  160.0700  203.5780  144.5110 O   0  0  0  0  0  0  0  0  0  0  0  0
  160.6480  201.9100  145.9700 O   0  0  0  0  0  1  0  0  0  0  0  0
  162.0880  206.5730  153.3430 C   0  0  0  0  0  2  0  0  0  0  0  0
  159.9150  211.2210  153.8860 C   0  0  0  0  0  3  0  0  0  0  0  0
  161.2040  211.0830  153.5200 C   0  0  0  0  0  3  0  0  0  0  0  0
  161.1000  208.7120  154.1870 C   0  0  1  0  0  3  0  0  0  0  0  0
  159.2400  210.1850  154.7040 C   0  0  0  0  0  0  0  0  0  0  0  0
  160.4560  206.6620  155.2150 C   0  0  0  0  0  2  0  0  0  0  0  0
  160.0650  209.0480  155.2360 C   0  0  1  0  0  0  0  0  0  0  0  0
  159.3590  207.7210  155.4120 C   0  0  0  0  0  2  0  0  0  0  0  0
  162.0400  209.8900  153.9360 C   0  0  0  0  0  2  0  0  0  0  0  0
  160.6920  209.4620  156.5690 C   0  0  0  0  0  1  0  0  0  0  0  0
  158.0220  210.3020  155.0000 O   0  0  0  0  0  0  0  0  0  0  0  0
  161.6560  207.3600  154.5700 C   0  0  1  0  0  3  0  0  0  0  0  0
  1 16  2  0  0  0  0
  2  5  2  0  0  0  0
  3 12  2  0  0  0  0
  5 14  1  0  0  0  0
  5  1  1  0  0  0  0
  6  2  2  0  0  0  0
  7  9  1  0  0  0  0
  8  1  1  0  0  0  0
  9  4  1  0  0  0  0
 10  4  1  0  0  0  0
 10 13  1  0  0  0  0
 11 12  1  0  0  0  0
 11 20  1  1  0  0  0
 13 11  1  0  0  0  0
 14 10  2  0  0  0  0
 15  7  1  0  0  0  0
 15 14  1  0  0  0  0
 16 13  1  0  0  0  0
 16  3  1  0  0  0  0
 17 19  1  0  0  0  0
 17  6  1  0  0  0  0
 18 17  2  0  0  0  0
 21 24  1  0  0  0  0
 22 21  2  0  0  0  0
 22 28  1  0  0  0  0
 23 28  1  1  0  0  0
 23 31  1  0  0  0  0
 23 26  1  0  0  0  0
 24 30  2  0  0  0  0
 24 26  1  0  0  0  0
 25 27  1  0  0  0  0
 26 27  1  0  0  0  0
 26 29  1  1  0  0  0
 31 20  1  6  0  0  0
 31 25  1  0  0  0  0
M  END
>  <MODEL>
5

>  <REMARK>
 VINA RESULT:      -7.6      1.832      3.212
  Name = 
  3 active torsions:
  status: ('A' for Active; 'I' for Inactive)
    1  A    between atoms: C_8  and  C_13
    2  A    between atoms: C_17  and  C_23
    3  A    between atoms: C_23  and  C_29
                            x       y       z     vdW  Elec       q    Type
                         _______ _______ _______ _____ _____    ______ ____

>  <TORSDO>
F 3

$$$$
=
 OpenBabel11072412143D

 31 35  0  0  1  0  0  0  0  0999 V2000
  161.2080  204.9380  147.9970 C   0  0  2  0  0  3  0  0  0  0  0  0
  160.6140  202.6320  148.4190 C   0  0  0  0  0  0  0  0  0  0  0  0
  161.8630  207.2890  147.8660 N   0  0  0  0  0  0  0  0  0  0  0  0
  161.3930  205.5260  152.3440 C   0  0  0  0  0  2  0  0  0  0  0  0
  160.9120  203.8070  148.9120 C   0  0  0  0  0  0  0  0  0  0  0  0
  160.3170  201.4610  147.9240 C   0  0  0  0  0  3  0  0  0  0  0  0
  160.4290  203.3110  152.6770 N   0  0  0  0  0  2  0  0  0  0  0  0
  161.2060  204.7750  146.6150 O   0  0  0  0  0  1  0  0  0  0  0  0
  161.4480  204.2370  153.1600 C   0  0  0  0  0  2  0  0  0  0  0  0
  161.3220  205.2460  150.8650 C   0  0  0  0  0  0  0  0  0  0  0  0
  161.9530  207.6860  150.1440 C   0  0  2  0  0  3  0  0  0  0  0  0
  162.1580  208.2970  148.8060 N   0  0  0  0  0  2  0  0  0  0  0  0
  161.5140  206.3140  149.9240 N   0  0  0  0  0  0  0  0  0  0  0  0
  160.9910  204.0210  150.3910 C   0  0  0  0  0  0  0  0  0  0  0  0
  160.8280  202.8600  151.3450 C   0  0  0  0  0  2  0  0  0  0  0  0
  161.4910  206.1180  148.5430 C   0  0  0  0  0  0  0  0  0  0  0  0
  161.1830  200.8080  146.9400 C   0  0  0  0  0  0  0  0  0  0  0  0
  161.2060  201.2340  145.6150 O   0  0  0  0  0  0  0  0  0  0  0  0
  161.9150  199.8500  147.2980 O   0  0  0  0  0  1  0  0  0  0  0  0
  160.8800  208.4580  150.8970 C   0  0  0  0  0  2  0  0  0  0  0  0
  158.9480  211.8810  154.2400 C   0  0  0  0  0  3  0  0  0  0  0  0
  159.3590  212.2490  153.0110 C   0  0  0  0  0  3  0  0  0  0  0  0
  160.4790  210.0660  152.7730 C   0  0  1  0  0  3  0  0  0  0  0  0
  159.5370  210.7020  154.9180 C   0  0  0  0  0  0  0  0  0  0  0  0
  161.5250  207.9800  153.2490 C   0  0  0  0  0  2  0  0  0  0  0  0
  160.7010  210.0130  154.2670 C   0  0  1  0  0  0  0  0  0  0  0  0
  160.8320  208.5240  154.5090 C   0  0  0  0  0  2  0  0  0  0  0  0
  160.4500  211.5070  152.2660 C   0  0  0  0  0  2  0  0  0  0  0  0
  161.9990  210.7040  154.6930 C   0  0  0  0  0  1  0  0  0  0  0  0
  159.1130  210.3400  156.0470 O   0  0  0  0  0  0  0  0  0  0  0  0
  161.4400  209.0660  152.1730 C   0  0  1  0  0  3  0  0  0  0  0  0
  1  8  1  1  0  0  0
  1 16  1  0  0  0  0
  1  5  1  0  0  0  0
  2  5  2  0  0  0  0
  3 16  2  0  0  0  0
  3 12  1  0  0  0  0
  4  9  1  0  0  0  0
  5 14  1  0  0  0  0
  6  2  2  0  0  0  0
  7  9  1  0  0  0  0
 10  4  1  0  0  0  0
 11 20  1  6  0  0  0
 12 11  1  0  0  0  0
 13 11  1  0  0  0  0
 13 10  1  0  0  0  0
 14 10  2  0  0  0  0
 14 15  1  0  0  0  0
 15  7  1  0  0  0  0
 16 13  1  0  0  0  0
 17 19  1  0  0  0  0
 17  6  1  0  0  0  0
 18 17  2  0  0  0  0
 21 24  1  0  0  0  0
 22 21  2  0  0  0  0
 23 28  1  6  0  0  0
 23 26  1  0  0  0  0
 24 30  2  0  0  0  0
 25 27  1  0  0  0  0
 26 27  1  0  0  0  0
 26 29  1  1  0  0  0
 26 24  1  0  0  0  0
 28 22  1  0  0  0  0
 31 20  1  6  0  0  0
 31 23  1  0  0  0  0
 31 25  1  0  0  0  0
M  END
>  <MODEL>
6

>  <REMARK>
 VINA RESULT:      -7.6      1.833      2.382
  Name = 
  3 active torsions:
  status: ('A' for Active; 'I' for Inactive)
    1  A    between atoms: C_8  and  C_13
    2  A    between atoms: C_17  and  C_23
    3  A    between atoms: C_23  and  C_29
                            x       y       z     vdW  Elec       q    Type
                         _______ _______ _______ _____ _____    ______ ____

>  <TORSDO>
F 3

$$$$
=
 OpenBabel11072412143D

 31 35  0  0  1  0  0  0  0  0999 V2000
  161.0300  202.7410  149.6490 C   0  0  0  0  0  0  0  0  0  0  0  0
  161.5130  202.6660  147.2810 C   0  0  0  0  0  0  0  0  0  0  0  0
  160.4920  203.1110  152.0050 N   0  0  0  0  0  0  0  0  0  0  0  0
  160.9390  207.1190  149.3380 C   0  0  0  0  0  2  0  0  0  0  0  0
  161.2820  203.3980  148.3420 C   0  0  0  0  0  0  0  0  0  0  0  0
  161.7430  201.9350  146.2250 C   0  0  0  0  0  3  0  0  0  0  0  0
  161.7950  206.9680  147.0600 N   0  0  0  0  0  2  0  0  0  0  0  0
  161.0040  201.3550  149.7750 O   0  0  0  0  0  1  0  0  0  0  0  0
  160.8310  207.6550  147.9130 C   0  0  0  0  0  2  0  0  0  0  0  0
  160.9740  205.6130  149.3650 C   0  0  0  0  0  0  0  0  0  0  0  0
  160.4560  205.4230  151.9280 C   0  0  2  0  0  3  0  0  0  0  0  0
  160.2620  204.2450  152.8110 N   0  0  0  0  0  0  0  0  0  0  0  0
  160.8220  204.9160  150.6120 N   0  0  0  0  0  0  0  0  0  0  0  0
  161.2350  204.8900  148.2500 C   0  0  0  0  0  0  0  0  0  0  0  0
  161.3540  205.5820  146.9110 C   0  0  0  0  0  2  0  0  0  0  0  0
  160.8150  203.5240  150.7040 C   0  0  0  0  0  0  0  0  0  0  0  0
  160.8310  200.8600  145.8290 C   0  0  0  0  0  0  0  0  0  0  0  0
  161.1410  199.5280  146.0910 O   0  0  0  0  0  1  0  0  0  0  0  0
  159.7540  201.1450  145.2460 O   0  0  0  0  0  0  0  0  0  0  0  0
  161.5770  206.2920  152.4780 C   0  0  0  0  0  2  0  0  0  0  0  0
  161.4320  208.4550  157.1600 C   0  0  0  0  0  3  0  0  0  0  0  0
  160.6330  207.4200  156.8350 C   0  0  0  0  0  3  0  0  0  0  0  0
  161.2060  207.7690  154.4640 C   0  0  1  0  0  3  0  0  0  0  0  0
  161.9230  209.3920  156.1220 C   0  0  0  0  0  0  0  0  0  0  0  0
  161.9210  208.7530  152.4150 C   0  0  0  0  0  2  0  0  0  0  0  0
  161.3960  209.2470  154.7230 C   0  0  1  0  0  0  0  0  0  0  0  0
  162.3310  209.6420  153.6010 C   0  0  0  0  0  2  0  0  0  0  0  0
  160.1730  207.1660  155.4140 C   0  0  0  0  0  2  0  0  0  0  0  0
  160.0940  210.0390  154.5910 C   0  0  0  0  0  1  0  0  0  0  0  0
  162.7070  210.3280  156.4300 O   0  0  0  0  0  0  0  0  0  0  0  0
  161.0410  207.6280  152.9680 C   0  0  1  0  0  3  0  0  0  0  0  0
  1  8  1  0  0  0  0
  1 16  2  0  0  0  0
  2  5  2  0  0  0  0
  3 12  2  0  0  0  0
  4 10  1  0  0  0  0
  5  1  1  0  0  0  0
  6  2  2  0  0  0  0
  7  9  1  0  0  0  0
  9  4  1  0  0  0  0
 10 13  1  0  0  0  0
 11 20  1  1  0  0  0
 11 12  1  0  0  0  0
 13 16  1  0  0  0  0
 13 11  1  0  0  0  0
 14  5  1  0  0  0  0
 14 10  2  0  0  0  0
 15  7  1  0  0  0  0
 15 14  1  0  0  0  0
 16  3  1  0  0  0  0
 17 18  1  0  0  0  0
 17  6  1  0  0  0  0
 19 17  2  0  0  0  0
 22 21  2  0  0  0  0
 23 26  1  0  0  0  0
 23 28  1  1  0  0  0
 24 30  2  0  0  0  0
 24 21  1  0  0  0  0
 25 31  1  0  0  0  0
 25 27  1  0  0  0  0
 26 29  1  6  0  0  0
 26 24  1  0  0  0  0
 27 26  1  0  0  0  0
 28 22  1  0  0  0  0
 31 20  1  6  0  0  0
 31 23  1  0  0  0  0
M  END
>  <MODEL>
7

>  <REMARK>
 VINA RESULT:      -7.5      2.603      4.190
  Name = 
  3 active torsions:
  status: ('A' for Active; 'I' for Inactive)
    1  A    between atoms: C_8  and  C_13
    2  A    between atoms: C_17  and  C_23
    3  A    between atoms: C_23  and  C_29
                            x       y       z     vdW  Elec       q    Type
                         _______ _______ _______ _____ _____    ______ ____

>  <TORSDO>
F 3

$$$$
=
 OpenBabel11072412143D

 31 35  0  0  1  0  0  0  0  0999 V2000
  161.5970  207.5190  148.6250 C   0  0  0  0  0  0  0  0  0  0  0  0
  161.4980  205.2100  147.9150 C   0  0  0  0  0  0  0  0  0  0  0  0
  161.6970  209.7470  149.6250 N   0  0  0  0  0  0  0  0  0  0  0  0
  160.9460  206.1230  152.7360 C   0  0  0  0  0  2  0  0  0  0  0  0
  161.4320  206.0700  148.9000 C   0  0  0  0  0  0  0  0  0  0  0  0
  161.5660  204.3550  146.9310 C   0  0  0  0  0  3  0  0  0  0  0  0
  160.4850  203.8820  151.8950 N   0  0  0  0  0  2  0  0  0  0  0  0
  161.8520  207.9930  147.3420 O   0  0  0  0  0  1  0  0  0  0  0  0
  161.1700  204.6280  152.9450 C   0  0  0  0  0  2  0  0  0  0  0  0
  161.1780  206.5270  151.3030 C   0  0  0  0  0  0  0  0  0  0  0  0
  161.3290  209.0930  151.8130 C   0  0  2  0  0  3  0  0  0  0  0  0
  161.5960  210.2600  150.9350 N   0  0  0  0  0  0  0  0  0  0  0  0
  161.2630  207.9170  150.9560 N   0  0  0  0  0  0  0  0  0  0  0  0
  161.2230  205.6090  150.3080 C   0  0  0  0  0  0  0  0  0  0  0  0
  161.1860  204.1340  150.6360 C   0  0  0  0  0  2  0  0  0  0  0  0
  161.5060  208.3580  149.6540 C   0  0  0  0  0  0  0  0  0  0  0  0
  162.7060  204.3390  146.0110 C   0  0  0  0  0  0  0  0  0  0  0  0
  162.5110  204.3620  144.6340 O   0  0  0  0  0  0  0  0  0  0  0  0
  163.8740  204.3050  146.4740 O   0  0  0  0  0  1  0  0  0  0  0  0
  160.0000  209.2870  152.5280 C   0  0  0  0  0  2  0  0  0  0  0  0
  161.3970  207.7790  157.2610 C   0  0  0  0  0  3  0  0  0  0  0  0
  160.1850  207.4800  156.7530 C   0  0  0  0  0  3  0  0  0  0  0  0
  160.5720  209.1260  154.9590 C   0  0  1  0  0  3  0  0  0  0  0  0
  162.1330  208.9860  156.8140 C   0  0  0  0  0  0  0  0  0  0  0  0
  161.4070  210.9670  153.7000 C   0  0  0  0  0  2  0  0  0  0  0  0
  161.4370  209.9440  155.8910 C   0  0  1  0  0  0  0  0  0  0  0  0
  162.3100  210.7040  154.9170 C   0  0  0  0  0  2  0  0  0  0  0  0
  159.4970  208.3580  155.7280 C   0  0  0  0  0  2  0  0  0  0  0  0
  160.6260  210.9430  156.7200 C   0  0  0  0  0  1  0  0  0  0  0  0
  163.2840  209.2300  157.2610 O   0  0  0  0  0  0  0  0  0  0  0  0
  160.1860  210.0520  153.8290 C   0  0  1  0  0  3  0  0  0  0  0  0
  1  5  1  0  0  0  0
  1 16  2  0  0  0  0
  2  5  2  0  0  0  0
  3 16  1  0  0  0  0
  3 12  2  0  0  0  0
  4  9  1  0  0  0  0
  5 14  1  0  0  0  0
  6  2  2  0  0  0  0
  7  9  1  0  0  0  0
  8  1  1  0  0  0  0
 10  4  1  0  0  0  0
 11 20  1  6  0  0  0
 12 11  1  0  0  0  0
 13 10  1  0  0  0  0
 13 11  1  0  0  0  0
 14 15  1  0  0  0  0
 14 10  2  0  0  0  0
 15  7  1  0  0  0  0
 16 13  1  0  0  0  0
 17 19  1  0  0  0  0
 17  6  1  0  0  0  0
 18 17  2  0  0  0  0
 22 21  2  0  0  0  0
 23 28  1  1  0  0  0
 23 26  1  0  0  0  0
 24 30  2  0  0  0  0
 24 21  1  0  0  0  0
 25 31  1  0  0  0  0
 25 27  1  0  0  0  0
 26 29  1  1  0  0  0
 26 24  1  0  0  0  0
 27 26  1  0  0  0  0
 28 22  1  0  0  0  0
 31 20  1  6  0  0  0
 31 23  1  0  0  0  0
M  END
>  <MODEL>
8

>  <REMARK>
 VINA RESULT:      -7.3      1.759      2.631
  Name = 
  3 active torsions:
  status: ('A' for Active; 'I' for Inactive)
    1  A    between atoms: C_8  and  C_13
    2  A    between atoms: C_17  and  C_23
    3  A    between atoms: C_23  and  C_29
                            x       y       z     vdW  Elec       q    Type
                         _______ _______ _______ _____ _____    ______ ____

>  <TORSDO>
F 3

$$$$
=
 OpenBabel11072412143D

 31 35  0  0  1  0  0  0  0  0999 V2000
  161.5930  206.5720  151.1270 C   0  0  0  0  0  0  0  0  0  0  0  0
  162.1620  206.6940  148.7800 C   0  0  0  0  0  0  0  0  0  0  0  0
  160.9640  206.7430  153.4820 N   0  0  0  0  0  0  0  0  0  0  0  0
  161.4240  210.9580  151.1590 C   0  0  0  0  0  2  0  0  0  0  0  0
  161.8780  207.3350  149.8860 C   0  0  0  0  0  0  0  0  0  0  0  0
  162.4440  206.0530  147.6780 C   0  0  0  0  0  3  0  0  0  0  0  0
  162.3640  211.0040  148.9100 N   0  0  0  0  0  2  0  0  0  0  0  0
  161.5900  205.1800  151.1420 O   0  0  0  0  0  1  0  0  0  0  0  0
  161.3560  211.6040  149.7780 C   0  0  0  0  0  2  0  0  0  0  0  0
  161.4880  209.4560  151.0690 C   0  0  0  0  0  0  0  0  0  0  0  0
  160.8830  209.0530  153.5870 C   0  0  2  0  0  3  0  0  0  0  0  0
  160.6820  207.8050  154.3660 N   0  0  0  0  0  0  0  0  0  0  0  0
  161.3060  208.6590  152.2500 N   0  0  0  0  0  0  0  0  0  0  0  0
  161.8040  208.8290  149.9100 C   0  0  0  0  0  0  0  0  0  0  0  0
  161.9560  209.6270  148.6360 C   0  0  0  0  0  2  0  0  0  0  0  0
  161.3240  207.2640  152.2310 C   0  0  0  0  0  0  0  0  0  0  0  0
  161.5690  204.9970  147.1650 C   0  0  0  0  0  0  0  0  0  0  0  0
  161.2060  203.9190  147.9660 O   0  0  0  0  0  1  0  0  0  0  0  0
  161.1400  205.0680  145.9850 O   0  0  0  0  0  0  0  0  0  0  0  0
  161.9660  209.8950  154.2450 C   0  0  0  0  0  2  0  0  0  0  0  0
  157.3060  212.1120  154.2600 C   0  0  0  0  0  3  0  0  0  0  0  0
  158.2060  212.3650  153.2890 C   0  0  0  0  0  3  0  0  0  0  0  0
  159.9470  211.3100  154.6780 C   0  0  1  0  0  3  0  0  0  0  0  0
  157.7460  211.7150  155.6190 C   0  0  0  0  0  0  0  0  0  0  0  0
  161.1660  210.4450  156.5330 C   0  0  0  0  0  2  0  0  0  0  0  0
  159.2150  211.7390  155.9290 C   0  0  1  0  0  0  0  0  0  0  0  0
  159.7120  210.7300  156.9420 C   0  0  0  0  0  2  0  0  0  0  0  0
  159.7000  212.2830  153.5270 C   0  0  0  0  0  2  0  0  0  0  0  0
  159.6100  213.1440  156.3890 C   0  0  0  0  0  1  0  0  0  0  0  0
  156.8960  211.4360  156.5060 O   0  0  0  0  0  0  0  0  0  0  0  0
  161.3570  210.9850  155.1130 C   0  0  1  0  0  3  0  0  0  0  0  0
  1  8  1  0  0  0  0
  1 16  2  0  0  0  0
  2  5  2  0  0  0  0
  3 12  2  0  0  0  0
  5 14  1  0  0  0  0
  5  1  1  0  0  0  0
  6  2  2  0  0  0  0
  7  9  1  0  0  0  0
  9  4  1  0  0  0  0
 10  4  1  0  0  0  0
 10 13  1  0  0  0  0
 11 20  1  1  0  0  0
 11 12  1  0  0  0  0
 13 11  1  0  0  0  0
 14 10  2  0  0  0  0
 15  7  1  0  0  0  0
 15 14  1  0  0  0  0
 16 13  1  0  0  0  0
 16  3  1  0  0  0  0
 17  6  1  0  0  0  0
 17 18  1  0  0  0  0
 19 17  2  0  0  0  0
 21 24  1  0  0  0  0
 22 28  1  0  0  0  0
 22 21  2  0  0  0  0
 23 28  1  6  0  0  0
 23 31  1  0  0  0  0
 23 26  1  0  0  0  0
 24 26  1  0  0  0  0
 24 30  2  0  0  0  0
 25 27  1  0  0  0  0
 26 29  1  1  0  0  0
 26 27  1  0  0  0  0
 31 20  1  6  0  0  0
 31 25  1  0  0  0  0
M  END
>  <MODEL>
9

>  <REMARK>
 VINA RESULT:      -7.1      1.948      3.720
  Name = 
  3 active torsions:
  status: ('A' for Active; 'I' for Inactive)
    1  A    between atoms: C_8  and  C_13
    2  A    between atoms: C_17  and  C_23
    3  A    between atoms: C_23  and  C_29
                            x       y       z     vdW  Elec       q    Type
                         _______ _______ _______ _____ _____    ______ ____

>  <TORSDO>
F 3

$$$$
