=
 OpenBabel11072412043D

 45 48  0  0  1  0  0  0  0  0999 V2000
  161.7070  200.5280  147.1510 C   0  0  2  0  0  3  0  0  0  0  0  0
  161.9890  208.1520  152.1720 C   0  0  0  0  0  2  0  0  0  0  0  0
  162.3160  207.8190  147.4980 C   0  0  1  0  0  3  0  0  0  0  0  0
  161.0260  201.5080  146.4110 O   0  0  0  0  0  0  0  0  0  0  0  0
  160.8870  208.4670  151.1640 C   0  0  0  0  0  2  0  0  0  0  0  0
  160.2100  205.6500  150.2070 C   0  0  0  0  0  2  0  0  0  0  0  0
  161.4150  207.7740  153.4210 O   0  0  0  0  0  0  0  0  0  0  0  0
  161.8300  203.1390  152.3320 C   0  0  0  0  0  2  0  0  0  0  0  0
  161.0710  207.7000  149.8440 C   0  0  2  0  0  3  0  0  0  0  0  0
  159.0490  206.8460  147.0100 C   0  0  0  0  0  1  0  0  0  0  0  0
  163.3630  207.6050  148.5850 C   0  0  0  0  0  2  0  0  0  0  0  0
  159.7350  205.5710  151.6580 C   0  0  0  0  0  2  0  0  0  0  0  0
  160.5590  204.6830  145.3670 C   0  0  2  0  0  3  0  0  0  0  0  0
  160.2770  206.2990  154.7570 O   0  0  0  0  0  0  0  0  0  0  0  0
  161.9430  202.0280  145.4840 C   0  0  0  0  0  2  0  0  0  0  0  0
  161.4120  206.3620  150.0980 O   0  0  0  0  0  0  0  0  0  0  0  0
  161.4780  202.2720  149.9950 C   0  0  1  0  0  3  0  0  0  0  0  0
  160.5720  201.5040  149.1210 N   0  0  0  0  0  0  0  0  0  0  0  0
  163.5040  203.0130  147.0190 O   0  0  0  0  0  1  0  0  0  0  0  0
  162.6200  203.3100  145.9810 C   0  0  2  0  0  3  0  0  0  0  0  0
  161.5510  206.5300  147.2060 C   0  0  2  0  0  3  0  0  0  0  0  0
  161.7680  199.2200  146.3780 C   0  0  0  0  0  1  0  0  0  0  0  0
  160.9780  204.0310  153.2160 C   0  0  0  0  0  2  0  0  0  0  0  0
  160.9590  202.2740  151.4330 C   0  0  0  0  0  2  0  0  0  0  0  0
  160.8600  206.5090  153.6600 C   0  0  0  0  0  0  0  0  0  0  0  0
  162.4120  205.6010  146.6030 O   0  0  0  0  0  0  0  0  0  0  0  0
  161.6650  204.4270  146.4120 C   0  0  1  0  0  3  0  0  0  0  0  0
  160.9860  200.2610  148.4710 C   0  0  0  0  0  2  0  0  0  0  0  0
  160.3770  206.8590  146.2690 C   0  0  1  0  0  3  0  0  0  0  0  0
  162.0980  208.3810  148.9050 C   0  0  1  0  0  0  0  0  0  0  0  0
  160.3400  206.0600  145.0950 O   0  0  0  0  0  0  0  0  0  0  0  0
  160.9080  205.4290  152.6170 C   0  0  2  0  0  3  0  0  0  0  0  0
  162.9140  201.7490  149.9450 C   0  0  0  0  0  1  0  0  0  0  0  0
  161.0600  212.6960  146.9510 O   0  0  0  0  0  0  0  0  0  0  0  0
  162.9180  210.4050  149.8730 O   0  0  0  0  0  0  0  0  0  0  0  0
  162.3950  212.8320  148.8050 O   0  0  0  0  0  1  0  0  0  0  0  0
  161.6100  210.6690  147.9460 N   0  0  0  0  0  2  0  0  0  0  0  0
  161.6710  212.0960  147.8730 C   0  0  0  0  0  0  0  0  0  0  0  0
  162.2540  209.8700  148.9450 C   0  0  0  0  0  0  0  0  0  0  0  0
  159.2370  201.9440  148.8250 C   0  0  0  0  0  3  0  0  0  0  0  0
  158.1690  201.1750  148.9910 C   0  0  0  0  0  2  0  0  0  0  0  0
  159.2670  203.9700  145.7550 C   0  0  0  0  0  2  0  0  0  0  0  0
  158.5380  203.4540  144.5260 C   0  0  0  0  0  2  0  0  0  0  0  0
  159.2950  202.4620  143.9010 O   0  0  0  0  0  0  0  0  0  0  0  0
  159.0650  201.3170  144.6630 C   0  0  0  0  0  1  0  0  0  0  0  0
  1 22  1  6  0  0  0
  1 28  1  0  0  0  0
  2  7  1  0  0  0  0
  3 11  1  1  0  0  0
  3 30  1  0  0  0  0
  4  1  1  0  0  0  0
  5  2  1  0  0  0  0
  6 12  1  0  0  0  0
  7 25  1  0  0  0  0
  8 23  1  0  0  0  0
  9 16  1  0  0  0  0
  9  5  1  1  0  0  0
 11 30  1  0  0  0  0
 13 42  1  1  0  0  0
 13 27  1  0  0  0  0
 15 20  1  0  0  0  0
 15  4  1  0  0  0  0
 16  6  1  0  0  0  0
 17 33  1  1  0  0  0
 17 24  1  0  0  0  0
 18 17  1  0  0  0  0
 20 27  1  0  0  0  0
 20 19  1  1  0  0  0
 21 26  1  6  0  0  0
 21  3  1  0  0  0  0
 24  8  1  0  0  0  0
 25 14  2  0  0  0  0
 27 26  1  6  0  0  0
 28 18  1  0  0  0  0
 29 10  1  1  0  0  0
 29 21  1  0  0  0  0
 30 39  1  1  0  0  0
 30  9  1  0  0  0  0
 31 13  1  0  0  0  0
 31 29  1  0  0  0  0
 32 12  1  1  0  0  0
 32 23  1  0  0  0  0
 32 25  1  0  0  0  0
 34 38  2  0  0  0  0
 37 39  1  0  0  0  0
 38 37  1  0  0  0  0
 38 36  1  0  0  0  0
 39 35  2  0  0  0  0
 40 41  2  0  0  0  0
 40 18  1  0  0  0  0
 43 42  1  0  0  0  0
 44 43  1  0  0  0  0
 44 45  1  0  0  0  0
M  END
>  <MODEL>
1

>  <REMARK>
 VINA RESULT:      14.7      0.000      0.000
  Name = 
  5 active torsions:
  status: ('A' for Active; 'I' for Inactive)
    1  A    between atoms: C_10  and  C_19
    2  A    between atoms: C_10  and  C_24
    3  A    between atoms: O_14  and  C_24
    4  A    between atoms: N_25  and  C_26
    5  A    between atoms: C_41  and  C_42
                            x       y       z     vdW  Elec       q    Type
                         _______ _______ _______ _____ _____    ______ ____

>  <TORSDO>
F 5

$$$$
=
 OpenBabel11072412043D

 45 48  0  0  1  0  0  0  0  0999 V2000
  162.5660  206.1380  152.4550 C   0  0  2  0  0  3  0  0  0  0  0  0
  157.1630  213.4440  151.5370 C   0  0  0  0  0  2  0  0  0  0  0  0
  157.7000  210.7750  155.3650 C   0  0  1  0  0  3  0  0  0  0  0  0
  162.6180  206.8190  153.6820 O   0  0  0  0  0  0  0  0  0  0  0  0
  157.9790  213.7970  152.7780 C   0  0  0  0  0  2  0  0  0  0  0  0
  160.3150  211.8600  152.4550 C   0  0  0  0  0  2  0  0  0  0  0  0
  157.6830  214.1270  150.3990 O   0  0  0  0  0  0  0  0  0  0  0  0
  160.2510  210.2990  149.1390 C   0  0  0  0  0  2  0  0  0  0  0  0
  158.4580  212.5460  153.5320 C   0  0  2  0  0  3  0  0  0  0  0  0
  160.9340  211.7700  156.0070 C   0  0  0  0  0  1  0  0  0  0  0  0
  156.8580  210.5590  154.1140 C   0  0  0  0  0  2  0  0  0  0  0  0
  160.5530  212.7830  151.2600 C   0  0  0  0  0  2  0  0  0  0  0  0
  161.2330  208.6800  156.1320 C   0  0  2  0  0  3  0  0  0  0  0  0
  159.2930  214.4520  148.7990 O   0  0  0  0  0  0  0  0  0  0  0  0
  161.6990  206.1880  154.5360 C   0  0  0  0  0  2  0  0  0  0  0  0
  158.9520  211.5890  152.6310 O   0  0  0  0  0  0  0  0  0  0  0  0
  161.3460  208.7980  150.8370 C   0  0  1  0  0  3  0  0  0  0  0  0
  162.6340  208.3870  151.4270 N   0  0  0  0  0  0  0  0  0  0  0  0
  159.6780  206.6850  153.3410 O   0  0  0  0  0  1  0  0  0  0  0  0
  160.3360  206.8870  154.5550 C   0  0  2  0  0  3  0  0  0  0  0  0
  159.1110  210.2210  155.1840 C   0  0  2  0  0  3  0  0  0  0  0  0
  163.3950  204.8640  152.5140 C   0  0  0  0  0  1  0  0  0  0  0  0
  160.2840  211.8050  148.9540 C   0  0  0  0  0  2  0  0  0  0  0  0
  161.5720  209.7920  149.6990 C   0  0  0  0  0  2  0  0  0  0  0  0
  158.8450  213.7260  149.7270 C   0  0  0  0  0  0  0  0  0  0  0  0
  159.0580  208.8220  155.1060 O   0  0  0  0  0  0  0  0  0  0  0  0
  160.3740  208.3810  154.8860 C   0  0  1  0  0  3  0  0  0  0  0  0
  163.1270  207.0140  151.3370 C   0  0  0  0  0  2  0  0  0  0  0  0
  159.9670  210.6590  156.3840 C   0  0  1  0  0  3  0  0  0  0  0  0
  157.3580  211.9530  154.4480 C   0  0  1  0  0  0  0  0  0  0  0  0
  160.6220  209.5850  157.0430 O   0  0  0  0  0  0  0  0  0  0  0  0
  159.5840  212.4790  150.1260 C   0  0  2  0  0  3  0  0  0  0  0  0
  160.5240  207.6040  150.3490 C   0  0  0  0  0  1  0  0  0  0  0  0
  153.2090  212.4600  156.9050 O   0  0  0  0  0  1  0  0  0  0  0  0
  156.5220  214.1130  155.0260 O   0  0  0  0  0  0  0  0  0  0  0  0
  154.1990  214.4520  156.3660 O   0  0  0  0  0  0  0  0  0  0  0  0
  155.2020  212.3050  155.7200 N   0  0  0  0  0  2  0  0  0  0  0  0
  154.1660  213.0620  156.3520 C   0  0  0  0  0  0  0  0  0  0  0  0
  156.3440  212.8670  155.0630 C   0  0  0  0  0  0  0  0  0  0  0  0
  163.4690  209.3000  152.1550 C   0  0  0  0  0  3  0  0  0  0  0  0
  163.2250  210.6030  152.2260 C   0  0  0  0  0  2  0  0  0  0  0  0
  162.6330  209.1380  155.7340 C   0  0  0  0  0  2  0  0  0  0  0  0
  163.3240  209.8470  156.8860 C   0  0  0  0  0  2  0  0  0  0  0  0
  164.2040  210.8120  156.3960 O   0  0  0  0  0  0  0  0  0  0  0  0
  164.0510  211.8960  157.2600 C   0  0  0  0  0  1  0  0  0  0  0  0
  1 22  1  1  0  0  0
  1  4  1  0  0  0  0
  2  5  1  0  0  0  0
  3 11  1  6  0  0  0
  4 15  1  0  0  0  0
  6 16  1  0  0  0  0
  7  2  1  0  0  0  0
  8 24  1  0  0  0  0
  9  5  1  6  0  0  0
  9 30  1  0  0  0  0
 11 30  1  0  0  0  0
 12  6  1  0  0  0  0
 13 42  1  6  0  0  0
 13 31  1  0  0  0  0
 14 25  2  0  0  0  0
 15 20  1  0  0  0  0
 16  9  1  0  0  0  0
 17 33  1  6  0  0  0
 17 18  1  0  0  0  0
 18 40  1  0  0  0  0
 20 19  1  6  0  0  0
 20 27  1  0  0  0  0
 21 26  1  1  0  0  0
 21  3  1  0  0  0  0
 21 29  1  0  0  0  0
 23  8  1  0  0  0  0
 24 17  1  0  0  0  0
 25 32  1  0  0  0  0
 25  7  1  0  0  0  0
 27 26  1  1  0  0  0
 27 13  1  0  0  0  0
 28 18  1  0  0  0  0
 28  1  1  0  0  0  0
 29 10  1  6  0  0  0
 29 31  1  0  0  0  0
 30 39  1  1  0  0  0
 30  3  1  0  0  0  0
 32 23  1  6  0  0  0
 32 12  1  0  0  0  0
 35 39  2  0  0  0  0
 37 38  1  0  0  0  0
 38 36  2  0  0  0  0
 38 34  1  0  0  0  0
 39 37  1  0  0  0  0
 40 41  2  0  0  0  0
 42 43  1  0  0  0  0
 44 43  1  0  0  0  0
 44 45  1  0  0  0  0
M  END
>  <MODEL>
2

>  <REMARK>
 VINA RESULT:      16.2      5.216      9.723
  Name = 
  5 active torsions:
  status: ('A' for Active; 'I' for Inactive)
    1  A    between atoms: C_10  and  C_19
    2  A    between atoms: C_10  and  C_24
    3  A    between atoms: O_14  and  C_24
    4  A    between atoms: N_25  and  C_26
    5  A    between atoms: C_41  and  C_42
                            x       y       z     vdW  Elec       q    Type
                         _______ _______ _______ _____ _____    ______ ____

>  <TORSDO>
F 5

$$$$
