=
 OpenBabel11072414453D

 45 48  0  0  1  0  0  0  0  0999 V2000
  161.2130  208.0020  151.4420 C   0  0  0  0  0  2  0  0  0  0  0  0
  161.4780  204.6760  151.2420 C   0  0  0  0  0  2  0  0  0  0  0  0
  160.9370  205.7670  150.3250 C   0  0  0  0  0  2  0  0  0  0  0  0
  161.8140  207.0140  150.4370 C   0  0  1  0  0  3  0  0  0  0  0  0
  161.7670  206.2200  153.2310 C   0  0  0  0  0  2  0  0  0  0  0  0
  160.8970  207.4110  152.8280 C   0  0  1  0  0  3  0  0  0  0  0  0
  161.1440  204.9290  152.7110 C   0  0  0  0  0  2  0  0  0  0  0  0
  160.9110  208.4370  153.8810 N   0  0  0  0  0  0  0  0  0  0  0  0
  160.7560  208.0760  155.2580 C   0  0  0  0  0  3  0  0  0  0  0  0
  159.9480  208.7390  156.0810 C   0  0  0  0  0  2  0  0  0  0  0  0
  161.0130  209.8670  153.5790 C   0  0  0  0  0  2  0  0  0  0  0  0
  159.8500  210.3460  152.7170 C   0  0  0  0  0  2  0  0  0  0  0  0
  158.9400  211.2670  153.5070 C   0  0  0  0  0  2  0  0  0  0  0  0
  158.0360  214.0460  154.0690 C   0  0  1  0  0  3  0  0  0  0  0  0
  159.7770  212.0770  154.4910 C   0  0  2  0  0  3  0  0  0  0  0  0
  159.9800  212.4020  156.9920 C   0  0  0  0  0  1  0  0  0  0  0  0
  156.6830  213.7270  154.7100 C   0  0  0  0  0  2  0  0  0  0  0  0
  159.0490  212.3760  155.7990 C   0  0  2  0  0  0  0  0  0  0  0  0
  157.6160  211.8570  156.0600 C   0  0  0  0  0  2  0  0  0  0  0  0
  159.2920  213.5150  154.8090 C   0  0  2  0  0  3  0  0  0  0  0  0
  156.5840  212.2450  155.0070 C   0  0  0  0  0  2  0  0  0  0  0  0
  158.1350  213.9210  149.7580 C   0  0  0  0  0  0  0  0  0  0  0  0
  156.9270  213.7650  150.4420 C   0  0  0  0  0  3  0  0  0  0  0  0
  159.3220  214.1110  150.4700 C   0  0  0  0  0  3  0  0  0  0  0  0
  156.9040  213.7980  151.8400 C   0  0  0  0  0  3  0  0  0  0  0  0
  159.3000  214.1480  151.8680 C   0  0  0  0  0  3  0  0  0  0  0  0
  158.0890  213.9930  152.5620 C   0  0  0  0  0  0  0  0  0  0  0  0
  158.1570  213.8900  148.4050 F   0  0  0  0  0  0  0  0  0  0  0  0
  162.0330  207.6870  149.0740 C   0  0  2  0  0  3  0  0  0  0  0  0
  161.5440  209.1260  149.0970 C   0  0  0  0  0  2  0  0  0  0  0  0
  162.5230  209.9780  148.4310 N   0  0  0  0  0  2  0  0  0  0  0  0
  162.0940  211.3800  148.4670 C   0  0  1  0  0  3  0  0  0  0  0  0
  163.2040  212.2660  148.1570 N   0  0  0  0  0  1  0  0  0  0  0  0
  160.9870  211.6230  147.5480 N   0  0  0  0  0  2  0  0  0  0  0  0
  161.0110  213.0330  147.1960 C   0  0  0  0  0  2  0  0  0  0  0  0
  159.3130  212.3040  145.6870 O   0  0  0  0  0  1  0  0  0  0  0  0
  160.3280  213.2470  145.8560 C   0  0  2  0  0  3  0  0  0  0  0  0
  161.0500  212.4340  143.7260 O   0  0  0  0  0  0  0  0  0  0  0  0
  163.5720  213.7380  143.8050 C   0  0  0  0  0  1  0  0  0  0  0  0
  162.5540  213.8340  144.8370 N   0  0  0  0  0  2  0  0  0  0  0  0
  161.3140  213.1330  144.7410 C   0  0  0  0  0  0  0  0  0  0  0  0
  161.2720  206.9530  147.9760 C   0  0  0  0  0  2  0  0  0  0  0  0
  162.2320  206.2750  147.0130 C   0  0  0  0  0  2  0  0  0  0  0  0
  162.5630  204.5360  145.7000 C   0  0  0  0  0  1  0  0  0  0  0  0
  161.5530  205.3110  146.2690 O   0  0  0  0  0  0  0  0  0  0  0  0
  1  6  1  0  0  0  0
  2  7  1  0  0  0  0
  3  4  1  0  0  0  0
  3  2  1  0  0  0  0
  4 29  1  6  0  0  0
  4  1  1  0  0  0  0
  6  5  1  0  0  0  0
  6  8  1  1  0  0  0
  7  5  1  0  0  0  0
  8  9  1  0  0  0  0
  9 10  2  0  0  0  0
 11  8  1  0  0  0  0
 12 13  1  0  0  0  0
 12 11  1  0  0  0  0
 14 27  1  6  0  0  0
 14 17  1  0  0  0  0
 14 20  1  0  0  0  0
 15 13  1  6  0  0  0
 15 20  1  0  0  0  0
 15 18  1  0  0  0  0
 17 21  1  0  0  0  0
 18 19  1  0  0  0  0
 18 16  1  1  0  0  0
 20 18  1  0  0  0  0
 21 19  1  0  0  0  0
 22 23  2  0  0  0  0
 22 24  1  0  0  0  0
 23 25  1  0  0  0  0
 24 26  2  0  0  0  0
 25 27  2  0  0  0  0
 26 27  1  0  0  0  0
 28 22  1  0  0  0  0
 29 30  1  0  0  0  0
 31 32  1  0  0  0  0
 31 30  1  0  0  0  0
 33 32  1  0  0  0  0
 34 32  1  0  0  0  0
 35 34  1  0  0  0  0
 36 37  1  0  0  0  0
 37 35  1  0  0  0  0
 38 41  2  0  0  0  0
 39 40  1  0  0  0  0
 41 40  1  0  0  0  0
 41 37  1  0  0  0  0
 42 29  1  0  0  0  0
 43 42  1  0  0  0  0
 44 45  1  0  0  0  0
 45 43  1  0  0  0  0
M  END
>  <MODEL>
1

>  <REMARK>
 VINA RESULT:      -6.7      0.000      0.000
  Name = 
  18 active torsions:
  status: ('A' for Active; 'I' for Inactive)
    1  A    between atoms: N_2  and  C_20
    2  A    between atoms: N_2  and  C_33
    3  A    between atoms: N_5  and  C_16
    4  A    between atoms: N_5  and  C_20
    5  A    between atoms: C_9  and  N_39
    6  A    between atoms: C_10  and  C_21
    7  A    between atoms: C_10  and  O_35
    8  A    between atoms: C_11  and  C_34
    9  A    between atoms: C_13  and  C_27
   10  A    between atoms: C_15  and  N_39
   11  A    between atoms: C_15  and  C_45
   12  A    between atoms: C_16  and  C_43
   13  A    between atoms: C_21  and  C_30
   14  A    between atoms: C_23  and  C_30
   15  A    between atoms: C_27  and  C_45
   16  A    between atoms: C_30  and  C_33
   17  A    between atoms: C_38  and  N_39
   18  A    between atoms: C_43  and  C_44
                            x       y       z     vdW  Elec       q    Type
                         _______ _______ _______ _____ _____    ______ ____

>  <TORSDO>
F 18

$$$$
=
 OpenBabel11072414453D

 45 48  0  0  1  0  0  0  0  0999 V2000
  160.9280  208.0030  151.3490 C   0  0  0  0  0  2  0  0  0  0  0  0
  161.5380  204.7190  151.2290 C   0  0  0  0  0  2  0  0  0  0  0  0
  160.7830  205.7040  150.3430 C   0  0  0  0  0  2  0  0  0  0  0  0
  161.5240  207.0410  150.3160 C   0  0  1  0  0  3  0  0  0  0  0  0
  161.8650  206.3710  153.1210 C   0  0  0  0  0  2  0  0  0  0  0  0
  160.8310  207.4440  152.7800 C   0  0  1  0  0  3  0  0  0  0  0  0
  161.3380  205.0000  152.7160 C   0  0  0  0  0  2  0  0  0  0  0  0
  160.8440  208.5110  153.7900 N   0  0  0  0  0  0  0  0  0  0  0  0
  161.0440  208.2070  155.1750 C   0  0  0  0  0  3  0  0  0  0  0  0
  160.1660  208.5500  156.1140 C   0  0  0  0  0  2  0  0  0  0  0  0
  160.5870  209.9130  153.4520 C   0  0  0  0  0  2  0  0  0  0  0  0
  159.0960  210.2310  153.4530 C   0  0  0  0  0  2  0  0  0  0  0  0
  158.8480  211.6480  152.9760 C   0  0  0  0  0  2  0  0  0  0  0  0
  157.7920  214.4270  153.1140 C   0  0  1  0  0  3  0  0  0  0  0  0
  159.5890  212.6220  153.8850 C   0  0  2  0  0  3  0  0  0  0  0  0
  159.6320  213.2820  156.3280 C   0  0  0  0  0  1  0  0  0  0  0  0
  156.4190  214.1260  153.7210 C   0  0  0  0  0  2  0  0  0  0  0  0
  158.7740  213.0510  155.1020 C   0  0  2  0  0  0  0  0  0  0  0  0
  157.3520  212.4990  155.3540 C   0  0  0  0  0  2  0  0  0  0  0  0
  159.0250  214.0620  153.9830 C   0  0  2  0  0  3  0  0  0  0  0  0
  156.3680  212.6920  154.2070 C   0  0  0  0  0  2  0  0  0  0  0  0
  158.2560  213.6980  148.8870 C   0  0  0  0  0  0  0  0  0  0  0  0
  159.3470  214.1090  149.6580 C   0  0  0  0  0  3  0  0  0  0  0  0
  157.0030  213.5300  149.4840 C   0  0  0  0  0  3  0  0  0  0  0  0
  159.1870  214.3510  151.0260 C   0  0  0  0  0  3  0  0  0  0  0  0
  156.8430  213.7680  150.8520 C   0  0  0  0  0  3  0  0  0  0  0  0
  157.9360  214.1800  151.6330 C   0  0  0  0  0  0  0  0  0  0  0  0
  158.4120  213.4630  147.5630 F   0  0  0  0  0  0  0  0  0  0  0  0
  161.5180  207.6720  148.9160 C   0  0  2  0  0  3  0  0  0  0  0  0
  162.0270  206.6870  147.8760 C   0  0  0  0  0  2  0  0  0  0  0  0
  161.2300  206.8150  146.6600 N   0  0  0  0  0  2  0  0  0  0  0  0
  161.1170  205.5200  145.9810 C   0  0  1  0  0  3  0  0  0  0  0  0
  161.6150  205.6090  144.6180 N   0  0  0  0  0  1  0  0  0  0  0  0
  161.8280  204.4730  146.7070 N   0  0  0  0  0  2  0  0  0  0  0  0
  160.8420  203.5030  147.1560 C   0  0  0  0  0  2  0  0  0  0  0  0
  160.3610  201.6510  145.7320 O   0  0  0  0  0  1  0  0  0  0  0  0
  161.2430  202.1080  146.7110 C   0  0  2  0  0  3  0  0  0  0  0  0
  161.5420  199.9540  147.7070 O   0  0  0  0  0  0  0  0  0  0  0  0
  160.8550  200.7970  150.3310 C   0  0  0  0  0  1  0  0  0  0  0  0
  160.9090  201.6650  149.1670 N   0  0  0  0  0  2  0  0  0  0  0  0
  161.2430  201.1680  147.8710 C   0  0  0  0  0  0  0  0  0  0  0  0
  162.4150  208.9030  148.8700 C   0  0  0  0  0  2  0  0  0  0  0  0
  161.5920  210.1650  148.6730 C   0  0  0  0  0  2  0  0  0  0  0  0
  161.6850  212.0800  147.5850 C   0  0  0  0  0  1  0  0  0  0  0  0
  162.4360  211.2440  148.4120 O   0  0  0  0  0  0  0  0  0  0  0  0
  1  6  1  0  0  0  0
  2  7  1  0  0  0  0
  3  2  1  0  0  0  0
  4 29  1  6  0  0  0
  4  3  1  0  0  0  0
  4  1  1  0  0  0  0
  6  5  1  0  0  0  0
  6  8  1  1  0  0  0
  7  5  1  0  0  0  0
  8  9  1  0  0  0  0
  9 10  2  0  0  0  0
 11 12  1  0  0  0  0
 11  8  1  0  0  0  0
 13 12  1  0  0  0  0
 14 27  1  6  0  0  0
 14 17  1  0  0  0  0
 14 20  1  0  0  0  0
 15 13  1  6  0  0  0
 15 20  1  0  0  0  0
 15 18  1  0  0  0  0
 17 21  1  0  0  0  0
 18 19  1  0  0  0  0
 18 16  1  1  0  0  0
 20 18  1  0  0  0  0
 21 19  1  0  0  0  0
 22 24  2  0  0  0  0
 22 23  1  0  0  0  0
 23 25  2  0  0  0  0
 24 26  1  0  0  0  0
 25 27  1  0  0  0  0
 26 27  2  0  0  0  0
 28 22  1  0  0  0  0
 30 29  1  0  0  0  0
 31 30  1  0  0  0  0
 32 31  1  0  0  0  0
 32 34  1  0  0  0  0
 33 32  1  0  0  0  0
 34 35  1  0  0  0  0
 36 37  1  0  0  0  0
 37 35  1  0  0  0  0
 37 41  1  0  0  0  0
 38 41  2  0  0  0  0
 40 39  1  0  0  0  0
 41 40  1  0  0  0  0
 42 29  1  0  0  0  0
 43 42  1  0  0  0  0
 44 45  1  0  0  0  0
 45 43  1  0  0  0  0
M  END
>  <MODEL>
2

>  <REMARK>
 VINA RESULT:      -6.2      2.520      5.548
  Name = 
  18 active torsions:
  status: ('A' for Active; 'I' for Inactive)
    1  A    between atoms: N_2  and  C_20
    2  A    between atoms: N_2  and  C_33
    3  A    between atoms: N_5  and  C_16
    4  A    between atoms: N_5  and  C_20
    5  A    between atoms: C_9  and  N_39
    6  A    between atoms: C_10  and  C_21
    7  A    between atoms: C_10  and  O_35
    8  A    between atoms: C_11  and  C_34
    9  A    between atoms: C_13  and  C_27
   10  A    between atoms: C_15  and  N_39
   11  A    between atoms: C_15  and  C_45
   12  A    between atoms: C_16  and  C_43
   13  A    between atoms: C_21  and  C_30
   14  A    between atoms: C_23  and  C_30
   15  A    between atoms: C_27  and  C_45
   16  A    between atoms: C_30  and  C_33
   17  A    between atoms: C_38  and  N_39
   18  A    between atoms: C_43  and  C_44
                            x       y       z     vdW  Elec       q    Type
                         _______ _______ _______ _____ _____    ______ ____

>  <TORSDO>
F 18

$$$$
=
 OpenBabel11072414453D

 45 48  0  0  1  0  0  0  0  0999 V2000
  161.6200  205.8990  149.3420 C   0  0  0  0  0  2  0  0  0  0  0  0
  161.4410  204.2680  146.4300 C   0  0  0  0  0  2  0  0  0  0  0  0
  161.9440  203.9200  147.8260 C   0  0  0  0  0  2  0  0  0  0  0  0
  161.0350  204.5620  148.8740 C   0  0  1  0  0  3  0  0  0  0  0  0
  161.1310  206.7300  146.9440 C   0  0  0  0  0  2  0  0  0  0  0  0
  161.9650  206.8890  148.2160 C   0  0  1  0  0  3  0  0  0  0  0  0
  161.7830  205.7010  146.0270 C   0  0  0  0  0  2  0  0  0  0  0  0
  161.9340  208.2840  148.6790 N   0  0  0  0  0  0  0  0  0  0  0  0
  162.2720  208.6140  150.0320 C   0  0  0  0  0  3  0  0  0  0  0  0
  161.3710  208.6090  151.0110 C   0  0  0  0  0  2  0  0  0  0  0  0
  161.4980  209.3860  147.8180 C   0  0  0  0  0  2  0  0  0  0  0  0
  161.9640  210.7360  148.3500 C   0  0  0  0  0  2  0  0  0  0  0  0
  161.0620  211.8490  147.8530 C   0  0  0  0  0  2  0  0  0  0  0  0
  160.0640  214.3990  146.6870 C   0  0  1  0  0  3  0  0  0  0  0  0
  161.3610  213.1250  148.6310 C   0  0  2  0  0  3  0  0  0  0  0  0
  160.3830  214.4530  150.5500 C   0  0  0  0  0  1  0  0  0  0  0  0
  158.5610  214.1150  146.7550 C   0  0  0  0  0  2  0  0  0  0  0  0
  160.1150  213.7790  149.2210 C   0  0  2  0  0  0  0  0  0  0  0  0
  158.7140  213.1500  149.0420 C   0  0  0  0  0  2  0  0  0  0  0  0
  160.8170  214.4520  148.0430 C   0  0  2  0  0  3  0  0  0  0  0  0
  158.3020  212.8840  147.5990 C   0  0  0  0  0  2  0  0  0  0  0  0
  162.1580  212.5830  143.3810 C   0  0  0  0  0  0  0  0  0  0  0  0
  160.7720  212.4450  143.5020 C   0  0  0  0  0  3  0  0  0  0  0  0
  162.8740  213.3060  144.3380 C   0  0  0  0  0  3  0  0  0  0  0  0
  160.1020  213.0300  144.5810 C   0  0  0  0  0  3  0  0  0  0  0  0
  162.2050  213.8930  145.4160 C   0  0  0  0  0  3  0  0  0  0  0  0
  160.8120  213.7600  145.5440 C   0  0  0  0  0  0  0  0  0  0  0  0
  162.8060  212.0180  142.3350 F   0  0  0  0  0  0  0  0  0  0  0  0
  160.7860  203.6280  150.0680 C   0  0  2  0  0  3  0  0  0  0  0  0
  161.5590  204.0940  151.2900 C   0  0  0  0  0  2  0  0  0  0  0  0
  160.6280  204.6420  152.2700 N   0  0  0  0  0  2  0  0  0  0  0  0
  161.3370  205.4840  153.2400 C   0  0  1  0  0  3  0  0  0  0  0  0
  162.6370  205.8800  152.7230 N   0  0  0  0  0  1  0  0  0  0  0  0
  160.5560  206.6650  153.5920 N   0  0  0  0  0  2  0  0  0  0  0  0
  160.6930  206.8700  155.0250 C   0  0  0  0  0  2  0  0  0  0  0  0
  161.9850  208.1750  156.5470 O   0  0  0  0  0  1  0  0  0  0  0  0
  161.3630  208.2050  155.2980 C   0  0  2  0  0  3  0  0  0  0  0  0
  159.6030  209.5190  156.2450 O   0  0  0  0  0  0  0  0  0  0  0  0
  159.3050  211.2030  153.9770 C   0  0  0  0  0  1  0  0  0  0  0  0
  160.2810  210.1330  154.0950 N   0  0  0  0  0  2  0  0  0  0  0  0
  160.3610  209.3110  155.2590 C   0  0  0  0  0  0  0  0  0  0  0  0
  161.2310  202.2050  149.7480 C   0  0  0  0  0  2  0  0  0  0  0  0
  160.0680  201.3810  149.2230 C   0  0  0  0  0  2  0  0  0  0  0  0
  161.5680  200.3570  147.9730 C   0  0  0  0  0  1  0  0  0  0  0  0
  160.3240  200.9850  147.9100 O   0  0  0  0  0  0  0  0  0  0  0  0
  2  3  1  0  0  0  0
  3  4  1  0  0  0  0
  4  1  1  0  0  0  0
  4 29  1  1  0  0  0
  5  6  1  0  0  0  0
  6  8  1  1  0  0  0
  6  1  1  0  0  0  0
  7  2  1  0  0  0  0
  7  5  1  0  0  0  0
  8  9  1  0  0  0  0
  9 10  2  0  0  0  0
 11 12  1  0  0  0  0
 11  8  1  0  0  0  0
 13 12  1  0  0  0  0
 14 27  1  6  0  0  0
 14 17  1  0  0  0  0
 14 20  1  0  0  0  0
 15 13  1  6  0  0  0
 15 18  1  0  0  0  0
 17 21  1  0  0  0  0
 18 16  1  1  0  0  0
 19 18  1  0  0  0  0
 20 15  1  0  0  0  0
 20 18  1  0  0  0  0
 21 19  1  0  0  0  0
 22 23  2  0  0  0  0
 22 24  1  0  0  0  0
 23 25  1  0  0  0  0
 24 26  2  0  0  0  0
 25 27  2  0  0  0  0
 26 27  1  0  0  0  0
 28 22  1  0  0  0  0
 29 30  1  0  0  0  0
 30 31  1  0  0  0  0
 31 32  1  0  0  0  0
 32 34  1  0  0  0  0
 33 32  1  0  0  0  0
 34 35  1  0  0  0  0
 35 37  1  0  0  0  0
 37 36  1  0  0  0  0
 39 40  1  0  0  0  0
 40 41  1  0  0  0  0
 41 37  1  0  0  0  0
 41 38  2  0  0  0  0
 42 29  1  0  0  0  0
 43 42  1  0  0  0  0
 45 44  1  0  0  0  0
 45 43  1  0  0  0  0
M  END
>  <MODEL>
3

>  <REMARK>
 VINA RESULT:      -6.1      3.538      7.346
  Name = 
  18 active torsions:
  status: ('A' for Active; 'I' for Inactive)
    1  A    between atoms: N_2  and  C_20
    2  A    between atoms: N_2  and  C_33
    3  A    between atoms: N_5  and  C_16
    4  A    between atoms: N_5  and  C_20
    5  A    between atoms: C_9  and  N_39
    6  A    between atoms: C_10  and  C_21
    7  A    between atoms: C_10  and  O_35
    8  A    between atoms: C_11  and  C_34
    9  A    between atoms: C_13  and  C_27
   10  A    between atoms: C_15  and  N_39
   11  A    between atoms: C_15  and  C_45
   12  A    between atoms: C_16  and  C_43
   13  A    between atoms: C_21  and  C_30
   14  A    between atoms: C_23  and  C_30
   15  A    between atoms: C_27  and  C_45
   16  A    between atoms: C_30  and  C_33
   17  A    between atoms: C_38  and  N_39
   18  A    between atoms: C_43  and  C_44
                            x       y       z     vdW  Elec       q    Type
                         _______ _______ _______ _____ _____    ______ ____

>  <TORSDO>
F 18

$$$$
=
 OpenBabel11072414453D

 45 48  0  0  1  0  0  0  0  0999 V2000
  161.2160  211.6610  150.1930 C   0  0  0  0  0  2  0  0  0  0  0  0
  162.0930  212.6060  147.1100 C   0  0  0  0  0  2  0  0  0  0  0  0
  162.7760  211.8290  148.2290 C   0  0  0  0  0  2  0  0  0  0  0  0
  161.7490  210.9510  148.9440 C   0  0  1  0  0  3  0  0  0  0  0  0
  160.1330  213.3310  148.5430 C   0  0  0  0  0  2  0  0  0  0  0  0
  160.6700  213.0800  149.9530 C   0  0  1  0  0  3  0  0  0  0  0  0
  161.2700  213.7820  147.6330 C   0  0  0  0  0  2  0  0  0  0  0  0
  159.6710  213.4640  150.9600 N   0  0  0  0  0  0  0  0  0  0  0  0
  158.6480  214.4180  150.6510 C   0  0  0  0  0  3  0  0  0  0  0  0
  157.3610  214.0870  150.5910 C   0  0  0  0  0  2  0  0  0  0  0  0
  159.7060  212.9530  152.3330 C   0  0  0  0  0  2  0  0  0  0  0  0
  158.8600  211.6950  152.4890 C   0  0  0  0  0  2  0  0  0  0  0  0
  159.5080  210.7310  153.4640 C   0  0  0  0  0  2  0  0  0  0  0  0
  159.5700  211.3240  156.3800 C   0  0  1  0  0  3  0  0  0  0  0  0
  160.7860  211.3540  154.0130 C   0  0  2  0  0  3  0  0  0  0  0  0
  163.0570  210.6080  154.8450 C   0  0  0  0  0  1  0  0  0  0  0  0
  159.4450  209.8950  156.9130 C   0  0  0  0  0  2  0  0  0  0  0  0
  161.5580  210.4260  154.9480 C   0  0  2  0  0  0  0  0  0  0  0  0
  161.0610  208.9940  155.2500 C   0  0  0  0  0  2  0  0  0  0  0  0
  160.8340  211.6370  155.5360 C   0  0  2  0  0  3  0  0  0  0  0  0
  159.6370  208.9010  155.7860 C   0  0  0  0  0  2  0  0  0  0  0  0
  155.9460  213.2310  155.0220 C   0  0  0  0  0  0  0  0  0  0  0  0
  157.0990  213.9870  155.2520 C   0  0  0  0  0  3  0  0  0  0  0  0
  155.9610  211.8500  155.2380 C   0  0  0  0  0  3  0  0  0  0  0  0
  158.2670  213.3630  155.7010 C   0  0  0  0  0  3  0  0  0  0  0  0
  157.1290  211.2250  155.6830 C   0  0  0  0  0  3  0  0  0  0  0  0
  158.2920  211.9780  155.9160 C   0  0  0  0  0  0  0  0  0  0  0  0
  154.8160  213.8350  154.5870 F   0  0  0  0  0  0  0  0  0  0  0  0
  162.3240  209.5730  149.3040 C   0  0  2  0  0  3  0  0  0  0  0  0
  161.5240  208.4640  148.6400 C   0  0  0  0  0  2  0  0  0  0  0  0
  162.4250  207.6160  147.8670 N   0  0  0  0  0  2  0  0  0  0  0  0
  161.7170  206.4330  147.3670 C   0  0  1  0  0  3  0  0  0  0  0  0
  162.6320  205.5370  146.6800 N   0  0  0  0  0  1  0  0  0  0  0  0
  161.0350  205.7250  148.4440 N   0  0  0  0  0  2  0  0  0  0  0  0
  161.4490  204.3320  148.3850 C   0  0  0  0  0  2  0  0  0  0  0  0
  161.3970  203.5400  150.6340 O   0  0  0  0  0  1  0  0  0  0  0  0
  160.6990  203.5210  149.4260 C   0  0  2  0  0  3  0  0  0  0  0  0
  159.5560  201.4210  149.3870 O   0  0  0  0  0  0  0  0  0  0  0  0
  161.3660  200.1880  147.5790 C   0  0  0  0  0  1  0  0  0  0  0  0
  161.4590  201.5630  148.0390 N   0  0  0  0  0  2  0  0  0  0  0  0
  160.5230  202.1120  148.9660 C   0  0  0  0  0  0  0  0  0  0  0  0
  162.2810  209.3410  150.8100 C   0  0  0  0  0  2  0  0  0  0  0  0
  162.5150  207.8760  151.1380 C   0  0  0  0  0  2  0  0  0  0  0  0
  160.9050  206.6560  152.0190 C   0  0  0  0  0  1  0  0  0  0  0  0
  161.9110  207.5620  152.3550 O   0  0  0  0  0  0  0  0  0  0  0  0
  2  7  1  0  0  0  0
  2  3  1  0  0  0  0
  3  4  1  0  0  0  0
  4 29  1  1  0  0  0
  4  1  1  0  0  0  0
  5  6  1  0  0  0  0
  6  1  1  0  0  0  0
  6  8  1  1  0  0  0
  7  5  1  0  0  0  0
  8 11  1  0  0  0  0
  9  8  1  0  0  0  0
 10  9  2  0  0  0  0
 11 12  1  0  0  0  0
 12 13  1  0  0  0  0
 14 27  1  6  0  0  0
 14 17  1  0  0  0  0
 15 13  1  1  0  0  0
 15 18  1  0  0  0  0
 15 20  1  0  0  0  0
 18 16  1  6  0  0  0
 18 19  1  0  0  0  0
 18 20  1  0  0  0  0
 19 21  1  0  0  0  0
 20 14  1  0  0  0  0
 21 17  1  0  0  0  0
 22 24  2  0  0  0  0
 22 23  1  0  0  0  0
 23 25  2  0  0  0  0
 24 26  1  0  0  0  0
 25 27  1  0  0  0  0
 26 27  2  0  0  0  0
 28 22  1  0  0  0  0
 29 42  1  0  0  0  0
 30 29  1  0  0  0  0
 31 30  1  0  0  0  0
 32 31  1  0  0  0  0
 32 34  1  0  0  0  0
 33 32  1  0  0  0  0
 35 34  1  0  0  0  0
 35 37  1  0  0  0  0
 37 36  1  0  0  0  0
 39 40  1  0  0  0  0
 40 41  1  0  0  0  0
 41 38  2  0  0  0  0
 41 37  1  0  0  0  0
 42 43  1  0  0  0  0
 43 45  1  0  0  0  0
 44 45  1  0  0  0  0
M  END
>  <MODEL>
4

>  <REMARK>
 VINA RESULT:      -5.7      3.164      6.798
  Name = 
  18 active torsions:
  status: ('A' for Active; 'I' for Inactive)
    1  A    between atoms: N_2  and  C_20
    2  A    between atoms: N_2  and  C_33
    3  A    between atoms: N_5  and  C_16
    4  A    between atoms: N_5  and  C_20
    5  A    between atoms: C_9  and  N_39
    6  A    between atoms: C_10  and  C_21
    7  A    between atoms: C_10  and  O_35
    8  A    between atoms: C_11  and  C_34
    9  A    between atoms: C_13  and  C_27
   10  A    between atoms: C_15  and  N_39
   11  A    between atoms: C_15  and  C_45
   12  A    between atoms: C_16  and  C_43
   13  A    between atoms: C_21  and  C_30
   14  A    between atoms: C_23  and  C_30
   15  A    between atoms: C_27  and  C_45
   16  A    between atoms: C_30  and  C_33
   17  A    between atoms: C_38  and  N_39
   18  A    between atoms: C_43  and  C_44
                            x       y       z     vdW  Elec       q    Type
                         _______ _______ _______ _____ _____    ______ ____

>  <TORSDO>
F 18

$$$$
=
 OpenBabel11072414453D

 45 48  0  0  1  0  0  0  0  0999 V2000
  160.7750  207.5300  150.7760 C   0  0  0  0  0  2  0  0  0  0  0  0
  161.4400  204.3800  151.6760 C   0  0  0  0  0  2  0  0  0  0  0  0
  160.5700  205.0300  150.6060 C   0  0  0  0  0  2  0  0  0  0  0  0
  161.2740  206.2710  150.0580 C   0  0  1  0  0  3  0  0  0  0  0  0
  161.9390  206.5580  152.8700 C   0  0  0  0  0  2  0  0  0  0  0  0
  160.8500  207.4750  152.3130 C   0  0  1  0  0  3  0  0  0  0  0  0
  161.3990  205.1390  153.0010 C   0  0  0  0  0  2  0  0  0  0  0  0
  160.9510  208.8160  152.9070 N   0  0  0  0  0  0  0  0  0  0  0  0
  162.2060  209.5030  152.9540 C   0  0  0  0  0  3  0  0  0  0  0  0
  162.6850  210.1840  151.9150 C   0  0  0  0  0  2  0  0  0  0  0  0
  159.8080  209.4810  153.5360 C   0  0  0  0  0  2  0  0  0  0  0  0
  159.4170  210.7550  152.7940 C   0  0  0  0  0  2  0  0  0  0  0  0
  159.0920  211.8670  153.7720 C   0  0  0  0  0  2  0  0  0  0  0  0
  158.4930  212.4810  156.6220 C   0  0  1  0  0  3  0  0  0  0  0  0
  157.6380  211.7390  154.2130 C   0  0  2  0  0  3  0  0  0  0  0  0
  155.5240  213.1300  154.2160 C   0  0  0  0  0  1  0  0  0  0  0  0
  158.8880  213.9610  156.6300 C   0  0  0  0  0  2  0  0  0  0  0  0
  156.9950  213.0760  154.5700 C   0  0  2  0  0  0  0  0  0  0  0  0
  157.7780  214.4040  154.4490 C   0  0  0  0  0  2  0  0  0  0  0  0
  157.3170  212.0870  155.6900 C   0  0  2  0  0  3  0  0  0  0  0  0
  159.0960  214.4520  155.2130 C   0  0  0  0  0  2  0  0  0  0  0  0
  161.6970  209.6000  156.8460 C   0  0  0  0  0  0  0  0  0  0  0  0
  160.3840  209.2230  157.1420 C   0  0  0  0  0  3  0  0  0  0  0  0
  161.9790  210.9200  156.4830 C   0  0  0  0  0  3  0  0  0  0  0  0
  159.3530  210.1640  157.0750 C   0  0  0  0  0  3  0  0  0  0  0  0
  160.9480  211.8620  156.4130 C   0  0  0  0  0  3  0  0  0  0  0  0
  159.6260  211.4890  156.7070 C   0  0  0  0  0  0  0  0  0  0  0  0
  162.6950  208.6880  156.9100 F   0  0  0  0  0  0  0  0  0  0  0  0
  161.1000  206.4060  148.5380 C   0  0  2  0  0  3  0  0  0  0  0  0
  162.1850  205.6410  147.7990 C   0  0  0  0  0  2  0  0  0  0  0  0
  162.2020  206.0560  146.4000 N   0  0  0  0  0  2  0  0  0  0  0  0
  161.3550  205.1740  145.5910 C   0  0  1  0  0  3  0  0  0  0  0  0
  161.3410  205.6050  144.2030 N   0  0  0  0  0  1  0  0  0  0  0  0
  161.7920  203.7850  145.6810 N   0  0  0  0  0  2  0  0  0  0  0  0
  160.6030  202.9480  145.6590 C   0  0  0  0  0  2  0  0  0  0  0  0
  160.1110  200.7060  145.0120 O   0  0  0  0  0  1  0  0  0  0  0  0
  160.9940  201.4850  145.7600 C   0  0  2  0  0  3  0  0  0  0  0  0
  161.5240  199.9440  147.5110 O   0  0  0  0  0  0  0  0  0  0  0  0
  160.2870  201.4690  149.5640 C   0  0  0  0  0  1  0  0  0  0  0  0
  160.3640  201.8630  148.1670 N   0  0  0  0  0  2  0  0  0  0  0  0
  160.9840  201.0360  147.1840 C   0  0  0  0  0  0  0  0  0  0  0  0
  161.1830  207.8660  148.1070 C   0  0  0  0  0  2  0  0  0  0  0  0
  162.5620  208.4360  148.3940 C   0  0  0  0  0  2  0  0  0  0  0  0
  161.6990  210.4500  148.1520 C   0  0  0  0  0  1  0  0  0  0  0  0
  162.4410  209.6680  149.0370 O   0  0  0  0  0  0  0  0  0  0  0  0
  1  6  1  0  0  0  0
  2  7  1  0  0  0  0
  3  2  1  0  0  0  0
  4 29  1  6  0  0  0
  4  3  1  0  0  0  0
  4  1  1  0  0  0  0
  5  7  1  0  0  0  0
  6  5  1  0  0  0  0
  6  8  1  6  0  0  0
  8  9  1  0  0  0  0
  8 11  1  0  0  0  0
 10  9  2  0  0  0  0
 12 11  1  0  0  0  0
 12 13  1  0  0  0  0
 14 17  1  0  0  0  0
 14 27  1  6  0  0  0
 15 13  1  1  0  0  0
 15 18  1  0  0  0  0
 15 20  1  0  0  0  0
 18 16  1  6  0  0  0
 18 20  1  0  0  0  0
 19 18  1  0  0  0  0
 19 21  1  0  0  0  0
 20 14  1  0  0  0  0
 21 17  1  0  0  0  0
 22 28  1  0  0  0  0
 22 23  1  0  0  0  0
 24 22  2  0  0  0  0
 25 23  2  0  0  0  0
 26 24  1  0  0  0  0
 26 27  2  0  0  0  0
 27 25  1  0  0  0  0
 30 29  1  0  0  0  0
 31 30  1  0  0  0  0
 32 34  1  0  0  0  0
 32 31  1  0  0  0  0
 33 32  1  0  0  0  0
 35 34  1  0  0  0  0
 35 37  1  0  0  0  0
 36 37  1  0  0  0  0
 37 41  1  0  0  0  0
 40 39  1  0  0  0  0
 41 38  2  0  0  0  0
 41 40  1  0  0  0  0
 42 43  1  0  0  0  0
 42 29  1  0  0  0  0
 43 45  1  0  0  0  0
 44 45  1  0  0  0  0
M  END
>  <MODEL>
5

>  <REMARK>
 VINA RESULT:      -5.5      3.476      6.508
  Name = 
  18 active torsions:
  status: ('A' for Active; 'I' for Inactive)
    1  A    between atoms: N_2  and  C_20
    2  A    between atoms: N_2  and  C_33
    3  A    between atoms: N_5  and  C_16
    4  A    between atoms: N_5  and  C_20
    5  A    between atoms: C_9  and  N_39
    6  A    between atoms: C_10  and  C_21
    7  A    between atoms: C_10  and  O_35
    8  A    between atoms: C_11  and  C_34
    9  A    between atoms: C_13  and  C_27
   10  A    between atoms: C_15  and  N_39
   11  A    between atoms: C_15  and  C_45
   12  A    between atoms: C_16  and  C_43
   13  A    between atoms: C_21  and  C_30
   14  A    between atoms: C_23  and  C_30
   15  A    between atoms: C_27  and  C_45
   16  A    between atoms: C_30  and  C_33
   17  A    between atoms: C_38  and  N_39
   18  A    between atoms: C_43  and  C_44
                            x       y       z     vdW  Elec       q    Type
                         _______ _______ _______ _____ _____    ______ ____

>  <TORSDO>
F 18

$$$$
=
 OpenBabel11072414453D

 45 48  0  0  1  0  0  0  0  0999 V2000
  161.3580  209.2430  151.9950 C   0  0  0  0  0  2  0  0  0  0  0  0
  160.8770  206.5050  153.8510 C   0  0  0  0  0  2  0  0  0  0  0  0
  161.2910  207.9420  154.1450 C   0  0  0  0  0  2  0  0  0  0  0  0
  160.5220  208.8950  153.2320 C   0  0  1  0  0  3  0  0  0  0  0  0
  161.0610  206.7610  151.3370 C   0  0  0  0  0  2  0  0  0  0  0  0
  161.9010  208.0330  151.2140 C   0  0  1  0  0  3  0  0  0  0  0  0
  161.5010  205.9700  152.5630 C   0  0  0  0  0  2  0  0  0  0  0  0
  162.1460  208.3530  149.8010 N   0  0  0  0  0  0  0  0  0  0  0  0
  162.3340  209.7090  149.3800 C   0  0  0  0  0  3  0  0  0  0  0  0
  161.7820  210.1930  148.2700 C   0  0  0  0  0  2  0  0  0  0  0  0
  162.1420  207.3290  148.7540 C   0  0  0  0  0  2  0  0  0  0  0  0
  160.7240  206.9590  148.3310 C   0  0  0  0  0  2  0  0  0  0  0  0
  160.7370  205.7620  147.4000 C   0  0  0  0  0  2  0  0  0  0  0  0
  161.5780  203.0820  146.4190 C   0  0  1  0  0  3  0  0  0  0  0  0
  162.0940  205.6760  146.7110 C   0  0  2  0  0  3  0  0  0  0  0  0
  163.0800  206.0350  144.4080 C   0  0  0  0  0  1  0  0  0  0  0  0
  160.4760  202.8560  145.3810 C   0  0  0  0  0  2  0  0  0  0  0  0
  161.9950  205.3610  145.2210 C   0  0  2  0  0  0  0  0  0  0  0  0
  160.6260  205.1860  144.5240 C   0  0  0  0  0  2  0  0  0  0  0  0
  162.5230  204.2870  146.1720 C   0  0  2  0  0  3  0  0  0  0  0  0
  159.7090  204.1410  145.1480 C   0  0  0  0  0  2  0  0  0  0  0  0
  160.5070  202.2930  150.5240 C   0  0  0  0  0  0  0  0  0  0  0  0
  160.1200  201.4120  149.5100 C   0  0  0  0  0  3  0  0  0  0  0  0
  161.2380  203.4420  150.2100 C   0  0  0  0  0  3  0  0  0  0  0  0
  160.4640  201.6790  148.1810 C   0  0  0  0  0  3  0  0  0  0  0  0
  161.5850  203.7080  148.8820 C   0  0  0  0  0  3  0  0  0  0  0  0
  161.2010  202.8260  147.8580 C   0  0  0  0  0  0  0  0  0  0  0  0
  160.1750  202.0340  151.8100 F   0  0  0  0  0  0  0  0  0  0  0  0
  160.0830  210.1690  153.9690 C   0  0  2  0  0  3  0  0  0  0  0  0
  159.2190  211.0420  153.0730 C   0  0  0  0  0  2  0  0  0  0  0  0
  160.0230  212.1440  152.5540 N   0  0  0  0  0  2  0  0  0  0  0  0
  159.1630  213.1760  151.9670 C   0  0  1  0  0  3  0  0  0  0  0  0
  158.5220  213.9650  153.0070 N   0  0  0  0  0  1  0  0  0  0  0  0
  159.9120  214.0470  151.0670 N   0  0  0  0  0  2  0  0  0  0  0  0
  160.4710  213.2130  150.0150 C   0  0  0  0  0  2  0  0  0  0  0  0
  159.0850  213.1970  148.0750 O   0  0  0  0  0  1  0  0  0  0  0  0
  160.1850  213.8280  148.6570 C   0  0  2  0  0  3  0  0  0  0  0  0
  162.5390  213.8020  148.2330 O   0  0  0  0  0  0  0  0  0  0  0  0
  162.2830  213.3510  145.4410 C   0  0  0  0  0  1  0  0  0  0  0  0
  161.1710  213.4510  146.3710 N   0  0  0  0  0  2  0  0  0  0  0  0
  161.3730  213.7000  147.7620 C   0  0  0  0  0  0  0  0  0  0  0  0
  161.2910  210.9930  154.3990 C   0  0  0  0  0  2  0  0  0  0  0  0
  161.3890  211.0570  155.9140 C   0  0  0  0  0  2  0  0  0  0  0  0
  163.3590  211.0540  156.9050 C   0  0  0  0  0  1  0  0  0  0  0  0
  162.3980  210.2030  156.3590 O   0  0  0  0  0  0  0  0  0  0  0  0
  1  4  1  0  0  0  0
  2  3  1  0  0  0  0
  4 29  1  1  0  0  0
  4  3  1  0  0  0  0
  5  7  1  0  0  0  0
  6  8  1  6  0  0  0
  6  5  1  0  0  0  0
  6  1  1  0  0  0  0
  7  2  1  0  0  0  0
  9  8  1  0  0  0  0
 10  9  2  0  0  0  0
 11  8  1  0  0  0  0
 12 11  1  0  0  0  0
 13 12  1  0  0  0  0
 14 27  1  1  0  0  0
 15 13  1  1  0  0  0
 17 14  1  0  0  0  0
 18 16  1  6  0  0  0
 18 20  1  0  0  0  0
 18 15  1  0  0  0  0
 19 21  1  0  0  0  0
 19 18  1  0  0  0  0
 20 14  1  0  0  0  0
 20 15  1  0  0  0  0
 21 17  1  0  0  0  0
 22 28  1  0  0  0  0
 23 22  2  0  0  0  0
 24 22  1  0  0  0  0
 25 23  1  0  0  0  0
 26 24  2  0  0  0  0
 27 25  2  0  0  0  0
 27 26  1  0  0  0  0
 29 42  1  0  0  0  0
 30 29  1  0  0  0  0
 31 30  1  0  0  0  0
 32 31  1  0  0  0  0
 32 33  1  0  0  0  0
 34 32  1  0  0  0  0
 35 34  1  0  0  0  0
 36 37  1  0  0  0  0
 37 35  1  0  0  0  0
 39 40  1  0  0  0  0
 40 41  1  0  0  0  0
 41 38  2  0  0  0  0
 41 37  1  0  0  0  0
 42 43  1  0  0  0  0
 43 45  1  0  0  0  0
 45 44  1  0  0  0  0
M  END
>  <MODEL>
6

>  <REMARK>
 VINA RESULT:      -5.3      3.419      8.780
  Name = 
  18 active torsions:
  status: ('A' for Active; 'I' for Inactive)
    1  A    between atoms: N_2  and  C_20
    2  A    between atoms: N_2  and  C_33
    3  A    between atoms: N_5  and  C_16
    4  A    between atoms: N_5  and  C_20
    5  A    between atoms: C_9  and  N_39
    6  A    between atoms: C_10  and  C_21
    7  A    between atoms: C_10  and  O_35
    8  A    between atoms: C_11  and  C_34
    9  A    between atoms: C_13  and  C_27
   10  A    between atoms: C_15  and  N_39
   11  A    between atoms: C_15  and  C_45
   12  A    between atoms: C_16  and  C_43
   13  A    between atoms: C_21  and  C_30
   14  A    between atoms: C_23  and  C_30
   15  A    between atoms: C_27  and  C_45
   16  A    between atoms: C_30  and  C_33
   17  A    between atoms: C_38  and  N_39
   18  A    between atoms: C_43  and  C_44
                            x       y       z     vdW  Elec       q    Type
                         _______ _______ _______ _____ _____    ______ ____

>  <TORSDO>
F 18

$$$$
=
 OpenBabel11072414453D

 45 48  0  0  1  0  0  0  0  0999 V2000
  161.4840  207.7960  150.1030 C   0  0  0  0  0  2  0  0  0  0  0  0
  161.3920  206.0480  152.9500 C   0  0  0  0  0  2  0  0  0  0  0  0
  160.8940  205.8120  151.5290 C   0  0  0  0  0  2  0  0  0  0  0  0
  161.9000  206.3850  150.5310 C   0  0  1  0  0  3  0  0  0  0  0  0
  161.9930  208.4750  152.5450 C   0  0  0  0  0  2  0  0  0  0  0  0
  161.2210  208.7770  151.2600 C   0  0  1  0  0  3  0  0  0  0  0  0
  161.2030  207.4940  153.4030 C   0  0  0  0  0  2  0  0  0  0  0  0
  161.4220  210.1750  150.8550 N   0  0  0  0  0  0  0  0  0  0  0  0
  161.9390  210.4940  149.5580 C   0  0  0  0  0  3  0  0  0  0  0  0
  162.2760  211.7340  149.2110 C   0  0  0  0  0  2  0  0  0  0  0  0
  161.1750  211.2970  151.7630 C   0  0  0  0  0  2  0  0  0  0  0  0
  159.7520  211.2780  152.3110 C   0  0  0  0  0  2  0  0  0  0  0  0
  159.7370  210.7940  153.7480 C   0  0  0  0  0  2  0  0  0  0  0  0
  159.1200  212.0760  156.3610 C   0  0  1  0  0  3  0  0  0  0  0  0
  160.9060  211.4180  154.5010 C   0  0  2  0  0  3  0  0  0  0  0  0
  162.7350  210.7050  156.0970 C   0  0  0  0  0  1  0  0  0  0  0  0
  158.6410  210.8370  157.1230 C   0  0  0  0  0  2  0  0  0  0  0  0
  161.2530  210.6840  155.7940 C   0  0  2  0  0  0  0  0  0  0  0  0
  160.4810  209.4190  156.2330 C   0  0  0  0  0  2  0  0  0  0  0  0
  160.5940  212.0610  155.8770 C   0  0  2  0  0  3  0  0  0  0  0  0
  158.9690  209.5840  156.3370 C   0  0  0  0  0  2  0  0  0  0  0  0
  156.2280  213.8590  153.7020 C   0  0  0  0  0  0  0  0  0  0  0  0
  155.9180  212.6900  154.4030 C   0  0  0  0  0  3  0  0  0  0  0  0
  157.4840  214.4520  153.8540 C   0  0  0  0  0  3  0  0  0  0  0  0
  156.8630  212.1140  155.2560 C   0  0  0  0  0  3  0  0  0  0  0  0
  158.4290  213.8790  154.7100 C   0  0  0  0  0  3  0  0  0  0  0  0
  158.1240  212.7050  155.4180 C   0  0  0  0  0  0  0  0  0  0  0  0
  155.3120  214.4170  152.8760 F   0  0  0  0  0  0  0  0  0  0  0  0
  162.0770  205.4740  149.3070 C   0  0  2  0  0  3  0  0  0  0  0  0
  162.2210  206.2970  148.0370 C   0  0  0  0  0  2  0  0  0  0  0  0
  161.4340  205.6830  146.9730 N   0  0  0  0  0  2  0  0  0  0  0  0
  162.2420  205.5300  145.7590 C   0  0  1  0  0  3  0  0  0  0  0  0
  163.4150  204.7120  146.0210 N   0  0  0  0  0  1  0  0  0  0  0  0
  161.4630  204.9530  144.6690 N   0  0  0  0  0  2  0  0  0  0  0  0
  160.3470  204.2320  145.2610 C   0  0  0  0  0  2  0  0  0  0  0  0
  158.5660  203.2200  144.0400 O   0  0  0  0  0  1  0  0  0  0  0  0
  159.9200  203.0940  144.3500 C   0  0  2  0  0  3  0  0  0  0  0  0
  159.6990  200.7180  144.5070 O   0  0  0  0  0  0  0  0  0  0  0  0
  161.2010  200.4880  146.9070 C   0  0  0  0  0  1  0  0  0  0  0  0
  160.9520  201.7320  146.1990 N   0  0  0  0  0  2  0  0  0  0  0  0
  160.1690  201.7770  145.0060 C   0  0  0  0  0  0  0  0  0  0  0  0
  160.8740  204.5550  149.1330 C   0  0  0  0  0  2  0  0  0  0  0  0
  161.1760  203.1640  149.6650 C   0  0  0  0  0  2  0  0  0  0  0  0
  160.4160  201.1470  150.1310 C   0  0  0  0  0  1  0  0  0  0  0  0
  160.0500  202.3520  149.5300 O   0  0  0  0  0  0  0  0  0  0  0  0
  1  4  1  0  0  0  0
  1  6  1  0  0  0  0
  2  7  1  0  0  0  0
  3  2  1  0  0  0  0
  4 29  1  6  0  0  0
  4  3  1  0  0  0  0
  5  7  1  0  0  0  0
  6  8  1  6  0  0  0
  6  5  1  0  0  0  0
  8 11  1  0  0  0  0
  9  8  1  0  0  0  0
 10  9  2  0  0  0  0
 11 12  1  0  0  0  0
 12 13  1  0  0  0  0
 14 27  1  6  0  0  0
 14 17  1  0  0  0  0
 15 13  1  6  0  0  0
 15 18  1  0  0  0  0
 15 20  1  0  0  0  0
 18 20  1  0  0  0  0
 18 16  1  1  0  0  0
 18 19  1  0  0  0  0
 19 21  1  0  0  0  0
 20 14  1  0  0  0  0
 21 17  1  0  0  0  0
 22 24  2  0  0  0  0
 22 23  1  0  0  0  0
 23 25  2  0  0  0  0
 24 26  1  0  0  0  0
 25 27  1  0  0  0  0
 26 27  2  0  0  0  0
 28 22  1  0  0  0  0
 30 29  1  0  0  0  0
 31 30  1  0  0  0  0
 32 33  1  0  0  0  0
 32 31  1  0  0  0  0
 34 35  1  0  0  0  0
 34 32  1  0  0  0  0
 36 37  1  0  0  0  0
 37 41  1  0  0  0  0
 37 35  1  0  0  0  0
 38 41  2  0  0  0  0
 40 39  1  0  0  0  0
 41 40  1  0  0  0  0
 42 29  1  0  0  0  0
 42 43  1  0  0  0  0
 45 43  1  0  0  0  0
 45 44  1  0  0  0  0
M  END
>  <MODEL>
7

>  <REMARK>
 VINA RESULT:      -5.3      3.288      5.779
  Name = 
  18 active torsions:
  status: ('A' for Active; 'I' for Inactive)
    1  A    between atoms: N_2  and  C_20
    2  A    between atoms: N_2  and  C_33
    3  A    between atoms: N_5  and  C_16
    4  A    between atoms: N_5  and  C_20
    5  A    between atoms: C_9  and  N_39
    6  A    between atoms: C_10  and  C_21
    7  A    between atoms: C_10  and  O_35
    8  A    between atoms: C_11  and  C_34
    9  A    between atoms: C_13  and  C_27
   10  A    between atoms: C_15  and  N_39
   11  A    between atoms: C_15  and  C_45
   12  A    between atoms: C_16  and  C_43
   13  A    between atoms: C_21  and  C_30
   14  A    between atoms: C_23  and  C_30
   15  A    between atoms: C_27  and  C_45
   16  A    between atoms: C_30  and  C_33
   17  A    between atoms: C_38  and  N_39
   18  A    between atoms: C_43  and  C_44
                            x       y       z     vdW  Elec       q    Type
                         _______ _______ _______ _____ _____    ______ ____

>  <TORSDO>
F 18

$$$$
=
 OpenBabel11072414453D

 45 48  0  0  1  0  0  0  0  0999 V2000
  161.2280  207.0020  150.2050 C   0  0  0  0  0  2  0  0  0  0  0  0
  161.4450  205.8810  153.3460 C   0  0  0  0  0  2  0  0  0  0  0  0
  160.6740  205.4510  152.1030 C   0  0  0  0  0  2  0  0  0  0  0  0
  161.5440  205.6550  150.8630 C   0  0  1  0  0  3  0  0  0  0  0  0
  162.2470  208.0600  152.3320 C   0  0  0  0  0  2  0  0  0  0  0  0
  161.2960  208.2190  151.1440 C   0  0  1  0  0  3  0  0  0  0  0  0
  161.5130  207.4000  153.4930 C   0  0  0  0  0  2  0  0  0  0  0  0
  161.5860  209.4630  150.4160 N   0  0  0  0  0  0  0  0  0  0  0  0
  161.9120  210.6660  151.1210 C   0  0  0  0  0  3  0  0  0  0  0  0
  161.0270  211.3090  151.8780 C   0  0  0  0  0  2  0  0  0  0  0  0
  161.4910  209.5560  148.9570 C   0  0  0  0  0  2  0  0  0  0  0  0
  162.1870  210.8030  148.4250 C   0  0  0  0  0  2  0  0  0  0  0  0
  161.1710  211.8200  147.9420 C   0  0  0  0  0  2  0  0  0  0  0  0
  159.8820  214.2320  146.7690 C   0  0  1  0  0  3  0  0  0  0  0  0
  161.4040  213.1440  148.6610 C   0  0  2  0  0  3  0  0  0  0  0  0
  160.4320  214.4490  150.5990 C   0  0  0  0  0  1  0  0  0  0  0  0
  158.4170  213.8220  146.9410 C   0  0  0  0  0  2  0  0  0  0  0  0
  160.1440  213.7080  149.3110 C   0  0  2  0  0  0  0  0  0  0  0  0
  158.7950  212.9550  149.2410 C   0  0  0  0  0  2  0  0  0  0  0  0
  160.7100  214.3980  148.0700 C   0  0  2  0  0  3  0  0  0  0  0  0
  158.3200  212.6050  147.8370 C   0  0  0  0  0  2  0  0  0  0  0  0
  161.9180  212.4790  143.3930 C   0  0  0  0  0  0  0  0  0  0  0  0
  160.6170  212.0860  143.7160 C   0  0  0  0  0  3  0  0  0  0  0  0
  162.5710  213.4400  144.1700 C   0  0  0  0  0  3  0  0  0  0  0  0
  159.9670  212.6520  144.8160 C   0  0  0  0  0  3  0  0  0  0  0  0
  161.9210  214.0090  145.2690 C   0  0  0  0  0  3  0  0  0  0  0  0
  160.6120  213.6200  145.5990 C   0  0  0  0  0  0  0  0  0  0  0  0
  162.5470  211.9310  142.3260 F   0  0  0  0  0  0  0  0  0  0  0  0
  161.3880  204.5060  149.8570 C   0  0  2  0  0  3  0  0  0  0  0  0
  160.9780  205.0340  148.4910 C   0  0  0  0  0  2  0  0  0  0  0  0
  161.8020  204.4060  147.4640 N   0  0  0  0  0  2  0  0  0  0  0  0
  162.6700  205.3990  146.8230 C   0  0  1  0  0  3  0  0  0  0  0  0
  163.5460  204.7650  145.8510 N   0  0  0  0  0  1  0  0  0  0  0  0
  161.8920  206.4540  146.1830 N   0  0  0  0  0  2  0  0  0  0  0  0
  160.7240  205.8320  145.5790 C   0  0  0  0  0  2  0  0  0  0  0  0
  161.1640  205.4400  143.2680 O   0  0  0  0  0  1  0  0  0  0  0  0
  161.1540  204.8300  144.5230 C   0  0  2  0  0  3  0  0  0  0  0  0
  159.1450  203.7090  143.8700 O   0  0  0  0  0  0  0  0  0  0  0  0
  159.7340  201.3090  145.2710 C   0  0  0  0  0  1  0  0  0  0  0  0
  160.6020  202.4740  145.2160 N   0  0  0  0  0  2  0  0  0  0  0  0
  160.2320  203.6560  144.5070 C   0  0  0  0  0  0  0  0  0  0  0  0
  160.3180  203.5210  150.3160 C   0  0  0  0  0  2  0  0  0  0  0  0
  160.8540  202.0990  150.3070 C   0  0  0  0  0  2  0  0  0  0  0  0
  161.1070  200.6000  148.7100 C   0  0  0  0  0  1  0  0  0  0  0  0
  161.5430  201.8610  149.1180 O   0  0  0  0  0  0  0  0  0  0  0  0
  1  4  1  0  0  0  0
  1  6  1  0  0  0  0
  2  7  1  0  0  0  0
  3  2  1  0  0  0  0
  4 29  1  6  0  0  0
  4  3  1  0  0  0  0
  5  7  1  0  0  0  0
  6  8  1  6  0  0  0
  6  5  1  0  0  0  0
  8  9  1  0  0  0  0
  9 10  2  0  0  0  0
 11  8  1  0  0  0  0
 12 11  1  0  0  0  0
 13 12  1  0  0  0  0
 14 27  1  6  0  0  0
 14 17  1  0  0  0  0
 14 20  1  0  0  0  0
 15 13  1  6  0  0  0
 15 18  1  0  0  0  0
 17 21  1  0  0  0  0
 18 16  1  1  0  0  0
 19 18  1  0  0  0  0
 20 15  1  0  0  0  0
 20 18  1  0  0  0  0
 21 19  1  0  0  0  0
 22 23  2  0  0  0  0
 22 24  1  0  0  0  0
 23 25  1  0  0  0  0
 24 26  2  0  0  0  0
 25 27  2  0  0  0  0
 26 27  1  0  0  0  0
 28 22  1  0  0  0  0
 29 42  1  0  0  0  0
 30 29  1  0  0  0  0
 31 30  1  0  0  0  0
 32 31  1  0  0  0  0
 33 32  1  0  0  0  0
 34 32  1  0  0  0  0
 35 34  1  0  0  0  0
 36 37  1  0  0  0  0
 37 35  1  0  0  0  0
 38 41  2  0  0  0  0
 40 39  1  0  0  0  0
 41 37  1  0  0  0  0
 41 40  1  0  0  0  0
 43 42  1  0  0  0  0
 44 45  1  0  0  0  0
 45 43  1  0  0  0  0
M  END
>  <MODEL>
8

>  <REMARK>
 VINA RESULT:      -4.9      3.459      6.524
  Name = 
  18 active torsions:
  status: ('A' for Active; 'I' for Inactive)
    1  A    between atoms: N_2  and  C_20
    2  A    between atoms: N_2  and  C_33
    3  A    between atoms: N_5  and  C_16
    4  A    between atoms: N_5  and  C_20
    5  A    between atoms: C_9  and  N_39
    6  A    between atoms: C_10  and  C_21
    7  A    between atoms: C_10  and  O_35
    8  A    between atoms: C_11  and  C_34
    9  A    between atoms: C_13  and  C_27
   10  A    between atoms: C_15  and  N_39
   11  A    between atoms: C_15  and  C_45
   12  A    between atoms: C_16  and  C_43
   13  A    between atoms: C_21  and  C_30
   14  A    between atoms: C_23  and  C_30
   15  A    between atoms: C_27  and  C_45
   16  A    between atoms: C_30  and  C_33
   17  A    between atoms: C_38  and  N_39
   18  A    between atoms: C_43  and  C_44
                            x       y       z     vdW  Elec       q    Type
                         _______ _______ _______ _____ _____    ______ ____

>  <TORSDO>
F 18

$$$$
=
 OpenBabel11072414453D

 45 48  0  0  1  0  0  0  0  0999 V2000
  161.3810  209.1890  152.3490 C   0  0  0  0  0  2  0  0  0  0  0  0
  160.7650  206.4980  154.2320 C   0  0  0  0  0  2  0  0  0  0  0  0
  161.2500  207.9160  154.5120 C   0  0  0  0  0  2  0  0  0  0  0  0
  160.5280  208.8960  153.5880 C   0  0  1  0  0  3  0  0  0  0  0  0
  160.9630  206.7180  151.7160 C   0  0  0  0  0  2  0  0  0  0  0  0
  161.8640  207.9450  151.5810 C   0  0  1  0  0  3  0  0  0  0  0  0
  161.3630  205.9190  152.9510 C   0  0  0  0  0  2  0  0  0  0  0  0
  162.1250  208.2390  150.1650 N   0  0  0  0  0  0  0  0  0  0  0  0
  162.2010  209.5910  149.6990 C   0  0  0  0  0  3  0  0  0  0  0  0
  162.3970  209.8930  148.4170 C   0  0  0  0  0  2  0  0  0  0  0  0
  162.2510  207.1830  149.1570 C   0  0  0  0  0  2  0  0  0  0  0  0
  161.0790  207.1910  148.1820 C   0  0  0  0  0  2  0  0  0  0  0  0
  161.0130  205.8860  147.4130 C   0  0  0  0  0  2  0  0  0  0  0  0
  161.5460  203.1600  146.3440 C   0  0  1  0  0  3  0  0  0  0  0  0
  162.3120  205.6910  146.6390 C   0  0  2  0  0  3  0  0  0  0  0  0
  163.1850  206.0040  144.2840 C   0  0  0  0  0  1  0  0  0  0  0  0
  160.3670  203.0540  145.3730 C   0  0  0  0  0  2  0  0  0  0  0  0
  162.0940  205.4150  145.1540 C   0  0  2  0  0  0  0  0  0  0  0  0
  160.6750  205.3770  144.5410 C   0  0  0  0  0  2  0  0  0  0  0  0
  162.5790  204.2800  146.0550 C   0  0  2  0  0  3  0  0  0  0  0  0
  159.7070  204.4070  145.2070 C   0  0  0  0  0  2  0  0  0  0  0  0
  160.6730  202.3930  150.5000 C   0  0  0  0  0  0  0  0  0  0  0  0
  160.4060  201.4220  149.5300 C   0  0  0  0  0  3  0  0  0  0  0  0
  161.2180  203.6240  150.1240 C   0  0  0  0  0  3  0  0  0  0  0  0
  160.6840  201.6820  148.1850 C   0  0  0  0  0  3  0  0  0  0  0  0
  161.4990  203.8830  148.7790 C   0  0  0  0  0  3  0  0  0  0  0  0
  161.2350  202.9120  147.8000 C   0  0  0  0  0  0  0  0  0  0  0  0
  160.4050  202.1420  151.8020 F   0  0  0  0  0  0  0  0  0  0  0  0
  160.1520  210.1970  154.3110 C   0  0  2  0  0  3  0  0  0  0  0  0
  160.8780  211.3850  153.7010 C   0  0  0  0  0  2  0  0  0  0  0  0
  159.9290  212.4710  153.4840 N   0  0  0  0  0  2  0  0  0  0  0  0
  158.6290  212.1440  154.0780 C   0  0  1  0  0  3  0  0  0  0  0  0
  158.4120  212.9090  155.2950 N   0  0  0  0  0  1  0  0  0  0  0  0
  157.5390  212.3790  153.1370 N   0  0  0  0  0  2  0  0  0  0  0  0
  158.0380  213.2660  152.0990 C   0  0  0  0  0  2  0  0  0  0  0  0
  155.8470  214.1130  152.5160 O   0  0  0  0  0  1  0  0  0  0  0  0
  156.9410  214.2180  151.6560 C   0  0  2  0  0  3  0  0  0  0  0  0
  155.3260  214.1180  149.8950 O   0  0  0  0  0  0  0  0  0  0  0  0
  157.1200  213.0430  147.9740 C   0  0  0  0  0  1  0  0  0  0  0  0
  157.4770  213.3940  149.3380 N   0  0  0  0  0  2  0  0  0  0  0  0
  156.5160  213.9130  150.2580 C   0  0  0  0  0  0  0  0  0  0  0  0
  160.5290  210.1280  155.7870 C   0  0  0  0  0  2  0  0  0  0  0  0
  161.6480  211.1060  156.1050 C   0  0  0  0  0  2  0  0  0  0  0  0
  162.7000  209.5510  157.2610 C   0  0  0  0  0  1  0  0  0  0  0  0
  162.8620  210.4250  156.1850 O   0  0  0  0  0  0  0  0  0  0  0  0
  1  4  1  0  0  0  0
  2  3  1  0  0  0  0
  4 29  1  1  0  0  0
  4  3  1  0  0  0  0
  5  7  1  0  0  0  0
  6  8  1  6  0  0  0
  6  5  1  0  0  0  0
  6  1  1  0  0  0  0
  7  2  1  0  0  0  0
  9  8  1  0  0  0  0
 10  9  2  0  0  0  0
 11  8  1  0  0  0  0
 12 11  1  0  0  0  0
 13 12  1  0  0  0  0
 14 27  1  1  0  0  0
 15 13  1  1  0  0  0
 17 14  1  0  0  0  0
 18 16  1  6  0  0  0
 18 20  1  0  0  0  0
 18 15  1  0  0  0  0
 19 18  1  0  0  0  0
 19 21  1  0  0  0  0
 20 14  1  0  0  0  0
 20 15  1  0  0  0  0
 21 17  1  0  0  0  0
 22 28  1  0  0  0  0
 23 22  2  0  0  0  0
 24 22  1  0  0  0  0
 25 23  1  0  0  0  0
 26 24  2  0  0  0  0
 27 25  2  0  0  0  0
 27 26  1  0  0  0  0
 29 42  1  0  0  0  0
 30 29  1  0  0  0  0
 31 30  1  0  0  0  0
 31 32  1  0  0  0  0
 32 33  1  0  0  0  0
 34 32  1  0  0  0  0
 35 34  1  0  0  0  0
 37 35  1  0  0  0  0
 37 36  1  0  0  0  0
 38 41  2  0  0  0  0
 39 40  1  0  0  0  0
 40 41  1  0  0  0  0
 41 37  1  0  0  0  0
 42 43  1  0  0  0  0
 43 45  1  0  0  0  0
 45 44  1  0  0  0  0
M  END
>  <MODEL>
9

>  <REMARK>
 VINA RESULT:      -4.7      3.825      9.254
  Name = 
  18 active torsions:
  status: ('A' for Active; 'I' for Inactive)
    1  A    between atoms: N_2  and  C_20
    2  A    between atoms: N_2  and  C_33
    3  A    between atoms: N_5  and  C_16
    4  A    between atoms: N_5  and  C_20
    5  A    between atoms: C_9  and  N_39
    6  A    between atoms: C_10  and  C_21
    7  A    between atoms: C_10  and  O_35
    8  A    between atoms: C_11  and  C_34
    9  A    between atoms: C_13  and  C_27
   10  A    between atoms: C_15  and  N_39
   11  A    between atoms: C_15  and  C_45
   12  A    between atoms: C_16  and  C_43
   13  A    between atoms: C_21  and  C_30
   14  A    between atoms: C_23  and  C_30
   15  A    between atoms: C_27  and  C_45
   16  A    between atoms: C_30  and  C_33
   17  A    between atoms: C_38  and  N_39
   18  A    between atoms: C_43  and  C_44
                            x       y       z     vdW  Elec       q    Type
                         _______ _______ _______ _____ _____    ______ ____

>  <TORSDO>
F 18

$$$$
