=
 OpenBabel11072412373D

 31 34  0  0  1  0  0  0  0  0999 V2000
  160.1530  210.2860  153.7880 C   0  0  1  0  0  3  0  0  0  0  0  0
  157.8780  211.9420  156.5010 C   0  0  0  0  0  3  0  0  0  0  0  0
  156.7380  214.0300  155.8610 C   0  0  0  0  0  2  0  0  0  0  0  0
  156.7690  212.6880  156.5390 C   0  0  0  0  0  0  0  0  0  0  0  0
  155.9390  214.4530  153.6770 O   0  0  0  0  0  0  0  0  0  0  0  0
  159.8130  211.7280  153.3440 C   0  0  2  0  0  3  0  0  0  0  0  0
  157.9270  213.1620  153.6860 C   0  0  0  0  0  0  0  0  0  0  0  0
  158.0200  213.1720  151.9030 S   0  0  0  0  0  0  0  0  0  0  0  0
  156.8290  213.8950  154.3710 C   0  0  0  0  0  0  0  0  0  0  0  0
  158.8760  212.4320  154.2860 C   0  0  0  0  0  0  0  0  0  0  0  0
  159.0990  212.4150  155.7730 C   0  0  0  0  0  2  0  0  0  0  0  0
  159.1150  211.7290  151.9850 C   0  0  0  0  0  2  0  0  0  0  0  0
  155.5630  212.1580  157.2540 C   0  0  0  0  0  3  0  0  0  0  0  0
  155.0820  210.8680  156.6170 C   0  0  0  0  0  1  0  0  0  0  0  0
  154.4450  213.1830  157.2610 C   0  0  0  0  0  1  0  0  0  0  0  0
  162.4100  210.6250  149.5810 N   0  0  0  0  0  1  0  0  0  0  0  0
  162.0990  205.8510  152.7010 N   0  0  0  0  0  1  0  0  0  0  0  0
  161.8910  207.2470  150.8370 N   0  0  0  0  0  0  0  0  0  0  0  0
  161.7440  207.0990  152.1190 C   0  0  0  0  0  0  0  0  0  0  0  0
  161.4220  210.2070  151.7200 C   0  0  0  0  0  3  0  0  0  0  0  0
  160.9540  209.5210  152.7650 C   0  0  0  0  0  0  0  0  0  0  0  0
  161.5340  208.4260  150.0650 C   0  0  0  0  0  2  0  0  0  0  0  0
  161.1940  208.1160  152.9770 N   0  0  0  0  0  2  0  0  0  0  0  0
  162.2460  209.6320  150.6260 C   0  0  1  0  0  3  0  0  0  0  0  0
  160.8060  210.2340  155.1830 C   0  0  1  0  0  3  0  0  0  0  0  0
  161.2260  208.8770  157.2610 C   0  0  0  0  0  2  0  0  0  0  0  0
  160.6000  208.8750  155.8690 C   0  0  1  0  0  3  0  0  0  0  0  0
  162.7070  209.2320  157.1820 C   0  0  0  0  0  2  0  0  0  0  0  0
  159.2360  208.6020  155.9850 O   0  0  0  0  0  1  0  0  0  0  0  0
  162.8780  210.6100  156.5540 C   0  0  0  0  0  2  0  0  0  0  0  0
  162.2910  210.6190  155.1480 C   0  0  0  0  0  2  0  0  0  0  0  0
  1 21  1  6  0  0  0
  2  4  2  0  0  0  0
  3  4  1  0  0  0  0
  4 13  1  0  0  0  0
  5  9  2  0  0  0  0
  6  1  1  1  0  0  0
  6 10  1  0  0  0  0
  7 10  2  0  0  0  0
  7  9  1  0  0  0  0
  8 12  1  0  0  0  0
  8  7  1  0  0  0  0
  9  3  1  0  0  0  0
 10 11  1  0  0  0  0
 11  2  1  0  0  0  0
 12  6  1  0  0  0  0
 13 15  1  0  0  0  0
 14 13  1  0  0  0  0
 18 19  2  0  0  0  0
 19 17  1  0  0  0  0
 19 23  1  0  0  0  0
 20 21  2  0  0  0  0
 21 23  1  0  0  0  0
 22 24  1  0  0  0  0
 22 18  1  0  0  0  0
 24 16  1  6  0  0  0
 24 20  1  0  0  0  0
 25  1  1  6  0  0  0
 25 27  1  0  0  0  0
 27 29  1  1  0  0  0
 27 26  1  0  0  0  0
 28 26  1  0  0  0  0
 30 28  1  0  0  0  0
 31 25  1  0  0  0  0
 31 30  1  0  0  0  0
M  END
>  <MODEL>
1

>  <REMARK>
 VINA RESULT:      -5.5      0.000      0.000
  Name = 
  4 active torsions:
  status: ('A' for Active; 'I' for Inactive)
    1  A    between atoms: C_3  and  C_6
    2  A    between atoms: C_6  and  C_17
    3  A    between atoms: C_6  and  C_25
    4  A    between atoms: C_8  and  C_11
                            x       y       z     vdW  Elec       q    Type
                         _______ _______ _______ _____ _____    ______ ____

>  <TORSDO>
F 4

$$$$
=
 OpenBabel11072412373D

 31 34  0  0  1  0  0  0  0  0999 V2000
  160.3290  210.0340  152.3420 C   0  0  1  0  0  3  0  0  0  0  0  0
  158.0690  212.9320  151.0120 C   0  0  0  0  0  3  0  0  0  0  0  0
  159.0810  214.4530  149.3590 C   0  0  0  0  0  2  0  0  0  0  0  0
  157.9300  213.6400  149.8860 C   0  0  0  0  0  0  0  0  0  0  0  0
  160.6370  213.7430  147.7280 O   0  0  0  0  0  0  0  0  0  0  0  0
  161.2170  211.0650  151.6050 C   0  0  2  0  0  3  0  0  0  0  0  0
  160.8470  212.5520  149.7660 C   0  0  0  0  0  0  0  0  0  0  0  0
  162.2700  211.6520  149.1710 S   0  0  0  0  0  0  0  0  0  0  0  0
  160.2070  213.5770  148.8990 C   0  0  0  0  0  0  0  0  0  0  0  0
  160.4330  212.1880  150.9870 C   0  0  0  0  0  0  0  0  0  0  0  0
  159.3680  212.9180  151.7580 C   0  0  0  0  0  2  0  0  0  0  0  0
  161.9770  210.4060  150.4550 C   0  0  0  0  0  2  0  0  0  0  0  0
  156.6200  213.5980  149.1590 C   0  0  0  0  0  3  0  0  0  0  0  0
  156.6780  214.4340  147.8940 C   0  0  0  0  0  1  0  0  0  0  0  0
  155.4910  214.0800  150.0500 C   0  0  0  0  0  1  0  0  0  0  0  0
  161.5090  205.8080  154.2530 N   0  0  0  0  0  1  0  0  0  0  0  0
  160.9930  206.7840  148.6500 N   0  0  0  0  0  1  0  0  0  0  0  0
  161.9870  206.1130  150.6570 N   0  0  0  0  0  0  0  0  0  0  0  0
  161.2700  206.9960  150.0280 C   0  0  0  0  0  0  0  0  0  0  0  0
  160.8700  207.7770  153.0530 C   0  0  0  0  0  3  0  0  0  0  0  0
  160.6860  208.6050  152.0220 C   0  0  0  0  0  0  0  0  0  0  0  0
  162.4130  206.1870  152.0450 C   0  0  0  0  0  2  0  0  0  0  0  0
  160.7800  208.2020  150.6420 N   0  0  0  0  0  2  0  0  0  0  0  0
  161.2040  206.3350  152.9370 C   0  0  1  0  0  3  0  0  0  0  0  0
  160.2690  210.2840  153.8620 C   0  0  1  0  0  3  0  0  0  0  0  0
  161.4040  211.2690  155.8790 C   0  0  0  0  0  2  0  0  0  0  0  0
  161.4820  211.0780  154.3670 C   0  0  1  0  0  3  0  0  0  0  0  0
  160.1000  211.9570  156.2660 C   0  0  0  0  0  2  0  0  0  0  0  0
  162.6600  210.3980  154.0550 O   0  0  0  0  0  1  0  0  0  0  0  0
  158.9140  211.1160  155.8070 C   0  0  0  0  0  2  0  0  0  0  0  0
  158.9520  210.9440  154.2940 C   0  0  0  0  0  2  0  0  0  0  0  0
  1 21  1  1  0  0  0
  2 11  1  0  0  0  0
  3  4  1  0  0  0  0
  4  2  2  0  0  0  0
  5  9  2  0  0  0  0
  6  1  1  6  0  0  0
  7 10  2  0  0  0  0
  8  7  1  0  0  0  0
  8 12  1  0  0  0  0
  9  3  1  0  0  0  0
  9  7  1  0  0  0  0
 10  6  1  0  0  0  0
 10 11  1  0  0  0  0
 12  6  1  0  0  0  0
 13  4  1  0  0  0  0
 13 15  1  0  0  0  0
 14 13  1  0  0  0  0
 17 19  1  0  0  0  0
 18 22  1  0  0  0  0
 19 23  1  0  0  0  0
 19 18  2  0  0  0  0
 21 20  2  0  0  0  0
 22 24  1  0  0  0  0
 23 21  1  0  0  0  0
 24 20  1  0  0  0  0
 24 16  1  1  0  0  0
 25  1  1  6  0  0  0
 25 31  1  0  0  0  0
 25 27  1  0  0  0  0
 26 28  1  0  0  0  0
 27 29  1  1  0  0  0
 27 26  1  0  0  0  0
 30 28  1  0  0  0  0
 31 30  1  0  0  0  0
M  END
>  <MODEL>
2

>  <REMARK>
 VINA RESULT:      -5.4      2.913      4.863
  Name = 
  4 active torsions:
  status: ('A' for Active; 'I' for Inactive)
    1  A    between atoms: C_3  and  C_6
    2  A    between atoms: C_6  and  C_17
    3  A    between atoms: C_6  and  C_25
    4  A    between atoms: C_8  and  C_11
                            x       y       z     vdW  Elec       q    Type
                         _______ _______ _______ _____ _____    ______ ____

>  <TORSDO>
F 4

$$$$
=
 OpenBabel11072412373D

 31 34  0  0  1  0  0  0  0  0999 V2000
  160.5200  209.9180  152.0200 C   0  0  1  0  0  3  0  0  0  0  0  0
  158.1260  212.7980  150.9010 C   0  0  0  0  0  3  0  0  0  0  0  0
  159.0470  214.4500  149.3220 C   0  0  0  0  0  2  0  0  0  0  0  0
  157.9380  213.5640  149.8210 C   0  0  0  0  0  0  0  0  0  0  0  0
  160.5960  213.8950  147.6250 O   0  0  0  0  0  0  0  0  0  0  0  0
  161.3540  211.0230  151.3290 C   0  0  2  0  0  3  0  0  0  0  0  0
  160.8910  212.5980  149.5860 C   0  0  0  0  0  0  0  0  0  0  0  0
  162.3340  211.7890  148.9150 S   0  0  0  0  0  0  0  0  0  0  0  0
  160.1960  213.6450  148.7920 C   0  0  0  0  0  0  0  0  0  0  0  0
  160.5150  212.1490  150.7910 C   0  0  0  0  0  0  0  0  0  0  0  0
  159.4390  212.7920  151.6220 C   0  0  0  0  0  2  0  0  0  0  0  0
  162.1140  210.4610  150.1290 C   0  0  0  0  0  2  0  0  0  0  0  0
  156.6170  213.5130  149.1160 C   0  0  0  0  0  3  0  0  0  0  0  0
  156.7100  214.1610  147.7480 C   0  0  0  0  0  1  0  0  0  0  0  0
  155.5380  214.1900  149.9390 C   0  0  0  0  0  1  0  0  0  0  0  0
  161.9520  207.0970  148.4290 N   0  0  0  0  0  1  0  0  0  0  0  0
  161.4460  205.4020  153.8590 N   0  0  0  0  0  1  0  0  0  0  0  0
  161.1220  205.4050  151.5430 N   0  0  0  0  0  0  0  0  0  0  0  0
  161.2010  206.0950  152.6420 C   0  0  0  0  0  0  0  0  0  0  0  0
  161.3370  208.3040  150.4010 C   0  0  0  0  0  3  0  0  0  0  0  0
  160.9690  208.5240  151.6660 C   0  0  0  0  0  0  0  0  0  0  0  0
  160.8270  205.9310  150.2210 C   0  0  0  0  0  2  0  0  0  0  0  0
  161.0060  207.5200  152.6990 N   0  0  0  0  0  2  0  0  0  0  0  0
  161.8270  207.0060  149.8710 C   0  0  1  0  0  3  0  0  0  0  0  0
  160.4200  210.1180  153.5450 C   0  0  1  0  0  3  0  0  0  0  0  0
  161.4750  211.0870  155.6140 C   0  0  0  0  0  2  0  0  0  0  0  0
  161.5890  210.9460  154.0980 C   0  0  1  0  0  3  0  0  0  0  0  0
  160.1360  211.7080  155.9950 C   0  0  0  0  0  2  0  0  0  0  0  0
  162.8000  210.3250  153.7900 O   0  0  0  0  0  1  0  0  0  0  0  0
  158.9950  210.8340  155.4870 C   0  0  0  0  0  2  0  0  0  0  0  0
  159.0690  210.7100  153.9700 C   0  0  0  0  0  2  0  0  0  0  0  0
  1 21  1  1  0  0  0
  2 11  1  0  0  0  0
  3  4  1  0  0  0  0
  4  2  2  0  0  0  0
  5  9  2  0  0  0  0
  6  1  1  6  0  0  0
  7 10  2  0  0  0  0
  8  7  1  0  0  0  0
  8 12  1  0  0  0  0
  9  3  1  0  0  0  0
  9  7  1  0  0  0  0
 10  6  1  0  0  0  0
 10 11  1  0  0  0  0
 12  6  1  0  0  0  0
 13  4  1  0  0  0  0
 13 15  1  0  0  0  0
 14 13  1  0  0  0  0
 18 19  2  0  0  0  0
 19 23  1  0  0  0  0
 19 17  1  0  0  0  0
 20 21  2  0  0  0  0
 21 23  1  0  0  0  0
 22 18  1  0  0  0  0
 24 16  1  6  0  0  0
 24 22  1  0  0  0  0
 24 20  1  0  0  0  0
 25  1  1  6  0  0  0
 25 31  1  0  0  0  0
 25 27  1  0  0  0  0
 26 28  1  0  0  0  0
 27 29  1  1  0  0  0
 27 26  1  0  0  0  0
 30 28  1  0  0  0  0
 31 30  1  0  0  0  0
M  END
>  <MODEL>
3

>  <REMARK>
 VINA RESULT:      -5.0      3.011      4.698
  Name = 
  4 active torsions:
  status: ('A' for Active; 'I' for Inactive)
    1  A    between atoms: C_3  and  C_6
    2  A    between atoms: C_6  and  C_17
    3  A    between atoms: C_6  and  C_25
    4  A    between atoms: C_8  and  C_11
                            x       y       z     vdW  Elec       q    Type
                         _______ _______ _______ _____ _____    ______ ____

>  <TORSDO>
F 4

$$$$
=
 OpenBabel11072412373D

 31 34  0  0  1  0  0  0  0  0999 V2000
  160.5550  211.9230  149.5770 C   0  0  1  0  0  3  0  0  0  0  0  0
  161.5440  208.1970  148.9290 C   0  0  0  0  0  3  0  0  0  0  0  0
  162.3500  206.9140  150.8720 C   0  0  0  0  0  2  0  0  0  0  0  0
  161.5480  207.0440  149.6060 C   0  0  0  0  0  0  0  0  0  0  0  0
  161.5230  207.2290  153.0650 O   0  0  0  0  0  0  0  0  0  0  0  0
  161.3480  211.3960  150.7960 C   0  0  2  0  0  3  0  0  0  0  0  0
  161.5770  209.2410  151.8140 C   0  0  0  0  0  0  0  0  0  0  0  0
  161.0370  210.2050  153.2170 S   0  0  0  0  0  0  0  0  0  0  0  0
  161.7930  207.7780  151.9650 C   0  0  0  0  0  0  0  0  0  0  0  0
  161.7140  209.9420  150.6810 C   0  0  0  0  0  0  0  0  0  0  0  0
  162.3170  209.3820  149.4230 C   0  0  0  0  0  2  0  0  0  0  0  0
  160.5230  211.5170  152.0760 C   0  0  0  0  0  2  0  0  0  0  0  0
  160.7350  205.8970  149.0880 C   0  0  0  0  0  3  0  0  0  0  0  0
  160.8550  204.6940  150.0050 C   0  0  0  0  0  1  0  0  0  0  0  0
  161.1620  205.5220  147.6820 C   0  0  0  0  0  1  0  0  0  0  0  0
  158.6640  214.4530  153.1720 N   0  0  0  0  0  1  0  0  0  0  0  0
  156.5980  214.3700  147.8480 N   0  0  0  0  0  1  0  0  0  0  0  0
  156.6120  214.1710  150.1780 N   0  0  0  0  0  0  0  0  0  0  0  0
  157.2190  213.9400  149.0530 C   0  0  0  0  0  0  0  0  0  0  0  0
  159.4480  213.3490  151.1990 C   0  0  0  0  0  3  0  0  0  0  0  0
  159.4450  212.8700  149.9530 C   0  0  0  0  0  0  0  0  0  0  0  0
  157.0670  213.7610  151.4970 C   0  0  0  0  0  2  0  0  0  0  0  0
  158.4680  213.2300  148.9570 N   0  0  0  0  0  2  0  0  0  0  0  0
  158.4520  214.3070  151.7450 C   0  0  1  0  0  3  0  0  0  0  0  0
  161.4690  212.5150  148.4860 C   0  0  1  0  0  3  0  0  0  0  0  0
  161.7620  213.0390  146.0430 C   0  0  0  0  0  2  0  0  0  0  0  0
  160.8110  212.4820  147.0990 C   0  0  1  0  0  3  0  0  0  0  0  0
  162.2000  214.4530  146.4080 C   0  0  0  0  0  2  0  0  0  0  0  0
  160.4760  211.1700  146.7610 O   0  0  0  0  0  1  0  0  0  0  0  0
  162.9040  214.4460  147.7600 C   0  0  0  0  0  2  0  0  0  0  0  0
  161.9590  213.9260  148.8370 C   0  0  0  0  0  2  0  0  0  0  0  0
  1 21  1  1  0  0  0
  2 11  1  0  0  0  0
  2  4  2  0  0  0  0
  3  9  1  0  0  0  0
  4  3  1  0  0  0  0
  6  1  1  6  0  0  0
  6 12  1  0  0  0  0
  7  9  1  0  0  0  0
  7  8  1  0  0  0  0
  9  5  2  0  0  0  0
 10  6  1  0  0  0  0
 10  7  2  0  0  0  0
 11 10  1  0  0  0  0
 12  8  1  0  0  0  0
 13  4  1  0  0  0  0
 13 14  1  0  0  0  0
 15 13  1  0  0  0  0
 17 19  1  0  0  0  0
 18 22  1  0  0  0  0
 19 18  2  0  0  0  0
 20 24  1  0  0  0  0
 21 20  2  0  0  0  0
 22 24  1  0  0  0  0
 23 19  1  0  0  0  0
 23 21  1  0  0  0  0
 24 16  1  1  0  0  0
 25 31  1  0  0  0  0
 25  1  1  1  0  0  0
 26 28  1  0  0  0  0
 26 27  1  0  0  0  0
 27 29  1  6  0  0  0
 27 25  1  0  0  0  0
 28 30  1  0  0  0  0
 30 31  1  0  0  0  0
M  END
>  <MODEL>
4

>  <REMARK>
 VINA RESULT:      -4.5      4.704      8.458
  Name = 
  4 active torsions:
  status: ('A' for Active; 'I' for Inactive)
    1  A    between atoms: C_3  and  C_6
    2  A    between atoms: C_6  and  C_17
    3  A    between atoms: C_6  and  C_25
    4  A    between atoms: C_8  and  C_11
                            x       y       z     vdW  Elec       q    Type
                         _______ _______ _______ _____ _____    ______ ____

>  <TORSDO>
F 4

$$$$
=
 OpenBabel11072412373D

 31 34  0  0  1  0  0  0  0  0999 V2000
  160.4310  210.5140  152.4020 C   0  0  1  0  0  3  0  0  0  0  0  0
  158.5320  213.4450  150.6480 C   0  0  0  0  0  3  0  0  0  0  0  0
  159.6270  214.4530  148.6850 C   0  0  0  0  0  2  0  0  0  0  0  0
  158.4130  213.9480  149.4150 C   0  0  0  0  0  0  0  0  0  0  0  0
  160.9260  213.2120  147.1480 O   0  0  0  0  0  0  0  0  0  0  0  0
  161.4030  211.2340  151.4380 C   0  0  2  0  0  3  0  0  0  0  0  0
  161.1160  212.3980  149.3660 C   0  0  0  0  0  0  0  0  0  0  0  0
  162.3360  211.1860  148.8870 S   0  0  0  0  0  0  0  0  0  0  0  0
  160.5700  213.3360  148.3490 C   0  0  0  0  0  0  0  0  0  0  0  0
  160.7490  212.3370  150.6520 C   0  0  0  0  0  0  0  0  0  0  0  0
  159.8690  213.3590  151.3180 C   0  0  0  0  0  2  0  0  0  0  0  0
  161.9620  210.2600  150.4010 C   0  0  0  0  0  2  0  0  0  0  0  0
  157.0590  213.9850  148.7750 C   0  0  0  0  0  3  0  0  0  0  0  0
  155.9700  213.7250  149.8000 C   0  0  0  0  0  1  0  0  0  0  0  0
  156.9650  212.9730  147.6490 C   0  0  0  0  0  1  0  0  0  0  0  0
  162.3620  206.4970  150.6560 N   0  0  0  0  0  1  0  0  0  0  0  0
  160.7780  207.2170  156.0960 N   0  0  0  0  0  1  0  0  0  0  0  0
  160.8880  206.2380  153.9750 N   0  0  0  0  0  0  0  0  0  0  0  0
  160.7970  207.3270  154.6790 C   0  0  0  0  0  0  0  0  0  0  0  0
  161.4530  208.3990  151.7900 C   0  0  0  0  0  3  0  0  0  0  0  0
  160.8690  209.1150  152.7540 C   0  0  0  0  0  0  0  0  0  0  0  0
  160.8690  206.1520  152.5240 C   0  0  0  0  0  2  0  0  0  0  0  0
  160.6640  208.6380  154.0980 N   0  0  0  0  0  2  0  0  0  0  0  0
  161.9680  207.0150  151.9530 C   0  0  1  0  0  3  0  0  0  0  0  0
  160.1170  211.3490  153.6590 C   0  0  1  0  0  3  0  0  0  0  0  0
  158.4100  211.9690  155.4010 C   0  0  0  0  0  2  0  0  0  0  0  0
  158.6960  211.0960  154.1820 C   0  0  1  0  0  3  0  0  0  0  0  0
  159.4470  211.7220  156.4920 C   0  0  0  0  0  2  0  0  0  0  0  0
  157.7630  211.3870  153.1860 O   0  0  0  0  0  1  0  0  0  0  0  0
  160.8410  212.0400  155.9640 C   0  0  0  0  0  2  0  0  0  0  0  0
  161.1610  211.1530  154.7670 C   0  0  0  0  0  2  0  0  0  0  0  0
  1 21  1  1  0  0  0
  2 11  1  0  0  0  0
  3  4  1  0  0  0  0
  4  2  2  0  0  0  0
  5  9  2  0  0  0  0
  6  1  1  1  0  0  0
  7 10  2  0  0  0  0
  8  7  1  0  0  0  0
  8 12  1  0  0  0  0
  9  3  1  0  0  0  0
  9  7  1  0  0  0  0
 10 11  1  0  0  0  0
 10  6  1  0  0  0  0
 12  6  1  0  0  0  0
 13  4  1  0  0  0  0
 13 14  1  0  0  0  0
 15 13  1  0  0  0  0
 18 19  2  0  0  0  0
 19 17  1  0  0  0  0
 20 24  1  0  0  0  0
 20 21  2  0  0  0  0
 21 23  1  0  0  0  0
 22 18  1  0  0  0  0
 23 19  1  0  0  0  0
 24 16  1  6  0  0  0
 24 22  1  0  0  0  0
 25  1  1  6  0  0  0
 25 27  1  0  0  0  0
 25 31  1  0  0  0  0
 26 28  1  0  0  0  0
 27 29  1  6  0  0  0
 27 26  1  0  0  0  0
 30 28  1  0  0  0  0
 31 30  1  0  0  0  0
M  END
>  <MODEL>
5

>  <REMARK>
 VINA RESULT:      -4.2      3.034      5.021
  Name = 
  4 active torsions:
  status: ('A' for Active; 'I' for Inactive)
    1  A    between atoms: C_3  and  C_6
    2  A    between atoms: C_6  and  C_17
    3  A    between atoms: C_6  and  C_25
    4  A    between atoms: C_8  and  C_11
                            x       y       z     vdW  Elec       q    Type
                         _______ _______ _______ _____ _____    ______ ____

>  <TORSDO>
F 4

$$$$
=
 OpenBabel11072412373D

 31 34  0  0  1  0  0  0  0  0999 V2000
  160.7850  210.1410  151.4850 C   0  0  1  0  0  3  0  0  0  0  0  0
  158.6380  213.0970  150.0980 C   0  0  0  0  0  3  0  0  0  0  0  0
  159.6490  214.4510  148.3050 C   0  0  0  0  0  2  0  0  0  0  0  0
  158.4810  213.7460  148.9400 C   0  0  0  0  0  0  0  0  0  0  0  0
  161.0670  213.5480  146.6430 O   0  0  0  0  0  0  0  0  0  0  0  0
  161.6930  211.0680  150.6430 C   0  0  2  0  0  3  0  0  0  0  0  0
  161.3150  212.4660  148.7370 C   0  0  0  0  0  0  0  0  0  0  0  0
  162.6440  211.4430  148.1260 S   0  0  0  0  0  0  0  0  0  0  0  0
  160.6930  213.4780  147.8430 C   0  0  0  0  0  0  0  0  0  0  0  0
  160.9470  212.2020  149.9970 C   0  0  0  0  0  0  0  0  0  0  0  0
  159.9730  213.0430  150.7760 C   0  0  0  0  0  2  0  0  0  0  0  0
  162.3460  210.2950  149.4970 C   0  0  0  0  0  2  0  0  0  0  0  0
  157.1340  213.7470  148.2840 C   0  0  0  0  0  3  0  0  0  0  0  0
  156.0370  213.9760  149.3070 C   0  0  0  0  0  1  0  0  0  0  0  0
  156.8910  212.4450  147.5450 C   0  0  0  0  0  1  0  0  0  0  0  0
  161.9640  206.7840  148.2830 N   0  0  0  0  0  1  0  0  0  0  0  0
  161.2550  205.8110  153.8660 N   0  0  0  0  0  1  0  0  0  0  0  0
  160.9500  205.5660  151.5610 N   0  0  0  0  0  0  0  0  0  0  0  0
  161.0870  206.3720  152.5710 C   0  0  0  0  0  0  0  0  0  0  0  0
  161.4540  208.2730  150.0860 C   0  0  0  0  0  3  0  0  0  0  0  0
  161.1000  208.6770  151.3080 C   0  0  0  0  0  0  0  0  0  0  0  0
  160.7180  205.9550  150.1800 C   0  0  0  0  0  2  0  0  0  0  0  0
  161.0310  207.8060  152.4540 N   0  0  0  0  0  2  0  0  0  0  0  0
  161.8200  206.8800  149.7230 C   0  0  1  0  0  3  0  0  0  0  0  0
  160.7470  210.5430  152.9730 C   0  0  1  0  0  3  0  0  0  0  0  0
  159.3510  210.7800  155.0530 C   0  0  0  0  0  2  0  0  0  0  0  0
  159.3580  210.3340  153.5930 C   0  0  1  0  0  3  0  0  0  0  0  0
  160.4220  210.0380  155.8450 C   0  0  0  0  0  2  0  0  0  0  0  0
  158.4060  211.0720  152.8890 O   0  0  0  0  0  1  0  0  0  0  0  0
  161.7950  210.3130  155.2450 C   0  0  0  0  0  2  0  0  0  0  0  0
  161.8350  209.8410  153.7960 C   0  0  0  0  0  2  0  0  0  0  0  0
  1 21  1  1  0  0  0
  2 11  1  0  0  0  0
  3  4  1  0  0  0  0
  4  2  2  0  0  0  0
  5  9  2  0  0  0  0
  6  1  1  6  0  0  0
  7 10  2  0  0  0  0
  8  7  1  0  0  0  0
  8 12  1  0  0  0  0
  9  3  1  0  0  0  0
  9  7  1  0  0  0  0
 10  6  1  0  0  0  0
 10 11  1  0  0  0  0
 12  6  1  0  0  0  0
 13  4  1  0  0  0  0
 13 14  1  0  0  0  0
 15 13  1  0  0  0  0
 18 19  2  0  0  0  0
 19 17  1  0  0  0  0
 20 21  2  0  0  0  0
 21 23  1  0  0  0  0
 22 18  1  0  0  0  0
 23 19  1  0  0  0  0
 24 16  1  6  0  0  0
 24 20  1  0  0  0  0
 24 22  1  0  0  0  0
 25  1  1  6  0  0  0
 25 27  1  0  0  0  0
 25 31  1  0  0  0  0
 26 28  1  0  0  0  0
 27 29  1  6  0  0  0
 27 26  1  0  0  0  0
 30 28  1  0  0  0  0
 31 30  1  0  0  0  0
M  END
>  <MODEL>
6

>  <REMARK>
 VINA RESULT:      -3.7      3.223      5.141
  Name = 
  4 active torsions:
  status: ('A' for Active; 'I' for Inactive)
    1  A    between atoms: C_3  and  C_6
    2  A    between atoms: C_6  and  C_17
    3  A    between atoms: C_6  and  C_25
    4  A    between atoms: C_8  and  C_11
                            x       y       z     vdW  Elec       q    Type
                         _______ _______ _______ _____ _____    ______ ____

>  <TORSDO>
F 4

$$$$
=
 OpenBabel11072412373D

 31 34  0  0  1  0  0  0  0  0999 V2000
  162.1300  207.9770  150.2550 C   0  0  1  0  0  3  0  0  0  0  0  0
  160.5590  204.4550  150.8880 C   0  0  0  0  0  3  0  0  0  0  0  0
  160.0920  203.0790  148.8980 C   0  0  0  0  0  2  0  0  0  0  0  0
  160.5740  203.2480  150.3130 C   0  0  0  0  0  0  0  0  0  0  0  0
  161.4560  203.0910  146.9670 O   0  0  0  0  0  0  0  0  0  0  0  0
  161.5940  207.4190  148.9150 C   0  0  2  0  0  3  0  0  0  0  0  0
  161.3520  205.2110  148.0220 C   0  0  0  0  0  0  0  0  0  0  0  0
  162.3300  205.9720  146.7370 S   0  0  0  0  0  0  0  0  0  0  0  0
  160.9980  203.7700  147.9230 C   0  0  0  0  0  0  0  0  0  0  0  0
  161.0340  206.0290  149.0340 C   0  0  0  0  0  0  0  0  0  0  0  0
  160.0810  205.6590  150.1370 C   0  0  0  0  0  2  0  0  0  0  0  0
  162.7130  207.3290  147.8780 C   0  0  0  0  0  2  0  0  0  0  0  0
  161.0900  202.0780  151.0960 C   0  0  0  0  0  3  0  0  0  0  0  0
  162.4350  202.3980  151.7210 C   0  0  0  0  0  1  0  0  0  0  0  0
  161.2060  200.8480  150.2160 C   0  0  0  0  0  1  0  0  0  0  0  0
  160.8030  211.4640  153.2530 N   0  0  0  0  0  1  0  0  0  0  0  0
  162.5610  212.3180  147.8870 N   0  0  0  0  0  1  0  0  0  0  0  0
  161.1670  212.4260  149.7610 N   0  0  0  0  0  0  0  0  0  0  0  0
  161.9550  211.7070  149.0190 C   0  0  0  0  0  0  0  0  0  0  0  0
  161.5800  209.9280  151.5910 C   0  0  0  0  0  3  0  0  0  0  0  0
  161.9500  209.4670  150.3930 C   0  0  0  0  0  0  0  0  0  0  0  0
  160.4230  211.9610  150.9200 C   0  0  0  0  0  2  0  0  0  0  0  0
  162.2090  210.3090  149.2530 N   0  0  0  0  0  2  0  0  0  0  0  0
  161.3760  211.3610  151.9250 C   0  0  1  0  0  3  0  0  0  0  0  0
  161.5770  207.2170  151.4760 C   0  0  1  0  0  3  0  0  0  0  0  0
  162.1060  205.8160  153.4980 C   0  0  0  0  0  2  0  0  0  0  0  0
  162.6950  206.5920  152.3230 C   0  0  1  0  0  3  0  0  0  0  0  0
  161.2170  206.7200  154.3460 C   0  0  0  0  0  2  0  0  0  0  0  0
  163.4560  205.7220  151.5410 O   0  0  0  0  0  1  0  0  0  0  0  0
  160.0810  207.2760  153.4940 C   0  0  0  0  0  2  0  0  0  0  0  0
  160.6480  208.0860  152.3350 C   0  0  0  0  0  2  0  0  0  0  0  0
  1 21  1  1  0  0  0
  3  4  1  0  0  0  0
  4  2  2  0  0  0  0
  4 13  1  0  0  0  0
  5  9  2  0  0  0  0
  6 10  1  0  0  0  0
  6  1  1  1  0  0  0
  7 10  2  0  0  0  0
  8 12  1  0  0  0  0
  8  7  1  0  0  0  0
  9  7  1  0  0  0  0
  9  3  1  0  0  0  0
 10 11  1  0  0  0  0
 11  2  1  0  0  0  0
 12  6  1  0  0  0  0
 13 14  1  0  0  0  0
 15 13  1  0  0  0  0
 17 19  1  0  0  0  0
 18 22  1  0  0  0  0
 19 23  1  0  0  0  0
 19 18  2  0  0  0  0
 20 24  1  0  0  0  0
 21 20  2  0  0  0  0
 22 24  1  0  0  0  0
 23 21  1  0  0  0  0
 24 16  1  1  0  0  0
 25  1  1  6  0  0  0
 25 27  1  0  0  0  0
 25 31  1  0  0  0  0
 26 28  1  0  0  0  0
 27 29  1  6  0  0  0
 27 26  1  0  0  0  0
 30 28  1  0  0  0  0
 31 30  1  0  0  0  0
M  END
>  <MODEL>
7

>  <REMARK>
 VINA RESULT:      -3.3      5.136      8.393
  Name = 
  4 active torsions:
  status: ('A' for Active; 'I' for Inactive)
    1  A    between atoms: C_3  and  C_6
    2  A    between atoms: C_6  and  C_17
    3  A    between atoms: C_6  and  C_25
    4  A    between atoms: C_8  and  C_11
                            x       y       z     vdW  Elec       q    Type
                         _______ _______ _______ _____ _____    ______ ____

>  <TORSDO>
F 4

$$$$
=
 OpenBabel11072412373D

 31 34  0  0  1  0  0  0  0  0999 V2000
  160.1890  211.1450  151.5590 C   0  0  1  0  0  3  0  0  0  0  0  0
  161.2090  207.5330  150.4710 C   0  0  0  0  0  3  0  0  0  0  0  0
  162.1010  206.0590  152.2320 C   0  0  0  0  0  2  0  0  0  0  0  0
  161.2540  206.3120  151.0150 C   0  0  0  0  0  0  0  0  0  0  0  0
  161.3460  206.1140  154.4720 O   0  0  0  0  0  0  0  0  0  0  0  0
  161.0320  210.5020  152.6860 C   0  0  2  0  0  3  0  0  0  0  0  0
  161.3270  208.2530  153.4510 C   0  0  0  0  0  0  0  0  0  0  0  0
  160.8220  209.0460  154.9690 S   0  0  0  0  0  0  0  0  0  0  0  0
  161.5700  206.7860  153.4320 C   0  0  0  0  0  0  0  0  0  0  0  0
  161.4140  209.0760  152.3990 C   0  0  0  0  0  0  0  0  0  0  0  0
  161.9820  208.6700  151.0670 C   0  0  0  0  0  2  0  0  0  0  0  0
  160.2490  210.4660  153.9980 C   0  0  0  0  0  2  0  0  0  0  0  0
  160.4400  205.2140  150.4010 C   0  0  0  0  0  3  0  0  0  0  0  0
  160.6540  203.9060  151.1400 C   0  0  0  0  0  1  0  0  0  0  0  0
  160.7830  205.0430  148.9330 C   0  0  0  0  0  1  0  0  0  0  0  0
  156.8650  214.4530  150.6010 N   0  0  0  0  0  1  0  0  0  0  0  0
  156.8160  211.0660  155.1990 N   0  0  0  0  0  1  0  0  0  0  0  0
  156.7850  213.0480  153.9580 N   0  0  0  0  0  0  0  0  0  0  0  0
  157.2990  211.8660  154.1280 C   0  0  0  0  0  0  0  0  0  0  0  0
  158.3420  212.6940  151.2730 C   0  0  0  0  0  3  0  0  0  0  0  0
  158.9130  211.7760  152.0560 C   0  0  0  0  0  0  0  0  0  0  0  0
  157.1870  214.0210  152.9560 C   0  0  0  0  0  2  0  0  0  0  0  0
  158.3660  211.3420  153.3160 N   0  0  0  0  0  2  0  0  0  0  0  0
  157.0750  213.4060  151.5820 C   0  0  1  0  0  3  0  0  0  0  0  0
  161.0080  212.1190  150.6890 C   0  0  1  0  0  3  0  0  0  0  0  0
  162.1280  212.5270  148.4730 C   0  0  0  0  0  2  0  0  0  0  0  0
  161.2830  211.5520  149.2880 C   0  0  1  0  0  3  0  0  0  0  0  0
  161.4470  213.8880  148.3900 C   0  0  0  0  0  2  0  0  0  0  0  0
  161.9610  210.3370  149.3900 O   0  0  0  0  0  1  0  0  0  0  0  0
  161.2430  214.4530  149.7900 C   0  0  0  0  0  2  0  0  0  0  0  0
  160.3700  213.5120  150.6110 C   0  0  0  0  0  2  0  0  0  0  0  0
  1 21  1  1  0  0  0
  2  4  2  0  0  0  0
  2 11  1  0  0  0  0
  3  9  1  0  0  0  0
  4  3  1  0  0  0  0
  6  1  1  6  0  0  0
  6 12  1  0  0  0  0
  7  8  1  0  0  0  0
  9  7  1  0  0  0  0
  9  5  2  0  0  0  0
 10  6  1  0  0  0  0
 10  7  2  0  0  0  0
 11 10  1  0  0  0  0
 12  8  1  0  0  0  0
 13  4  1  0  0  0  0
 13 14  1  0  0  0  0
 15 13  1  0  0  0  0
 18 19  2  0  0  0  0
 19 17  1  0  0  0  0
 20 24  1  0  0  0  0
 20 21  2  0  0  0  0
 21 23  1  0  0  0  0
 22 18  1  0  0  0  0
 23 19  1  0  0  0  0
 24 16  1  6  0  0  0
 24 22  1  0  0  0  0
 25  1  1  6  0  0  0
 26 27  1  0  0  0  0
 27 29  1  1  0  0  0
 27 25  1  0  0  0  0
 28 26  1  0  0  0  0
 28 30  1  0  0  0  0
 30 31  1  0  0  0  0
 31 25  1  0  0  0  0
M  END
>  <MODEL>
8

>  <REMARK>
 VINA RESULT:      -2.9      3.555      7.573
  Name = 
  4 active torsions:
  status: ('A' for Active; 'I' for Inactive)
    1  A    between atoms: C_3  and  C_6
    2  A    between atoms: C_6  and  C_17
    3  A    between atoms: C_6  and  C_25
    4  A    between atoms: C_8  and  C_11
                            x       y       z     vdW  Elec       q    Type
                         _______ _______ _______ _____ _____    ______ ____

>  <TORSDO>
F 4

$$$$
=
 OpenBabel11072412373D

 31 34  0  0  1  0  0  0  0  0999 V2000
  160.2940  212.5370  148.0390 C   0  0  1  0  0  3  0  0  0  0  0  0
  161.4990  208.8200  148.0990 C   0  0  0  0  0  3  0  0  0  0  0  0
  162.4870  208.0120  150.2060 C   0  0  0  0  0  2  0  0  0  0  0  0
  161.6160  207.8330  148.9930 C   0  0  0  0  0  0  0  0  0  0  0  0
  161.7530  208.7250  152.3370 O   0  0  0  0  0  0  0  0  0  0  0  0
  161.1820  212.3180  149.2870 C   0  0  2  0  0  3  0  0  0  0  0  0
  161.6070  210.4370  150.7040 C   0  0  0  0  0  0  0  0  0  0  0  0
  161.0740  211.6370  151.9140 S   0  0  0  0  0  0  0  0  0  0  0  0
  161.9300  209.0500  151.1340 C   0  0  0  0  0  0  0  0  0  0  0  0
  161.6390  210.8950  149.4470 C   0  0  0  0  0  0  0  0  0  0  0  0
  162.2140  210.1220  148.2920 C   0  0  0  0  0  2  0  0  0  0  0  0
  160.4150  212.6550  150.5650 C   0  0  0  0  0  2  0  0  0  0  0  0
  160.8570  206.5600  148.7720 C   0  0  0  0  0  3  0  0  0  0  0  0
  161.0230  205.6200  149.9520 C   0  0  0  0  0  1  0  0  0  0  0  0
  161.3090  205.8760  147.4960 C   0  0  0  0  0  1  0  0  0  0  0  0
  157.6520  214.4530  151.5400 N   0  0  0  0  0  1  0  0  0  0  0  0
  156.1840  214.4530  146.0210 N   0  0  0  0  0  1  0  0  0  0  0  0
  155.9920  214.0800  148.3210 N   0  0  0  0  0  0  0  0  0  0  0  0
  156.7420  214.0360  147.2600 C   0  0  0  0  0  0  0  0  0  0  0  0
  158.8050  213.6410  149.6070 C   0  0  0  0  0  3  0  0  0  0  0  0
  159.0090  213.2660  148.3420 C   0  0  0  0  0  0  0  0  0  0  0  0
  156.3720  213.6480  149.6560 C   0  0  0  0  0  2  0  0  0  0  0  0
  158.0940  213.5410  147.2640 N   0  0  0  0  0  2  0  0  0  0  0  0
  157.6150  214.3850  150.0920 C   0  0  1  0  0  3  0  0  0  0  0  0
  161.0620  213.1900  146.8730 C   0  0  1  0  0  3  0  0  0  0  0  0
  163.2240  214.2080  146.0860 C   0  0  0  0  0  2  0  0  0  0  0  0
  162.5110  213.5280  147.2520 C   0  0  1  0  0  3  0  0  0  0  0  0
  163.1740  213.3290  144.8410 C   0  0  0  0  0  2  0  0  0  0  0  0
  162.5280  214.3830  148.3550 O   0  0  0  0  0  1  0  0  0  0  0  0
  161.7250  213.0610  144.4530 C   0  0  0  0  0  2  0  0  0  0  0  0
  161.0040  212.3490  145.5910 C   0  0  0  0  0  2  0  0  0  0  0  0
  1 21  1  1  0  0  0
  2 11  1  0  0  0  0
  2  4  2  0  0  0  0
  3  9  1  0  0  0  0
  4  3  1  0  0  0  0
  6  1  1  6  0  0  0
  6 10  1  0  0  0  0
  6 12  1  0  0  0  0
  7  9  1  0  0  0  0
  7  8  1  0  0  0  0
  9  5  2  0  0  0  0
 10  7  2  0  0  0  0
 11 10  1  0  0  0  0
 12  8  1  0  0  0  0
 13  4  1  0  0  0  0
 13 14  1  0  0  0  0
 15 13  1  0  0  0  0
 17 19  1  0  0  0  0
 18 22  1  0  0  0  0
 19 23  1  0  0  0  0
 19 18  2  0  0  0  0
 20 24  1  0  0  0  0
 21 20  2  0  0  0  0
 22 24  1  0  0  0  0
 23 21  1  0  0  0  0
 24 16  1  1  0  0  0
 25 27  1  0  0  0  0
 25  1  1  1  0  0  0
 26 27  1  0  0  0  0
 27 29  1  1  0  0  0
 28 26  1  0  0  0  0
 30 28  1  0  0  0  0
 30 31  1  0  0  0  0
 31 25  1  0  0  0  0
M  END
>  <MODEL>
9

>  <REMARK>
 VINA RESULT:      -2.8      5.495      9.043
  Name = 
  4 active torsions:
  status: ('A' for Active; 'I' for Inactive)
    1  A    between atoms: C_3  and  C_6
    2  A    between atoms: C_6  and  C_17
    3  A    between atoms: C_6  and  C_25
    4  A    between atoms: C_8  and  C_11
                            x       y       z     vdW  Elec       q    Type
                         _______ _______ _______ _____ _____    ______ ____

>  <TORSDO>
F 4

$$$$
