=
 OpenBabel11072413463D

 29 33  0  0  1  0  0  0  0  0999 V2000
  161.0890  205.9920  153.4200 C   0  0  0  0  0  3  0  0  0  0  0  0
  161.4960  203.9080  150.6120 N   0  0  0  0  0  0  0  0  0  0  0  0
  161.6700  207.2920  152.9440 C   0  0  0  0  0  2  0  0  0  0  0  0
  161.8190  203.3810  148.1810 C   0  0  0  0  0  3  0  0  0  0  0  0
  161.6310  203.8500  146.8700 C   0  0  0  0  0  3  0  0  0  0  0  0
  160.6330  205.9100  147.7160 C   0  0  0  0  0  3  0  0  0  0  0  0
  160.4880  206.0280  150.3170 C   0  0  2  0  0  3  0  0  0  0  0  0
  160.8270  207.9550  151.8590 C   0  0  2  0  0  3  0  0  0  0  0  0
  161.2230  207.3400  150.5230 C   0  0  0  0  0  2  0  0  0  0  0  0
  161.0220  204.9470  151.2310 C   0  0  0  0  0  0  0  0  0  0  0  0
  161.0410  205.1120  146.6300 C   0  0  0  0  0  0  0  0  0  0  0  0
  161.4080  204.2000  149.2300 C   0  0  0  0  0  0  0  0  0  0  0  0
  160.8410  205.4260  149.0080 C   0  0  0  0  0  0  0  0  0  0  0  0
  160.8690  204.9640  152.6530 N   0  0  0  0  0  0  0  0  0  0  0  0
  161.5470  205.0140  144.2020 O   0  0  0  0  0  0  0  0  0  0  0  0
  160.8450  205.5930  145.2530 C   0  0  0  0  0  0  0  0  0  0  0  0
  160.0400  206.5320  145.0140 O   0  0  0  0  0  1  0  0  0  0  0  0
  162.5370  209.7610  151.9170 C   0  0  0  0  0  1  0  0  0  0  0  0
  161.0290  209.4840  151.8780 C   0  0  2  0  0  3  0  0  0  0  0  0
  160.4230  210.9050  155.1850 C   0  0  1  0  0  3  0  0  0  0  0  0
  159.3550  211.0770  152.4320 C   0  0  0  0  0  2  0  0  0  0  0  0
  159.2940  212.8810  154.1720 N   0  0  0  0  0  2  0  0  0  0  0  0
  161.1720  210.9120  153.8580 C   0  0  1  0  0  3  0  0  0  0  0  0
  161.8110  210.3140  155.0890 C   0  0  0  0  0  2  0  0  0  0  0  0
  158.5060  211.8320  153.4900 C   0  0  0  0  0  2  0  0  0  0  0  0
  160.3020  210.0990  153.0120 N   0  0  0  0  0  0  0  0  0  0  0  0
  160.0920  212.3870  155.3230 C   0  0  1  0  0  3  0  0  0  0  0  0
  159.3290  212.6370  156.6130 C   0  0  0  0  0  2  0  0  0  0  0  0
  158.9340  211.3230  157.2600 C   0  0  0  0  0  1  0  0  0  0  0  0
  2 10  2  0  0  0  0
  3  1  1  0  0  0  0
  4 12  1  0  0  0  0
  5  4  2  0  0  0  0
  6 13  1  0  0  0  0
  7  9  1  1  0  0  0
  7 10  1  0  0  0  0
  8 19  1  6  0  0  0
  8  3  1  0  0  0  0
  9  8  1  0  0  0  0
 10 14  1  0  0  0  0
 11  5  1  0  0  0  0
 11  6  2  0  0  0  0
 12  2  1  0  0  0  0
 13 12  2  0  0  0  0
 13  7  1  0  0  0  0
 14  1  2  0  0  0  0
 15 16  2  0  0  0  0
 16 11  1  0  0  0  0
 17 16  1  0  0  0  0
 19 18  1  1  0  0  0
 19 26  1  0  0  0  0
 20 24  1  1  0  0  0
 20 27  1  0  0  0  0
 21 26  1  0  0  0  0
 21 25  1  0  0  0  0
 22 27  1  0  0  0  0
 23 24  1  1  0  0  0
 23 20  1  0  0  0  0
 25 22  1  0  0  0  0
 26 23  1  0  0  0  0
 27 28  1  1  0  0  0
 28 29  1  0  0  0  0
M  END
>  <MODEL>
1

>  <REMARK>
 VINA RESULT:      -8.7      0.000      0.000
  Name = 
  4 active torsions:
  status: ('A' for Active; 'I' for Inactive)
    1  A    between atoms: C_13  and  C_27
    2  A    between atoms: C_16  and  C_17
    3  A    between atoms: C_24  and  C_28
    4  A    between atoms: N_25  and  C_27
                            x       y       z     vdW  Elec       q    Type
                         _______ _______ _______ _____ _____    ______ ____

>  <TORSDO>
F 4

$$$$
=
 OpenBabel11072413463D

 29 33  0  0  1  0  0  0  0  0999 V2000
  161.9530  210.7140  151.2200 C   0  0  0  0  0  3  0  0  0  0  0  0
  161.4920  207.9430  149.0990 N   0  0  0  0  0  0  0  0  0  0  0  0
  161.0710  210.3770  152.3880 C   0  0  0  0  0  2  0  0  0  0  0  0
  160.8830  205.5790  148.5230 C   0  0  0  0  0  3  0  0  0  0  0  0
  160.7650  204.2700  149.0190 C   0  0  0  0  0  3  0  0  0  0  0  0
  161.4870  205.0110  151.2300 C   0  0  0  0  0  3  0  0  0  0  0  0
  162.0270  207.5580  151.3710 C   0  0  2  0  0  3  0  0  0  0  0  0
  161.5890  209.1930  153.1980 C   0  0  2  0  0  3  0  0  0  0  0  0
  161.1040  207.9190  152.5210 C   0  0  0  0  0  2  0  0  0  0  0  0
  161.8580  208.5110  150.2080 C   0  0  0  0  0  0  0  0  0  0  0  0
  161.0640  203.9790  150.3700 C   0  0  0  0  0  0  0  0  0  0  0  0
  161.2990  206.5750  149.4030 C   0  0  0  0  0  0  0  0  0  0  0  0
  161.5850  206.3030  150.7140 C   0  0  0  0  0  0  0  0  0  0  0  0
  162.2340  209.8900  150.2530 N   0  0  0  0  0  0  0  0  0  0  0  0
  160.4630  201.5910  150.0580 O   0  0  0  0  0  0  0  0  0  0  0  0
  160.9410  202.6040  150.8800 C   0  0  0  0  0  0  0  0  0  0  0  0
  161.2690  202.3320  152.0670 O   0  0  0  0  0  1  0  0  0  0  0  0
  160.1130  208.1560  154.9110 C   0  0  0  0  0  1  0  0  0  0  0  0
  161.1130  209.2930  154.6620 C   0  0  2  0  0  3  0  0  0  0  0  0
  158.6640  211.9890  154.8920 C   0  0  1  0  0  3  0  0  0  0  0  0
  161.1600  211.0980  156.2060 C   0  0  0  0  0  2  0  0  0  0  0  0
  159.3130  212.4290  157.2560 N   0  0  0  0  0  2  0  0  0  0  0  0
  159.1170  210.5780  155.2470 C   0  0  1  0  0  3  0  0  0  0  0  0
  158.0980  210.7970  154.1540 C   0  0  0  0  0  2  0  0  0  0  0  0
  160.6650  212.4970  156.6640 C   0  0  0  0  0  2  0  0  0  0  0  0
  160.5450  210.6300  154.9440 N   0  0  0  0  0  0  0  0  0  0  0  0
  158.2120  212.4870  156.2610 C   0  0  1  0  0  3  0  0  0  0  0  0
  157.6960  213.9120  156.1570 C   0  0  0  0  0  2  0  0  0  0  0  0
  157.8100  214.4160  154.7310 C   0  0  0  0  0  1  0  0  0  0  0  0
  1  3  1  0  0  0  0
  2 12  1  0  0  0  0
  2 10  2  0  0  0  0
  3  8  1  0  0  0  0
  4  5  2  0  0  0  0
  4 12  1  0  0  0  0
  5 11  1  0  0  0  0
  7  9  1  1  0  0  0
  8 19  1  1  0  0  0
  9  8  1  0  0  0  0
 10 14  1  0  0  0  0
 10  7  1  0  0  0  0
 11 16  1  0  0  0  0
 11  6  2  0  0  0  0
 12 13  2  0  0  0  0
 13  6  1  0  0  0  0
 13  7  1  0  0  0  0
 14  1  2  0  0  0  0
 15 16  2  0  0  0  0
 16 17  1  0  0  0  0
 19 18  1  6  0  0  0
 19 26  1  0  0  0  0
 20 24  1  6  0  0  0
 20 23  1  0  0  0  0
 20 27  1  0  0  0  0
 21 25  1  0  0  0  0
 23 24  1  6  0  0  0
 25 22  1  0  0  0  0
 26 23  1  0  0  0  0
 26 21  1  0  0  0  0
 27 28  1  6  0  0  0
 27 22  1  0  0  0  0
 29 28  1  0  0  0  0
M  END
>  <MODEL>
2

>  <REMARK>
 VINA RESULT:      -7.6      2.702      3.928
  Name = 
  4 active torsions:
  status: ('A' for Active; 'I' for Inactive)
    1  A    between atoms: C_13  and  C_27
    2  A    between atoms: C_16  and  C_17
    3  A    between atoms: C_24  and  C_28
    4  A    between atoms: N_25  and  C_27
                            x       y       z     vdW  Elec       q    Type
                         _______ _______ _______ _____ _____    ______ ____

>  <TORSDO>
F 4

$$$$
=
 OpenBabel11072413463D

 29 33  0  0  1  0  0  0  0  0999 V2000
  160.2800  207.8700  156.8370 C   0  0  0  0  0  3  0  0  0  0  0  0
  161.0030  205.9370  153.9860 N   0  0  0  0  0  0  0  0  0  0  0  0
  161.1640  209.0690  156.6470 C   0  0  0  0  0  2  0  0  0  0  0  0
  161.8120  205.5210  151.6480 C   0  0  0  0  0  3  0  0  0  0  0  0
  162.0270  206.1010  150.3860 C   0  0  0  0  0  3  0  0  0  0  0  0
  161.2060  208.2510  151.2030 C   0  0  0  0  0  3  0  0  0  0  0  0
  160.4590  208.2220  153.7010 C   0  0  2  0  0  3  0  0  0  0  0  0
  160.7290  209.9460  155.4780 C   0  0  2  0  0  3  0  0  0  0  0  0
  161.3280  209.3580  154.2080 C   0  0  0  0  0  2  0  0  0  0  0  0
  160.5720  207.0020  154.5890 C   0  0  0  0  0  0  0  0  0  0  0  0
  161.7270  207.4640  150.1570 C   0  0  0  0  0  0  0  0  0  0  0  0
  161.3010  206.3300  152.6590 C   0  0  0  0  0  0  0  0  0  0  0  0
  161.0140  207.6520  152.4480 C   0  0  0  0  0  0  0  0  0  0  0  0
  160.0840  206.9530  155.9330 N   0  0  0  0  0  0  0  0  0  0  0  0
  161.9560  209.4440  148.6780 O   0  0  0  0  0  1  0  0  0  0  0  0
  161.9520  208.0630  148.8320 C   0  0  0  0  0  0  0  0  0  0  0  0
  162.1430  207.3290  147.8250 O   0  0  0  0  0  0  0  0  0  0  0  0
  161.6210  211.5400  157.1670 C   0  0  0  0  0  1  0  0  0  0  0  0
  161.1680  211.4070  155.7070 C   0  0  2  0  0  3  0  0  0  0  0  0
  158.7270  213.2050  153.6770 C   0  0  1  0  0  3  0  0  0  0  0  0
  159.1140  212.3220  156.4730 C   0  0  0  0  0  2  0  0  0  0  0  0
  156.9210  212.6770  155.3090 N   0  0  0  0  0  2  0  0  0  0  0  0
  159.3030  211.8970  154.2050 C   0  0  1  0  0  3  0  0  0  0  0  0
  159.6510  212.3760  152.8140 C   0  0  0  0  0  2  0  0  0  0  0  0
  157.8900  213.2550  156.2650 C   0  0  0  0  0  2  0  0  0  0  0  0
  160.0820  212.3480  155.3550 N   0  0  0  0  0  0  0  0  0  0  0  0
  157.2370  212.9550  153.8850 C   0  0  1  0  0  3  0  0  0  0  0  0
  156.4320  214.1530  153.4120 C   0  0  0  0  0  2  0  0  0  0  0  0
  156.7310  214.4520  151.9540 C   0  0  0  0  0  1  0  0  0  0  0  0
  2 10  2  0  0  0  0
  3  1  1  0  0  0  0
  4 12  1  0  0  0  0
  5  4  2  0  0  0  0
  6 13  1  0  0  0  0
  7  9  1  1  0  0  0
  7 10  1  0  0  0  0
  8 19  1  1  0  0  0
  8  3  1  0  0  0  0
  9  8  1  0  0  0  0
 10 14  1  0  0  0  0
 11  5  1  0  0  0  0
 11  6  2  0  0  0  0
 12  2  1  0  0  0  0
 13 12  2  0  0  0  0
 13  7  1  0  0  0  0
 14  1  2  0  0  0  0
 15 16  1  0  0  0  0
 16 11  1  0  0  0  0
 17 16  2  0  0  0  0
 19 18  1  1  0  0  0
 20 24  1  6  0  0  0
 20 27  1  0  0  0  0
 20 23  1  0  0  0  0
 22 25  1  0  0  0  0
 23 24  1  6  0  0  0
 23 26  1  0  0  0  0
 25 21  1  0  0  0  0
 26 19  1  0  0  0  0
 26 21  1  0  0  0  0
 27 28  1  1  0  0  0
 27 22  1  0  0  0  0
 29 28  1  0  0  0  0
M  END
>  <MODEL>
3

>  <REMARK>
 VINA RESULT:      -7.3      2.413      4.179
  Name = 
  4 active torsions:
  status: ('A' for Active; 'I' for Inactive)
    1  A    between atoms: C_13  and  C_27
    2  A    between atoms: C_16  and  C_17
    3  A    between atoms: C_24  and  C_28
    4  A    between atoms: N_25  and  C_27
                            x       y       z     vdW  Elec       q    Type
                         _______ _______ _______ _____ _____    ______ ____

>  <TORSDO>
F 4

$$$$
=
 OpenBabel11072413463D

 29 33  0  0  1  0  0  0  0  0999 V2000
  161.0160  206.5970  153.7890 C   0  0  0  0  0  3  0  0  0  0  0  0
  161.1500  204.3350  151.0960 N   0  0  0  0  0  0  0  0  0  0  0  0
  161.8720  207.7310  153.3020 C   0  0  0  0  0  2  0  0  0  0  0  0
  161.4940  203.6330  148.7120 C   0  0  0  0  0  3  0  0  0  0  0  0
  161.4770  204.0630  147.3740 C   0  0  0  0  0  3  0  0  0  0  0  0
  160.8670  206.3200  148.0750 C   0  0  0  0  0  3  0  0  0  0  0  0
  160.6060  206.5960  150.6550 C   0  0  2  0  0  3  0  0  0  0  0  0
  161.2400  208.4920  152.1400 C   0  0  2  0  0  3  0  0  0  0  0  0
  161.5770  207.7440  150.8580 C   0  0  0  0  0  2  0  0  0  0  0  0
  160.8610  205.4770  151.6420 C   0  0  0  0  0  0  0  0  0  0  0  0
  161.1660  205.4030  147.0490 C   0  0  0  0  0  0  0  0  0  0  0  0
  161.1990  204.5690  149.7000 C   0  0  0  0  0  0  0  0  0  0  0  0
  160.9020  205.8700  149.3950 C   0  0  0  0  0  0  0  0  0  0  0  0
  160.6360  205.5960  153.0500 N   0  0  0  0  0  0  0  0  0  0  0  0
  162.2930  205.7450  144.8640 O   0  0  0  0  0  0  0  0  0  0  0  0
  161.1470  205.8440  145.6450 C   0  0  0  0  0  0  0  0  0  0  0  0
  160.0930  206.3130  145.1380 O   0  0  0  0  0  1  0  0  0  0  0  0
  162.0520  210.3690  153.5580 C   0  0  0  0  0  1  0  0  0  0  0  0
  161.7440  209.9500  152.1140 C   0  0  2  0  0  3  0  0  0  0  0  0
  158.8540  212.1410  151.7000 C   0  0  1  0  0  3  0  0  0  0  0  0
  161.5130  211.6710  150.4920 C   0  0  0  0  0  2  0  0  0  0  0  0
  160.2610  213.8420  150.5450 N   0  0  0  0  0  2  0  0  0  0  0  0
  160.1780  211.8080  152.3790 C   0  0  1  0  0  3  0  0  0  0  0  0
  158.8700  211.5090  153.0730 C   0  0  0  0  0  2  0  0  0  0  0  0
  160.6300  212.6800  149.7100 C   0  0  0  0  0  2  0  0  0  0  0  0
  160.7600  210.8380  151.4560 N   0  0  0  0  0  0  0  0  0  0  0  0
  159.0630  213.6200  151.3960 C   0  0  1  0  0  3  0  0  0  0  0  0
  157.8380  214.1930  150.7050 C   0  0  0  0  0  2  0  0  0  0  0  0
  157.2290  213.1670  149.7660 C   0  0  0  0  0  1  0  0  0  0  0  0
  2 10  2  0  0  0  0
  3  1  1  0  0  0  0
  4 12  1  0  0  0  0
  5  4  2  0  0  0  0
  6 13  1  0  0  0  0
  7  9  1  1  0  0  0
  7 10  1  0  0  0  0
  8 19  1  6  0  0  0
  8  3  1  0  0  0  0
  9  8  1  0  0  0  0
 10 14  1  0  0  0  0
 11  5  1  0  0  0  0
 11  6  2  0  0  0  0
 12  2  1  0  0  0  0
 13 12  2  0  0  0  0
 13  7  1  0  0  0  0
 14  1  2  0  0  0  0
 15 16  2  0  0  0  0
 16 11  1  0  0  0  0
 17 16  1  0  0  0  0
 19 18  1  1  0  0  0
 20 23  1  0  0  0  0
 20 24  1  1  0  0  0
 21 26  1  0  0  0  0
 22 27  1  0  0  0  0
 23 24  1  1  0  0  0
 25 21  1  0  0  0  0
 25 22  1  0  0  0  0
 26 19  1  0  0  0  0
 26 23  1  0  0  0  0
 27 28  1  6  0  0  0
 27 20  1  0  0  0  0
 29 28  1  0  0  0  0
M  END
>  <MODEL>
4

>  <REMARK>
 VINA RESULT:      -7.2      1.735      2.709
  Name = 
  4 active torsions:
  status: ('A' for Active; 'I' for Inactive)
    1  A    between atoms: C_13  and  C_27
    2  A    between atoms: C_16  and  C_17
    3  A    between atoms: C_24  and  C_28
    4  A    between atoms: N_25  and  C_27
                            x       y       z     vdW  Elec       q    Type
                         _______ _______ _______ _____ _____    ______ ____

>  <TORSDO>
F 4

$$$$
=
 OpenBabel11072413463D

 29 33  0  0  1  0  0  0  0  0999 V2000
  161.9560  209.4170  155.6700 C   0  0  0  0  0  3  0  0  0  0  0  0
  160.1800  212.3980  155.0770 N   0  0  0  0  0  0  0  0  0  0  0  0
  161.0950  208.3880  154.9960 C   0  0  0  0  0  2  0  0  0  0  0  0
  158.5530  213.8940  153.8910 C   0  0  0  0  0  3  0  0  0  0  0  0
  157.9020  214.1460  152.6720 C   0  0  0  0  0  3  0  0  0  0  0  0
  159.0210  212.2340  151.6460 C   0  0  0  0  0  3  0  0  0  0  0  0
  160.6380  210.9650  153.2500 C   0  0  2  0  0  3  0  0  0  0  0  0
  161.0890  208.5260  153.4760 C   0  0  2  0  0  3  0  0  0  0  0  0
  160.0480  209.5740  153.1100 C   0  0  0  0  0  2  0  0  0  0  0  0
  160.8310  211.3380  154.7040 C   0  0  0  0  0  0  0  0  0  0  0  0
  158.1300  213.3200  151.5460 C   0  0  0  0  0  0  0  0  0  0  0  0
  159.4230  212.8090  153.9540 C   0  0  0  0  0  0  0  0  0  0  0  0
  159.6450  212.0010  152.8710 C   0  0  0  0  0  0  0  0  0  0  0  0
  161.7800  210.7030  155.5650 N   0  0  0  0  0  0  0  0  0  0  0  0
  158.0890  213.3450  149.0650 O   0  0  0  0  0  0  0  0  0  0  0  0
  157.4460  213.5930  150.2720 C   0  0  0  0  0  0  0  0  0  0  0  0
  156.2730  214.0530  150.2640 O   0  0  0  0  0  1  0  0  0  0  0  0
  161.2120  206.0620  153.8010 C   0  0  0  0  0  1  0  0  0  0  0  0
  160.8030  207.1630  152.8130 C   0  0  2  0  0  3  0  0  0  0  0  0
  161.7530  205.8410  149.5470 C   0  0  1  0  0  3  0  0  0  0  0  0
  161.6280  208.4260  150.9780 C   0  0  0  0  0  2  0  0  0  0  0  0
  161.4290  208.0780  148.5030 N   0  0  0  0  0  2  0  0  0  0  0  0
  160.6900  206.3630  150.5060 C   0  0  1  0  0  3  0  0  0  0  0  0
  160.8540  204.8770  150.2870 C   0  0  0  0  0  2  0  0  0  0  0  0
  162.3310  208.4990  149.5960 C   0  0  0  0  0  2  0  0  0  0  0  0
  161.4960  207.0520  151.5100 N   0  0  0  0  0  0  0  0  0  0  0  0
  161.3880  206.6100  148.2830 C   0  0  1  0  0  3  0  0  0  0  0  0
  162.3310  206.2410  147.1510 C   0  0  0  0  0  2  0  0  0  0  0  0
  162.1990  204.7680  146.8080 C   0  0  0  0  0  1  0  0  0  0  0  0
  3  1  1  0  0  0  0
  4 12  1  0  0  0  0
  5  4  2  0  0  0  0
  6 13  1  0  0  0  0
  7  9  1  1  0  0  0
  7 10  1  0  0  0  0
  8 19  1  6  0  0  0
  8  3  1  0  0  0  0
  9  8  1  0  0  0  0
 10  2  2  0  0  0  0
 10 14  1  0  0  0  0
 11  6  2  0  0  0  0
 11  5  1  0  0  0  0
 12  2  1  0  0  0  0
 13  7  1  0  0  0  0
 13 12  2  0  0  0  0
 14  1  2  0  0  0  0
 15 16  2  0  0  0  0
 16 11  1  0  0  0  0
 17 16  1  0  0  0  0
 19 18  1  1  0  0  0
 20 24  1  6  0  0  0
 20 23  1  0  0  0  0
 21 26  1  0  0  0  0
 22 25  1  0  0  0  0
 23 24  1  1  0  0  0
 23 26  1  0  0  0  0
 25 21  1  0  0  0  0
 26 19  1  0  0  0  0
 27 28  1  6  0  0  0
 27 22  1  0  0  0  0
 27 20  1  0  0  0  0
 29 28  1  0  0  0  0
M  END
>  <MODEL>
5

>  <REMARK>
 VINA RESULT:      -7.0      3.028      8.043
  Name = 
  4 active torsions:
  status: ('A' for Active; 'I' for Inactive)
    1  A    between atoms: C_13  and  C_27
    2  A    between atoms: C_16  and  C_17
    3  A    between atoms: C_24  and  C_28
    4  A    between atoms: N_25  and  C_27
                            x       y       z     vdW  Elec       q    Type
                         _______ _______ _______ _____ _____    ______ ____

>  <TORSDO>
F 4

$$$$
=
 OpenBabel11072413463D

 29 33  0  0  1  0  0  0  0  0999 V2000
  161.0670  204.4410  153.1000 C   0  0  0  0  0  3  0  0  0  0  0  0
  161.1650  202.8770  149.9490 N   0  0  0  0  0  0  0  0  0  0  0  0
  161.8890  205.6780  152.8730 C   0  0  0  0  0  2  0  0  0  0  0  0
  161.4550  202.7610  147.4600 C   0  0  0  0  0  3  0  0  0  0  0  0
  161.3920  203.4910  146.2610 C   0  0  0  0  0  3  0  0  0  0  0  0
  160.7630  205.5070  147.4860 C   0  0  0  0  0  3  0  0  0  0  0  0
  160.5690  205.1640  150.0640 C   0  0  2  0  0  3  0  0  0  0  0  0
  161.2110  206.6740  151.9370 C   0  0  2  0  0  3  0  0  0  0  0  0
  161.5250  206.2560  150.5080 C   0  0  0  0  0  2  0  0  0  0  0  0
  160.8720  203.8520  150.7540 C   0  0  0  0  0  0  0  0  0  0  0  0
  161.0490  204.8630  146.2670 C   0  0  0  0  0  0  0  0  0  0  0  0
  161.1710  203.4320  148.6470 C   0  0  0  0  0  0  0  0  0  0  0  0
  160.8430  204.7610  148.6620 C   0  0  0  0  0  0  0  0  0  0  0  0
  160.6840  203.6320  152.1550 N   0  0  0  0  0  0  0  0  0  0  0  0
  161.5970  205.1270  143.8600 O   0  0  0  0  0  0  0  0  0  0  0  0
  160.9830  205.6190  145.0060 C   0  0  0  0  0  0  0  0  0  0  0  0
  160.3690  206.7190  144.9530 O   0  0  0  0  0  1  0  0  0  0  0  0
  161.0760  208.5350  153.5840 C   0  0  0  0  0  1  0  0  0  0  0  0
  161.6880  208.1090  152.2430 C   0  0  2  0  0  3  0  0  0  0  0  0
  160.8630  211.2100  150.5040 C   0  0  1  0  0  3  0  0  0  0  0  0
  162.1200  208.5890  149.9560 C   0  0  0  0  0  2  0  0  0  0  0  0
  162.5990  210.7500  148.7780 N   0  0  0  0  0  2  0  0  0  0  0  0
  161.8080  210.3920  151.3760 C   0  0  1  0  0  3  0  0  0  0  0  0
  160.8870  211.4120  152.0020 C   0  0  0  0  0  2  0  0  0  0  0  0
  161.8850  209.4580  148.6910 C   0  0  0  0  0  2  0  0  0  0  0  0
  161.3420  209.0290  151.1350 N   0  0  0  0  0  0  0  0  0  0  0  0
  161.8510  211.8060  149.5080 C   0  0  1  0  0  3  0  0  0  0  0  0
  161.1240  212.6930  148.5120 C   0  0  0  0  0  2  0  0  0  0  0  0
  162.0390  213.0560  147.3570 C   0  0  0  0  0  1  0  0  0  0  0  0
  2 10  2  0  0  0  0
  3  1  1  0  0  0  0
  4 12  1  0  0  0  0
  5 11  1  0  0  0  0
  5  4  2  0  0  0  0
  6 13  1  0  0  0  0
  7  9  1  1  0  0  0
  7 10  1  0  0  0  0
  8 19  1  1  0  0  0
  8  3  1  0  0  0  0
  9  8  1  0  0  0  0
 10 14  1  0  0  0  0
 11  6  2  0  0  0  0
 12 13  2  0  0  0  0
 12  2  1  0  0  0  0
 13  7  1  0  0  0  0
 14  1  2  0  0  0  0
 15 16  2  0  0  0  0
 16 11  1  0  0  0  0
 17 16  1  0  0  0  0
 19 18  1  1  0  0  0
 20 23  1  0  0  0  0
 20 24  1  1  0  0  0
 21 26  1  0  0  0  0
 22 27  1  0  0  0  0
 23 24  1  1  0  0  0
 25 22  1  0  0  0  0
 25 21  1  0  0  0  0
 26 23  1  0  0  0  0
 26 19  1  0  0  0  0
 27 28  1  6  0  0  0
 27 20  1  0  0  0  0
 29 28  1  0  0  0  0
M  END
>  <MODEL>
6

>  <REMARK>
 VINA RESULT:      -6.9      2.224      3.690
  Name = 
  4 active torsions:
  status: ('A' for Active; 'I' for Inactive)
    1  A    between atoms: C_13  and  C_27
    2  A    between atoms: C_16  and  C_17
    3  A    between atoms: C_24  and  C_28
    4  A    between atoms: N_25  and  C_27
                            x       y       z     vdW  Elec       q    Type
                         _______ _______ _______ _____ _____    ______ ____

>  <TORSDO>
F 4

$$$$
=
 OpenBabel11072413463D

 29 33  0  0  1  0  0  0  0  0999 V2000
  162.0530  211.0070  149.7340 C   0  0  0  0  0  3  0  0  0  0  0  0
  161.5790  207.8460  148.2600 N   0  0  0  0  0  0  0  0  0  0  0  0
  161.1650  210.9360  150.9430 C   0  0  0  0  0  2  0  0  0  0  0  0
  160.9570  205.4170  148.2050 C   0  0  0  0  0  3  0  0  0  0  0  0
  160.8280  204.2460  148.9730 C   0  0  0  0  0  3  0  0  0  0  0  0
  161.5480  205.4430  150.9750 C   0  0  0  0  0  3  0  0  0  0  0  0
  162.1050  207.9580  150.5640 C   0  0  2  0  0  3  0  0  0  0  0  0
  161.6720  209.9520  151.9920 C   0  0  2  0  0  3  0  0  0  0  0  0
  161.1810  208.5650  151.6040 C   0  0  0  0  0  2  0  0  0  0  0  0
  161.9460  208.6370  149.2220 C   0  0  0  0  0  0  0  0  0  0  0  0
  161.1210  204.2520  150.3560 C   0  0  0  0  0  0  0  0  0  0  0  0
  161.3760  206.5760  148.8520 C   0  0  0  0  0  0  0  0  0  0  0  0
  161.6560  206.5930  150.1920 C   0  0  0  0  0  0  0  0  0  0  0  0
  162.3310  209.9910  148.9690 N   0  0  0  0  0  0  0  0  0  0  0  0
  161.0220  201.7780  150.5300 O   0  0  0  0  0  0  0  0  0  0  0  0
  160.9870  203.0210  151.1510 C   0  0  0  0  0  0  0  0  0  0  0  0
  160.8410  203.0820  152.4010 O   0  0  0  0  0  1  0  0  0  0  0  0
  161.2080  209.1210  154.2910 C   0  0  0  0  0  1  0  0  0  0  0  0
  161.1920  210.3680  153.3980 C   0  0  2  0  0  3  0  0  0  0  0  0
  157.8270  211.3730  154.3930 C   0  0  1  0  0  3  0  0  0  0  0  0
  160.0560  212.3360  152.7040 C   0  0  0  0  0  2  0  0  0  0  0  0
  158.3360  213.7510  153.8550 N   0  0  0  0  0  2  0  0  0  0  0  0
  159.3280  211.3260  154.6560 C   0  0  1  0  0  3  0  0  0  0  0  0
  158.4020  210.3580  155.3540 C   0  0  0  0  0  2  0  0  0  0  0  0
  158.7500  213.1630  152.5630 C   0  0  0  0  0  2  0  0  0  0  0  0
  159.8600  211.0120  153.3330 N   0  0  0  0  0  0  0  0  0  0  0  0
  157.5360  212.8360  154.7080 C   0  0  1  0  0  3  0  0  0  0  0  0
  156.0580  213.1300  154.5200 C   0  0  0  0  0  2  0  0  0  0  0  0
  155.5820  214.1420  155.5450 C   0  0  0  0  0  1  0  0  0  0  0  0
  1  3  1  0  0  0  0
  2 12  1  0  0  0  0
  2 10  2  0  0  0  0
  3  8  1  0  0  0  0
  4 12  2  0  0  0  0
  4  5  1  0  0  0  0
  5 11  2  0  0  0  0
  7  9  1  1  0  0  0
  8 19  1  1  0  0  0
  9  8  1  0  0  0  0
 10  7  1  0  0  0  0
 11  6  1  0  0  0  0
 11 16  1  0  0  0  0
 12 13  1  0  0  0  0
 13  7  1  0  0  0  0
 13  6  2  0  0  0  0
 14 10  1  0  0  0  0
 14  1  2  0  0  0  0
 15 16  2  0  0  0  0
 16 17  1  0  0  0  0
 19 18  1  1  0  0  0
 20 23  1  0  0  0  0
 20 27  1  0  0  0  0
 20 24  1  1  0  0  0
 21 26  1  0  0  0  0
 22 27  1  0  0  0  0
 23 24  1  1  0  0  0
 25 21  1  0  0  0  0
 25 22  1  0  0  0  0
 26 19  1  0  0  0  0
 26 23  1  0  0  0  0
 27 28  1  6  0  0  0
 28 29  1  0  0  0  0
M  END
>  <MODEL>
7

>  <REMARK>
 VINA RESULT:      -6.8      2.829      3.909
  Name = 
  4 active torsions:
  status: ('A' for Active; 'I' for Inactive)
    1  A    between atoms: C_13  and  C_27
    2  A    between atoms: C_16  and  C_17
    3  A    between atoms: C_24  and  C_28
    4  A    between atoms: N_25  and  C_27
                            x       y       z     vdW  Elec       q    Type
                         _______ _______ _______ _____ _____    ______ ____

>  <TORSDO>
F 4

$$$$
=
 OpenBabel11072413463D

 29 33  0  0  1  0  0  0  0  0999 V2000
  161.2050  207.7210  155.1440 C   0  0  0  0  0  3  0  0  0  0  0  0
  158.8360  210.3170  155.3430 N   0  0  0  0  0  0  0  0  0  0  0  0
  161.0680  207.2670  153.7190 C   0  0  0  0  0  2  0  0  0  0  0  0
  157.3320  212.1150  154.4510 C   0  0  0  0  0  3  0  0  0  0  0  0
  157.1210  213.0170  153.3940 C   0  0  0  0  0  3  0  0  0  0  0  0
  159.1310  212.2120  152.2670 C   0  0  0  0  0  3  0  0  0  0  0  0
  160.3950  210.3360  153.5640 C   0  0  2  0  0  3  0  0  0  0  0  0
  161.5620  208.3050  152.7170 C   0  0  2  0  0  3  0  0  0  0  0  0
  160.4260  209.2870  152.4670 C   0  0  0  0  0  2  0  0  0  0  0  0
  159.9060  209.7520  154.8710 C   0  0  0  0  0  0  0  0  0  0  0  0
  158.0150  213.0700  152.3000 C   0  0  0  0  0  0  0  0  0  0  0  0
  158.4420  211.2780  154.3820 C   0  0  0  0  0  0  0  0  0  0  0  0
  159.3100  211.3190  153.3230 C   0  0  0  0  0  0  0  0  0  0  0  0
  160.6380  208.7870  155.6310 N   0  0  0  0  0  0  0  0  0  0  0  0
  158.8520  214.4500  150.4130 O   0  0  0  0  0  0  0  0  0  0  0  0
  157.7890  214.0200  151.1990 C   0  0  0  0  0  0  0  0  0  0  0  0
  156.6300  214.4530  150.9590 O   0  0  0  0  0  1  0  0  0  0  0  0
  161.8410  208.6080  150.2630 C   0  0  0  0  0  1  0  0  0  0  0  0
  162.0350  207.6180  151.4190 C   0  0  2  0  0  3  0  0  0  0  0  0
  160.4300  204.8480  149.6670 C   0  0  1  0  0  3  0  0  0  0  0  0
  161.8430  205.3860  152.2090 C   0  0  0  0  0  2  0  0  0  0  0  0
  161.7470  203.1980  150.9890 N   0  0  0  0  0  2  0  0  0  0  0  0
  161.6520  205.7210  149.9260 C   0  0  1  0  0  3  0  0  0  0  0  0
  160.7850  205.9660  148.7140 C   0  0  0  0  0  2  0  0  0  0  0  0
  161.2040  203.9730  152.1240 C   0  0  0  0  0  2  0  0  0  0  0  0
  161.3200  206.3390  151.2060 N   0  0  0  0  0  0  0  0  0  0  0  0
  161.0680  203.4630  149.6950 C   0  0  1  0  0  3  0  0  0  0  0  0
  160.0160  202.3960  149.4450 C   0  0  0  0  0  2  0  0  0  0  0  0
  160.6390  201.0130  149.5050 C   0  0  0  0  0  1  0  0  0  0  0  0
  1 14  2  0  0  0  0
  3  1  1  0  0  0  0
  5  4  2  0  0  0  0
  6 11  2  0  0  0  0
  6 13  1  0  0  0  0
  7  9  1  6  0  0  0
  7 10  1  0  0  0  0
  8 19  1  6  0  0  0
  8  3  1  0  0  0  0
  9  8  1  0  0  0  0
 10  2  2  0  0  0  0
 10 14  1  0  0  0  0
 11  5  1  0  0  0  0
 12  4  1  0  0  0  0
 12  2  1  0  0  0  0
 13  7  1  0  0  0  0
 13 12  2  0  0  0  0
 15 16  2  0  0  0  0
 16 11  1  0  0  0  0
 17 16  1  0  0  0  0
 19 18  1  6  0  0  0
 20 24  1  6  0  0  0
 20 27  1  0  0  0  0
 20 23  1  0  0  0  0
 22 25  1  0  0  0  0
 23 24  1  6  0  0  0
 23 26  1  0  0  0  0
 25 21  1  0  0  0  0
 26 19  1  0  0  0  0
 26 21  1  0  0  0  0
 27 28  1  1  0  0  0
 27 22  1  0  0  0  0
 28 29  1  0  0  0  0
M  END
>  <MODEL>
8

>  <REMARK>
 VINA RESULT:      -6.7      3.335      8.273
  Name = 
  4 active torsions:
  status: ('A' for Active; 'I' for Inactive)
    1  A    between atoms: C_13  and  C_27
    2  A    between atoms: C_16  and  C_17
    3  A    between atoms: C_24  and  C_28
    4  A    between atoms: N_25  and  C_27
                            x       y       z     vdW  Elec       q    Type
                         _______ _______ _______ _____ _____    ______ ____

>  <TORSDO>
F 4

$$$$
=
 OpenBabel11072413463D

 29 33  0  0  1  0  0  0  0  0999 V2000
  161.0170  204.8420  153.4360 C   0  0  0  0  0  3  0  0  0  0  0  0
  161.2450  202.1290  151.2060 N   0  0  0  0  0  0  0  0  0  0  0  0
  161.7180  205.9380  152.6860 C   0  0  0  0  0  2  0  0  0  0  0  0
  161.5330  201.0190  148.9750 C   0  0  0  0  0  3  0  0  0  0  0  0
  161.3970  201.1800  147.5850 C   0  0  0  0  0  3  0  0  0  0  0  0
  160.5880  203.4620  147.8990 C   0  0  0  0  0  3  0  0  0  0  0  0
  160.4390  204.2010  150.3960 C   0  0  2  0  0  3  0  0  0  0  0  0
  160.9460  206.3980  151.4530 C   0  0  2  0  0  3  0  0  0  0  0  0
  161.2910  205.4540  150.3100 C   0  0  0  0  0  2  0  0  0  0  0  0
  160.8660  203.3220  151.5510 C   0  0  0  0  0  0  0  0  0  0  0  0
  160.9260  202.3980  147.0410 C   0  0  0  0  0  0  0  0  0  0  0  0
  161.1930  202.0940  149.7920 C   0  0  0  0  0  0  0  0  0  0  0  0
  160.7430  203.2780  149.2730 C   0  0  0  0  0  0  0  0  0  0  0  0
  160.7060  203.6860  152.9250 N   0  0  0  0  0  0  0  0  0  0  0  0
  160.0490  201.6360  144.8480 O   0  0  0  0  0  0  0  0  0  0  0  0
  160.7840  202.5560  145.5850 C   0  0  0  0  0  0  0  0  0  0  0  0
  161.3270  203.5280  144.9940 O   0  0  0  0  0  1  0  0  0  0  0  0
  162.8160  208.0060  151.1230 C   0  0  0  0  0  1  0  0  0  0  0  0
  161.2880  207.8650  151.1200 C   0  0  2  0  0  3  0  0  0  0  0  0
  160.2860  209.3870  154.2820 C   0  0  1  0  0  3  0  0  0  0  0  0
  160.6620  210.1340  151.4450 C   0  0  0  0  0  2  0  0  0  0  0  0
  160.8890  211.6490  153.4300 N   0  0  0  0  0  2  0  0  0  0  0  0
  161.3740  208.9560  153.3060 C   0  0  1  0  0  3  0  0  0  0  0  0
  161.0500  208.1030  154.5110 C   0  0  0  0  0  2  0  0  0  0  0  0
  160.0090  211.2440  152.3130 C   0  0  0  0  0  2  0  0  0  0  0  0
  160.6230  208.7910  152.0650 N   0  0  0  0  0  0  0  0  0  0  0  0
  160.7710  210.7890  154.6350 C   0  0  1  0  0  3  0  0  0  0  0  0
  159.8230  211.4380  155.6300 C   0  0  0  0  0  2  0  0  0  0  0  0
  158.5440  210.6310  155.7500 C   0  0  0  0  0  1  0  0  0  0  0  0
  2 10  2  0  0  0  0
  3  1  1  0  0  0  0
  4 12  1  0  0  0  0
  5  4  2  0  0  0  0
  6 13  1  0  0  0  0
  7  9  1  6  0  0  0
  7 10  1  0  0  0  0
  8 19  1  6  0  0  0
  8  3  1  0  0  0  0
  9  8  1  0  0  0  0
 10 14  1  0  0  0  0
 11  5  1  0  0  0  0
 11  6  2  0  0  0  0
 12  2  1  0  0  0  0
 13 12  2  0  0  0  0
 13  7  1  0  0  0  0
 14  1  2  0  0  0  0
 15 16  2  0  0  0  0
 16 11  1  0  0  0  0
 17 16  1  0  0  0  0
 19 18  1  1  0  0  0
 19 26  1  0  0  0  0
 20 24  1  1  0  0  0
 20 27  1  0  0  0  0
 21 26  1  0  0  0  0
 21 25  1  0  0  0  0
 22 27  1  0  0  0  0
 23 20  1  0  0  0  0
 23 24  1  1  0  0  0
 25 22  1  0  0  0  0
 26 23  1  0  0  0  0
 27 28  1  1  0  0  0
 28 29  1  0  0  0  0
M  END
>  <MODEL>
9

>  <REMARK>
 VINA RESULT:      -6.7      1.676      2.166
  Name = 
  4 active torsions:
  status: ('A' for Active; 'I' for Inactive)
    1  A    between atoms: C_13  and  C_27
    2  A    between atoms: C_16  and  C_17
    3  A    between atoms: C_24  and  C_28
    4  A    between atoms: N_25  and  C_27
                            x       y       z     vdW  Elec       q    Type
                         _______ _______ _______ _____ _____    ______ ____

>  <TORSDO>
F 4

$$$$
