=
 OpenBabel11072413223D

 44 49  0  0  1  0  0  0  0  0999 V2000
  160.3630  208.8940  154.0730 C   0  0  1  0  0  3  0  0  0  0  0  0
  161.9410  207.9640  155.9430 C   0  0  0  0  0  1  0  0  0  0  0  0
  160.7200  206.3610  154.2870 C   0  0  0  0  0  2  0  0  0  0  0  0
  161.2250  205.8480  152.9530 C   0  0  2  0  0  0  0  0  0  0  0  0
  160.5680  204.5150  152.5700 C   0  0  0  0  0  2  0  0  0  0  0  0
  162.4020  206.0140  149.7930 O   0  0  0  0  0  1  0  0  0  0  0  0
  161.7030  208.1470  152.0290 C   0  0  1  0  0  3  0  0  0  0  0  0
  161.7600  208.6970  153.4840 C   0  0  2  0  0  3  0  0  0  0  0  0
  159.8830  206.5860  149.1750 O   0  0  0  0  0  0  0  0  0  0  0  0
  160.4870  204.4190  151.0320 C   0  0  1  0  0  3  0  0  0  0  0  0
  161.2580  207.7670  154.6010 C   0  0  1  0  0  0  0  0  0  0  0  0
  162.6140  205.6650  153.0190 O   0  0  0  0  0  1  0  0  0  0  0  0
  160.9830  206.0130  150.3250 P   0  0  1  0  0  0  0  0  0  0  0  0
  160.8570  206.8800  151.8960 C   0  0  1  0  0  3  0  0  0  0  0  0
  161.2050  209.2300  151.0730 C   0  0  0  0  0  2  0  0  0  0  0  0
  162.1430  209.1720  148.7350 C   0  0  0  0  0  1  0  0  0  0  0  0
  162.2930  209.7290  150.1300 C   0  0  1  0  0  3  0  0  0  0  0  0
  162.3240  211.1260  150.0980 O   0  0  0  0  0  1  0  0  0  0  0  0
  160.3260  210.1290  154.9720 C   0  0  2  0  0  3  0  0  0  0  0  0
  158.9020  212.1830  155.0730 C   0  0  0  0  0  3  0  0  0  0  0  0
  159.3510  211.0830  154.4460 N   0  0  0  0  0  0  0  0  0  0  0  0
  158.9040  211.0460  153.2000 N   0  0  0  0  0  0  0  0  0  0  0  0
  158.1230  212.1260  152.9940 C   0  0  0  0  0  3  0  0  0  0  0  0
  158.1100  212.8560  154.1630 C   0  0  0  0  0  0  0  0  0  0  0  0
  157.3760  214.1490  154.3850 C   0  0  0  0  0  2  0  0  0  0  0  0
  155.9130  213.9650  154.8090 C   0  0  1  0  0  3  0  0  0  0  0  0
  155.0200  213.7480  153.5950 C   0  0  0  0  0  1  0  0  0  0  0  0
  155.8550  213.1760  157.0750 O   0  0  0  0  0  1  0  0  0  0  0  0
  155.7240  212.9040  155.8520 C   0  0  0  0  0  0  0  0  0  0  0  0
  155.4830  211.5910  155.4700 O   0  0  0  0  0  0  0  0  0  0  0  0
  161.7140  210.7530  155.0760 C   0  0  0  0  0  2  0  0  0  0  0  0
  163.2480  211.0180  156.5900 N   0  0  0  0  0  1  0  0  0  0  0  0
  161.9270  211.2150  156.3770 O   0  0  0  0  0  0  0  0  0  0  0  0
  161.1070  203.2910  150.4450 O   0  0  0  0  0  0  0  0  0  0  0  0
  159.9450  202.3380  149.5850 S   0  0  0  0  0  0  0  0  0  0  0  0
  161.6860  203.8750  147.5350 C   0  0  0  0  0  2  0  0  0  0  0  0
  161.5730  204.1050  145.9790 C   0  0  1  0  0  3  0  0  0  0  0  0
  160.9620  201.7510  147.1180 C   0  0  1  0  0  3  0  0  0  0  0  0
  161.1450  202.8620  145.1060 C   0  0  0  0  0  2  0  0  0  0  0  0
  162.0710  202.4310  147.8970 C   0  0  2  0  0  3  0  0  0  0  0  0
  161.2170  201.5060  148.5940 C   0  0  1  0  0  3  0  0  0  0  0  0
  160.4610  201.7760  145.9090 C   0  0  0  0  0  2  0  0  0  0  0  0
  160.6690  205.2340  145.7190 C   0  0  0  0  0  0  0  0  0  0  0  0
  159.9660  206.1280  145.5060 N   0  0  0  0  0  0  0  0  0  0  0  0
  1 11  1  0  0  0  0
  1 19  1  1  0  0  0
  3 11  1  0  0  0  0
  4 12  1  1  0  0  0
  4  3  1  0  0  0  0
  5  4  1  0  0  0  0
  6 13  1  0  0  0  0
  7 15  1  6  0  0  0
  7  8  1  0  0  0  0
  8  1  1  0  0  0  0
  8 11  1  0  0  0  0
  9 13  2  0  0  0  0
 10  5  1  0  0  0  0
 11  2  1  0  0  0  0
 13 10  1  0  0  0  0
 13 14  1  0  0  0  0
 14  7  1  0  0  0  0
 14  4  1  0  0  0  0
 16 17  1  0  0  0  0
 17 15  1  0  0  0  0
 18 17  1  0  0  0  0
 19 31  1  0  0  0  0
 21 19  1  0  0  0  0
 21 20  1  0  0  0  0
 22 21  1  0  0  0  0
 23 22  2  0  0  0  0
 23 24  1  0  0  0  0
 24 25  1  0  0  0  0
 24 20  2  0  0  0  0
 25 26  1  0  0  0  0
 26 29  1  0  0  0  0
 27 26  1  0  0  0  0
 29 28  1  0  0  0  0
 30 29  2  0  0  0  0
 31 33  1  0  0  0  0
 33 32  1  0  0  0  0
 34 10  1  0  0  0  0
 35 34  1  0  0  0  0
 36 40  1  0  0  0  0
 37 36  1  0  0  0  0
 38 40  1  0  0  0  0
 38 41  1  0  0  0  0
 39 42  1  0  0  0  0
 39 37  1  0  0  0  0
 40 41  1  0  0  0  0
 41 35  1  0  0  0  0
 42 38  1  0  0  0  0
 43 37  1  0  0  0  0
 44 43  3  0  0  0  0
M  END
>  <MODEL>
1

>  <REMARK>
 VINA RESULT:      -5.9      0.000      0.000
  Name = 
  13 active torsions:
  status: ('A' for Active; 'I' for Inactive)
    1  A    between atoms: C_1  and  C_16
    2  A    between atoms: C_5  and  C_16
    3  A    between atoms: C_5  and  O_36
    4  A    between atoms: C_8  and  C_15
    5  A    between atoms: C_8  and  C_19
    6  A    between atoms: C_10  and  C_21
    7  A    between atoms: C_12  and  C_24
    8  A    between atoms: C_12  and  C_39
    9  A    between atoms: S_14  and  O_17
   10  A    between atoms: S_14  and  C_42
   11  A    between atoms: C_16  and  N_23
   12  A    between atoms: O_17  and  C_32
   13  A    between atoms: C_24  and  C_25
                            x       y       z     vdW  Elec       q    Type
                         _______ _______ _______ _____ _____    ______ ____

>  <TORSDO>
F 13

$$$$
=
 OpenBabel11072413223D

 44 49  0  0  1  0  0  0  0  0999 V2000
  160.8470  206.8670  151.6700 C   0  0  1  0  0  3  0  0  0  0  0  0
  163.0830  207.5560  150.4950 C   0  0  0  0  0  1  0  0  0  0  0  0
  161.3330  209.3480  151.2240 C   0  0  0  0  0  2  0  0  0  0  0  0
  161.2570  210.0830  152.5480 C   0  0  2  0  0  0  0  0  0  0  0  0
  160.5400  211.4330  152.4100 C   0  0  0  0  0  2  0  0  0  0  0  0
  161.0200  210.4590  155.8940 O   0  0  0  0  0  1  0  0  0  0  0  0
  161.2450  207.9770  153.9390 C   0  0  1  0  0  3  0  0  0  0  0  0
  161.8820  207.2100  152.7440 C   0  0  2  0  0  3  0  0  0  0  0  0
  158.4560  209.8920  155.5020 O   0  0  0  0  0  0  0  0  0  0  0  0
  159.8340  211.7640  153.7410 C   0  0  1  0  0  3  0  0  0  0  0  0
  161.9120  207.9330  151.3870 C   0  0  1  0  0  0  0  0  0  0  0  0
  162.5550  210.3080  153.0320 O   0  0  0  0  0  1  0  0  0  0  0  0
  159.9480  210.3210  154.8320 P   0  0  1  0  0  0  0  0  0  0  0  0
  160.4560  209.2150  153.5080 C   0  0  1  0  0  3  0  0  0  0  0  0
  160.3660  207.0380  154.7630 C   0  0  0  0  0  2  0  0  0  0  0  0
  162.0060  207.8140  156.5110 C   0  0  0  0  0  1  0  0  0  0  0  0
  160.8150  206.9350  156.2150 C   0  0  1  0  0  3  0  0  0  0  0  0
  159.7620  207.2300  157.0870 O   0  0  0  0  0  1  0  0  0  0  0  0
  161.1490  205.5080  151.0450 C   0  0  2  0  0  3  0  0  0  0  0  0
  161.8180  204.8690  148.7200 C   0  0  0  0  0  3  0  0  0  0  0  0
  161.1280  205.6280  149.5880 N   0  0  0  0  0  0  0  0  0  0  0  0
  160.2890  206.4230  148.9400 N   0  0  0  0  0  0  0  0  0  0  0  0
  160.4340  206.2110  147.6160 C   0  0  0  0  0  3  0  0  0  0  0  0
  161.3940  205.2340  147.4580 C   0  0  0  0  0  0  0  0  0  0  0  0
  161.8680  204.6720  146.1460 C   0  0  0  0  0  2  0  0  0  0  0  0
  160.8110  204.7170  145.0360 C   0  0  1  0  0  3  0  0  0  0  0  0
  161.3660  205.3810  143.7840 C   0  0  0  0  0  1  0  0  0  0  0  0
  159.1230  203.2960  144.0900 O   0  0  0  0  0  0  0  0  0  0  0  0
  160.1960  203.3790  144.7450 C   0  0  0  0  0  0  0  0  0  0  0  0
  160.7630  202.2260  145.2680 O   0  0  0  0  0  1  0  0  0  0  0  0
  160.1490  204.4640  151.5310 C   0  0  0  0  0  2  0  0  0  0  0  0
  161.4520  202.7310  151.6480 N   0  0  0  0  0  1  0  0  0  0  0  0
  160.7710  203.5960  152.4320 O   0  0  0  0  0  0  0  0  0  0  0  0
  160.1890  212.9930  154.3450 O   0  0  0  0  0  0  0  0  0  0  0  0
  159.7490  212.9950  156.0200 S   0  0  0  0  0  0  0  0  0  0  0  0
  156.6930  212.8020  156.4850 C   0  0  0  0  0  2  0  0  0  0  0  0
  155.4650  212.5840  155.5210 C   0  0  1  0  0  3  0  0  0  0  0  0
  157.5580  214.1180  154.8340 C   0  0  1  0  0  3  0  0  0  0  0  0
  155.4890  213.3660  154.1500 C   0  0  0  0  0  2  0  0  0  0  0  0
  157.3310  214.1930  156.3310 C   0  0  2  0  0  3  0  0  0  0  0  0
  158.6590  214.4340  155.8310 C   0  0  1  0  0  3  0  0  0  0  0  0
  156.8740  213.8340  153.7560 C   0  0  0  0  0  2  0  0  0  0  0  0
  155.2910  211.1460  155.2740 C   0  0  0  0  0  0  0  0  0  0  0  0
  155.1490  210.0120  155.0910 N   0  0  0  0  0  0  0  0  0  0  0  0
  1 19  1  6  0  0  0
  1  8  1  0  0  0  0
  2 11  1  0  0  0  0
  3 11  1  0  0  0  0
  3  4  1  0  0  0  0
  4 12  1  1  0  0  0
  4 14  1  0  0  0  0
  5  4  1  0  0  0  0
  5 10  1  0  0  0  0
  7 15  1  6  0  0  0
  8  7  1  0  0  0  0
 10 34  1  0  0  0  0
 10 13  1  0  0  0  0
 11  1  1  0  0  0  0
 11  8  1  0  0  0  0
 13  9  2  0  0  0  0
 13  6  1  0  0  0  0
 14  7  1  0  0  0  0
 14 13  1  0  0  0  0
 15 17  1  0  0  0  0
 17 16  1  0  0  0  0
 17 18  1  0  0  0  0
 19 31  1  0  0  0  0
 20 21  1  0  0  0  0
 21 19  1  0  0  0  0
 22 21  1  0  0  0  0
 23 22  2  0  0  0  0
 24 23  1  0  0  0  0
 24 20  2  0  0  0  0
 25 24  1  0  0  0  0
 26 25  1  0  0  0  0
 27 26  1  0  0  0  0
 28 29  2  0  0  0  0
 29 26  1  0  0  0  0
 29 30  1  0  0  0  0
 31 33  1  0  0  0  0
 32 33  1  0  0  0  0
 34 35  1  0  0  0  0
 37 36  1  0  0  0  0
 38 41  1  0  0  0  0
 38 40  1  0  0  0  0
 39 37  1  0  0  0  0
 40 36  1  0  0  0  0
 41 35  1  0  0  0  0
 41 40  1  0  0  0  0
 42 39  1  0  0  0  0
 42 38  1  0  0  0  0
 43 37  1  0  0  0  0
 44 43  3  0  0  0  0
M  END
>  <MODEL>
2

>  <REMARK>
 VINA RESULT:      -5.5      3.292     10.240
  Name = 
  13 active torsions:
  status: ('A' for Active; 'I' for Inactive)
    1  A    between atoms: C_1  and  C_16
    2  A    between atoms: C_5  and  C_16
    3  A    between atoms: C_5  and  O_36
    4  A    between atoms: C_8  and  C_15
    5  A    between atoms: C_8  and  C_19
    6  A    between atoms: C_10  and  C_21
    7  A    between atoms: C_12  and  C_24
    8  A    between atoms: C_12  and  C_39
    9  A    between atoms: S_14  and  O_17
   10  A    between atoms: S_14  and  C_42
   11  A    between atoms: C_16  and  N_23
   12  A    between atoms: O_17  and  C_32
   13  A    between atoms: C_24  and  C_25
                            x       y       z     vdW  Elec       q    Type
                         _______ _______ _______ _____ _____    ______ ____

>  <TORSDO>
F 13

$$$$
=
 OpenBabel11072413223D

 44 49  0  0  1  0  0  0  0  0999 V2000
  161.1390  208.3630  150.7450 C   0  0  1  0  0  3  0  0  0  0  0  0
  163.4880  208.0260  149.6410 C   0  0  0  0  0  1  0  0  0  0  0  0
  161.7270  209.6450  148.6010 C   0  0  0  0  0  2  0  0  0  0  0  0
  161.5510  211.1240  148.8800 C   0  0  2  0  0  0  0  0  0  0  0  0
  160.8840  211.8510  147.7040 C   0  0  0  0  0  2  0  0  0  0  0  0
  161.0230  213.9090  150.7150 O   0  0  0  0  0  1  0  0  0  0  0  0
  161.3600  210.8290  151.3790 C   0  0  1  0  0  3  0  0  0  0  0  0
  162.0810  209.4560  151.2510 C   0  0  2  0  0  3  0  0  0  0  0  0
  158.4910  213.1100  150.6990 O   0  0  0  0  0  0  0  0  0  0  0  0
  160.0700  213.0440  148.2470 C   0  0  1  0  0  3  0  0  0  0  0  0
  162.2520  208.8880  149.8320 C   0  0  1  0  0  0  0  0  0  0  0  0
  162.8050  211.7070  149.1180 O   0  0  0  0  0  1  0  0  0  0  0  0
  160.0490  212.9530  150.0580 P   0  0  1  0  0  0  0  0  0  0  0  0
  160.6450  211.2570  150.0960 C   0  0  1  0  0  3  0  0  0  0  0  0
  160.3860  210.8080  152.5560 C   0  0  0  0  0  2  0  0  0  0  0  0
  159.8140  212.0090  154.6960 C   0  0  0  0  0  1  0  0  0  0  0  0
  160.9190  211.5490  153.7750 C   0  0  1  0  0  3  0  0  0  0  0  0
  161.8420  210.7650  154.4740 O   0  0  0  0  0  1  0  0  0  0  0  0
  161.4600  207.0250  151.4080 C   0  0  2  0  0  3  0  0  0  0  0  0
  161.4310  205.9170  149.1650 C   0  0  0  0  0  3  0  0  0  0  0  0
  161.1550  205.9370  150.4800 N   0  0  0  0  0  0  0  0  0  0  0  0
  160.6940  204.7600  150.8730 N   0  0  0  0  0  0  0  0  0  0  0  0
  160.6370  203.9430  149.8020 C   0  0  0  0  0  3  0  0  0  0  0  0
  161.0980  204.6550  148.7150 C   0  0  0  0  0  0  0  0  0  0  0  0
  161.2230  204.1330  147.3110 C   0  0  0  0  0  2  0  0  0  0  0  0
  161.8910  205.1170  146.3430 C   0  0  1  0  0  3  0  0  0  0  0  0
  163.2890  204.6450  145.9680 C   0  0  0  0  0  1  0  0  0  0  0  0
  161.3760  204.9880  144.0020 O   0  0  0  0  0  0  0  0  0  0  0  0
  161.0540  205.4280  145.1380 C   0  0  0  0  0  0  0  0  0  0  0  0
  159.9590  206.2740  145.2520 O   0  0  0  0  0  1  0  0  0  0  0  0
  160.6840  206.8770  152.7130 C   0  0  0  0  0  2  0  0  0  0  0  0
  160.5470  207.4750  154.7960 N   0  0  0  0  0  1  0  0  0  0  0  0
  161.4230  207.4200  153.7670 O   0  0  0  0  0  0  0  0  0  0  0  0
  160.4010  214.3140  147.7210 O   0  0  0  0  0  0  0  0  0  0  0  0
  160.8570  214.1820  146.0560 S   0  0  0  0  0  0  0  0  0  0  0  0
  160.0270  211.9890  144.0310 C   0  0  0  0  0  2  0  0  0  0  0  0
  159.8300  211.9820  142.4670 C   0  0  1  0  0  3  0  0  0  0  0  0
  159.0780  214.0640  143.9860 C   0  0  1  0  0  3  0  0  0  0  0  0
  159.1060  213.2340  141.8350 C   0  0  0  0  0  2  0  0  0  0  0  0
  158.9260  212.7730  144.7650 C   0  0  2  0  0  3  0  0  0  0  0  0
  159.1400  213.9920  145.5010 C   0  0  1  0  0  3  0  0  0  0  0  0
  159.1240  214.4510  142.7370 C   0  0  0  0  0  2  0  0  0  0  0  0
  161.1310  211.7750  141.8150 C   0  0  0  0  0  0  0  0  0  0  0  0
  162.1610  211.6180  141.3110 N   0  0  0  0  0  0  0  0  0  0  0  0
  1  8  1  0  0  0  0
  1 19  1  1  0  0  0
  2 11  1  0  0  0  0
  3  4  1  0  0  0  0
  3 11  1  0  0  0  0
  4 12  1  1  0  0  0
  4 14  1  0  0  0  0
  5 10  1  0  0  0  0
  5  4  1  0  0  0  0
  7 15  1  1  0  0  0
  8  7  1  0  0  0  0
 10 13  1  0  0  0  0
 11  1  1  0  0  0  0
 11  8  1  0  0  0  0
 13 14  1  0  0  0  0
 13  9  2  0  0  0  0
 13  6  1  0  0  0  0
 14  7  1  0  0  0  0
 15 17  1  0  0  0  0
 17 18  1  0  0  0  0
 17 16  1  0  0  0  0
 19 31  1  0  0  0  0
 20 21  1  0  0  0  0
 21 22  1  0  0  0  0
 21 19  1  0  0  0  0
 23 22  2  0  0  0  0
 24 20  2  0  0  0  0
 24 23  1  0  0  0  0
 25 24  1  0  0  0  0
 26 25  1  0  0  0  0
 27 26  1  0  0  0  0
 28 29  2  0  0  0  0
 29 30  1  0  0  0  0
 29 26  1  0  0  0  0
 31 33  1  0  0  0  0
 33 32  1  0  0  0  0
 34 10  1  0  0  0  0
 35 34  1  0  0  0  0
 36 40  1  0  0  0  0
 37 36  1  0  0  0  0
 38 40  1  0  0  0  0
 38 41  1  0  0  0  0
 39 37  1  0  0  0  0
 39 42  1  0  0  0  0
 40 41  1  0  0  0  0
 41 35  1  0  0  0  0
 42 38  1  0  0  0  0
 43 37  1  0  0  0  0
 44 43  3  0  0  0  0
M  END
>  <MODEL>
3

>  <REMARK>
 VINA RESULT:      -4.8      4.608      9.059
  Name = 
  13 active torsions:
  status: ('A' for Active; 'I' for Inactive)
    1  A    between atoms: C_1  and  C_16
    2  A    between atoms: C_5  and  C_16
    3  A    between atoms: C_5  and  O_36
    4  A    between atoms: C_8  and  C_15
    5  A    between atoms: C_8  and  C_19
    6  A    between atoms: C_10  and  C_21
    7  A    between atoms: C_12  and  C_24
    8  A    between atoms: C_12  and  C_39
    9  A    between atoms: S_14  and  O_17
   10  A    between atoms: S_14  and  C_42
   11  A    between atoms: C_16  and  N_23
   12  A    between atoms: O_17  and  C_32
   13  A    between atoms: C_24  and  C_25
                            x       y       z     vdW  Elec       q    Type
                         _______ _______ _______ _____ _____    ______ ____

>  <TORSDO>
F 13

$$$$
=
 OpenBabel11072413223D

 44 49  0  0  1  0  0  0  0  0999 V2000
  160.5960  209.6760  152.5390 C   0  0  1  0  0  3  0  0  0  0  0  0
  163.1040  210.4120  152.6950 C   0  0  0  0  0  1  0  0  0  0  0  0
  161.6900  210.8800  150.5530 C   0  0  0  0  0  2  0  0  0  0  0  0
  160.8620  212.1110  150.2410 C   0  0  2  0  0  0  0  0  0  0  0  0
  160.6930  212.3150  148.7300 C   0  0  0  0  0  2  0  0  0  0  0  0
  158.4720  214.4530  150.6830 O   0  0  0  0  0  1  0  0  0  0  0  0
  159.5240  211.9920  152.3770 C   0  0  1  0  0  3  0  0  0  0  0  0
  160.6540  211.1300  153.0120 C   0  0  2  0  0  3  0  0  0  0  0  0
  156.8260  212.5370  149.8640 O   0  0  0  0  0  0  0  0  0  0  0  0
  159.3420  213.0130  148.4660 C   0  0  1  0  0  3  0  0  0  0  0  0
  161.7340  210.5860  152.0620 C   0  0  1  0  0  0  0  0  0  0  0  0
  161.4880  213.2440  150.7820 O   0  0  0  0  0  1  0  0  0  0  0  0
  158.4170  213.0910  150.0230 P   0  0  1  0  0  0  0  0  0  0  0  0
  159.4830  211.9020  150.8500 C   0  0  1  0  0  3  0  0  0  0  0  0
  158.1700  211.6130  152.9750 C   0  0  0  0  0  2  0  0  0  0  0  0
  157.2350  211.9980  155.2830 C   0  0  0  0  0  1  0  0  0  0  0  0
  157.6640  212.6370  153.9830 C   0  0  1  0  0  3  0  0  0  0  0  0
  158.6250  213.6240  154.2190 O   0  0  0  0  0  1  0  0  0  0  0  0
  160.9930  208.7260  153.6670 C   0  0  2  0  0  3  0  0  0  0  0  0
  161.4260  207.0140  151.8940 C   0  0  0  0  0  3  0  0  0  0  0  0
  161.0800  207.3630  153.1450 N   0  0  0  0  0  0  0  0  0  0  0  0
  160.9680  206.2880  153.9090 N   0  0  0  0  0  0  0  0  0  0  0  0
  161.2190  205.1980  153.1560 C   0  0  0  0  0  3  0  0  0  0  0  0
  161.5110  205.6360  151.8820 C   0  0  0  0  0  0  0  0  0  0  0  0
  161.8670  204.7620  150.7110 C   0  0  0  0  0  2  0  0  0  0  0  0
  160.7160  204.5580  149.7190 C   0  0  1  0  0  3  0  0  0  0  0  0
  160.5160  205.7970  148.8580 C   0  0  0  0  0  1  0  0  0  0  0  0
  160.3490  202.2240  149.2920 O   0  0  0  0  0  1  0  0  0  0  0  0
  160.8520  203.3100  148.8970 C   0  0  0  0  0  0  0  0  0  0  0  0
  161.6070  203.3240  147.7330 O   0  0  0  0  0  0  0  0  0  0  0  0
  159.9960  208.8190  154.8170 C   0  0  0  0  0  2  0  0  0  0  0  0
  161.4680  208.5710  156.3940 N   0  0  0  0  0  1  0  0  0  0  0  0
  160.5860  209.4710  155.9030 O   0  0  0  0  0  0  0  0  0  0  0  0
  159.4000  214.2320  147.7500 O   0  0  0  0  0  0  0  0  0  0  0  0
  160.3570  214.0490  146.3180 S   0  0  0  0  0  0  0  0  0  0  0  0
  160.9270  212.4320  143.7380 C   0  0  0  0  0  2  0  0  0  0  0  0
  160.8020  212.7680  142.2030 C   0  0  1  0  0  3  0  0  0  0  0  0
  158.9870  213.6050  143.9950 C   0  0  1  0  0  3  0  0  0  0  0  0
  159.5170  213.5680  141.7520 C   0  0  0  0  0  2  0  0  0  0  0  0
  159.5610  212.2700  144.4250 C   0  0  2  0  0  3  0  0  0  0  0  0
  159.0460  213.1490  145.4420 C   0  0  1  0  0  3  0  0  0  0  0  0
  158.8370  214.2950  142.8940 C   0  0  0  0  0  2  0  0  0  0  0  0
  162.0120  213.4740  141.7590 C   0  0  0  0  0  0  0  0  0  0  0  0
  162.9720  214.0210  141.4160 N   0  0  0  0  0  0  0  0  0  0  0  0
  1  8  1  0  0  0  0
  1 19  1  1  0  0  0
  3 11  1  0  0  0  0
  4  3  1  0  0  0  0
  4 12  1  1  0  0  0
  4 14  1  0  0  0  0
  5  4  1  0  0  0  0
  7 15  1  1  0  0  0
  7  8  1  0  0  0  0
  9 13  2  0  0  0  0
 10  5  1  0  0  0  0
 10 13  1  0  0  0  0
 11  1  1  0  0  0  0
 11  2  1  0  0  0  0
 11  8  1  0  0  0  0
 13  6  1  0  0  0  0
 13 14  1  0  0  0  0
 14  7  1  0  0  0  0
 15 17  1  0  0  0  0
 17 18  1  0  0  0  0
 17 16  1  0  0  0  0
 19 31  1  0  0  0  0
 20 21  1  0  0  0  0
 21 19  1  0  0  0  0
 21 22  1  0  0  0  0
 23 22  2  0  0  0  0
 24 20  2  0  0  0  0
 24 23  1  0  0  0  0
 25 24  1  0  0  0  0
 26 25  1  0  0  0  0
 27 26  1  0  0  0  0
 29 28  1  0  0  0  0
 29 26  1  0  0  0  0
 30 29  2  0  0  0  0
 31 33  1  0  0  0  0
 33 32  1  0  0  0  0
 34 10  1  0  0  0  0
 35 34  1  0  0  0  0
 36 40  1  0  0  0  0
 37 36  1  0  0  0  0
 38 40  1  0  0  0  0
 38 41  1  0  0  0  0
 39 37  1  0  0  0  0
 39 42  1  0  0  0  0
 40 41  1  0  0  0  0
 41 35  1  0  0  0  0
 42 38  1  0  0  0  0
 43 37  1  0  0  0  0
 44 43  3  0  0  0  0
M  END
>  <MODEL>
4

>  <REMARK>
 VINA RESULT:      -3.9      4.731      8.599
  Name = 
  13 active torsions:
  status: ('A' for Active; 'I' for Inactive)
    1  A    between atoms: C_1  and  C_16
    2  A    between atoms: C_5  and  C_16
    3  A    between atoms: C_5  and  O_36
    4  A    between atoms: C_8  and  C_15
    5  A    between atoms: C_8  and  C_19
    6  A    between atoms: C_10  and  C_21
    7  A    between atoms: C_12  and  C_24
    8  A    between atoms: C_12  and  C_39
    9  A    between atoms: S_14  and  O_17
   10  A    between atoms: S_14  and  C_42
   11  A    between atoms: C_16  and  N_23
   12  A    between atoms: O_17  and  C_32
   13  A    between atoms: C_24  and  C_25
                            x       y       z     vdW  Elec       q    Type
                         _______ _______ _______ _____ _____    ______ ____

>  <TORSDO>
F 13

$$$$
=
 OpenBabel11072413223D

 44 49  0  0  1  0  0  0  0  0999 V2000
  162.0360  205.9700  152.3570 C   0  0  1  0  0  3  0  0  0  0  0  0
  159.7770  204.9350  153.1830 C   0  0  0  0  0  1  0  0  0  0  0  0
  161.1770  206.5160  154.7140 C   0  0  0  0  0  2  0  0  0  0  0  0
  161.0700  208.0240  154.8320 C   0  0  2  0  0  0  0  0  0  0  0  0
  161.5650  208.5240  156.1960 C   0  0  0  0  0  2  0  0  0  0  0  0
  161.0820  211.2390  153.8050 O   0  0  0  0  0  1  0  0  0  0  0  0
  161.3550  208.4340  152.3590 C   0  0  1  0  0  3  0  0  0  0  0  0
  160.9100  206.9680  152.0860 C   0  0  2  0  0  3  0  0  0  0  0  0
  163.7200  210.9380  153.7850 O   0  0  0  0  0  0  0  0  0  0  0  0
  162.1430  209.9450  156.0290 C   0  0  1  0  0  3  0  0  0  0  0  0
  160.8280  206.0270  153.2990 C   0  0  1  0  0  0  0  0  0  0  0  0
  159.7310  208.4100  154.6680 O   0  0  0  0  0  1  0  0  0  0  0  0
  162.2120  210.3380  154.2610 P   0  0  1  0  0  0  0  0  0  0  0  0
  161.9530  208.6330  153.7530 C   0  0  1  0  0  3  0  0  0  0  0  0
  162.3340  208.8990  151.2820 C   0  0  0  0  0  2  0  0  0  0  0  0
  161.9510  211.1820  150.2890 C   0  0  0  0  0  1  0  0  0  0  0  0
  161.6580  209.7050  150.1800 C   0  0  1  0  0  3  0  0  0  0  0  0
  162.0200  209.2270  148.9170 O   0  0  0  0  0  1  0  0  0  0  0  0
  161.9890  204.8180  151.3560 C   0  0  2  0  0  3  0  0  0  0  0  0
  162.3560  205.7970  149.0830 C   0  0  0  0  0  3  0  0  0  0  0  0
  161.5570  205.3240  150.0540 N   0  0  0  0  0  0  0  0  0  0  0  0
  160.3090  205.2310  149.6200 N   0  0  0  0  0  0  0  0  0  0  0  0
  160.2650  205.6700  148.3460 C   0  0  0  0  0  3  0  0  0  0  0  0
  161.5460  206.0310  147.9890 C   0  0  0  0  0  0  0  0  0  0  0  0
  161.9690  206.5650  146.6490 C   0  0  0  0  0  2  0  0  0  0  0  0
  162.3200  205.4720  145.6310 C   0  0  1  0  0  3  0  0  0  0  0  0
  163.5320  204.6730  146.0900 C   0  0  0  0  0  1  0  0  0  0  0  0
  160.1490  205.0670  144.6920 O   0  0  0  0  0  0  0  0  0  0  0  0
  161.1580  204.5920  145.2780 C   0  0  0  0  0  0  0  0  0  0  0  0
  161.1520  203.2610  145.6680 O   0  0  0  0  0  1  0  0  0  0  0  0
  161.0640  203.7130  151.8580 C   0  0  0  0  0  2  0  0  0  0  0  0
  160.9610  201.9720  150.5660 N   0  0  0  0  0  1  0  0  0  0  0  0
  161.6460  202.4660  151.6220 O   0  0  0  0  0  0  0  0  0  0  0  0
  161.5650  210.9520  156.8380 O   0  0  0  0  0  0  0  0  0  0  0  0
  159.8850  210.6260  157.1030 S   0  0  0  0  0  0  0  0  0  0  0  0
  156.9230  211.5300  157.0220 C   0  0  0  0  0  2  0  0  0  0  0  0
  155.9180  211.8340  155.8450 C   0  0  1  0  0  3  0  0  0  0  0  0
  158.5050  212.5410  155.7260 C   0  0  1  0  0  3  0  0  0  0  0  0
  156.4890  212.6380  154.6130 C   0  0  0  0  0  2  0  0  0  0  0  0
  158.0190  212.6000  157.1600 C   0  0  2  0  0  3  0  0  0  0  0  0
  159.4200  212.3720  156.9250 C   0  0  1  0  0  3  0  0  0  0  0  0
  158.0000  212.5940  154.5200 C   0  0  0  0  0  2  0  0  0  0  0  0
  155.3130  210.5760  155.3860 C   0  0  0  0  0  0  0  0  0  0  0  0
  154.8350  209.5910  155.0120 N   0  0  0  0  0  0  0  0  0  0  0  0
  1 19  1  6  0  0  0
  1 11  1  0  0  0  0
  2 11  1  0  0  0  0
  3  4  1  0  0  0  0
  4 12  1  6  0  0  0
  4  5  1  0  0  0  0
  6 13  1  0  0  0  0
  7 15  1  6  0  0  0
  7 14  1  0  0  0  0
  8  1  1  0  0  0  0
  8  7  1  0  0  0  0
  8 11  1  0  0  0  0
  9 13  2  0  0  0  0
 10  5  1  0  0  0  0
 10 34  1  0  0  0  0
 11  3  1  0  0  0  0
 13 10  1  0  0  0  0
 14 13  1  0  0  0  0
 14  4  1  0  0  0  0
 17 16  1  0  0  0  0
 17 15  1  0  0  0  0
 18 17  1  0  0  0  0
 19 31  1  0  0  0  0
 20 21  1  0  0  0  0
 21 19  1  0  0  0  0
 22 21  1  0  0  0  0
 23 22  2  0  0  0  0
 24 23  1  0  0  0  0
 24 20  2  0  0  0  0
 25 24  1  0  0  0  0
 26 27  1  0  0  0  0
 26 25  1  0  0  0  0
 28 29  2  0  0  0  0
 29 26  1  0  0  0  0
 29 30  1  0  0  0  0
 32 33  1  0  0  0  0
 33 31  1  0  0  0  0
 34 35  1  0  0  0  0
 36 40  1  0  0  0  0
 37 36  1  0  0  0  0
 38 41  1  0  0  0  0
 38 40  1  0  0  0  0
 39 37  1  0  0  0  0
 41 35  1  0  0  0  0
 41 40  1  0  0  0  0
 42 39  1  0  0  0  0
 42 38  1  0  0  0  0
 43 37  1  0  0  0  0
 44 43  3  0  0  0  0
M  END
>  <MODEL>
5

>  <REMARK>
 VINA RESULT:      -3.5      3.358      9.606
  Name = 
  13 active torsions:
  status: ('A' for Active; 'I' for Inactive)
    1  A    between atoms: C_1  and  C_16
    2  A    between atoms: C_5  and  C_16
    3  A    between atoms: C_5  and  O_36
    4  A    between atoms: C_8  and  C_15
    5  A    between atoms: C_8  and  C_19
    6  A    between atoms: C_10  and  C_21
    7  A    between atoms: C_12  and  C_24
    8  A    between atoms: C_12  and  C_39
    9  A    between atoms: S_14  and  O_17
   10  A    between atoms: S_14  and  C_42
   11  A    between atoms: C_16  and  N_23
   12  A    between atoms: O_17  and  C_32
   13  A    between atoms: C_24  and  C_25
                            x       y       z     vdW  Elec       q    Type
                         _______ _______ _______ _____ _____    ______ ____

>  <TORSDO>
F 13

$$$$
=
 OpenBabel11072413223D

 44 49  0  0  1  0  0  0  0  0999 V2000
  160.8330  207.6800  149.8340 C   0  0  1  0  0  3  0  0  0  0  0  0
  162.8040  208.9210  148.6390 C   0  0  0  0  0  1  0  0  0  0  0  0
  161.2990  210.1430  150.3830 C   0  0  0  0  0  2  0  0  0  0  0  0
  161.5180  210.2540  151.8790 C   0  0  2  0  0  0  0  0  0  0  0  0
  160.8330  211.4950  152.4650 C   0  0  0  0  0  2  0  0  0  0  0  0
  161.9790  209.1860  155.0480 O   0  0  0  0  0  1  0  0  0  0  0  0
  161.7200  207.7630  152.2300 C   0  0  1  0  0  3  0  0  0  0  0  0
  162.0750  207.6010  150.7230 C   0  0  2  0  0  3  0  0  0  0  0  0
  159.3720  208.6900  154.9710 O   0  0  0  0  0  0  0  0  0  0  0  0
  160.4230  211.2010  153.9240 C   0  0  1  0  0  3  0  0  0  0  0  0
  161.8520  208.8250  149.8190 C   0  0  1  0  0  0  0  0  0  0  0  0
  162.8930  210.3290  152.1450 O   0  0  0  0  0  1  0  0  0  0  0  0
  160.7100  209.4430  154.2620 P   0  0  1  0  0  0  0  0  0  0  0  0
  160.9010  209.0210  152.5250 C   0  0  1  0  0  3  0  0  0  0  0  0
  160.9970  206.5170  152.7400 C   0  0  0  0  0  2  0  0  0  0  0  0
  161.2070  204.0380  153.1340 C   0  0  0  0  0  1  0  0  0  0  0  0
  161.9420  205.3500  152.9930 C   0  0  1  0  0  3  0  0  0  0  0  0
  162.9080  205.2610  151.9860 O   0  0  0  0  0  1  0  0  0  0  0  0
  160.9560  206.7240  148.6490 C   0  0  2  0  0  3  0  0  0  0  0  0
  161.5200  204.2890  148.7620 C   0  0  0  0  0  3  0  0  0  0  0  0
  160.7730  205.3500  149.1130 N   0  0  0  0  0  0  0  0  0  0  0  0
  159.9200  205.0180  150.0710 N   0  0  0  0  0  0  0  0  0  0  0  0
  160.0800  203.7080  150.3510 C   0  0  0  0  0  3  0  0  0  0  0  0
  161.0850  203.2320  149.5370 C   0  0  0  0  0  0  0  0  0  0  0  0
  161.6080  201.8220  149.5180 C   0  0  0  0  0  2  0  0  0  0  0  0
  160.7220  200.8440  148.7380 C   0  0  1  0  0  3  0  0  0  0  0  0
  159.2480  201.1470  148.9650 C   0  0  0  0  0  1  0  0  0  0  0  0
  160.8280  201.7260  146.5080 O   0  0  0  0  0  0  0  0  0  0  0  0
  161.0680  200.7600  147.2800 C   0  0  0  0  0  0  0  0  0  0  0  0
  161.5810  199.5830  146.7550 O   0  0  0  0  0  1  0  0  0  0  0  0
  162.3050  206.9030  147.9590 C   0  0  0  0  0  2  0  0  0  0  0  0
  160.8330  206.5780  146.3960 N   0  0  0  0  0  1  0  0  0  0  0  0
  162.1680  206.6720  146.5880 O   0  0  0  0  0  0  0  0  0  0  0  0
  160.9340  212.0840  154.9040 O   0  0  0  0  0  0  0  0  0  0  0  0
  160.1030  211.8670  156.4080 S   0  0  0  0  0  0  0  0  0  0  0  0
  157.0380  212.1830  156.7310 C   0  0  0  0  0  2  0  0  0  0  0  0
  155.8460  212.2650  155.7020 C   0  0  1  0  0  3  0  0  0  0  0  0
  158.2090  213.4530  155.2390 C   0  0  1  0  0  3  0  0  0  0  0  0
  156.0820  213.1380  154.4090 C   0  0  0  0  0  2  0  0  0  0  0  0
  157.9160  213.4470  156.7270 C   0  0  2  0  0  3  0  0  0  0  0  0
  159.2910  213.4870  156.3040 C   0  0  1  0  0  3  0  0  0  0  0  0
  157.5470  213.3830  154.1130 C   0  0  0  0  0  2  0  0  0  0  0  0
  155.4390  210.9060  155.3220 C   0  0  0  0  0  0  0  0  0  0  0  0
  155.1130  209.8400  155.0110 N   0  0  0  0  0  0  0  0  0  0  0  0
  1 19  1  6  0  0  0
  1  8  1  0  0  0  0
  2 11  1  0  0  0  0
  3  4  1  0  0  0  0
  4 12  1  1  0  0  0
  4  5  1  0  0  0  0
  4 14  1  0  0  0  0
  5 10  1  0  0  0  0
  7 14  1  0  0  0  0
  7 15  1  6  0  0  0
  8  7  1  0  0  0  0
 10 13  1  0  0  0  0
 10 34  1  0  0  0  0
 11  1  1  0  0  0  0
 11  3  1  0  0  0  0
 11  8  1  0  0  0  0
 13  9  2  0  0  0  0
 13  6  1  0  0  0  0
 14 13  1  0  0  0  0
 15 17  1  0  0  0  0
 17 16  1  0  0  0  0
 18 17  1  0  0  0  0
 19 21  1  0  0  0  0
 20 21  1  0  0  0  0
 20 24  2  0  0  0  0
 21 22  1  0  0  0  0
 22 23  2  0  0  0  0
 24 23  1  0  0  0  0
 25 24  1  0  0  0  0
 26 27  1  0  0  0  0
 26 25  1  0  0  0  0
 28 29  2  0  0  0  0
 29 26  1  0  0  0  0
 30 29  1  0  0  0  0
 31 19  1  0  0  0  0
 32 33  1  0  0  0  0
 33 31  1  0  0  0  0
 34 35  1  0  0  0  0
 37 36  1  0  0  0  0
 38 41  1  0  0  0  0
 38 40  1  0  0  0  0
 39 37  1  0  0  0  0
 40 36  1  0  0  0  0
 41 35  1  0  0  0  0
 41 40  1  0  0  0  0
 42 39  1  0  0  0  0
 42 38  1  0  0  0  0
 43 37  1  0  0  0  0
 44 43  3  0  0  0  0
M  END
>  <MODEL>
6

>  <REMARK>
 VINA RESULT:      -3.3      3.209     10.276
  Name = 
  13 active torsions:
  status: ('A' for Active; 'I' for Inactive)
    1  A    between atoms: C_1  and  C_16
    2  A    between atoms: C_5  and  C_16
    3  A    between atoms: C_5  and  O_36
    4  A    between atoms: C_8  and  C_15
    5  A    between atoms: C_8  and  C_19
    6  A    between atoms: C_10  and  C_21
    7  A    between atoms: C_12  and  C_24
    8  A    between atoms: C_12  and  C_39
    9  A    between atoms: S_14  and  O_17
   10  A    between atoms: S_14  and  C_42
   11  A    between atoms: C_16  and  N_23
   12  A    between atoms: O_17  and  C_32
   13  A    between atoms: C_24  and  C_25
                            x       y       z     vdW  Elec       q    Type
                         _______ _______ _______ _____ _____    ______ ____

>  <TORSDO>
F 13

$$$$
=
 OpenBabel11072413223D

 44 49  0  0  1  0  0  0  0  0999 V2000
  160.5240  208.8540  153.1400 C   0  0  1  0  0  3  0  0  0  0  0  0
  162.9920  209.1750  152.3260 C   0  0  0  0  0  1  0  0  0  0  0  0
  160.9970  210.2750  151.0560 C   0  0  0  0  0  2  0  0  0  0  0  0
  160.3990  211.6500  151.2840 C   0  0  2  0  0  0  0  0  0  0  0  0
  159.7070  212.1860  150.0240 C   0  0  0  0  0  2  0  0  0  0  0  0
  158.9310  214.1660  152.9900 O   0  0  0  0  0  1  0  0  0  0  0  0
  159.9990  211.2810  153.7480 C   0  0  1  0  0  3  0  0  0  0  0  0
  161.0720  210.1540  153.7320 C   0  0  2  0  0  3  0  0  0  0  0  0
  156.7260  212.7170  152.6920 O   0  0  0  0  0  0  0  0  0  0  0  0
  158.5440  213.1090  150.4440 C   0  0  1  0  0  3  0  0  0  0  0  0
  161.5560  209.6710  152.3540 C   0  0  1  0  0  0  0  0  0  0  0  0
  161.4140  212.5440  151.6570 O   0  0  0  0  0  1  0  0  0  0  0  0
  158.3330  212.9920  152.2410 P   0  0  1  0  0  0  0  0  0  0  0  0
  159.3530  211.5180  152.3820 C   0  0  1  0  0  3  0  0  0  0  0  0
  158.9340  210.9840  154.8030 C   0  0  0  0  0  2  0  0  0  0  0  0
  159.5820  210.5650  157.2010 C   0  0  0  0  0  1  0  0  0  0  0  0
  159.2560  211.6050  156.1560 C   0  0  1  0  0  3  0  0  0  0  0  0
  160.2980  212.5310  156.0470 O   0  0  0  0  0  1  0  0  0  0  0  0
  161.1120  207.6440  153.8620 C   0  0  2  0  0  3  0  0  0  0  0  0
  160.5880  206.4440  151.7300 C   0  0  0  0  0  3  0  0  0  0  0  0
  160.9630  206.4570  153.0200 N   0  0  0  0  0  0  0  0  0  0  0  0
  161.3360  205.2460  153.4050 N   0  0  0  0  0  0  0  0  0  0  0  0
  161.1870  204.4010  152.3650 C   0  0  0  0  0  3  0  0  0  0  0  0
  160.7160  205.1380  151.2990 C   0  0  0  0  0  0  0  0  0  0  0  0
  160.4180  204.6050  149.9250 C   0  0  0  0  0  2  0  0  0  0  0  0
  161.4230  205.0540  148.8570 C   0  0  1  0  0  3  0  0  0  0  0  0
  161.7280  203.9200  147.8880 C   0  0  0  0  0  1  0  0  0  0  0  0
  160.2290  206.2720  147.1680 O   0  0  0  0  0  0  0  0  0  0  0  0
  161.0180  206.3130  148.1490 C   0  0  0  0  0  0  0  0  0  0  0  0
  161.5750  207.5280  148.5210 O   0  0  0  0  0  1  0  0  0  0  0  0
  160.4370  207.4520  155.2170 C   0  0  0  0  0  2  0  0  0  0  0  0
  161.1910  206.7830  157.1390 N   0  0  0  0  0  1  0  0  0  0  0  0
  161.3280  207.7830  156.2400 O   0  0  0  0  0  0  0  0  0  0  0  0
  158.5820  214.4290  149.9370 O   0  0  0  0  0  0  0  0  0  0  0  0
  159.2100  214.4400  148.3230 S   0  0  0  0  0  0  0  0  0  0  0  0
  159.3030  212.2700  146.1140 C   0  0  0  0  0  2  0  0  0  0  0  0
  159.2030  212.3240  144.5420 C   0  0  1  0  0  3  0  0  0  0  0  0
  157.6940  213.8880  146.1180 C   0  0  1  0  0  3  0  0  0  0  0  0
  158.1210  213.2970  143.9310 C   0  0  0  0  0  2  0  0  0  0  0  0
  157.9610  212.5640  146.8060 C   0  0  2  0  0  3  0  0  0  0  0  0
  157.6980  213.7170  147.6260 C   0  0  1  0  0  3  0  0  0  0  0  0
  157.6670  214.3680  144.9010 C   0  0  0  0  0  2  0  0  0  0  0  0
  160.5260  212.6310  143.9810 C   0  0  0  0  0  0  0  0  0  0  0  0
  161.5710  212.8800  143.5500 N   0  0  0  0  0  0  0  0  0  0  0  0
  1  8  1  0  0  0  0
  1 19  1  1  0  0  0
  2 11  1  0  0  0  0
  3  4  1  0  0  0  0
  3 11  1  0  0  0  0
  4 12  1  1  0  0  0
  4 14  1  0  0  0  0
  5 10  1  0  0  0  0
  5  4  1  0  0  0  0
  7 15  1  1  0  0  0
  8  7  1  0  0  0  0
 10 13  1  0  0  0  0
 11  1  1  0  0  0  0
 11  8  1  0  0  0  0
 13 14  1  0  0  0  0
 13  9  2  0  0  0  0
 13  6  1  0  0  0  0
 14  7  1  0  0  0  0
 15 17  1  0  0  0  0
 17 16  1  0  0  0  0
 18 17  1  0  0  0  0
 19 31  1  0  0  0  0
 20 21  1  0  0  0  0
 21 22  1  0  0  0  0
 21 19  1  0  0  0  0
 23 22  2  0  0  0  0
 24 20  2  0  0  0  0
 24 23  1  0  0  0  0
 25 24  1  0  0  0  0
 26 25  1  0  0  0  0
 27 26  1  0  0  0  0
 28 29  2  0  0  0  0
 29 30  1  0  0  0  0
 29 26  1  0  0  0  0
 31 33  1  0  0  0  0
 33 32  1  0  0  0  0
 34 10  1  0  0  0  0
 35 34  1  0  0  0  0
 36 40  1  0  0  0  0
 37 36  1  0  0  0  0
 38 40  1  0  0  0  0
 38 41  1  0  0  0  0
 39 37  1  0  0  0  0
 39 42  1  0  0  0  0
 40 41  1  0  0  0  0
 41 35  1  0  0  0  0
 42 38  1  0  0  0  0
 43 37  1  0  0  0  0
 44 43  3  0  0  0  0
M  END
>  <MODEL>
7

>  <REMARK>
 VINA RESULT:      -3.1      4.341      8.459
  Name = 
  13 active torsions:
  status: ('A' for Active; 'I' for Inactive)
    1  A    between atoms: C_1  and  C_16
    2  A    between atoms: C_5  and  C_16
    3  A    between atoms: C_5  and  O_36
    4  A    between atoms: C_8  and  C_15
    5  A    between atoms: C_8  and  C_19
    6  A    between atoms: C_10  and  C_21
    7  A    between atoms: C_12  and  C_24
    8  A    between atoms: C_12  and  C_39
    9  A    between atoms: S_14  and  O_17
   10  A    between atoms: S_14  and  C_42
   11  A    between atoms: C_16  and  N_23
   12  A    between atoms: O_17  and  C_32
   13  A    between atoms: C_24  and  C_25
                            x       y       z     vdW  Elec       q    Type
                         _______ _______ _______ _____ _____    ______ ____

>  <TORSDO>
F 13

$$$$
=
 OpenBabel11072413223D

 44 49  0  0  1  0  0  0  0  0999 V2000
  160.5760  208.0190  153.2870 C   0  0  1  0  0  3  0  0  0  0  0  0
  161.0670  205.5780  154.0940 C   0  0  0  0  0  1  0  0  0  0  0  0
  160.2750  206.0600  151.6560 C   0  0  0  0  0  2  0  0  0  0  0  0
  161.1360  206.3310  150.4390 C   0  0  2  0  0  0  0  0  0  0  0  0
  160.4130  205.9640  149.1360 C   0  0  0  0  0  2  0  0  0  0  0  0
  163.4550  207.8930  148.5460 O   0  0  0  0  0  1  0  0  0  0  0  0
  162.4140  208.2190  151.5210 C   0  0  1  0  0  3  0  0  0  0  0  0
  162.0160  207.6590  152.9170 C   0  0  2  0  0  3  0  0  0  0  0  0
  161.5590  209.7230  148.2190 O   0  0  0  0  0  0  0  0  0  0  0  0
  160.9170  206.8860  148.0060 C   0  0  1  0  0  3  0  0  0  0  0  0
  160.9340  206.5670  152.9490 C   0  0  1  0  0  0  0  0  0  0  0  0
  162.3170  205.5780  150.5270 O   0  0  0  0  0  1  0  0  0  0  0  0
  161.9760  208.1660  148.7310 P   0  0  1  0  0  0  0  0  0  0  0  0
  161.4370  207.8230  150.4120 C   0  0  1  0  0  3  0  0  0  0  0  0
  162.5690  209.7380  151.5830 C   0  0  0  0  0  2  0  0  0  0  0  0
  160.4520  211.0760  151.8530 C   0  0  0  0  0  1  0  0  0  0  0  0
  161.4370  210.4750  150.8790 C   0  0  1  0  0  3  0  0  0  0  0  0
  161.9380  211.4590  150.0210 O   0  0  0  0  0  1  0  0  0  0  0  0
  160.4570  208.2960  154.7840 C   0  0  2  0  0  3  0  0  0  0  0  0
  159.0240  210.2510  155.4060 C   0  0  0  0  0  3  0  0  0  0  0  0
  160.1870  209.7180  154.9950 N   0  0  0  0  0  0  0  0  0  0  0  0
  161.1290  210.6470  154.9440 N   0  0  0  0  0  0  0  0  0  0  0  0
  160.5850  211.8270  155.3050 C   0  0  0  0  0  3  0  0  0  0  0  0
  159.2590  211.5980  155.6000 C   0  0  0  0  0  0  0  0  0  0  0  0
  158.2680  212.6310  156.0620 C   0  0  0  0  0  2  0  0  0  0  0  0
  156.9910  212.6850  155.2140 C   0  0  1  0  0  3  0  0  0  0  0  0
  157.3230  212.6310  153.7290 C   0  0  0  0  0  1  0  0  0  0  0  0
  155.7110  211.4440  156.8220 O   0  0  0  0  0  1  0  0  0  0  0  0
  155.9720  211.6570  155.6070 C   0  0  0  0  0  0  0  0  0  0  0  0
  155.3660  210.8730  154.6360 O   0  0  0  0  0  0  0  0  0  0  0  0
  161.7250  207.8570  155.5100 C   0  0  0  0  0  2  0  0  0  0  0  0
  160.5960  207.1720  157.2330 N   0  0  0  0  0  1  0  0  0  0  0  0
  161.5700  208.0430  156.8860 O   0  0  0  0  0  0  0  0  0  0  0  0
  161.4620  206.2390  146.8710 O   0  0  0  0  0  0  0  0  0  0  0  0
  162.4450  204.8970  147.3520 S   0  0  0  0  0  0  0  0  0  0  0  0
  160.4570  203.1370  148.9470 C   0  0  0  0  0  2  0  0  0  0  0  0
  160.5360  201.6740  149.5290 C   0  0  1  0  0  3  0  0  0  0  0  0
  161.5810  202.3140  147.1400 C   0  0  1  0  0  3  0  0  0  0  0  0
  161.2030  200.5780  148.6090 C   0  0  0  0  0  2  0  0  0  0  0  0
  160.3550  203.1630  147.4130 C   0  0  2  0  0  3  0  0  0  0  0  0
  161.3660  203.6890  146.5340 C   0  0  1  0  0  3  0  0  0  0  0  0
  162.0770  201.1650  147.5210 C   0  0  0  0  0  2  0  0  0  0  0  0
  161.2070  201.7060  150.8360 C   0  0  0  0  0  0  0  0  0  0  0  0
  161.7460  201.7260  151.8600 N   0  0  0  0  0  0  0  0  0  0  0  0
  1 19  1  1  0  0  0
  3 11  1  0  0  0  0
  4 12  1  1  0  0  0
  4  3  1  0  0  0  0
  5  4  1  0  0  0  0
  6 13  1  0  0  0  0
  7 15  1  1  0  0  0
  7  8  1  0  0  0  0
  8 11  1  0  0  0  0
  8  1  1  0  0  0  0
  9 13  2  0  0  0  0
 10 13  1  0  0  0  0
 10  5  1  0  0  0  0
 11  1  1  0  0  0  0
 11  2  1  0  0  0  0
 13 14  1  0  0  0  0
 14  4  1  0  0  0  0
 14  7  1  0  0  0  0
 17 15  1  0  0  0  0
 17 16  1  0  0  0  0
 18 17  1  0  0  0  0
 19 21  1  0  0  0  0
 19 31  1  0  0  0  0
 20 24  2  0  0  0  0
 21 20  1  0  0  0  0
 22 21  1  0  0  0  0
 22 23  2  0  0  0  0
 23 24  1  0  0  0  0
 24 25  1  0  0  0  0
 26 29  1  0  0  0  0
 26 25  1  0  0  0  0
 27 26  1  0  0  0  0
 29 28  1  0  0  0  0
 30 29  2  0  0  0  0
 31 33  1  0  0  0  0
 33 32  1  0  0  0  0
 34 35  1  0  0  0  0
 34 10  1  0  0  0  0
 36 37  1  0  0  0  0
 37 43  1  0  0  0  0
 38 40  1  0  0  0  0
 38 42  1  0  0  0  0
 39 37  1  0  0  0  0
 40 36  1  0  0  0  0
 41 38  1  0  0  0  0
 41 35  1  0  0  0  0
 41 40  1  0  0  0  0
 42 39  1  0  0  0  0
 43 44  3  0  0  0  0
M  END
>  <MODEL>
8

>  <REMARK>
 VINA RESULT:      -3.0      2.201      3.083
  Name = 
  13 active torsions:
  status: ('A' for Active; 'I' for Inactive)
    1  A    between atoms: C_1  and  C_16
    2  A    between atoms: C_5  and  C_16
    3  A    between atoms: C_5  and  O_36
    4  A    between atoms: C_8  and  C_15
    5  A    between atoms: C_8  and  C_19
    6  A    between atoms: C_10  and  C_21
    7  A    between atoms: C_12  and  C_24
    8  A    between atoms: C_12  and  C_39
    9  A    between atoms: S_14  and  O_17
   10  A    between atoms: S_14  and  C_42
   11  A    between atoms: C_16  and  N_23
   12  A    between atoms: O_17  and  C_32
   13  A    between atoms: C_24  and  C_25
                            x       y       z     vdW  Elec       q    Type
                         _______ _______ _______ _____ _____    ______ ____

>  <TORSDO>
F 13

$$$$
=
 OpenBabel11072413223D

 44 49  0  0  1  0  0  0  0  0999 V2000
  160.4640  206.8590  149.1010 C   0  0  1  0  0  3  0  0  0  0  0  0
  162.5780  207.9130  147.9730 C   0  0  0  0  0  1  0  0  0  0  0  0
  161.3850  209.0910  149.9710 C   0  0  0  0  0  2  0  0  0  0  0  0
  161.6780  208.9290  151.4500 C   0  0  2  0  0  0  0  0  0  0  0  0
  161.2490  210.1640  152.2540 C   0  0  0  0  0  2  0  0  0  0  0  0
  162.0610  207.3210  154.3930 O   0  0  0  0  0  0  0  0  0  0  0  0
  161.4430  206.4170  151.4210 C   0  0  1  0  0  3  0  0  0  0  0  0
  161.7050  206.4310  149.8870 C   0  0  2  0  0  3  0  0  0  0  0  0
  159.4060  207.2980  154.4150 O   0  0  0  0  0  1  0  0  0  0  0  0
  160.8500  209.7230  153.6770 C   0  0  1  0  0  3  0  0  0  0  0  0
  161.6710  207.8000  149.1860 C   0  0  1  0  0  0  0  0  0  0  0  0
  163.0540  208.7260  151.6340 O   0  0  0  0  0  1  0  0  0  0  0  0
  160.8300  207.9110  153.7370 P   0  0  1  0  0  0  0  0  0  0  0  0
  160.8750  207.7360  151.9480 C   0  0  1  0  0  3  0  0  0  0  0  0
  160.5280  205.2500  151.7910 C   0  0  0  0  0  2  0  0  0  0  0  0
  160.5400  202.7440  152.0470 C   0  0  0  0  0  1  0  0  0  0  0  0
  161.2990  204.0290  152.2770 C   0  0  1  0  0  3  0  0  0  0  0  0
  162.5610  203.9640  151.6810 O   0  0  0  0  0  1  0  0  0  0  0  0
  160.3680  206.0910  147.7850 C   0  0  2  0  0  3  0  0  0  0  0  0
  160.8960  203.7790  148.5830 C   0  0  0  0  0  3  0  0  0  0  0  0
  161.1840  204.8800  147.8680 N   0  0  0  0  0  0  0  0  0  0  0  0
  162.2510  204.6740  147.1120 N   0  0  0  0  0  0  0  0  0  0  0  0
  162.7010  203.4230  147.3380 C   0  0  0  0  0  3  0  0  0  0  0  0
  161.8600  202.8430  148.2630 C   0  0  0  0  0  0  0  0  0  0  0  0
  161.9750  201.4430  148.8010 C   0  0  0  0  0  2  0  0  0  0  0  0
  160.8910  200.4900  148.2830 C   0  0  1  0  0  3  0  0  0  0  0  0
  159.5080  200.9530  148.7200 C   0  0  0  0  0  1  0  0  0  0  0  0
  161.5810  199.2440  146.3510 O   0  0  0  0  0  1  0  0  0  0  0  0
  160.9680  200.2470  146.8040 C   0  0  0  0  0  0  0  0  0  0  0  0
  160.4350  201.1740  145.9200 O   0  0  0  0  0  0  0  0  0  0  0  0
  160.8030  206.9740  146.6200 C   0  0  0  0  0  2  0  0  0  0  0  0
  160.9810  205.9890  144.6940 N   0  0  0  0  0  1  0  0  0  0  0  0
  160.0830  206.6320  145.4720 O   0  0  0  0  0  0  0  0  0  0  0  0
  161.5480  210.3430  154.7400 O   0  0  0  0  0  0  0  0  0  0  0  0
  160.7200  211.7730  155.2570 S   0  0  0  0  0  0  0  0  0  0  0  0
  157.7140  211.4540  154.5780 C   0  0  0  0  0  2  0  0  0  0  0  0
  156.4190  212.2390  155.0140 C   0  0  1  0  0  3  0  0  0  0  0  0
  158.4190  211.7290  156.7310 C   0  0  1  0  0  3  0  0  0  0  0  0
  156.3190  212.6580  156.5330 C   0  0  0  0  0  2  0  0  0  0  0  0
  158.3090  210.6080  155.7160 C   0  0  2  0  0  3  0  0  0  0  0  0
  159.5880  210.8470  156.3310 C   0  0  1  0  0  3  0  0  0  0  0  0
  157.6590  212.6640  157.2390 C   0  0  0  0  0  2  0  0  0  0  0  0
  156.2550  213.4210  154.1570 C   0  0  0  0  0  0  0  0  0  0  0  0
  156.1140  214.3510  153.4840 N   0  0  0  0  0  0  0  0  0  0  0  0
  1 19  1  6  0  0  0
  1 11  1  0  0  0  0
  1  8  1  0  0  0  0
  2 11  1  0  0  0  0
  3  4  1  0  0  0  0
  4 12  1  1  0  0  0
  4 14  1  0  0  0  0
  4  5  1  0  0  0  0
  5 10  1  0  0  0  0
  7 15  1  6  0  0  0
  7 14  1  0  0  0  0
  8  7  1  0  0  0  0
 10 13  1  0  0  0  0
 10 34  1  0  0  0  0
 11  8  1  0  0  0  0
 11  3  1  0  0  0  0
 13  6  2  0  0  0  0
 13  9  1  0  0  0  0
 14 13  1  0  0  0  0
 15 17  1  0  0  0  0
 16 17  1  0  0  0  0
 18 17  1  0  0  0  0
 19 21  1  0  0  0  0
 21 20  1  0  0  0  0
 22 23  2  0  0  0  0
 22 21  1  0  0  0  0
 23 24  1  0  0  0  0
 24 20  2  0  0  0  0
 24 25  1  0  0  0  0
 26 27  1  0  0  0  0
 26 25  1  0  0  0  0
 28 29  1  0  0  0  0
 29 26  1  0  0  0  0
 30 29  2  0  0  0  0
 31 19  1  0  0  0  0
 32 33  1  0  0  0  0
 33 31  1  0  0  0  0
 34 35  1  0  0  0  0
 35 41  1  0  0  0  0
 36 37  1  0  0  0  0
 36 40  1  0  0  0  0
 37 39  1  0  0  0  0
 38 42  1  0  0  0  0
 39 42  1  0  0  0  0
 40 41  1  0  0  0  0
 40 38  1  0  0  0  0
 41 38  1  0  0  0  0
 43 37  1  0  0  0  0
 44 43  3  0  0  0  0
M  END
>  <MODEL>
9

>  <REMARK>
 VINA RESULT:      -2.9      3.202     10.469
  Name = 
  13 active torsions:
  status: ('A' for Active; 'I' for Inactive)
    1  A    between atoms: C_1  and  C_16
    2  A    between atoms: C_5  and  C_16
    3  A    between atoms: C_5  and  O_36
    4  A    between atoms: C_8  and  C_15
    5  A    between atoms: C_8  and  C_19
    6  A    between atoms: C_10  and  C_21
    7  A    between atoms: C_12  and  C_24
    8  A    between atoms: C_12  and  C_39
    9  A    between atoms: S_14  and  O_17
   10  A    between atoms: S_14  and  C_42
   11  A    between atoms: C_16  and  N_23
   12  A    between atoms: O_17  and  C_32
   13  A    between atoms: C_24  and  C_25
                            x       y       z     vdW  Elec       q    Type
                         _______ _______ _______ _____ _____    ______ ____

>  <TORSDO>
F 13

$$$$
