=
 OpenBabel11072412493D

 52 56  0  0  1  0  0  0  0  0999 V2000
  162.0890  205.7380  152.0290 C   0  0  0  0  0  0  0  0  0  0  0  0
  162.6590  210.0570  151.3670 C   0  0  0  0  0  0  0  0  0  0  0  0
  163.4710  208.9620  150.7430 C   0  0  0  0  0  2  0  0  0  0  0  0
  160.3180  210.9910  152.0170 C   0  0  1  0  0  3  0  0  0  0  0  0
  160.3650  206.9890  154.2320 C   0  0  0  0  0  3  0  0  0  0  0  0
  160.4410  208.2700  154.5600 C   0  0  0  0  0  3  0  0  0  0  0  0
  162.4330  207.0880  151.8760 O   0  0  0  0  0  0  0  0  0  0  0  0
  159.6480  210.6460  154.4090 C   0  0  1  0  0  3  0  0  0  0  0  0
  162.7100  207.6510  150.6000 C   0  0  0  0  0  2  0  0  0  0  0  0
  160.7990  210.9490  153.4600 C   0  0  0  0  0  2  0  0  0  0  0  0
  160.1830  212.4340  151.5330 C   0  0  1  0  0  3  0  0  0  0  0  0
  161.7070  205.2830  153.1830 N   0  0  0  0  0  0  0  0  0  0  0  0
  161.5730  206.1250  154.3660 C   0  0  0  0  0  2  0  0  0  0  0  0
  160.5680  212.4040  150.1720 O   0  0  0  0  0  0  0  0  0  0  0  0
  161.2070  210.2610  150.9800 C   0  0  1  0  0  3  0  0  0  0  0  0
  161.1350  211.1970  149.8380 C   0  0  0  0  0  0  0  0  0  0  0  0
  161.5340  210.9270  148.6740 O   0  0  0  0  0  0  0  0  0  0  0  0
  159.2550  209.1650  154.3820 C   0  0  0  0  0  2  0  0  0  0  0  0
  163.2350  210.8660  152.0770 O   0  0  0  0  0  0  0  0  0  0  0  0
  160.0490  211.2040  156.0590 S   0  0  0  0  0  0  0  0  0  0  0  0
  159.2990  210.3680  157.0560 O   0  0  0  0  0  0  0  0  0  0  0  0
  161.5250  211.0280  156.2950 O   0  0  0  0  0  0  0  0  0  0  0  0
  158.9710  213.3920  155.1020 O   0  0  0  0  0  0  0  0  0  0  0  0
  158.1150  213.2820  156.2140 C   0  0  2  0  0  3  0  0  0  0  0  0
  159.5680  212.9220  156.2850 C   0  0  1  0  0  3  0  0  0  0  0  0
  157.1320  212.1620  156.0140 C   0  0  0  0  0  0  0  0  0  0  0  0
  156.6590  211.5800  156.9790 O   0  0  0  0  0  0  0  0  0  0  0  0
  155.7100  210.8130  154.7100 F   0  0  0  0  0  0  0  0  0  0  0  0
  156.0200  212.9740  154.1150 F   0  0  0  0  0  0  0  0  0  0  0  0
  156.6240  211.8510  154.6450 C   0  0  0  0  0  3  0  0  0  0  0  0
  158.8040  212.8700  151.6490 N   0  0  0  0  0  2  0  0  0  0  0  0
  158.6630  214.0010  150.8310 N   0  0  0  0  0  2  0  0  0  0  0  0
  157.0780  212.9620  149.2100 C   0  0  0  0  0  2  0  0  0  0  0  0
  157.3140  213.9820  150.2880 C   0  0  0  0  0  0  0  0  0  0  0  0
  156.2530  214.1800  151.1650 O   0  0  0  0  0  1  0  0  0  0  0  0
  157.1360  214.4520  148.8670 C   0  0  0  0  0  2  0  0  0  0  0  0
  162.1450  204.7930  150.8690 C   0  0  0  0  0  2  0  0  0  0  0  0
  160.1370  206.3050  149.9380 O   0  0  0  0  0  0  0  0  0  0  0  0
  159.6110  203.9870  150.5270 O   0  0  0  0  0  0  0  0  0  0  0  0
  160.6410  204.8910  149.9110 S   0  0  0  0  0  0  0  0  0  0  0  0
  160.9620  204.4050  148.2160 C   0  0  2  0  0  3  0  0  0  0  0  0
  161.3670  202.9400  148.2070 C   0  0  0  0  0  1  0  0  0  0  0  0
  162.2560  204.0860  145.2580 N   0  0  0  0  0  2  0  0  0  0  0  0
  160.6100  206.2040  145.0840 O   0  0  0  0  0  0  0  0  0  0  0  0
  164.0950  204.5590  146.5890 O   0  0  0  0  0  0  0  0  0  0  0  0
  161.6660  206.7060  147.1900 C   0  0  0  0  0  2  0  0  0  0  0  0
  160.4140  202.7100  145.7330 O   0  0  0  0  0  1  0  0  0  0  0  0
  159.9220  204.9930  145.1850 C   0  0  0  0  0  2  0  0  0  0  0  0
  162.8450  204.6010  146.4650 C   0  0  0  0  0  0  0  0  0  0  0  0
  160.4100  206.8020  146.3300 C   0  0  0  0  0  2  0  0  0  0  0  0
  160.8510  203.8010  144.9760 C   0  0  1  0  0  3  0  0  0  0  0  0
  162.0580  205.2700  147.5620 C   0  0  2  0  0  3  0  0  0  0  0  0
  1 12  2  0  0  0  0
  2 19  2  0  0  0  0
  3  2  1  0  0  0  0
  4 10  1  1  0  0  0
  5 13  1  0  0  0  0
  5  6  2  0  0  0  0
  7  1  1  0  0  0  0
  8 20  1  1  0  0  0
  9  3  1  0  0  0  0
  9  7  1  0  0  0  0
 10  8  1  0  0  0  0
 11 31  1  6  0  0  0
 11  4  1  0  0  0  0
 12 13  1  0  0  0  0
 14 11  1  0  0  0  0
 15 16  1  6  0  0  0
 15  2  1  0  0  0  0
 15  4  1  0  0  0  0
 16 14  1  0  0  0  0
 17 16  2  0  0  0  0
 18  8  1  0  0  0  0
 18  6  1  0  0  0  0
 20 22  2  0  0  0  0
 20 21  2  0  0  0  0
 23 24  1  0  0  0  0
 23 25  1  0  0  0  0
 24 26  1  6  0  0  0
 24 25  1  0  0  0  0
 25 20  1  6  0  0  0
 26 27  2  0  0  0  0
 29 30  1  0  0  0  0
 30 28  1  0  0  0  0
 30 26  1  0  0  0  0
 32 31  1  0  0  0  0
 33 34  1  0  0  0  0
 34 32  1  0  0  0  0
 34 35  1  0  0  0  0
 36 33  1  0  0  0  0
 36 34  1  0  0  0  0
 37  1  1  0  0  0  0
 40 38  2  0  0  0  0
 40 39  2  0  0  0  0
 40 37  1  0  0  0  0
 41 42  1  1  0  0  0
 41 40  1  0  0  0  0
 43 49  1  0  0  0  0
 44 48  1  0  0  0  0
 44 50  1  0  0  0  0
 46 52  1  0  0  0  0
 49 45  2  0  0  0  0
 49 52  1  0  0  0  0
 50 46  1  0  0  0  0
 51 48  1  0  0  0  0
 51 43  1  0  0  0  0
 51 47  1  1  0  0  0
 52 41  1  6  0  0  0
M  END
>  <MODEL>
1

>  <REMARK>
 VINA RESULT:      -2.2      0.000      0.000
  Name = 
  11 active torsions:
  status: ('A' for Active; 'I' for Inactive)
    1  A    between atoms: S_1  and  C_23
    2  A    between atoms: S_1  and  C_46
    3  A    between atoms: C_3  and  C_47
    4  A    between atoms: C_6  and  C_49
    5  A    between atoms: C_6  and  S_52
    6  A    between atoms: N_9  and  N_15
    7  A    between atoms: N_9  and  C_24
    8  A    between atoms: N_15  and  C_29
    9  A    between atoms: C_17  and  C_34
   10  A    between atoms: C_17  and  C_41
   11  A    between atoms: C_47  and  S_52
                            x       y       z     vdW  Elec       q    Type
                         _______ _______ _______ _____ _____    ______ ____

>  <TORSDO>
F 11

$$$$
=
 OpenBabel11072412493D

 52 56  0  0  1  0  0  0  0  0999 V2000
  162.0430  208.1210  150.3740 C   0  0  0  0  0  0  0  0  0  0  0  0
  161.7530  212.3890  149.3150 C   0  0  0  0  0  0  0  0  0  0  0  0
  162.7750  211.4250  148.7910 C   0  0  0  0  0  2  0  0  0  0  0  0
  159.2640  212.8920  149.8860 C   0  0  1  0  0  3  0  0  0  0  0  0
  160.0730  209.1980  152.4590 C   0  0  0  0  0  3  0  0  0  0  0  0
  159.8870  210.4940  152.6680 C   0  0  0  0  0  3  0  0  0  0  0  0
  162.1140  209.4930  150.0960 O   0  0  0  0  0  0  0  0  0  0  0  0
  158.6410  212.6400  152.3020 C   0  0  1  0  0  3  0  0  0  0  0  0
  162.2920  209.9810  148.7720 C   0  0  0  0  0  2  0  0  0  0  0  0
  159.7220  213.0790  151.3240 C   0  0  0  0  0  2  0  0  0  0  0  0
  158.8510  214.2300  149.2710 C   0  0  1  0  0  3  0  0  0  0  0  0
  161.7420  207.7060  151.5670 N   0  0  0  0  0  0  0  0  0  0  0  0
  161.4260  208.6090  152.6670 C   0  0  0  0  0  2  0  0  0  0  0  0
  159.2550  214.1530  147.9170 O   0  0  0  0  0  0  0  0  0  0  0  0
  160.2950  212.2620  148.9170 C   0  0  1  0  0  3  0  0  0  0  0  0
  160.0550  213.0580  147.6930 C   0  0  0  0  0  0  0  0  0  0  0  0
  160.5170  212.7680  146.5580 O   0  0  0  0  0  0  0  0  0  0  0  0
  158.5500  211.1140  152.4120 C   0  0  0  0  0  2  0  0  0  0  0  0
  162.1460  213.3570  149.9460 O   0  0  0  0  0  0  0  0  0  0  0  0
  158.8990  213.4140  153.8910 S   0  0  0  0  0  0  0  0  0  0  0  0
  160.2400  214.0900  153.8960 O   0  0  0  0  0  0  0  0  0  0  0  0
  157.8340  214.4530  154.1140 O   0  0  0  0  0  0  0  0  0  0  0  0
  158.4300  212.7960  156.3940 O   0  0  0  0  0  0  0  0  0  0  0  0
  157.5700  211.8280  155.8420 C   0  0  2  0  0  3  0  0  0  0  0  0
  158.8790  212.1890  155.2080 C   0  0  1  0  0  3  0  0  0  0  0  0
  156.3310  212.4780  155.2900 C   0  0  0  0  0  0  0  0  0  0  0  0
  155.9560  213.5560  155.7270 O   0  0  0  0  0  0  0  0  0  0  0  0
  155.1970  210.6030  154.4280 F   0  0  0  0  0  0  0  0  0  0  0  0
  154.5590  212.6710  153.7640 F   0  0  0  0  0  0  0  0  0  0  0  0
  155.6350  211.8780  154.1130 C   0  0  0  0  0  3  0  0  0  0  0  0
  157.4120  214.3900  149.3520 N   0  0  0  0  0  2  0  0  0  0  0  0
  156.8420  213.3210  148.6450 N   0  0  0  0  0  2  0  0  0  0  0  0
  156.3180  213.0910  146.2180 C   0  0  0  0  0  2  0  0  0  0  0  0
  156.1590  213.8770  147.4870 C   0  0  0  0  0  0  0  0  0  0  0  0
  154.9070  214.4510  147.6810 O   0  0  0  0  0  1  0  0  0  0  0  0
  157.0170  214.4410  146.3840 C   0  0  0  0  0  2  0  0  0  0  0  0
  162.3020  207.1040  149.3060 C   0  0  0  0  0  2  0  0  0  0  0  0
  159.7130  206.4280  149.4410 O   0  0  0  0  0  0  0  0  0  0  0  0
  161.3090  204.9760  150.5980 O   0  0  0  0  0  0  0  0  0  0  0  0
  161.0770  205.8060  149.3680 S   0  0  0  0  0  0  0  0  0  0  0  0
  161.1910  204.7880  147.8980 C   0  0  2  0  0  3  0  0  0  0  0  0
  161.6460  203.3980  148.3130 C   0  0  0  0  0  1  0  0  0  0  0  0
  162.2790  203.4030  145.1730 N   0  0  0  0  0  2  0  0  0  0  0  0
  160.4520  205.2040  144.3690 O   0  0  0  0  0  0  0  0  0  0  0  0
  164.1670  204.4460  146.0250 O   0  0  0  0  0  0  0  0  0  0  0  0
  161.6180  206.5380  146.0000 C   0  0  0  0  0  2  0  0  0  0  0  0
  160.6010  202.2340  146.3250 O   0  0  0  0  0  1  0  0  0  0  0  0
  159.8780  204.0960  144.9970 C   0  0  0  0  0  2  0  0  0  0  0  0
  162.9120  204.3760  146.0230 C   0  0  0  0  0  0  0  0  0  0  0  0
  160.2970  206.2300  145.3040 C   0  0  0  0  0  2  0  0  0  0  0  0
  160.8850  202.9630  145.1670 C   0  0  1  0  0  3  0  0  0  0  0  0
  162.1570  205.3810  146.8530 C   0  0  2  0  0  3  0  0  0  0  0  0
  1 12  2  0  0  0  0
  2 19  2  0  0  0  0
  3  2  1  0  0  0  0
  4 10  1  1  0  0  0
  5 13  1  0  0  0  0
  5  6  2  0  0  0  0
  7  1  1  0  0  0  0
  8 18  1  0  0  0  0
  8 20  1  1  0  0  0
  9  3  1  0  0  0  0
  9  7  1  0  0  0  0
 10  8  1  0  0  0  0
 11 31  1  6  0  0  0
 11  4  1  0  0  0  0
 12 13  1  0  0  0  0
 14 11  1  0  0  0  0
 15 16  1  6  0  0  0
 15  2  1  0  0  0  0
 15  4  1  0  0  0  0
 16 14  1  0  0  0  0
 17 16  2  0  0  0  0
 18  6  1  0  0  0  0
 20 21  2  0  0  0  0
 20 22  2  0  0  0  0
 24 26  1  6  0  0  0
 24 23  1  0  0  0  0
 25 20  1  6  0  0  0
 25 24  1  0  0  0  0
 25 23  1  0  0  0  0
 26 27  2  0  0  0  0
 29 30  1  0  0  0  0
 30 28  1  0  0  0  0
 30 26  1  0  0  0  0
 32 31  1  0  0  0  0
 33 36  1  0  0  0  0
 33 34  1  0  0  0  0
 34 35  1  0  0  0  0
 34 32  1  0  0  0  0
 36 34  1  0  0  0  0
 37 40  1  0  0  0  0
 37  1  1  0  0  0  0
 40 38  2  0  0  0  0
 40 39  2  0  0  0  0
 41 42  1  1  0  0  0
 41 40  1  0  0  0  0
 43 49  1  0  0  0  0
 44 48  1  0  0  0  0
 44 50  1  0  0  0  0
 46 52  1  0  0  0  0
 48 51  1  0  0  0  0
 49 45  2  0  0  0  0
 49 52  1  0  0  0  0
 50 46  1  0  0  0  0
 51 43  1  0  0  0  0
 51 47  1  1  0  0  0
 52 41  1  6  0  0  0
M  END
>  <MODEL>
2

>  <REMARK>
 VINA RESULT:      -0.7      1.912      2.562
  Name = 
  11 active torsions:
  status: ('A' for Active; 'I' for Inactive)
    1  A    between atoms: S_1  and  C_23
    2  A    between atoms: S_1  and  C_46
    3  A    between atoms: C_3  and  C_47
    4  A    between atoms: C_6  and  C_49
    5  A    between atoms: C_6  and  S_52
    6  A    between atoms: N_9  and  N_15
    7  A    between atoms: N_9  and  C_24
    8  A    between atoms: N_15  and  C_29
    9  A    between atoms: C_17  and  C_34
   10  A    between atoms: C_17  and  C_41
   11  A    between atoms: C_47  and  S_52
                            x       y       z     vdW  Elec       q    Type
                         _______ _______ _______ _____ _____    ______ ____

>  <TORSDO>
F 11

$$$$
=
 OpenBabel11072412493D

 52 56  0  0  1  0  0  0  0  0999 V2000
  161.3070  205.7530  151.0680 C   0  0  0  0  0  0  0  0  0  0  0  0
  162.4240  210.0140  150.9520 C   0  0  0  0  0  0  0  0  0  0  0  0
  162.8790  208.9640  149.9830 C   0  0  0  0  0  2  0  0  0  0  0  0
  160.4820  211.0930  152.3080 C   0  0  1  0  0  3  0  0  0  0  0  0
  160.3620  206.7710  153.8000 C   0  0  0  0  0  3  0  0  0  0  0  0
  160.7230  207.9470  154.2910 C   0  0  0  0  0  3  0  0  0  0  0  0
  161.8280  207.0540  151.0410 O   0  0  0  0  0  0  0  0  0  0  0  0
  160.3250  210.3890  154.7090 C   0  0  1  0  0  3  0  0  0  0  0  0
  161.8970  207.8090  149.8380 C   0  0  0  0  0  2  0  0  0  0  0  0
  161.2640  210.7200  153.5580 C   0  0  0  0  0  2  0  0  0  0  0  0
  160.4830  212.6070  152.1000 C   0  0  1  0  0  3  0  0  0  0  0  0
  161.1260  205.1400  152.1980 N   0  0  0  0  0  0  0  0  0  0  0  0
  161.4070  205.7540  153.4910 C   0  0  0  0  0  2  0  0  0  0  0  0
  160.5380  212.7860  150.6980 O   0  0  0  0  0  0  0  0  0  0  0  0
  160.9770  210.4660  150.9800 C   0  0  1  0  0  3  0  0  0  0  0  0
  160.8050  211.6030  150.0500 C   0  0  0  0  0  0  0  0  0  0  0  0
  160.8780  211.5100  148.7960 O   0  0  0  0  0  0  0  0  0  0  0  0
  159.6950  209.0010  154.5560 C   0  0  0  0  0  2  0  0  0  0  0  0
  163.2730  210.5960  151.6090 O   0  0  0  0  0  0  0  0  0  0  0  0
  161.1780  210.5710  156.2690 S   0  0  0  0  0  0  0  0  0  0  0  0
  160.6370  209.5650  157.2440 O   0  0  0  0  0  0  0  0  0  0  0  0
  162.6440  210.3040  156.0650 O   0  0  0  0  0  0  0  0  0  0  0  0
  160.3720  213.0440  155.9530 O   0  0  0  0  0  0  0  0  0  0  0  0
  159.5210  212.7500  157.0360 C   0  0  2  0  0  3  0  0  0  0  0  0
  160.9180  212.2150  156.9490 C   0  0  1  0  0  3  0  0  0  0  0  0
  158.4030  211.8450  156.5970 C   0  0  0  0  0  0  0  0  0  0  0  0
  158.1160  210.8580  157.2590 O   0  0  0  0  0  0  0  0  0  0  0  0
  156.3720  211.4970  155.4590 F   0  0  0  0  0  0  0  0  0  0  0  0
  157.2690  213.5750  155.4890 F   0  0  0  0  0  0  0  0  0  0  0  0
  157.5500  212.2230  155.4320 C   0  0  0  0  0  3  0  0  0  0  0  0
  159.2600  213.1810  152.6250 N   0  0  0  0  0  2  0  0  0  0  0  0
  158.1960  212.5730  151.9410 N   0  0  0  0  0  2  0  0  0  0  0  0
  156.7970  213.3940  150.0470 C   0  0  0  0  0  2  0  0  0  0  0  0
  157.3450  213.6330  151.4250 C   0  0  0  0  0  0  0  0  0  0  0  0
  156.4780  214.2650  152.3110 O   0  0  0  0  0  1  0  0  0  0  0  0
  157.8790  214.4500  150.2770 C   0  0  0  0  0  2  0  0  0  0  0  0
  160.9390  205.0450  149.8020 C   0  0  0  0  0  2  0  0  0  0  0  0
  159.4930  203.1600  151.0420 O   0  0  0  0  0  0  0  0  0  0  0  0
  161.8880  202.7300  150.7670 O   0  0  0  0  0  0  0  0  0  0  0  0
  160.6640  203.3080  150.1140 S   0  0  0  0  0  0  0  0  0  0  0  0
  160.3180  202.4570  148.5760 C   0  0  2  0  0  3  0  0  0  0  0  0
  159.3230  201.3440  148.8580 C   0  0  0  0  0  1  0  0  0  0  0  0
  160.6130  200.9980  145.6920 N   0  0  0  0  0  2  0  0  0  0  0  0
  161.6520  203.4540  145.3510 O   0  0  0  0  0  0  0  0  0  0  0  0
  161.9520  199.7060  147.0760 O   0  0  0  0  0  0  0  0  0  0  0  0
  162.6490  202.9040  147.4730 C   0  0  0  0  0  2  0  0  0  0  0  0
  158.5220  201.9610  146.1530 O   0  0  0  0  0  1  0  0  0  0  0  0
  160.2610  203.4700  145.4790 C   0  0  0  0  0  2  0  0  0  0  0  0
  161.3750  200.8080  146.8980 C   0  0  0  0  0  0  0  0  0  0  0  0
  162.1010  203.9940  146.5580 C   0  0  0  0  0  2  0  0  0  0  0  0
  159.6710  202.0670  145.3650 C   0  0  1  0  0  3  0  0  0  0  0  0
  161.5950  201.8850  147.9290 C   0  0  2  0  0  3  0  0  0  0  0  0
  1 12  2  0  0  0  0
  2 15  1  0  0  0  0
  2 19  2  0  0  0  0
  3  2  1  0  0  0  0
  4 10  1  1  0  0  0
  5  6  2  0  0  0  0
  6 18  1  0  0  0  0
  7  1  1  0  0  0  0
  8 20  1  1  0  0  0
  9  3  1  0  0  0  0
  9  7  1  0  0  0  0
 10  8  1  0  0  0  0
 11  4  1  0  0  0  0
 11 31  1  6  0  0  0
 12 13  1  0  0  0  0
 13  5  1  0  0  0  0
 14 11  1  0  0  0  0
 15 16  1  6  0  0  0
 15  4  1  0  0  0  0
 16 14  1  0  0  0  0
 17 16  2  0  0  0  0
 18  8  1  0  0  0  0
 20 21  2  0  0  0  0
 22 20  2  0  0  0  0
 23 25  1  0  0  0  0
 23 24  1  0  0  0  0
 24 26  1  6  0  0  0
 25 20  1  6  0  0  0
 25 24  1  0  0  0  0
 26 27  2  0  0  0  0
 30 28  1  0  0  0  0
 30 29  1  0  0  0  0
 30 26  1  0  0  0  0
 32 31  1  0  0  0  0
 33 36  1  0  0  0  0
 33 34  1  0  0  0  0
 34 32  1  0  0  0  0
 34 35  1  0  0  0  0
 36 34  1  0  0  0  0
 37 40  1  0  0  0  0
 37  1  1  0  0  0  0
 40 39  2  0  0  0  0
 40 38  2  0  0  0  0
 41 42  1  1  0  0  0
 41 40  1  0  0  0  0
 43 49  1  0  0  0  0
 44 48  1  0  0  0  0
 44 50  1  0  0  0  0
 46 52  1  0  0  0  0
 49 45  2  0  0  0  0
 49 52  1  0  0  0  0
 50 46  1  0  0  0  0
 51 48  1  0  0  0  0
 51 43  1  0  0  0  0
 51 47  1  1  0  0  0
 52 41  1  6  0  0  0
M  END
>  <MODEL>
3

>  <REMARK>
 VINA RESULT:      -0.4      1.476      1.958
  Name = 
  11 active torsions:
  status: ('A' for Active; 'I' for Inactive)
    1  A    between atoms: S_1  and  C_23
    2  A    between atoms: S_1  and  C_46
    3  A    between atoms: C_3  and  C_47
    4  A    between atoms: C_6  and  C_49
    5  A    between atoms: C_6  and  S_52
    6  A    between atoms: N_9  and  N_15
    7  A    between atoms: N_9  and  C_24
    8  A    between atoms: N_15  and  C_29
    9  A    between atoms: C_17  and  C_34
   10  A    between atoms: C_17  and  C_41
   11  A    between atoms: C_47  and  S_52
                            x       y       z     vdW  Elec       q    Type
                         _______ _______ _______ _____ _____    ______ ____

>  <TORSDO>
F 11

$$$$
=
 OpenBabel11072412493D

 52 56  0  0  1  0  0  0  0  0999 V2000
  161.6210  210.8330  151.2170 C   0  0  0  0  0  0  0  0  0  0  0  0
  162.5320  206.6360  152.2010 C   0  0  0  0  0  0  0  0  0  0  0  0
  162.8390  207.8230  153.0640 C   0  0  0  0  0  2  0  0  0  0  0  0
  160.8360  205.3710  150.6850 C   0  0  1  0  0  3  0  0  0  0  0  0
  161.1620  209.4010  148.5470 C   0  0  0  0  0  3  0  0  0  0  0  0
  161.5620  208.1590  148.3220 C   0  0  0  0  0  3  0  0  0  0  0  0
  162.0770  209.5490  151.5430 O   0  0  0  0  0  0  0  0  0  0  0  0
  161.1550  205.6850  148.2180 C   0  0  1  0  0  3  0  0  0  0  0  0
  161.8920  208.9950  152.8390 C   0  0  0  0  0  2  0  0  0  0  0  0
  161.8510  205.5340  149.5640 C   0  0  0  0  0  2  0  0  0  0  0  0
  160.7400  203.9090  151.1210 C   0  0  1  0  0  3  0  0  0  0  0  0
  161.6770  211.2600  149.9920 N   0  0  0  0  0  0  0  0  0  0  0  0
  162.1690  210.4460  148.8870 C   0  0  0  0  0  2  0  0  0  0  0  0
  160.5270  203.9550  152.5190 O   0  0  0  0  0  0  0  0  0  0  0  0
  161.0990  206.1970  151.9690 C   0  0  1  0  0  3  0  0  0  0  0  0
  160.7140  205.2250  153.0150 C   0  0  0  0  0  0  0  0  0  0  0  0
  160.5560  205.5150  154.2300 O   0  0  0  0  0  0  0  0  0  0  0  0
  160.5610  207.0850  148.0320 C   0  0  0  0  0  2  0  0  0  0  0  0
  163.4650  205.9500  151.8160 O   0  0  0  0  0  0  0  0  0  0  0  0
  162.2760  205.2500  146.8950 S   0  0  0  0  0  0  0  0  0  0  0  0
  163.6100  205.8880  147.1530 O   0  0  0  0  0  0  0  0  0  0  0  0
  162.4520  203.7560  146.8680 O   0  0  0  0  0  0  0  0  0  0  0  0
  162.3280  205.1750  144.2770 O   0  0  0  0  0  0  0  0  0  0  0  0
  160.9550  204.8890  144.4030 C   0  0  2  0  0  3  0  0  0  0  0  0
  161.6590  205.8470  145.3150 C   0  0  1  0  0  3  0  0  0  0  0  0
  160.7530  203.4830  144.8980 C   0  0  0  0  0  0  0  0  0  0  0  0
  161.6910  202.8560  145.3680 O   0  0  0  0  0  0  0  0  0  0  0  0
  158.6630  203.2930  143.8300 F   0  0  0  0  0  0  0  0  0  0  0  0
  159.4680  201.5220  144.9870 F   0  0  0  0  0  0  0  0  0  0  0  0
  159.3800  202.8990  144.9480 C   0  0  0  0  0  3  0  0  0  0  0  0
  159.6150  203.2690  150.4690 N   0  0  0  0  0  2  0  0  0  0  0  0
  160.0530  202.8680  149.1980 N   0  0  0  0  0  2  0  0  0  0  0  0
  161.8130  201.1030  149.1500 C   0  0  0  0  0  2  0  0  0  0  0  0
  160.3560  201.4480  149.2670 C   0  0  0  0  0  0  0  0  0  0  0  0
  159.6270  200.6680  150.1590 O   0  0  0  0  0  1  0  0  0  0  0  0
  160.8470  200.7840  148.0070 C   0  0  0  0  0  2  0  0  0  0  0  0
  161.0510  211.7370  152.2650 C   0  0  0  0  0  2  0  0  0  0  0  0
  158.7570  210.3620  152.4340 O   0  0  0  0  0  0  0  0  0  0  0  0
  158.8500  212.1840  150.8020 O   0  0  0  0  0  0  0  0  0  0  0  0
  159.2670  211.7500  152.1780 S   0  0  0  0  0  0  0  0  0  0  0  0
  158.6030  212.8670  153.4110 C   0  0  2  0  0  3  0  0  0  0  0  0
  158.7260  214.2880  152.8860 C   0  0  0  0  0  1  0  0  0  0  0  0
  157.7200  214.1120  156.2740 N   0  0  0  0  0  2  0  0  0  0  0  0
  157.1270  211.4950  156.4290 O   0  0  0  0  0  0  0  0  0  0  0  0
  160.0130  214.4520  156.2360 O   0  0  0  0  0  0  0  0  0  0  0  0
  159.3060  211.3380  155.4150 C   0  0  0  0  0  2  0  0  0  0  0  0
  156.1710  214.3460  154.5260 O   0  0  0  0  0  1  0  0  0  0  0  0
  156.2660  212.1940  155.5800 C   0  0  0  0  0  2  0  0  0  0  0  0
  159.0340  213.8180  155.7690 C   0  0  0  0  0  0  0  0  0  0  0  0
  157.9100  210.7380  155.5560 C   0  0  0  0  0  2  0  0  0  0  0  0
  156.4220  213.7030  155.7410 C   0  0  1  0  0  3  0  0  0  0  0  0
  159.3220  212.7300  154.7670 C   0  0  2  0  0  3  0  0  0  0  0  0
  1  7  1  0  0  0  0
  1 37  1  0  0  0  0
  2  3  1  0  0  0  0
  4 10  1  6  0  0  0
  4 11  1  0  0  0  0
  4 15  1  0  0  0  0
  5 13  1  0  0  0  0
  6  5  2  0  0  0  0
  7  9  1  0  0  0  0
  8 20  1  6  0  0  0
  8 10  1  0  0  0  0
  9  3  1  0  0  0  0
 11 31  1  6  0  0  0
 11 14  1  0  0  0  0
 12  1  2  0  0  0  0
 13 12  1  0  0  0  0
 14 16  1  0  0  0  0
 15  2  1  1  0  0  0
 15 16  1  0  0  0  0
 16 17  2  0  0  0  0
 18  8  1  0  0  0  0
 18  6  1  0  0  0  0
 19  2  2  0  0  0  0
 20 21  2  0  0  0  0
 22 20  2  0  0  0  0
 23 24  1  0  0  0  0
 23 25  1  0  0  0  0
 24 26  1  1  0  0  0
 24 25  1  0  0  0  0
 25 20  1  1  0  0  0
 26 30  1  0  0  0  0
 26 27  2  0  0  0  0
 28 30  1  0  0  0  0
 30 29  1  0  0  0  0
 32 34  1  0  0  0  0
 32 31  1  0  0  0  0
 33 34  1  0  0  0  0
 34 35  1  0  0  0  0
 36 33  1  0  0  0  0
 36 34  1  0  0  0  0
 39 40  2  0  0  0  0
 40 37  1  0  0  0  0
 40 38  2  0  0  0  0
 40 41  1  0  0  0  0
 41 42  1  6  0  0  0
 46 50  1  0  0  0  0
 48 51  1  0  0  0  0
 48 44  1  0  0  0  0
 49 45  2  0  0  0  0
 49 43  1  0  0  0  0
 50 44  1  0  0  0  0
 51 47  1  6  0  0  0
 51 43  1  0  0  0  0
 52 41  1  6  0  0  0
 52 46  1  0  0  0  0
 52 49  1  0  0  0  0
M  END
>  <MODEL>
4

>  <REMARK>
 VINA RESULT:       0.4      3.617     10.674
  Name = 
  11 active torsions:
  status: ('A' for Active; 'I' for Inactive)
    1  A    between atoms: S_1  and  C_23
    2  A    between atoms: S_1  and  C_46
    3  A    between atoms: C_3  and  C_47
    4  A    between atoms: C_6  and  C_49
    5  A    between atoms: C_6  and  S_52
    6  A    between atoms: N_9  and  N_15
    7  A    between atoms: N_9  and  C_24
    8  A    between atoms: N_15  and  C_29
    9  A    between atoms: C_17  and  C_34
   10  A    between atoms: C_17  and  C_41
   11  A    between atoms: C_47  and  S_52
                            x       y       z     vdW  Elec       q    Type
                         _______ _______ _______ _____ _____    ______ ____

>  <TORSDO>
F 11

$$$$
=
 OpenBabel11072412493D

 52 56  0  0  1  0  0  0  0  0999 V2000
  160.8100  208.9100  152.8660 C   0  0  0  0  0  0  0  0  0  0  0  0
  161.9890  204.7190  152.1790 C   0  0  0  0  0  0  0  0  0  0  0  0
  161.9800  205.4190  153.5050 C   0  0  0  0  0  2  0  0  0  0  0  0
  160.7840  204.2070  149.9290 C   0  0  1  0  0  3  0  0  0  0  0  0
  161.0560  208.7720  149.8140 C   0  0  0  0  0  3  0  0  0  0  0  0
  161.6340  207.7580  149.1870 C   0  0  0  0  0  3  0  0  0  0  0  0
  161.3380  207.6200  152.7180 O   0  0  0  0  0  0  0  0  0  0  0  0
  161.5450  205.5690  147.9660 C   0  0  1  0  0  3  0  0  0  0  0  0
  160.9670  206.5540  153.5830 C   0  0  0  0  0  2  0  0  0  0  0  0
  161.9740  204.8610  149.2440 C   0  0  0  0  0  2  0  0  0  0  0  0
  160.7740  202.7000  149.6780 C   0  0  1  0  0  3  0  0  0  0  0  0
  161.0570  209.8270  151.9810 N   0  0  0  0  0  0  0  0  0  0  0  0
  161.8490  209.5840  150.7810 C   0  0  0  0  0  2  0  0  0  0  0  0
  160.2850  202.1300  150.8770 O   0  0  0  0  0  0  0  0  0  0  0  0
  160.6910  204.3980  151.4640 C   0  0  1  0  0  3  0  0  0  0  0  0
  160.2220  203.0610  151.8870 C   0  0  0  0  0  0  0  0  0  0  0  0
  159.7950  202.7910  153.0400 O   0  0  0  0  0  0  0  0  0  0  0  0
  160.8410  206.8990  148.2540 C   0  0  0  0  0  2  0  0  0  0  0  0
  163.0530  204.2870  151.7650 O   0  0  0  0  0  0  0  0  0  0  0  0
  162.9470  205.7730  146.8770 S   0  0  0  0  0  0  0  0  0  0  0  0
  162.6980  206.9440  145.9700 O   0  0  0  0  0  0  0  0  0  0  0  0
  164.1760  206.0510  147.6990 O   0  0  0  0  0  0  0  0  0  0  0  0
  162.0840  203.4470  146.0320 O   0  0  0  0  0  0  0  0  0  0  0  0
  162.2040  204.0300  144.7560 C   0  0  2  0  0  3  0  0  0  0  0  0
  163.1810  204.3100  145.8580 C   0  0  1  0  0  3  0  0  0  0  0  0
  161.1080  205.0350  144.5310 C   0  0  0  0  0  0  0  0  0  0  0  0
  161.3070  206.0130  143.8250 O   0  0  0  0  0  0  0  0  0  0  0  0
  158.9790  205.9280  144.9910 F   0  0  0  0  0  0  0  0  0  0  0  0
  159.1390  203.7820  144.2890 F   0  0  0  0  0  0  0  0  0  0  0  0
  159.7340  204.7690  145.0500 C   0  0  0  0  0  3  0  0  0  0  0  0
  159.8810  202.3860  148.5790 N   0  0  0  0  0  2  0  0  0  0  0  0
  159.8110  200.9870  148.4960 N   0  0  0  0  0  2  0  0  0  0  0  0
  161.2690  201.2130  146.4860 C   0  0  0  0  0  2  0  0  0  0  0  0
  161.0010  200.5300  147.7960 C   0  0  0  0  0  0  0  0  0  0  0  0
  162.1280  200.2280  148.5540 O   0  0  0  0  0  1  0  0  0  0  0  0
  160.7970  199.7590  146.5180 C   0  0  0  0  0  2  0  0  0  0  0  0
  159.9440  209.2570  154.0360 C   0  0  0  0  0  2  0  0  0  0  0  0
  161.6140  211.3490  154.1570 O   0  0  0  0  0  0  0  0  0  0  0  0
  161.5390  209.8650  156.1030 O   0  0  0  0  0  0  0  0  0  0  0  0
  160.7170  210.5220  155.0320 S   0  0  0  0  0  0  0  0  0  0  0  0
  159.4650  211.5740  155.7650 C   0  0  2  0  0  3  0  0  0  0  0  0
  159.4330  211.3080  157.2610 C   0  0  0  0  0  1  0  0  0  0  0  0
  156.8200  213.4350  156.0300 N   0  0  0  0  0  2  0  0  0  0  0  0
  157.7470  213.8740  153.5450 O   0  0  0  0  0  0  0  0  0  0  0  0
  155.9760  211.2860  156.2430 O   0  0  0  0  0  0  0  0  0  0  0  0
  157.9670  211.4770  153.6220 C   0  0  0  0  0  2  0  0  0  0  0  0
  158.8040  214.3280  156.9130 O   0  0  0  0  0  1  0  0  0  0  0  0
  158.5530  214.4480  154.5300 C   0  0  0  0  0  2  0  0  0  0  0  0
  156.9250  212.0110  155.8520 C   0  0  0  0  0  0  0  0  0  0  0  0
  158.5070  212.7970  153.0820 C   0  0  0  0  0  2  0  0  0  0  0  0
  157.8600  214.4530  155.8890 C   0  0  1  0  0  3  0  0  0  0  0  0
  158.0730  211.3370  155.1460 C   0  0  2  0  0  3  0  0  0  0  0  0
  1 37  1  0  0  0  0
  2  3  1  0  0  0  0
  3  9  1  0  0  0  0
  4 10  1  1  0  0  0
  4 15  1  0  0  0  0
  5 13  1  0  0  0  0
  6  5  2  0  0  0  0
  7  1  1  0  0  0  0
  7  9  1  0  0  0  0
  8 20  1  6  0  0  0
  8 18  1  0  0  0  0
  8 10  1  0  0  0  0
 11 31  1  6  0  0  0
 11  4  1  0  0  0  0
 11 14  1  0  0  0  0
 12  1  2  0  0  0  0
 13 12  1  0  0  0  0
 14 16  1  0  0  0  0
 15 16  1  1  0  0  0
 15  2  1  0  0  0  0
 16 17  2  0  0  0  0
 18  6  1  0  0  0  0
 19  2  2  0  0  0  0
 20 22  2  0  0  0  0
 21 20  2  0  0  0  0
 24 26  1  1  0  0  0
 24 25  1  0  0  0  0
 24 23  1  0  0  0  0
 25 23  1  0  0  0  0
 25 20  1  1  0  0  0
 26 30  1  0  0  0  0
 27 26  2  0  0  0  0
 28 30  1  0  0  0  0
 29 30  1  0  0  0  0
 32 31  1  0  0  0  0
 33 36  1  0  0  0  0
 33 34  1  0  0  0  0
 34 32  1  0  0  0  0
 34 35  1  0  0  0  0
 36 34  1  0  0  0  0
 37 40  1  0  0  0  0
 38 40  2  0  0  0  0
 40 41  1  0  0  0  0
 40 39  2  0  0  0  0
 41 42  1  1  0  0  0
 44 48  1  0  0  0  0
 46 52  1  0  0  0  0
 48 51  1  0  0  0  0
 49 43  1  0  0  0  0
 49 45  2  0  0  0  0
 50 44  1  0  0  0  0
 50 46  1  0  0  0  0
 51 43  1  0  0  0  0
 51 47  1  1  0  0  0
 52 41  1  1  0  0  0
 52 49  1  0  0  0  0
M  END
>  <MODEL>
5

>  <REMARK>
 VINA RESULT:       0.5      3.311     10.788
  Name = 
  11 active torsions:
  status: ('A' for Active; 'I' for Inactive)
    1  A    between atoms: S_1  and  C_23
    2  A    between atoms: S_1  and  C_46
    3  A    between atoms: C_3  and  C_47
    4  A    between atoms: C_6  and  C_49
    5  A    between atoms: C_6  and  S_52
    6  A    between atoms: N_9  and  N_15
    7  A    between atoms: N_9  and  C_24
    8  A    between atoms: N_15  and  C_29
    9  A    between atoms: C_17  and  C_34
   10  A    between atoms: C_17  and  C_41
   11  A    between atoms: C_47  and  S_52
                            x       y       z     vdW  Elec       q    Type
                         _______ _______ _______ _____ _____    ______ ____

>  <TORSDO>
F 11

$$$$
=
 OpenBabel11072412493D

 52 56  0  0  1  0  0  0  0  0999 V2000
  161.5100  210.8410  151.7110 C   0  0  0  0  0  0  0  0  0  0  0  0
  162.4610  206.6050  152.4670 C   0  0  0  0  0  0  0  0  0  0  0  0
  162.6620  207.7330  153.4350 C   0  0  0  0  0  2  0  0  0  0  0  0
  160.9320  205.4160  150.7290 C   0  0  1  0  0  3  0  0  0  0  0  0
  161.3120  209.5990  148.9170 C   0  0  0  0  0  3  0  0  0  0  0  0
  161.7660  208.3850  148.6380 C   0  0  0  0  0  3  0  0  0  0  0  0
  161.9760  209.5470  151.9820 O   0  0  0  0  0  0  0  0  0  0  0  0
  161.4420  205.9170  148.3250 C   0  0  1  0  0  3  0  0  0  0  0  0
  161.7030  208.8950  153.2160 C   0  0  0  0  0  2  0  0  0  0  0  0
  162.0290  205.6840  149.7100 C   0  0  0  0  0  2  0  0  0  0  0  0
  160.8440  203.9240  151.0500 C   0  0  1  0  0  3  0  0  0  0  0  0
  161.6530  211.3580  150.5280 N   0  0  0  0  0  0  0  0  0  0  0  0
  162.2570  210.6390  149.4130 C   0  0  0  0  0  2  0  0  0  0  0  0
  160.5160  203.8630  152.4250 O   0  0  0  0  0  0  0  0  0  0  0  0
  161.0660  206.1510  152.0860 C   0  0  1  0  0  3  0  0  0  0  0  0
  160.6250  205.0960  153.0240 C   0  0  0  0  0  0  0  0  0  0  0  0
  160.3610  205.2930  154.2390 O   0  0  0  0  0  0  0  0  0  0  0  0
  160.8240  207.3130  148.1900 C   0  0  0  0  0  2  0  0  0  0  0  0
  163.4430  205.9710  152.1120 O   0  0  0  0  0  0  0  0  0  0  0  0
  162.6780  205.6060  147.0730 S   0  0  0  0  0  0  0  0  0  0  0  0
  162.4790  206.5680  145.9370 O   0  0  0  0  0  0  0  0  0  0  0  0
  164.0440  205.8310  147.6610 O   0  0  0  0  0  0  0  0  0  0  0  0
  161.1960  203.5040  146.5720 O   0  0  0  0  0  0  0  0  0  0  0  0
  161.6400  203.6890  145.2480 C   0  0  2  0  0  3  0  0  0  0  0  0
  162.5280  203.9340  146.4310 C   0  0  1  0  0  3  0  0  0  0  0  0
  160.9670  204.8820  144.6280 C   0  0  0  0  0  0  0  0  0  0  0  0
  161.3810  205.3430  143.5750 O   0  0  0  0  0  0  0  0  0  0  0  0
  159.7420  206.8040  145.2190 F   0  0  0  0  0  0  0  0  0  0  0  0
  158.6270  204.9770  144.4830 F   0  0  0  0  0  0  0  0  0  0  0  0
  159.7070  205.4200  145.2220 C   0  0  0  0  0  3  0  0  0  0  0  0
  159.7940  203.3080  150.2620 N   0  0  0  0  0  2  0  0  0  0  0  0
  160.3950  202.8180  149.0930 N   0  0  0  0  0  2  0  0  0  0  0  0
  161.3780  200.5860  149.6080 C   0  0  0  0  0  2  0  0  0  0  0  0
  160.2160  201.3760  149.0790 C   0  0  0  0  0  0  0  0  0  0  0  0
  158.9580  200.8710  149.3940 O   0  0  0  0  0  1  0  0  0  0  0  0
  161.0580  200.5840  148.1120 C   0  0  0  0  0  2  0  0  0  0  0  0
  160.8310  211.6520  152.7700 C   0  0  0  0  0  2  0  0  0  0  0  0
  158.7900  209.9770  152.3090 O   0  0  0  0  0  0  0  0  0  0  0  0
  158.4670  212.3270  151.7010 O   0  0  0  0  0  0  0  0  0  0  0  0
  159.0640  211.3960  152.7170 S   0  0  0  0  0  0  0  0  0  0  0  0
  158.3530  211.6990  154.3340 C   0  0  2  0  0  3  0  0  0  0  0  0
  158.8780  210.6430  155.2930 C   0  0  0  0  0  1  0  0  0  0  0  0
  156.3020  212.1850  156.8000 N   0  0  0  0  0  2  0  0  0  0  0  0
  156.2100  214.4460  155.3480 O   0  0  0  0  0  0  0  0  0  0  0  0
  155.3390  210.4130  155.6560 O   0  0  0  0  0  0  0  0  0  0  0  0
  156.1260  212.8340  153.5610 C   0  0  0  0  0  2  0  0  0  0  0  0
  158.5710  212.5840  157.2510 O   0  0  0  0  0  1  0  0  0  0  0  0
  157.4090  214.3030  156.0490 C   0  0  0  0  0  2  0  0  0  0  0  0
  156.1400  211.3810  155.6180 C   0  0  0  0  0  0  0  0  0  0  0  0
  156.5740  214.2180  154.0190 C   0  0  0  0  0  2  0  0  0  0  0  0
  157.3230  213.1910  157.0890 C   0  0  1  0  0  3  0  0  0  0  0  0
  156.8120  211.6790  154.3030 C   0  0  2  0  0  3  0  0  0  0  0  0
  1  7  1  0  0  0  0
  1 37  1  0  0  0  0
  2  3  1  0  0  0  0
  4 10  1  6  0  0  0
  4 11  1  0  0  0  0
  4 15  1  0  0  0  0
  5 13  1  0  0  0  0
  6  5  2  0  0  0  0
  7  9  1  0  0  0  0
  8 20  1  6  0  0  0
  8 10  1  0  0  0  0
  9  3  1  0  0  0  0
 11 31  1  6  0  0  0
 11 14  1  0  0  0  0
 12  1  2  0  0  0  0
 13 12  1  0  0  0  0
 14 16  1  0  0  0  0
 15  2  1  1  0  0  0
 15 16  1  0  0  0  0
 16 17  2  0  0  0  0
 18  8  1  0  0  0  0
 18  6  1  0  0  0  0
 19  2  2  0  0  0  0
 20 22  2  0  0  0  0
 21 20  2  0  0  0  0
 24 26  1  1  0  0  0
 24 25  1  0  0  0  0
 24 23  1  0  0  0  0
 25 23  1  0  0  0  0
 25 20  1  1  0  0  0
 26 30  1  0  0  0  0
 27 26  2  0  0  0  0
 28 30  1  0  0  0  0
 29 30  1  0  0  0  0
 32 31  1  0  0  0  0
 34 32  1  0  0  0  0
 34 35  1  0  0  0  0
 34 33  1  0  0  0  0
 36 34  1  0  0  0  0
 36 33  1  0  0  0  0
 38 40  2  0  0  0  0
 39 40  2  0  0  0  0
 40 37  1  0  0  0  0
 40 41  1  0  0  0  0
 41 42  1  1  0  0  0
 43 51  1  0  0  0  0
 44 48  1  0  0  0  0
 46 50  1  0  0  0  0
 46 52  1  0  0  0  0
 48 51  1  0  0  0  0
 49 45  2  0  0  0  0
 49 43  1  0  0  0  0
 50 44  1  0  0  0  0
 51 47  1  6  0  0  0
 52 41  1  1  0  0  0
 52 49  1  0  0  0  0
M  END
>  <MODEL>
6

>  <REMARK>
 VINA RESULT:       0.6      3.260     10.518
  Name = 
  11 active torsions:
  status: ('A' for Active; 'I' for Inactive)
    1  A    between atoms: S_1  and  C_23
    2  A    between atoms: S_1  and  C_46
    3  A    between atoms: C_3  and  C_47
    4  A    between atoms: C_6  and  C_49
    5  A    between atoms: C_6  and  S_52
    6  A    between atoms: N_9  and  N_15
    7  A    between atoms: N_9  and  C_24
    8  A    between atoms: N_15  and  C_29
    9  A    between atoms: C_17  and  C_34
   10  A    between atoms: C_17  and  C_41
   11  A    between atoms: C_47  and  S_52
                            x       y       z     vdW  Elec       q    Type
                         _______ _______ _______ _____ _____    ______ ____

>  <TORSDO>
F 11

$$$$
