=
 OpenBabel11072413243D

 44 47  0  0  1  0  0  0  0  0999 V2000
  159.5260  214.3760  156.0870 N   0  0  0  0  0  0  0  0  0  0  0  0
  160.0050  213.0750  150.3650 C   0  0  2  0  0  3  0  0  0  0  0  0
  159.7830  209.3850  155.5120 O   0  0  0  0  0  0  0  0  0  0  0  0
  160.3480  208.1040  155.4070 C   0  0  2  0  0  3  0  0  0  0  0  0
  158.6790  214.2200  153.8860 N   0  0  0  0  0  0  0  0  0  0  0  0
  160.1220  211.6570  156.0910 C   0  0  2  0  0  3  0  0  0  0  0  0
  160.7740  210.3060  155.9400 C   0  0  2  0  0  3  0  0  0  0  0  0
  160.6890  207.8250  153.9420 C   0  0  0  0  0  2  0  0  0  0  0  0
  159.1750  213.6250  155.0090 C   0  0  0  0  0  0  0  0  0  0  0  0
  160.2290  211.6030  150.0380 C   0  0  0  0  0  2  0  0  0  0  0  0
  161.9170  210.5470  154.9090 C   0  0  0  0  0  2  0  0  0  0  0  0
  158.3350  213.4920  152.7860 C   0  0  0  0  0  0  0  0  0  0  0  0
  161.1970  210.9970  151.0420 C   0  0  0  0  0  2  0  0  0  0  0  0
  161.2010  209.4770  150.9270 C   0  0  0  0  0  2  0  0  0  0  0  0
  161.5090  208.9930  153.3990 C   0  0  1  0  0  3  0  0  0  0  0  0
  159.4010  212.2340  155.0220 C   0  0  1  0  0  3  0  0  0  0  0  0
  160.1450  213.8240  157.1660 C   0  0  0  0  0  3  0  0  0  0  0  0
  157.9840  214.1860  151.5010 C   0  0  0  0  0  2  0  0  0  0  0  0
  162.4590  209.3860  154.3450 O   0  0  0  0  0  0  0  0  0  0  0  0
  158.9600  211.4760  153.9340 C   0  0  0  0  0  3  0  0  0  0  0  0
  158.4080  212.0960  152.8270 C   0  0  0  0  0  3  0  0  0  0  0  0
  158.5060  213.4300  150.2670 C   0  0  1  0  0  3  0  0  0  0  0  0
  160.4820  212.4660  157.1730 C   0  0  0  0  0  3  0  0  0  0  0  0
  162.1110  208.8610  151.9890 C   0  0  1  0  0  3  0  0  0  0  0  0
  159.0650  214.3600  148.0080 O   0  0  0  0  0  0  0  0  0  0  0  0
  158.1170  214.1150  148.9950 C   0  0  0  0  0  0  0  0  0  0  0  0
  156.9210  214.4530  148.8090 O   0  0  0  0  0  1  0  0  0  0  0  0
  159.6740  206.7080  157.2160 O   0  0  0  0  0  1  0  0  0  0  0  0
  159.3630  207.0640  155.9030 C   0  0  0  0  0  2  0  0  0  0  0  0
  162.6110  207.4660  151.5790 C   0  0  2  0  0  3  0  0  0  0  0  0
  160.6810  207.1490  149.3000 C   0  0  0  0  0  1  0  0  0  0  0  0
  163.0490  207.4460  150.1880 N   0  0  0  0  0  2  0  0  0  0  0  0
  162.1460  207.3310  149.0860 C   0  0  0  0  0  0  0  0  0  0  0  0
  162.5950  207.3750  147.9110 O   0  0  0  0  0  0  0  0  0  0  0  0
  161.5610  206.3890  151.8200 C   0  0  0  0  0  2  0  0  0  0  0  0
  162.1640  205.0070  151.6420 C   0  0  0  0  0  2  0  0  0  0  0  0
  161.1160  203.9460  151.9170 C   0  0  0  0  0  2  0  0  0  0  0  0
  160.2510  203.8160  150.7960 O   0  0  0  0  0  0  0  0  0  0  0  0
  161.0830  203.5250  148.6810 O   0  0  0  0  0  0  0  0  0  0  0  0
  160.2920  201.5390  149.7160 C   0  0  0  0  0  1  0  0  0  0  0  0
  160.5610  203.0070  149.7030 C   0  0  0  0  0  0  0  0  0  0  0  0
  160.8140  213.8930  149.5690 O   0  0  0  0  0  0  0  0  0  0  0  0
  161.1460  213.1030  148.4670 C   0  0  0  0  0  2  0  0  0  0  0  0
  162.6020  213.3200  148.1100 C   0  0  0  0  0  1  0  0  0  0  0  0
  1 17  1  0  0  0  0
  2 42  1  6  0  0  0
  3  7  1  0  0  0  0
  4  3  1  0  0  0  0
  4 29  1  6  0  0  0
  5  9  1  0  0  0  0
  6 23  1  6  0  0  0
  7 11  1  6  0  0  0
  7  6  1  0  0  0  0
  8  4  1  0  0  0  0
  9 16  1  0  0  0  0
  9  1  2  0  0  0  0
 10  2  1  0  0  0  0
 10 13  1  0  0  0  0
 12 21  1  0  0  0  0
 12  5  2  0  0  0  0
 14 13  1  0  0  0  0
 14 24  1  0  0  0  0
 15  8  1  1  0  0  0
 15 19  1  0  0  0  0
 16 20  1  6  0  0  0
 16  6  1  0  0  0  0
 17 23  2  0  0  0  0
 18 12  1  0  0  0  0
 19 11  1  0  0  0  0
 21 20  2  0  0  0  0
 22 26  1  6  0  0  0
 22  2  1  0  0  0  0
 22 18  1  0  0  0  0
 24 30  1  6  0  0  0
 24 15  1  0  0  0  0
 25 26  2  0  0  0  0
 27 26  1  0  0  0  0
 29 28  1  0  0  0  0
 30 35  1  6  0  0  0
 32 30  1  0  0  0  0
 33 31  1  0  0  0  0
 33 32  1  0  0  0  0
 34 33  2  0  0  0  0
 36 35  1  0  0  0  0
 36 37  1  0  0  0  0
 38 37  1  0  0  0  0
 39 41  2  0  0  0  0
 41 40  1  0  0  0  0
 41 38  1  0  0  0  0
 43 42  1  0  0  0  0
 44 43  1  0  0  0  0
M  END
>  <MODEL>
1

>  <REMARK>
 VINA RESULT:      -4.9      0.000      0.000
  Name = 
  11 active torsions:
  status: ('A' for Active; 'I' for Inactive)
    1  A    between atoms: C_3  and  O_9
    2  A    between atoms: C_5  and  C_26
    3  A    between atoms: C_6  and  C_22
    4  A    between atoms: C_6  and  N_36
    5  A    between atoms: C_6  and  C_41
    6  A    between atoms: O_9  and  C_40
    7  A    between atoms: C_10  and  C_22
    8  A    between atoms: C_10  and  C_34
    9  A    between atoms: O_27  and  C_31
   10  A    between atoms: O_27  and  C_34
   11  A    between atoms: C_28  and  C_38
                            x       y       z     vdW  Elec       q    Type
                         _______ _______ _______ _____ _____    ______ ____

>  <TORSDO>
F 11

$$$$
=
 OpenBabel11072413243D

 44 47  0  0  1  0  0  0  0  0999 V2000
  160.7100  208.6640  156.5580 N   0  0  0  0  0  0  0  0  0  0  0  0
  157.9450  213.1920  154.0070 C   0  0  2  0  0  3  0  0  0  0  0  0
  161.1240  208.2870  151.5580 O   0  0  0  0  0  0  0  0  0  0  0  0
  161.6580  208.4490  150.2710 C   0  0  2  0  0  3  0  0  0  0  0  0
  158.7740  209.8700  155.9420 N   0  0  0  0  0  0  0  0  0  0  0  0
  161.4880  208.4750  153.8910 C   0  0  2  0  0  3  0  0  0  0  0  0
  162.0740  208.7100  152.5220 C   0  0  2  0  0  3  0  0  0  0  0  0
  161.1210  209.7460  149.6630 C   0  0  0  0  0  2  0  0  0  0  0  0
  159.8860  209.1600  155.5970 C   0  0  0  0  0  0  0  0  0  0  0  0
  158.0960  213.2910  152.4930 C   0  0  0  0  0  2  0  0  0  0  0  0
  162.3820  210.2370  152.4960 C   0  0  0  0  0  2  0  0  0  0  0  0
  157.9400  210.3910  154.9980 C   0  0  0  0  0  0  0  0  0  0  0  0
  159.5230  212.9480  152.0970 C   0  0  0  0  0  2  0  0  0  0  0  0
  159.6240  212.7430  150.5910 C   0  0  0  0  0  2  0  0  0  0  0  0
  161.3480  210.8820  150.6580 C   0  0  1  0  0  3  0  0  0  0  0  0
  160.2260  209.0070  154.2380 C   0  0  1  0  0  3  0  0  0  0  0  0
  161.8930  208.0670  156.2410 C   0  0  0  0  0  3  0  0  0  0  0  0
  156.8410  211.3330  155.4000 C   0  0  0  0  0  2  0  0  0  0  0  0
  162.6210  210.7710  151.2250 O   0  0  0  0  0  0  0  0  0  0  0  0
  159.3240  209.4580  153.2700 C   0  0  0  0  0  3  0  0  0  0  0  0
  158.1720  210.1280  153.6450 C   0  0  0  0  0  3  0  0  0  0  0  0
  156.6350  212.4620  154.3740 C   0  0  1  0  0  3  0  0  0  0  0  0
  162.3160  207.9930  154.9090 C   0  0  0  0  0  3  0  0  0  0  0  0
  161.0390  212.3180  150.2000 C   0  0  1  0  0  3  0  0  0  0  0  0
  155.2200  213.5830  156.1120 O   0  0  0  0  0  1  0  0  0  0  0  0
  155.5140  213.3700  154.7700 C   0  0  0  0  0  0  0  0  0  0  0  0
  154.8460  213.9600  153.8840 O   0  0  0  0  0  0  0  0  0  0  0  0
  161.2960  207.6570  148.0530 O   0  0  0  0  0  1  0  0  0  0  0  0
  161.2560  207.2770  149.3950 C   0  0  0  0  0  2  0  0  0  0  0  0
  161.3580  212.6590  148.7350 C   0  0  2  0  0  3  0  0  0  0  0  0
  159.2840  214.4020  147.4390 C   0  0  0  0  0  1  0  0  0  0  0  0
  160.3460  212.1220  147.8320 N   0  0  0  0  0  2  0  0  0  0  0  0
  159.3710  212.9360  147.1770 C   0  0  0  0  0  0  0  0  0  0  0  0
  158.5640  212.4070  146.3700 O   0  0  0  0  0  0  0  0  0  0  0  0
  162.7440  212.1780  148.3250 C   0  0  0  0  0  2  0  0  0  0  0  0
  163.5620  213.3260  147.7610 C   0  0  0  0  0  2  0  0  0  0  0  0
  162.8770  213.8980  146.5350 C   0  0  0  0  0  2  0  0  0  0  0  0
  163.3270  213.2210  145.3690 O   0  0  0  0  0  0  0  0  0  0  0  0
  163.0480  213.6290  143.1310 O   0  0  0  0  0  0  0  0  0  0  0  0
  161.2030  212.5630  144.1800 C   0  0  0  0  0  1  0  0  0  0  0  0
  162.5690  213.1650  144.1990 C   0  0  0  0  0  0  0  0  0  0  0  0
  158.0550  214.4510  154.6050 O   0  0  0  0  0  0  0  0  0  0  0  0
  159.2980  214.4380  155.2390 C   0  0  0  0  0  2  0  0  0  0  0  0
  159.2220  213.5770  156.4830 C   0  0  0  0  0  1  0  0  0  0  0  0
  2 22  1  0  0  0  0
  2 42  1  1  0  0  0
  3  7  1  0  0  0  0
  4 29  1  6  0  0  0
  4  3  1  0  0  0  0
  6 16  1  0  0  0  0
  6 23  1  1  0  0  0
  7 11  1  6  0  0  0
  7  6  1  0  0  0  0
  8  4  1  0  0  0  0
  9  5  1  0  0  0  0
  9  1  2  0  0  0  0
 10  2  1  0  0  0  0
 12 18  1  0  0  0  0
 12  5  2  0  0  0  0
 13 10  1  0  0  0  0
 14 13  1  0  0  0  0
 15  8  1  6  0  0  0
 15 19  1  0  0  0  0
 16 20  1  6  0  0  0
 16  9  1  0  0  0  0
 17  1  1  0  0  0  0
 19 11  1  0  0  0  0
 20 21  2  0  0  0  0
 21 12  1  0  0  0  0
 22 26  1  1  0  0  0
 22 18  1  0  0  0  0
 23 17  2  0  0  0  0
 24 30  1  6  0  0  0
 24 14  1  0  0  0  0
 24 15  1  0  0  0  0
 26 25  1  0  0  0  0
 27 26  2  0  0  0  0
 28 29  1  0  0  0  0
 30 35  1  6  0  0  0
 32 30  1  0  0  0  0
 33 31  1  0  0  0  0
 33 32  1  0  0  0  0
 34 33  2  0  0  0  0
 36 35  1  0  0  0  0
 37 36  1  0  0  0  0
 38 37  1  0  0  0  0
 39 41  2  0  0  0  0
 40 41  1  0  0  0  0
 41 38  1  0  0  0  0
 42 43  1  0  0  0  0
 43 44  1  0  0  0  0
M  END
>  <MODEL>
2

>  <REMARK>
 VINA RESULT:      -3.1      2.980      6.590
  Name = 
  11 active torsions:
  status: ('A' for Active; 'I' for Inactive)
    1  A    between atoms: C_3  and  O_9
    2  A    between atoms: C_5  and  C_26
    3  A    between atoms: C_6  and  C_22
    4  A    between atoms: C_6  and  N_36
    5  A    between atoms: C_6  and  C_41
    6  A    between atoms: O_9  and  C_40
    7  A    between atoms: C_10  and  C_22
    8  A    between atoms: C_10  and  C_34
    9  A    between atoms: O_27  and  C_31
   10  A    between atoms: O_27  and  C_34
   11  A    between atoms: C_28  and  C_38
                            x       y       z     vdW  Elec       q    Type
                         _______ _______ _______ _____ _____    ______ ____

>  <TORSDO>
F 11

$$$$
=
 OpenBabel11072413243D

 44 47  0  0  1  0  0  0  0  0999 V2000
  161.8350  210.3410  155.6350 N   0  0  0  0  0  0  0  0  0  0  0  0
  161.4700  211.5530  149.8850 C   0  0  2  0  0  3  0  0  0  0  0  0
  160.4450  206.2060  153.1290 O   0  0  0  0  0  0  0  0  0  0  0  0
  160.5630  204.9980  152.4250 C   0  0  2  0  0  3  0  0  0  0  0  0
  160.8300  211.3730  153.7620 N   0  0  0  0  0  0  0  0  0  0  0  0
  161.5310  207.8330  154.4660 C   0  0  2  0  0  3  0  0  0  0  0  0
  161.7050  206.5610  153.6750 C   0  0  2  0  0  3  0  0  0  0  0  0
  160.6930  205.2970  150.9310 C   0  0  0  0  0  2  0  0  0  0  0  0
  161.1880  210.2470  154.4430 C   0  0  0  0  0  0  0  0  0  0  0  0
  161.1890  210.3630  148.9750 C   0  0  0  0  0  2  0  0  0  0  0  0
  162.7900  206.9160  152.6160 C   0  0  0  0  0  2  0  0  0  0  0  0
  160.1950  211.3060  152.5570 C   0  0  0  0  0  0  0  0  0  0  0  0
  161.9810  209.1550  149.4520 C   0  0  0  0  0  2  0  0  0  0  0  0
  161.4920  207.8900  148.7580 C   0  0  0  0  0  2  0  0  0  0  0  0
  161.8030  206.3280  150.7330 C   0  0  1  0  0  3  0  0  0  0  0  0
  160.9580  208.9800  153.8700 C   0  0  1  0  0  3  0  0  0  0  0  0
  162.3190  209.2380  156.2700 C   0  0  0  0  0  3  0  0  0  0  0  0
  159.9940  212.5500  151.7400 C   0  0  0  0  0  2  0  0  0  0  0  0
  162.8930  206.0140  151.5500 O   0  0  0  0  0  0  0  0  0  0  0  0
  160.2240  208.9070  152.6840 C   0  0  0  0  0  3  0  0  0  0  0  0
  159.8220  210.0630  152.0380 C   0  0  0  0  0  3  0  0  0  0  0  0
  160.1600  212.2920  150.2320 C   0  0  1  0  0  3  0  0  0  0  0  0
  162.2050  207.9740  155.6820 C   0  0  0  0  0  3  0  0  0  0  0  0
  162.2310  206.6640  149.2940 C   0  0  1  0  0  3  0  0  0  0  0  0
  160.9440  214.4530  149.2350 O   0  0  0  0  0  1  0  0  0  0  0  0
  159.9220  213.5320  149.4300 C   0  0  0  0  0  0  0  0  0  0  0  0
  158.7940  213.7320  148.9120 O   0  0  0  0  0  0  0  0  0  0  0  0
  159.6320  202.8050  152.3920 O   0  0  0  0  0  1  0  0  0  0  0  0
  159.3340  204.1410  152.6630 C   0  0  0  0  0  2  0  0  0  0  0  0
  162.2290  205.5040  148.2850 C   0  0  2  0  0  3  0  0  0  0  0  0
  163.5110  204.4520  145.7810 C   0  0  0  0  0  1  0  0  0  0  0  0
  161.8260  205.9550  146.9580 N   0  0  0  0  0  2  0  0  0  0  0  0
  162.3980  205.4440  145.7510 C   0  0  0  0  0  0  0  0  0  0  0  0
  161.9600  205.8440  144.6410 O   0  0  0  0  0  0  0  0  0  0  0  0
  161.3480  204.3490  148.7420 C   0  0  0  0  0  2  0  0  0  0  0  0
  161.9180  203.0240  148.2710 C   0  0  0  0  0  2  0  0  0  0  0  0
  160.8330  201.9640  148.2680 C   0  0  0  0  0  2  0  0  0  0  0  0
  161.2520  200.8420  147.5020 O   0  0  0  0  0  0  0  0  0  0  0  0
  161.0410  199.5420  145.6270 O   0  0  0  0  0  0  0  0  0  0  0  0
  160.2890  201.7800  145.3700 C   0  0  0  0  0  1  0  0  0  0  0  0
  160.8790  200.6670  146.1690 C   0  0  0  0  0  0  0  0  0  0  0  0
  162.4400  212.3920  149.3270 O   0  0  0  0  0  0  0  0  0  0  0  0
  162.6790  211.8650  148.0560 C   0  0  0  0  0  2  0  0  0  0  0  0
  163.1800  212.9630  147.1400 C   0  0  0  0  0  1  0  0  0  0  0  0
  1 17  1  0  0  0  0
  2 42  1  6  0  0  0
  2 22  1  0  0  0  0
  3  7  1  0  0  0  0
  4 29  1  6  0  0  0
  4  3  1  0  0  0  0
  5  9  1  0  0  0  0
  6 23  1  6  0  0  0
  7 11  1  6  0  0  0
  7  6  1  0  0  0  0
  8  4  1  0  0  0  0
  9  1  2  0  0  0  0
 10 13  1  0  0  0  0
 10  2  1  0  0  0  0
 12  5  2  0  0  0  0
 14 24  1  0  0  0  0
 14 13  1  0  0  0  0
 15  8  1  6  0  0  0
 15 19  1  0  0  0  0
 16 20  1  6  0  0  0
 16  9  1  0  0  0  0
 16  6  1  0  0  0  0
 18 12  1  0  0  0  0
 19 11  1  0  0  0  0
 21 12  1  0  0  0  0
 21 20  2  0  0  0  0
 22 26  1  6  0  0  0
 22 18  1  0  0  0  0
 23 17  2  0  0  0  0
 24 30  1  6  0  0  0
 24 15  1  0  0  0  0
 25 26  1  0  0  0  0
 27 26  2  0  0  0  0
 28 29  1  0  0  0  0
 30 35  1  1  0  0  0
 32 30  1  0  0  0  0
 33 31  1  0  0  0  0
 33 32  1  0  0  0  0
 34 33  2  0  0  0  0
 36 35  1  0  0  0  0
 37 36  1  0  0  0  0
 38 37  1  0  0  0  0
 39 41  2  0  0  0  0
 40 41  1  0  0  0  0
 41 38  1  0  0  0  0
 43 42  1  0  0  0  0
 44 43  1  0  0  0  0
M  END
>  <MODEL>
3

>  <REMARK>
 VINA RESULT:      -2.5      2.436      3.765
  Name = 
  11 active torsions:
  status: ('A' for Active; 'I' for Inactive)
    1  A    between atoms: C_3  and  O_9
    2  A    between atoms: C_5  and  C_26
    3  A    between atoms: C_6  and  C_22
    4  A    between atoms: C_6  and  N_36
    5  A    between atoms: C_6  and  C_41
    6  A    between atoms: O_9  and  C_40
    7  A    between atoms: C_10  and  C_22
    8  A    between atoms: C_10  and  C_34
    9  A    between atoms: O_27  and  C_31
   10  A    between atoms: O_27  and  C_34
   11  A    between atoms: C_28  and  C_38
                            x       y       z     vdW  Elec       q    Type
                         _______ _______ _______ _____ _____    ______ ____

>  <TORSDO>
F 11

$$$$
=
 OpenBabel11072413243D

 44 47  0  0  1  0  0  0  0  0999 V2000
  160.8920  208.9450  157.2580 N   0  0  0  0  0  0  0  0  0  0  0  0
  157.6920  213.1630  154.6850 C   0  0  2  0  0  3  0  0  0  0  0  0
  161.0690  208.3790  152.2630 O   0  0  0  0  0  0  0  0  0  0  0  0
  161.5230  208.5200  150.9420 C   0  0  2  0  0  3  0  0  0  0  0  0
  158.8470  209.9910  156.7020 N   0  0  0  0  0  0  0  0  0  0  0  0
  161.5410  208.6920  154.5630 C   0  0  2  0  0  3  0  0  0  0  0  0
  162.0370  208.9070  153.1550 C   0  0  2  0  0  3  0  0  0  0  0  0
  160.8670  209.7520  150.3140 C   0  0  0  0  0  2  0  0  0  0  0  0
  159.9870  209.3420  156.3250 C   0  0  0  0  0  0  0  0  0  0  0  0
  157.7560  213.2060  153.1630 C   0  0  0  0  0  2  0  0  0  0  0  0
  162.2370  210.4480  153.0520 C   0  0  0  0  0  2  0  0  0  0  0  0
  157.9310  210.4140  155.7850 C   0  0  0  0  0  0  0  0  0  0  0  0
  159.1810  212.9420  152.7030 C   0  0  0  0  0  2  0  0  0  0  0  0
  159.2170  212.6790  151.2020 C   0  0  0  0  0  2  0  0  0  0  0  0
  161.0670  210.9430  151.2490 C   0  0  1  0  0  3  0  0  0  0  0  0
  160.2650  209.1540  154.9560 C   0  0  1  0  0  3  0  0  0  0  0  0
  162.0950  208.4150  156.9010 C   0  0  0  0  0  3  0  0  0  0  0  0
  156.7930  211.2970  156.2090 C   0  0  0  0  0  2  0  0  0  0  0  0
  162.3720  210.9410  151.7490 O   0  0  0  0  0  0  0  0  0  0  0  0
  159.2850  209.5010  154.0230 C   0  0  0  0  0  3  0  0  0  0  0  0
  158.1110  210.1080  154.4330 C   0  0  0  0  0  3  0  0  0  0  0  0
  156.4560  212.3640  155.1520 C   0  0  1  0  0  3  0  0  0  0  0  0
  162.4520  208.3120  155.5520 C   0  0  0  0  0  3  0  0  0  0  0  0
  160.6360  212.3330  150.7520 C   0  0  1  0  0  3  0  0  0  0  0  0
  154.7890  213.1200  156.8630 O   0  0  0  0  0  1  0  0  0  0  0  0
  155.2980  213.2120  155.5730 C   0  0  0  0  0  0  0  0  0  0  0  0
  154.7940  214.0270  154.7600 O   0  0  0  0  0  0  0  0  0  0  0  0
  161.8880  207.2680  148.9480 O   0  0  0  0  0  1  0  0  0  0  0  0
  161.1580  207.2880  150.1370 C   0  0  0  0  0  2  0  0  0  0  0  0
  160.8540  212.6310  149.2590 C   0  0  2  0  0  3  0  0  0  0  0  0
  162.7890  210.7670  147.9160 C   0  0  0  0  0  1  0  0  0  0  0  0
  162.2370  213.0090  148.9890 N   0  0  0  0  0  2  0  0  0  0  0  0
  163.1660  212.1510  148.3210 C   0  0  0  0  0  0  0  0  0  0  0  0
  164.3270  212.5690  148.0760 O   0  0  0  0  0  0  0  0  0  0  0  0
  159.9020  213.7020  148.7440 C   0  0  0  0  0  2  0  0  0  0  0  0
  158.8860  213.0990  147.7910 C   0  0  0  0  0  2  0  0  0  0  0  0
  159.5900  212.2400  146.7590 C   0  0  0  0  0  2  0  0  0  0  0  0
  159.4610  212.8260  145.4700 O   0  0  0  0  0  0  0  0  0  0  0  0
  161.7080  213.2050  145.2330 O   0  0  0  0  0  0  0  0  0  0  0  0
  160.4280  213.5820  143.2680 C   0  0  0  0  0  1  0  0  0  0  0  0
  160.5660  213.1970  144.7030 C   0  0  0  0  0  0  0  0  0  0  0  0
  157.7450  214.4520  155.2250 O   0  0  0  0  0  0  0  0  0  0  0  0
  158.3160  214.2860  156.4880 C   0  0  0  0  0  2  0  0  0  0  0  0
  159.6960  213.6780  156.3440 C   0  0  0  0  0  1  0  0  0  0  0  0
  2 22  1  0  0  0  0
  2 42  1  1  0  0  0
  3  7  1  0  0  0  0
  4 29  1  6  0  0  0
  4  3  1  0  0  0  0
  6 16  1  0  0  0  0
  6 23  1  1  0  0  0
  7 11  1  6  0  0  0
  7  6  1  0  0  0  0
  8  4  1  0  0  0  0
  9  5  1  0  0  0  0
  9  1  2  0  0  0  0
 10  2  1  0  0  0  0
 12 18  1  0  0  0  0
 12  5  2  0  0  0  0
 13 10  1  0  0  0  0
 14 13  1  0  0  0  0
 15  8  1  6  0  0  0
 15 19  1  0  0  0  0
 16 20  1  6  0  0  0
 16  9  1  0  0  0  0
 17  1  1  0  0  0  0
 19 11  1  0  0  0  0
 20 21  2  0  0  0  0
 21 12  1  0  0  0  0
 22 26  1  1  0  0  0
 22 18  1  0  0  0  0
 23 17  2  0  0  0  0
 24 30  1  6  0  0  0
 24 14  1  0  0  0  0
 24 15  1  0  0  0  0
 26 25  1  0  0  0  0
 27 26  2  0  0  0  0
 28 29  1  0  0  0  0
 30 35  1  1  0  0  0
 31 33  1  0  0  0  0
 32 30  1  0  0  0  0
 33 32  1  0  0  0  0
 34 33  2  0  0  0  0
 36 35  1  0  0  0  0
 37 36  1  0  0  0  0
 38 37  1  0  0  0  0
 40 41  1  0  0  0  0
 41 39  2  0  0  0  0
 41 38  1  0  0  0  0
 42 43  1  0  0  0  0
 44 43  1  0  0  0  0
M  END
>  <MODEL>
4

>  <REMARK>
 VINA RESULT:      -2.3      2.997      6.464
  Name = 
  11 active torsions:
  status: ('A' for Active; 'I' for Inactive)
    1  A    between atoms: C_3  and  O_9
    2  A    between atoms: C_5  and  C_26
    3  A    between atoms: C_6  and  C_22
    4  A    between atoms: C_6  and  N_36
    5  A    between atoms: C_6  and  C_41
    6  A    between atoms: O_9  and  C_40
    7  A    between atoms: C_10  and  C_22
    8  A    between atoms: C_10  and  C_34
    9  A    between atoms: O_27  and  C_31
   10  A    between atoms: O_27  and  C_34
   11  A    between atoms: C_28  and  C_38
                            x       y       z     vdW  Elec       q    Type
                         _______ _______ _______ _____ _____    ______ ____

>  <TORSDO>
F 11

$$$$
