=
 OpenBabel11072410513D

 40 47  0  0  1  0  0  0  0  0999 V2000
  159.4600  210.9000  155.7820 C   0  0  0  0  0  3  0  0  0  0  0  0
  163.0920  207.1560  151.0990 C   0  0  0  0  0  1  0  0  0  0  0  0
  160.7660  207.3010  152.1060 C   0  0  1  0  0  3  0  0  0  0  0  0
  159.6500  208.8300  153.6910 C   0  0  0  0  0  2  0  0  0  0  0  0
  161.6020  207.4080  150.8320 C   0  0  1  0  0  0  0  0  0  0  0  0
  160.8190  209.6390  151.5960 C   0  0  0  0  0  2  0  0  0  0  0  0
  159.7050  207.8730  154.9080 C   0  0  1  0  0  3  0  0  0  0  0  0
  160.8190  206.8610  154.7730 C   0  0  2  0  0  3  0  0  0  0  0  0
  161.6890  206.9090  155.7170 N   0  0  0  0  0  2  0  0  0  0  0  0
  161.4450  210.1380  157.2600 C   0  0  1  0  0  3  0  0  0  0  0  0
  160.1650  208.5440  156.1730 C   0  0  2  0  0  3  0  0  0  0  0  0
  159.9030  212.1670  155.7460 C   0  0  0  0  0  0  0  0  0  0  0  0
  162.0840  211.4070  156.7700 C   0  0  0  0  0  0  0  0  0  0  0  0
  161.1240  205.9190  153.2670 S   0  0  0  0  0  0  0  0  0  0  0  0
  160.2310  209.8410  156.4510 C   0  0  2  0  0  3  0  0  0  0  0  0
  161.3520  208.8640  150.3970 C   0  0  1  0  0  3  0  0  0  0  0  0
  161.2900  207.8030  156.7680 C   0  0  2  0  0  3  0  0  0  0  0  0
  160.8370  208.6650  152.7490 C   0  0  2  0  0  3  0  0  0  0  0  0
  162.4900  209.4860  149.8730 O   0  0  0  0  0  1  0  0  0  0  0  0
  162.3140  208.8950  157.0410 C   0  0  0  0  0  2  0  0  0  0  0  0
  161.2110  212.5740  156.3860 C   0  0  0  0  0  2  0  0  0  0  0  0
  163.2970  211.5450  156.7910 O   0  0  0  0  0  0  0  0  0  0  0  0
  158.9310  213.2010  153.7100 C   0  0  0  0  0  1  0  0  0  0  0  0
  159.1560  213.1680  155.1140 O   0  0  0  0  0  0  0  0  0  0  0  0
  161.0890  206.5550  149.8010 O   0  0  0  0  0  0  0  0  0  0  0  0
  161.1470  204.4430  148.5670 C   0  0  0  0  0  0  0  0  0  0  0  0
  161.0890  203.0400  148.6260 C   0  0  0  0  0  0  0  0  0  0  0  0
  161.0190  205.1500  149.8000 C   0  0  0  0  0  0  0  0  0  0  0  0
  161.0730  200.9130  148.0180 N   0  0  0  0  0  0  0  0  0  0  0  0
  160.7720  199.9960  150.1930 O   0  0  0  0  0  0  0  0  0  0  0  0
  160.7930  203.0290  151.0290 C   0  0  0  0  0  3  0  0  0  0  0  0
  160.9060  200.9880  149.4310 C   0  0  0  0  0  0  0  0  0  0  0  0
  160.9180  202.3780  149.8120 C   0  0  0  0  0  0  0  0  0  0  0  0
  160.8490  204.4290  151.0090 C   0  0  0  0  0  3  0  0  0  0  0  0
  161.1780  202.0970  147.5530 N   0  0  0  0  0  0  0  0  0  0  0  0
  160.4000  205.8440  146.7020 N   0  0  0  0  0  0  0  0  0  0  0  0
  160.9080  206.3900  145.4540 C   0  0  0  0  0  3  0  0  0  0  0  0
  162.5470  205.1480  146.4720 C   0  0  0  0  0  3  0  0  0  0  0  0
  162.3100  205.8800  145.3960 C   0  0  0  0  0  3  0  0  0  0  0  0
  161.3280  205.1480  147.2680 C   0  0  2  0  0  3  0  0  0  0  0  0
  1 15  1  0  0  0  0
  3 18  1  0  0  0  0
  3 14  1  1  0  0  0
  5  2  1  1  0  0  0
  5  3  1  0  0  0  0
  6 18  1  0  0  0  0
  7  4  1  6  0  0  0
  7 11  1  0  0  0  0
  8 14  1  6  0  0  0
  8  7  1  0  0  0  0
  8  9  1  0  0  0  0
  9 17  1  0  0  0  0
 10 20  1  6  0  0  0
 11 15  1  0  0  0  0
 11 17  1  0  0  0  0
 12  1  2  0  0  0  0
 12 21  1  0  0  0  0
 13 22  2  0  0  0  0
 13 10  1  0  0  0  0
 15 10  1  0  0  0  0
 16  5  1  0  0  0  0
 16  6  1  0  0  0  0
 17 20  1  0  0  0  0
 18  4  1  0  0  0  0
 19 16  1  0  0  0  0
 21 13  1  0  0  0  0
 23 24  1  0  0  0  0
 24 12  1  0  0  0  0
 25  5  1  0  0  0  0
 26 27  2  0  0  0  0
 26 28  1  0  0  0  0
 27 33  1  0  0  0  0
 28 25  1  0  0  0  0
 28 34  2  0  0  0  0
 29 32  1  0  0  0  0
 32 33  1  0  0  0  0
 32 30  2  0  0  0  0
 33 31  2  0  0  0  0
 34 31  1  0  0  0  0
 35 29  2  0  0  0  0
 35 27  1  0  0  0  0
 36 40  1  0  0  0  0
 37 36  2  0  0  0  0
 38 40  1  0  0  0  0
 39 37  1  0  0  0  0
 39 38  2  0  0  0  0
 40 26  1  0  0  0  0
M  END
>  <MODEL>
1

>  <REMARK>
 VINA RESULT:      -6.9      0.000      0.000
  Name = 
  4 active torsions:
  status: ('A' for Active; 'I' for Inactive)
    1  A    between atoms: C_3  and  C_34
    2  A    between atoms: C_8  and  O_16
    3  A    between atoms: C_12  and  O_16
    4  A    between atoms: C_20  and  O_22
                            x       y       z     vdW  Elec       q    Type
                         _______ _______ _______ _____ _____    ______ ____

>  <TORSDO>
F 4

$$$$
=
 OpenBabel11072410513D

 40 47  0  0  1  0  0  0  0  0999 V2000
  159.4690  210.8170  155.7780 C   0  0  0  0  0  3  0  0  0  0  0  0
  163.0190  206.5760  151.4720 C   0  0  0  0  0  1  0  0  0  0  0  0
  160.7300  206.8000  152.5470 C   0  0  1  0  0  3  0  0  0  0  0  0
  159.6340  208.4980  153.9650 C   0  0  0  0  0  2  0  0  0  0  0  0
  161.5140  206.7580  151.2360 C   0  0  1  0  0  0  0  0  0  0  0  0
  160.7020  209.0530  151.7380 C   0  0  0  0  0  2  0  0  0  0  0  0
  159.7610  207.7090  155.2920 C   0  0  1  0  0  3  0  0  0  0  0  0
  160.8950  206.7120  155.2440 C   0  0  2  0  0  3  0  0  0  0  0  0
  161.7990  206.9000  156.1370 N   0  0  0  0  0  2  0  0  0  0  0  0
  161.5280  210.2960  157.2600 C   0  0  1  0  0  3  0  0  0  0  0  0
  160.2510  208.5470  156.4400 C   0  0  2  0  0  3  0  0  0  0  0  0
  159.8760  212.0780  155.5610 C   0  0  0  0  0  0  0  0  0  0  0  0
  162.1140  211.5040  156.5850 C   0  0  0  0  0  0  0  0  0  0  0  0
  161.1680  205.5890  153.8600 S   0  0  0  0  0  0  0  0  0  0  0  0
  160.2920  209.8710  156.5470 C   0  0  2  0  0  3  0  0  0  0  0  0
  161.2090  208.1400  150.6270 C   0  0  1  0  0  3  0  0  0  0  0  0
  161.4160  207.9140  157.0800 C   0  0  2  0  0  3  0  0  0  0  0  0
  160.7890  208.2370  153.0050 C   0  0  2  0  0  3  0  0  0  0  0  0
  162.3100  208.7130  149.9820 O   0  0  0  0  0  1  0  0  0  0  0  0
  162.4200  209.0540  157.1670 C   0  0  0  0  0  2  0  0  0  0  0  0
  161.1970  212.5920  156.0900 C   0  0  0  0  0  2  0  0  0  0  0  0
  163.3230  211.6690  156.5380 O   0  0  0  0  0  0  0  0  0  0  0  0
  158.5710  212.6860  153.5400 C   0  0  0  0  0  1  0  0  0  0  0  0
  159.0800  212.9730  154.8360 O   0  0  0  0  0  0  0  0  0  0  0  0
  160.9850  205.7690  150.3450 O   0  0  0  0  0  0  0  0  0  0  0  0
  161.1540  204.4300  148.3040 C   0  0  0  0  0  0  0  0  0  0  0  0
  161.2810  204.4250  146.9040 C   0  0  0  0  0  0  0  0  0  0  0  0
  161.1280  205.7040  148.9470 C   0  0  0  0  0  0  0  0  0  0  0  0
  161.4670  203.7140  144.8170 N   0  0  0  0  0  0  0  0  0  0  0  0
  161.6130  205.8590  143.7970 O   0  0  0  0  0  0  0  0  0  0  0  0
  161.3520  206.8410  146.7750 C   0  0  0  0  0  3  0  0  0  0  0  0
  161.4970  205.1380  144.8220 C   0  0  0  0  0  0  0  0  0  0  0  0
  161.3750  205.5860  146.1870 C   0  0  0  0  0  0  0  0  0  0  0  0
  161.2240  206.8860  148.1690 C   0  0  0  0  0  3  0  0  0  0  0  0
  161.3430  203.3010  146.0190 N   0  0  0  0  0  0  0  0  0  0  0  0
  161.1170  203.0970  150.3580 N   0  0  0  0  0  0  0  0  0  0  0  0
  160.9930  201.7100  150.7760 C   0  0  0  0  0  2  0  0  0  0  0  0
  160.8890  201.8340  148.4870 C   0  0  0  0  0  3  0  0  0  0  0  0
  160.8500  200.9700  149.4880 C   0  0  0  0  0  3  0  0  0  0  0  0
  161.0570  203.1570  149.0700 C   0  0  0  0  0  0  0  0  0  0  0  0
  1 15  1  0  0  0  0
  3 18  1  0  0  0  0
  3 14  1  1  0  0  0
  5  2  1  1  0  0  0
  5  3  1  0  0  0  0
  6 18  1  0  0  0  0
  7  4  1  6  0  0  0
  7 11  1  0  0  0  0
  8 14  1  6  0  0  0
  8  7  1  0  0  0  0
  8  9  1  0  0  0  0
  9 17  1  0  0  0  0
 10 20  1  6  0  0  0
 11 15  1  0  0  0  0
 11 17  1  0  0  0  0
 12  1  2  0  0  0  0
 12 21  1  0  0  0  0
 13 10  1  0  0  0  0
 15 10  1  0  0  0  0
 16  5  1  0  0  0  0
 16  6  1  0  0  0  0
 17 20  1  0  0  0  0
 18  4  1  0  0  0  0
 19 16  1  0  0  0  0
 21 13  1  0  0  0  0
 22 13  2  0  0  0  0
 23 24  1  0  0  0  0
 24 12  1  0  0  0  0
 25  5  1  0  0  0  0
 26 28  1  0  0  0  0
 26 40  1  0  0  0  0
 27 26  2  0  0  0  0
 28 25  1  0  0  0  0
 29 32  1  0  0  0  0
 29 35  2  0  0  0  0
 30 32  2  0  0  0  0
 31 34  1  0  0  0  0
 32 33  1  0  0  0  0
 33 31  2  0  0  0  0
 33 27  1  0  0  0  0
 34 28  2  0  0  0  0
 35 27  1  0  0  0  0
 36 37  1  0  0  0  0
 38 40  1  0  0  0  0
 38 39  2  0  0  0  0
 39 37  1  0  0  0  0
 40 36  2  0  0  0  0
M  END
>  <MODEL>
2

>  <REMARK>
 VINA RESULT:      -6.3      1.407      3.001
  Name = 
  4 active torsions:
  status: ('A' for Active; 'I' for Inactive)
    1  A    between atoms: C_3  and  C_34
    2  A    between atoms: C_8  and  O_16
    3  A    between atoms: C_12  and  O_16
    4  A    between atoms: C_20  and  O_22
                            x       y       z     vdW  Elec       q    Type
                         _______ _______ _______ _____ _____    ______ ____

>  <TORSDO>
F 4

$$$$
=
 OpenBabel11072410513D

 40 47  0  0  1  0  0  0  0  0999 V2000
  161.7050  209.5810  154.8770 C   0  0  0  0  0  3  0  0  0  0  0  0
  159.8170  206.2580  149.0010 C   0  0  0  0  0  1  0  0  0  0  0  0
  161.8980  207.0780  150.2010 C   0  0  1  0  0  3  0  0  0  0  0  0
  162.3410  208.1360  152.3870 C   0  0  0  0  0  2  0  0  0  0  0  0
  161.1410  205.8630  149.6670 C   0  0  1  0  0  0  0  0  0  0  0  0
  161.0720  205.9600  152.1500 C   0  0  0  0  0  2  0  0  0  0  0  0
  162.5580  209.5680  151.8340 C   0  0  1  0  0  3  0  0  0  0  0  0
  161.8670  209.7640  150.5050 C   0  0  2  0  0  3  0  0  0  0  0  0
  160.9870  210.7000  150.5030 N   0  0  0  0  0  2  0  0  0  0  0  0
  160.0310  211.3030  153.9070 C   0  0  1  0  0  3  0  0  0  0  0  0
  161.8330  210.6250  152.6200 C   0  0  2  0  0  3  0  0  0  0  0  0
  160.8570  209.2260  155.8560 C   0  0  0  0  0  0  0  0  0  0  0  0
  159.0210  210.5190  154.6980 C   0  0  0  0  0  0  0  0  0  0  0  0
  161.9790  208.5840  149.1470 S   0  0  0  0  0  0  0  0  0  0  0  0
  161.3120  210.5470  153.8390 C   0  0  2  0  0  3  0  0  0  0  0  0
  160.8980  205.0400  150.9460 C   0  0  1  0  0  3  0  0  0  0  0  0
  161.0020  211.4510  151.7270 C   0  0  2  0  0  3  0  0  0  0  0  0
  161.3320  207.3320  151.5770 C   0  0  2  0  0  3  0  0  0  0  0  0
  159.6430  204.4230  150.9740 O   0  0  0  0  0  1  0  0  0  0  0  0
  159.6540  211.4680  152.4320 C   0  0  0  0  0  2  0  0  0  0  0  0
  159.4580  209.7940  155.9440 C   0  0  0  0  0  2  0  0  0  0  0  0
  157.8350  210.5600  154.4110 O   0  0  0  0  0  0  0  0  0  0  0  0
  160.4660  207.1790  157.2030 C   0  0  0  0  0  1  0  0  0  0  0  0
  161.2450  208.3130  156.8420 O   0  0  0  0  0  0  0  0  0  0  0  0
  161.9670  205.0760  148.7990 O   0  0  0  0  0  0  0  0  0  0  0  0
  161.3490  203.5680  146.9740 C   0  0  0  0  0  0  0  0  0  0  0  0
  161.1420  202.2410  146.5590 C   0  0  0  0  0  0  0  0  0  0  0  0
  161.7280  203.7690  148.3350 C   0  0  0  0  0  0  0  0  0  0  0  0
  160.6610  200.4880  145.2980 N   0  0  0  0  0  0  0  0  0  0  0  0
  160.9910  198.8310  146.9740 O   0  0  0  0  0  0  0  0  0  0  0  0
  161.6650  201.3430  148.7450 C   0  0  0  0  0  3  0  0  0  0  0  0
  160.9850  200.0360  146.6100 C   0  0  0  0  0  0  0  0  0  0  0  0
  161.2960  201.1870  147.4190 C   0  0  0  0  0  0  0  0  0  0  0  0
  161.8830  202.6520  149.1940 C   0  0  0  0  0  3  0  0  0  0  0  0
  160.7500  201.7610  145.2690 N   0  0  0  0  0  0  0  0  0  0  0  0
  160.2710  205.6160  146.1730 N   0  0  0  0  0  0  0  0  0  0  0  0
  160.3740  206.5660  145.0780 C   0  0  0  0  0  3  0  0  0  0  0  0
  161.9700  204.9350  144.8320 C   0  0  0  0  0  3  0  0  0  0  0  0
  161.5060  206.0350  144.2620 C   0  0  0  0  0  3  0  0  0  0  0  0
  161.1720  204.7040  146.0270 C   0  0  2  0  0  3  0  0  0  0  0  0
  1 12  2  0  0  0  0
  3 14  1  6  0  0  0
  3 18  1  0  0  0  0
  5  2  1  6  0  0  0
  5  3  1  0  0  0  0
  5 16  1  0  0  0  0
  7  4  1  1  0  0  0
  7 11  1  0  0  0  0
  8 14  1  1  0  0  0
  8  7  1  0  0  0  0
  9  8  1  0  0  0  0
  9 17  1  0  0  0  0
 10 20  1  6  0  0  0
 10 13  1  0  0  0  0
 11 15  1  0  0  0  0
 12 21  1  0  0  0  0
 12 24  1  0  0  0  0
 13 21  1  0  0  0  0
 15 10  1  0  0  0  0
 15  1  1  0  0  0  0
 16 19  1  0  0  0  0
 16  6  1  0  0  0  0
 17 20  1  0  0  0  0
 17 11  1  0  0  0  0
 18  6  1  0  0  0  0
 18  4  1  0  0  0  0
 22 13  2  0  0  0  0
 24 23  1  0  0  0  0
 25  5  1  0  0  0  0
 26 28  1  0  0  0  0
 27 26  2  0  0  0  0
 27 33  1  0  0  0  0
 28 25  1  0  0  0  0
 28 34  2  0  0  0  0
 29 32  1  0  0  0  0
 31 34  1  0  0  0  0
 32 30  2  0  0  0  0
 32 33  1  0  0  0  0
 33 31  2  0  0  0  0
 35 29  2  0  0  0  0
 35 27  1  0  0  0  0
 37 36  2  0  0  0  0
 38 40  1  0  0  0  0
 39 38  2  0  0  0  0
 39 37  1  0  0  0  0
 40 36  1  0  0  0  0
 40 26  1  0  0  0  0
M  END
>  <MODEL>
3

>  <REMARK>
 VINA RESULT:      -4.7      2.326      3.795
  Name = 
  4 active torsions:
  status: ('A' for Active; 'I' for Inactive)
    1  A    between atoms: C_3  and  C_34
    2  A    between atoms: C_8  and  O_16
    3  A    between atoms: C_12  and  O_16
    4  A    between atoms: C_20  and  O_22
                            x       y       z     vdW  Elec       q    Type
                         _______ _______ _______ _____ _____    ______ ____

>  <TORSDO>
F 4

$$$$
=
 OpenBabel11072410513D

 40 47  0  0  1  0  0  0  0  0999 V2000
  161.8320  210.3930  155.1420 C   0  0  0  0  0  3  0  0  0  0  0  0
  159.7320  206.2040  149.9300 C   0  0  0  0  0  1  0  0  0  0  0  0
  161.8000  207.4360  150.7350 C   0  0  1  0  0  3  0  0  0  0  0  0
  162.3550  208.7840  152.7280 C   0  0  0  0  0  2  0  0  0  0  0  0
  161.1760  206.0750  150.4300 C   0  0  1  0  0  0  0  0  0  0  0  0
  161.4160  206.4370  152.8770 C   0  0  0  0  0  2  0  0  0  0  0  0
  162.2730  210.1610  152.0220 C   0  0  1  0  0  3  0  0  0  0  0  0
  161.3940  210.1080  150.7950 C   0  0  2  0  0  3  0  0  0  0  0  0
  160.3870  210.9050  150.8360 N   0  0  0  0  0  2  0  0  0  0  0  0
  159.8010  211.7440  154.2730 C   0  0  1  0  0  3  0  0  0  0  0  0
  161.5020  211.1870  152.8050 C   0  0  2  0  0  3  0  0  0  0  0  0
  161.1840  210.0340  156.2620 C   0  0  0  0  0  0  0  0  0  0  0  0
  159.0350  210.9200  155.2710 C   0  0  0  0  0  0  0  0  0  0  0  0
  161.5090  208.8110  149.5480 S   0  0  0  0  0  0  0  0  0  0  0  0
  161.1630  211.1730  154.0890 C   0  0  2  0  0  3  0  0  0  0  0  0
  161.2320  205.3740  151.8000 C   0  0  1  0  0  3  0  0  0  0  0  0
  160.4450  211.7830  151.9710 C   0  0  2  0  0  3  0  0  0  0  0  0
  161.3850  207.7600  152.1500 C   0  0  2  0  0  3  0  0  0  0  0  0
  160.1010  204.5940  152.0660 O   0  0  0  0  0  1  0  0  0  0  0  0
  159.2140  211.6890  152.8600 C   0  0  0  0  0  2  0  0  0  0  0  0
  159.7380  210.4070  156.5010 C   0  0  0  0  0  2  0  0  0  0  0  0
  157.8300  210.7610  155.1560 O   0  0  0  0  0  0  0  0  0  0  0  0
  161.9620  207.8840  157.2270 C   0  0  0  0  0  1  0  0  0  0  0  0
  161.8340  209.3000  157.2610 O   0  0  0  0  0  0  0  0  0  0  0  0
  161.9930  205.3200  149.5260 O   0  0  0  0  0  0  0  0  0  0  0  0
  161.3470  203.9940  147.5740 C   0  0  0  0  0  0  0  0  0  0  0  0
  161.2120  203.9420  146.1760 C   0  0  0  0  0  0  0  0  0  0  0  0
  161.8550  205.2060  148.1300 C   0  0  0  0  0  0  0  0  0  0  0  0
  160.7790  203.2030  144.1360 N   0  0  0  0  0  0  0  0  0  0  0  0
  161.4340  205.1730  142.9730 O   0  0  0  0  0  0  0  0  0  0  0  0
  162.0460  206.1960  145.8850 C   0  0  0  0  0  3  0  0  0  0  0  0
  161.2740  204.5360  144.0460 C   0  0  0  0  0  0  0  0  0  0  0  0
  161.5520  205.0030  145.3810 C   0  0  0  0  0  0  0  0  0  0  0  0
  162.1910  206.2860  147.2750 C   0  0  0  0  0  3  0  0  0  0  0  0
  160.7440  202.8590  145.3650 N   0  0  0  0  0  0  0  0  0  0  0  0
  160.0600  202.8730  149.3300 N   0  0  0  0  0  0  0  0  0  0  0  0
  159.9590  201.5720  149.9690 C   0  0  0  0  0  2  0  0  0  0  0  0
  161.5890  201.5090  148.3540 C   0  0  0  0  0  3  0  0  0  0  0  0
  160.9930  200.7570  149.2650 C   0  0  0  0  0  3  0  0  0  0  0  0
  160.9780  202.8290  148.4240 C   0  0  0  0  0  0  0  0  0  0  0  0
  1 12  2  0  0  0  0
  3 14  1  6  0  0  0
  3 18  1  0  0  0  0
  5  2  1  6  0  0  0
  5  3  1  0  0  0  0
  5 16  1  0  0  0  0
  7  4  1  1  0  0  0
  7 11  1  0  0  0  0
  8 14  1  1  0  0  0
  8  9  1  0  0  0  0
  8  7  1  0  0  0  0
  9 17  1  0  0  0  0
 10 20  1  6  0  0  0
 10 13  1  0  0  0  0
 11 15  1  0  0  0  0
 12 21  1  0  0  0  0
 12 24  1  0  0  0  0
 13 21  1  0  0  0  0
 15 10  1  0  0  0  0
 15  1  1  0  0  0  0
 16 19  1  0  0  0  0
 16  6  1  0  0  0  0
 17 11  1  0  0  0  0
 17 20  1  0  0  0  0
 18  4  1  0  0  0  0
 18  6  1  0  0  0  0
 22 13  2  0  0  0  0
 23 24  1  0  0  0  0
 25  5  1  0  0  0  0
 26 28  1  0  0  0  0
 26 40  1  0  0  0  0
 27 26  2  0  0  0  0
 28 25  1  0  0  0  0
 29 35  2  0  0  0  0
 30 32  2  0  0  0  0
 31 34  1  0  0  0  0
 32 29  1  0  0  0  0
 32 33  1  0  0  0  0
 33 31  2  0  0  0  0
 33 27  1  0  0  0  0
 34 28  2  0  0  0  0
 35 27  1  0  0  0  0
 36 37  1  0  0  0  0
 38 40  1  0  0  0  0
 38 39  2  0  0  0  0
 39 37  1  0  0  0  0
 40 36  2  0  0  0  0
M  END
>  <MODEL>
4

>  <REMARK>
 VINA RESULT:      -4.4      2.351      4.558
  Name = 
  4 active torsions:
  status: ('A' for Active; 'I' for Inactive)
    1  A    between atoms: C_3  and  C_34
    2  A    between atoms: C_8  and  O_16
    3  A    between atoms: C_12  and  O_16
    4  A    between atoms: C_20  and  O_22
                            x       y       z     vdW  Elec       q    Type
                         _______ _______ _______ _____ _____    ______ ____

>  <TORSDO>
F 4

$$$$
