=
 OpenBabel11072412353D

 51 57  0  0  1  0  0  0  0  0999 V2000
  159.7750  212.9780  149.0730 O   0  0  0  0  0  1  0  0  0  0  0  0
  159.2140  214.1300  151.0920 C   0  0  0  0  0  2  0  0  0  0  0  0
  163.2170  211.2850  152.5440 C   0  0  0  0  0  2  0  0  0  0  0  0
  160.9520  212.2460  151.0800 C   0  0  2  0  0  3  0  0  0  0  0  0
  157.5590  210.8320  152.3760 C   0  0  0  0  0  1  0  0  0  0  0  0
  163.4090  210.2850  151.5780 O   0  0  0  0  0  0  0  0  0  0  0  0
  159.9580  211.5650  152.0600 C   0  0  2  0  0  3  0  0  0  0  0  0
  160.7730  211.5390  154.4180 C   0  0  0  0  0  0  0  0  0  0  0  0
  158.5150  211.7050  151.5710 C   0  0  2  0  0  3  0  0  0  0  0  0
  162.2360  210.0910  150.8020 C   0  0  2  0  0  3  0  0  0  0  0  0
  157.5580  213.6140  152.7350 O   0  0  0  0  0  1  0  0  0  0  0  0
  161.6180  210.3090  154.1930 C   0  0  1  0  0  3  0  0  0  0  0  0
  160.7300  212.0810  155.5590 O   0  0  0  0  0  0  0  0  0  0  0  0
  160.3050  213.4210  150.2860 C   0  0  1  0  0  3  0  0  0  0  0  0
  158.0670  213.1840  151.5060 C   0  0  1  0  0  3  0  0  0  0  0  0
  163.0720  210.6750  153.9260 C   0  0  0  0  0  2  0  0  0  0  0  0
  160.0790  212.1410  153.3580 O   0  0  0  0  0  0  0  0  0  0  0  0
  161.6300  211.2900  150.1670 N   0  0  0  0  0  0  0  0  0  0  0  0
  161.3090  207.3010  157.2570 C   0  0  0  0  0  3  0  0  0  0  0  0
  162.4780  208.0620  157.1540 C   0  0  0  0  0  3  0  0  0  0  0  0
  162.5840  209.0540  156.1710 C   0  0  0  0  0  3  0  0  0  0  0  0
  160.3560  208.5310  155.3970 C   0  0  0  0  0  3  0  0  0  0  0  0
  161.5150  209.2990  155.2950 C   0  0  0  0  0  0  0  0  0  0  0  0
  160.2440  207.5330  156.3800 C   0  0  0  0  0  0  0  0  0  0  0  0
  157.9840  207.1800  155.4680 C   0  0  0  0  0  1  0  0  0  0  0  0
  159.0430  206.6510  156.4260 C   0  0  0  0  0  2  0  0  0  0  0  0
  161.2560  209.2120  151.4270 N   0  0  0  0  0  2  0  0  0  0  0  0
  161.1050  207.8520  151.0950 N   0  0  0  0  0  0  0  0  0  0  0  0
  161.0790  208.0740  148.6350 C   0  0  0  0  0  3  0  0  0  0  0  0
  160.7950  204.3970  151.7480 N   0  0  0  0  0  0  0  0  0  0  0  0
  160.8290  204.3020  153.1140 C   0  0  0  0  0  3  0  0  0  0  0  0
  160.8490  205.9320  147.4630 C   0  0  0  0  0  3  0  0  0  0  0  0
  161.0700  206.7270  153.3110 C   0  0  0  0  0  3  0  0  0  0  0  0
  160.8010  205.2330  148.6830 C   0  0  0  0  0  3  0  0  0  0  0  0
  160.9880  207.3410  147.4380 C   0  0  0  0  0  3  0  0  0  0  0  0
  160.8950  205.9840  149.8500 C   0  0  0  0  0  0  0  0  0  0  0  0
  161.0220  207.3610  149.8370 C   0  0  0  0  0  0  0  0  0  0  0  0
  160.8920  205.6240  151.1790 C   0  0  0  0  0  0  0  0  0  0  0  0
  160.9670  205.4610  153.9150 C   0  0  0  0  0  3  0  0  0  0  0  0
  161.0230  206.7780  151.9200 C   0  0  0  0  0  0  0  0  0  0  0  0
  162.6800  211.9900  149.4230 C   0  0  0  0  0  2  0  0  0  0  0  0
  162.5570  211.7190  147.9320 C   0  0  0  0  0  2  0  0  0  0  0  0
  163.3830  212.5820  147.2090 O   0  0  0  0  0  0  0  0  0  0  0  0
  162.6010  213.7150  146.9780 C   0  0  0  0  0  2  0  0  0  0  0  0
  162.4760  213.4880  144.5210 C   0  0  0  0  0  3  0  0  0  0  0  0
  160.6230  212.1720  143.4810 C   0  0  1  0  0  3  0  0  0  0  0  0
  159.6890  212.2140  142.4650 F   0  0  0  0  0  0  0  0  0  0  0  0
  161.6690  213.2790  143.2700 C   0  0  0  0  0  2  0  0  0  0  0  0
  161.8380  213.5640  145.6990 C   0  0  0  0  0  0  0  0  0  0  0  0
  160.3420  213.4060  145.7350 C   0  0  0  0  0  2  0  0  0  0  0  0
  159.9070  212.2270  144.8520 C   0  0  0  0  0  2  0  0  0  0  0  0
  2 15  1  0  0  0  0
  3 16  1  0  0  0  0
  4 18  1  6  0  0  0
  4  7  1  0  0  0  0
  6  3  1  0  0  0  0
  7 17  1  1  0  0  0
  8 13  2  0  0  0  0
  9  7  1  0  0  0  0
  9  5  1  1  0  0  0
 10 27  1  1  0  0  0
 10  6  1  0  0  0  0
 12  8  1  0  0  0  0
 12 23  1  1  0  0  0
 14  1  1  6  0  0  0
 14  4  1  0  0  0  0
 14  2  1  0  0  0  0
 15  9  1  0  0  0  0
 15 11  1  1  0  0  0
 16 12  1  0  0  0  0
 17  8  1  0  0  0  0
 18 10  1  0  0  0  0
 20 19  1  0  0  0  0
 21 20  2  0  0  0  0
 22 24  1  0  0  0  0
 23 22  2  0  0  0  0
 23 21  1  0  0  0  0
 24 26  1  0  0  0  0
 24 19  2  0  0  0  0
 25 26  1  0  0  0  0
 28 27  1  0  0  0  0
 28 40  1  0  0  0  0
 29 37  1  0  0  0  0
 30 31  1  0  0  0  0
 31 39  2  0  0  0  0
 32 34  2  0  0  0  0
 33 39  1  0  0  0  0
 34 36  1  0  0  0  0
 35 32  1  0  0  0  0
 35 29  2  0  0  0  0
 36 38  1  0  0  0  0
 37 36  2  0  0  0  0
 37 28  1  0  0  0  0
 38 30  2  0  0  0  0
 38 40  1  0  0  0  0
 40 33  2  0  0  0  0
 41 18  1  0  0  0  0
 42 41  1  0  0  0  0
 43 42  1  0  0  0  0
 44 43  1  0  0  0  0
 45 49  2  0  0  0  0
 46 47  1  6  0  0  0
 46 51  1  0  0  0  0
 48 46  1  0  0  0  0
 48 45  1  0  0  0  0
 49 50  1  0  0  0  0
 49 44  1  0  0  0  0
 51 50  1  0  0  0  0
M  END
>  <MODEL>
1

>  <REMARK>
 VINA RESULT:       3.0      0.000      0.000
  Name = 
  9 active torsions:
  status: ('A' for Active; 'I' for Inactive)
    1  A    between atoms: N_2  and  N_6
    2  A    between atoms: N_2  and  C_27
    3  A    between atoms: C_3  and  C_30
    4  A    between atoms: C_3  and  N_51
    5  A    between atoms: O_13  and  C_22
    6  A    between atoms: O_13  and  C_30
    7  A    between atoms: C_21  and  C_22
    8  A    between atoms: C_32  and  C_43
    9  A    between atoms: C_47  and  C_49
                            x       y       z     vdW  Elec       q    Type
                         _______ _______ _______ _____ _____    ______ ____

>  <TORSDO>
F 9

$$$$
=
 OpenBabel11072412353D

 51 57  0  0  1  0  0  0  0  0999 V2000
  159.8730  213.0340  149.0870 O   0  0  0  0  0  1  0  0  0  0  0  0
  159.2860  214.1760  151.1040 C   0  0  0  0  0  2  0  0  0  0  0  0
  163.2510  211.3010  152.6010 C   0  0  0  0  0  2  0  0  0  0  0  0
  161.0140  212.2840  151.1070 C   0  0  2  0  0  3  0  0  0  0  0  0
  157.5930  210.8800  152.3420 C   0  0  0  0  0  1  0  0  0  0  0  0
  163.4530  210.3060  151.6330 O   0  0  0  0  0  0  0  0  0  0  0  0
  160.0010  211.6020  152.0680 C   0  0  2  0  0  3  0  0  0  0  0  0
  160.7790  211.5570  154.4380 C   0  0  0  0  0  0  0  0  0  0  0  0
  158.5660  211.7520  151.5570 C   0  0  2  0  0  3  0  0  0  0  0  0
  162.2910  210.1230  150.8360 C   0  0  2  0  0  3  0  0  0  0  0  0
  157.6020  213.6590  152.7180 O   0  0  0  0  0  1  0  0  0  0  0  0
  161.6200  210.3240  154.2190 C   0  0  1  0  0  3  0  0  0  0  0  0
  160.7200  212.0920  155.5820 O   0  0  0  0  0  0  0  0  0  0  0  0
  160.3860  213.4660  150.3110 C   0  0  1  0  0  3  0  0  0  0  0  0
  158.1270  213.2340  151.4950 C   0  0  1  0  0  3  0  0  0  0  0  0
  163.0800  210.6830  153.9770 C   0  0  0  0  0  2  0  0  0  0  0  0
  160.1050  212.1690  153.3710 O   0  0  0  0  0  0  0  0  0  0  0  0
  161.7010  211.3290  150.1990 N   0  0  0  0  0  0  0  0  0  0  0  0
  161.2450  207.3000  157.2590 C   0  0  0  0  0  3  0  0  0  0  0  0
  162.4290  208.0370  157.1640 C   0  0  0  0  0  3  0  0  0  0  0  0
  162.5570  209.0350  156.1890 C   0  0  0  0  0  3  0  0  0  0  0  0
  160.3210  208.5630  155.4070 C   0  0  0  0  0  3  0  0  0  0  0  0
  161.4950  209.3080  155.3130 C   0  0  0  0  0  0  0  0  0  0  0  0
  160.1870  207.5600  156.3820 C   0  0  0  0  0  0  0  0  0  0  0  0
  157.9490  207.2180  155.4120 C   0  0  0  0  0  1  0  0  0  0  0  0
  158.9670  206.7020  156.4190 C   0  0  0  0  0  2  0  0  0  0  0  0
  161.2970  209.2450  151.4400 N   0  0  0  0  0  2  0  0  0  0  0  0
  161.1400  207.8890  151.0950 N   0  0  0  0  0  0  0  0  0  0  0  0
  161.1700  206.9250  153.3690 C   0  0  0  0  0  3  0  0  0  0  0  0
  160.6950  205.1590  148.9020 N   0  0  0  0  0  0  0  0  0  0  0  0
  160.6650  205.7240  147.6540 C   0  0  0  0  0  3  0  0  0  0  0  0
  160.9030  204.4870  153.3990 C   0  0  0  0  0  3  0  0  0  0  0  0
  160.9660  207.9520  148.6160 C   0  0  0  0  0  3  0  0  0  0  0  0
  160.8180  204.4470  151.9960 C   0  0  0  0  0  3  0  0  0  0  0  0
  161.0760  205.7160  154.0810 C   0  0  0  0  0  3  0  0  0  0  0  0
  160.9130  205.6570  151.3180 C   0  0  0  0  0  0  0  0  0  0  0  0
  161.0900  206.8620  151.9730 C   0  0  0  0  0  0  0  0  0  0  0  0
  160.8600  205.9690  149.9770 C   0  0  0  0  0  0  0  0  0  0  0  0
  160.7990  207.1230  147.4910 C   0  0  0  0  0  3  0  0  0  0  0  0
  160.9980  207.3350  149.8650 C   0  0  0  0  0  0  0  0  0  0  0  0
  162.7670  212.0280  149.4760 C   0  0  0  0  0  2  0  0  0  0  0  0
  162.7170  211.6990  147.9920 C   0  0  0  0  0  2  0  0  0  0  0  0
  163.4320  212.6480  147.2580 O   0  0  0  0  0  0  0  0  0  0  0  0
  162.5040  213.6510  146.9720 C   0  0  0  0  0  2  0  0  0  0  0  0
  162.9720  213.4570  144.5550 C   0  0  0  0  0  3  0  0  0  0  0  0
  161.3590  212.2710  143.0600 C   0  0  1  0  0  3  0  0  0  0  0  0
  160.7070  212.3820  141.8470 F   0  0  0  0  0  0  0  0  0  0  0  0
  162.4880  213.3120  143.1390 C   0  0  0  0  0  2  0  0  0  0  0  0
  162.0700  213.5610  145.5420 C   0  0  0  0  0  0  0  0  0  0  0  0
  160.6050  213.4970  145.2070 C   0  0  0  0  0  2  0  0  0  0  0  0
  160.3320  212.3570  144.2150 C   0  0  0  0  0  2  0  0  0  0  0  0
  2 15  1  0  0  0  0
  3 16  1  0  0  0  0
  4 18  1  6  0  0  0
  4  7  1  0  0  0  0
  6  3  1  0  0  0  0
  7 17  1  1  0  0  0
  8 13  2  0  0  0  0
  9  7  1  0  0  0  0
  9  5  1  1  0  0  0
 10 27  1  1  0  0  0
 10  6  1  0  0  0  0
 12  8  1  0  0  0  0
 12 23  1  1  0  0  0
 14  1  1  6  0  0  0
 14  2  1  0  0  0  0
 14  4  1  0  0  0  0
 15  9  1  0  0  0  0
 15 11  1  1  0  0  0
 16 12  1  0  0  0  0
 17  8  1  0  0  0  0
 18 10  1  0  0  0  0
 20 19  1  0  0  0  0
 21 20  2  0  0  0  0
 22 24  1  0  0  0  0
 23 22  2  0  0  0  0
 23 21  1  0  0  0  0
 24 26  1  0  0  0  0
 24 19  2  0  0  0  0
 25 26  1  0  0  0  0
 28 27  1  0  0  0  0
 28 37  1  0  0  0  0
 29 35  1  0  0  0  0
 30 38  1  0  0  0  0
 31 30  2  0  0  0  0
 32 35  2  0  0  0  0
 33 40  1  0  0  0  0
 34 32  1  0  0  0  0
 36 37  1  0  0  0  0
 36 34  2  0  0  0  0
 37 29  2  0  0  0  0
 38 36  1  0  0  0  0
 39 31  1  0  0  0  0
 39 33  2  0  0  0  0
 40 38  2  0  0  0  0
 40 28  1  0  0  0  0
 41 18  1  0  0  0  0
 42 41  1  0  0  0  0
 43 42  1  0  0  0  0
 44 43  1  0  0  0  0
 45 49  2  0  0  0  0
 46 47  1  6  0  0  0
 46 48  1  0  0  0  0
 46 51  1  0  0  0  0
 48 45  1  0  0  0  0
 49 44  1  0  0  0  0
 50 49  1  0  0  0  0
 51 50  1  0  0  0  0
M  END
>  <MODEL>
2

>  <REMARK>
 VINA RESULT:       3.6      0.540      2.192
  Name = 
  9 active torsions:
  status: ('A' for Active; 'I' for Inactive)
    1  A    between atoms: N_2  and  N_6
    2  A    between atoms: N_2  and  C_27
    3  A    between atoms: C_3  and  C_30
    4  A    between atoms: C_3  and  N_51
    5  A    between atoms: O_13  and  C_22
    6  A    between atoms: O_13  and  C_30
    7  A    between atoms: C_21  and  C_22
    8  A    between atoms: C_32  and  C_43
    9  A    between atoms: C_47  and  C_49
                            x       y       z     vdW  Elec       q    Type
                         _______ _______ _______ _____ _____    ______ ____

>  <TORSDO>
F 9

$$$$
=
 OpenBabel11072412353D

 51 57  0  0  1  0  0  0  0  0999 V2000
  160.6050  205.6440  153.3150 O   0  0  0  0  0  1  0  0  0  0  0  0
  161.7850  205.0830  151.3120 C   0  0  0  0  0  2  0  0  0  0  0  0
  163.2620  209.9200  152.1210 C   0  0  0  0  0  2  0  0  0  0  0  0
  161.7560  207.4850  152.2040 C   0  0  2  0  0  3  0  0  0  0  0  0
  159.1580  207.1740  149.3160 C   0  0  0  0  0  1  0  0  0  0  0  0
  162.3660  210.4980  153.0330 O   0  0  0  0  0  0  0  0  0  0  0  0
  161.0760  207.7930  150.8420 C   0  0  2  0  0  3  0  0  0  0  0  0
  162.5730  208.9990  149.2520 C   0  0  0  0  0  0  0  0  0  0  0  0
  160.0040  206.7520  150.5110 C   0  0  2  0  0  3  0  0  0  0  0  0
  161.1470  209.7710  153.0850 C   0  0  2  0  0  3  0  0  0  0  0  0
  161.0430  205.1160  149.0410 O   0  0  0  0  0  1  0  0  0  0  0  0
  162.2720  210.3430  149.8690 C   0  0  1  0  0  3  0  0  0  0  0  0
  163.3530  208.9150  148.2610 O   0  0  0  0  0  0  0  0  0  0  0  0
  161.7340  205.9680  152.5600 C   0  0  1  0  0  3  0  0  0  0  0  0
  160.6040  205.3360  150.3500 C   0  0  1  0  0  3  0  0  0  0  0  0
  163.3540  210.7560  150.8570 C   0  0  0  0  0  2  0  0  0  0  0  0
  162.0520  207.8200  149.8040 O   0  0  0  0  0  0  0  0  0  0  0  0
  161.2320  208.3070  153.3250 N   0  0  0  0  0  0  0  0  0  0  0  0
  161.4280  213.4590  147.0210 C   0  0  0  0  0  3  0  0  0  0  0  0
  162.3550  213.6920  148.0430 C   0  0  0  0  0  3  0  0  0  0  0  0
  162.6490  212.6800  148.9660 C   0  0  0  0  0  3  0  0  0  0  0  0
  161.0980  211.2040  147.8480 C   0  0  0  0  0  3  0  0  0  0  0  0
  162.0270  211.4260  148.8630 C   0  0  0  0  0  0  0  0  0  0  0  0
  160.7980  212.2150  146.9190 C   0  0  0  0  0  0  0  0  0  0  0  0
  158.5140  212.8450  146.2450 C   0  0  0  0  0  1  0  0  0  0  0  0
  159.7350  212.0060  145.8940 C   0  0  0  0  0  2  0  0  0  0  0  0
  160.2060  210.1290  152.0310 N   0  0  0  0  0  2  0  0  0  0  0  0
  159.1460  211.0380  152.2070 N   0  0  0  0  0  0  0  0  0  0  0  0
  159.6400  212.5490  150.3160 C   0  0  0  0  0  3  0  0  0  0  0  0
  156.2390  212.3340  153.7340 N   0  0  0  0  0  0  0  0  0  0  0  0
  155.9800  211.4690  154.7650 C   0  0  0  0  0  3  0  0  0  0  0  0
  158.0420  214.3970  150.0990 C   0  0  0  0  0  3  0  0  0  0  0  0
  157.9310  210.1210  154.1730 C   0  0  0  0  0  3  0  0  0  0  0  0
  157.3180  213.9450  151.2180 C   0  0  0  0  0  3  0  0  0  0  0  0
  159.1920  213.7040  149.6500 C   0  0  0  0  0  3  0  0  0  0  0  0
  157.7830  212.8000  151.8560 C   0  0  0  0  0  0  0  0  0  0  0  0
  158.9100  212.1210  151.4310 C   0  0  0  0  0  0  0  0  0  0  0  0
  157.3170  212.1000  152.9470 C   0  0  0  0  0  0  0  0  0  0  0  0
  156.8180  210.3530  155.0000 C   0  0  0  0  0  3  0  0  0  0  0  0
  158.1620  211.0290  153.1410 C   0  0  0  0  0  0  0  0  0  0  0  0
  162.0590  208.0900  154.5150 C   0  0  0  0  0  2  0  0  0  0  0  0
  161.1900  207.8770  155.7450 C   0  0  0  0  0  2  0  0  0  0  0  0
  161.8470  208.3290  156.8910 O   0  0  0  0  0  0  0  0  0  0  0  0
  162.4880  209.5040  156.4960 C   0  0  0  0  0  2  0  0  0  0  0  0
  162.2150  211.9250  156.8990 C   0  0  0  0  0  3  0  0  0  0  0  0
  159.9940  213.0110  156.5350 C   0  0  1  0  0  3  0  0  0  0  0  0
  159.0980  213.8890  157.1130 F   0  0  0  0  0  0  0  0  0  0  0  0
  161.3470  213.0980  157.2610 C   0  0  0  0  0  2  0  0  0  0  0  0
  161.6790  210.6960  156.9020 C   0  0  0  0  0  0  0  0  0  0  0  0
  160.2200  210.5320  157.2330 C   0  0  0  0  0  2  0  0  0  0  0  0
  159.3830  211.5900  156.4980 C   0  0  0  0  0  2  0  0  0  0  0  0
  2 14  1  0  0  0  0
  3  6  1  0  0  0  0
  4 14  1  0  0  0  0
  4 18  1  1  0  0  0
  6 10  1  0  0  0  0
  7 17  1  6  0  0  0
  7  4  1  0  0  0  0
  8 17  1  0  0  0  0
  8 12  1  0  0  0  0
  9  5  1  6  0  0  0
  9  7  1  0  0  0  0
 10 27  1  6  0  0  0
 10 18  1  0  0  0  0
 12 23  1  6  0  0  0
 12 16  1  0  0  0  0
 13  8  2  0  0  0  0
 14  1  1  6  0  0  0
 15 11  1  6  0  0  0
 15  9  1  0  0  0  0
 15  2  1  0  0  0  0
 16  3  1  0  0  0  0
 18 41  1  0  0  0  0
 19 20  1  0  0  0  0
 20 21  2  0  0  0  0
 22 23  2  0  0  0  0
 23 21  1  0  0  0  0
 24 19  2  0  0  0  0
 24 22  1  0  0  0  0
 26 25  1  0  0  0  0
 26 24  1  0  0  0  0
 27 28  1  0  0  0  0
 28 40  1  0  0  0  0
 29 37  1  0  0  0  0
 30 31  1  0  0  0  0
 31 39  2  0  0  0  0
 32 34  2  0  0  0  0
 33 39  1  0  0  0  0
 34 36  1  0  0  0  0
 35 32  1  0  0  0  0
 35 29  2  0  0  0  0
 36 38  1  0  0  0  0
 37 36  2  0  0  0  0
 37 28  1  0  0  0  0
 38 40  1  0  0  0  0
 38 30  2  0  0  0  0
 40 33  2  0  0  0  0
 41 42  1  0  0  0  0
 42 43  1  0  0  0  0
 44 43  1  0  0  0  0
 44 49  1  0  0  0  0
 45 49  2  0  0  0  0
 45 48  1  0  0  0  0
 46 47  1  1  0  0  0
 46 48  1  0  0  0  0
 49 50  1  0  0  0  0
 51 46  1  0  0  0  0
 51 50  1  0  0  0  0
M  END
>  <MODEL>
3

>  <REMARK>
 VINA RESULT:       5.6      3.140      8.471
  Name = 
  9 active torsions:
  status: ('A' for Active; 'I' for Inactive)
    1  A    between atoms: N_2  and  N_6
    2  A    between atoms: N_2  and  C_27
    3  A    between atoms: C_3  and  C_30
    4  A    between atoms: C_3  and  N_51
    5  A    between atoms: O_13  and  C_22
    6  A    between atoms: O_13  and  C_30
    7  A    between atoms: C_21  and  C_22
    8  A    between atoms: C_32  and  C_43
    9  A    between atoms: C_47  and  C_49
                            x       y       z     vdW  Elec       q    Type
                         _______ _______ _______ _____ _____    ______ ____

>  <TORSDO>
F 9

$$$$
