=
 OpenBabel11072409553D

 48 53  0  0  1  0  0  0  0  0999 V2000
  160.9040  208.2310  152.0540 C   0  0  0  0  0  3  0  0  0  0  0  0
  160.8760  205.8120  151.9110 C   0  0  0  0  0  0  0  0  0  0  0  0
  160.8120  207.0650  151.2900 C   0  0  0  0  0  3  0  0  0  0  0  0
  161.1260  206.9010  154.0630 C   0  0  0  0  0  3  0  0  0  0  0  0
  161.0590  208.1540  153.4460 C   0  0  0  0  0  0  0  0  0  0  0  0
  161.0350  205.7330  153.2990 C   0  0  0  0  0  3  0  0  0  0  0  0
  160.2970  204.2950  149.8030 C   0  0  0  0  0  2  0  0  0  0  0  0
  161.1210  203.1980  151.3180 C   0  0  0  0  0  0  0  0  0  0  0  0
  160.6160  202.9030  149.9400 C   0  0  2  0  0  3  0  0  0  0  0  0
  161.6210  202.5180  152.2500 O   0  0  0  0  0  0  0  0  0  0  0  0
  160.7790  204.6220  151.1300 N   0  0  0  0  0  0  0  0  0  0  0  0
  161.6710  201.1600  148.6260 F   0  0  0  0  0  0  0  0  0  0  0  0
  161.7400  202.5000  148.9840 C   0  0  1  0  0  3  0  0  0  0  0  0
  161.6990  203.3140  147.8180 O   0  0  0  0  0  0  0  0  0  0  0  0
  161.1700  202.8750  146.5990 C   0  0  0  0  0  0  0  0  0  0  0  0
  160.4440  201.8460  146.5890 O   0  0  0  0  0  0  0  0  0  0  0  0
  162.7130  204.4700  145.4580 C   0  0  0  0  0  2  0  0  0  0  0  0
  161.1160  205.6750  144.1070 F   0  0  0  0  0  0  0  0  0  0  0  0
  161.4990  203.5590  145.2960 C   0  0  2  0  0  3  0  0  0  0  0  0
  161.3400  205.0790  145.3330 C   0  0  1  0  0  0  0  0  0  0  0  0
  160.8530  205.7850  146.5990 C   0  0  0  0  0  2  0  0  0  0  0  0
  161.9260  208.6440  148.5300 C   0  0  0  0  0  2  0  0  0  0  0  0
  161.7790  206.9270  146.9910 C   0  0  2  0  0  3  0  0  0  0  0  0
  162.7690  206.4500  148.0270 C   0  0  0  0  0  2  0  0  0  0  0  0
  162.8860  207.5820  149.0180 C   0  0  0  0  0  2  0  0  0  0  0  0
  161.0190  208.0200  147.5810 N   0  0  0  0  0  2  0  0  0  0  0  0
  161.1530  209.3360  154.2480 N   0  0  0  0  0  2  0  0  0  0  0  0
  160.0090  210.1770  154.5740 C   0  0  0  0  0  2  0  0  0  0  0  0
  160.1340  211.5210  153.8750 C   0  0  0  0  0  2  0  0  0  0  0  0
  157.8130  212.2810  154.4540 C   0  0  0  0  0  0  0  0  0  0  0  0
  156.6930  212.7460  154.1050 O   0  0  0  0  0  0  0  0  0  0  0  0
  158.8220  212.0020  153.4720 N   0  0  0  0  0  0  0  0  0  0  0  0
  158.0600  212.0510  155.8020 O   0  0  0  0  0  1  0  0  0  0  0  0
  158.6180  212.3530  152.0740 C   0  0  0  0  0  2  0  0  0  0  0  0
  156.3590  213.3940  149.7970 O   0  0  0  0  0  1  0  0  0  0  0  0
  159.9200  214.4530  150.2840 C   0  0  1  0  0  3  0  0  0  0  0  0
  158.1080  213.5590  148.1770 C   0  0  0  0  0  2  0  0  0  0  0  0
  158.4520  214.2970  150.5660 C   0  0  2  0  0  3  0  0  0  0  0  0
  159.6310  213.5930  147.9300 C   0  0  1  0  0  3  0  0  0  0  0  0
  160.1760  213.9400  151.5710 O   0  0  0  0  0  0  0  0  0  0  0  0
  160.4420  213.4760  149.2290 C   0  0  0  0  0  2  0  0  0  0  0  0
  158.8490  213.7880  151.8810 N   0  0  0  0  0  0  0  0  0  0  0  0
  157.7390  213.2900  149.6340 C   0  0  1  0  0  3  0  0  0  0  0  0
  160.0400  212.4980  146.9470 C   0  0  2  0  0  3  0  0  0  0  0  0
  161.1410  211.7950  147.4430 O   0  0  0  0  0  1  0  0  0  0  0  0
  160.3870  213.0820  145.6610 N   0  0  0  0  0  2  0  0  0  0  0  0
  161.7290  213.6240  145.7810 C   0  0  0  0  0  2  0  0  0  0  0  0
  162.5510  213.2120  144.5800 C   0  0  0  0  0  1  0  0  0  0  0  0
  1  5  1  0  0  0  0
  2  6  2  0  0  0  0
  3  2  1  0  0  0  0
  3  1  2  0  0  0  0
  5  4  2  0  0  0  0
  5 27  1  0  0  0  0
  6  4  1  0  0  0  0
  7  9  1  0  0  0  0
  7 11  1  0  0  0  0
  8 10  2  0  0  0  0
  9 13  1  6  0  0  0
  9  8  1  0  0  0  0
 11  8  1  0  0  0  0
 11  2  1  0  0  0  0
 13 12  1  6  0  0  0
 14 13  1  0  0  0  0
 15 14  1  0  0  0  0
 16 15  2  0  0  0  0
 19 20  1  0  0  0  0
 19 17  1  0  0  0  0
 19 15  1  1  0  0  0
 20 18  1  6  0  0  0
 20 17  1  0  0  0  0
 20 21  1  0  0  0  0
 22 25  1  0  0  0  0
 23 21  1  1  0  0  0
 23 26  1  0  0  0  0
 23 24  1  0  0  0  0
 24 25  1  0  0  0  0
 26 22  1  0  0  0  0
 27 28  1  0  0  0  0
 29 28  1  0  0  0  0
 30 33  1  0  0  0  0
 31 30  2  0  0  0  0
 32 29  1  0  0  0  0
 32 30  1  0  0  0  0
 34 32  1  0  0  0  0
 36 41  1  6  0  0  0
 36 38  1  0  0  0  0
 36 40  1  0  0  0  0
 37 43  1  0  0  0  0
 38 42  1  1  0  0  0
 39 44  1  6  0  0  0
 39 37  1  0  0  0  0
 39 41  1  0  0  0  0
 40 42  1  0  0  0  0
 42 34  1  0  0  0  0
 43 35  1  6  0  0  0
 43 38  1  0  0  0  0
 44 45  1  1  0  0  0
 46 47  1  0  0  0  0
 46 44  1  0  0  0  0
 48 47  1  0  0  0  0
M  END
>  <MODEL>
1

>  <REMARK>
 VINA RESULT:      -7.2      0.000      0.000
  Name = 
  16 active torsions:
  status: ('A' for Active; 'I' for Inactive)
    1  A    between atoms: C_1  and  N_15
    2  A    between atoms: C_3  and  N_28
    3  A    between atoms: C_3  and  C_44
    4  A    between atoms: C_4  and  N_15
    5  A    between atoms: C_4  and  C_19
    6  A    between atoms: C_10  and  N_41
    7  A    between atoms: C_16  and  O_35
    8  A    between atoms: C_16  and  C_36
    9  A    between atoms: N_18  and  C_30
   10  A    between atoms: N_18  and  C_44
   11  A    between atoms: C_20  and  C_22
   12  A    between atoms: C_20  and  C_42
   13  A    between atoms: C_25  and  C_40
   14  A    between atoms: N_28  and  C_48
   15  A    between atoms: O_35  and  C_40
   16  A    between atoms: N_39  and  C_48
                            x       y       z     vdW  Elec       q    Type
                         _______ _______ _______ _____ _____    ______ ____

>  <TORSDO>
F 16

$$$$
=
 OpenBabel11072409553D

 48 53  0  0  1  0  0  0  0  0999 V2000
  160.6790  209.9340  152.9320 C   0  0  0  0  0  3  0  0  0  0  0  0
  161.1250  207.5600  152.7360 C   0  0  0  0  0  0  0  0  0  0  0  0
  160.8840  208.8020  152.1380 C   0  0  0  0  0  3  0  0  0  0  0  0
  160.9560  208.5900  154.9250 C   0  0  0  0  0  3  0  0  0  0  0  0
  160.7120  209.8320  154.3310 C   0  0  0  0  0  0  0  0  0  0  0  0
  161.1620  207.4570  154.1310 C   0  0  0  0  0  3  0  0  0  0  0  0
  161.3910  204.9760  152.1590 C   0  0  0  0  0  2  0  0  0  0  0  0
  161.5810  206.1440  150.4920 C   0  0  0  0  0  0  0  0  0  0  0  0
  161.6310  204.6760  150.7770 C   0  0  2  0  0  3  0  0  0  0  0  0
  161.7060  206.8600  149.4650 O   0  0  0  0  0  0  0  0  0  0  0  0
  161.3320  206.4050  151.9240 N   0  0  0  0  0  0  0  0  0  0  0  0
  160.2350  204.2710  148.8360 F   0  0  0  0  0  0  0  0  0  0  0  0
  160.4470  203.9250  150.1640 C   0  0  1  0  0  3  0  0  0  0  0  0
  160.6560  202.5230  150.2700 O   0  0  0  0  0  0  0  0  0  0  0  0
  160.0820  201.5960  149.3920 C   0  0  0  0  0  0  0  0  0  0  0  0
  158.8270  201.5180  149.3290 O   0  0  0  0  0  0  0  0  0  0  0  0
  162.1910  201.3420  148.0830 C   0  0  0  0  0  2  0  0  0  0  0  0
  161.3610  200.0290  146.2360 F   0  0  0  0  0  0  0  0  0  0  0  0
  160.9220  200.6490  148.5720 C   0  0  2  0  0  3  0  0  0  0  0  0
  161.0770  201.0620  147.1080 C   0  0  1  0  0  0  0  0  0  0  0  0
  160.3880  202.3160  146.5710 C   0  0  0  0  0  2  0  0  0  0  0  0
  161.4010  205.1020  144.5060 C   0  0  0  0  0  2  0  0  0  0  0  0
  161.2830  203.0700  145.5990 C   0  0  2  0  0  3  0  0  0  0  0  0
  162.3050  203.8750  146.3660 C   0  0  0  0  0  2  0  0  0  0  0  0
  162.4030  205.1930  145.6370 C   0  0  0  0  0  2  0  0  0  0  0  0
  160.4980  204.0020  144.8010 N   0  0  0  0  0  2  0  0  0  0  0  0
  160.5020  210.9780  155.1620 N   0  0  0  0  0  2  0  0  0  0  0  0
  159.1910  211.5670  155.4000 C   0  0  0  0  0  2  0  0  0  0  0  0
  158.9790  212.7550  154.4750 C   0  0  0  0  0  2  0  0  0  0  0  0
  156.4850  212.4680  154.4800 C   0  0  0  0  0  0  0  0  0  0  0  0
  155.3890  212.3990  153.8590 O   0  0  0  0  0  0  0  0  0  0  0  0
  157.7190  212.6170  153.7620 N   0  0  0  0  0  0  0  0  0  0  0  0
  156.4820  212.4060  155.8670 O   0  0  0  0  0  1  0  0  0  0  0  0
  157.7230  212.8060  152.3170 C   0  0  0  0  0  2  0  0  0  0  0  0
  156.3770  213.5870  149.3260 O   0  0  0  0  0  1  0  0  0  0  0  0
  159.7490  214.4350  150.7230 C   0  0  1  0  0  3  0  0  0  0  0  0
  158.5280  213.3170  148.3180 C   0  0  0  0  0  2  0  0  0  0  0  0
  158.2560  214.4490  150.5580 C   0  0  2  0  0  3  0  0  0  0  0  0
  160.0470  213.1850  148.5520 C   0  0  1  0  0  3  0  0  0  0  0  0
  159.5520  214.1470  152.0880 O   0  0  0  0  0  0  0  0  0  0  0  0
  160.4240  213.2440  150.0390 C   0  0  0  0  0  2  0  0  0  0  0  0
  158.1840  214.1590  151.9920 N   0  0  0  0  0  0  0  0  0  0  0  0
  157.7200  213.3480  149.6130 C   0  0  1  0  0  3  0  0  0  0  0  0
  160.5790  211.9010  147.9180 C   0  0  2  0  0  3  0  0  0  0  0  0
  161.9400  211.7550  148.2010 O   0  0  0  0  0  1  0  0  0  0  0  0
  160.3920  211.9360  146.4770 N   0  0  0  0  0  2  0  0  0  0  0  0
  161.1470  213.0690  145.9710 C   0  0  0  0  0  2  0  0  0  0  0  0
  160.2600  213.9150  145.0860 C   0  0  0  0  0  1  0  0  0  0  0  0
  1  5  1  0  0  0  0
  2  6  2  0  0  0  0
  3  2  1  0  0  0  0
  3  1  2  0  0  0  0
  5  4  2  0  0  0  0
  5 27  1  0  0  0  0
  6  4  1  0  0  0  0
  8  9  1  0  0  0  0
  8 11  1  0  0  0  0
  9 13  1  6  0  0  0
  9  7  1  0  0  0  0
 10  8  2  0  0  0  0
 11  7  1  0  0  0  0
 11  2  1  0  0  0  0
 13 12  1  6  0  0  0
 13 14  1  0  0  0  0
 15 14  1  0  0  0  0
 16 15  2  0  0  0  0
 17 19  1  0  0  0  0
 19 15  1  1  0  0  0
 20 18  1  6  0  0  0
 20 17  1  0  0  0  0
 20 19  1  0  0  0  0
 21 20  1  0  0  0  0
 22 26  1  0  0  0  0
 22 25  1  0  0  0  0
 23 24  1  0  0  0  0
 23 21  1  1  0  0  0
 25 24  1  0  0  0  0
 26 23  1  0  0  0  0
 27 28  1  0  0  0  0
 29 28  1  0  0  0  0
 30 33  1  0  0  0  0
 31 30  2  0  0  0  0
 32 29  1  0  0  0  0
 32 30  1  0  0  0  0
 34 32  1  0  0  0  0
 36 41  1  6  0  0  0
 36 40  1  0  0  0  0
 37 39  1  0  0  0  0
 37 43  1  0  0  0  0
 38 36  1  0  0  0  0
 38 42  1  1  0  0  0
 39 44  1  1  0  0  0
 39 41  1  0  0  0  0
 42 40  1  0  0  0  0
 42 34  1  0  0  0  0
 43 35  1  6  0  0  0
 43 38  1  0  0  0  0
 44 45  1  6  0  0  0
 46 44  1  0  0  0  0
 47 46  1  0  0  0  0
 48 47  1  0  0  0  0
M  END
>  <MODEL>
2

>  <REMARK>
 VINA RESULT:      -7.1      1.788      2.725
  Name = 
  16 active torsions:
  status: ('A' for Active; 'I' for Inactive)
    1  A    between atoms: C_1  and  N_15
    2  A    between atoms: C_3  and  N_28
    3  A    between atoms: C_3  and  C_44
    4  A    between atoms: C_4  and  N_15
    5  A    between atoms: C_4  and  C_19
    6  A    between atoms: C_10  and  N_41
    7  A    between atoms: C_16  and  O_35
    8  A    between atoms: C_16  and  C_36
    9  A    between atoms: N_18  and  C_30
   10  A    between atoms: N_18  and  C_44
   11  A    between atoms: C_20  and  C_22
   12  A    between atoms: C_20  and  C_42
   13  A    between atoms: C_25  and  C_40
   14  A    between atoms: N_28  and  C_48
   15  A    between atoms: O_35  and  C_40
   16  A    between atoms: N_39  and  C_48
                            x       y       z     vdW  Elec       q    Type
                         _______ _______ _______ _____ _____    ______ ____

>  <TORSDO>
F 16

$$$$
=
 OpenBabel11072409553D

 48 53  0  0  1  0  0  0  0  0999 V2000
  162.1000  209.7470  150.8760 C   0  0  0  0  0  3  0  0  0  0  0  0
  161.4310  207.6040  149.9650 C   0  0  0  0  0  0  0  0  0  0  0  0
  161.9260  208.9000  149.7790 C   0  0  0  0  0  3  0  0  0  0  0  0
  161.2890  208.0090  152.3520 C   0  0  0  0  0  3  0  0  0  0  0  0
  161.7790  209.3060  152.1680 C   0  0  0  0  0  0  0  0  0  0  0  0
  161.1150  207.1600  151.2540 C   0  0  0  0  0  3  0  0  0  0  0  0
  160.2510  205.7770  148.4330 C   0  0  0  0  0  2  0  0  0  0  0  0
  162.0010  206.4360  147.6070 C   0  0  0  0  0  0  0  0  0  0  0  0
  160.9420  205.4530  147.2180 C   0  0  2  0  0  3  0  0  0  0  0  0
  163.0800  206.8340  147.0990 O   0  0  0  0  0  0  0  0  0  0  0  0
  161.2520  206.7400  148.8430 N   0  0  0  0  0  0  0  0  0  0  0  0
  160.7040  207.0300  145.3920 F   0  0  0  0  0  0  0  0  0  0  0  0
  160.1450  205.9110  145.9940 C   0  0  1  0  0  3  0  0  0  0  0  0
  160.0540  204.8500  145.0520 O   0  0  0  0  0  0  0  0  0  0  0  0
  161.0050  203.8270  144.9590 C   0  0  0  0  0  0  0  0  0  0  0  0
  162.2150  204.1380  144.7940 O   0  0  0  0  0  0  0  0  0  0  0  0
  159.4790  202.1360  145.9780 C   0  0  0  0  0  2  0  0  0  0  0  0
  161.0330  200.3100  146.2540 F   0  0  0  0  0  0  0  0  0  0  0  0
  160.6140  202.3710  144.9840 C   0  0  2  0  0  3  0  0  0  0  0  0
  160.8740  201.6800  146.3230 C   0  0  1  0  0  0  0  0  0  0  0  0
  161.5080  202.4410  147.4870 C   0  0  0  0  0  2  0  0  0  0  0  0
  160.3910  200.9270  150.5710 C   0  0  0  0  0  2  0  0  0  0  0  0
  160.6710  202.3230  148.7520 C   0  0  2  0  0  3  0  0  0  0  0  0
  161.3750  203.0150  149.8960 C   0  0  0  0  0  2  0  0  0  0  0  0
  161.1690  202.1170  151.0910 C   0  0  0  0  0  2  0  0  0  0  0  0
  160.5000  200.9260  149.1220 N   0  0  0  0  0  2  0  0  0  0  0  0
  161.9480  210.1590  153.3060 N   0  0  0  0  0  2  0  0  0  0  0  0
  160.8500  210.5660  154.1730 C   0  0  0  0  0  2  0  0  0  0  0  0
  160.3270  211.9280  153.7460 C   0  0  0  0  0  2  0  0  0  0  0  0
  157.9530  211.5290  154.4610 C   0  0  0  0  0  0  0  0  0  0  0  0
  156.7200  211.5090  154.1990 O   0  0  0  0  0  0  0  0  0  0  0  0
  158.9080  211.8470  153.4370 N   0  0  0  0  0  0  0  0  0  0  0  0
  158.3770  211.2480  155.7540 O   0  0  0  0  0  1  0  0  0  0  0  0
  158.4690  212.2620  152.1120 C   0  0  0  0  0  2  0  0  0  0  0  0
  156.4520  213.2120  149.5820 O   0  0  0  0  0  1  0  0  0  0  0  0
  159.8640  214.4520  150.5100 C   0  0  1  0  0  3  0  0  0  0  0  0
  158.3750  213.4920  148.1900 C   0  0  0  0  0  2  0  0  0  0  0  0
  158.3830  214.2150  150.6080 C   0  0  2  0  0  3  0  0  0  0  0  0
  159.9120  213.6090  148.1330 C   0  0  1  0  0  3  0  0  0  0  0  0
  159.9880  213.9360  151.8150 O   0  0  0  0  0  0  0  0  0  0  0  0
  160.5630  213.5180  149.5200 C   0  0  0  0  0  2  0  0  0  0  0  0
  158.6440  213.7090  151.9580 N   0  0  0  0  0  0  0  0  0  0  0  0
  157.8450  213.1840  149.5880 C   0  0  1  0  0  3  0  0  0  0  0  0
  160.4970  212.5520  147.1990 C   0  0  2  0  0  3  0  0  0  0  0  0
  161.1470  211.5620  147.9430 O   0  0  0  0  0  1  0  0  0  0  0  0
  161.4480  213.1610  146.2830 N   0  0  0  0  0  2  0  0  0  0  0  0
  160.8280  213.1830  144.9690 C   0  0  0  0  0  2  0  0  0  0  0  0
  159.7950  212.0830  144.8780 C   0  0  0  0  0  1  0  0  0  0  0  0
  1  5  1  0  0  0  0
  2  6  2  0  0  0  0
  3  2  1  0  0  0  0
  3  1  2  0  0  0  0
  5  4  2  0  0  0  0
  5 27  1  0  0  0  0
  6  4  1  0  0  0  0
  7 11  1  0  0  0  0
  8 11  1  0  0  0  0
  9 13  1  6  0  0  0
  9  8  1  0  0  0  0
  9  7  1  0  0  0  0
 10  8  2  0  0  0  0
 11  2  1  0  0  0  0
 13 12  1  6  0  0  0
 14 13  1  0  0  0  0
 15 14  1  0  0  0  0
 16 15  2  0  0  0  0
 17 20  1  0  0  0  0
 19 15  1  1  0  0  0
 19 17  1  0  0  0  0
 19 20  1  0  0  0  0
 20 18  1  6  0  0  0
 20 21  1  0  0  0  0
 22 25  1  0  0  0  0
 23 21  1  6  0  0  0
 23 26  1  0  0  0  0
 23 24  1  0  0  0  0
 24 25  1  0  0  0  0
 26 22  1  0  0  0  0
 27 28  1  0  0  0  0
 29 28  1  0  0  0  0
 30 33  1  0  0  0  0
 31 30  2  0  0  0  0
 32 29  1  0  0  0  0
 32 30  1  0  0  0  0
 34 32  1  0  0  0  0
 36 41  1  6  0  0  0
 36 38  1  0  0  0  0
 36 40  1  0  0  0  0
 37 43  1  0  0  0  0
 38 42  1  1  0  0  0
 39 44  1  6  0  0  0
 39 37  1  0  0  0  0
 39 41  1  0  0  0  0
 40 42  1  0  0  0  0
 42 34  1  0  0  0  0
 43 35  1  6  0  0  0
 43 38  1  0  0  0  0
 44 45  1  1  0  0  0
 46 44  1  0  0  0  0
 47 46  1  0  0  0  0
 48 47  1  0  0  0  0
M  END
>  <MODEL>
3

>  <REMARK>
 VINA RESULT:      -6.3      1.708      3.311
  Name = 
  16 active torsions:
  status: ('A' for Active; 'I' for Inactive)
    1  A    between atoms: C_1  and  N_15
    2  A    between atoms: C_3  and  N_28
    3  A    between atoms: C_3  and  C_44
    4  A    between atoms: C_4  and  N_15
    5  A    between atoms: C_4  and  C_19
    6  A    between atoms: C_10  and  N_41
    7  A    between atoms: C_16  and  O_35
    8  A    between atoms: C_16  and  C_36
    9  A    between atoms: N_18  and  C_30
   10  A    between atoms: N_18  and  C_44
   11  A    between atoms: C_20  and  C_22
   12  A    between atoms: C_20  and  C_42
   13  A    between atoms: C_25  and  C_40
   14  A    between atoms: N_28  and  C_48
   15  A    between atoms: O_35  and  C_40
   16  A    between atoms: N_39  and  C_48
                            x       y       z     vdW  Elec       q    Type
                         _______ _______ _______ _____ _____    ______ ____

>  <TORSDO>
F 16

$$$$
=
 OpenBabel11072409553D

 48 53  0  0  1  0  0  0  0  0999 V2000
  162.3160  206.0010  152.1880 C   0  0  0  0  0  3  0  0  0  0  0  0
  161.1320  203.9960  151.5190 C   0  0  0  0  0  0  0  0  0  0  0  0
  162.1030  204.9720  151.2680 C   0  0  0  0  0  3  0  0  0  0  0  0
  160.5910  205.0860  153.6170 C   0  0  0  0  0  3  0  0  0  0  0  0
  161.5580  206.0650  153.3670 C   0  0  0  0  0  0  0  0  0  0  0  0
  160.3780  204.0550  152.6970 C   0  0  0  0  0  3  0  0  0  0  0  0
  160.0600  202.7560  149.4230 C   0  0  0  0  0  2  0  0  0  0  0  0
  161.4530  201.5880  150.3590 C   0  0  0  0  0  0  0  0  0  0  0  0
  160.5570  201.4350  149.1700 C   0  0  2  0  0  3  0  0  0  0  0  0
  162.3040  200.8640  150.9350 O   0  0  0  0  0  0  0  0  0  0  0  0
  160.9140  202.9460  150.5780 N   0  0  0  0  0  0  0  0  0  0  0  0
  160.8960  200.3700  147.0180 F   0  0  0  0  0  0  0  0  0  0  0  0
  161.3390  201.3840  147.8560 C   0  0  1  0  0  3  0  0  0  0  0  0
  161.2460  202.6360  147.1890 O   0  0  0  0  0  0  0  0  0  0  0  0
  161.0070  202.7540  145.8150 C   0  0  0  0  0  0  0  0  0  0  0  0
  160.1040  202.0470  145.2950 O   0  0  0  0  0  0  0  0  0  0  0  0
  162.8650  204.4190  145.7670 C   0  0  0  0  0  2  0  0  0  0  0  0
  161.9630  205.9800  144.1620 F   0  0  0  0  0  0  0  0  0  0  0  0
  161.8410  203.6510  144.9350 C   0  0  2  0  0  3  0  0  0  0  0  0
  161.6620  205.1430  145.2190 C   0  0  1  0  0  0  0  0  0  0  0  0
  160.6830  205.6240  146.2900 C   0  0  0  0  0  2  0  0  0  0  0  0
  162.3550  207.7750  148.6630 C   0  0  0  0  0  2  0  0  0  0  0  0
  161.4010  205.9670  147.5870 C   0  0  2  0  0  3  0  0  0  0  0  0
  160.3940  206.3840  148.6330 C   0  0  0  0  0  2  0  0  0  0  0  0
  161.0280  207.5470  149.3550 C   0  0  0  0  0  2  0  0  0  0  0  0
  162.3130  207.0840  147.3850 N   0  0  0  0  0  2  0  0  0  0  0  0
  161.7580  207.1130  154.3210 N   0  0  0  0  0  2  0  0  0  0  0  0
  160.9230  208.3040  154.3910 C   0  0  0  0  0  2  0  0  0  0  0  0
  161.7950  209.5480  154.4430 C   0  0  0  0  0  2  0  0  0  0  0  0
  162.1800  211.0780  156.3970 C   0  0  0  0  0  0  0  0  0  0  0  0
  161.7480  211.9170  157.2320 O   0  0  0  0  0  1  0  0  0  0  0  0
  161.2910  210.4740  155.4460 N   0  0  0  0  0  0  0  0  0  0  0  0
  163.5310  210.7520  156.4020 O   0  0  0  0  0  0  0  0  0  0  0  0
  159.9010  210.8990  155.3520 C   0  0  0  0  0  2  0  0  0  0  0  0
  159.9620  214.1430  156.2680 O   0  0  0  0  0  1  0  0  0  0  0  0
  157.8650  212.4330  153.6760 C   0  0  1  0  0  3  0  0  0  0  0  0
  157.5960  214.2510  155.9440 C   0  0  0  0  0  2  0  0  0  0  0  0
  159.0890  212.9970  154.3420 C   0  0  2  0  0  3  0  0  0  0  0  0
  156.3500  213.5670  155.3450 C   0  0  1  0  0  3  0  0  0  0  0  0
  158.5560  211.2130  153.5370 O   0  0  0  0  0  0  0  0  0  0  0  0
  156.6850  212.2490  154.6330 C   0  0  0  0  0  2  0  0  0  0  0  0
  159.7000  211.6820  154.1290 N   0  0  0  0  0  0  0  0  0  0  0  0
  158.8660  213.4130  155.8140 C   0  0  1  0  0  3  0  0  0  0  0  0
  155.2930  213.3380  156.4220 C   0  0  2  0  0  3  0  0  0  0  0  0
  155.2130  214.4530  157.2610 O   0  0  0  0  0  1  0  0  0  0  0  0
  155.6300  212.1670  157.2160 N   0  0  0  0  0  2  0  0  0  0  0  0
  154.4560  211.3120  157.2450 C   0  0  0  0  0  2  0  0  0  0  0  0
  154.6360  210.1700  156.2710 C   0  0  0  0  0  1  0  0  0  0  0  0
  1  5  1  0  0  0  0
  2  6  2  0  0  0  0
  3  2  1  0  0  0  0
  3  1  2  0  0  0  0
  5  4  2  0  0  0  0
  5 27  1  0  0  0  0
  6  4  1  0  0  0  0
  7 11  1  0  0  0  0
  8 11  1  0  0  0  0
  8 10  2  0  0  0  0
  9 13  1  6  0  0  0
  9  7  1  0  0  0  0
  9  8  1  0  0  0  0
 11  2  1  0  0  0  0
 13 12  1  6  0  0  0
 14 13  1  0  0  0  0
 15 14  1  0  0  0  0
 16 15  2  0  0  0  0
 19 20  1  0  0  0  0
 19 17  1  0  0  0  0
 19 15  1  1  0  0  0
 20 18  1  6  0  0  0
 20 17  1  0  0  0  0
 20 21  1  0  0  0  0
 22 25  1  0  0  0  0
 23 21  1  6  0  0  0
 23 24  1  0  0  0  0
 24 25  1  0  0  0  0
 26 23  1  0  0  0  0
 26 22  1  0  0  0  0
 27 28  1  0  0  0  0
 28 29  1  0  0  0  0
 29 32  1  0  0  0  0
 30 33  2  0  0  0  0
 30 31  1  0  0  0  0
 32 30  1  0  0  0  0
 34 32  1  0  0  0  0
 36 38  1  0  0  0  0
 36 41  1  1  0  0  0
 38 42  1  1  0  0  0
 38 43  1  0  0  0  0
 39 37  1  0  0  0  0
 39 44  1  1  0  0  0
 40 36  1  0  0  0  0
 40 42  1  0  0  0  0
 41 39  1  0  0  0  0
 42 34  1  0  0  0  0
 43 37  1  0  0  0  0
 43 35  1  6  0  0  0
 44 46  1  0  0  0  0
 44 45  1  1  0  0  0
 46 47  1  0  0  0  0
 48 47  1  0  0  0  0
M  END
>  <MODEL>
4

>  <REMARK>
 VINA RESULT:      -6.2      3.128      5.286
  Name = 
  16 active torsions:
  status: ('A' for Active; 'I' for Inactive)
    1  A    between atoms: C_1  and  N_15
    2  A    between atoms: C_3  and  N_28
    3  A    between atoms: C_3  and  C_44
    4  A    between atoms: C_4  and  N_15
    5  A    between atoms: C_4  and  C_19
    6  A    between atoms: C_10  and  N_41
    7  A    between atoms: C_16  and  O_35
    8  A    between atoms: C_16  and  C_36
    9  A    between atoms: N_18  and  C_30
   10  A    between atoms: N_18  and  C_44
   11  A    between atoms: C_20  and  C_22
   12  A    between atoms: C_20  and  C_42
   13  A    between atoms: C_25  and  C_40
   14  A    between atoms: N_28  and  C_48
   15  A    between atoms: O_35  and  C_40
   16  A    between atoms: N_39  and  C_48
                            x       y       z     vdW  Elec       q    Type
                         _______ _______ _______ _____ _____    ______ ____

>  <TORSDO>
F 16

$$$$
=
 OpenBabel11072409553D

 48 53  0  0  1  0  0  0  0  0999 V2000
  162.3340  204.7320  144.5250 C   0  0  0  0  0  3  0  0  0  0  0  0
  161.5150  205.3910  146.7080 C   0  0  0  0  0  0  0  0  0  0  0  0
  162.3940  204.6430  145.9170 C   0  0  0  0  0  3  0  0  0  0  0  0
  160.5160  206.3200  144.7020 C   0  0  0  0  0  3  0  0  0  0  0  0
  161.3910  205.5700  143.9100 C   0  0  0  0  0  0  0  0  0  0  0  0
  160.5770  206.2310  146.0970 C   0  0  0  0  0  3  0  0  0  0  0  0
  161.8470  206.2210  149.2140 C   0  0  0  0  0  2  0  0  0  0  0  0
  161.3980  204.2280  149.1330 C   0  0  0  0  0  0  0  0  0  0  0  0
  161.6800  205.2150  150.2220 C   0  0  2  0  0  3  0  0  0  0  0  0
  161.1290  203.0010  149.0870 O   0  0  0  0  0  0  0  0  0  0  0  0
  161.5770  205.2980  148.1300 N   0  0  0  0  0  0  0  0  0  0  0  0
  160.3420  204.6270  152.1570 F   0  0  0  0  0  0  0  0  0  0  0  0
  160.4460  205.4990  151.0820 C   0  0  1  0  0  3  0  0  0  0  0  0
  160.4810  206.8410  151.5500 O   0  0  0  0  0  0  0  0  0  0  0  0
  161.5180  207.3470  152.3420 C   0  0  0  0  0  0  0  0  0  0  0  0
  162.3460  208.1410  151.8210 O   0  0  0  0  0  0  0  0  0  0  0  0
  160.3630  206.8170  154.4890 C   0  0  0  0  0  2  0  0  0  0  0  0
  161.8930  207.8630  156.0360 F   0  0  0  0  0  0  0  0  0  0  0  0
  161.7090  206.9190  153.7750 C   0  0  2  0  0  3  0  0  0  0  0  0
  161.2830  207.9700  154.8010 C   0  0  1  0  0  0  0  0  0  0  0  0
  160.7510  209.3310  154.3520 C   0  0  0  0  0  2  0  0  0  0  0  0
  160.2400  212.3970  156.1930 C   0  0  0  0  0  2  0  0  0  0  0  0
  160.3300  210.1830  155.5400 C   0  0  2  0  0  3  0  0  0  0  0  0
  158.8800  210.5830  155.3930 C   0  0  0  0  0  2  0  0  0  0  0  0
  158.8160  212.0210  155.8450 C   0  0  0  0  0  2  0  0  0  0  0  0
  161.1190  211.4050  155.5970 N   0  0  0  0  0  2  0  0  0  0  0  0
  161.3100  205.6740  142.4850 N   0  0  0  0  0  2  0  0  0  0  0  0
  162.0340  206.6730  141.7110 C   0  0  0  0  0  2  0  0  0  0  0  0
  162.0890  206.2600  140.2490 C   0  0  0  0  0  2  0  0  0  0  0  0
  162.2440  207.3030  137.9700 C   0  0  0  0  0  0  0  0  0  0  0  0
  162.2340  208.3240  137.2310 O   0  0  0  0  0  0  0  0  0  0  0  0
  162.1360  207.4370  139.3960 N   0  0  0  0  0  0  0  0  0  0  0  0
  162.3500  206.0460  137.3890 O   0  0  0  0  0  1  0  0  0  0  0  0
  161.9010  208.7380  140.0060 C   0  0  0  0  0  2  0  0  0  0  0  0
  163.7540  211.5000  139.4480 O   0  0  0  0  0  1  0  0  0  0  0  0
  160.0420  211.1480  139.8120 C   0  0  1  0  0  3  0  0  0  0  0  0
  162.2590  212.7500  140.8320 C   0  0  0  0  0  2  0  0  0  0  0  0
  161.4100  211.0180  139.2040 C   0  0  2  0  0  3  0  0  0  0  0  0
  160.8880  212.7830  141.5380 C   0  0  1  0  0  3  0  0  0  0  0  0
  159.8900  209.7560  139.6620 O   0  0  0  0  0  0  0  0  0  0  0  0
  160.0700  211.5050  141.3000 C   0  0  0  0  0  2  0  0  0  0  0  0
  161.1260  209.5850  139.0940 N   0  0  0  0  0  0  0  0  0  0  0  0
  162.5600  211.4120  140.1600 C   0  0  1  0  0  3  0  0  0  0  0  0
  161.0590  213.0340  143.0340 C   0  0  2  0  0  3  0  0  0  0  0  0
  162.3570  212.6960  143.4310 O   0  0  0  0  0  1  0  0  0  0  0  0
  160.1070  212.2370  143.7910 N   0  0  0  0  0  2  0  0  0  0  0  0
  159.1280  213.1520  144.3510 C   0  0  0  0  0  2  0  0  0  0  0  0
  158.6100  212.6010  145.6610 C   0  0  0  0  0  1  0  0  0  0  0  0
  1  3  1  0  0  0  0
  2 11  1  0  0  0  0
  3  2  2  0  0  0  0
  4  6  2  0  0  0  0
  5  1  2  0  0  0  0
  5  4  1  0  0  0  0
  6  2  1  0  0  0  0
  7  9  1  0  0  0  0
  8  9  1  0  0  0  0
  9 13  1  1  0  0  0
 10  8  2  0  0  0  0
 11  8  1  0  0  0  0
 11  7  1  0  0  0  0
 13 14  1  0  0  0  0
 13 12  1  1  0  0  0
 14 15  1  0  0  0  0
 16 15  2  0  0  0  0
 17 20  1  0  0  0  0
 19 15  1  6  0  0  0
 19 17  1  0  0  0  0
 19 20  1  0  0  0  0
 20 18  1  1  0  0  0
 21 20  1  0  0  0  0
 23 21  1  6  0  0  0
 23 26  1  0  0  0  0
 24 23  1  0  0  0  0
 24 25  1  0  0  0  0
 25 22  1  0  0  0  0
 26 22  1  0  0  0  0
 27  5  1  0  0  0  0
 28 27  1  0  0  0  0
 29 28  1  0  0  0  0
 30 32  1  0  0  0  0
 31 30  2  0  0  0  0
 32 34  1  0  0  0  0
 32 29  1  0  0  0  0
 33 30  1  0  0  0  0
 36 41  1  1  0  0  0
 37 39  1  0  0  0  0
 38 42  1  1  0  0  0
 38 36  1  0  0  0  0
 38 43  1  0  0  0  0
 39 44  1  1  0  0  0
 40 36  1  0  0  0  0
 41 39  1  0  0  0  0
 42 40  1  0  0  0  0
 42 34  1  0  0  0  0
 43 35  1  6  0  0  0
 43 37  1  0  0  0  0
 44 45  1  1  0  0  0
 44 46  1  0  0  0  0
 46 47  1  0  0  0  0
 47 48  1  0  0  0  0
M  END
>  <MODEL>
5

>  <REMARK>
 VINA RESULT:      -6.0      4.714      9.839
  Name = 
  16 active torsions:
  status: ('A' for Active; 'I' for Inactive)
    1  A    between atoms: C_1  and  N_15
    2  A    between atoms: C_3  and  N_28
    3  A    between atoms: C_3  and  C_44
    4  A    between atoms: C_4  and  N_15
    5  A    between atoms: C_4  and  C_19
    6  A    between atoms: C_10  and  N_41
    7  A    between atoms: C_16  and  O_35
    8  A    between atoms: C_16  and  C_36
    9  A    between atoms: N_18  and  C_30
   10  A    between atoms: N_18  and  C_44
   11  A    between atoms: C_20  and  C_22
   12  A    between atoms: C_20  and  C_42
   13  A    between atoms: C_25  and  C_40
   14  A    between atoms: N_28  and  C_48
   15  A    between atoms: O_35  and  C_40
   16  A    between atoms: N_39  and  C_48
                            x       y       z     vdW  Elec       q    Type
                         _______ _______ _______ _____ _____    ______ ____

>  <TORSDO>
F 16

$$$$
=
 OpenBabel11072409553D

 48 53  0  0  1  0  0  0  0  0999 V2000
  162.3120  204.8330  144.5110 C   0  0  0  0  0  3  0  0  0  0  0  0
  161.4510  205.3500  146.7170 C   0  0  0  0  0  0  0  0  0  0  0  0
  162.3850  204.7020  145.9000 C   0  0  0  0  0  3  0  0  0  0  0  0
  160.3730  206.2610  144.7450 C   0  0  0  0  0  3  0  0  0  0  0  0
  161.3020  205.6110  143.9270 C   0  0  0  0  0  0  0  0  0  0  0  0
  160.4460  206.1310  146.1350 C   0  0  0  0  0  3  0  0  0  0  0  0
  161.8990  206.0800  149.2360 C   0  0  0  0  0  2  0  0  0  0  0  0
  161.2650  204.1400  149.1140 C   0  0  0  0  0  0  0  0  0  0  0  0
  161.6540  205.0680  150.2220 C   0  0  2  0  0  3  0  0  0  0  0  0
  160.8830  202.9450  149.0430 O   0  0  0  0  0  0  0  0  0  0  0  0
  161.5270  205.2150  148.1350 N   0  0  0  0  0  0  0  0  0  0  0  0
  160.3340  204.5910  152.1990 F   0  0  0  0  0  0  0  0  0  0  0  0
  160.4660  205.4420  151.1100 C   0  0  1  0  0  3  0  0  0  0  0  0
  160.6020  206.7840  151.5610 O   0  0  0  0  0  0  0  0  0  0  0  0
  161.3750  207.1430  152.6700 C   0  0  0  0  0  0  0  0  0  0  0  0
  162.3200  206.3870  153.0200 O   0  0  0  0  0  0  0  0  0  0  0  0
  160.1450  209.3130  152.7270 C   0  0  0  0  0  2  0  0  0  0  0  0
  161.8110  210.6910  153.7990 F   0  0  0  0  0  0  0  0  0  0  0  0
  161.0690  208.3690  153.4930 C   0  0  2  0  0  3  0  0  0  0  0  0
  161.5990  209.6710  152.8920 C   0  0  1  0  0  0  0  0  0  0  0  0
  162.3950  209.6640  151.5860 C   0  0  0  0  0  2  0  0  0  0  0  0
  161.4800  212.1500  149.1300 C   0  0  0  0  0  2  0  0  0  0  0  0
  161.5860  210.2490  150.4380 C   0  0  2  0  0  3  0  0  0  0  0  0
  162.2150  209.8610  149.1200 C   0  0  0  0  0  2  0  0  0  0  0  0
  162.1210  211.0940  148.2560 C   0  0  0  0  0  2  0  0  0  0  0  0
  161.5770  211.7030  150.5100 N   0  0  0  0  0  2  0  0  0  0  0  0
  161.2070  205.7560  142.5050 N   0  0  0  0  0  2  0  0  0  0  0  0
  161.9790  206.7300  141.7450 C   0  0  0  0  0  2  0  0  0  0  0  0
  162.0650  206.3020  140.2890 C   0  0  0  0  0  2  0  0  0  0  0  0
  162.2320  207.3230  138.0010 C   0  0  0  0  0  0  0  0  0  0  0  0
  162.2320  208.3370  137.2520 O   0  0  0  0  0  0  0  0  0  0  0  0
  162.1230  207.4710  139.4250 N   0  0  0  0  0  0  0  0  0  0  0  0
  162.3310  206.0600  137.4310 O   0  0  0  0  0  1  0  0  0  0  0  0
  161.8970  208.7800  140.0230 C   0  0  0  0  0  2  0  0  0  0  0  0
  163.8050  211.4970  139.4350 O   0  0  0  0  0  1  0  0  0  0  0  0
  160.0840  211.2220  139.7860 C   0  0  1  0  0  3  0  0  0  0  0  0
  162.3280  212.7950  140.7950 C   0  0  0  0  0  2  0  0  0  0  0  0
  161.4530  211.0570  139.1870 C   0  0  2  0  0  3  0  0  0  0  0  0
  160.9540  212.8640  141.4940 C   0  0  1  0  0  3  0  0  0  0  0  0
  159.9070  209.8310  139.6550 O   0  0  0  0  0  0  0  0  0  0  0  0
  160.1140  211.5990  141.2690 C   0  0  0  0  0  2  0  0  0  0  0  0
  161.1420  209.6280  139.0950 N   0  0  0  0  0  0  0  0  0  0  0  0
  162.6060  211.4420  140.1430 C   0  0  1  0  0  3  0  0  0  0  0  0
  161.1240  213.1320  142.9870 C   0  0  2  0  0  3  0  0  0  0  0  0
  162.4820  213.1610  143.3170 O   0  0  0  0  0  1  0  0  0  0  0  0
  160.4660  212.0930  143.7630 N   0  0  0  0  0  2  0  0  0  0  0  0
  160.2850  212.6080  145.1090 C   0  0  0  0  0  2  0  0  0  0  0  0
  158.8170  212.5800  145.4690 C   0  0  0  0  0  1  0  0  0  0  0  0
  1  3  1  0  0  0  0
  2 11  1  0  0  0  0
  3  2  2  0  0  0  0
  4  6  2  0  0  0  0
  5  1  2  0  0  0  0
  5  4  1  0  0  0  0
  6  2  1  0  0  0  0
  7  9  1  0  0  0  0
  8  9  1  0  0  0  0
  9 13  1  1  0  0  0
 10  8  2  0  0  0  0
 11  8  1  0  0  0  0
 11  7  1  0  0  0  0
 13 14  1  0  0  0  0
 13 12  1  1  0  0  0
 14 15  1  0  0  0  0
 15 16  2  0  0  0  0
 17 20  1  0  0  0  0
 17 19  1  0  0  0  0
 19 15  1  6  0  0  0
 20 19  1  0  0  0  0
 20 18  1  1  0  0  0
 21 20  1  0  0  0  0
 22 26  1  0  0  0  0
 23 26  1  0  0  0  0
 23 21  1  1  0  0  0
 24 23  1  0  0  0  0
 25 24  1  0  0  0  0
 25 22  1  0  0  0  0
 27  5  1  0  0  0  0
 28 27  1  0  0  0  0
 29 28  1  0  0  0  0
 30 32  1  0  0  0  0
 31 30  2  0  0  0  0
 32 34  1  0  0  0  0
 32 29  1  0  0  0  0
 33 30  1  0  0  0  0
 36 41  1  1  0  0  0
 37 39  1  0  0  0  0
 38 42  1  1  0  0  0
 38 36  1  0  0  0  0
 38 43  1  0  0  0  0
 39 44  1  1  0  0  0
 40 36  1  0  0  0  0
 41 39  1  0  0  0  0
 42 40  1  0  0  0  0
 42 34  1  0  0  0  0
 43 35  1  6  0  0  0
 43 37  1  0  0  0  0
 44 45  1  6  0  0  0
 44 46  1  0  0  0  0
 46 47  1  0  0  0  0
 47 48  1  0  0  0  0
M  END
>  <MODEL>
6

>  <REMARK>
 VINA RESULT:      -5.9      4.743      9.383
  Name = 
  16 active torsions:
  status: ('A' for Active; 'I' for Inactive)
    1  A    between atoms: C_1  and  N_15
    2  A    between atoms: C_3  and  N_28
    3  A    between atoms: C_3  and  C_44
    4  A    between atoms: C_4  and  N_15
    5  A    between atoms: C_4  and  C_19
    6  A    between atoms: C_10  and  N_41
    7  A    between atoms: C_16  and  O_35
    8  A    between atoms: C_16  and  C_36
    9  A    between atoms: N_18  and  C_30
   10  A    between atoms: N_18  and  C_44
   11  A    between atoms: C_20  and  C_22
   12  A    between atoms: C_20  and  C_42
   13  A    between atoms: C_25  and  C_40
   14  A    between atoms: N_28  and  C_48
   15  A    between atoms: O_35  and  C_40
   16  A    between atoms: N_39  and  C_48
                            x       y       z     vdW  Elec       q    Type
                         _______ _______ _______ _____ _____    ______ ____

>  <TORSDO>
F 16

$$$$
=
 OpenBabel11072409553D

 48 53  0  0  1  0  0  0  0  0999 V2000
  162.4690  204.9040  144.5010 C   0  0  0  0  0  3  0  0  0  0  0  0
  161.5040  205.2550  146.6950 C   0  0  0  0  0  0  0  0  0  0  0  0
  162.5110  204.7190  145.8840 C   0  0  0  0  0  3  0  0  0  0  0  0
  160.4170  206.1650  144.7280 C   0  0  0  0  0  3  0  0  0  0  0  0
  161.4190  205.6260  143.9150 C   0  0  0  0  0  0  0  0  0  0  0  0
  160.4580  205.9800  146.1140 C   0  0  0  0  0  3  0  0  0  0  0  0
  161.9380  205.8700  149.2470 C   0  0  0  0  0  2  0  0  0  0  0  0
  161.2190  203.9680  149.0420 C   0  0  0  0  0  0  0  0  0  0  0  0
  161.6300  204.8350  150.1910 C   0  0  2  0  0  3  0  0  0  0  0  0
  160.7830  202.7940  148.9190 O   0  0  0  0  0  0  0  0  0  0  0  0
  161.5470  205.0640  148.1090 N   0  0  0  0  0  0  0  0  0  0  0  0
  160.0820  204.2190  151.9520 F   0  0  0  0  0  0  0  0  0  0  0  0
  160.4440  205.2310  151.0720 C   0  0  1  0  0  3  0  0  0  0  0  0
  160.7540  206.4140  151.7980 O   0  0  0  0  0  0  0  0  0  0  0  0
  161.7520  206.4700  152.7770 C   0  0  0  0  0  0  0  0  0  0  0  0
  162.9550  206.5420  152.4120 O   0  0  0  0  0  0  0  0  0  0  0  0
  160.0830  207.0310  154.5450 C   0  0  0  0  0  2  0  0  0  0  0  0
  161.5820  207.7000  156.3140 F   0  0  0  0  0  0  0  0  0  0  0  0
  161.4310  206.3790  154.2480 C   0  0  2  0  0  3  0  0  0  0  0  0
  161.3520  207.7340  154.9520 C   0  0  1  0  0  0  0  0  0  0  0  0
  161.6190  209.0310  154.1880 C   0  0  0  0  0  2  0  0  0  0  0  0
  159.7510  212.1220  154.1030 C   0  0  0  0  0  2  0  0  0  0  0  0
  160.3710  209.8960  154.1060 C   0  0  2  0  0  3  0  0  0  0  0  0
  160.0710  210.2240  152.6620 C   0  0  0  0  0  2  0  0  0  0  0  0
  159.6390  211.6700  152.6630 C   0  0  0  0  0  2  0  0  0  0  0  0
  160.5750  211.1540  154.8090 N   0  0  0  0  0  2  0  0  0  0  0  0
  161.3560  205.8260  142.4990 N   0  0  0  0  0  2  0  0  0  0  0  0
  161.9720  206.9580  141.8200 C   0  0  0  0  0  2  0  0  0  0  0  0
  162.3540  206.5680  140.4010 C   0  0  0  0  0  2  0  0  0  0  0  0
  161.9330  207.3600  138.0550 C   0  0  0  0  0  0  0  0  0  0  0  0
  161.5380  208.2500  137.2540 O   0  0  0  0  0  0  0  0  0  0  0  0
  161.9540  207.6110  139.4690 N   0  0  0  0  0  0  0  0  0  0  0  0
  162.3380  206.1290  137.5540 O   0  0  0  0  0  1  0  0  0  0  0  0
  161.4170  208.8500  140.0130 C   0  0  0  0  0  2  0  0  0  0  0  0
  160.4580  211.0570  142.3770 O   0  0  0  0  0  1  0  0  0  0  0  0
  162.2750  211.6480  139.1530 C   0  0  1  0  0  3  0  0  0  0  0  0
  159.9820  212.6490  140.6580 C   0  0  0  0  0  2  0  0  0  0  0  0
  162.0290  211.1760  140.5580 C   0  0  2  0  0  3  0  0  0  0  0  0
  160.1630  213.0280  139.1740 C   0  0  1  0  0  3  0  0  0  0  0  0
  162.6760  210.3370  138.8290 O   0  0  0  0  0  0  0  0  0  0  0  0
  160.9900  211.9940  138.3970 C   0  0  0  0  0  2  0  0  0  0  0  0
  162.4770  209.8590  140.0990 N   0  0  0  0  0  0  0  0  0  0  0  0
  160.5520  211.2750  141.0030 C   0  0  1  0  0  3  0  0  0  0  0  0
  158.8060  213.2360  138.5040 C   0  0  2  0  0  3  0  0  0  0  0  0
  157.8060  213.3520  139.4740 O   0  0  0  0  0  1  0  0  0  0  0  0
  158.4980  212.1140  137.6320 N   0  0  0  0  0  2  0  0  0  0  0  0
  157.3560  211.4230  138.2050 C   0  0  0  0  0  2  0  0  0  0  0  0
  157.7850  210.0630  138.7070 C   0  0  0  0  0  1  0  0  0  0  0  0
  1  3  1  0  0  0  0
  2 11  1  0  0  0  0
  3  2  2  0  0  0  0
  4  6  2  0  0  0  0
  5  1  2  0  0  0  0
  5  4  1  0  0  0  0
  6  2  1  0  0  0  0
  7  9  1  0  0  0  0
  8  9  1  0  0  0  0
  9 13  1  1  0  0  0
 10  8  2  0  0  0  0
 11  8  1  0  0  0  0
 11  7  1  0  0  0  0
 13 14  1  0  0  0  0
 13 12  1  1  0  0  0
 14 15  1  0  0  0  0
 16 15  2  0  0  0  0
 17 20  1  0  0  0  0
 19 15  1  6  0  0  0
 19 17  1  0  0  0  0
 19 20  1  0  0  0  0
 20 18  1  1  0  0  0
 21 20  1  0  0  0  0
 22 26  1  0  0  0  0
 23 21  1  6  0  0  0
 23 26  1  0  0  0  0
 24 25  1  0  0  0  0
 24 23  1  0  0  0  0
 25 22  1  0  0  0  0
 27  5  1  0  0  0  0
 28 27  1  0  0  0  0
 29 28  1  0  0  0  0
 30 32  1  0  0  0  0
 31 30  2  0  0  0  0
 32 34  1  0  0  0  0
 32 29  1  0  0  0  0
 33 30  1  0  0  0  0
 34 42  1  0  0  0  0
 36 41  1  6  0  0  0
 36 38  1  0  0  0  0
 37 43  1  0  0  0  0
 38 42  1  6  0  0  0
 38 43  1  0  0  0  0
 39 44  1  6  0  0  0
 39 37  1  0  0  0  0
 40 36  1  0  0  0  0
 40 42  1  0  0  0  0
 41 39  1  0  0  0  0
 43 35  1  1  0  0  0
 44 45  1  1  0  0  0
 46 47  1  0  0  0  0
 46 44  1  0  0  0  0
 47 48  1  0  0  0  0
M  END
>  <MODEL>
7

>  <REMARK>
 VINA RESULT:      -5.9      5.246      9.896
  Name = 
  16 active torsions:
  status: ('A' for Active; 'I' for Inactive)
    1  A    between atoms: C_1  and  N_15
    2  A    between atoms: C_3  and  N_28
    3  A    between atoms: C_3  and  C_44
    4  A    between atoms: C_4  and  N_15
    5  A    between atoms: C_4  and  C_19
    6  A    between atoms: C_10  and  N_41
    7  A    between atoms: C_16  and  O_35
    8  A    between atoms: C_16  and  C_36
    9  A    between atoms: N_18  and  C_30
   10  A    between atoms: N_18  and  C_44
   11  A    between atoms: C_20  and  C_22
   12  A    between atoms: C_20  and  C_42
   13  A    between atoms: C_25  and  C_40
   14  A    between atoms: N_28  and  C_48
   15  A    between atoms: O_35  and  C_40
   16  A    between atoms: N_39  and  C_48
                            x       y       z     vdW  Elec       q    Type
                         _______ _______ _______ _____ _____    ______ ____

>  <TORSDO>
F 16

$$$$
=
 OpenBabel11072409553D

 48 53  0  0  1  0  0  0  0  0999 V2000
  160.4760  203.7750  149.3120 C   0  0  0  0  0  3  0  0  0  0  0  0
  161.1740  204.8770  151.3540 C   0  0  0  0  0  0  0  0  0  0  0  0
  160.8070  204.9410  150.0050 C   0  0  0  0  0  3  0  0  0  0  0  0
  160.8760  202.4700  151.3100 C   0  0  0  0  0  3  0  0  0  0  0  0
  160.5120  202.5320  149.9610 C   0  0  0  0  0  0  0  0  0  0  0  0
  161.2060  203.6380  152.0050 C   0  0  0  0  0  3  0  0  0  0  0  0
  162.3320  207.2330  151.7860 C   0  0  0  0  0  2  0  0  0  0  0  0
  161.1880  206.6510  153.3780 C   0  0  0  0  0  0  0  0  0  0  0  0
  162.0420  207.8370  153.0540 C   0  0  2  0  0  3  0  0  0  0  0  0
  160.4920  206.2940  154.3620 O   0  0  0  0  0  0  0  0  0  0  0  0
  161.5130  206.0690  152.0600 N   0  0  0  0  0  0  0  0  0  0  0  0
  159.8550  208.8560  152.8150 F   0  0  0  0  0  0  0  0  0  0  0  0
  161.2170  209.1140  152.8780 C   0  0  1  0  0  3  0  0  0  0  0  0
  161.4900  210.0170  153.9430 O   0  0  0  0  0  0  0  0  0  0  0  0
  160.6720  210.1330  155.0730 C   0  0  0  0  0  0  0  0  0  0  0  0
  159.9620  209.1490  155.4110 O   0  0  0  0  0  0  0  0  0  0  0  0
  159.1660  211.5890  156.4280 C   0  0  0  0  0  2  0  0  0  0  0  0
  159.8400  213.7510  155.5930 F   0  0  0  0  0  0  0  0  0  0  0  0
  160.5700  211.4190  155.8540 C   0  0  2  0  0  3  0  0  0  0  0  0
  159.5950  212.4340  155.2560 C   0  0  1  0  0  0  0  0  0  0  0  0
  158.8430  212.1290  153.9600 C   0  0  0  0  0  2  0  0  0  0  0  0
  159.6730  213.2820  150.6380 C   0  0  0  0  0  2  0  0  0  0  0  0
  159.1470  213.1610  152.8840 C   0  0  2  0  0  3  0  0  0  0  0  0
  157.8660  213.5740  152.1970 C   0  0  0  0  0  2  0  0  0  0  0  0
  158.2160  213.6800  150.7330 C   0  0  0  0  0  2  0  0  0  0  0  0
  160.0270  212.5980  151.8710 N   0  0  0  0  0  2  0  0  0  0  0  0
  160.1800  201.3230  149.2690 N   0  0  0  0  0  2  0  0  0  0  0  0
  161.1760  200.4250  148.7010 C   0  0  0  0  0  2  0  0  0  0  0  0
  161.9600  201.1390  147.6120 C   0  0  0  0  0  2  0  0  0  0  0  0
  160.7120  200.4100  145.5590 C   0  0  0  0  0  0  0  0  0  0  0  0
  159.9210  200.6650  144.6110 O   0  0  0  0  0  0  0  0  0  0  0  0
  161.0930  201.4400  146.4840 N   0  0  0  0  0  0  0  0  0  0  0  0
  161.2050  199.1190  145.7020 O   0  0  0  0  0  1  0  0  0  0  0  0
  160.4880  202.7630  146.4160 C   0  0  0  0  0  2  0  0  0  0  0  0
  163.7310  203.6430  146.7110 O   0  0  0  0  0  1  0  0  0  0  0  0
  160.9090  205.4470  145.0290 C   0  0  1  0  0  3  0  0  0  0  0  0
  163.0620  205.9260  146.9420 C   0  0  0  0  0  2  0  0  0  0  0  0
  161.9490  204.3910  145.2770 C   0  0  2  0  0  3  0  0  0  0  0  0
  161.9200  206.9520  146.7840 C   0  0  1  0  0  3  0  0  0  0  0  0
  159.9490  204.4200  144.9460 O   0  0  0  0  0  0  0  0  0  0  0  0
  160.6260  206.3180  146.2550 C   0  0  0  0  0  2  0  0  0  0  0  0
  160.8600  203.4180  145.1580 N   0  0  0  0  0  0  0  0  0  0  0  0
  162.6250  204.4900  146.6640 C   0  0  1  0  0  3  0  0  0  0  0  0
  161.6590  207.6730  148.1040 C   0  0  2  0  0  3  0  0  0  0  0  0
  160.4580  207.2280  148.6640 O   0  0  0  0  0  1  0  0  0  0  0  0
  161.5800  209.1090  147.8850 N   0  0  0  0  0  2  0  0  0  0  0  0
  162.1560  209.7560  149.0520 C   0  0  0  0  0  2  0  0  0  0  0  0
  162.2520  211.2450  148.8090 C   0  0  0  0  0  1  0  0  0  0  0  0
  1  5  2  0  0  0  0
  1  3  1  0  0  0  0
  2  6  1  0  0  0  0
  2 11  1  0  0  0  0
  3  2  2  0  0  0  0
  4  6  2  0  0  0  0
  5  4  1  0  0  0  0
  7 11  1  0  0  0  0
  7  9  1  0  0  0  0
  8 10  2  0  0  0  0
  9 13  1  6  0  0  0
  9  8  1  0  0  0  0
 11  8  1  0  0  0  0
 13 12  1  1  0  0  0
 13 14  1  0  0  0  0
 14 15  1  0  0  0  0
 15 16  2  0  0  0  0
 19 15  1  6  0  0  0
 19 17  1  0  0  0  0
 20 18  1  1  0  0  0
 20 19  1  0  0  0  0
 20 17  1  0  0  0  0
 21 20  1  0  0  0  0
 22 25  1  0  0  0  0
 22 26  1  0  0  0  0
 23 21  1  1  0  0  0
 24 23  1  0  0  0  0
 25 24  1  0  0  0  0
 26 23  1  0  0  0  0
 27  5  1  0  0  0  0
 28 27  1  0  0  0  0
 29 28  1  0  0  0  0
 30 33  1  0  0  0  0
 30 32  1  0  0  0  0
 31 30  2  0  0  0  0
 32 29  1  0  0  0  0
 34 32  1  0  0  0  0
 36 38  1  0  0  0  0
 36 41  1  1  0  0  0
 38 42  1  1  0  0  0
 38 43  1  0  0  0  0
 39 37  1  0  0  0  0
 39 44  1  1  0  0  0
 40 36  1  0  0  0  0
 40 42  1  0  0  0  0
 41 39  1  0  0  0  0
 42 34  1  0  0  0  0
 43 35  1  6  0  0  0
 43 37  1  0  0  0  0
 44 45  1  6  0  0  0
 46 44  1  0  0  0  0
 46 47  1  0  0  0  0
 48 47  1  0  0  0  0
M  END
>  <MODEL>
8

>  <REMARK>
 VINA RESULT:      -5.7      3.289      9.510
  Name = 
  16 active torsions:
  status: ('A' for Active; 'I' for Inactive)
    1  A    between atoms: C_1  and  N_15
    2  A    between atoms: C_3  and  N_28
    3  A    between atoms: C_3  and  C_44
    4  A    between atoms: C_4  and  N_15
    5  A    between atoms: C_4  and  C_19
    6  A    between atoms: C_10  and  N_41
    7  A    between atoms: C_16  and  O_35
    8  A    between atoms: C_16  and  C_36
    9  A    between atoms: N_18  and  C_30
   10  A    between atoms: N_18  and  C_44
   11  A    between atoms: C_20  and  C_22
   12  A    between atoms: C_20  and  C_42
   13  A    between atoms: C_25  and  C_40
   14  A    between atoms: N_28  and  C_48
   15  A    between atoms: O_35  and  C_40
   16  A    between atoms: N_39  and  C_48
                            x       y       z     vdW  Elec       q    Type
                         _______ _______ _______ _____ _____    ______ ____

>  <TORSDO>
F 16

$$$$
=
 OpenBabel11072409553D

 48 53  0  0  1  0  0  0  0  0999 V2000
  162.7070  205.7750  144.8720 C   0  0  0  0  0  3  0  0  0  0  0  0
  161.4120  206.2080  146.8740 C   0  0  0  0  0  0  0  0  0  0  0  0
  162.6400  205.9400  146.2570 C   0  0  0  0  0  3  0  0  0  0  0  0
  160.3220  206.1480  144.7090 C   0  0  0  0  0  3  0  0  0  0  0  0
  161.5460  205.8750  144.0910 C   0  0  0  0  0  0  0  0  0  0  0  0
  160.2540  206.3130  146.0960 C   0  0  0  0  0  3  0  0  0  0  0  0
  160.8570  205.5810  149.3990 C   0  0  0  0  0  2  0  0  0  0  0  0
  161.7350  207.4210  149.2550 C   0  0  0  0  0  0  0  0  0  0  0  0
  161.2220  206.5690  150.3730 C   0  0  2  0  0  3  0  0  0  0  0  0
  162.2690  208.5570  149.1700 O   0  0  0  0  0  0  0  0  0  0  0  0
  161.3450  206.3740  148.2890 N   0  0  0  0  0  0  0  0  0  0  0  0
  162.3140  206.6420  152.5370 F   0  0  0  0  0  0  0  0  0  0  0  0
  162.3460  206.0590  151.2770 C   0  0  1  0  0  3  0  0  0  0  0  0
  162.2670  204.6440  151.3980 O   0  0  0  0  0  0  0  0  0  0  0  0
  161.1820  203.9880  151.9910 C   0  0  0  0  0  0  0  0  0  0  0  0
  160.3010  204.6770  152.5700 O   0  0  0  0  0  0  0  0  0  0  0  0
  162.2200  201.8530  151.2230 C   0  0  0  0  0  2  0  0  0  0  0  0
  160.2240  200.6170  150.6610 F   0  0  0  0  0  0  0  0  0  0  0  0
  161.0750  202.4840  152.0120 C   0  0  2  0  0  3  0  0  0  0  0  0
  160.8300  201.8580  150.6390 C   0  0  1  0  0  0  0  0  0  0  0  0
  160.6810  202.7340  149.3940 C   0  0  0  0  0  2  0  0  0  0  0  0
  161.1950  200.3350  146.7420 C   0  0  0  0  0  2  0  0  0  0  0  0
  161.3880  202.1210  148.1940 C   0  0  2  0  0  3  0  0  0  0  0  0
  160.8270  202.7050  146.9190 C   0  0  0  0  0  2  0  0  0  0  0  0
  160.7260  201.5440  145.9600 C   0  0  0  0  0  2  0  0  0  0  0  0
  161.1690  200.6830  148.1530 N   0  0  0  0  0  2  0  0  0  0  0  0
  161.5920  205.7070  142.6700 N   0  0  0  0  0  2  0  0  0  0  0  0
  161.9330  206.7810  141.7460 C   0  0  0  0  0  2  0  0  0  0  0  0
  162.1740  206.2150  140.3560 C   0  0  0  0  0  2  0  0  0  0  0  0
  162.3300  206.9990  137.9760 C   0  0  0  0  0  0  0  0  0  0  0  0
  162.3310  207.9320  137.1280 O   0  0  0  0  0  0  0  0  0  0  0  0
  162.2330  207.2900  139.3780 N   0  0  0  0  0  0  0  0  0  0  0  0
  162.4140  205.6840  137.5360 O   0  0  0  0  0  1  0  0  0  0  0  0
  162.0220  208.6540  139.8430 C   0  0  0  0  0  2  0  0  0  0  0  0
  163.7320  211.4260  138.9690 O   0  0  0  0  0  1  0  0  0  0  0  0
  160.0520  210.9580  139.5040 C   0  0  1  0  0  3  0  0  0  0  0  0
  162.2310  212.7350  140.2910 C   0  0  0  0  0  2  0  0  0  0  0  0
  161.4040  210.8290  138.8590 C   0  0  2  0  0  3  0  0  0  0  0  0
  160.8840  212.7770  141.0430 C   0  0  1  0  0  3  0  0  0  0  0  0
  159.9570  209.5530  139.4850 O   0  0  0  0  0  0  0  0  0  0  0  0
  160.1160  211.4500  140.9510 C   0  0  0  0  0  2  0  0  0  0  0  0
  161.1800  209.3810  138.8890 N   0  0  0  0  0  0  0  0  0  0  0  0
  162.5670  211.3550  139.7310 C   0  0  1  0  0  3  0  0  0  0  0  0
  161.0960  213.1700  142.5030 C   0  0  2  0  0  3  0  0  0  0  0  0
  162.2930  212.6260  142.9770 O   0  0  0  0  0  1  0  0  0  0  0  0
  159.9950  212.6850  143.3190 N   0  0  0  0  0  2  0  0  0  0  0  0
  160.0630  213.3790  144.5930 C   0  0  0  0  0  2  0  0  0  0  0  0
  159.3260  212.5810  145.6460 C   0  0  0  0  0  1  0  0  0  0  0  0
  1  3  1  0  0  0  0
  2 11  1  0  0  0  0
  3  2  2  0  0  0  0
  4  6  2  0  0  0  0
  5  4  1  0  0  0  0
  5  1  2  0  0  0  0
  6  2  1  0  0  0  0
  7  9  1  0  0  0  0
  8  9  1  0  0  0  0
  9 13  1  1  0  0  0
 10  8  2  0  0  0  0
 11  8  1  0  0  0  0
 11  7  1  0  0  0  0
 13 14  1  0  0  0  0
 13 12  1  1  0  0  0
 14 15  1  0  0  0  0
 15 16  2  0  0  0  0
 17 19  1  0  0  0  0
 19 15  1  6  0  0  0
 20 18  1  6  0  0  0
 20 17  1  0  0  0  0
 20 19  1  0  0  0  0
 21 20  1  0  0  0  0
 22 26  1  0  0  0  0
 23 21  1  1  0  0  0
 24 23  1  0  0  0  0
 25 22  1  0  0  0  0
 25 24  1  0  0  0  0
 26 23  1  0  0  0  0
 27  5  1  0  0  0  0
 28 27  1  0  0  0  0
 29 28  1  0  0  0  0
 30 32  1  0  0  0  0
 31 30  2  0  0  0  0
 32 34  1  0  0  0  0
 32 29  1  0  0  0  0
 33 30  1  0  0  0  0
 36 41  1  1  0  0  0
 37 39  1  0  0  0  0
 38 42  1  1  0  0  0
 38 36  1  0  0  0  0
 38 43  1  0  0  0  0
 39 44  1  1  0  0  0
 40 36  1  0  0  0  0
 41 39  1  0  0  0  0
 42 40  1  0  0  0  0
 42 34  1  0  0  0  0
 43 35  1  6  0  0  0
 43 37  1  0  0  0  0
 44 45  1  1  0  0  0
 44 46  1  0  0  0  0
 46 47  1  0  0  0  0
 47 48  1  0  0  0  0
M  END
>  <MODEL>
9

>  <REMARK>
 VINA RESULT:      -5.5      4.607      9.413
  Name = 
  16 active torsions:
  status: ('A' for Active; 'I' for Inactive)
    1  A    between atoms: C_1  and  N_15
    2  A    between atoms: C_3  and  N_28
    3  A    between atoms: C_3  and  C_44
    4  A    between atoms: C_4  and  N_15
    5  A    between atoms: C_4  and  C_19
    6  A    between atoms: C_10  and  N_41
    7  A    between atoms: C_16  and  O_35
    8  A    between atoms: C_16  and  C_36
    9  A    between atoms: N_18  and  C_30
   10  A    between atoms: N_18  and  C_44
   11  A    between atoms: C_20  and  C_22
   12  A    between atoms: C_20  and  C_42
   13  A    between atoms: C_25  and  C_40
   14  A    between atoms: N_28  and  C_48
   15  A    between atoms: O_35  and  C_40
   16  A    between atoms: N_39  and  C_48
                            x       y       z     vdW  Elec       q    Type
                         _______ _______ _______ _____ _____    ______ ____

>  <TORSDO>
F 16

$$$$
