=
 OpenBabel11072415093D

 39 43  0  0  1  0  0  0  0  0999 V2000
  160.2420  211.2660  153.0990 C   0  0  0  0  0  2  0  0  0  0  0  0
  161.5160  211.0090  153.8930 C   0  0  0  0  0  2  0  0  0  0  0  0
  162.4460  209.9380  155.8060 O   0  0  0  0  0  1  0  0  0  0  0  0
  158.9410  210.8640  155.2280 C   0  0  0  0  0  2  0  0  0  0  0  0
  160.1890  210.5980  155.9600 N   0  0  0  0  0  0  0  0  0  0  0  0
  161.2550  210.0600  155.0790 C   0  0  1  0  0  0  0  0  0  0  0  0
  160.6130  211.8280  156.6280 C   0  0  0  0  0  1  0  0  0  0  0  0
  159.1500  211.7890  154.0220 C   0  0  2  0  0  3  0  0  0  0  0  0
  160.8480  208.6600  154.5670 C   0  0  2  0  0  3  0  0  0  0  0  0
  160.4930  207.7050  155.6960 C   0  0  0  0  0  2  0  0  0  0  0  0
  161.0860  206.3540  155.3310 C   0  0  0  0  0  2  0  0  0  0  0  0
  161.9390  207.9750  153.7640 C   0  0  0  0  0  2  0  0  0  0  0  0
  161.7010  206.4930  153.9480 C   0  0  2  0  0  3  0  0  0  0  0  0
  160.7490  206.0330  152.9460 N   0  0  0  0  0  2  0  0  0  0  0  0
  162.3700  205.4920  151.3510 O   0  0  0  0  0  0  0  0  0  0  0  0
  161.1590  205.4690  151.6990 C   0  0  0  0  0  0  0  0  0  0  0  0
  160.1490  204.7940  150.8330 C   0  0  0  0  0  2  0  0  0  0  0  0
  162.1690  202.8070  147.4570 O   0  0  0  0  0  0  0  0  0  0  0  0
  161.1700  204.6520  148.4990 N   0  0  0  0  0  2  0  0  0  0  0  0
  161.0120  202.7840  149.9030 O   0  0  0  0  0  0  0  0  0  0  0  0
  161.8490  204.0250  147.4060 C   0  0  0  0  0  0  0  0  0  0  0  0
  160.7890  204.0110  149.7250 C   0  0  0  0  0  0  0  0  0  0  0  0
  161.2630  204.4230  145.0720 C   0  0  2  0  0  3  0  0  0  0  0  0
  161.1960  205.5350  144.0480 C   0  0  0  0  0  1  0  0  0  0  0  0
  162.1610  204.8170  146.1800 C   0  0  2  0  0  3  0  0  0  0  0  0
  162.5840  203.9520  145.1530 O   0  0  0  0  0  0  0  0  0  0  0  0
  157.8310  212.0980  153.2940 C   0  0  0  0  0  2  0  0  0  0  0  0
  155.8310  213.5850  153.4830 C   0  0  0  0  0  2  0  0  0  0  0  0
  156.3450  213.4490  156.0400 C   0  0  1  0  0  0  0  0  0  0  0  0
  156.1550  212.5220  157.2320 C   0  0  0  0  0  1  0  0  0  0  0  0
  155.3750  213.1750  154.8910 C   0  0  1  0  0  3  0  0  0  0  0  0
  154.0220  214.3380  156.6230 C   0  0  0  0  0  1  0  0  0  0  0  0
  155.2430  214.4530  155.7230 C   0  0  1  0  0  3  0  0  0  0  0  0
  157.7890  213.8630  155.7280 C   0  0  0  0  0  2  0  0  0  0  0  0
  158.0000  214.4330  154.3280 C   0  0  0  0  0  2  0  0  0  0  0  0
  157.3430  213.5680  153.2480 C   0  0  1  0  0  0  0  0  0  0  0  0
  157.6120  214.1670  151.8920 C   0  0  0  0  0  3  0  0  0  0  0  0
  158.1910  213.4850  150.9010 C   0  0  0  0  0  3  0  0  0  0  0  0
  158.4260  214.1420  149.5860 C   0  0  0  0  0  1  0  0  0  0  0  0
  1  2  1  0  0  0  0
  1  8  1  0  0  0  0
  2  6  1  0  0  0  0
  4  5  1  0  0  0  0
  5  7  1  0  0  0  0
  6  3  1  1  0  0  0
  6  5  1  0  0  0  0
  8 27  1  6  0  0  0
  8  4  1  0  0  0  0
  9 12  1  1  0  0  0
  9  6  1  0  0  0  0
  9 10  1  0  0  0  0
 11 10  1  0  0  0  0
 12 13  1  0  0  0  0
 13 14  1  6  0  0  0
 13 11  1  0  0  0  0
 15 16  2  0  0  0  0
 16 14  1  0  0  0  0
 17 16  1  0  0  0  0
 19 22  1  0  0  0  0
 21 18  2  0  0  0  0
 21 19  1  0  0  0  0
 22 20  2  0  0  0  0
 22 17  1  0  0  0  0
 23 24  1  6  0  0  0
 23 26  1  0  0  0  0
 23 25  1  0  0  0  0
 25 21  1  1  0  0  0
 26 25  1  0  0  0  0
 29 30  1  1  0  0  0
 31 28  1  6  0  0  0
 31 33  1  0  0  0  0
 31 29  1  0  0  0  0
 33 29  1  0  0  0  0
 33 32  1  1  0  0  0
 34 29  1  0  0  0  0
 35 34  1  0  0  0  0
 36 37  1  6  0  0  0
 36 27  1  0  0  0  0
 36 28  1  0  0  0  0
 36 35  1  0  0  0  0
 38 37  2  0  0  0  0
 39 38  1  0  0  0  0
M  END
>  <MODEL>
1

>  <REMARK>
 VINA RESULT:      -5.8      0.000      0.000
  Name = 
  8 active torsions:
  status: ('A' for Active; 'I' for Inactive)
    1  A    between atoms: C_2  and  C_31
    2  A    between atoms: C_10  and  C_24
    3  A    between atoms: C_10  and  C_27
    4  A    between atoms: C_13  and  C_18
    5  A    between atoms: N_16  and  C_35
    6  A    between atoms: C_26  and  C_38
    7  A    between atoms: C_26  and  C_39
    8  A    between atoms: C_28  and  C_38
                            x       y       z     vdW  Elec       q    Type
                         _______ _______ _______ _____ _____    ______ ____

>  <TORSDO>
F 8

$$$$
=
 OpenBabel11072415093D

 39 43  0  0  1  0  0  0  0  0999 V2000
  160.5390  211.0920  153.3280 C   0  0  0  0  0  2  0  0  0  0  0  0
  161.5680  210.6130  154.3430 C   0  0  0  0  0  2  0  0  0  0  0  0
  161.9950  209.0950  156.1280 O   0  0  0  0  0  1  0  0  0  0  0  0
  158.7390  210.2510  154.8900 C   0  0  0  0  0  2  0  0  0  0  0  0
  159.7590  209.7790  155.8390 N   0  0  0  0  0  0  0  0  0  0  0  0
  161.0330  209.4240  155.1650 C   0  0  1  0  0  0  0  0  0  0  0  0
  159.9590  210.8050  156.8610 C   0  0  0  0  0  1  0  0  0  0  0  0
  159.2300  211.4230  154.0300 C   0  0  2  0  0  3  0  0  0  0  0  0
  160.8130  208.1960  154.2530 C   0  0  2  0  0  3  0  0  0  0  0  0
  160.0810  207.0660  154.9600 C   0  0  0  0  0  2  0  0  0  0  0  0
  160.7490  205.7720  154.5280 C   0  0  0  0  0  2  0  0  0  0  0  0
  162.1070  207.5970  153.7320 C   0  0  0  0  0  2  0  0  0  0  0  0
  161.8040  206.1350  153.4960 C   0  0  2  0  0  3  0  0  0  0  0  0
  161.2520  205.9690  152.1590 N   0  0  0  0  0  2  0  0  0  0  0  0
  161.1930  203.6330  152.2440 O   0  0  0  0  0  0  0  0  0  0  0  0
  160.8960  204.6920  151.6270 C   0  0  0  0  0  0  0  0  0  0  0  0
  160.1100  204.6180  150.3610 C   0  0  0  0  0  2  0  0  0  0  0  0
  162.3520  206.7840  147.2450 O   0  0  0  0  0  0  0  0  0  0  0  0
  161.3290  206.6160  149.3460 N   0  0  0  0  0  2  0  0  0  0  0  0
  160.9820  204.6330  148.1500 O   0  0  0  0  0  0  0  0  0  0  0  0
  162.0810  207.3210  148.3530 C   0  0  0  0  0  0  0  0  0  0  0  0
  160.8180  205.2810  149.2170 C   0  0  0  0  0  0  0  0  0  0  0  0
  161.6450  209.3560  149.6250 C   0  0  2  0  0  3  0  0  0  0  0  0
  162.3690  210.5100  150.2830 C   0  0  0  0  0  1  0  0  0  0  0  0
  162.5290  208.7190  148.6220 C   0  0  2  0  0  3  0  0  0  0  0  0
  161.5120  209.6210  148.2520 O   0  0  0  0  0  0  0  0  0  0  0  0
  158.1380  211.9390  153.0760 C   0  0  0  0  0  2  0  0  0  0  0  0
  156.3100  213.6430  153.0670 C   0  0  0  0  0  2  0  0  0  0  0  0
  156.3910  213.3050  155.6560 C   0  0  1  0  0  0  0  0  0  0  0  0
  155.9130  212.3430  156.7340 C   0  0  0  0  0  1  0  0  0  0  0  0
  155.5930  213.2130  154.3550 C   0  0  1  0  0  3  0  0  0  0  0  0
  154.1170  214.4340  155.9420 C   0  0  0  0  0  1  0  0  0  0  0  0
  155.4710  214.4510  155.2490 C   0  0  1  0  0  3  0  0  0  0  0  0
  157.9030  213.5590  155.5990 C   0  0  0  0  0  2  0  0  0  0  0  0
  158.3970  214.1760  154.2920 C   0  0  0  0  0  2  0  0  0  0  0  0
  157.8290  213.4570  153.0650 C   0  0  1  0  0  0  0  0  0  0  0  0
  158.3750  214.0930  151.8130 C   0  0  0  0  0  3  0  0  0  0  0  0
  159.4280  213.6040  151.1530 C   0  0  0  0  0  3  0  0  0  0  0  0
  159.9140  214.2860  149.9220 C   0  0  0  0  0  1  0  0  0  0  0  0
  1  8  1  0  0  0  0
  1  2  1  0  0  0  0
  2  6  1  0  0  0  0
  4  5  1  0  0  0  0
  5  7  1  0  0  0  0
  6  5  1  0  0  0  0
  6  3  1  1  0  0  0
  8 27  1  6  0  0  0
  8  4  1  0  0  0  0
  9 12  1  1  0  0  0
  9 10  1  0  0  0  0
  9  6  1  0  0  0  0
 11 10  1  0  0  0  0
 13 14  1  6  0  0  0
 13 12  1  0  0  0  0
 13 11  1  0  0  0  0
 16 14  1  0  0  0  0
 16 15  2  0  0  0  0
 17 16  1  0  0  0  0
 18 21  2  0  0  0  0
 20 22  2  0  0  0  0
 21 19  1  0  0  0  0
 22 19  1  0  0  0  0
 22 17  1  0  0  0  0
 23 24  1  1  0  0  0
 25 21  1  6  0  0  0
 25 23  1  0  0  0  0
 26 25  1  0  0  0  0
 26 23  1  0  0  0  0
 29 30  1  1  0  0  0
 31 28  1  6  0  0  0
 31 33  1  0  0  0  0
 31 29  1  0  0  0  0
 33 29  1  0  0  0  0
 33 32  1  1  0  0  0
 34 29  1  0  0  0  0
 35 34  1  0  0  0  0
 36 37  1  6  0  0  0
 36 28  1  0  0  0  0
 36 27  1  0  0  0  0
 36 35  1  0  0  0  0
 38 37  2  0  0  0  0
 39 38  1  0  0  0  0
M  END
>  <MODEL>
2

>  <REMARK>
 VINA RESULT:      -5.4      1.878      2.470
  Name = 
  8 active torsions:
  status: ('A' for Active; 'I' for Inactive)
    1  A    between atoms: C_2  and  C_31
    2  A    between atoms: C_10  and  C_24
    3  A    between atoms: C_10  and  C_27
    4  A    between atoms: C_13  and  C_18
    5  A    between atoms: N_16  and  C_35
    6  A    between atoms: C_26  and  C_38
    7  A    between atoms: C_26  and  C_39
    8  A    between atoms: C_28  and  C_38
                            x       y       z     vdW  Elec       q    Type
                         _______ _______ _______ _____ _____    ______ ____

>  <TORSDO>
F 8

$$$$
=
 OpenBabel11072415093D

 39 43  0  0  1  0  0  0  0  0999 V2000
  160.4540  208.3310  152.3720 C   0  0  0  0  0  2  0  0  0  0  0  0
  160.0830  209.1510  153.5990 C   0  0  0  0  0  2  0  0  0  0  0  0
  160.2550  211.2780  154.6560 O   0  0  0  0  0  1  0  0  0  0  0  0
  162.4180  209.8860  152.0370 C   0  0  0  0  0  2  0  0  0  0  0  0
  162.0180  210.6710  153.2150 N   0  0  0  0  0  0  0  0  0  0  0  0
  160.5550  210.6110  153.4620 C   0  0  1  0  0  0  0  0  0  0  0  0
  162.7780  210.2010  154.3730 C   0  0  0  0  0  1  0  0  0  0  0  0
  161.9520  208.4270  152.1150 C   0  0  2  0  0  3  0  0  0  0  0  0
  159.8060  211.3120  152.3060 C   0  0  2  0  0  3  0  0  0  0  0  0
  160.6660  212.3440  151.5920 C   0  0  0  0  0  2  0  0  0  0  0  0
  159.7710  213.5390  151.3080 C   0  0  0  0  0  2  0  0  0  0  0  0
  158.5580  212.0480  152.7610 C   0  0  0  0  0  2  0  0  0  0  0  0
  158.3700  213.1700  151.7660 C   0  0  2  0  0  3  0  0  0  0  0  0
  157.6020  212.6800  150.6290 N   0  0  0  0  0  2  0  0  0  0  0  0
  158.1670  214.4530  149.2140 O   0  0  0  0  0  0  0  0  0  0  0  0
  157.6100  213.3310  149.3580 C   0  0  0  0  0  0  0  0  0  0  0  0
  157.0070  212.6450  148.1790 C   0  0  0  0  0  2  0  0  0  0  0  0
  158.4810  214.1870  144.3220 O   0  0  0  0  0  0  0  0  0  0  0  0
  158.6920  212.9230  146.2830 N   0  0  0  0  0  2  0  0  0  0  0  0
  156.6550  214.0780  146.3160 O   0  0  0  0  0  0  0  0  0  0  0  0
  159.1710  213.3960  145.0200 C   0  0  0  0  0  0  0  0  0  0  0  0
  157.4340  213.2680  146.8830 C   0  0  0  0  0  0  0  0  0  0  0  0
  161.5420  213.9560  144.9250 C   0  0  2  0  0  3  0  0  0  0  0  0
  162.9070  213.3020  144.9250 C   0  0  0  0  0  1  0  0  0  0  0  0
  160.5140  212.9660  144.5330 C   0  0  2  0  0  3  0  0  0  0  0  0
  161.0150  213.9180  143.6240 O   0  0  0  0  0  0  0  0  0  0  0  0
  162.4180  207.6040  150.9010 C   0  0  0  0  0  2  0  0  0  0  0  0
  162.8250  207.3360  148.4500 C   0  0  0  0  0  2  0  0  0  0  0  0
  161.2300  205.2840  148.7140 C   0  0  1  0  0  0  0  0  0  0  0  0
  161.2400  203.8390  149.1890 C   0  0  0  0  0  1  0  0  0  0  0  0
  162.6160  205.8180  148.3500 C   0  0  1  0  0  3  0  0  0  0  0  0
  161.9720  204.3330  146.4620 C   0  0  0  0  0  1  0  0  0  0  0  0
  161.5740  205.5680  147.2560 C   0  0  1  0  0  3  0  0  0  0  0  0
  160.2180  206.2130  149.3950 C   0  0  0  0  0  2  0  0  0  0  0  0
  160.4970  207.7030  149.2130 C   0  0  0  0  0  2  0  0  0  0  0  0
  161.9620  208.0540  149.4900 C   0  0  1  0  0  0  0  0  0  0  0  0
  162.1640  209.5370  149.3220 C   0  0  0  0  0  3  0  0  0  0  0  0
  161.7040  210.2160  148.2690 C   0  0  0  0  0  3  0  0  0  0  0  0
  161.9420  211.6820  148.1700 C   0  0  0  0  0  1  0  0  0  0  0  0
  1  2  1  0  0  0  0
  4  8  1  0  0  0  0
  4  5  1  0  0  0  0
  5  6  1  0  0  0  0
  5  7  1  0  0  0  0
  6  2  1  0  0  0  0
  6  3  1  1  0  0  0
  8 27  1  6  0  0  0
  8  1  1  0  0  0  0
  9 10  1  1  0  0  0
  9 12  1  0  0  0  0
  9  6  1  0  0  0  0
 11 10  1  0  0  0  0
 11 13  1  0  0  0  0
 13 14  1  6  0  0  0
 13 12  1  0  0  0  0
 15 16  2  0  0  0  0
 16 14  1  0  0  0  0
 17 16  1  0  0  0  0
 18 21  2  0  0  0  0
 19 22  1  0  0  0  0
 20 22  2  0  0  0  0
 21 19  1  0  0  0  0
 22 17  1  0  0  0  0
 23 24  1  6  0  0  0
 25 23  1  0  0  0  0
 25 21  1  1  0  0  0
 26 25  1  0  0  0  0
 26 23  1  0  0  0  0
 28 36  1  0  0  0  0
 29 30  1  1  0  0  0
 29 34  1  0  0  0  0
 31 28  1  1  0  0  0
 31 29  1  0  0  0  0
 33 32  1  6  0  0  0
 33 31  1  0  0  0  0
 33 29  1  0  0  0  0
 35 34  1  0  0  0  0
 35 36  1  0  0  0  0
 36 37  1  6  0  0  0
 36 27  1  0  0  0  0
 38 37  2  0  0  0  0
 39 38  1  0  0  0  0
M  END
>  <MODEL>
3

>  <REMARK>
 VINA RESULT:      -4.8      4.731      8.740
  Name = 
  8 active torsions:
  status: ('A' for Active; 'I' for Inactive)
    1  A    between atoms: C_2  and  C_31
    2  A    between atoms: C_10  and  C_24
    3  A    between atoms: C_10  and  C_27
    4  A    between atoms: C_13  and  C_18
    5  A    between atoms: N_16  and  C_35
    6  A    between atoms: C_26  and  C_38
    7  A    between atoms: C_26  and  C_39
    8  A    between atoms: C_28  and  C_38
                            x       y       z     vdW  Elec       q    Type
                         _______ _______ _______ _____ _____    ______ ____

>  <TORSDO>
F 8

$$$$
=
 OpenBabel11072415093D

 39 43  0  0  1  0  0  0  0  0999 V2000
  159.4060  211.2060  152.3630 C   0  0  0  0  0  2  0  0  0  0  0  0
  160.9240  211.3070  152.4260 C   0  0  0  0  0  2  0  0  0  0  0  0
  162.9360  210.1890  153.0390 O   0  0  0  0  0  1  0  0  0  0  0  0
  159.5310  209.5100  154.2330 C   0  0  0  0  0  2  0  0  0  0  0  0
  160.9990  209.6140  154.2510 N   0  0  0  0  0  0  0  0  0  0  0  0
  161.5530  209.9930  152.9280 C   0  0  1  0  0  0  0  0  0  0  0  0
  161.3880  210.5670  155.2900 C   0  0  0  0  0  1  0  0  0  0  0  0
  158.8550  210.7880  153.7190 C   0  0  2  0  0  3  0  0  0  0  0  0
  161.2990  208.8540  151.9150 C   0  0  2  0  0  3  0  0  0  0  0  0
  161.1400  207.4980  152.5860 C   0  0  0  0  0  2  0  0  0  0  0  0
  161.8780  206.4910  151.7210 C   0  0  0  0  0  2  0  0  0  0  0  0
  162.4190  208.6920  150.9020 C   0  0  0  0  0  2  0  0  0  0  0  0
  162.3850  207.2360  150.4970 C   0  0  2  0  0  3  0  0  0  0  0  0
  161.4420  207.0650  149.4000 N   0  0  0  0  0  2  0  0  0  0  0  0
  163.0080  207.4690  147.7120 O   0  0  0  0  0  0  0  0  0  0  0  0
  161.8400  207.1170  148.0300 C   0  0  0  0  0  0  0  0  0  0  0  0
  160.8800  206.6890  146.9710 C   0  0  0  0  0  2  0  0  0  0  0  0
  161.1580  202.3380  146.3270 O   0  0  0  0  0  0  0  0  0  0  0  0
  161.1400  204.2520  147.6780 N   0  0  0  0  0  2  0  0  0  0  0  0
  160.9950  204.8850  145.4280 O   0  0  0  0  0  0  0  0  0  0  0  0
  161.2050  202.8350  147.4840 C   0  0  0  0  0  0  0  0  0  0  0  0
  161.0180  205.2330  146.6380 C   0  0  0  0  0  0  0  0  0  0  0  0
  160.0420  201.7190  149.3150 C   0  0  2  0  0  3  0  0  0  0  0  0
  160.0800  200.4450  150.1310 C   0  0  0  0  0  1  0  0  0  0  0  0
  161.3550  201.9360  148.6660 C   0  0  2  0  0  3  0  0  0  0  0  0
  160.9800  202.6260  149.8360 O   0  0  0  0  0  0  0  0  0  0  0  0
  157.3210  210.6840  153.7500 C   0  0  0  0  0  2  0  0  0  0  0  0
  157.5510  211.4180  156.1280 C   0  0  0  0  0  2  0  0  0  0  0  0
  158.3450  213.6580  155.0460 C   0  0  1  0  0  0  0  0  0  0  0  0
  159.5750  214.2870  154.4070 C   0  0  0  0  0  1  0  0  0  0  0  0
  158.6640  212.4580  155.9380 C   0  0  1  0  0  3  0  0  0  0  0  0
  159.3410  214.4530  157.2600 C   0  0  0  0  0  1  0  0  0  0  0  0
  158.1770  213.7720  156.5560 C   0  0  1  0  0  3  0  0  0  0  0  0
  157.0710  213.6480  154.1920 C   0  0  0  0  0  2  0  0  0  0  0  0
  155.9950  212.6720  154.6640 C   0  0  0  0  0  2  0  0  0  0  0  0
  156.5670  211.2840  154.9630 C   0  0  1  0  0  0  0  0  0  0  0  0
  155.4540  210.3640  155.3950 C   0  0  0  0  0  3  0  0  0  0  0  0
  154.7830  210.5260  156.5380 C   0  0  0  0  0  3  0  0  0  0  0  0
  153.6950  209.5770  156.9000 C   0  0  0  0  0  1  0  0  0  0  0  0
  1  2  1  0  0  0  0
  1  8  1  0  0  0  0
  2  6  1  0  0  0  0
  4  5  1  0  0  0  0
  5  7  1  0  0  0  0
  6  3  1  1  0  0  0
  6  5  1  0  0  0  0
  8 27  1  6  0  0  0
  8  4  1  0  0  0  0
  9 12  1  6  0  0  0
  9 10  1  0  0  0  0
  9  6  1  0  0  0  0
 11 10  1  0  0  0  0
 13 14  1  6  0  0  0
 13 12  1  0  0  0  0
 13 11  1  0  0  0  0
 15 16  2  0  0  0  0
 16 14  1  0  0  0  0
 17 16  1  0  0  0  0
 18 21  2  0  0  0  0
 20 22  2  0  0  0  0
 21 19  1  0  0  0  0
 22 17  1  0  0  0  0
 22 19  1  0  0  0  0
 23 26  1  0  0  0  0
 23 24  1  1  0  0  0
 25 21  1  6  0  0  0
 25 23  1  0  0  0  0
 25 26  1  0  0  0  0
 29 30  1  6  0  0  0
 29 31  1  0  0  0  0
 29 33  1  0  0  0  0
 31 28  1  6  0  0  0
 31 33  1  0  0  0  0
 33 32  1  1  0  0  0
 34 35  1  0  0  0  0
 34 29  1  0  0  0  0
 35 36  1  0  0  0  0
 36 27  1  6  0  0  0
 36 37  1  0  0  0  0
 36 28  1  0  0  0  0
 37 38  2  0  0  0  0
 38 39  1  0  0  0  0
M  END
>  <MODEL>
4

>  <REMARK>
 VINA RESULT:      -4.3      2.100      3.980
  Name = 
  8 active torsions:
  status: ('A' for Active; 'I' for Inactive)
    1  A    between atoms: C_2  and  C_31
    2  A    between atoms: C_10  and  C_24
    3  A    between atoms: C_10  and  C_27
    4  A    between atoms: C_13  and  C_18
    5  A    between atoms: N_16  and  C_35
    6  A    between atoms: C_26  and  C_38
    7  A    between atoms: C_26  and  C_39
    8  A    between atoms: C_28  and  C_38
                            x       y       z     vdW  Elec       q    Type
                         _______ _______ _______ _____ _____    ______ ____

>  <TORSDO>
F 8

$$$$
=
 OpenBabel11072415093D

 39 43  0  0  1  0  0  0  0  0999 V2000
  160.0040  207.4560  154.5020 C   0  0  0  0  0  2  0  0  0  0  0  0
  159.5080  208.1130  155.7830 C   0  0  0  0  0  2  0  0  0  0  0  0
  159.7710  209.9630  157.2600 O   0  0  0  0  0  1  0  0  0  0  0  0
  162.2040  208.6490  154.8460 C   0  0  0  0  0  2  0  0  0  0  0  0
  161.6870  209.2870  156.0660 N   0  0  0  0  0  0  0  0  0  0  0  0
  160.2140  209.4610  156.0290 C   0  0  1  0  0  0  0  0  0  0  0  0
  162.1060  208.4950  157.2230 C   0  0  0  0  0  1  0  0  0  0  0  0
  161.5180  207.3110  154.5430 C   0  0  2  0  0  3  0  0  0  0  0  0
  159.8390  210.4740  154.9230 C   0  0  2  0  0  3  0  0  0  0  0  0
  160.6210  211.7740  155.0320 C   0  0  0  0  0  2  0  0  0  0  0  0
  159.6450  212.8990  154.7320 C   0  0  0  0  0  2  0  0  0  0  0  0
  158.3720  210.8640  154.9400 C   0  0  0  0  0  2  0  0  0  0  0  0
  158.3220  212.2560  154.3540 C   0  0  2  0  0  3  0  0  0  0  0  0
  158.2250  212.1630  152.9030 N   0  0  0  0  0  2  0  0  0  0  0  0
  157.3390  214.3070  152.6130 O   0  0  0  0  0  0  0  0  0  0  0  0
  157.7990  213.2570  152.0900 C   0  0  0  0  0  0  0  0  0  0  0  0
  157.9610  213.1750  150.6090 C   0  0  0  0  0  2  0  0  0  0  0  0
  161.8870  214.3230  148.9680 O   0  0  0  0  0  0  0  0  0  0  0  0
  159.9070  213.0710  148.9620 N   0  0  0  0  0  2  0  0  0  0  0  0
  159.9520  214.4500  150.8550 O   0  0  0  0  0  0  0  0  0  0  0  0
  161.1690  213.4550  148.4050 C   0  0  0  0  0  0  0  0  0  0  0  0
  159.3300  213.5990  150.1660 C   0  0  0  0  0  0  0  0  0  0  0  0
  161.2360  213.5870  145.9700 C   0  0  2  0  0  3  0  0  0  0  0  0
  162.1350  213.2590  144.7980 C   0  0  0  0  0  1  0  0  0  0  0  0
  161.6500  212.8000  147.1530 C   0  0  2  0  0  3  0  0  0  0  0  0
  160.5470  212.4270  146.3600 O   0  0  0  0  0  0  0  0  0  0  0  0
  162.1010  206.6310  153.2910 C   0  0  0  0  0  2  0  0  0  0  0  0
  162.3840  206.3670  150.8220 C   0  0  0  0  0  2  0  0  0  0  0  0
  160.9880  204.1920  151.1970 C   0  0  1  0  0  0  0  0  0  0  0  0
  161.1480  202.7580  151.6830 C   0  0  0  0  0  1  0  0  0  0  0  0
  162.2990  204.8360  150.7470 C   0  0  1  0  0  3  0  0  0  0  0  0
  161.6730  203.2780  148.9120 C   0  0  0  0  0  1  0  0  0  0  0  0
  161.2190  204.4850  149.7190 C   0  0  1  0  0  3  0  0  0  0  0  0
  159.9420  205.0410  151.9310 C   0  0  0  0  0  2  0  0  0  0  0  0
  160.0820  206.5470  151.7210 C   0  0  0  0  0  2  0  0  0  0  0  0
  161.5260  207.0230  151.9070 C   0  0  1  0  0  0  0  0  0  0  0  0
  161.5920  208.5150  151.7160 C   0  0  0  0  0  3  0  0  0  0  0  0
  162.0290  209.0830  150.5900 C   0  0  0  0  0  3  0  0  0  0  0  0
  162.0670  210.5670  150.4720 C   0  0  0  0  0  1  0  0  0  0  0  0
  1  8  1  0  0  0  0
  1  2  1  0  0  0  0
  2  6  1  0  0  0  0
  4  5  1  0  0  0  0
  5  7  1  0  0  0  0
  6  5  1  0  0  0  0
  6  3  1  1  0  0  0
  8 27  1  6  0  0  0
  8  4  1  0  0  0  0
  9 12  1  1  0  0  0
  9 10  1  0  0  0  0
  9  6  1  0  0  0  0
 11 10  1  0  0  0  0
 13 14  1  6  0  0  0
 13 11  1  0  0  0  0
 13 12  1  0  0  0  0
 16 15  2  0  0  0  0
 16 14  1  0  0  0  0
 17 16  1  0  0  0  0
 19 22  1  0  0  0  0
 21 19  1  0  0  0  0
 21 18  2  0  0  0  0
 22 17  1  0  0  0  0
 22 20  2  0  0  0  0
 23 24  1  6  0  0  0
 23 26  1  0  0  0  0
 23 25  1  0  0  0  0
 25 21  1  1  0  0  0
 26 25  1  0  0  0  0
 28 36  1  0  0  0  0
 29 30  1  1  0  0  0
 29 34  1  0  0  0  0
 31 28  1  1  0  0  0
 31 29  1  0  0  0  0
 33 32  1  6  0  0  0
 33 31  1  0  0  0  0
 33 29  1  0  0  0  0
 35 36  1  0  0  0  0
 35 34  1  0  0  0  0
 36 37  1  6  0  0  0
 36 27  1  0  0  0  0
 38 37  2  0  0  0  0
 39 38  1  0  0  0  0
M  END
>  <MODEL>
5

>  <REMARK>
 VINA RESULT:      -4.0      4.005      8.276
  Name = 
  8 active torsions:
  status: ('A' for Active; 'I' for Inactive)
    1  A    between atoms: C_2  and  C_31
    2  A    between atoms: C_10  and  C_24
    3  A    between atoms: C_10  and  C_27
    4  A    between atoms: C_13  and  C_18
    5  A    between atoms: N_16  and  C_35
    6  A    between atoms: C_26  and  C_38
    7  A    between atoms: C_26  and  C_39
    8  A    between atoms: C_28  and  C_38
                            x       y       z     vdW  Elec       q    Type
                         _______ _______ _______ _____ _____    ______ ____

>  <TORSDO>
F 8

$$$$
=
 OpenBabel11072415093D

 39 43  0  0  1  0  0  0  0  0999 V2000
  159.5120  210.0850  152.8610 C   0  0  0  0  0  2  0  0  0  0  0  0
  160.5950  210.0860  151.7910 C   0  0  0  0  0  2  0  0  0  0  0  0
  162.7410  209.2530  151.1810 O   0  0  0  0  0  1  0  0  0  0  0  0
  161.3020  209.5080  154.5480 C   0  0  0  0  0  2  0  0  0  0  0  0
  162.3210  209.4930  153.4870 N   0  0  0  0  0  0  0  0  0  0  0  0
  161.7500  209.1370  152.1640 C   0  0  1  0  0  0  0  0  0  0  0  0
  162.9820  210.7970  153.4540 C   0  0  0  0  0  1  0  0  0  0  0  0
  160.1170  210.4230  154.2160 C   0  0  2  0  0  3  0  0  0  0  0  0
  161.2560  207.6730  152.1900 C   0  0  2  0  0  3  0  0  0  0  0  0
  160.7410  207.2530  153.5590 C   0  0  0  0  0  2  0  0  0  0  0  0
  161.2350  205.8360  153.7980 C   0  0  0  0  0  2  0  0  0  0  0  0
  162.3340  206.6690  151.8220 C   0  0  0  0  0  2  0  0  0  0  0  0
  161.9530  205.3920  152.5350 C   0  0  2  0  0  3  0  0  0  0  0  0
  161.0350  204.6310  151.6980 N   0  0  0  0  0  2  0  0  0  0  0  0
  162.2480  202.6370  151.8150 O   0  0  0  0  0  0  0  0  0  0  0  0
  161.2030  203.2360  151.4450 C   0  0  0  0  0  0  0  0  0  0  0  0
  160.1000  202.4710  150.7920 C   0  0  0  0  0  2  0  0  0  0  0  0
  161.1930  201.8630  146.5660 O   0  0  0  0  0  0  0  0  0  0  0  0
  160.8390  203.1960  148.4600 N   0  0  0  0  0  2  0  0  0  0  0  0
  160.2880  200.9740  148.9560 O   0  0  0  0  0  0  0  0  0  0  0  0
  161.2220  203.0080  147.0940 C   0  0  0  0  0  0  0  0  0  0  0  0
  160.4000  202.1630  149.3550 C   0  0  0  0  0  0  0  0  0  0  0  0
  160.5820  204.5260  145.2960 C   0  0  2  0  0  3  0  0  0  0  0  0
  160.7330  205.9680  144.8630 C   0  0  0  0  0  1  0  0  0  0  0  0
  161.6370  204.1850  146.2760 C   0  0  2  0  0  3  0  0  0  0  0  0
  161.7310  203.8110  144.9220 O   0  0  0  0  0  0  0  0  0  0  0  0
  159.0820  210.4670  155.3540 C   0  0  0  0  0  2  0  0  0  0  0  0
  158.2630  212.7740  154.8530 C   0  0  0  0  0  2  0  0  0  0  0  0
  155.9100  211.6610  155.0640 C   0  0  1  0  0  0  0  0  0  0  0  0
  154.9350  210.8070  154.2660 C   0  0  0  0  0  1  0  0  0  0  0  0
  156.9260  212.4030  154.1950 C   0  0  1  0  0  3  0  0  0  0  0  0
  154.7920  213.6480  153.9100 C   0  0  0  0  0  1  0  0  0  0  0  0
  155.8240  213.1770  154.9240 C   0  0  1  0  0  3  0  0  0  0  0  0
  156.3440  211.1010  156.4230 C   0  0  0  0  0  2  0  0  0  0  0  0
  157.6020  211.7430  157.0060 C   0  0  0  0  0  2  0  0  0  0  0  0
  158.7280  211.8420  155.9740 C   0  0  1  0  0  0  0  0  0  0  0  0
  159.9450  212.4550  156.6160 C   0  0  0  0  0  3  0  0  0  0  0  0
  160.1880  213.7680  156.6020 C   0  0  0  0  0  3  0  0  0  0  0  0
  161.4130  214.3040  157.2570 C   0  0  0  0  0  1  0  0  0  0  0  0
  1  8  1  0  0  0  0
  2  6  1  0  0  0  0
  2  1  1  0  0  0  0
  5  4  1  0  0  0  0
  6  3  1  6  0  0  0
  6  9  1  0  0  0  0
  6  5  1  0  0  0  0
  7  5  1  0  0  0  0
  8  4  1  0  0  0  0
  8 27  1  1  0  0  0
  9 12  1  1  0  0  0
  9 10  1  0  0  0  0
 10 11  1  0  0  0  0
 12 13  1  0  0  0  0
 13 14  1  6  0  0  0
 13 11  1  0  0  0  0
 16 14  1  0  0  0  0
 16 15  2  0  0  0  0
 17 16  1  0  0  0  0
 18 21  2  0  0  0  0
 19 22  1  0  0  0  0
 20 22  2  0  0  0  0
 21 19  1  0  0  0  0
 22 17  1  0  0  0  0
 23 24  1  6  0  0  0
 23 25  1  0  0  0  0
 25 21  1  1  0  0  0
 26 23  1  0  0  0  0
 26 25  1  0  0  0  0
 28 36  1  0  0  0  0
 29 30  1  6  0  0  0
 29 34  1  0  0  0  0
 31 28  1  1  0  0  0
 31 33  1  0  0  0  0
 31 29  1  0  0  0  0
 33 32  1  6  0  0  0
 33 29  1  0  0  0  0
 34 35  1  0  0  0  0
 36 27  1  6  0  0  0
 36 37  1  0  0  0  0
 36 35  1  0  0  0  0
 38 37  2  0  0  0  0
 38 39  1  0  0  0  0
M  END
>  <MODEL>
6

>  <REMARK>
 VINA RESULT:      -3.8      2.038      3.053
  Name = 
  8 active torsions:
  status: ('A' for Active; 'I' for Inactive)
    1  A    between atoms: C_2  and  C_31
    2  A    between atoms: C_10  and  C_24
    3  A    between atoms: C_10  and  C_27
    4  A    between atoms: C_13  and  C_18
    5  A    between atoms: N_16  and  C_35
    6  A    between atoms: C_26  and  C_38
    7  A    between atoms: C_26  and  C_39
    8  A    between atoms: C_28  and  C_38
                            x       y       z     vdW  Elec       q    Type
                         _______ _______ _______ _____ _____    ______ ____

>  <TORSDO>
F 8

$$$$
=
 OpenBabel11072415093D

 39 43  0  0  1  0  0  0  0  0999 V2000
  160.5350  210.7670  147.3100 C   0  0  0  0  0  2  0  0  0  0  0  0
  159.8990  212.1410  147.1560 C   0  0  0  0  0  2  0  0  0  0  0  0
  160.3070  214.4520  146.7470 O   0  0  0  0  0  1  0  0  0  0  0  0
  162.6770  211.9320  147.9760 C   0  0  0  0  0  2  0  0  0  0  0  0
  162.0380  213.2450  147.7950 N   0  0  0  0  0  0  0  0  0  0  0  0
  160.9490  213.2080  146.7880 C   0  0  1  0  0  0  0  0  0  0  0  0
  161.5540  213.7140  149.0930 C   0  0  0  0  0  1  0  0  0  0  0  0
  161.6690  210.8290  148.3240 C   0  0  2  0  0  3  0  0  0  0  0  0
  161.5440  212.9160  145.3920 C   0  0  2  0  0  3  0  0  0  0  0  0
  162.6970  213.8440  145.0420 C   0  0  0  0  0  2  0  0  0  0  0  0
  162.5310  214.2170  143.5780 C   0  0  0  0  0  2  0  0  0  0  0  0
  160.5330  213.0600  144.2680 C   0  0  0  0  0  2  0  0  0  0  0  0
  161.3430  213.4340  143.0470 C   0  0  2  0  0  3  0  0  0  0  0  0
  161.8140  212.2200  142.3950 N   0  0  0  0  0  2  0  0  0  0  0  0
  162.0300  213.1900  140.2790 O   0  0  0  0  0  0  0  0  0  0  0  0
  162.2160  212.1910  141.0250 C   0  0  0  0  0  0  0  0  0  0  0  0
  162.9190  210.9870  140.4920 C   0  0  0  0  0  2  0  0  0  0  0  0
  160.0240  208.4190  138.3810 O   0  0  0  0  0  0  0  0  0  0  0  0
  160.7950  210.4860  139.1700 N   0  0  0  0  0  2  0  0  0  0  0  0
  162.2440  208.7910  139.8830 O   0  0  0  0  0  0  0  0  0  0  0  0
  159.8610  209.6660  138.4590 C   0  0  0  0  0  0  0  0  0  0  0  0
  161.9720  210.0200  139.8460 C   0  0  0  0  0  0  0  0  0  0  0  0
  157.5900  210.4760  138.8200 C   0  0  2  0  0  3  0  0  0  0  0  0
  156.6340  211.5530  138.3500 C   0  0  0  0  0  1  0  0  0  0  0  0
  158.6660  210.2940  137.8210 C   0  0  2  0  0  3  0  0  0  0  0  0
  157.5700  209.4130  137.9030 O   0  0  0  0  0  0  0  0  0  0  0  0
  162.3540  209.4710  148.5570 C   0  0  0  0  0  2  0  0  0  0  0  0
  160.6930  207.8090  149.4070 C   0  0  0  0  0  2  0  0  0  0  0  0
  162.3270  206.0760  148.3350 C   0  0  1  0  0  0  0  0  0  0  0  0
  162.6940  205.4840  146.9820 C   0  0  0  0  0  1  0  0  0  0  0  0
  160.9320  206.7000  148.3720 C   0  0  1  0  0  3  0  0  0  0  0  0
  160.5500  204.2430  148.4260 C   0  0  0  0  0  1  0  0  0  0  0  0
  161.2200  205.4070  149.1410 C   0  0  1  0  0  3  0  0  0  0  0  0
  163.4700  206.7350  149.1160 C   0  0  0  0  0  2  0  0  0  0  0  0
  163.0210  207.6640  150.2420 C   0  0  0  0  0  2  0  0  0  0  0  0
  161.9250  208.6330  149.7870 C   0  0  1  0  0  0  0  0  0  0  0  0
  161.5470  209.5370  150.9310 C   0  0  0  0  0  3  0  0  0  0  0  0
  160.9220  209.0980  152.0260 C   0  0  0  0  0  3  0  0  0  0  0  0
  160.5790  210.0510  153.1170 C   0  0  0  0  0  1  0  0  0  0  0  0
  1  8  1  0  0  0  0
  2  1  1  0  0  0  0
  4  8  1  0  0  0  0
  5  4  1  0  0  0  0
  5  7  1  0  0  0  0
  6  3  1  6  0  0  0
  6  2  1  0  0  0  0
  6  5  1  0  0  0  0
  8 27  1  6  0  0  0
  9 12  1  6  0  0  0
  9  6  1  0  0  0  0
 10  9  1  0  0  0  0
 11 10  1  0  0  0  0
 13 14  1  1  0  0  0
 13 11  1  0  0  0  0
 13 12  1  0  0  0  0
 15 16  2  0  0  0  0
 16 14  1  0  0  0  0
 17 16  1  0  0  0  0
 18 21  2  0  0  0  0
 19 22  1  0  0  0  0
 21 19  1  0  0  0  0
 22 20  2  0  0  0  0
 22 17  1  0  0  0  0
 23 24  1  6  0  0  0
 25 26  1  0  0  0  0
 25 21  1  1  0  0  0
 25 23  1  0  0  0  0
 26 23  1  0  0  0  0
 28 36  1  0  0  0  0
 29 30  1  6  0  0  0
 29 31  1  0  0  0  0
 29 34  1  0  0  0  0
 29 33  1  0  0  0  0
 31 33  1  0  0  0  0
 31 28  1  1  0  0  0
 33 32  1  6  0  0  0
 34 35  1  0  0  0  0
 36 27  1  6  0  0  0
 36 35  1  0  0  0  0
 36 37  1  0  0  0  0
 37 38  2  0  0  0  0
 38 39  1  0  0  0  0
M  END
>  <MODEL>
7

>  <REMARK>
 VINA RESULT:      -3.6      6.351     10.455
  Name = 
  8 active torsions:
  status: ('A' for Active; 'I' for Inactive)
    1  A    between atoms: C_2  and  C_31
    2  A    between atoms: C_10  and  C_24
    3  A    between atoms: C_10  and  C_27
    4  A    between atoms: C_13  and  C_18
    5  A    between atoms: N_16  and  C_35
    6  A    between atoms: C_26  and  C_38
    7  A    between atoms: C_26  and  C_39
    8  A    between atoms: C_28  and  C_38
                            x       y       z     vdW  Elec       q    Type
                         _______ _______ _______ _____ _____    ______ ____

>  <TORSDO>
F 8

$$$$
=
 OpenBabel11072415093D

 39 43  0  0  1  0  0  0  0  0999 V2000
  160.0170  205.3440  151.5040 C   0  0  0  0  0  2  0  0  0  0  0  0
  160.7470  205.1170  152.8200 C   0  0  0  0  0  2  0  0  0  0  0  0
  162.3220  206.0170  154.3640 O   0  0  0  0  0  1  0  0  0  0  0  0
  161.9160  206.8620  150.8150 C   0  0  0  0  0  2  0  0  0  0  0  0
  162.5840  206.6400  152.1070 N   0  0  0  0  0  0  0  0  0  0  0  0
  161.6210  206.3300  153.1930 C   0  0  1  0  0  0  0  0  0  0  0  0
  163.5740  205.5760  151.9460 C   0  0  0  0  0  1  0  0  0  0  0  0
  161.0150  205.6890  150.4070 C   0  0  2  0  0  3  0  0  0  0  0  0
  160.7350  207.5660  153.4680 C   0  0  2  0  0  3  0  0  0  0  0  0
  161.1730  208.7880  152.6740 C   0  0  0  0  0  2  0  0  0  0  0  0
  161.0550  209.9820  153.6070 C   0  0  0  0  0  2  0  0  0  0  0  0
  160.7350  207.9910  154.9260 C   0  0  0  0  0  2  0  0  0  0  0  0
  160.4580  209.4770  154.9090 C   0  0  2  0  0  3  0  0  0  0  0  0
  159.0190  209.6970  154.9010 N   0  0  0  0  0  2  0  0  0  0  0  0
  159.0740  211.5030  156.3840 O   0  0  0  0  0  0  0  0  0  0  0  0
  158.4030  210.7800  155.6000 C   0  0  0  0  0  0  0  0  0  0  0  0
  156.9660  211.0930  155.3470 C   0  0  0  0  0  2  0  0  0  0  0  0
  156.7530  214.3740  152.4120 O   0  0  0  0  0  0  0  0  0  0  0  0
  157.8960  212.7230  153.6190 N   0  0  0  0  0  2  0  0  0  0  0  0
  155.6610  212.7880  154.3130 O   0  0  0  0  0  0  0  0  0  0  0  0
  157.8350  213.7690  152.6440 C   0  0  0  0  0  0  0  0  0  0  0  0
  156.7960  212.2530  154.4120 C   0  0  0  0  0  0  0  0  0  0  0  0
  159.1390  213.4680  150.6060 C   0  0  2  0  0  3  0  0  0  0  0  0
  160.0460  214.2320  149.6650 C   0  0  0  0  0  1  0  0  0  0  0  0
  159.0720  214.1650  151.9100 C   0  0  2  0  0  3  0  0  0  0  0  0
  159.8870  213.0340  151.7120 O   0  0  0  0  0  0  0  0  0  0  0  0
  160.3600  205.9120  149.0330 C   0  0  0  0  0  2  0  0  0  0  0  0
  162.5380  206.2490  147.8540 C   0  0  0  0  0  2  0  0  0  0  0  0
  161.5820  204.4570  146.2110 C   0  0  1  0  0  0  0  0  0  0  0  0
  161.3940  202.9520  146.0890 C   0  0  0  0  0  1  0  0  0  0  0  0
  162.6660  204.8600  147.2120 C   0  0  1  0  0  3  0  0  0  0  0  0
  163.8970  204.0410  145.2120 C   0  0  0  0  0  1  0  0  0  0  0  0
  162.8880  205.0650  145.7110 C   0  0  1  0  0  3  0  0  0  0  0  0
  160.3140  205.3100  146.0870 C   0  0  0  0  0  2  0  0  0  0  0  0
  160.4500  206.7370  146.6120 C   0  0  0  0  0  2  0  0  0  0  0  0
  161.1110  206.7820  147.9930 C   0  0  1  0  0  0  0  0  0  0  0  0
  161.1900  208.2100  148.4660 C   0  0  0  0  0  3  0  0  0  0  0  0
  162.2720  208.9720  148.2900 C   0  0  0  0  0  3  0  0  0  0  0  0
  162.2790  210.3770  148.7850 C   0  0  0  0  0  1  0  0  0  0  0  0
  1  2  1  0  0  0  0
  2  6  1  0  0  0  0
  4  5  1  0  0  0  0
  5  6  1  0  0  0  0
  6  9  1  0  0  0  0
  6  3  1  1  0  0  0
  7  5  1  0  0  0  0
  8 27  1  6  0  0  0
  8  4  1  0  0  0  0
  8  1  1  0  0  0  0
  9 10  1  6  0  0  0
  9 12  1  0  0  0  0
 10 11  1  0  0  0  0
 11 13  1  0  0  0  0
 13 14  1  6  0  0  0
 13 12  1  0  0  0  0
 14 16  1  0  0  0  0
 16 15  2  0  0  0  0
 17 16  1  0  0  0  0
 18 21  2  0  0  0  0
 19 22  1  0  0  0  0
 20 22  2  0  0  0  0
 21 19  1  0  0  0  0
 22 17  1  0  0  0  0
 23 24  1  6  0  0  0
 23 26  1  0  0  0  0
 23 25  1  0  0  0  0
 25 21  1  1  0  0  0
 26 25  1  0  0  0  0
 28 36  1  0  0  0  0
 29 30  1  6  0  0  0
 29 31  1  0  0  0  0
 31 28  1  1  0  0  0
 33 32  1  6  0  0  0
 33 29  1  0  0  0  0
 33 31  1  0  0  0  0
 34 29  1  0  0  0  0
 34 35  1  0  0  0  0
 35 36  1  0  0  0  0
 36 37  1  1  0  0  0
 36 27  1  0  0  0  0
 38 37  2  0  0  0  0
 38 39  1  0  0  0  0
M  END
>  <MODEL>
8

>  <REMARK>
 VINA RESULT:      -3.5      2.925      9.691
  Name = 
  8 active torsions:
  status: ('A' for Active; 'I' for Inactive)
    1  A    between atoms: C_2  and  C_31
    2  A    between atoms: C_10  and  C_24
    3  A    between atoms: C_10  and  C_27
    4  A    between atoms: C_13  and  C_18
    5  A    between atoms: N_16  and  C_35
    6  A    between atoms: C_26  and  C_38
    7  A    between atoms: C_26  and  C_39
    8  A    between atoms: C_28  and  C_38
                            x       y       z     vdW  Elec       q    Type
                         _______ _______ _______ _____ _____    ______ ____

>  <TORSDO>
F 8

$$$$
=
 OpenBabel11072415093D

 39 43  0  0  1  0  0  0  0  0999 V2000
  159.9840  210.5290  151.8740 C   0  0  0  0  0  2  0  0  0  0  0  0
  161.4690  210.1990  151.8110 C   0  0  0  0  0  2  0  0  0  0  0  0
  163.2740  209.0920  152.9010 O   0  0  0  0  0  1  0  0  0  0  0  0
  160.1150  210.2340  154.3800 C   0  0  0  0  0  2  0  0  0  0  0  0
  161.5440  209.8960  154.2830 N   0  0  0  0  0  0  0  0  0  0  0  0
  161.8890  209.2820  152.9760 C   0  0  1  0  0  0  0  0  0  0  0  0
  162.3290  211.1040  154.5330 C   0  0  0  0  0  1  0  0  0  0  0  0
  159.6400  211.1300  153.2300 C   0  0  2  0  0  3  0  0  0  0  0  0
  161.1980  207.9060  152.8520 C   0  0  2  0  0  3  0  0  0  0  0  0
  160.2200  207.6370  153.9870 C   0  0  0  0  0  2  0  0  0  0  0  0
  160.3950  206.1800  154.3810 C   0  0  0  0  0  2  0  0  0  0  0  0
  162.1740  206.7420  152.8560 C   0  0  0  0  0  2  0  0  0  0  0  0
  161.3990  205.5720  153.4170 C   0  0  2  0  0  3  0  0  0  0  0  0
  160.6900  204.9030  152.3350 N   0  0  0  0  0  2  0  0  0  0  0  0
  162.3720  203.3330  151.9200 O   0  0  0  0  0  0  0  0  0  0  0  0
  161.2020  203.7390  151.6850 C   0  0  0  0  0  0  0  0  0  0  0  0
  160.3180  202.9650  150.7650 C   0  0  0  0  0  2  0  0  0  0  0  0
  161.5220  203.9430  146.6400 O   0  0  0  0  0  0  0  0  0  0  0  0
  161.1680  204.4760  148.8940 N   0  0  0  0  0  2  0  0  0  0  0  0
  160.4960  202.2670  148.5000 O   0  0  0  0  0  0  0  0  0  0  0  0
  161.5870  204.7990  147.5640 C   0  0  0  0  0  0  0  0  0  0  0  0
  160.6510  203.2080  149.3230 C   0  0  0  0  0  0  0  0  0  0  0  0
  161.4700  207.1550  148.1830 C   0  0  2  0  0  3  0  0  0  0  0  0
  162.3300  208.3980  148.2520 C   0  0  0  0  0  1  0  0  0  0  0  0
  162.0840  206.1730  147.2610 C   0  0  2  0  0  3  0  0  0  0  0  0
  161.0070  206.9900  146.8670 O   0  0  0  0  0  0  0  0  0  0  0  0
  158.1580  211.5160  153.3690 C   0  0  0  0  0  2  0  0  0  0  0  0
  156.2710  213.1450  153.5520 C   0  0  0  0  0  2  0  0  0  0  0  0
  156.6760  212.8670  156.1170 C   0  0  1  0  0  0  0  0  0  0  0  0
  156.3710  211.9110  157.2610 C   0  0  0  0  0  1  0  0  0  0  0  0
  155.7320  212.7150  154.9240 C   0  0  1  0  0  3  0  0  0  0  0  0
  154.4060  213.9100  156.6560 C   0  0  0  0  0  1  0  0  0  0  0  0
  155.6660  213.9660  155.8050 C   0  0  1  0  0  3  0  0  0  0  0  0
  158.1570  213.1800  155.8740 C   0  0  0  0  0  2  0  0  0  0  0  0
  158.4650  213.7870  154.5070 C   0  0  0  0  0  2  0  0  0  0  0  0
  157.7850  213.0200  153.3690 C   0  0  1  0  0  0  0  0  0  0  0  0
  158.1510  213.6490  152.0500 C   0  0  0  0  0  3  0  0  0  0  0  0
  157.5030  213.3780  150.9150 C   0  0  0  0  0  3  0  0  0  0  0  0
  157.9200  214.0380  149.6470 C   0  0  0  0  0  1  0  0  0  0  0  0
  1  8  1  0  0  0  0
  2  1  1  0  0  0  0
  2  6  1  0  0  0  0
  5  4  1  0  0  0  0
  5  7  1  0  0  0  0
  6  3  1  6  0  0  0
  6  5  1  0  0  0  0
  8 27  1  6  0  0  0
  8  4  1  0  0  0  0
  9 12  1  1  0  0  0
  9  6  1  0  0  0  0
  9 10  1  0  0  0  0
 10 11  1  0  0  0  0
 12 13  1  0  0  0  0
 13 14  1  6  0  0  0
 13 11  1  0  0  0  0
 16 15  2  0  0  0  0
 16 14  1  0  0  0  0
 17 16  1  0  0  0  0
 18 21  2  0  0  0  0
 19 22  1  0  0  0  0
 20 22  2  0  0  0  0
 21 19  1  0  0  0  0
 22 17  1  0  0  0  0
 23 24  1  6  0  0  0
 25 21  1  1  0  0  0
 25 23  1  0  0  0  0
 26 25  1  0  0  0  0
 26 23  1  0  0  0  0
 27 36  1  0  0  0  0
 29 30  1  1  0  0  0
 31 28  1  6  0  0  0
 31 33  1  0  0  0  0
 31 29  1  0  0  0  0
 33 29  1  0  0  0  0
 33 32  1  1  0  0  0
 34 29  1  0  0  0  0
 35 34  1  0  0  0  0
 36 37  1  6  0  0  0
 36 28  1  0  0  0  0
 36 35  1  0  0  0  0
 38 37  2  0  0  0  0
 39 38  1  0  0  0  0
M  END
>  <MODEL>
9

>  <REMARK>
 VINA RESULT:      -3.5      1.630      1.884
  Name = 
  8 active torsions:
  status: ('A' for Active; 'I' for Inactive)
    1  A    between atoms: C_2  and  C_31
    2  A    between atoms: C_10  and  C_24
    3  A    between atoms: C_10  and  C_27
    4  A    between atoms: C_13  and  C_18
    5  A    between atoms: N_16  and  C_35
    6  A    between atoms: C_26  and  C_38
    7  A    between atoms: C_26  and  C_39
    8  A    between atoms: C_28  and  C_38
                            x       y       z     vdW  Elec       q    Type
                         _______ _______ _______ _____ _____    ______ ____

>  <TORSDO>
F 8

$$$$
