=
 OpenBabel11072413463D

 29 31  0  0  1  0  0  0  0  0999 V2000
  161.2650  208.9230  153.0290 C   0  0  1  0  0  3  0  0  0  0  0  0
  160.5720  210.9690  152.0200 C   0  0  0  0  0  3  0  0  0  0  0  0
  159.5990  212.1380  154.1290 C   0  0  0  0  0  2  0  0  0  0  0  0
  160.6800  207.5300  152.7650 C   0  0  0  0  0  2  0  0  0  0  0  0
  160.0040  210.8980  153.3730 C   0  0  0  0  0  0  0  0  0  0  0  0
  158.5410  211.2500  153.4740 C   0  0  0  0  0  2  0  0  0  0  0  0
  161.6500  205.9570  150.1730 C   0  0  2  0  0  3  0  0  0  0  0  0
  161.2070  205.6530  151.6250 C   0  0  2  0  0  3  0  0  0  0  0  0
  161.7140  206.6040  152.5360 O   0  0  0  0  0  0  0  0  0  0  0  0
  161.2530  209.8510  151.8170 C   0  0  0  0  0  0  0  0  0  0  0  0
  161.4540  207.4100  149.9280 C   0  0  0  0  0  2  0  0  0  0  0  0
  162.0280  209.6160  150.5770 C   0  0  0  0  0  0  0  0  0  0  0  0
  162.3600  210.5660  149.8180 O   0  0  0  0  0  0  0  0  0  0  0  0
  162.4170  208.2530  150.2630 C   0  0  0  0  0  2  0  0  0  0  0  0
  160.4120  209.6310  154.0800 C   0  0  0  0  0  2  0  0  0  0  0  0
  160.6470  203.2840  152.5480 C   0  0  0  0  0  1  0  0  0  0  0  0
  161.6400  204.2810  152.0480 C   0  0  0  0  0  0  0  0  0  0  0  0
  162.8130  203.9630  151.9510 O   0  0  0  0  0  0  0  0  0  0  0  0
  160.8990  205.0830  149.1530 C   0  0  1  0  0  3  0  0  0  0  0  0
  159.9330  206.2480  147.3280 O   0  0  0  0  0  0  0  0  0  0  0  0
  160.8980  205.6220  147.7410 C   0  0  0  0  0  0  0  0  0  0  0  0
  162.0750  205.4230  146.8290 C   0  0  2  0  0  3  0  0  0  0  0  0
  162.5500  206.6520  146.3730 O   0  0  0  0  0  1  0  0  0  0  0  0
  161.1080  205.1590  144.6530 F   0  0  0  0  0  0  0  0  0  0  0  0
  161.7830  204.4860  145.6570 C   0  0  0  0  0  0  0  0  0  0  0  0
  162.9760  204.0070  145.1500 F   0  0  0  0  0  0  0  0  0  0  0  0
  161.0180  203.4150  146.0830 F   0  0  0  0  0  0  0  0  0  0  0  0
  161.3970  203.7760  149.1720 O   0  0  0  0  0  0  0  0  0  0  0  0
  160.2710  202.9600  149.0490 C   0  0  0  0  0  1  0  0  0  0  0  0
  1  4  1  6  0  0  0
  1 15  1  0  0  0  0
  2  5  1  0  0  0  0
  5  6  1  0  0  0  0
  5 15  1  0  0  0  0
  5  3  1  0  0  0  0
  6  3  1  0  0  0  0
  7 19  1  6  0  0  0
  7  8  1  0  0  0  0
  8 17  1  1  0  0  0
  8  9  1  0  0  0  0
  9  4  1  0  0  0  0
 10  2  2  0  0  0  0
 10  1  1  0  0  0  0
 11  7  1  0  0  0  0
 11 14  1  0  0  0  0
 12 10  1  0  0  0  0
 13 12  2  0  0  0  0
 14 12  1  0  0  0  0
 17 16  1  0  0  0  0
 18 17  2  0  0  0  0
 19 21  1  6  0  0  0
 19 28  1  0  0  0  0
 20 21  2  0  0  0  0
 22 23  1  6  0  0  0
 22 21  1  0  0  0  0
 24 25  1  0  0  0  0
 25 27  1  0  0  0  0
 25 22  1  0  0  0  0
 26 25  1  0  0  0  0
 29 28  1  0  0  0  0
M  END
>  <MODEL>
1

>  <REMARK>
 VINA RESULT:      -6.7      0.000      0.000
  Name = 
  6 active torsions:
  status: ('A' for Active; 'I' for Inactive)
    1  A    between atoms: C_7  and  C_8
    2  A    between atoms: C_7  and  C_14
    3  A    between atoms: C_8  and  C_13
    4  A    between atoms: C_10  and  C_13
    5  A    between atoms: O_11  and  C_13
    6  A    between atoms: C_15  and  C_24
                            x       y       z     vdW  Elec       q    Type
                         _______ _______ _______ _____ _____    ______ ____

>  <TORSDO>
F 6

$$$$
=
 OpenBabel11072413463D

 29 31  0  0  1  0  0  0  0  0999 V2000
  160.6610  211.2360  152.4850 C   0  0  1  0  0  3  0  0  0  0  0  0
  160.2580  212.5490  150.5360 C   0  0  0  0  0  3  0  0  0  0  0  0
  158.8610  214.4520  151.6260 C   0  0  0  0  0  2  0  0  0  0  0  0
  160.1200  209.8290  152.7670 C   0  0  0  0  0  2  0  0  0  0  0  0
  159.3990  213.0440  151.6210 C   0  0  0  0  0  0  0  0  0  0  0  0
  157.9590  213.2810  151.2400 C   0  0  0  0  0  2  0  0  0  0  0  0
  161.6130  207.3490  151.4420 C   0  0  2  0  0  3  0  0  0  0  0  0
  160.8480  207.6910  152.7440 C   0  0  2  0  0  3  0  0  0  0  0  0
  161.1580  208.9870  153.2070 O   0  0  0  0  0  0  0  0  0  0  0  0
  160.9420  211.5190  151.0110 C   0  0  0  0  0  0  0  0  0  0  0  0
  161.5090  208.5170  150.5280 C   0  0  0  0  0  2  0  0  0  0  0  0
  161.9710  210.8190  150.2080 C   0  0  0  0  0  0  0  0  0  0  0  0
  162.4860  211.3530  149.1890 O   0  0  0  0  0  0  0  0  0  0  0  0
  162.3900  209.4970  150.6370 C   0  0  0  0  0  2  0  0  0  0  0  0
  159.6090  212.2660  152.8940 C   0  0  0  0  0  2  0  0  0  0  0  0
  160.5470  206.8400  155.1850 C   0  0  0  0  0  1  0  0  0  0  0  0
  161.1450  206.6950  153.8250 C   0  0  0  0  0  0  0  0  0  0  0  0
  161.8560  205.7360  153.5800 O   0  0  0  0  0  0  0  0  0  0  0  0
  161.0910  206.0520  150.7980 C   0  0  1  0  0  3  0  0  0  0  0  0
  159.7950  206.2700  148.8260 O   0  0  0  0  0  0  0  0  0  0  0  0
  160.9110  206.1200  149.2990 C   0  0  0  0  0  0  0  0  0  0  0  0
  162.0870  206.0270  148.3680 C   0  0  2  0  0  3  0  0  0  0  0  0
  162.3120  207.2550  147.7470 O   0  0  0  0  0  1  0  0  0  0  0  0
  163.1650  204.6820  146.7050 F   0  0  0  0  0  0  0  0  0  0  0  0
  161.9520  204.9110  147.3320 C   0  0  0  0  0  0  0  0  0  0  0  0
  161.5490  203.7500  147.9640 F   0  0  0  0  0  0  0  0  0  0  0  0
  161.0060  205.2540  146.3840 F   0  0  0  0  0  0  0  0  0  0  0  0
  161.9160  204.9750  151.1400 O   0  0  0  0  0  0  0  0  0  0  0  0
  161.0700  203.8630  151.1510 C   0  0  0  0  0  1  0  0  0  0  0  0
  1  4  1  6  0  0  0
  1 15  1  0  0  0  0
  2 10  2  0  0  0  0
  2  5  1  0  0  0  0
  4  9  1  0  0  0  0
  5  3  1  0  0  0  0
  5 15  1  0  0  0  0
  6  5  1  0  0  0  0
  6  3  1  0  0  0  0
  7 19  1  6  0  0  0
  7  8  1  0  0  0  0
  8  9  1  0  0  0  0
  8 17  1  1  0  0  0
 10  1  1  0  0  0  0
 11 14  1  0  0  0  0
 11  7  1  0  0  0  0
 12 14  1  0  0  0  0
 12 10  1  0  0  0  0
 13 12  2  0  0  0  0
 17 16  1  0  0  0  0
 18 17  2  0  0  0  0
 19 21  1  6  0  0  0
 19 28  1  0  0  0  0
 20 21  2  0  0  0  0
 22 23  1  6  0  0  0
 22 21  1  0  0  0  0
 24 25  1  0  0  0  0
 25 26  1  0  0  0  0
 25 22  1  0  0  0  0
 27 25  1  0  0  0  0
 28 29  1  0  0  0  0
M  END
>  <MODEL>
2

>  <REMARK>
 VINA RESULT:      -5.8      1.686      2.391
  Name = 
  6 active torsions:
  status: ('A' for Active; 'I' for Inactive)
    1  A    between atoms: C_7  and  C_8
    2  A    between atoms: C_7  and  C_14
    3  A    between atoms: C_8  and  C_13
    4  A    between atoms: C_10  and  C_13
    5  A    between atoms: O_11  and  C_13
    6  A    between atoms: C_15  and  C_24
                            x       y       z     vdW  Elec       q    Type
                         _______ _______ _______ _____ _____    ______ ____

>  <TORSDO>
F 6

$$$$
=
 OpenBabel11072413463D

 29 31  0  0  1  0  0  0  0  0999 V2000
  157.9240  213.9580  149.4600 C   0  0  1  0  0  3  0  0  0  0  0  0
  159.0980  213.3190  147.4860 C   0  0  0  0  0  3  0  0  0  0  0  0
  157.2160  213.7660  145.7470 C   0  0  0  0  0  2  0  0  0  0  0  0
  157.5000  213.0370  150.6110 C   0  0  0  0  0  2  0  0  0  0  0  0
  157.6750  213.4780  147.1550 C   0  0  0  0  0  0  0  0  0  0  0  0
  157.0790  212.3610  146.3340 C   0  0  0  0  0  2  0  0  0  0  0  0
  159.6770  212.2670  152.8020 C   0  0  2  0  0  3  0  0  0  0  0  0
  158.1540  212.5300  152.7120 C   0  0  2  0  0  3  0  0  0  0  0  0
  157.8590  213.6050  151.8460 O   0  0  0  0  0  0  0  0  0  0  0  0
  159.2310  213.5590  148.7810 C   0  0  0  0  0  0  0  0  0  0  0  0
  160.2300  212.2920  151.4210 C   0  0  0  0  0  2  0  0  0  0  0  0
  160.5540  213.5640  149.4480 C   0  0  0  0  0  0  0  0  0  0  0  0
  161.6220  213.6810  148.7910 O   0  0  0  0  0  0  0  0  0  0  0  0
  160.5900  213.4510  150.8950 C   0  0  0  0  0  2  0  0  0  0  0  0
  156.8680  213.8960  148.3570 C   0  0  0  0  0  2  0  0  0  0  0  0
  156.5310  211.9140  154.6510 C   0  0  0  0  0  1  0  0  0  0  0  0
  157.5720  212.8090  154.0650 C   0  0  0  0  0  0  0  0  0  0  0  0
  157.9780  213.7610  154.7110 O   0  0  0  0  0  0  0  0  0  0  0  0
  159.9860  210.9480  153.5330 C   0  0  1  0  0  3  0  0  0  0  0  0
  162.2330  210.4320  152.9780 O   0  0  0  0  0  0  0  0  0  0  0  0
  161.0600  210.1040  152.8850 C   0  0  0  0  0  0  0  0  0  0  0  0
  160.7170  208.8450  152.1400 C   0  0  2  0  0  3  0  0  0  0  0  0
  160.7580  207.7460  152.9970 O   0  0  0  0  0  1  0  0  0  0  0  0
  162.7610  207.9490  151.2690 F   0  0  0  0  0  0  0  0  0  0  0  0
  161.5970  208.6090  150.9120 C   0  0  0  0  0  0  0  0  0  0  0  0
  160.9060  207.8330  150.0000 F   0  0  0  0  0  0  0  0  0  0  0  0
  161.9190  209.8150  150.3180 F   0  0  0  0  0  0  0  0  0  0  0  0
  160.3080  211.1990  154.8710 O   0  0  0  0  0  0  0  0  0  0  0  0
  159.7240  210.1500  155.5840 C   0  0  0  0  0  1  0  0  0  0  0  0
  1 15  1  6  0  0  0
  1  4  1  0  0  0  0
  2 10  2  0  0  0  0
  3  6  1  0  0  0  0
  3  5  1  0  0  0  0
  4  9  1  0  0  0  0
  5  2  1  0  0  0  0
  5 15  1  0  0  0  0
  6  5  1  0  0  0  0
  7 19  1  6  0  0  0
  8  7  1  0  0  0  0
  8 17  1  1  0  0  0
  9  8  1  0  0  0  0
 10 12  1  0  0  0  0
 10  1  1  0  0  0  0
 11  7  1  0  0  0  0
 12 14  1  0  0  0  0
 13 12  2  0  0  0  0
 14 11  1  0  0  0  0
 17 16  1  0  0  0  0
 17 18  2  0  0  0  0
 19 21  1  6  0  0  0
 19 28  1  0  0  0  0
 21 20  2  0  0  0  0
 22 21  1  0  0  0  0
 22 23  1  1  0  0  0
 25 24  1  0  0  0  0
 25 22  1  0  0  0  0
 26 25  1  0  0  0  0
 27 25  1  0  0  0  0
 28 29  1  0  0  0  0
M  END
>  <MODEL>
3

>  <REMARK>
 VINA RESULT:      -5.4      4.486      7.439
  Name = 
  6 active torsions:
  status: ('A' for Active; 'I' for Inactive)
    1  A    between atoms: C_7  and  C_8
    2  A    between atoms: C_7  and  C_14
    3  A    between atoms: C_8  and  C_13
    4  A    between atoms: C_10  and  C_13
    5  A    between atoms: O_11  and  C_13
    6  A    between atoms: C_15  and  C_24
                            x       y       z     vdW  Elec       q    Type
                         _______ _______ _______ _____ _____    ______ ____

>  <TORSDO>
F 6

$$$$
=
 OpenBabel11072413463D

 29 31  0  0  1  0  0  0  0  0999 V2000
  161.3220  209.4950  152.7390 C   0  0  1  0  0  3  0  0  0  0  0  0
  161.3270  207.8260  154.4410 C   0  0  0  0  0  3  0  0  0  0  0  0
  162.1300  205.8080  153.0110 C   0  0  0  0  0  2  0  0  0  0  0  0
  160.0940  210.2130  152.1650 C   0  0  0  0  0  2  0  0  0  0  0  0
  161.4890  207.1670  153.1370 C   0  0  0  0  0  0  0  0  0  0  0  0
  160.6120  205.9600  152.9160 C   0  0  0  0  0  2  0  0  0  0  0  0
  158.8720  212.6500  153.8090 C   0  0  2  0  0  3  0  0  0  0  0  0
  159.0610  212.2140  152.3350 C   0  0  2  0  0  3  0  0  0  0  0  0
  160.3150  211.6020  152.1280 O   0  0  0  0  0  0  0  0  0  0  0  0
  161.2040  209.1250  154.2150 C   0  0  0  0  0  0  0  0  0  0  0  0
  159.3120  211.5290  154.6800 C   0  0  0  0  0  2  0  0  0  0  0  0
  161.1000  210.1090  155.3170 C   0  0  0  0  0  0  0  0  0  0  0  0
  161.4570  209.8230  156.4910 O   0  0  0  0  0  0  0  0  0  0  0  0
  160.5900  211.4330  155.0060 C   0  0  0  0  0  2  0  0  0  0  0  0
  161.5080  208.1660  152.0090 C   0  0  0  0  0  2  0  0  0  0  0  0
  157.8780  213.3810  150.3320 C   0  0  0  0  0  1  0  0  0  0  0  0
  158.9180  213.3800  151.4030 C   0  0  0  0  0  0  0  0  0  0  0  0
  159.6380  214.3540  151.5420 O   0  0  0  0  0  0  0  0  0  0  0  0
  157.4220  213.0810  154.0950 C   0  0  1  0  0  3  0  0  0  0  0  0
  157.6880  213.2640  156.4440 O   0  0  0  0  0  0  0  0  0  0  0  0
  156.9760  212.8850  155.5260 C   0  0  0  0  0  0  0  0  0  0  0  0
  155.6560  212.2470  155.8500 C   0  0  2  0  0  3  0  0  0  0  0  0
  155.3230  212.4700  157.1870 O   0  0  0  0  0  1  0  0  0  0  0  0
  155.1900  210.5590  154.2150 F   0  0  0  0  0  0  0  0  0  0  0  0
  155.6050  210.7550  155.5210 C   0  0  0  0  0  0  0  0  0  0  0  0
  156.8680  210.2130  155.6740 F   0  0  0  0  0  0  0  0  0  0  0  0
  154.7360  210.1070  156.3790 F   0  0  0  0  0  0  0  0  0  0  0  0
  157.2230  214.4080  153.7020 O   0  0  0  0  0  0  0  0  0  0  0  0
  155.9080  214.4520  153.2340 C   0  0  0  0  0  1  0  0  0  0  0  0
  1 15  1  6  0  0  0
  1 10  1  0  0  0  0
  3  5  1  0  0  0  0
  4  1  1  0  0  0  0
  5  2  1  0  0  0  0
  6  3  1  0  0  0  0
  6  5  1  0  0  0  0
  7 19  1  6  0  0  0
  7 11  1  0  0  0  0
  8 17  1  6  0  0  0
  8  7  1  0  0  0  0
  9  4  1  0  0  0  0
  9  8  1  0  0  0  0
 10  2  2  0  0  0  0
 10 12  1  0  0  0  0
 11 14  1  0  0  0  0
 12 13  2  0  0  0  0
 14 12  1  0  0  0  0
 15  5  1  0  0  0  0
 16 17  1  0  0  0  0
 17 18  2  0  0  0  0
 19 28  1  1  0  0  0
 19 21  1  0  0  0  0
 21 22  1  0  0  0  0
 21 20  2  0  0  0  0
 22 23  1  1  0  0  0
 24 25  1  0  0  0  0
 25 26  1  0  0  0  0
 25 22  1  0  0  0  0
 25 27  1  0  0  0  0
 29 28  1  0  0  0  0
M  END
>  <MODEL>
4

>  <REMARK>
 VINA RESULT:      -5.2      5.776      9.312
  Name = 
  6 active torsions:
  status: ('A' for Active; 'I' for Inactive)
    1  A    between atoms: C_7  and  C_8
    2  A    between atoms: C_7  and  C_14
    3  A    between atoms: C_8  and  C_13
    4  A    between atoms: C_10  and  C_13
    5  A    between atoms: O_11  and  C_13
    6  A    between atoms: C_15  and  C_24
                            x       y       z     vdW  Elec       q    Type
                         _______ _______ _______ _____ _____    ______ ____

>  <TORSDO>
F 6

$$$$
=
 OpenBabel11072413463D

 29 31  0  0  1  0  0  0  0  0999 V2000
  162.3290  206.2880  148.4150 C   0  0  1  0  0  3  0  0  0  0  0  0
  161.0210  204.3070  148.1890 C   0  0  0  0  0  3  0  0  0  0  0  0
  161.2390  203.9820  145.6180 C   0  0  0  0  0  2  0  0  0  0  0  0
  161.8230  207.6760  148.8250 C   0  0  0  0  0  2  0  0  0  0  0  0
  161.2820  204.8520  146.8490 C   0  0  0  0  0  0  0  0  0  0  0  0
  160.0800  204.9240  145.9410 C   0  0  0  0  0  2  0  0  0  0  0  0
  161.3770  208.2620  151.9220 C   0  0  2  0  0  3  0  0  0  0  0  0
  161.8180  209.0150  150.6430 C   0  0  2  0  0  3  0  0  0  0  0  0
  162.6480  208.2190  149.8260 O   0  0  0  0  0  0  0  0  0  0  0  0
  161.5820  205.1270  149.0650 C   0  0  0  0  0  0  0  0  0  0  0  0
  160.9500  206.8940  151.5250 C   0  0  0  0  0  2  0  0  0  0  0  0
  161.5820  204.8430  150.5190 C   0  0  0  0  0  0  0  0  0  0  0  0
  161.3650  203.6840  150.9640 O   0  0  0  0  0  0  0  0  0  0  0  0
  161.8610  205.9400  151.4290 C   0  0  0  0  0  2  0  0  0  0  0  0
  162.1190  206.1030  146.9130 C   0  0  0  0  0  2  0  0  0  0  0  0
  162.3310  211.5220  150.1660 C   0  0  0  0  0  1  0  0  0  0  0  0
  162.5320  210.2890  150.9830 C   0  0  0  0  0  0  0  0  0  0  0  0
  163.2600  210.3280  151.9610 O   0  0  0  0  0  0  0  0  0  0  0  0
  160.2760  209.0230  152.6820 C   0  0  1  0  0  3  0  0  0  0  0  0
  161.4860  210.0990  154.4140 O   0  0  0  0  0  0  0  0  0  0  0  0
  160.5950  209.3120  154.1310 C   0  0  0  0  0  0  0  0  0  0  0  0
  159.8200  208.6650  155.2430 C   0  0  2  0  0  3  0  0  0  0  0  0
  159.6110  209.5730  156.2820 O   0  0  0  0  0  1  0  0  0  0  0  0
  160.5900  206.4500  154.7500 F   0  0  0  0  0  0  0  0  0  0  0  0
  160.4670  207.3830  155.7670 C   0  0  0  0  0  0  0  0  0  0  0  0
  161.7250  207.6760  156.2580 F   0  0  0  0  0  0  0  0  0  0  0  0
  159.7030  206.8470  156.7870 F   0  0  0  0  0  0  0  0  0  0  0  0
  159.9520  210.2060  152.0110 O   0  0  0  0  0  0  0  0  0  0  0  0
  158.9550  210.7990  152.7890 C   0  0  0  0  0  1  0  0  0  0  0  0
  1 15  1  6  0  0  0
  1  4  1  0  0  0  0
  1 10  1  0  0  0  0
  2 10  2  0  0  0  0
  3  6  1  0  0  0  0
  3  5  1  0  0  0  0
  4  9  1  0  0  0  0
  5 15  1  0  0  0  0
  5  2  1  0  0  0  0
  6  5  1  0  0  0  0
  7 19  1  6  0  0  0
  8 17  1  1  0  0  0
  8  7  1  0  0  0  0
  9  8  1  0  0  0  0
 10 12  1  0  0  0  0
 11  7  1  0  0  0  0
 12 13  2  0  0  0  0
 12 14  1  0  0  0  0
 14 11  1  0  0  0  0
 16 17  1  0  0  0  0
 17 18  2  0  0  0  0
 19 28  1  6  0  0  0
 19 21  1  0  0  0  0
 21 20  2  0  0  0  0
 21 22  1  0  0  0  0
 22 25  1  0  0  0  0
 22 23  1  1  0  0  0
 24 25  1  0  0  0  0
 25 26  1  0  0  0  0
 25 27  1  0  0  0  0
 28 29  1  0  0  0  0
M  END
>  <MODEL>
5

>  <REMARK>
 VINA RESULT:      -5.1      3.883      7.784
  Name = 
  6 active torsions:
  status: ('A' for Active; 'I' for Inactive)
    1  A    between atoms: C_7  and  C_8
    2  A    between atoms: C_7  and  C_14
    3  A    between atoms: C_8  and  C_13
    4  A    between atoms: C_10  and  C_13
    5  A    between atoms: O_11  and  C_13
    6  A    between atoms: C_15  and  C_24
                            x       y       z     vdW  Elec       q    Type
                         _______ _______ _______ _____ _____    ______ ____

>  <TORSDO>
F 6

$$$$
=
 OpenBabel11072413463D

 29 31  0  0  1  0  0  0  0  0999 V2000
  162.2880  208.0280  149.8550 C   0  0  1  0  0  3  0  0  0  0  0  0
  161.1530  206.8220  151.5700 C   0  0  0  0  0  3  0  0  0  0  0  0
  161.3720  204.4280  150.5790 C   0  0  0  0  0  2  0  0  0  0  0  0
  161.6690  209.0460  148.8890 C   0  0  0  0  0  2  0  0  0  0  0  0
  161.3530  205.9280  150.4210 C   0  0  0  0  0  0  0  0  0  0  0  0
  160.1400  205.1310  150.0110 C   0  0  0  0  0  2  0  0  0  0  0  0
  161.2070  212.0190  149.9290 C   0  0  2  0  0  3  0  0  0  0  0  0
  161.5680  211.2850  148.6150 C   0  0  2  0  0  3  0  0  0  0  0  0
  162.4550  210.2120  148.8410 O   0  0  0  0  0  0  0  0  0  0  0  0
  161.6500  208.0050  151.2410 C   0  0  0  0  0  0  0  0  0  0  0  0
  160.8950  210.9910  150.9580 C   0  0  0  0  0  2  0  0  0  0  0  0
  161.6900  209.1350  152.1980 C   0  0  0  0  0  0  0  0  0  0  0  0
  161.5790  208.9510  153.4400 O   0  0  0  0  0  0  0  0  0  0  0  0
  161.8830  210.4730  151.6680 C   0  0  0  0  0  2  0  0  0  0  0  0
  162.0790  206.6210  149.2980 C   0  0  0  0  0  2  0  0  0  0  0  0
  163.5010  212.8610  147.8710 C   0  0  0  0  0  1  0  0  0  0  0  0
  162.1740  212.2270  147.6170 C   0  0  0  0  0  0  0  0  0  0  0  0
  161.5910  212.4510  146.5700 O   0  0  0  0  0  0  0  0  0  0  0  0
  160.0530  213.0170  149.7280 C   0  0  1  0  0  3  0  0  0  0  0  0
  160.0680  214.4520  151.6150 O   0  0  0  0  0  0  0  0  0  0  0  0
  159.4720  213.5760  151.0060 C   0  0  0  0  0  0  0  0  0  0  0  0
  158.1550  213.0900  151.5420 C   0  0  2  0  0  3  0  0  0  0  0  0
  157.2240  214.1280  151.5570 O   0  0  0  0  0  1  0  0  0  0  0  0
  157.1320  212.7010  153.6730 F   0  0  0  0  0  0  0  0  0  0  0  0
  158.2640  212.4390  152.9200 C   0  0  0  0  0  0  0  0  0  0  0  0
  158.3920  211.0700  152.7680 F   0  0  0  0  0  0  0  0  0  0  0  0
  159.3770  212.9180  153.5870 F   0  0  0  0  0  0  0  0  0  0  0  0
  160.4520  214.0560  148.8810 O   0  0  0  0  0  0  0  0  0  0  0  0
  159.2860  214.4530  148.2240 C   0  0  0  0  0  1  0  0  0  0  0  0
  1  4  1  6  0  0  0
  1 10  1  0  0  0  0
  5  3  1  0  0  0  0
  5  2  1  0  0  0  0
  6  5  1  0  0  0  0
  6  3  1  0  0  0  0
  7 19  1  6  0  0  0
  7 11  1  0  0  0  0
  8 17  1  6  0  0  0
  8  9  1  0  0  0  0
  8  7  1  0  0  0  0
  9  4  1  0  0  0  0
 10  2  2  0  0  0  0
 10 12  1  0  0  0  0
 11 14  1  0  0  0  0
 12 13  2  0  0  0  0
 14 12  1  0  0  0  0
 15  1  1  0  0  0  0
 15  5  1  0  0  0  0
 17 16  1  0  0  0  0
 18 17  2  0  0  0  0
 19 28  1  6  0  0  0
 19 21  1  0  0  0  0
 21 22  1  0  0  0  0
 21 20  2  0  0  0  0
 22 23  1  1  0  0  0
 22 25  1  0  0  0  0
 25 27  1  0  0  0  0
 25 24  1  0  0  0  0
 26 25  1  0  0  0  0
 29 28  1  0  0  0  0
M  END
>  <MODEL>
6

>  <REMARK>
 VINA RESULT:      -4.7      4.655      8.171
  Name = 
  6 active torsions:
  status: ('A' for Active; 'I' for Inactive)
    1  A    between atoms: C_7  and  C_8
    2  A    between atoms: C_7  and  C_14
    3  A    between atoms: C_8  and  C_13
    4  A    between atoms: C_10  and  C_13
    5  A    between atoms: O_11  and  C_13
    6  A    between atoms: C_15  and  C_24
                            x       y       z     vdW  Elec       q    Type
                         _______ _______ _______ _____ _____    ______ ____

>  <TORSDO>
F 6

$$$$
=
 OpenBabel11072413463D

 29 31  0  0  1  0  0  0  0  0999 V2000
  161.9930  205.0970  149.7570 C   0  0  1  0  0  3  0  0  0  0  0  0
  160.7840  203.1780  150.4930 C   0  0  0  0  0  3  0  0  0  0  0  0
  160.7580  201.8490  148.2580 C   0  0  0  0  0  2  0  0  0  0  0  0
  161.4520  206.5270  149.6360 C   0  0  0  0  0  2  0  0  0  0  0  0
  160.8760  203.1410  149.0270 C   0  0  0  0  0  0  0  0  0  0  0  0
  159.5860  202.8280  148.3110 C   0  0  0  0  0  2  0  0  0  0  0  0
  161.2920  208.3040  152.2720 C   0  0  2  0  0  3  0  0  0  0  0  0
  161.5550  208.4850  150.7570 C   0  0  2  0  0  3  0  0  0  0  0  0
  162.3420  207.4370  150.2350 O   0  0  0  0  0  0  0  0  0  0  0  0
  161.3830  204.2880  150.8990 C   0  0  0  0  0  0  0  0  0  0  0  0
  160.9050  206.8880  152.5050 C   0  0  0  0  0  2  0  0  0  0  0  0
  161.5480  204.6130  152.3340 C   0  0  0  0  0  0  0  0  0  0  0  0
  161.4450  203.7290  153.2260 O   0  0  0  0  0  0  0  0  0  0  0  0
  161.8550  205.9860  152.6930 C   0  0  0  0  0  2  0  0  0  0  0  0
  161.6420  204.3220  148.4880 C   0  0  0  0  0  2  0  0  0  0  0  0
  162.0280  210.4940  149.1710 C   0  0  0  0  0  1  0  0  0  0  0  0
  162.2260  209.7960  150.4760 C   0  0  0  0  0  0  0  0  0  0  0  0
  162.9150  210.3160  151.3370 O   0  0  0  0  0  0  0  0  0  0  0  0
  160.2320  209.2940  152.7890 C   0  0  1  0  0  3  0  0  0  0  0  0
  161.3280  210.6460  154.3990 O   0  0  0  0  0  0  0  0  0  0  0  0
  160.4720  209.7990  154.1930 C   0  0  0  0  0  0  0  0  0  0  0  0
  159.6600  209.2940  155.3520 C   0  0  2  0  0  3  0  0  0  0  0  0
  159.6010  210.2560  156.3600 O   0  0  0  0  0  1  0  0  0  0  0  0
  159.8900  207.8640  157.2600 F   0  0  0  0  0  0  0  0  0  0  0  0
  160.1570  207.9590  155.9050 C   0  0  0  0  0  0  0  0  0  0  0  0
  159.5100  206.9270  155.2500 F   0  0  0  0  0  0  0  0  0  0  0  0
  161.5180  207.8340  155.6970 F   0  0  0  0  0  0  0  0  0  0  0  0
  160.0980  210.3680  151.9030 O   0  0  0  0  0  0  0  0  0  0  0  0
  159.0750  211.1530  152.4410 C   0  0  0  0  0  1  0  0  0  0  0  0
  1 15  1  6  0  0  0
  1 10  1  0  0  0  0
  2 10  2  0  0  0  0
  3  6  1  0  0  0  0
  3  5  1  0  0  0  0
  4  1  1  0  0  0  0
  4  9  1  0  0  0  0
  5  2  1  0  0  0  0
  6  5  1  0  0  0  0
  7 11  1  0  0  0  0
  7 19  1  6  0  0  0
  8 17  1  1  0  0  0
  8  7  1  0  0  0  0
  9  8  1  0  0  0  0
 10 12  1  0  0  0  0
 11 14  1  0  0  0  0
 12 14  1  0  0  0  0
 12 13  2  0  0  0  0
 15  5  1  0  0  0  0
 16 17  1  0  0  0  0
 17 18  2  0  0  0  0
 19 28  1  6  0  0  0
 19 21  1  0  0  0  0
 21 20  2  0  0  0  0
 21 22  1  0  0  0  0
 22 25  1  0  0  0  0
 22 23  1  1  0  0  0
 25 24  1  0  0  0  0
 26 25  1  0  0  0  0
 27 25  1  0  0  0  0
 28 29  1  0  0  0  0
M  END
>  <MODEL>
7

>  <REMARK>
 VINA RESULT:      -4.6      3.984      7.913
  Name = 
  6 active torsions:
  status: ('A' for Active; 'I' for Inactive)
    1  A    between atoms: C_7  and  C_8
    2  A    between atoms: C_7  and  C_14
    3  A    between atoms: C_8  and  C_13
    4  A    between atoms: C_10  and  C_13
    5  A    between atoms: O_11  and  C_13
    6  A    between atoms: C_15  and  C_24
                            x       y       z     vdW  Elec       q    Type
                         _______ _______ _______ _____ _____    ______ ____

>  <TORSDO>
F 6

$$$$
=
 OpenBabel11072413463D

 29 31  0  0  1  0  0  0  0  0999 V2000
  162.1680  206.7510  151.4200 C   0  0  1  0  0  3  0  0  0  0  0  0
  161.0490  205.3680  153.0080 C   0  0  0  0  0  3  0  0  0  0  0  0
  161.3490  203.0770  151.8150 C   0  0  0  0  0  2  0  0  0  0  0  0
  161.5300  207.8310  150.5380 C   0  0  0  0  0  2  0  0  0  0  0  0
  161.2880  204.5840  151.7880 C   0  0  0  0  0  0  0  0  0  0  0  0
  160.1030  203.7920  151.2930 C   0  0  0  0  0  2  0  0  0  0  0  0
  160.9700  210.6880  151.8270 C   0  0  2  0  0  3  0  0  0  0  0  0
  161.3660  210.0830  150.4580 C   0  0  2  0  0  3  0  0  0  0  0  0
  162.2820  209.0190  150.6030 O   0  0  0  0  0  0  0  0  0  0  0  0
  161.5150  206.5890  152.7900 C   0  0  0  0  0  0  0  0  0  0  0  0
  160.6760  209.5660  152.7580 C   0  0  0  0  0  2  0  0  0  0  0  0
  161.5120  207.6310  153.8420 C   0  0  0  0  0  0  0  0  0  0  0  0
  161.3910  207.3360  155.0610 O   0  0  0  0  0  0  0  0  0  0  0  0
  161.6710  209.0150  153.4330 C   0  0  0  0  0  2  0  0  0  0  0  0
  162.0060  205.3930  150.7400 C   0  0  0  0  0  2  0  0  0  0  0  0
  161.3380  211.4260  148.2300 C   0  0  0  0  0  1  0  0  0  0  0  0
  161.9550  211.1240  149.5550 C   0  0  0  0  0  0  0  0  0  0  0  0
  162.9300  211.7580  149.9220 O   0  0  0  0  0  0  0  0  0  0  0  0
  159.7890  211.6670  151.6980 C   0  0  1  0  0  3  0  0  0  0  0  0
  157.7970  211.3270  152.9380 O   0  0  0  0  0  0  0  0  0  0  0  0
  158.9290  211.7860  152.9350 C   0  0  0  0  0  0  0  0  0  0  0  0
  159.4460  212.4440  154.1830 C   0  0  2  0  0  3  0  0  0  0  0  0
  159.4940  211.5260  155.2320 O   0  0  0  0  0  1  0  0  0  0  0  0
  157.4710  213.3290  155.2100 F   0  0  0  0  0  0  0  0  0  0  0  0
  158.6540  213.6880  154.5850 C   0  0  0  0  0  0  0  0  0  0  0  0
  159.4100  214.4450  155.4610 F   0  0  0  0  0  0  0  0  0  0  0  0
  158.3670  214.4520  153.4690 F   0  0  0  0  0  0  0  0  0  0  0  0
  160.2450  212.9280  151.3010 O   0  0  0  0  0  0  0  0  0  0  0  0
  159.2220  213.4470  150.5050 C   0  0  0  0  0  1  0  0  0  0  0  0
  1  4  1  6  0  0  0
  1 10  1  0  0  0  0
  4  9  1  0  0  0  0
  5  3  1  0  0  0  0
  5  2  1  0  0  0  0
  6  5  1  0  0  0  0
  6  3  1  0  0  0  0
  7 19  1  6  0  0  0
  7 11  1  0  0  0  0
  8 17  1  6  0  0  0
  8  9  1  0  0  0  0
  8  7  1  0  0  0  0
 10  2  2  0  0  0  0
 10 12  1  0  0  0  0
 11 14  1  0  0  0  0
 12 13  2  0  0  0  0
 14 12  1  0  0  0  0
 15  1  1  0  0  0  0
 15  5  1  0  0  0  0
 16 17  1  0  0  0  0
 17 18  2  0  0  0  0
 19 28  1  1  0  0  0
 19 21  1  0  0  0  0
 21 20  2  0  0  0  0
 21 22  1  0  0  0  0
 22 25  1  0  0  0  0
 22 23  1  1  0  0  0
 25 24  1  0  0  0  0
 25 26  1  0  0  0  0
 27 25  1  0  0  0  0
 29 28  1  0  0  0  0
M  END
>  <MODEL>
8

>  <REMARK>
 VINA RESULT:      -4.4      5.049      8.323
  Name = 
  6 active torsions:
  status: ('A' for Active; 'I' for Inactive)
    1  A    between atoms: C_7  and  C_8
    2  A    between atoms: C_7  and  C_14
    3  A    between atoms: C_8  and  C_13
    4  A    between atoms: C_10  and  C_13
    5  A    between atoms: O_11  and  C_13
    6  A    between atoms: C_15  and  C_24
                            x       y       z     vdW  Elec       q    Type
                         _______ _______ _______ _____ _____    ______ ____

>  <TORSDO>
F 6

$$$$
=
 OpenBabel11072413463D

 29 31  0  0  1  0  0  0  0  0999 V2000
  161.9720  205.4460  150.4590 C   0  0  1  0  0  3  0  0  0  0  0  0
  160.6740  203.7160  151.4620 C   0  0  0  0  0  3  0  0  0  0  0  0
  160.7270  202.0020  149.5080 C   0  0  0  0  0  2  0  0  0  0  0  0
  161.4790  206.8390  150.0500 C   0  0  0  0  0  2  0  0  0  0  0  0
  160.8410  203.4100  150.0340 C   0  0  0  0  0  0  0  0  0  0  0  0
  159.5810  202.9950  149.3160 C   0  0  0  0  0  2  0  0  0  0  0  0
  161.2320  209.0710  152.3070 C   0  0  2  0  0  3  0  0  0  0  0  0
  161.5790  208.9670  150.8020 C   0  0  2  0  0  3  0  0  0  0  0  0
  162.3620  207.8270  150.5230 O   0  0  0  0  0  0  0  0  0  0  0  0
  161.2820  204.8700  151.6930 C   0  0  0  0  0  0  0  0  0  0  0  0
  160.7940  207.7270  152.7720 C   0  0  0  0  0  2  0  0  0  0  0  0
  161.3810  205.4490  153.0530 C   0  0  0  0  0  0  0  0  0  0  0  0
  161.2070  204.7440  154.0820 O   0  0  0  0  0  0  0  0  0  0  0  0
  161.7070  206.8580  153.1730 C   0  0  0  0  0  2  0  0  0  0  0  0
  161.6660  204.4580  149.3350 C   0  0  0  0  0  2  0  0  0  0  0  0
  161.9560  210.8240  149.0180 C   0  0  0  0  0  1  0  0  0  0  0  0
  162.3000  210.1920  150.3260 C   0  0  0  0  0  0  0  0  0  0  0  0
  163.1550  210.7000  151.0320 O   0  0  0  0  0  0  0  0  0  0  0  0
  160.1750  210.1570  152.5750 C   0  0  1  0  0  3  0  0  0  0  0  0
  158.5840  210.6920  154.2490 O   0  0  0  0  0  0  0  0  0  0  0  0
  159.6840  210.2210  154.0030 C   0  0  0  0  0  0  0  0  0  0  0  0
  160.5150  209.6940  155.1380 C   0  0  2  0  0  3  0  0  0  0  0  0
  159.6960  209.2310  156.1670 O   0  0  0  0  0  1  0  0  0  0  0  0
  160.9860  211.9790  155.6830 F   0  0  0  0  0  0  0  0  0  0  0  0
  161.5310  210.7060  155.6660 C   0  0  0  0  0  0  0  0  0  0  0  0
  161.8910  210.3580  156.9550 F   0  0  0  0  0  0  0  0  0  0  0  0
  162.6630  210.7040  154.8720 F   0  0  0  0  0  0  0  0  0  0  0  0
  160.6510  211.4080  152.1700 O   0  0  0  0  0  0  0  0  0  0  0  0
  159.5210  212.0950  151.7220 C   0  0  0  0  0  1  0  0  0  0  0  0
  1 15  1  6  0  0  0
  1 10  1  0  0  0  0
  2 10  2  0  0  0  0
  3  5  1  0  0  0  0
  4  1  1  0  0  0  0
  4  9  1  0  0  0  0
  5  2  1  0  0  0  0
  6  3  1  0  0  0  0
  6  5  1  0  0  0  0
  7 19  1  6  0  0  0
  7 11  1  0  0  0  0
  8 17  1  1  0  0  0
  8  7  1  0  0  0  0
  9  8  1  0  0  0  0
 10 12  1  0  0  0  0
 11 14  1  0  0  0  0
 12 14  1  0  0  0  0
 12 13  2  0  0  0  0
 15  5  1  0  0  0  0
 16 17  1  0  0  0  0
 17 18  2  0  0  0  0
 19 28  1  1  0  0  0
 19 21  1  0  0  0  0
 21 20  2  0  0  0  0
 21 22  1  0  0  0  0
 22 25  1  0  0  0  0
 22 23  1  1  0  0  0
 25 24  1  0  0  0  0
 25 26  1  0  0  0  0
 27 25  1  0  0  0  0
 29 28  1  0  0  0  0
M  END
>  <MODEL>
9

>  <REMARK>
 VINA RESULT:      -4.3      4.433      8.031
  Name = 
  6 active torsions:
  status: ('A' for Active; 'I' for Inactive)
    1  A    between atoms: C_7  and  C_8
    2  A    between atoms: C_7  and  C_14
    3  A    between atoms: C_8  and  C_13
    4  A    between atoms: C_10  and  C_13
    5  A    between atoms: O_11  and  C_13
    6  A    between atoms: C_15  and  C_24
                            x       y       z     vdW  Elec       q    Type
                         _______ _______ _______ _____ _____    ______ ____

>  <TORSDO>
F 6

$$$$
