=
 OpenBabel11072414293D

 69 76  0  0  1  0  0  0  0  0999 V2000
  161.5630  208.8620  152.9720 C   0  0  0  0  0  3  0  0  0  0  0  0
  161.1670  208.0400  154.0280 C   0  0  0  0  0  0  0  0  0  0  0  0
  161.2710  207.0160  151.4240 C   0  0  0  0  0  3  0  0  0  0  0  0
  160.8780  206.1920  152.4950 C   0  0  0  0  0  0  0  0  0  0  0  0
  161.5860  208.3640  151.6420 C   0  0  0  0  0  0  0  0  0  0  0  0
  160.8390  206.7160  153.7950 C   0  0  0  0  0  3  0  0  0  0  0  0
  160.6260  204.7450  152.2840 C   0  0  0  0  0  2  0  0  0  0  0  0
  161.8660  204.0650  151.6940 C   0  0  0  0  0  2  0  0  0  0  0  0
  161.4980  203.1780  150.5140 C   0  0  0  0  0  2  0  0  0  0  0  0
  160.3650  203.8200  149.6750 C   0  0  0  0  0  2  0  0  0  0  0  0
  160.8120  204.3570  148.3220 C   0  0  0  0  0  0  0  0  0  0  0  0
  160.4470  205.4490  147.9150 O   0  0  0  0  0  0  0  0  0  0  0  0
  161.9100  203.6430  147.5630 C   0  0  0  0  0  2  0  0  0  0  0  0
  160.2980  201.5820  144.7740 C   0  0  0  0  0  3  0  0  0  0  0  0
  160.7350  200.1140  146.6230 C   0  0  0  0  0  3  0  0  0  0  0  0
  160.2900  200.3050  145.3240 C   0  0  0  0  0  3  0  0  0  0  0  0
  161.2160  201.2020  147.3740 C   0  0  0  0  0  0  0  0  0  0  0  0
  161.4940  201.0320  148.6890 F   0  0  0  0  0  0  0  0  0  0  0  0
  160.7810  202.6820  145.5040 C   0  0  0  0  0  0  0  0  0  0  0  0
  161.3110  202.4800  146.7960 C   0  0  0  0  0  0  0  0  0  0  0  0
  161.6570  204.9340  144.6010 C   0  0  0  0  0  0  0  0  0  0  0  0
  160.6270  204.0180  145.0120 N   0  0  0  0  0  2  0  0  0  0  0  0
  162.8840  204.7280  144.8450 O   0  0  0  0  0  0  0  0  0  0  0  0
  161.2550  206.1260  143.8260 C   0  0  0  0  0  2  0  0  0  0  0  0
  162.3610  206.4890  142.8550 C   0  0  0  0  0  2  0  0  0  0  0  0
  161.7540  205.3870  140.7470 N   0  0  0  0  0  1  0  0  0  0  0  0
  161.8390  206.6730  141.4400 C   0  0  2  0  0  3  0  0  0  0  0  0
  162.6980  207.6620  140.6500 C   0  0  0  0  0  2  0  0  0  0  0  0
  161.8600  208.4810  139.7040 C   0  0  0  0  0  0  0  0  0  0  0  0
  160.2660  208.5690  137.7610 C   0  0  0  0  0  1  0  0  0  0  0  0
  161.0870  207.8130  138.6910 N   0  0  0  0  0  2  0  0  0  0  0  0
  161.7250  209.7330  139.9110 O   0  0  0  0  0  0  0  0  0  0  0  0
  161.9190  209.1770  150.5670 O   0  0  0  0  0  0  0  0  0  0  0  0
  162.2410  209.8170  148.2970 C   0  0  0  0  0  1  0  0  0  0  0  0
  162.0960  208.6620  149.2500 C   0  0  0  0  0  2  0  0  0  0  0  0
  161.1120  208.5200  155.3440 O   0  0  0  0  0  0  0  0  0  0  0  0
  159.6250  210.3880  154.8500 C   0  0  1  0  0  3  0  0  0  0  0  0
  161.6570  211.8290  157.0080 O   0  0  0  0  0  0  0  0  0  0  0  0
  162.4890  211.3690  154.8760 O   0  0  0  0  0  1  0  0  0  0  0  0
  160.1440  209.7770  157.1390 C   0  0  0  0  0  2  0  0  0  0  0  0
  158.6240  210.8260  155.9390 C   0  0  1  0  0  3  0  0  0  0  0  0
  159.7930  211.4060  152.3880 C   0  0  1  0  0  3  0  0  0  0  0  0
  162.0100  210.8010  156.0500 C   0  0  0  0  0  0  0  0  0  0  0  0
  159.4680  211.1310  157.1640 C   0  0  2  0  0  3  0  0  0  0  0  0
  159.9910  211.6040  153.9090 C   0  0  1  0  0  3  0  0  0  0  0  0
  160.3970  212.2180  156.8370 O   0  0  0  0  0  0  0  0  0  0  0  0
  158.6970  212.0340  153.2020 C   0  0  2  0  0  3  0  0  0  0  0  0
  157.7320  211.8530  155.6090 O   0  0  0  0  0  0  0  0  0  0  0  0
  157.4960  211.1010  153.3120 C   0  0  0  0  0  2  0  0  0  0  0  0
  160.7780  209.8510  155.7680 C   0  0  1  0  0  0  0  0  0  0  0  0
  156.8260  211.2680  154.6920 C   0  0  0  0  0  2  0  0  0  0  0  0
  163.0510  210.0760  156.6410 O   0  0  0  0  0  1  0  0  0  0  0  0
  160.2960  212.6340  151.5460 C   0  0  0  0  0  2  0  0  0  0  0  0
  159.6170  212.7280  150.2760 O   0  0  0  0  0  0  0  0  0  0  0  0
  160.5500  212.5780  149.2390 C   0  0  1  0  0  3  0  0  0  0  0  0
  161.1230  212.9020  146.9590 C   0  0  2  0  0  3  0  0  0  0  0  0
  161.2930  214.1110  146.2430 O   0  0  0  0  0  1  0  0  0  0  0  0
  159.7790  212.2000  146.7690 C   0  0  1  0  0  3  0  0  0  0  0  0
  160.0080  213.1880  147.9250 C   0  0  1  0  0  3  0  0  0  0  0  0
  159.0530  212.7240  145.5340 C   0  0  1  0  0  3  0  0  0  0  0  0
  158.1770  213.7650  145.9410 O   0  0  0  0  0  1  0  0  0  0  0  0
  159.9420  213.1670  144.4250 N   0  0  0  0  0  0  0  0  0  0  0  0
  158.5620  214.1460  142.7290 C   0  0  0  0  0  2  0  0  0  0  0  0
  158.7610  212.6860  142.3900 C   0  0  2  0  0  3  0  0  0  0  0  0
  159.8680  212.2220  143.3000 C   0  0  0  0  0  2  0  0  0  0  0  0
  159.5230  214.4480  143.8450 C   0  0  0  0  0  2  0  0  0  0  0  0
  159.1620  212.5390  141.0570 O   0  0  0  0  0  1  0  0  0  0  0  0
  161.7260  213.2110  149.7020 O   0  0  0  0  0  0  0  0  0  0  0  0
  162.0470  214.2800  148.8750 C   0  0  0  0  0  1  0  0  0  0  0  0
  1  2  1  0  0  0  0
  2 36  1  0  0  0  0
  3  5  1  0  0  0  0
  3  4  2  0  0  0  0
  4  6  1  0  0  0  0
  5  1  2  0  0  0  0
  6  2  2  0  0  0  0
  7  4  1  0  0  0  0
  8  7  1  0  0  0  0
  9  8  1  0  0  0  0
 10  9  1  0  0  0  0
 11 10  1  0  0  0  0
 12 11  2  0  0  0  0
 13 11  1  0  0  0  0
 14 16  2  0  0  0  0
 14 19  1  0  0  0  0
 15 17  2  0  0  0  0
 16 15  1  0  0  0  0
 17 18  1  0  0  0  0
 19 20  2  0  0  0  0
 20 17  1  0  0  0  0
 20 13  1  0  0  0  0
 21 23  2  0  0  0  0
 21 22  1  0  0  0  0
 22 19  1  0  0  0  0
 24 21  1  0  0  0  0
 25 24  1  0  0  0  0
 27 26  1  6  0  0  0
 27 25  1  0  0  0  0
 28 27  1  0  0  0  0
 29 32  2  0  0  0  0
 29 28  1  0  0  0  0
 30 31  1  0  0  0  0
 31 29  1  0  0  0  0
 33  5  1  0  0  0  0
 34 35  1  0  0  0  0
 35 33  1  0  0  0  0
 36 50  1  0  0  0  0
 37 50  1  0  0  0  0
 37 41  1  0  0  0  0
 39 43  1  0  0  0  0
 40 44  1  0  0  0  0
 41 44  1  0  0  0  0
 42 47  1  0  0  0  0
 42 45  1  0  0  0  0
 43 52  1  0  0  0  0
 43 38  1  0  0  0  0
 45 37  1  0  0  0  0
 46 38  1  0  0  0  0
 46 44  1  0  0  0  0
 47 49  1  0  0  0  0
 47 45  1  0  0  0  0
 48 41  1  0  0  0  0
 49 51  1  0  0  0  0
 50 43  1  0  0  0  0
 50 40  1  0  0  0  0
 51 48  1  0  0  0  0
 53 42  1  0  0  0  0
 54 53  1  0  0  0  0
 55 68  1  0  0  0  0
 55 54  1  0  0  0  0
 56 59  1  0  0  0  0
 57 56  1  0  0  0  0
 58 56  1  0  0  0  0
 58 59  1  0  0  0  0
 59 55  1  0  0  0  0
 60 61  1  0  0  0  0
 60 58  1  0  0  0  0
 62 60  1  0  0  0  0
 63 66  1  0  0  0  0
 64 63  1  0  0  0  0
 64 65  1  0  0  0  0
 65 62  1  0  0  0  0
 66 62  1  0  0  0  0
 67 64  1  0  0  0  0
 69 68  1  0  0  0  0
M  END
>  <MODEL>
1

>  <REMARK>
 VINA RESULT:      -3.6      0.000      0.000
  Name = 
  24 active torsions:
  status: ('A' for Active; 'I' for Inactive)
    1  A    between atoms: C_1  and  N_6
    2  A    between atoms: C_1  and  C_62
    3  A    between atoms: C_2  and  C_8
    4  A    between atoms: C_4  and  C_52
    5  A    between atoms: C_4  and  C_58
    6  A    between atoms: C_8  and  C_54
    7  A    between atoms: C_13  and  O_18
    8  A    between atoms: O_14  and  C_40
    9  A    between atoms: O_14  and  C_61
   10  A    between atoms: C_17  and  C_29
   11  A    between atoms: O_18  and  C_56
   12  A    between atoms: O_21  and  C_38
   13  A    between atoms: O_21  and  C_44
   14  A    between atoms: C_23  and  C_43
   15  A    between atoms: C_27  and  C_29
   16  A    between atoms: C_27  and  C_46
   17  A    between atoms: C_28  and  C_40
   18  A    between atoms: N_30  and  C_67
   19  A    between atoms: O_39  and  C_61
   20  A    between atoms: C_43  and  C_64
   21  A    between atoms: C_46  and  C_52
   22  A    between atoms: C_54  and  C_64
   23  A    between atoms: C_58  and  C_68
   24  A    between atoms: C_61  and  C_66
                            x       y       z     vdW  Elec       q    Type
                         _______ _______ _______ _____ _____    ______ ____

>  <TORSDO>
F 24

$$$$
=
 OpenBabel11072414293D

 69 76  0  0  1  0  0  0  0  0999 V2000
  160.0180  214.0210  149.5540 C   0  0  0  0  0  3  0  0  0  0  0  0
  160.2480  213.3820  150.7730 C   0  0  0  0  0  0  0  0  0  0  0  0
  161.2000  212.2460  148.3970 C   0  0  0  0  0  3  0  0  0  0  0  0
  161.4320  211.6090  149.6300 C   0  0  0  0  0  0  0  0  0  0  0  0
  160.4660  213.4380  148.3390 C   0  0  0  0  0  0  0  0  0  0  0  0
  160.9570  212.1930  150.8130 C   0  0  0  0  0  3  0  0  0  0  0  0
  162.2800  210.3940  149.7080 C   0  0  0  0  0  2  0  0  0  0  0  0
  162.1980  209.5980  148.4010 C   0  0  0  0  0  2  0  0  0  0  0  0
  162.5470  208.1340  148.6250 C   0  0  0  0  0  2  0  0  0  0  0  0
  161.2840  207.2440  148.5140 C   0  0  0  0  0  2  0  0  0  0  0  0
  161.0480  206.6580  147.1280 C   0  0  0  0  0  0  0  0  0  0  0  0
  160.0950  206.9980  146.4440 O   0  0  0  0  0  0  0  0  0  0  0  0
  162.1280  205.8160  146.4820 C   0  0  0  0  0  2  0  0  0  0  0  0
  160.5700  202.8690  144.6090 C   0  0  0  0  0  3  0  0  0  0  0  0
  161.0960  202.1380  146.8340 C   0  0  0  0  0  3  0  0  0  0  0  0
  160.6250  201.8570  145.5610 C   0  0  0  0  0  3  0  0  0  0  0  0
  161.5390  203.4340  147.1560 C   0  0  0  0  0  0  0  0  0  0  0  0
  161.8430  203.7330  148.4410 F   0  0  0  0  0  0  0  0  0  0  0  0
  161.0130  204.1690  144.9070 C   0  0  0  0  0  0  0  0  0  0  0  0
  161.5700  204.4400  146.1750 C   0  0  0  0  0  0  0  0  0  0  0  0
  161.6720  205.7270  142.9580 C   0  0  0  0  0  0  0  0  0  0  0  0
  160.7940  205.2500  143.9930 N   0  0  0  0  0  2  0  0  0  0  0  0
  162.8840  205.3650  142.8790 O   0  0  0  0  0  0  0  0  0  0  0  0
  161.1090  206.6300  141.9340 C   0  0  0  0  0  2  0  0  0  0  0  0
  162.1500  206.8820  140.8610 C   0  0  0  0  0  2  0  0  0  0  0  0
  162.4180  206.9400  138.4220 N   0  0  0  0  0  1  0  0  0  0  0  0
  161.5190  207.2590  139.5320 C   0  0  2  0  0  3  0  0  0  0  0  0
  161.1170  208.7350  139.5010 C   0  0  0  0  0  2  0  0  0  0  0  0
  162.3190  209.6320  139.6350 C   0  0  0  0  0  0  0  0  0  0  0  0
  163.5320  211.7270  138.9560 C   0  0  0  0  0  1  0  0  0  0  0  0
  162.3890  210.8360  138.8520 N   0  0  0  0  0  2  0  0  0  0  0  0
  163.1790  209.3940  140.5480 O   0  0  0  0  0  0  0  0  0  0  0  0
  160.2000  214.0240  147.1090 O   0  0  0  0  0  0  0  0  0  0  0  0
  158.7020  213.9040  145.2630 C   0  0  0  0  0  1  0  0  0  0  0  0
  159.8700  213.2550  145.9550 C   0  0  0  0  0  2  0  0  0  0  0  0
  159.7900  213.9280  151.9800 O   0  0  0  0  0  0  0  0  0  0  0  0
  159.2440  213.3870  154.2930 C   0  0  1  0  0  3  0  0  0  0  0  0
  156.6180  212.1030  152.7710 O   0  0  0  0  0  0  0  0  0  0  0  0
  158.6570  210.9900  152.5410 O   0  0  0  0  0  1  0  0  0  0  0  0
  157.6170  214.4510  152.8430 C   0  0  0  0  0  2  0  0  0  0  0  0
  158.1050  214.1750  154.9720 C   0  0  1  0  0  3  0  0  0  0  0  0
  160.7920  211.5580  155.4710 C   0  0  1  0  0  3  0  0  0  0  0  0
  157.9700  212.1610  152.2510 C   0  0  0  0  0  0  0  0  0  0  0  0
  156.8910  213.9760  154.0820 C   0  0  2  0  0  3  0  0  0  0  0  0
  159.3930  211.9540  154.9400 C   0  0  1  0  0  3  0  0  0  0  0  0
  156.5780  212.5440  154.0240 O   0  0  0  0  0  0  0  0  0  0  0  0
  159.7860  212.1600  156.4110 C   0  0  2  0  0  3  0  0  0  0  0  0
  157.8550  213.8990  156.3220 O   0  0  0  0  0  0  0  0  0  0  0  0
  160.2050  213.5640  156.8330 C   0  0  0  0  0  2  0  0  0  0  0  0
  158.7310  213.4280  152.8110 C   0  0  1  0  0  0  0  0  0  0  0  0
  158.9580  214.4520  157.0170 C   0  0  0  0  0  2  0  0  0  0  0  0
  157.8360  212.2570  150.8610 O   0  0  0  0  0  1  0  0  0  0  0  0
  160.8480  210.0750  155.9850 C   0  0  0  0  0  2  0  0  0  0  0  0
  160.4660  209.1360  154.9580 O   0  0  0  0  0  0  0  0  0  0  0  0
  161.5830  208.8360  154.1640 C   0  0  1  0  0  3  0  0  0  0  0  0
  160.6300  206.7640  154.8160 C   0  0  2  0  0  3  0  0  0  0  0  0
  161.0990  205.8230  155.7650 O   0  0  0  0  0  1  0  0  0  0  0  0
  160.9310  206.4380  153.3530 C   0  0  1  0  0  3  0  0  0  0  0  0
  161.8770  207.3180  154.1860 C   0  0  1  0  0  3  0  0  0  0  0  0
  161.3100  204.9700  153.1820 C   0  0  1  0  0  3  0  0  0  0  0  0
  160.1900  204.1770  153.5490 O   0  0  0  0  0  1  0  0  0  0  0  0
  161.8100  204.6050  151.8290 N   0  0  0  0  0  0  0  0  0  0  0  0
  159.9100  204.1350  150.4480 C   0  0  0  0  0  2  0  0  0  0  0  0
  160.3910  202.8330  151.0470 C   0  0  2  0  0  3  0  0  0  0  0  0
  161.7420  203.1490  151.6330 C   0  0  0  0  0  2  0  0  0  0  0  0
  160.9760  205.1520  150.7530 C   0  0  0  0  0  2  0  0  0  0  0  0
  160.5300  201.8550  150.0560 O   0  0  0  0  0  1  0  0  0  0  0  0
  161.2640  209.3220  152.8750 O   0  0  0  0  0  0  0  0  0  0  0  0
  162.3800  209.2530  152.0520 C   0  0  0  0  0  1  0  0  0  0  0  0
  1  2  1  0  0  0  0
  2  6  2  0  0  0  0
  2 36  1  0  0  0  0
  3  4  2  0  0  0  0
  4  7  1  0  0  0  0
  4  6  1  0  0  0  0
  5  3  1  0  0  0  0
  5  1  2  0  0  0  0
  8  9  1  0  0  0  0
  8  7  1  0  0  0  0
 10  9  1  0  0  0  0
 11 10  1  0  0  0  0
 12 11  2  0  0  0  0
 13 11  1  0  0  0  0
 14 19  2  0  0  0  0
 14 16  1  0  0  0  0
 15 17  1  0  0  0  0
 16 15  2  0  0  0  0
 17 18  1  0  0  0  0
 19 20  1  0  0  0  0
 20 13  1  0  0  0  0
 20 17  2  0  0  0  0
 21 22  1  0  0  0  0
 22 19  1  0  0  0  0
 23 21  2  0  0  0  0
 24 21  1  0  0  0  0
 25 24  1  0  0  0  0
 27 26  1  6  0  0  0
 27 25  1  0  0  0  0
 28 27  1  0  0  0  0
 28 29  1  0  0  0  0
 29 32  2  0  0  0  0
 31 30  1  0  0  0  0
 31 29  1  0  0  0  0
 33  5  1  0  0  0  0
 34 35  1  0  0  0  0
 35 33  1  0  0  0  0
 36 50  1  0  0  0  0
 37 45  1  0  0  0  0
 37 41  1  0  0  0  0
 38 46  1  0  0  0  0
 40 44  1  0  0  0  0
 41 48  1  0  0  0  0
 42 53  1  0  0  0  0
 42 47  1  0  0  0  0
 43 39  1  0  0  0  0
 43 38  1  0  0  0  0
 43 50  1  0  0  0  0
 44 41  1  0  0  0  0
 45 42  1  0  0  0  0
 45 47  1  0  0  0  0
 46 44  1  0  0  0  0
 47 49  1  0  0  0  0
 48 51  1  0  0  0  0
 49 51  1  0  0  0  0
 50 40  1  0  0  0  0
 50 37  1  0  0  0  0
 52 43  1  0  0  0  0
 54 53  1  0  0  0  0
 55 59  1  0  0  0  0
 55 54  1  0  0  0  0
 56 57  1  0  0  0  0
 58 59  1  0  0  0  0
 58 56  1  0  0  0  0
 59 56  1  0  0  0  0
 60 58  1  0  0  0  0
 60 61  1  0  0  0  0
 62 60  1  0  0  0  0
 63 66  1  0  0  0  0
 63 64  1  0  0  0  0
 64 65  1  0  0  0  0
 65 62  1  0  0  0  0
 66 62  1  0  0  0  0
 67 64  1  0  0  0  0
 68 55  1  0  0  0  0
 69 68  1  0  0  0  0
M  END
>  <MODEL>
2

>  <REMARK>
 VINA RESULT:      -1.2      2.071      6.392
  Name = 
  24 active torsions:
  status: ('A' for Active; 'I' for Inactive)
    1  A    between atoms: C_1  and  N_6
    2  A    between atoms: C_1  and  C_62
    3  A    between atoms: C_2  and  C_8
    4  A    between atoms: C_4  and  C_52
    5  A    between atoms: C_4  and  C_58
    6  A    between atoms: C_8  and  C_54
    7  A    between atoms: C_13  and  O_18
    8  A    between atoms: O_14  and  C_40
    9  A    between atoms: O_14  and  C_61
   10  A    between atoms: C_17  and  C_29
   11  A    between atoms: O_18  and  C_56
   12  A    between atoms: O_21  and  C_38
   13  A    between atoms: O_21  and  C_44
   14  A    between atoms: C_23  and  C_43
   15  A    between atoms: C_27  and  C_29
   16  A    between atoms: C_27  and  C_46
   17  A    between atoms: C_28  and  C_40
   18  A    between atoms: N_30  and  C_67
   19  A    between atoms: O_39  and  C_61
   20  A    between atoms: C_43  and  C_64
   21  A    between atoms: C_46  and  C_52
   22  A    between atoms: C_54  and  C_64
   23  A    between atoms: C_58  and  C_68
   24  A    between atoms: C_61  and  C_66
                            x       y       z     vdW  Elec       q    Type
                         _______ _______ _______ _____ _____    ______ ____

>  <TORSDO>
F 24

$$$$
=
 OpenBabel11072414293D

 69 76  0  0  1  0  0  0  0  0999 V2000
  160.2110  207.9960  154.4510 C   0  0  0  0  0  3  0  0  0  0  0  0
  160.2120  208.2070  153.0720 C   0  0  0  0  0  0  0  0  0  0  0  0
  161.1740  205.7930  154.1170 C   0  0  0  0  0  3  0  0  0  0  0  0
  161.1660  206.0120  152.7260 C   0  0  0  0  0  0  0  0  0  0  0  0
  160.7290  206.7900  154.9950 C   0  0  0  0  0  0  0  0  0  0  0  0
  160.6740  207.2210  152.2170 C   0  0  0  0  0  3  0  0  0  0  0  0
  161.5550  204.9300  151.7880 C   0  0  0  0  0  2  0  0  0  0  0  0
  160.6130  203.7310  151.9320 C   0  0  0  0  0  2  0  0  0  0  0  0
  161.2960  202.4400  151.5020 C   0  0  0  0  0  2  0  0  0  0  0  0
  160.6510  201.8800  150.2090 C   0  0  0  0  0  2  0  0  0  0  0  0
  160.9200  202.7130  148.9620 C   0  0  0  0  0  0  0  0  0  0  0  0
  160.4340  203.8230  148.8180 O   0  0  0  0  0  0  0  0  0  0  0  0
  161.9880  202.2680  147.9860 C   0  0  0  0  0  2  0  0  0  0  0  0
  160.1400  201.7010  144.6870 C   0  0  0  0  0  3  0  0  0  0  0  0
  160.7620  199.5560  145.5650 C   0  0  0  0  0  3  0  0  0  0  0  0
  160.1950  200.3180  144.5560 C   0  0  0  0  0  3  0  0  0  0  0  0
  161.3020  200.1790  146.7060 C   0  0  0  0  0  0  0  0  0  0  0  0
  161.7040  199.4180  147.7520 F   0  0  0  0  0  0  0  0  0  0  0  0
  160.6790  202.3450  145.8140 C   0  0  0  0  0  0  0  0  0  0  0  0
  161.3300  201.5800  146.8050 C   0  0  0  0  0  0  0  0  0  0  0  0
  161.2680  204.8450  145.5720 C   0  0  0  0  0  0  0  0  0  0  0  0
  160.4680  203.7430  146.0360 N   0  0  0  0  0  2  0  0  0  0  0  0
  162.4230  204.6800  145.0760 O   0  0  0  0  0  0  0  0  0  0  0  0
  160.6870  206.2020  145.6410 C   0  0  0  0  0  2  0  0  0  0  0  0
  161.2940  206.9480  146.8120 C   0  0  0  0  0  2  0  0  0  0  0  0
  159.7420  206.1070  148.5180 N   0  0  0  0  0  1  0  0  0  0  0  0
  161.1470  206.1800  148.1150 C   0  0  2  0  0  3  0  0  0  0  0  0
  162.0020  206.7930  149.2250 C   0  0  0  0  0  2  0  0  0  0  0  0
  162.5290  208.1470  148.8260 C   0  0  0  0  0  0  0  0  0  0  0  0
  162.4760  210.6460  149.0970 C   0  0  0  0  0  1  0  0  0  0  0  0
  161.9930  209.3230  149.4550 N   0  0  0  0  0  2  0  0  0  0  0  0
  163.5440  208.2210  148.0560 O   0  0  0  0  0  0  0  0  0  0  0  0
  160.7940  206.5790  156.3660 O   0  0  0  0  0  0  0  0  0  0  0  0
  162.0510  208.5990  156.4270 C   0  0  0  0  0  1  0  0  0  0  0  0
  161.4600  207.4830  157.2440 C   0  0  0  0  0  2  0  0  0  0  0  0
  159.7310  209.4010  152.5180 O   0  0  0  0  0  0  0  0  0  0  0  0
  158.4460  211.4670  152.6700 C   0  0  1  0  0  3  0  0  0  0  0  0
  161.2310  212.4150  154.1560 O   0  0  0  0  0  0  0  0  0  0  0  0
  161.2850  212.1140  151.8420 O   0  0  0  0  0  1  0  0  0  0  0  0
  159.5570  210.5430  154.6180 C   0  0  0  0  0  2  0  0  0  0  0  0
  157.9050  211.8840  154.0530 C   0  0  1  0  0  3  0  0  0  0  0  0
  157.9830  212.7370  150.3680 C   0  0  1  0  0  3  0  0  0  0  0  0
  161.1180  211.4710  153.0620 C   0  0  0  0  0  0  0  0  0  0  0  0
  159.1220  211.9500  154.9580 C   0  0  2  0  0  3  0  0  0  0  0  0
  158.6700  212.7340  151.7530 C   0  0  1  0  0  3  0  0  0  0  0  0
  160.0480  212.9580  154.4300 O   0  0  0  0  0  0  0  0  0  0  0  0
  157.2950  213.3840  151.5360 C   0  0  2  0  0  3  0  0  0  0  0  0
  157.1100  213.0360  154.1050 O   0  0  0  0  0  0  0  0  0  0  0  0
  156.0680  212.5840  151.9590 C   0  0  0  0  0  2  0  0  0  0  0  0
  159.7380  210.7030  153.1240 C   0  0  1  0  0  0  0  0  0  0  0  0
  155.8900  212.6640  153.4890 C   0  0  0  0  0  2  0  0  0  0  0  0
  162.1770  210.5710  153.2300 O   0  0  0  0  0  1  0  0  0  0  0  0
  158.3690  213.9900  149.5020 C   0  0  0  0  0  2  0  0  0  0  0  0
  157.4160  214.2250  148.4440 O   0  0  0  0  0  0  0  0  0  0  0  0
  158.1030  214.4520  147.2420 C   0  0  1  0  0  3  0  0  0  0  0  0
  159.4590  212.8640  146.1170 C   0  0  2  0  0  3  0  0  0  0  0  0
  160.0210  211.6610  146.6070 O   0  0  0  0  0  1  0  0  0  0  0  0
  160.4030  214.0650  146.0630 C   0  0  1  0  0  3  0  0  0  0  0  0
  159.5080  213.8080  147.2860 C   0  0  1  0  0  3  0  0  0  0  0  0
  161.8610  213.6250  146.1580 C   0  0  1  0  0  3  0  0  0  0  0  0
  162.0220  212.8770  147.3540 O   0  0  0  0  0  1  0  0  0  0  0  0
  162.3670  212.8730  144.9780 N   0  0  0  0  0  0  0  0  0  0  0  0
  163.4360  214.4400  143.5160 C   0  0  0  0  0  2  0  0  0  0  0  0
  161.9980  214.2900  143.0750 C   0  0  2  0  0  3  0  0  0  0  0  0
  161.4860  213.0850  143.8190 C   0  0  0  0  0  2  0  0  0  0  0  0
  163.6780  213.3510  144.5240 C   0  0  0  0  0  2  0  0  0  0  0  0
  161.9260  214.0530  141.6980 O   0  0  0  0  0  1  0  0  0  0  0  0
  157.2740  213.9120  146.2320 O   0  0  0  0  0  0  0  0  0  0  0  0
  155.9500  213.9220  146.6490 C   0  0  0  0  0  1  0  0  0  0  0  0
  1  5  1  0  0  0  0
  2  1  2  0  0  0  0
  3  5  2  0  0  0  0
  4  3  1  0  0  0  0
  5 33  1  0  0  0  0
  6  4  2  0  0  0  0
  6  2  1  0  0  0  0
  7  8  1  0  0  0  0
  7  4  1  0  0  0  0
  9  8  1  0  0  0  0
 10  9  1  0  0  0  0
 11 10  1  0  0  0  0
 12 11  2  0  0  0  0
 13 11  1  0  0  0  0
 14 19  1  0  0  0  0
 15 17  2  0  0  0  0
 16 14  2  0  0  0  0
 16 15  1  0  0  0  0
 17 20  1  0  0  0  0
 17 18  1  0  0  0  0
 19 22  1  0  0  0  0
 19 20  2  0  0  0  0
 20 13  1  0  0  0  0
 21 24  1  0  0  0  0
 21 22  1  0  0  0  0
 23 21  2  0  0  0  0
 24 25  1  0  0  0  0
 25 27  1  0  0  0  0
 27 26  1  1  0  0  0
 27 28  1  0  0  0  0
 29 28  1  0  0  0  0
 29 31  1  0  0  0  0
 30 31  1  0  0  0  0
 32 29  2  0  0  0  0
 33 35  1  0  0  0  0
 34 35  1  0  0  0  0
 36  2  1  0  0  0  0
 36 50  1  0  0  0  0
 37 50  1  0  0  0  0
 37 41  1  0  0  0  0
 38 46  1  0  0  0  0
 39 43  1  0  0  0  0
 40 44  1  0  0  0  0
 41 48  1  0  0  0  0
 41 44  1  0  0  0  0
 42 47  1  0  0  0  0
 42 45  1  0  0  0  0
 43 50  1  0  0  0  0
 43 52  1  0  0  0  0
 43 38  1  0  0  0  0
 45 37  1  0  0  0  0
 46 44  1  0  0  0  0
 47 45  1  0  0  0  0
 47 49  1  0  0  0  0
 49 51  1  0  0  0  0
 50 40  1  0  0  0  0
 51 48  1  0  0  0  0
 53 42  1  0  0  0  0
 54 53  1  0  0  0  0
 55 59  1  0  0  0  0
 55 54  1  0  0  0  0
 56 57  1  0  0  0  0
 56 59  1  0  0  0  0
 58 56  1  0  0  0  0
 58 60  1  0  0  0  0
 58 59  1  0  0  0  0
 60 61  1  0  0  0  0
 62 60  1  0  0  0  0
 63 66  1  0  0  0  0
 64 63  1  0  0  0  0
 64 65  1  0  0  0  0
 65 62  1  0  0  0  0
 66 62  1  0  0  0  0
 67 64  1  0  0  0  0
 68 69  1  0  0  0  0
 68 55  1  0  0  0  0
M  END
>  <MODEL>
3

>  <REMARK>
 VINA RESULT:      -0.8      2.625      4.195
  Name = 
  24 active torsions:
  status: ('A' for Active; 'I' for Inactive)
    1  A    between atoms: C_1  and  N_6
    2  A    between atoms: C_1  and  C_62
    3  A    between atoms: C_2  and  C_8
    4  A    between atoms: C_4  and  C_52
    5  A    between atoms: C_4  and  C_58
    6  A    between atoms: C_8  and  C_54
    7  A    between atoms: C_13  and  O_18
    8  A    between atoms: O_14  and  C_40
    9  A    between atoms: O_14  and  C_61
   10  A    between atoms: C_17  and  C_29
   11  A    between atoms: O_18  and  C_56
   12  A    between atoms: O_21  and  C_38
   13  A    between atoms: O_21  and  C_44
   14  A    between atoms: C_23  and  C_43
   15  A    between atoms: C_27  and  C_29
   16  A    between atoms: C_27  and  C_46
   17  A    between atoms: C_28  and  C_40
   18  A    between atoms: N_30  and  C_67
   19  A    between atoms: O_39  and  C_61
   20  A    between atoms: C_43  and  C_64
   21  A    between atoms: C_46  and  C_52
   22  A    between atoms: C_54  and  C_64
   23  A    between atoms: C_58  and  C_68
   24  A    between atoms: C_61  and  C_66
                            x       y       z     vdW  Elec       q    Type
                         _______ _______ _______ _____ _____    ______ ____

>  <TORSDO>
F 24

$$$$
