=
 OpenBabel11072412223D

 27 30  0  0  1  0  0  0  0  0999 V2000
  161.5830  204.8940  151.1270 C   0  0  0  0  0  2  0  0  0  0  0  0
  161.7890  207.4030  150.9080 C   0  0  1  0  0  3  0  0  0  0  0  0
  161.6770  207.0200  152.3260 N   0  0  2  0  0  0  0  0  0  0  0  0
  163.0400  207.0120  150.4200 O   0  0  0  0  0  1  0  0  0  0  0  0
  160.9390  206.2630  151.3000 C   0  0  2  0  0  3  0  0  0  0  0  0
  161.1290  210.2850  153.2760 C   0  0  0  0  0  2  0  0  0  0  0  0
  161.1720  208.2510  154.3650 C   0  0  0  0  0  2  0  0  0  0  0  0
  160.7310  207.9370  152.9460 C   0  0  1  0  0  3  0  0  0  0  0  0
  160.7640  209.2650  152.2230 C   0  0  0  0  0  2  0  0  0  0  0  0
  161.7810  209.5730  154.3660 N   0  0  2  0  0  0  0  0  0  0  0  0
  161.8170  209.3770  156.7900 C   0  0  0  0  0  2  0  0  0  0  0  0
  162.3470  211.6410  157.2610 O   0  0  0  0  0  1  0  0  0  0  0  0
  161.3960  210.2290  155.6070 C   0  0  1  0  0  3  0  0  0  0  0  0
  162.6410  210.5840  156.4010 C   0  0  2  0  0  3  0  0  0  0  0  0
  160.5020  203.8350  151.0050 C   0  0  0  0  0  2  0  0  0  0  0  0
  162.0940  203.6770  147.7790 C   0  0  0  0  0  3  0  0  0  0  0  0
  160.8350  202.8690  149.9200 C   0  0  0  0  0  0  0  0  0  0  0  0
  161.4600  203.2710  148.8470 C   0  0  0  0  0  0  0  0  0  0  0  0
  160.3050  201.4810  149.9860 C   0  0  0  0  0  1  0  0  0  0  0  0
  160.2880  204.9960  144.1680 N   0  0  0  0  0  0  0  0  0  0  0  0
  160.8500  205.9020  145.0060 C   0  0  0  0  0  3  0  0  0  0  0  0
  160.8070  201.8040  145.8260 N   0  0  0  0  0  1  0  0  0  0  0  0
  161.4420  205.4740  146.1910 C   0  0  0  0  0  0  0  0  0  0  0  0
  162.0510  206.5000  147.0880 C   0  0  0  0  0  1  0  0  0  0  0  0
  160.2870  203.6950  144.4540 N   0  0  0  0  0  0  0  0  0  0  0  0
  160.8470  203.2090  145.5930 C   0  0  0  0  0  0  0  0  0  0  0  0
  161.4530  204.1030  146.5090 C   0  0  0  0  0  0  0  0  0  0  0  0
  2  4  1  6  0  0  0
  2  5  1  0  0  0  0
  2  3  1  0  0  0  0
  3  8  1  1  0  0  0
  5  1  1  6  0  0  0
  5  3  1  0  0  0  0
  7 10  1  0  0  0  0
  8  9  1  6  0  0  0
  8  7  1  0  0  0  0
  9  6  1  0  0  0  0
 10  6  1  6  0  0  0
 10 13  1  0  0  0  0
 13 14  1  0  0  0  0
 13 11  1  1  0  0  0
 14 11  1  0  0  0  0
 14 12  1  1  0  0  0
 15  1  1  0  0  0  0
 16 18  2  0  0  0  0
 17 19  1  0  0  0  0
 17 15  1  0  0  0  0
 18 17  2  0  0  0  0
 20 25  2  0  0  0  0
 20 21  1  0  0  0  0
 21 23  2  0  0  0  0
 23 27  1  0  0  0  0
 23 24  1  0  0  0  0
 25 26  1  0  0  0  0
 26 22  1  0  0  0  0
 26 27  2  0  0  0  0
 27 16  1  0  0  0  0
M  END
>  <MODEL>
1

>  <REMARK>
 VINA RESULT:      -7.7      0.000      0.000
  Name = 
  6 active torsions:
  status: ('A' for Active; 'I' for Inactive)
    1  A    between atoms: C_8  and  C_12
    2  A    between atoms: C_8  and  C_25
    3  A    between atoms: C_10  and  N_27
    4  A    between atoms: C_11  and  C_26
    5  A    between atoms: C_14  and  N_17
    6  A    between atoms: CA_23  and  C_25
                            x       y       z     vdW  Elec       q    Type
                         _______ _______ _______ _____ _____    ______ ____

>  <TORSDO>
F 6

$$$$
=
 OpenBabel11072412223D

 27 30  0  0  1  0  0  0  0  0999 V2000
  160.8340  206.7220  154.3190 C   0  0  0  0  0  2  0  0  0  0  0  0
  160.8540  207.9220  156.5420 C   0  0  1  0  0  3  0  0  0  0  0  0
  159.9950  208.6370  155.5820 N   0  0  2  0  0  0  0  0  0  0  0  0
  160.2340  206.7260  156.9170 O   0  0  0  0  0  1  0  0  0  0  0  0
  161.2190  207.9630  155.1140 C   0  0  2  0  0  3  0  0  0  0  0  0
  158.6730  211.8180  155.6010 C   0  0  0  0  0  2  0  0  0  0  0  0
  160.2500  210.7100  154.3320 C   0  0  0  0  0  2  0  0  0  0  0  0
  160.3050  210.0560  155.7000 C   0  0  1  0  0  3  0  0  0  0  0  0
  159.2270  210.7440  156.5080 C   0  0  0  0  0  2  0  0  0  0  0  0
  158.9950  211.4430  154.2320 N   0  0  2  0  0  0  0  0  0  0  0  0
  159.9030  212.3370  152.1590 C   0  0  0  0  0  2  0  0  0  0  0  0
  158.2580  214.0100  151.8160 O   0  0  0  0  0  1  0  0  0  0  0  0
  159.2640  212.6680  153.4950 C   0  0  1  0  0  3  0  0  0  0  0  0
  158.4340  212.6900  152.2230 C   0  0  2  0  0  3  0  0  0  0  0  0
  161.8180  206.5240  153.1790 C   0  0  0  0  0  2  0  0  0  0  0  0
  160.3620  205.9350  149.9390 C   0  0  0  0  0  3  0  0  0  0  0  0
  161.3600  207.2520  151.9610 C   0  0  0  0  0  0  0  0  0  0  0  0
  160.8650  206.5960  150.9470 C   0  0  0  0  0  0  0  0  0  0  0  0
  161.6250  208.7090  151.8350 C   0  0  0  0  0  1  0  0  0  0  0  0
  162.5170  204.4890  146.5760 N   0  0  0  0  0  0  0  0  0  0  0  0
  161.9530  203.6080  147.4400 C   0  0  0  0  0  3  0  0  0  0  0  0
  161.6690  207.7470  147.9430 N   0  0  0  0  0  1  0  0  0  0  0  0
  161.2460  204.0780  148.5440 C   0  0  0  0  0  0  0  0  0  0  0  0
  160.6390  203.0790  149.4720 C   0  0  0  0  0  1  0  0  0  0  0  0
  162.4120  205.8040  146.7610 N   0  0  0  0  0  0  0  0  0  0  0  0
  161.7370  206.3300  147.8170 C   0  0  0  0  0  0  0  0  0  0  0  0
  161.1240  205.4640  148.7540 C   0  0  0  0  0  0  0  0  0  0  0  0
  2  4  1  6  0  0  0
  3  8  1  1  0  0  0
  3  2  1  0  0  0  0
  5  1  1  6  0  0  0
  5  3  1  0  0  0  0
  5  2  1  0  0  0  0
  6  9  1  0  0  0  0
  8  7  1  6  0  0  0
  8  9  1  0  0  0  0
 10  7  1  1  0  0  0
 10  6  1  0  0  0  0
 11 14  1  0  0  0  0
 13 11  1  6  0  0  0
 13 10  1  0  0  0  0
 14 12  1  6  0  0  0
 14 13  1  0  0  0  0
 15  1  1  0  0  0  0
 16 18  2  0  0  0  0
 17 15  1  0  0  0  0
 18 17  2  0  0  0  0
 19 17  1  0  0  0  0
 20 25  2  0  0  0  0
 20 21  1  0  0  0  0
 21 23  2  0  0  0  0
 23 27  1  0  0  0  0
 23 24  1  0  0  0  0
 25 26  1  0  0  0  0
 26 22  1  0  0  0  0
 26 27  2  0  0  0  0
 27 16  1  0  0  0  0
M  END
>  <MODEL>
2

>  <REMARK>
 VINA RESULT:      -7.5      2.787      4.671
  Name = 
  6 active torsions:
  status: ('A' for Active; 'I' for Inactive)
    1  A    between atoms: C_8  and  C_12
    2  A    between atoms: C_8  and  C_25
    3  A    between atoms: C_10  and  N_27
    4  A    between atoms: C_11  and  C_26
    5  A    between atoms: C_14  and  N_17
    6  A    between atoms: CA_23  and  C_25
                            x       y       z     vdW  Elec       q    Type
                         _______ _______ _______ _____ _____    ______ ____

>  <TORSDO>
F 6

$$$$
=
 OpenBabel11072412223D

 27 30  0  0  1  0  0  0  0  0999 V2000
  162.1590  206.5410  151.3660 C   0  0  0  0  0  2  0  0  0  0  0  0
  161.3990  205.5640  153.5680 C   0  0  1  0  0  3  0  0  0  0  0  0
  160.9650  206.9670  153.4540 N   0  0  2  0  0  0  0  0  0  0  0  0
  160.6570  204.7760  152.6830 O   0  0  0  0  0  1  0  0  0  0  0  0
  162.2580  206.5490  152.8860 C   0  0  2  0  0  3  0  0  0  0  0  0
  159.5660  208.5100  156.1980 C   0  0  0  0  0  2  0  0  0  0  0  0
  161.1070  209.1150  154.5900 C   0  0  0  0  0  2  0  0  0  0  0  0
  161.2450  207.6100  154.7310 C   0  0  1  0  0  3  0  0  0  0  0  0
  160.1910  207.2120  155.7400 C   0  0  0  0  0  2  0  0  0  0  0  0
  159.8310  209.5080  155.1720 N   0  0  2  0  0  0  0  0  0  0  0  0
  160.3500  211.8590  154.8230 C   0  0  0  0  0  2  0  0  0  0  0  0
  158.8030  212.7370  156.3930 O   0  0  0  0  0  1  0  0  0  0  0  0
  160.0330  210.7820  155.8450 C   0  0  1  0  0  3  0  0  0  0  0  0
  158.9580  211.7630  155.4080 C   0  0  2  0  0  3  0  0  0  0  0  0
  162.4110  207.9400  150.8330 C   0  0  0  0  0  2  0  0  0  0  0  0
  160.3050  206.2060  148.4820 C   0  0  0  0  0  3  0  0  0  0  0  0
  161.7640  208.1170  149.5010 C   0  0  0  0  0  0  0  0  0  0  0  0
  161.0380  207.1620  148.9870 C   0  0  0  0  0  0  0  0  0  0  0  0
  162.0850  209.3170  148.6840 C   0  0  0  0  0  1  0  0  0  0  0  0
  161.6880  203.1450  145.8820 N   0  0  0  0  0  0  0  0  0  0  0  0
  161.6160  202.9100  147.2160 C   0  0  0  0  0  3  0  0  0  0  0  0
  160.5260  206.5690  145.5170 N   0  0  0  0  0  1  0  0  0  0  0  0
  161.1640  203.9100  148.0720 C   0  0  0  0  0  0  0  0  0  0  0  0
  161.0980  203.6140  149.5330 C   0  0  0  0  0  1  0  0  0  0  0  0
  161.3350  204.3220  145.3660 N   0  0  0  0  0  0  0  0  0  0  0  0
  160.8860  205.3420  146.1440 C   0  0  0  0  0  0  0  0  0  0  0  0
  160.7850  205.1600  147.5450 C   0  0  0  0  0  0  0  0  0  0  0  0
  2  4  1  6  0  0  0
  3  2  1  0  0  0  0
  3  8  1  1  0  0  0
  5  1  1  6  0  0  0
  5  3  1  0  0  0  0
  5  2  1  0  0  0  0
  8  7  1  6  0  0  0
  8  9  1  0  0  0  0
  9  6  1  0  0  0  0
 10  7  1  1  0  0  0
 10 13  1  0  0  0  0
 10  6  1  0  0  0  0
 11 14  1  0  0  0  0
 13 11  1  6  0  0  0
 14 13  1  0  0  0  0
 14 12  1  1  0  0  0
 15  1  1  0  0  0  0
 16 18  2  0  0  0  0
 17 15  1  0  0  0  0
 18 17  2  0  0  0  0
 19 17  1  0  0  0  0
 20 21  1  0  0  0  0
 21 23  2  0  0  0  0
 22 26  1  0  0  0  0
 23 24  1  0  0  0  0
 25 20  2  0  0  0  0
 25 26  1  0  0  0  0
 26 27  2  0  0  0  0
 27 23  1  0  0  0  0
 27 16  1  0  0  0  0
M  END
>  <MODEL>
3

>  <REMARK>
 VINA RESULT:      -7.4      2.019      3.537
  Name = 
  6 active torsions:
  status: ('A' for Active; 'I' for Inactive)
    1  A    between atoms: C_8  and  C_12
    2  A    between atoms: C_8  and  C_25
    3  A    between atoms: C_10  and  N_27
    4  A    between atoms: C_11  and  C_26
    5  A    between atoms: C_14  and  N_17
    6  A    between atoms: CA_23  and  C_25
                            x       y       z     vdW  Elec       q    Type
                         _______ _______ _______ _____ _____    ______ ____

>  <TORSDO>
F 6

$$$$
=
 OpenBabel11072412223D

 27 30  0  0  1  0  0  0  0  0999 V2000
  161.5860  204.5650  151.2390 C   0  0  0  0  0  2  0  0  0  0  0  0
  161.9850  207.0600  151.3040 C   0  0  1  0  0  3  0  0  0  0  0  0
  161.6250  206.5640  152.6440 N   0  0  2  0  0  0  0  0  0  0  0  0
  163.2700  206.6160  150.9770 O   0  0  0  0  0  1  0  0  0  0  0  0
  161.0120  205.9610  151.4480 C   0  0  2  0  0  3  0  0  0  0  0  0
  161.1460  209.7630  153.8280 C   0  0  0  0  0  2  0  0  0  0  0  0
  160.8780  207.6410  154.6950 C   0  0  0  0  0  2  0  0  0  0  0  0
  160.6530  207.4950  153.2010 C   0  0  1  0  0  3  0  0  0  0  0  0
  160.8900  208.8760  152.6320 C   0  0  0  0  0  2  0  0  0  0  0  0
  161.5650  208.9040  154.9270 N   0  0  2  0  0  0  0  0  0  0  0  0
  162.1120  209.5230  157.2150 C   0  0  0  0  0  2  0  0  0  0  0  0
  160.9140  211.5700  157.2610 O   0  0  0  0  0  1  0  0  0  0  0  0
  161.0280  209.4730  156.1540 C   0  0  1  0  0  3  0  0  0  0  0  0
  161.7380  210.7800  156.4620 C   0  0  2  0  0  3  0  0  0  0  0  0
  160.4530  203.5610  151.1340 C   0  0  0  0  0  2  0  0  0  0  0  0
  162.0340  203.6080  147.8990 C   0  0  0  0  0  3  0  0  0  0  0  0
  160.5950  202.7400  149.8970 C   0  0  0  0  0  0  0  0  0  0  0  0
  161.3090  203.1730  148.8950 C   0  0  0  0  0  0  0  0  0  0  0  0
  159.7830  201.5040  149.7410 C   0  0  0  0  0  1  0  0  0  0  0  0
  160.5370  205.6800  144.5070 N   0  0  0  0  0  0  0  0  0  0  0  0
  160.5220  204.3250  144.5250 C   0  0  0  0  0  3  0  0  0  0  0  0
  162.0020  206.5970  147.7040 N   0  0  0  0  0  1  0  0  0  0  0  0
  161.0120  203.6410  145.6340 C   0  0  0  0  0  0  0  0  0  0  0  0
  160.9780  202.1490  145.6180 C   0  0  0  0  0  1  0  0  0  0  0  0
  161.0160  206.3810  145.5340 N   0  0  0  0  0  0  0  0  0  0  0  0
  161.5100  205.7780  146.6480 C   0  0  0  0  0  0  0  0  0  0  0  0
  161.5200  204.3650  146.7290 C   0  0  0  0  0  0  0  0  0  0  0  0
  2  4  1  6  0  0  0
  2  5  1  0  0  0  0
  2  3  1  0  0  0  0
  3  8  1  1  0  0  0
  5  1  1  6  0  0  0
  5  3  1  0  0  0  0
  7 10  1  0  0  0  0
  8  9  1  6  0  0  0
  8  7  1  0  0  0  0
  9  6  1  0  0  0  0
 10  6  1  6  0  0  0
 10 13  1  0  0  0  0
 13 14  1  0  0  0  0
 13 11  1  1  0  0  0
 14 11  1  0  0  0  0
 14 12  1  1  0  0  0
 15  1  1  0  0  0  0
 16 18  2  0  0  0  0
 17 15  1  0  0  0  0
 18 17  2  0  0  0  0
 19 17  1  0  0  0  0
 20 21  2  0  0  0  0
 20 25  1  0  0  0  0
 21 23  1  0  0  0  0
 23 27  2  0  0  0  0
 24 23  1  0  0  0  0
 25 26  2  0  0  0  0
 26 27  1  0  0  0  0
 26 22  1  0  0  0  0
 27 16  1  0  0  0  0
M  END
>  <MODEL>
4

>  <REMARK>
 VINA RESULT:      -7.4      1.154      1.757
  Name = 
  6 active torsions:
  status: ('A' for Active; 'I' for Inactive)
    1  A    between atoms: C_8  and  C_12
    2  A    between atoms: C_8  and  C_25
    3  A    between atoms: C_10  and  N_27
    4  A    between atoms: C_11  and  C_26
    5  A    between atoms: C_14  and  N_17
    6  A    between atoms: CA_23  and  C_25
                            x       y       z     vdW  Elec       q    Type
                         _______ _______ _______ _____ _____    ______ ____

>  <TORSDO>
F 6

$$$$
=
 OpenBabel11072412223D

 27 30  0  0  1  0  0  0  0  0999 V2000
  160.8980  206.7950  149.9630 C   0  0  0  0  0  2  0  0  0  0  0  0
  162.5840  207.5610  148.2420 C   0  0  1  0  0  3  0  0  0  0  0  0
  161.6080  206.6430  147.6300 N   0  0  2  0  0  0  0  0  0  0  0  0
  161.9570  208.7780  148.5290 O   0  0  0  0  0  1  0  0  0  0  0  0
  162.0410  206.4330  149.0220 C   0  0  2  0  0  3  0  0  0  0  0  0
  161.5180  204.7010  144.7860 C   0  0  0  0  0  2  0  0  0  0  0  0
  161.8510  204.2950  147.0330 C   0  0  0  0  0  2  0  0  0  0  0  0
  162.3570  205.7070  146.8020 C   0  0  1  0  0  3  0  0  0  0  0  0
  162.0800  205.9890  145.3420 C   0  0  0  0  0  2  0  0  0  0  0  0
  161.0020  203.9300  145.9070 N   0  0  2  0  0  0  0  0  0  0  0  0
  160.7660  201.6700  146.7780 C   0  0  0  0  0  2  0  0  0  0  0  0
  160.0830  200.6440  144.7510 O   0  0  0  0  0  1  0  0  0  0  0  0
  161.2440  202.5240  145.6180 C   0  0  1  0  0  3  0  0  0  0  0  0
  159.9180  201.7880  145.5300 C   0  0  2  0  0  3  0  0  0  0  0  0
  160.6810  205.6680  150.9560 C   0  0  0  0  0  2  0  0  0  0  0  0
  160.7160  207.1270  154.2480 C   0  0  0  0  0  3  0  0  0  0  0  0
  161.5680  205.8380  152.1420 C   0  0  0  0  0  0  0  0  0  0  0  0
  161.1470  206.4860  153.1940 C   0  0  0  0  0  0  0  0  0  0  0  0
  162.9910  205.4150  152.0600 C   0  0  0  0  0  1  0  0  0  0  0  0
  161.3410  211.2360  155.1240 N   0  0  0  0  0  0  0  0  0  0  0  0
  161.4840  210.3120  156.1060 C   0  0  0  0  0  3  0  0  0  0  0  0
  160.4360  209.2880  152.1920 N   0  0  0  0  0  1  0  0  0  0  0  0
  161.2790  208.9640  155.8230 C   0  0  0  0  0  0  0  0  0  0  0  0
  161.4460  207.9770  156.9300 C   0  0  0  0  0  1  0  0  0  0  0  0
  161.0050  210.8830  153.8840 N   0  0  0  0  0  0  0  0  0  0  0  0
  160.7900  209.5850  153.5390 C   0  0  0  0  0  0  0  0  0  0  0  0
  160.9250  208.5720  154.5190 C   0  0  0  0  0  0  0  0  0  0  0  0
  1 15  1  0  0  0  0
  2  4  1  1  0  0  0
  2  5  1  0  0  0  0
  3  8  1  6  0  0  0
  3  2  1  0  0  0  0
  3  5  1  0  0  0  0
  5  1  1  1  0  0  0
  6  9  1  0  0  0  0
  8  9  1  6  0  0  0
  8  7  1  0  0  0  0
 10  6  1  6  0  0  0
 10  7  1  0  0  0  0
 13 10  1  0  0  0  0
 13 11  1  1  0  0  0
 14 12  1  6  0  0  0
 14 13  1  0  0  0  0
 14 11  1  0  0  0  0
 15 17  1  0  0  0  0
 16 27  1  0  0  0  0
 17 18  2  0  0  0  0
 18 16  2  0  0  0  0
 19 17  1  0  0  0  0
 20 21  1  0  0  0  0
 22 26  1  0  0  0  0
 23 21  2  0  0  0  0
 23 24  1  0  0  0  0
 25 20  2  0  0  0  0
 26 25  1  0  0  0  0
 26 27  2  0  0  0  0
 27 23  1  0  0  0  0
M  END
>  <MODEL>
5

>  <REMARK>
 VINA RESULT:      -7.2      2.427      9.231
  Name = 
  6 active torsions:
  status: ('A' for Active; 'I' for Inactive)
    1  A    between atoms: C_8  and  C_12
    2  A    between atoms: C_8  and  C_25
    3  A    between atoms: C_10  and  N_27
    4  A    between atoms: C_11  and  C_26
    5  A    between atoms: C_14  and  N_17
    6  A    between atoms: CA_23  and  C_25
                            x       y       z     vdW  Elec       q    Type
                         _______ _______ _______ _____ _____    ______ ____

>  <TORSDO>
F 6

$$$$
=
 OpenBabel11072412223D

 27 30  0  0  1  0  0  0  0  0999 V2000
  161.2120  208.0030  151.6940 C   0  0  0  0  0  2  0  0  0  0  0  0
  161.1810  209.1500  153.9450 C   0  0  1  0  0  3  0  0  0  0  0  0
  160.1240  209.6970  153.0770 N   0  0  2  0  0  0  0  0  0  0  0  0
  160.8380  207.8500  154.3290 O   0  0  0  0  0  1  0  0  0  0  0  0
  161.4110  209.2830  152.4950 C   0  0  2  0  0  3  0  0  0  0  0  0
  159.7550  212.3300  155.2690 C   0  0  0  0  0  2  0  0  0  0  0  0
  158.7460  211.6930  153.2930 C   0  0  0  0  0  2  0  0  0  0  0  0
  160.1600  211.1470  153.2150 C   0  0  1  0  0  3  0  0  0  0  0  0
  160.7970  211.5150  154.5370 C   0  0  0  0  0  2  0  0  0  0  0  0
  158.4610  212.0080  154.6860 N   0  0  2  0  0  0  0  0  0  0  0  0
  156.3000  212.9530  154.0880 C   0  0  0  0  0  2  0  0  0  0  0  0
  156.0010  214.2620  156.0430 O   0  0  0  0  0  1  0  0  0  0  0  0
  157.6610  213.2230  154.7020 C   0  0  1  0  0  3  0  0  0  0  0  0
  156.4470  213.0220  155.5920 C   0  0  2  0  0  3  0  0  0  0  0  0
  162.4290  207.7540  150.8220 C   0  0  0  0  0  2  0  0  0  0  0  0
  160.3770  205.1330  149.4500 C   0  0  0  0  0  3  0  0  0  0  0  0
  162.0250  207.1570  149.5170 C   0  0  0  0  0  0  0  0  0  0  0  0
  161.2050  206.1420  149.4800 C   0  0  0  0  0  0  0  0  0  0  0  0
  162.6890  207.6110  148.2670 C   0  0  0  0  0  1  0  0  0  0  0  0
  161.4840  201.0320  149.4310 N   0  0  0  0  0  0  0  0  0  0  0  0
  161.2020  201.6440  150.6080 C   0  0  0  0  0  3  0  0  0  0  0  0
  161.0340  203.6370  146.9380 N   0  0  0  0  0  1  0  0  0  0  0  0
  160.8390  202.9880  150.6180 C   0  0  0  0  0  0  0  0  0  0  0  0
  160.5350  203.6280  151.9320 C   0  0  0  0  0  1  0  0  0  0  0  0
  161.4240  201.6910  148.2750 N   0  0  0  0  0  0  0  0  0  0  0  0
  161.0780  203.0040  148.2130 C   0  0  0  0  0  0  0  0  0  0  0  0
  160.7690  203.7010  149.4060 C   0  0  0  0  0  0  0  0  0  0  0  0
  2  4  1  6  0  0  0
  3  8  1  1  0  0  0
  3  2  1  0  0  0  0
  5  1  1  6  0  0  0
  5  3  1  0  0  0  0
  5  2  1  0  0  0  0
  8  7  1  1  0  0  0
  8  9  1  0  0  0  0
  9  6  1  0  0  0  0
 10  7  1  6  0  0  0
 10 13  1  0  0  0  0
 10  6  1  0  0  0  0
 11 14  1  0  0  0  0
 13 11  1  6  0  0  0
 13 14  1  0  0  0  0
 14 12  1  6  0  0  0
 15  1  1  0  0  0  0
 16 18  2  0  0  0  0
 17 15  1  0  0  0  0
 18 17  2  0  0  0  0
 19 17  1  0  0  0  0
 20 21  1  0  0  0  0
 21 23  2  0  0  0  0
 22 26  1  0  0  0  0
 23 24  1  0  0  0  0
 25 20  2  0  0  0  0
 26 25  1  0  0  0  0
 26 27  2  0  0  0  0
 27 16  1  0  0  0  0
 27 23  1  0  0  0  0
M  END
>  <MODEL>
6

>  <REMARK>
 VINA RESULT:      -7.1      2.994      4.700
  Name = 
  6 active torsions:
  status: ('A' for Active; 'I' for Inactive)
    1  A    between atoms: C_8  and  C_12
    2  A    between atoms: C_8  and  C_25
    3  A    between atoms: C_10  and  N_27
    4  A    between atoms: C_11  and  C_26
    5  A    between atoms: C_14  and  N_17
    6  A    between atoms: CA_23  and  C_25
                            x       y       z     vdW  Elec       q    Type
                         _______ _______ _______ _____ _____    ______ ____

>  <TORSDO>
F 6

$$$$
=
 OpenBabel11072412223D

 27 30  0  0  1  0  0  0  0  0999 V2000
  161.9460  207.2610  151.7570 C   0  0  0  0  0  2  0  0  0  0  0  0
  160.7830  205.0360  152.0450 C   0  0  1  0  0  3  0  0  0  0  0  0
  161.5250  205.0650  150.7720 N   0  0  2  0  0  0  0  0  0  0  0  0
  161.6900  204.9760  153.1080 O   0  0  0  0  0  1  0  0  0  0  0  0
  160.8770  206.2890  151.2740 C   0  0  2  0  0  3  0  0  0  0  0  0
  161.4030  203.1620  147.9030 C   0  0  0  0  0  2  0  0  0  0  0  0
  160.7730  205.3090  148.4690 C   0  0  0  0  0  2  0  0  0  0  0  0
  160.6510  204.5040  149.7510 C   0  0  1  0  0  3  0  0  0  0  0  0
  161.1230  203.1140  149.3880 C   0  0  0  0  0  2  0  0  0  0  0  0
  161.6080  204.5570  147.5430 N   0  0  2  0  0  0  0  0  0  0  0  0
  160.7070  206.2090  146.0020 C   0  0  0  0  0  2  0  0  0  0  0  0
  161.7840  205.4060  144.0470 O   0  0  0  0  0  1  0  0  0  0  0  0
  161.0590  204.7470  146.2090 C   0  0  1  0  0  3  0  0  0  0  0  0
  161.9790  205.6500  145.4040 C   0  0  2  0  0  3  0  0  0  0  0  0
  162.4090  208.1250  150.5980 C   0  0  0  0  0  2  0  0  0  0  0  0
  161.9630  210.3560  153.3890 C   0  0  0  0  0  3  0  0  0  0  0  0
  162.2150  209.5690  150.9120 C   0  0  0  0  0  0  0  0  0  0  0  0
  162.0840  209.9650  152.1480 C   0  0  0  0  0  0  0  0  0  0  0  0
  162.0020  210.5380  149.8040 C   0  0  0  0  0  1  0  0  0  0  0  0
  158.3130  210.8270  155.5100 N   0  0  0  0  0  0  0  0  0  0  0  0
  159.1730  209.8410  155.8670 C   0  0  0  0  0  3  0  0  0  0  0  0
  159.9580  212.4800  152.7230 N   0  0  0  0  0  1  0  0  0  0  0  0
  160.3700  209.6820  155.1740 C   0  0  0  0  0  0  0  0  0  0  0  0
  161.2910  208.5860  155.5950 C   0  0  0  0  0  1  0  0  0  0  0  0
  158.5880  211.6550  154.5030 N   0  0  0  0  0  0  0  0  0  0  0  0
  159.7370  211.5560  153.7840 C   0  0  0  0  0  0  0  0  0  0  0  0
  160.6780  210.5480  154.1070 C   0  0  0  0  0  0  0  0  0  0  0  0
  2  4  1  1  0  0  0
  3  8  1  6  0  0  0
  3  5  1  0  0  0  0
  3  2  1  0  0  0  0
  5  1  1  1  0  0  0
  5  2  1  0  0  0  0
  6  9  1  0  0  0  0
  8  7  1  6  0  0  0
  9  8  1  0  0  0  0
 10  6  1  1  0  0  0
 10  7  1  0  0  0  0
 13 11  1  1  0  0  0
 13 10  1  0  0  0  0
 14 12  1  6  0  0  0
 14 11  1  0  0  0  0
 14 13  1  0  0  0  0
 15 17  1  0  0  0  0
 15  1  1  0  0  0  0
 16 27  1  0  0  0  0
 17 18  2  0  0  0  0
 18 16  2  0  0  0  0
 19 17  1  0  0  0  0
 20 21  1  0  0  0  0
 22 26  1  0  0  0  0
 23 24  1  0  0  0  0
 23 21  2  0  0  0  0
 25 20  2  0  0  0  0
 26 27  2  0  0  0  0
 26 25  1  0  0  0  0
 27 23  1  0  0  0  0
M  END
>  <MODEL>
7

>  <REMARK>
 VINA RESULT:      -7.1      2.500      9.101
  Name = 
  6 active torsions:
  status: ('A' for Active; 'I' for Inactive)
    1  A    between atoms: C_8  and  C_12
    2  A    between atoms: C_8  and  C_25
    3  A    between atoms: C_10  and  N_27
    4  A    between atoms: C_11  and  C_26
    5  A    between atoms: C_14  and  N_17
    6  A    between atoms: CA_23  and  C_25
                            x       y       z     vdW  Elec       q    Type
                         _______ _______ _______ _____ _____    ______ ____

>  <TORSDO>
F 6

$$$$
=
 OpenBabel11072412223D

 27 30  0  0  1  0  0  0  0  0999 V2000
  159.9820  210.0640  152.7520 C   0  0  0  0  0  2  0  0  0  0  0  0
  159.0650  212.3510  153.3120 C   0  0  1  0  0  3  0  0  0  0  0  0
  159.1010  212.1570  151.8520 N   0  0  2  0  0  0  0  0  0  0  0  0
  158.0630  211.5450  153.8620 O   0  0  0  0  0  1  0  0  0  0  0  0
  160.1580  211.5760  152.6970 C   0  0  2  0  0  3  0  0  0  0  0  0
  159.0690  214.2090  149.0860 C   0  0  0  0  0  2  0  0  0  0  0  0
  160.6910  213.0310  150.2290 C   0  0  0  0  0  2  0  0  0  0  0  0
  159.6400  213.3780  151.2680 C   0  0  1  0  0  3  0  0  0  0  0  0
  158.5520  214.0960  150.5010 C   0  0  0  0  0  2  0  0  0  0  0  0
  160.0910  213.1880  148.9110 N   0  0  2  0  0  0  0  0  0  0  0  0
  162.3500  212.8610  148.0680 C   0  0  0  0  0  2  0  0  0  0  0  0
  161.9110  213.4580  145.8150 O   0  0  0  0  0  1  0  0  0  0  0  0
  161.1110  213.7380  148.0320 C   0  0  1  0  0  3  0  0  0  0  0  0
  161.3900  212.7610  146.9030 C   0  0  2  0  0  3  0  0  0  0  0  0
  160.8250  209.4940  153.8790 C   0  0  0  0  0  2  0  0  0  0  0  0
  162.3930  207.2840  151.5080 C   0  0  0  0  0  3  0  0  0  0  0  0
  161.1030  208.0480  153.6450 C   0  0  0  0  0  0  0  0  0  0  0  0
  161.7430  207.6630  152.5750 C   0  0  0  0  0  0  0  0  0  0  0  0
  160.5010  207.0320  154.5480 C   0  0  0  0  0  1  0  0  0  0  0  0
  160.5900  205.9470  147.9020 N   0  0  0  0  0  0  0  0  0  0  0  0
  160.7000  205.0960  148.9510 C   0  0  0  0  0  3  0  0  0  0  0  0
  162.0780  209.0380  149.0990 N   0  0  0  0  0  1  0  0  0  0  0  0
  161.2910  205.5300  150.1350 C   0  0  0  0  0  0  0  0  0  0  0  0
  161.3940  204.5650  151.2690 C   0  0  0  0  0  1  0  0  0  0  0  0
  161.0380  207.1990  147.9750 N   0  0  0  0  0  0  0  0  0  0  0  0
  161.6260  207.6880  149.0990 C   0  0  0  0  0  0  0  0  0  0  0  0
  161.7700  206.8500  150.2320 C   0  0  0  0  0  0  0  0  0  0  0  0
  1 15  1  0  0  0  0
  2  4  1  1  0  0  0
  3  8  1  6  0  0  0
  3  5  1  0  0  0  0
  3  2  1  0  0  0  0
  5  1  1  1  0  0  0
  5  2  1  0  0  0  0
  6  9  1  0  0  0  0
  8  7  1  6  0  0  0
  9  8  1  0  0  0  0
 10  6  1  1  0  0  0
 10  7  1  0  0  0  0
 13 11  1  1  0  0  0
 13 10  1  0  0  0  0
 14 12  1  6  0  0  0
 14 13  1  0  0  0  0
 14 11  1  0  0  0  0
 16 18  2  0  0  0  0
 17 15  1  0  0  0  0
 17 19  1  0  0  0  0
 18 17  2  0  0  0  0
 20 25  2  0  0  0  0
 20 21  1  0  0  0  0
 21 23  2  0  0  0  0
 23 27  1  0  0  0  0
 23 24  1  0  0  0  0
 25 26  1  0  0  0  0
 26 22  1  0  0  0  0
 26 27  2  0  0  0  0
 27 16  1  0  0  0  0
M  END
>  <MODEL>
8

>  <REMARK>
 VINA RESULT:      -6.9      4.064      6.594
  Name = 
  6 active torsions:
  status: ('A' for Active; 'I' for Inactive)
    1  A    between atoms: C_8  and  C_12
    2  A    between atoms: C_8  and  C_25
    3  A    between atoms: C_10  and  N_27
    4  A    between atoms: C_11  and  C_26
    5  A    between atoms: C_14  and  N_17
    6  A    between atoms: CA_23  and  C_25
                            x       y       z     vdW  Elec       q    Type
                         _______ _______ _______ _____ _____    ______ ____

>  <TORSDO>
F 6

$$$$
=
 OpenBabel11072412223D

 27 30  0  0  1  0  0  0  0  0999 V2000
  160.5170  206.1940  149.7080 C   0  0  0  0  0  2  0  0  0  0  0  0
  161.9940  208.2440  149.7590 C   0  0  1  0  0  3  0  0  0  0  0  0
  162.2840  207.3750  150.9130 N   0  0  2  0  0  0  0  0  0  0  0  0
  162.4620  207.6350  148.5910 O   0  0  0  0  0  1  0  0  0  0  0  0
  160.9050  207.4900  150.4080 C   0  0  2  0  0  3  0  0  0  0  0  0
  160.5660  208.7180  153.5800 C   0  0  0  0  0  2  0  0  0  0  0  0
  161.7470  209.5800  151.7940 C   0  0  0  0  0  2  0  0  0  0  0  0
  162.3860  208.2340  152.0850 C   0  0  1  0  0  3  0  0  0  0  0  0
  161.5700  207.6480  153.2150 C   0  0  0  0  0  2  0  0  0  0  0  0
  160.4390  209.6050  152.4340 N   0  0  2  0  0  0  0  0  0  0  0  0
  160.0420  211.9180  151.7900 C   0  0  0  0  0  2  0  0  0  0  0  0
  158.4370  212.4170  153.4640 O   0  0  0  0  0  1  0  0  0  0  0  0
  160.2300  210.9510  152.9450 C   0  0  1  0  0  3  0  0  0  0  0  0
  158.8390  211.4300  152.5670 C   0  0  2  0  0  3  0  0  0  0  0  0
  160.4740  205.0630  150.7200 C   0  0  0  0  0  2  0  0  0  0  0  0
  161.9650  203.8100  147.6910 C   0  0  0  0  0  3  0  0  0  0  0  0
  161.0420  203.8160  150.1340 C   0  0  0  0  0  0  0  0  0  0  0  0
  161.5000  203.8080  148.9120 C   0  0  0  0  0  0  0  0  0  0  0  0
  160.9320  202.5370  150.8850 C   0  0  0  0  0  1  0  0  0  0  0  0
  159.7610  202.6150  144.2620 N   0  0  0  0  0  0  0  0  0  0  0  0
  160.0530  201.7030  145.2220 C   0  0  0  0  0  3  0  0  0  0  0  0
  161.2430  205.7010  145.4820 N   0  0  0  0  0  1  0  0  0  0  0  0
  160.7760  202.0900  146.3470 C   0  0  0  0  0  0  0  0  0  0  0  0
  161.0790  201.0590  147.3830 C   0  0  0  0  0  1  0  0  0  0  0  0
  160.1530  203.8840  144.3690 N   0  0  0  0  0  0  0  0  0  0  0  0
  160.8620  204.3290  145.4410 C   0  0  0  0  0  0  0  0  0  0  0  0
  161.1980  203.4270  146.4790 C   0  0  0  0  0  0  0  0  0  0  0  0
  1 15  1  0  0  0  0
  2  4  1  6  0  0  0
  2  5  1  0  0  0  0
  2  3  1  0  0  0  0
  3  8  1  1  0  0  0
  5  1  1  6  0  0  0
  5  3  1  0  0  0  0
  8  7  1  6  0  0  0
  8  9  1  0  0  0  0
  9  6  1  0  0  0  0
 10  7  1  1  0  0  0
 10 13  1  0  0  0  0
 10  6  1  0  0  0  0
 11 14  1  0  0  0  0
 13 11  1  6  0  0  0
 14 13  1  0  0  0  0
 14 12  1  1  0  0  0
 16 18  2  0  0  0  0
 17 15  1  0  0  0  0
 17 19  1  0  0  0  0
 18 17  2  0  0  0  0
 20 25  2  0  0  0  0
 20 21  1  0  0  0  0
 21 23  2  0  0  0  0
 23 27  1  0  0  0  0
 23 24  1  0  0  0  0
 25 26  1  0  0  0  0
 26 22  1  0  0  0  0
 26 27  2  0  0  0  0
 27 16  1  0  0  0  0
M  END
>  <MODEL>
9

>  <REMARK>
 VINA RESULT:      -6.9      2.026      2.943
  Name = 
  6 active torsions:
  status: ('A' for Active; 'I' for Inactive)
    1  A    between atoms: C_8  and  C_12
    2  A    between atoms: C_8  and  C_25
    3  A    between atoms: C_10  and  N_27
    4  A    between atoms: C_11  and  C_26
    5  A    between atoms: C_14  and  N_17
    6  A    between atoms: CA_23  and  C_25
                            x       y       z     vdW  Elec       q    Type
                         _______ _______ _______ _____ _____    ______ ____

>  <TORSDO>
F 6

$$$$
