=
 OpenBabel11072415243D

 25 26  0  0  1  0  0  0  0  0999 V2000
  159.4680  202.2640  150.1090 C   0  0  0  0  0  2  0  0  0  0  0  0
  161.4290  205.4660  150.6480 C   0  0  0  0  0  0  0  0  0  0  0  0
  161.0730  207.0600  148.7050 C   0  0  1  0  0  3  0  0  0  0  0  0
  162.0440  206.3270  147.8420 C   0  0  0  0  0  3  0  0  0  0  0  0
  162.5060  204.9110  145.9030 C   0  0  0  0  0  0  0  0  0  0  0  0
  161.4250  206.8990  150.1930 C   0  0  1  0  0  3  0  0  0  0  0  0
  161.4220  202.8300  151.6030 C   0  0  0  0  0  3  0  0  0  0  0  0
  162.3660  203.7440  152.0780 C   0  0  0  0  0  3  0  0  0  0  0  0
  160.4830  203.2260  150.6430 C   0  0  0  0  0  0  0  0  0  0  0  0
  163.7550  204.9850  146.0430 O   0  0  0  0  0  0  0  0  0  0  0  0
  161.5020  202.3540  146.7530 N   0  0  0  0  0  2  0  0  0  0  0  0
  162.3690  205.0590  151.6000 C   0  0  0  0  0  3  0  0  0  0  0  0
  160.0890  200.9720  149.5700 C   0  0  0  0  0  2  0  0  0  0  0  0
  160.4750  204.5460  150.1840 C   0  0  0  0  0  3  0  0  0  0  0  0
  160.6980  201.3700  147.4590 C   0  0  0  0  0  2  0  0  0  0  0  0
  161.9360  203.9940  144.8680 C   0  0  0  0  0  2  0  0  0  0  0  0
  161.6060  205.6750  146.7740 C   0  0  0  0  0  3  0  0  0  0  0  0
  161.1200  202.9030  145.4910 C   0  0  0  0  0  0  0  0  0  0  0  0
  160.1080  202.4650  144.8830 O   0  0  0  0  0  0  0  0  0  0  0  0
  161.1990  201.2300  148.7560 O   0  0  0  0  0  0  0  0  0  0  0  0
  160.4970  207.6600  151.0160 N   0  0  0  0  0  2  0  0  0  0  0  0
  161.2410  208.3580  151.9060 O   0  0  0  0  0  1  0  0  0  0  0  0
  161.0710  208.4130  148.3480 O   0  0  0  0  0  0  0  0  0  0  0  0
  162.3600  208.8640  148.6380 C   0  0  0  0  0  2  0  0  0  0  0  0
  162.3490  210.2510  148.7680 O   0  0  0  0  0  1  0  0  0  0  0  0
  1  9  1  0  0  0  0
  2 12  1  0  0  0  0
  3 23  1  6  0  0  0
  3  6  1  0  0  0  0
  4  3  1  0  0  0  0
  5 10  2  0  0  0  0
  5 17  1  0  0  0  0
  6  2  1  0  0  0  0
  6 21  1  1  0  0  0
  7  8  1  0  0  0  0
  9  7  2  0  0  0  0
 11 15  1  0  0  0  0
 12  8  2  0  0  0  0
 13  1  1  0  0  0  0
 14  9  1  0  0  0  0
 14  2  2  0  0  0  0
 15 20  1  0  0  0  0
 16 18  1  0  0  0  0
 16  5  1  0  0  0  0
 17  4  2  0  0  0  0
 18 11  1  0  0  0  0
 19 18  2  0  0  0  0
 20 13  1  0  0  0  0
 21 22  1  0  0  0  0
 23 24  1  0  0  0  0
 24 25  1  0  0  0  0
M  END
>  <MODEL>
1

>  <REMARK>
 VINA RESULT:      -6.3      0.000      0.000
  Name = 
  3 active torsions:
  status: ('A' for Active; 'I' for Inactive)
    1  A    between atoms: N_2  and  C_8
    2  A    between atoms: C_5  and  O_22
    3  A    between atoms: C_12  and  O_22
                            x       y       z     vdW  Elec       q    Type
                         _______ _______ _______ _____ _____    ______ ____

>  <TORSDO>
F 3

$$$$
=
 OpenBabel11072415243D

 25 26  0  0  1  0  0  0  0  0999 V2000
  159.3890  201.7580  149.3820 C   0  0  0  0  0  2  0  0  0  0  0  0
  161.3480  204.6850  150.7890 C   0  0  0  0  0  0  0  0  0  0  0  0
  160.9740  206.7620  149.3790 C   0  0  1  0  0  3  0  0  0  0  0  0
  161.9390  206.3060  148.3370 C   0  0  0  0  0  3  0  0  0  0  0  0
  162.3890  205.4970  146.0740 C   0  0  0  0  0  0  0  0  0  0  0  0
  161.3380  206.1880  150.7570 C   0  0  1  0  0  3  0  0  0  0  0  0
  161.3530  201.8870  150.9610 C   0  0  0  0  0  3  0  0  0  0  0  0
  162.2990  202.6340  151.6690 C   0  0  0  0  0  3  0  0  0  0  0  0
  160.4050  202.5340  150.1590 C   0  0  0  0  0  0  0  0  0  0  0  0
  163.6390  205.5330  146.2210 O   0  0  0  0  0  0  0  0  0  0  0  0
  161.3960  202.8000  146.1740 N   0  0  0  0  0  2  0  0  0  0  0  0
  162.2960  204.0300  151.5820 C   0  0  0  0  0  3  0  0  0  0  0  0
  160.0070  200.6730  148.4960 C   0  0  0  0  0  2  0  0  0  0  0  0
  160.3920  203.9300  150.0920 C   0  0  0  0  0  3  0  0  0  0  0  0
  160.6000  201.6540  146.5790 C   0  0  0  0  0  2  0  0  0  0  0  0
  161.8130  204.9070  144.8260 C   0  0  0  0  0  2  0  0  0  0  0  0
  161.4940  205.9800  147.1310 C   0  0  0  0  0  3  0  0  0  0  0  0
  161.0040  203.6820  145.1210 C   0  0  0  0  0  0  0  0  0  0  0  0
  159.9880  203.4300  144.4210 O   0  0  0  0  0  0  0  0  0  0  0  0
  161.1110  201.1550  147.7800 O   0  0  0  0  0  0  0  0  0  0  0  0
  160.4140  206.6820  151.7680 N   0  0  0  0  0  2  0  0  0  0  0  0
  161.1650  207.1610  152.7880 O   0  0  0  0  0  1  0  0  0  0  0  0
  160.9660  208.1600  149.4180 O   0  0  0  0  0  0  0  0  0  0  0  0
  162.2830  208.5190  149.7090 C   0  0  0  0  0  2  0  0  0  0  0  0
  162.2880  209.5550  150.6420 O   0  0  0  0  0  1  0  0  0  0  0  0
  1  9  1  0  0  0  0
  2 12  1  0  0  0  0
  3 23  1  1  0  0  0
  3  6  1  0  0  0  0
  4  3  1  0  0  0  0
  5 10  2  0  0  0  0
  5 17  1  0  0  0  0
  6  2  1  0  0  0  0
  6 21  1  1  0  0  0
  7  8  1  0  0  0  0
  9  7  2  0  0  0  0
 11 15  1  0  0  0  0
 12  8  2  0  0  0  0
 13  1  1  0  0  0  0
 14  9  1  0  0  0  0
 14  2  2  0  0  0  0
 15 20  1  0  0  0  0
 16 18  1  0  0  0  0
 16  5  1  0  0  0  0
 17  4  2  0  0  0  0
 18 11  1  0  0  0  0
 19 18  2  0  0  0  0
 20 13  1  0  0  0  0
 21 22  1  0  0  0  0
 23 24  1  0  0  0  0
 24 25  1  0  0  0  0
M  END
>  <MODEL>
2

>  <REMARK>
 VINA RESULT:      -5.6      0.978      1.011
  Name = 
  3 active torsions:
  status: ('A' for Active; 'I' for Inactive)
    1  A    between atoms: N_2  and  C_8
    2  A    between atoms: C_5  and  O_22
    3  A    between atoms: C_12  and  O_22
                            x       y       z     vdW  Elec       q    Type
                         _______ _______ _______ _____ _____    ______ ____

>  <TORSDO>
F 3

$$$$
=
 OpenBabel11072415243D

 25 26  0  0  1  0  0  0  0  0999 V2000
  162.1410  210.1970  152.8190 C   0  0  0  0  0  2  0  0  0  0  0  0
  162.0330  210.9370  149.1000 C   0  0  0  0  0  0  0  0  0  0  0  0
  161.4770  213.3800  148.6980 C   0  0  1  0  0  3  0  0  0  0  0  0
  160.0220  213.1560  148.9400 C   0  0  0  0  0  3  0  0  0  0  0  0
  158.0280  213.4790  150.3190 C   0  0  0  0  0  0  0  0  0  0  0  0
  162.1510  212.1070  148.1640 C   0  0  1  0  0  3  0  0  0  0  0  0
  161.9020  208.7080  150.7960 C   0  0  0  0  0  3  0  0  0  0  0  0
  161.8110  208.5410  149.4110 C   0  0  0  0  0  3  0  0  0  0  0  0
  162.0510  209.9900  151.3400 C   0  0  0  0  0  0  0  0  0  0  0  0
  157.2630  212.9230  149.4870 O   0  0  0  0  0  0  0  0  0  0  0  0
  158.5530  211.7710  152.5720 N   0  0  0  0  0  2  0  0  0  0  0  0
  161.8750  209.6540  148.5660 C   0  0  0  0  0  3  0  0  0  0  0  0
  160.9820  209.5550  153.5880 C   0  0  0  0  0  2  0  0  0  0  0  0
  162.1370  211.0960  150.4910 C   0  0  0  0  0  3  0  0  0  0  0  0
  159.2940  211.0170  153.5690 C   0  0  0  0  0  2  0  0  0  0  0  0
  157.4910  213.8840  151.6540 C   0  0  0  0  0  2  0  0  0  0  0  0
  159.4470  213.6880  150.0100 C   0  0  0  0  0  3  0  0  0  0  0  0
  158.1570  213.1300  152.7650 C   0  0  0  0  0  0  0  0  0  0  0  0
  158.3470  213.7000  153.8710 O   0  0  0  0  0  0  0  0  0  0  0  0
  159.7460  209.8300  152.9890 O   0  0  0  0  0  0  0  0  0  0  0  0
  163.5570  212.3590  147.8880 N   0  0  0  0  0  2  0  0  0  0  0  0
  163.7140  212.2950  146.5450 O   0  0  0  0  0  1  0  0  0  0  0  0
  161.6350  214.4340  147.7920 O   0  0  0  0  0  0  0  0  0  0  0  0
  160.7360  214.1590  146.7600 C   0  0  0  0  0  2  0  0  0  0  0  0
  161.3300  214.4530  145.5340 O   0  0  0  0  0  1  0  0  0  0  0  0
  1 13  1  0  0  0  0
  2 14  1  0  0  0  0
  3 23  1  6  0  0  0
  3  4  1  0  0  0  0
  4 17  2  0  0  0  0
  5 16  1  0  0  0  0
  6 21  1  1  0  0  0
  6  3  1  0  0  0  0
  6  2  1  0  0  0  0
  7  9  1  0  0  0  0
  8  7  2  0  0  0  0
  9  1  1  0  0  0  0
 10  5  2  0  0  0  0
 11 18  1  0  0  0  0
 11 15  1  0  0  0  0
 12  2  2  0  0  0  0
 12  8  1  0  0  0  0
 14  9  2  0  0  0  0
 16 18  1  0  0  0  0
 17  5  1  0  0  0  0
 18 19  2  0  0  0  0
 20 15  1  0  0  0  0
 20 13  1  0  0  0  0
 22 21  1  0  0  0  0
 24 23  1  0  0  0  0
 25 24  1  0  0  0  0
M  END
>  <MODEL>
3

>  <REMARK>
 VINA RESULT:      -4.7      5.915      8.750
  Name = 
  3 active torsions:
  status: ('A' for Active; 'I' for Inactive)
    1  A    between atoms: N_2  and  C_8
    2  A    between atoms: C_5  and  O_22
    3  A    between atoms: C_12  and  O_22
                            x       y       z     vdW  Elec       q    Type
                         _______ _______ _______ _____ _____    ______ ____

>  <TORSDO>
F 3

$$$$
=
 OpenBabel11072415243D

 25 26  0  0  1  0  0  0  0  0999 V2000
  159.3340  208.0470  156.2400 C   0  0  0  0  0  2  0  0  0  0  0  0
  159.7090  211.6550  155.1310 C   0  0  0  0  0  0  0  0  0  0  0  0
  159.1190  211.8930  152.6740 C   0  0  1  0  0  3  0  0  0  0  0  0
  160.4460  211.3690  152.2380 C   0  0  0  0  0  3  0  0  0  0  0  0
  161.7930  209.6140  151.1980 C   0  0  0  0  0  0  0  0  0  0  0  0
  159.2180  212.5750  154.0480 C   0  0  1  0  0  3  0  0  0  0  0  0
  160.5780  210.0080  157.2280 C   0  0  0  0  0  3  0  0  0  0  0  0
  160.9680  211.3490  157.1820 C   0  0  0  0  0  3  0  0  0  0  0  0
  159.7580  209.4820  156.2220 C   0  0  0  0  0  0  0  0  0  0  0  0
  162.8570  210.2850  151.2510 O   0  0  0  0  0  0  0  0  0  0  0  0
  161.7550  207.5420  153.1920 N   0  0  0  0  0  2  0  0  0  0  0  0
  160.5360  212.1700  156.1360 C   0  0  0  0  0  3  0  0  0  0  0  0
  160.5090  207.0730  156.3660 C   0  0  0  0  0  2  0  0  0  0  0  0
  159.3100  210.3110  155.1900 C   0  0  0  0  0  3  0  0  0  0  0  0
  161.2950  206.7280  154.3040 C   0  0  0  0  0  2  0  0  0  0  0  0
  161.8450  208.1900  150.7420 C   0  0  0  0  0  2  0  0  0  0  0  0
  160.5160  210.1960  151.6230 C   0  0  0  0  0  3  0  0  0  0  0  0
  161.4310  207.2500  151.8320 C   0  0  0  0  0  0  0  0  0  0  0  0
  160.8140  206.1930  151.5350 O   0  0  0  0  0  0  0  0  0  0  0  0
  161.5550  207.4080  155.4960 O   0  0  0  0  0  0  0  0  0  0  0  0
  157.9260  213.1220  154.4340 N   0  0  0  0  0  2  0  0  0  0  0  0
  158.0980  214.4530  154.6110 O   0  0  0  0  0  1  0  0  0  0  0  0
  158.6430  212.7930  151.7160 O   0  0  0  0  0  0  0  0  0  0  0  0
  159.7250  213.6320  151.4410 C   0  0  0  0  0  2  0  0  0  0  0  0
  159.6530  214.0660  150.1180 O   0  0  0  0  0  1  0  0  0  0  0  0
  1 13  1  0  0  0  0
  2 14  2  0  0  0  0
  2 12  1  0  0  0  0
  3 23  1  6  0  0  0
  3  6  1  0  0  0  0
  4  3  1  0  0  0  0
  5 10  2  0  0  0  0
  5 17  1  0  0  0  0
  6 21  1  1  0  0  0
  6  2  1  0  0  0  0
  8  7  1  0  0  0  0
  9  1  1  0  0  0  0
  9  7  2  0  0  0  0
 11 15  1  0  0  0  0
 12  8  2  0  0  0  0
 14  9  1  0  0  0  0
 15 20  1  0  0  0  0
 16  5  1  0  0  0  0
 16 18  1  0  0  0  0
 17  4  2  0  0  0  0
 18 11  1  0  0  0  0
 19 18  2  0  0  0  0
 20 13  1  0  0  0  0
 21 22  1  0  0  0  0
 24 23  1  0  0  0  0
 25 24  1  0  0  0  0
M  END
>  <MODEL>
4

>  <REMARK>
 VINA RESULT:      -4.5      5.546      7.701
  Name = 
  3 active torsions:
  status: ('A' for Active; 'I' for Inactive)
    1  A    between atoms: N_2  and  C_8
    2  A    between atoms: C_5  and  O_22
    3  A    between atoms: C_12  and  O_22
                            x       y       z     vdW  Elec       q    Type
                         _______ _______ _______ _____ _____    ______ ____

>  <TORSDO>
F 3

$$$$
=
 OpenBabel11072415243D

 25 26  0  0  1  0  0  0  0  0999 V2000
  162.4230  205.8280  153.1040 C   0  0  0  0  0  2  0  0  0  0  0  0
  161.5210  207.5570  149.8510 C   0  0  0  0  0  0  0  0  0  0  0  0
  162.3250  209.9650  149.8740 C   0  0  1  0  0  3  0  0  0  0  0  0
  161.1720  210.4090  150.7100 C   0  0  0  0  0  3  0  0  0  0  0  0
  160.2890  211.2420  152.8320 C   0  0  0  0  0  0  0  0  0  0  0  0
  161.9530  208.7380  149.0260 C   0  0  1  0  0  3  0  0  0  0  0  0
  160.7410  205.2880  151.3010 C   0  0  0  0  0  3  0  0  0  0  0  0
  160.1210  205.5900  150.0860 C   0  0  0  0  0  3  0  0  0  0  0  0
  161.7490  206.1230  151.8010 C   0  0  0  0  0  0  0  0  0  0  0  0
  159.1220  211.3870  152.3840 O   0  0  0  0  0  0  0  0  0  0  0  0
  160.4840  208.9290  154.5310 N   0  0  0  0  0  2  0  0  0  0  0  0
  160.5100  206.7230  149.3640 C   0  0  0  0  0  3  0  0  0  0  0  0
  161.4380  205.6340  154.2610 C   0  0  0  0  0  2  0  0  0  0  0  0
  162.1500  207.2410  151.0650 C   0  0  0  0  0  3  0  0  0  0  0  0
  160.9590  207.6630  155.0610 C   0  0  0  0  0  2  0  0  0  0  0  0
  160.5480  211.4530  154.2900 C   0  0  0  0  0  2  0  0  0  0  0  0
  161.3850  210.8210  151.9520 C   0  0  0  0  0  3  0  0  0  0  0  0
  161.0030  210.1910  154.9550 C   0  0  0  0  0  0  0  0  0  0  0  0
  161.8320  210.2550  155.9010 O   0  0  0  0  0  0  0  0  0  0  0  0
  160.4510  206.6270  154.2740 O   0  0  0  0  0  0  0  0  0  0  0  0
  163.0740  208.3490  148.1830 N   0  0  0  0  0  2  0  0  0  0  0  0
  162.7060  207.2190  147.5360 O   0  0  0  0  0  1  0  0  0  0  0  0
  162.7320  211.0210  149.0520 O   0  0  0  0  0  0  0  0  0  0  0  0
  161.5800  211.4060  148.3640 C   0  0  0  0  0  2  0  0  0  0  0  0
  161.8830  212.4600  147.5030 O   0  0  0  0  0  1  0  0  0  0  0  0
  1 13  1  0  0  0  0
  2 14  1  0  0  0  0
  3 23  1  6  0  0  0
  3  4  1  0  0  0  0
  4 17  2  0  0  0  0
  5 16  1  0  0  0  0
  6 21  1  1  0  0  0
  6  2  1  0  0  0  0
  6  3  1  0  0  0  0
  7  9  1  0  0  0  0
  8  7  2  0  0  0  0
  9  1  1  0  0  0  0
 10  5  2  0  0  0  0
 11 18  1  0  0  0  0
 11 15  1  0  0  0  0
 12  2  2  0  0  0  0
 12  8  1  0  0  0  0
 13 20  1  0  0  0  0
 14  9  2  0  0  0  0
 16 18  1  0  0  0  0
 17  5  1  0  0  0  0
 18 19  2  0  0  0  0
 20 15  1  0  0  0  0
 22 21  1  0  0  0  0
 24 23  1  0  0  0  0
 25 24  1  0  0  0  0
M  END
>  <MODEL>
5

>  <REMARK>
 VINA RESULT:      -4.2      3.611      6.993
  Name = 
  3 active torsions:
  status: ('A' for Active; 'I' for Inactive)
    1  A    between atoms: N_2  and  C_8
    2  A    between atoms: C_5  and  O_22
    3  A    between atoms: C_12  and  O_22
                            x       y       z     vdW  Elec       q    Type
                         _______ _______ _______ _____ _____    ______ ____

>  <TORSDO>
F 3

$$$$
=
 OpenBabel11072415243D

 25 26  0  0  1  0  0  0  0  0999 V2000
  163.0250  204.7810  146.0150 C   0  0  0  0  0  2  0  0  0  0  0  0
  161.5730  206.3710  149.1370 C   0  0  0  0  0  0  0  0  0  0  0  0
  162.0090  204.9060  151.1630 C   0  0  1  0  0  3  0  0  0  0  0  0
  160.8870  203.9850  150.8190 C   0  0  0  0  0  3  0  0  0  0  0  0
  160.0960  201.7960  150.0700 C   0  0  0  0  0  0  0  0  0  0  0  0
  161.7440  206.3230  150.6300 C   0  0  1  0  0  3  0  0  0  0  0  0
  161.2790  206.5710  146.3560 C   0  0  0  0  0  3  0  0  0  0  0  0
  160.5080  207.3730  147.2010 C   0  0  0  0  0  3  0  0  0  0  0  0
  162.1950  205.6600  146.8970 C   0  0  0  0  0  0  0  0  0  0  0  0
  158.8830  202.0840  150.2440 O   0  0  0  0  0  0  0  0  0  0  0  0
  160.7920  201.8110  147.2800 N   0  0  0  0  0  2  0  0  0  0  0  0
  160.6540  207.2730  148.5890 C   0  0  0  0  0  3  0  0  0  0  0  0
  162.1930  203.9810  145.0070 C   0  0  0  0  0  2  0  0  0  0  0  0
  162.3540  205.5780  148.2820 C   0  0  0  0  0  3  0  0  0  0  0  0
  161.4980  202.1350  146.0520 C   0  0  0  0  0  2  0  0  0  0  0  0
  160.4580  200.4970  149.4240 C   0  0  0  0  0  2  0  0  0  0  0  0
  161.1540  202.7400  150.4500 C   0  0  0  0  0  3  0  0  0  0  0  0
  161.1560  200.7110  148.1160 C   0  0  0  0  0  0  0  0  0  0  0  0
  162.0520  199.9030  147.7550 O   0  0  0  0  0  0  0  0  0  0  0  0
  161.0760  203.3900  145.6100 O   0  0  0  0  0  0  0  0  0  0  0  0
  162.8250  207.2180  151.0160 N   0  0  0  0  0  2  0  0  0  0  0  0
  162.2530  208.3040  151.5870 O   0  0  0  0  0  1  0  0  0  0  0  0
  162.1760  204.9310  152.5520 O   0  0  0  0  0  0  0  0  0  0  0  0
  160.9320  205.3160  153.0570 C   0  0  0  0  0  2  0  0  0  0  0  0
  161.1110  206.2680  154.0580 O   0  0  0  0  0  1  0  0  0  0  0  0
  1  9  1  0  0  0  0
  2  6  1  0  0  0  0
  3 23  1  1  0  0  0
  4  3  1  0  0  0  0
  5 10  2  0  0  0  0
  5 17  1  0  0  0  0
  6 21  1  6  0  0  0
  6  3  1  0  0  0  0
  7  9  2  0  0  0  0
  7  8  1  0  0  0  0
  8 12  2  0  0  0  0
  9 14  1  0  0  0  0
 11 18  1  0  0  0  0
 12  2  1  0  0  0  0
 13 20  1  0  0  0  0
 13  1  1  0  0  0  0
 14  2  2  0  0  0  0
 15 11  1  0  0  0  0
 16  5  1  0  0  0  0
 17  4  2  0  0  0  0
 18 16  1  0  0  0  0
 19 18  2  0  0  0  0
 20 15  1  0  0  0  0
 21 22  1  0  0  0  0
 23 24  1  0  0  0  0
 24 25  1  0  0  0  0
M  END
>  <MODEL>
6

>  <REMARK>
 VINA RESULT:      -3.9      1.609      4.637
  Name = 
  3 active torsions:
  status: ('A' for Active; 'I' for Inactive)
    1  A    between atoms: N_2  and  C_8
    2  A    between atoms: C_5  and  O_22
    3  A    between atoms: C_12  and  O_22
                            x       y       z     vdW  Elec       q    Type
                         _______ _______ _______ _____ _____    ______ ____

>  <TORSDO>
F 3

$$$$
=
 OpenBabel11072415243D

 25 26  0  0  1  0  0  0  0  0999 V2000
  160.0990  206.8300  155.0090 C   0  0  0  0  0  2  0  0  0  0  0  0
  160.7940  210.5430  155.3470 C   0  0  0  0  0  0  0  0  0  0  0  0
  159.8870  211.8010  153.3370 C   0  0  1  0  0  3  0  0  0  0  0  0
  161.0520  211.4150  152.4880 C   0  0  0  0  0  3  0  0  0  0  0  0
  161.9810  210.1530  150.6110 C   0  0  0  0  0  0  0  0  0  0  0  0
  160.2790  211.8550  154.8220 C   0  0  1  0  0  3  0  0  0  0  0  0
  161.7290  208.1320  156.4290 C   0  0  0  0  0  3  0  0  0  0  0  0
  162.2870  209.3460  156.8370 C   0  0  0  0  0  3  0  0  0  0  0  0
  160.7060  208.1170  155.4720 C   0  0  0  0  0  0  0  0  0  0  0  0
  163.1230  210.6730  150.7200 O   0  0  0  0  0  0  0  0  0  0  0  0
  161.9550  207.4560  151.6080 N   0  0  0  0  0  2  0  0  0  0  0  0
  161.8210  210.5490  156.2960 C   0  0  0  0  0  3  0  0  0  0  0  0
  161.1360  205.8150  154.5200 C   0  0  0  0  0  2  0  0  0  0  0  0
  160.2280  209.3210  154.9500 C   0  0  0  0  0  3  0  0  0  0  0  0
  161.5570  206.2900  152.3790 C   0  0  0  0  0  2  0  0  0  0  0  0
  161.7710  209.0390  149.6350 C   0  0  0  0  0  2  0  0  0  0  0  0
  160.8710  210.5930  151.4640 C   0  0  0  0  0  3  0  0  0  0  0  0
  161.3980  207.7650  150.3290 C   0  0  0  0  0  0  0  0  0  0  0  0
  160.6060  206.9650  149.7660 O   0  0  0  0  0  0  0  0  0  0  0  0
  162.0790  206.4070  153.6690 O   0  0  0  0  0  0  0  0  0  0  0  0
  159.1440  212.2800  155.6270 N   0  0  0  0  0  2  0  0  0  0  0  0
  159.5140  213.4170  156.2620 O   0  0  0  0  0  1  0  0  0  0  0  0
  159.4020  213.0430  152.9140 O   0  0  0  0  0  0  0  0  0  0  0  0
  158.1730  212.7640  152.3140 C   0  0  0  0  0  2  0  0  0  0  0  0
  158.2550  213.0200  150.9460 O   0  0  0  0  0  1  0  0  0  0  0  0
  1  9  1  0  0  0  0
  2 12  1  0  0  0  0
  3 23  1  6  0  0  0
  3  6  1  0  0  0  0
  4  3  1  0  0  0  0
  5 10  2  0  0  0  0
  5 17  1  0  0  0  0
  6  2  1  0  0  0  0
  6 21  1  1  0  0  0
  7  8  1  0  0  0  0
  9  7  2  0  0  0  0
 11 15  1  0  0  0  0
 12  8  2  0  0  0  0
 13  1  1  0  0  0  0
 14  2  2  0  0  0  0
 14  9  1  0  0  0  0
 15 20  1  0  0  0  0
 16 18  1  0  0  0  0
 16  5  1  0  0  0  0
 17  4  2  0  0  0  0
 18 11  1  0  0  0  0
 19 18  2  0  0  0  0
 20 13  1  0  0  0  0
 21 22  1  0  0  0  0
 24 23  1  0  0  0  0
 25 24  1  0  0  0  0
M  END
>  <MODEL>
7

>  <REMARK>
 VINA RESULT:      -3.9      4.902      6.896
  Name = 
  3 active torsions:
  status: ('A' for Active; 'I' for Inactive)
    1  A    between atoms: N_2  and  C_8
    2  A    between atoms: C_5  and  O_22
    3  A    between atoms: C_12  and  O_22
                            x       y       z     vdW  Elec       q    Type
                         _______ _______ _______ _____ _____    ______ ____

>  <TORSDO>
F 3

$$$$
=
 OpenBabel11072415243D

 25 26  0  0  1  0  0  0  0  0999 V2000
  160.8420  207.5440  147.2840 C   0  0  0  0  0  2  0  0  0  0  0  0
  161.5560  203.8220  147.1530 C   0  0  0  0  0  0  0  0  0  0  0  0
  160.3130  202.6150  149.0090 C   0  0  1  0  0  3  0  0  0  0  0  0
  161.3210  203.0170  150.0320 C   0  0  0  0  0  3  0  0  0  0  0  0
  161.9300  204.3190  152.0110 C   0  0  0  0  0  0  0  0  0  0  0  0
  160.9500  202.5250  147.6120 C   0  0  1  0  0  3  0  0  0  0  0  0
  162.6780  206.2030  146.1900 C   0  0  0  0  0  3  0  0  0  0  0  0
  163.2880  204.9780  145.9090 C   0  0  0  0  0  3  0  0  0  0  0  0
  161.5090  206.2450  146.9590 C   0  0  0  0  0  0  0  0  0  0  0  0
  163.0690  203.7920  152.1080 O   0  0  0  0  0  0  0  0  0  0  0  0
  162.0930  206.9920  150.9630 N   0  0  0  0  0  2  0  0  0  0  0  0
  162.7280  203.7900  146.3910 C   0  0  0  0  0  3  0  0  0  0  0  0
  161.7900  208.5670  147.9180 C   0  0  0  0  0  2  0  0  0  0  0  0
  160.9410  205.0550  147.4200 C   0  0  0  0  0  3  0  0  0  0  0  0
  161.8390  208.1400  150.1100 C   0  0  0  0  0  2  0  0  0  0  0  0
  161.5670  205.4560  152.9120 C   0  0  0  0  0  2  0  0  0  0  0  0
  160.9760  203.8630  150.9930 C   0  0  0  0  0  3  0  0  0  0  0  0
  161.3260  206.7150  152.1360 C   0  0  0  0  0  0  0  0  0  0  0  0
  160.4560  207.5310  152.5390 O   0  0  0  0  0  0  0  0  0  0  0  0
  162.5710  207.9920  148.9290 O   0  0  0  0  0  0  0  0  0  0  0  0
  159.9630  202.0850  146.6370 N   0  0  0  0  0  2  0  0  0  0  0  0
  160.6060  201.2730  145.7650 O   0  0  0  0  0  1  0  0  0  0  0  0
  159.7550  201.3850  149.3710 O   0  0  0  0  0  0  0  0  0  0  0  0
  160.8310  200.6210  149.8270 C   0  0  0  0  0  2  0  0  0  0  0  0
  161.5810  200.1780  148.7390 O   0  0  0  0  0  1  0  0  0  0  0  0
  1 13  1  0  0  0  0
  2 14  1  0  0  0  0
  2  6  1  0  0  0  0
  3 23  1  1  0  0  0
  3  4  1  0  0  0  0
  4 17  2  0  0  0  0
  5 10  2  0  0  0  0
  5 16  1  0  0  0  0
  6 21  1  6  0  0  0
  6  3  1  0  0  0  0
  7  9  1  0  0  0  0
  8  7  2  0  0  0  0
  8 12  1  0  0  0  0
  9  1  1  0  0  0  0
  9 14  2  0  0  0  0
 11 18  1  0  0  0  0
 12  2  2  0  0  0  0
 13 20  1  0  0  0  0
 15 11  1  0  0  0  0
 17  5  1  0  0  0  0
 18 19  2  0  0  0  0
 18 16  1  0  0  0  0
 20 15  1  0  0  0  0
 22 21  1  0  0  0  0
 23 24  1  0  0  0  0
 25 24  1  0  0  0  0
M  END
>  <MODEL>
8

>  <REMARK>
 VINA RESULT:      -3.9      1.605      6.742
  Name = 
  3 active torsions:
  status: ('A' for Active; 'I' for Inactive)
    1  A    between atoms: N_2  and  C_8
    2  A    between atoms: C_5  and  O_22
    3  A    between atoms: C_12  and  O_22
                            x       y       z     vdW  Elec       q    Type
                         _______ _______ _______ _____ _____    ______ ____

>  <TORSDO>
F 3

$$$$
=
 OpenBabel11072415243D

 25 26  0  0  1  0  0  0  0  0999 V2000
  160.4610  208.4940  151.9990 C   0  0  0  0  0  2  0  0  0  0  0  0
  159.5970  211.8110  153.6240 C   0  0  0  0  0  0  0  0  0  0  0  0
  158.2910  213.2740  152.0120 C   0  0  1  0  0  3  0  0  0  0  0  0
  159.5250  213.6800  151.2790 C   0  0  0  0  0  3  0  0  0  0  0  0
  160.9120  213.6190  149.2660 C   0  0  0  0  0  0  0  0  0  0  0  0
  158.6050  212.9320  153.4770 C   0  0  1  0  0  3  0  0  0  0  0  0
  161.4070  209.7040  154.0020 C   0  0  0  0  0  3  0  0  0  0  0  0
  161.4230  210.8040  154.8630 C   0  0  0  0  0  3  0  0  0  0  0  0
  160.4920  209.6550  152.9430 C   0  0  0  0  0  0  0  0  0  0  0  0
  161.7460  214.4490  149.7160 O   0  0  0  0  0  0  0  0  0  0  0  0
  161.9600  210.9410  149.3200 N   0  0  0  0  0  2  0  0  0  0  0  0
  160.5200  211.8550  154.6730 C   0  0  0  0  0  3  0  0  0  0  0  0
  161.8270  208.1860  151.3780 C   0  0  0  0  0  2  0  0  0  0  0  0
  159.5770  210.6970  152.7700 C   0  0  0  0  0  3  0  0  0  0  0  0
  162.0530  209.5180  149.6000 C   0  0  0  0  0  2  0  0  0  0  0  0
  161.1830  212.9380  147.9630 C   0  0  0  0  0  2  0  0  0  0  0  0
  159.7060  213.2780  150.0290 C   0  0  0  0  0  3  0  0  0  0  0  0
  161.3450  211.4590  148.1390 C   0  0  0  0  0  0  0  0  0  0  0  0
  160.9510  210.6820  147.2300 O   0  0  0  0  0  0  0  0  0  0  0  0
  162.4640  209.3480  150.9240 O   0  0  0  0  0  0  0  0  0  0  0  0
  157.3830  212.5850  154.1870 N   0  0  0  0  0  2  0  0  0  0  0  0
  157.0880  213.6280  154.9970 O   0  0  0  0  0  1  0  0  0  0  0  0
  157.3530  214.3090  151.9430 O   0  0  0  0  0  0  0  0  0  0  0  0
  156.5070  213.9590  150.8890 C   0  0  0  0  0  2  0  0  0  0  0  0
  155.1800  214.1030  151.2900 O   0  0  0  0  0  1  0  0  0  0  0  0
  1  9  1  0  0  0  0
  2 12  1  0  0  0  0
  3 23  1  1  0  0  0
  3  6  1  0  0  0  0
  4  3  1  0  0  0  0
  5 10  2  0  0  0  0
  5 17  1  0  0  0  0
  6  2  1  0  0  0  0
  6 21  1  1  0  0  0
  7  8  1  0  0  0  0
  9  7  2  0  0  0  0
 11 15  1  0  0  0  0
 12  8  2  0  0  0  0
 13  1  1  0  0  0  0
 14  9  1  0  0  0  0
 14  2  2  0  0  0  0
 15 20  1  0  0  0  0
 16 18  1  0  0  0  0
 16  5  1  0  0  0  0
 17  4  2  0  0  0  0
 18 11  1  0  0  0  0
 19 18  2  0  0  0  0
 20 13  1  0  0  0  0
 21 22  1  0  0  0  0
 24 25  1  0  0  0  0
 24 23  1  0  0  0  0
M  END
>  <MODEL>
9

>  <REMARK>
 VINA RESULT:      -3.9      5.555      8.094
  Name = 
  3 active torsions:
  status: ('A' for Active; 'I' for Inactive)
    1  A    between atoms: N_2  and  C_8
    2  A    between atoms: C_5  and  O_22
    3  A    between atoms: C_12  and  O_22
                            x       y       z     vdW  Elec       q    Type
                         _______ _______ _______ _____ _____    ______ ____

>  <TORSDO>
F 3

$$$$
