=
 OpenBabel11072410333D

 54 61  0  0  1  0  0  0  0  0999 V2000
  160.8030  202.4660  152.9660 O   0  0  0  0  0  0  0  0  0  0  0  0
  160.9160  205.7630  152.8720 C   0  0  2  0  0  3  0  0  0  0  0  0
  161.0730  211.1420  151.5080 N   0  0  0  0  0  2  0  0  0  0  0  0
  160.8310  203.8130  149.7480 C   0  0  2  0  0  3  0  0  0  0  0  0
  161.5940  210.4780  153.7600 C   0  0  2  0  0  3  0  0  0  0  0  0
  161.9550  207.6610  149.2620 O   0  0  0  0  0  0  0  0  0  0  0  0
  160.9340  208.0070  154.0640 C   0  0  1  0  0  3  0  0  0  0  0  0
  160.4580  209.4470  153.9140 C   0  0  0  0  0  2  0  0  0  0  0  0
  162.2000  209.9770  149.8160 C   0  0  0  0  0  2  0  0  0  0  0  0
  160.8960  202.7150  151.7360 C   0  0  0  0  0  0  0  0  0  0  0  0
  161.9910  206.5930  152.2070 C   0  0  2  0  0  3  0  0  0  0  0  0
  161.6560  209.8350  151.2240 C   0  0  1  0  0  0  0  0  0  0  0  0
  161.0750  201.7180  150.6860 C   0  0  0  0  0  2  0  0  0  0  0  0
  161.5470  208.9490  148.9040 C   0  0  0  0  0  2  0  0  0  0  0  0
  160.1930  207.3980  155.0820 O   0  0  0  0  0  1  0  0  0  0  0  0
  160.9590  202.4180  149.4610 O   0  0  0  0  0  0  0  0  0  0  0  0
  160.0540  205.0880  151.8180 C   0  0  0  0  0  2  0  0  0  0  0  0
  162.0330  204.5610  149.1620 C   0  0  0  0  0  2  0  0  0  0  0  0
  162.1760  210.7060  152.3520 C   0  0  1  0  0  0  0  0  0  0  0  0
  162.7920  209.5230  151.9710 O   0  0  0  0  0  0  0  0  0  0  0  0
  160.9840  206.8180  148.7290 C   0  0  0  0  0  2  0  0  0  0  0  0
  161.6450  205.6030  148.1020 C   0  0  2  0  0  3  0  0  0  0  0  0
  160.7780  203.9930  151.1840 N   0  0  0  0  0  0  0  0  0  0  0  0
  163.0750  206.7180  153.0780 O   0  0  0  0  0  1  0  0  0  0  0  0
  160.7190  207.2640  152.7430 C   0  0  1  0  0  3  0  0  0  0  0  0
  162.6530  210.2890  154.7470 N   0  0  0  0  0  2  0  0  0  0  0  0
  162.0820  210.5190  156.0680 C   0  0  1  0  0  3  0  0  0  0  0  0
  163.2010  210.6950  157.0760 C   0  0  0  0  0  1  0  0  0  0  0  0
  161.2870  211.6690  156.0480 O   0  0  0  0  0  0  0  0  0  0  0  0
  160.2620  211.4090  156.9630 C   0  0  0  0  0  2  0  0  0  0  0  0
  159.0140  212.1940  156.5800 C   0  0  1  0  0  3  0  0  0  0  0  0
  160.0690  214.4530  156.4760 O   0  0  0  0  0  1  0  0  0  0  0  0
  159.1270  213.5390  154.5990 O   0  0  0  0  0  0  0  0  0  0  0  0
  159.4000  213.4260  155.8230 C   0  0  0  0  0  0  0  0  0  0  0  0
  158.1650  211.4000  155.8030 O   0  0  0  0  0  0  0  0  0  0  0  0
  154.7780  210.4660  156.2580 O   0  0  0  0  0  1  0  0  0  0  0  0
  155.8630  210.8980  155.4930 C   0  0  2  0  0  3  0  0  0  0  0  0
  155.0580  213.0140  156.3590 O   0  0  0  0  0  1  0  0  0  0  0  0
  156.9080  211.5200  156.4000 C   0  0  2  0  0  3  0  0  0  0  0  0
  156.0270  212.4170  155.5510 C   0  0  1  0  0  3  0  0  0  0  0  0
  160.7530  205.0410  146.9990 C   0  0  0  0  0  2  0  0  0  0  0  0
  161.0590  204.8480  144.3430 O   0  0  0  0  0  0  0  0  0  0  0  0
  163.1140  204.9610  145.6860 O   0  0  0  0  0  0  0  0  0  0  0  0
  161.7110  204.4150  145.6280 S   0  0  0  0  0  0  0  0  0  0  0  0
  161.7490  202.6850  145.7150 N   0  0  0  0  0  2  0  0  0  0  0  0
  160.5460  202.2300  146.4080 C   0  0  1  0  0  3  0  0  0  0  0  0
  162.1180  200.6470  147.5600 C   0  0  0  0  0  2  0  0  0  0  0  0
  159.4390  201.8630  145.3980 C   0  0  0  0  0  2  0  0  0  0  0  0
  160.8070  201.0810  147.4040 C   0  0  2  0  0  3  0  0  0  0  0  0
  159.8130  199.4390  144.6300 C   0  0  0  0  0  2  0  0  0  0  0  0
  160.9650  199.0590  145.4990 C   0  0  0  0  0  0  0  0  0  0  0  0
  159.8880  200.9260  144.2570 C   0  0  0  0  0  2  0  0  0  0  0  0
  161.2460  199.9140  146.5930 N   0  0  0  0  0  0  0  0  0  0  0  0
  161.8690  198.2470  145.0640 N   0  0  0  0  0  2  0  0  0  0  0  0
  2 17  1  6  0  0  0
  4 18  1  1  0  0  0
  4 23  1  0  0  0  0
  5  8  1  0  0  0  0
  5 26  1  1  0  0  0
  7 15  1  1  0  0  0
  8  7  1  0  0  0  0
 10  1  2  0  0  0  0
 11 25  1  0  0  0  0
 11  2  1  0  0  0  0
 11 24  1  1  0  0  0
 12  9  1  6  0  0  0
 12  3  1  0  0  0  0
 12 20  1  0  0  0  0
 12 19  1  0  0  0  0
 13 10  1  0  0  0  0
 14  6  1  0  0  0  0
 14  9  1  0  0  0  0
 16  4  1  0  0  0  0
 16 13  1  0  0  0  0
 19  3  1  6  0  0  0
 19  5  1  0  0  0  0
 20 19  1  0  0  0  0
 21  6  1  0  0  0  0
 22 41  1  6  0  0  0
 22 21  1  0  0  0  0
 22 18  1  0  0  0  0
 23 10  1  0  0  0  0
 23 17  1  0  0  0  0
 25  2  1  0  0  0  0
 25  7  1  0  0  0  0
 26 27  1  0  0  0  0
 27 28  1  0  0  0  0
 29 27  1  0  0  0  0
 29 30  1  0  0  0  0
 31 30  1  0  0  0  0
 33 34  2  0  0  0  0
 34 32  1  0  0  0  0
 34 31  1  0  0  0  0
 35 39  1  0  0  0  0
 35 31  1  0  0  0  0
 37 40  1  0  0  0  0
 37 36  1  0  0  0  0
 37 39  1  0  0  0  0
 40 38  1  0  0  0  0
 40 39  1  0  0  0  0
 42 44  2  0  0  0  0
 44 43  2  0  0  0  0
 44 45  1  0  0  0  0
 44 41  1  0  0  0  0
 45 46  1  0  0  0  0
 46 49  1  0  0  0  0
 48 46  1  0  0  0  0
 49 47  1  0  0  0  0
 50 51  1  0  0  0  0
 51 53  1  0  0  0  0
 52 50  1  0  0  0  0
 52 48  1  0  0  0  0
 53 49  1  0  0  0  0
 53 47  1  0  0  0  0
 54 51  2  0  0  0  0
M  END
>  <MODEL>
1

>  <REMARK>
 VINA RESULT:      -3.2      0.000      0.000
  Name = 
  12 active torsions:
  status: ('A' for Active; 'I' for Inactive)
    1  A    between atoms: C_4  and  N_10
    2  A    between atoms: C_8  and  N_23
    3  A    between atoms: O_9  and  C_28
    4  A    between atoms: O_9  and  C_40
    5  A    between atoms: N_10  and  S_43
    6  A    between atoms: O_17  and  C_41
    7  A    between atoms: O_17  and  C_45
    8  A    between atoms: N_23  and  C_28
    9  A    between atoms: C_29  and  S_43
   10  A    between atoms: C_29  and  C_49
   11  A    between atoms: C_40  and  C_41
   12  A    between atoms: C_41  and  C_52
                            x       y       z     vdW  Elec       q    Type
                         _______ _______ _______ _____ _____    ______ ____

>  <TORSDO>
F 12

$$$$
=
 OpenBabel11072410333D

 54 61  0  0  1  0  0  0  0  0999 V2000
  161.7560  209.3990  148.2100 O   0  0  0  0  0  0  0  0  0  0  0  0
  161.6240  209.4870  151.5070 C   0  0  2  0  0  3  0  0  0  0  0  0
  161.4060  208.4220  156.9510 N   0  0  0  0  0  2  0  0  0  0  0  0
  161.6400  206.2600  149.7290 C   0  0  2  0  0  3  0  0  0  0  0  0
  160.9450  210.6470  156.1630 C   0  0  2  0  0  3  0  0  0  0  0  0
  160.4840  206.0130  153.5910 O   0  0  0  0  0  0  0  0  0  0  0  0
  161.6250  210.8000  153.6830 C   0  0  1  0  0  3  0  0  0  0  0  0
  162.0900  210.7160  155.1320 C   0  0  0  0  0  2  0  0  0  0  0  0
  160.2420  206.6980  155.8720 C   0  0  0  0  0  2  0  0  0  0  0  0
  161.6300  208.1870  148.5250 C   0  0  0  0  0  0  0  0  0  0  0  0
  160.5290  208.8950  152.3650 C   0  0  2  0  0  3  0  0  0  0  0  0
  160.8220  208.0810  155.6580 C   0  0  1  0  0  0  0  0  0  0  0  0
  161.4300  207.0900  147.5850 C   0  0  0  0  0  2  0  0  0  0  0  0
  160.8770  205.7160  154.8990 C   0  0  0  0  0  2  0  0  0  0  0  0
  162.3950  211.7640  153.0240 O   0  0  0  0  0  1  0  0  0  0  0  0
  161.5110  205.9020  148.3510 O   0  0  0  0  0  0  0  0  0  0  0  0
  162.4620  208.3770  150.8950 C   0  0  0  0  0  2  0  0  0  0  0  0
  160.4200  205.7460  150.5010 C   0  0  0  0  0  2  0  0  0  0  0  0
  160.3270  209.2680  156.4630 C   0  0  1  0  0  0  0  0  0  0  0  0
  159.7070  208.8390  155.2980 O   0  0  0  0  0  0  0  0  0  0  0  0
  161.4460  205.4110  152.7840 C   0  0  0  0  0  2  0  0  0  0  0  0
  160.7760  204.7350  151.6000 C   0  0  2  0  0  3  0  0  0  0  0  0
  161.7280  207.7030  149.8320 N   0  0  0  0  0  0  0  0  0  0  0  0
  159.4660  209.7980  152.4360 O   0  0  0  0  0  1  0  0  0  0  0  0
  161.8100  209.4350  153.0130 C   0  0  1  0  0  3  0  0  0  0  0  0
  159.9130  211.6480  155.9140 N   0  0  0  0  0  2  0  0  0  0  0  0
  159.6630  212.3560  157.1630 C   0  0  1  0  0  3  0  0  0  0  0  0
  160.5950  213.5490  157.2590 C   0  0  0  0  0  1  0  0  0  0  0  0
  158.3370  212.7950  157.2030 O   0  0  0  0  0  0  0  0  0  0  0  0
  157.7050  212.1190  156.1560 C   0  0  0  0  0  2  0  0  0  0  0  0
  157.0990  213.1200  155.1820 C   0  0  1  0  0  3  0  0  0  0  0  0
  155.3980  213.4990  156.9670 O   0  0  0  0  0  1  0  0  0  0  0  0
  154.8230  213.7500  154.7650 O   0  0  0  0  0  0  0  0  0  0  0  0
  155.7100  213.4730  155.6150 C   0  0  0  0  0  0  0  0  0  0  0  0
  157.8890  214.2720  155.1200 O   0  0  0  0  0  0  0  0  0  0  0  0
  157.1220  213.9800  151.6740 O   0  0  0  0  0  1  0  0  0  0  0  0
  157.3440  213.4650  152.9530 C   0  0  2  0  0  3  0  0  0  0  0  0
  159.6150  213.5540  152.1070 O   0  0  0  0  0  1  0  0  0  0  0  0
  158.1620  214.4530  153.7620 C   0  0  2  0  0  3  0  0  0  0  0  0
  158.8300  213.2080  153.2090 C   0  0  1  0  0  3  0  0  0  0  0  0
  161.6420  203.5810  151.1050 C   0  0  0  0  0  2  0  0  0  0  0  0
  161.3740  200.9660  150.5820 O   0  0  0  0  0  0  0  0  0  0  0  0
  159.3120  202.2130  151.0620 O   0  0  0  0  0  0  0  0  0  0  0  0
  160.6580  202.2750  150.3890 S   0  0  0  0  0  0  0  0  0  0  0  0
  160.4540  202.5900  148.6970 N   0  0  0  0  0  2  0  0  0  0  0  0
  161.7530  202.4520  148.0410 C   0  0  1  0  0  3  0  0  0  0  0  0
  160.6990  203.8400  146.2330 C   0  0  0  0  0  2  0  0  0  0  0  0
  162.1630  200.9680  147.9470 C   0  0  0  0  0  2  0  0  0  0  0  0
  161.8240  203.1470  146.6650 C   0  0  2  0  0  3  0  0  0  0  0  0
  161.0850  199.9600  145.8430 C   0  0  0  0  0  2  0  0  0  0  0  0
  160.4500  201.1780  145.2600 C   0  0  0  0  0  0  0  0  0  0  0  0
  161.0780  200.0310  147.3760 C   0  0  0  0  0  2  0  0  0  0  0  0
  160.8700  202.4260  145.7810 N   0  0  0  0  0  0  0  0  0  0  0  0
  159.3310  201.0860  144.6210 N   0  0  0  0  0  2  0  0  0  0  0  0
  1 10  2  0  0  0  0
  2 17  1  6  0  0  0
  2 11  1  0  0  0  0
  2 25  1  0  0  0  0
  4 23  1  0  0  0  0
  4 18  1  1  0  0  0
  5 26  1  6  0  0  0
  5 19  1  0  0  0  0
  6 14  1  0  0  0  0
  7 15  1  6  0  0  0
  7  8  1  0  0  0  0
  8  5  1  0  0  0  0
 10 23  1  0  0  0  0
 11 24  1  1  0  0  0
 11 25  1  0  0  0  0
 12  9  1  1  0  0  0
 12 19  1  0  0  0  0
 12  3  1  0  0  0  0
 13 16  1  0  0  0  0
 13 10  1  0  0  0  0
 14  9  1  0  0  0  0
 16  4  1  0  0  0  0
 18 22  1  0  0  0  0
 19 20  1  1  0  0  0
 19  3  1  0  0  0  0
 20 12  1  0  0  0  0
 21  6  1  0  0  0  0
 22 41  1  6  0  0  0
 22 21  1  0  0  0  0
 23 17  1  0  0  0  0
 25  7  1  0  0  0  0
 26 27  1  0  0  0  0
 27 29  1  0  0  0  0
 27 28  1  0  0  0  0
 30 29  1  0  0  0  0
 31 34  1  0  0  0  0
 31 30  1  0  0  0  0
 33 34  2  0  0  0  0
 34 32  1  0  0  0  0
 35 31  1  0  0  0  0
 36 37  1  0  0  0  0
 37 40  1  0  0  0  0
 37 39  1  0  0  0  0
 38 40  1  0  0  0  0
 39 35  1  0  0  0  0
 40 39  1  0  0  0  0
 44 42  2  0  0  0  0
 44 43  2  0  0  0  0
 44 41  1  0  0  0  0
 45 44  1  0  0  0  0
 46 45  1  0  0  0  0
 47 49  1  0  0  0  0
 48 46  1  0  0  0  0
 49 46  1  0  0  0  0
 50 52  1  0  0  0  0
 51 53  1  0  0  0  0
 51 50  1  0  0  0  0
 52 48  1  0  0  0  0
 53 47  1  0  0  0  0
 53 49  1  0  0  0  0
 54 51  2  0  0  0  0
M  END
>  <MODEL>
2

>  <REMARK>
 VINA RESULT:      -2.5      2.111      4.440
  Name = 
  12 active torsions:
  status: ('A' for Active; 'I' for Inactive)
    1  A    between atoms: C_4  and  N_10
    2  A    between atoms: C_8  and  N_23
    3  A    between atoms: O_9  and  C_28
    4  A    between atoms: O_9  and  C_40
    5  A    between atoms: N_10  and  S_43
    6  A    between atoms: O_17  and  C_41
    7  A    between atoms: O_17  and  C_45
    8  A    between atoms: N_23  and  C_28
    9  A    between atoms: C_29  and  S_43
   10  A    between atoms: C_29  and  C_49
   11  A    between atoms: C_40  and  C_41
   12  A    between atoms: C_41  and  C_52
                            x       y       z     vdW  Elec       q    Type
                         _______ _______ _______ _____ _____    ______ ____

>  <TORSDO>
F 12

$$$$
=
 OpenBabel11072410333D

 54 61  0  0  1  0  0  0  0  0999 V2000
  160.3730  204.9230  154.9610 O   0  0  0  0  0  0  0  0  0  0  0  0
  161.3930  206.2020  152.0950 C   0  0  2  0  0  3  0  0  0  0  0  0
  163.1220  209.3980  147.8970 N   0  0  0  0  0  2  0  0  0  0  0  0
  160.9090  208.3690  155.0340 C   0  0  2  0  0  3  0  0  0  0  0  0
  162.3340  207.1720  147.4410 C   0  0  2  0  0  3  0  0  0  0  0  0
  161.1790  210.3670  151.5340 O   0  0  0  0  0  0  0  0  0  0  0  0
  162.1020  205.9060  149.6720 C   0  0  1  0  0  3  0  0  0  0  0  0
  163.0450  206.4810  148.6210 C   0  0  0  0  0  2  0  0  0  0  0  0
  161.7200  210.7220  149.2290 C   0  0  0  0  0  2  0  0  0  0  0  0
  160.4100  206.1590  155.1950 C   0  0  0  0  0  0  0  0  0  0  0  0
  160.6870  207.2820  151.3070 C   0  0  2  0  0  3  0  0  0  0  0  0
  162.1370  209.2880  148.9690 C   0  0  1  0  0  0  0  0  0  0  0  0
  159.9360  206.7990  156.4170 C   0  0  0  0  0  2  0  0  0  0  0  0
  162.0130  211.0900  150.6760 C   0  0  0  0  0  2  0  0  0  0  0  0
  162.5590  204.6330  150.0300 O   0  0  0  0  0  1  0  0  0  0  0  0
  160.3220  208.1570  156.3200 O   0  0  0  0  0  0  0  0  0  0  0  0
  162.0070  206.7930  153.3530 C   0  0  0  0  0  2  0  0  0  0  0  0
  160.0530  209.3680  154.2470 C   0  0  0  0  0  2  0  0  0  0  0  0
  161.9100  208.6430  147.6150 C   0  0  1  0  0  0  0  0  0  0  0  0
  160.9400  208.6710  148.6060 O   0  0  0  0  0  0  0  0  0  0  0  0
  161.8210  210.4020  152.7690 C   0  0  0  0  0  2  0  0  0  0  0  0
  160.8070  210.6520  153.8710 C   0  0  2  0  0  3  0  0  0  0  0  0
  160.9740  207.1030  154.3330 N   0  0  0  0  0  0  0  0  0  0  0  0
  159.6830  206.6990  150.5310 O   0  0  0  0  0  1  0  0  0  0  0  0
  162.0940  206.8230  150.8990 C   0  0  1  0  0  3  0  0  0  0  0  0
  161.2430  206.3660  146.9010 N   0  0  0  0  0  2  0  0  0  0  0  0
  161.7590  205.6150  145.7640 C   0  0  1  0  0  3  0  0  0  0  0  0
  163.1930  205.2060  146.0420 C   0  0  0  0  0  1  0  0  0  0  0  0
  160.9800  204.4740  145.5560 O   0  0  0  0  0  0  0  0  0  0  0  0
  161.7570  203.4180  146.0420 C   0  0  0  0  0  2  0  0  0  0  0  0
  160.8740  202.4190  146.7780 C   0  0  1  0  0  3  0  0  0  0  0  0
  159.7690  201.3780  144.7970 O   0  0  0  0  0  0  0  0  0  0  0  0
  161.1240  200.1190  146.1490 O   0  0  0  0  0  1  0  0  0  0  0  0
  160.6020  201.2380  145.8990 C   0  0  0  0  0  0  0  0  0  0  0  0
  161.4970  202.0040  147.9590 O   0  0  0  0  0  0  0  0  0  0  0  0
  160.4570  202.5150  151.3070 O   0  0  0  0  0  1  0  0  0  0  0  0
  161.1410  201.8280  150.3020 C   0  0  2  0  0  3  0  0  0  0  0  0
  158.9440  200.8210  150.1150 O   0  0  0  0  0  1  0  0  0  0  0  0
  160.5290  202.1600  148.9540 C   0  0  2  0  0  3  0  0  0  0  0  0
  160.2400  200.8160  149.5940 C   0  0  1  0  0  3  0  0  0  0  0  0
  161.4890  211.3250  155.0580 C   0  0  0  0  0  2  0  0  0  0  0  0
  160.0040  210.9590  157.2590 O   0  0  0  0  0  0  0  0  0  0  0  0
  160.8610  213.2290  156.8710 O   0  0  0  0  0  0  0  0  0  0  0  0
  160.3010  211.9960  156.2110 S   0  0  0  0  0  0  0  0  0  0  0  0
  158.8510  212.3970  155.3510 N   0  0  0  0  0  2  0  0  0  0  0  0
  158.7770  213.8510  155.2220 C   0  0  1  0  0  3  0  0  0  0  0  0
  156.5580  213.5820  156.3650 C   0  0  0  0  0  2  0  0  0  0  0  0
  159.0190  214.2840  153.7620 C   0  0  0  0  0  2  0  0  0  0  0  0
  157.4710  214.4520  155.7820 C   0  0  2  0  0  3  0  0  0  0  0  0
  156.7880  214.1400  152.4930 C   0  0  0  0  0  2  0  0  0  0  0  0
  155.8700  213.7720  153.6100 C   0  0  0  0  0  0  0  0  0  0  0  0
  158.1770  213.5260  152.7140 C   0  0  0  0  0  2  0  0  0  0  0  0
  156.3700  213.9350  154.9250 N   0  0  0  0  0  0  0  0  0  0  0  0
  154.8580  212.9990  153.3940 N   0  0  0  0  0  2  0  0  0  0  0  0
  1 10  2  0  0  0  0
  2 17  1  1  0  0  0
  3 12  1  0  0  0  0
  4 18  1  6  0  0  0
  4 16  1  0  0  0  0
  5 26  1  1  0  0  0
  5 19  1  0  0  0  0
  5  8  1  0  0  0  0
  6 21  1  0  0  0  0
  7 15  1  1  0  0  0
  7 25  1  0  0  0  0
  8  7  1  0  0  0  0
  9 14  1  0  0  0  0
 10 13  1  0  0  0  0
 11 24  1  6  0  0  0
 11  2  1  0  0  0  0
 12  9  1  6  0  0  0
 14  6  1  0  0  0  0
 16 13  1  0  0  0  0
 17 23  1  0  0  0  0
 19  3  1  6  0  0  0
 19 20  1  0  0  0  0
 19 12  1  0  0  0  0
 20 12  1  0  0  0  0
 21 22  1  0  0  0  0
 22 18  1  0  0  0  0
 22 41  1  1  0  0  0
 23  4  1  0  0  0  0
 23 10  1  0  0  0  0
 25 11  1  0  0  0  0
 25  2  1  0  0  0  0
 27 28  1  0  0  0  0
 27 26  1  0  0  0  0
 29 27  1  0  0  0  0
 29 30  1  0  0  0  0
 30 31  1  0  0  0  0
 31 35  1  0  0  0  0
 32 34  2  0  0  0  0
 34 33  1  0  0  0  0
 34 31  1  0  0  0  0
 35 39  1  0  0  0  0
 37 36  1  0  0  0  0
 39 40  1  0  0  0  0
 39 37  1  0  0  0  0
 40 38  1  0  0  0  0
 40 37  1  0  0  0  0
 41 44  1  0  0  0  0
 44 43  2  0  0  0  0
 44 42  2  0  0  0  0
 45 44  1  0  0  0  0
 46 45  1  0  0  0  0
 46 49  1  0  0  0  0
 48 46  1  0  0  0  0
 49 47  1  0  0  0  0
 50 52  1  0  0  0  0
 50 51  1  0  0  0  0
 51 53  1  0  0  0  0
 52 48  1  0  0  0  0
 53 49  1  0  0  0  0
 53 47  1  0  0  0  0
 54 51  2  0  0  0  0
M  END
>  <MODEL>
3

>  <REMARK>
 VINA RESULT:      -0.3      3.196     11.103
  Name = 
  12 active torsions:
  status: ('A' for Active; 'I' for Inactive)
    1  A    between atoms: C_4  and  N_10
    2  A    between atoms: C_8  and  N_23
    3  A    between atoms: O_9  and  C_28
    4  A    between atoms: O_9  and  C_40
    5  A    between atoms: N_10  and  S_43
    6  A    between atoms: O_17  and  C_41
    7  A    between atoms: O_17  and  C_45
    8  A    between atoms: N_23  and  C_28
    9  A    between atoms: C_29  and  S_43
   10  A    between atoms: C_29  and  C_49
   11  A    between atoms: C_40  and  C_41
   12  A    between atoms: C_41  and  C_52
                            x       y       z     vdW  Elec       q    Type
                         _______ _______ _______ _____ _____    ______ ____

>  <TORSDO>
F 12

$$$$
=
 OpenBabel11072410333D

 54 61  0  0  1  0  0  0  0  0999 V2000
  160.6700  205.1070  156.0500 O   0  0  0  0  0  0  0  0  0  0  0  0
  161.5200  205.9730  152.9820 C   0  0  2  0  0  3  0  0  0  0  0  0
  162.9610  208.5570  148.2840 N   0  0  0  0  0  2  0  0  0  0  0  0
  161.1060  208.5380  155.5940 C   0  0  2  0  0  3  0  0  0  0  0  0
  162.2200  206.2710  148.1960 C   0  0  2  0  0  3  0  0  0  0  0  0
  161.1570  210.0060  151.8320 O   0  0  0  0  0  0  0  0  0  0  0  0
  162.1270  205.3420  150.5960 C   0  0  1  0  0  3  0  0  0  0  0  0
  163.0040  205.7770  149.4280 C   0  0  0  0  0  2  0  0  0  0  0  0
  161.5830  210.0300  149.4760 C   0  0  0  0  0  2  0  0  0  0  0  0
  160.6800  206.3640  156.1000 C   0  0  0  0  0  0  0  0  0  0  0  0
  160.7480  206.9100  152.0810 C   0  0  2  0  0  3  0  0  0  0  0  0
  162.0300  208.5840  149.4070 C   0  0  1  0  0  0  0  0  0  0  0  0
  160.2440  207.1660  157.2370 C   0  0  0  0  0  2  0  0  0  0  0  0
  161.9300  210.6130  150.8380 C   0  0  0  0  0  2  0  0  0  0  0  0
  162.6370  204.1450  151.1130 O   0  0  0  0  0  1  0  0  0  0  0  0
  160.5850  208.5040  156.9250 O   0  0  0  0  0  0  0  0  0  0  0  0
  162.1730  206.7570  154.1090 C   0  0  0  0  0  2  0  0  0  0  0  0
  160.1860  209.3910  154.7130 C   0  0  0  0  0  2  0  0  0  0  0  0
  161.7610  207.7410  148.1750 C   0  0  1  0  0  0  0  0  0  0  0  0
  160.8360  207.8930  149.1980 O   0  0  0  0  0  0  0  0  0  0  0  0
  161.8540  210.2360  153.0150 C   0  0  0  0  0  2  0  0  0  0  0  0
  160.8830  210.6220  154.1180 C   0  0  2  0  0  3  0  0  0  0  0  0
  161.1770  207.1840  155.0830 N   0  0  0  0  0  0  0  0  0  0  0  0
  159.7270  206.1970  151.4480 O   0  0  0  0  0  1  0  0  0  0  0  0
  162.1470  206.4290  151.6750 C   0  0  1  0  0  3  0  0  0  0  0  0
  161.1300  205.3700  147.8330 N   0  0  0  0  0  2  0  0  0  0  0  0
  161.0190  205.3600  146.3800 C   0  0  1  0  0  3  0  0  0  0  0  0
  162.3620  205.7180  145.7730 C   0  0  0  0  0  1  0  0  0  0  0  0
  160.6320  204.0910  145.9420 O   0  0  0  0  0  0  0  0  0  0  0  0
  161.6320  203.2320  146.4090 C   0  0  0  0  0  2  0  0  0  0  0  0
  161.0090  201.9500  146.9430 C   0  0  1  0  0  3  0  0  0  0  0  0
  161.1670  199.7220  145.8310 O   0  0  0  0  0  1  0  0  0  0  0  0
  159.9990  201.4210  144.8340 O   0  0  0  0  0  0  0  0  0  0  0  0
  160.6930  201.0270  145.8080 C   0  0  0  0  0  0  0  0  0  0  0  0
  161.8830  201.3270  147.8390 O   0  0  0  0  0  0  0  0  0  0  0  0
  158.7760  200.9780  149.5060 O   0  0  0  0  0  1  0  0  0  0  0  0
  159.7870  201.7170  148.8880 C   0  0  2  0  0  3  0  0  0  0  0  0
  160.6460  201.5920  151.1510 O   0  0  0  0  0  1  0  0  0  0  0  0
  161.0800  200.9260  148.9100 C   0  0  2  0  0  3  0  0  0  0  0  0
  160.8990  202.0860  149.8700 C   0  0  1  0  0  3  0  0  0  0  0  0
  161.5990  211.4780  155.1590 C   0  0  0  0  0  2  0  0  0  0  0  0
  159.9540  211.2180  157.2600 O   0  0  0  0  0  0  0  0  0  0  0  0
  161.1280  213.3650  157.0350 O   0  0  0  0  0  0  0  0  0  0  0  0
  160.4470  212.2510  156.2840 S   0  0  0  0  0  0  0  0  0  0  0  0
  159.1150  212.8850  155.3740 N   0  0  0  0  0  2  0  0  0  0  0  0
  157.9070  212.1530  155.7520 C   0  0  1  0  0  3  0  0  0  0  0  0
  157.8110  211.5640  153.3130 C   0  0  0  0  0  2  0  0  0  0  0  0
  156.9330  213.0690  156.5210 C   0  0  0  0  0  2  0  0  0  0  0  0
  157.2120  211.4590  154.5630 C   0  0  2  0  0  3  0  0  0  0  0  0
  155.5150  214.3630  154.8130 C   0  0  0  0  0  2  0  0  0  0  0  0
  155.9980  213.7450  153.5430 C   0  0  0  0  0  0  0  0  0  0  0  0
  156.6480  214.4260  155.8460 C   0  0  0  0  0  2  0  0  0  0  0  0
  156.7370  212.5430  153.6620 N   0  0  0  0  0  0  0  0  0  0  0  0
  156.0790  214.4500  152.4650 N   0  0  0  0  0  2  0  0  0  0  0  0
  1 10  2  0  0  0  0
  2 17  1  1  0  0  0
  3 12  1  0  0  0  0
  4 18  1  6  0  0  0
  4 16  1  0  0  0  0
  5 26  1  1  0  0  0
  5  8  1  0  0  0  0
  6 21  1  0  0  0  0
  7 15  1  1  0  0  0
  7 25  1  0  0  0  0
  8  7  1  0  0  0  0
  9 14  1  0  0  0  0
 10 13  1  0  0  0  0
 11 24  1  6  0  0  0
 11  2  1  0  0  0  0
 12  9  1  6  0  0  0
 14  6  1  0  0  0  0
 16 13  1  0  0  0  0
 17 23  1  0  0  0  0
 19  5  1  0  0  0  0
 19  3  1  6  0  0  0
 19 20  1  0  0  0  0
 19 12  1  0  0  0  0
 20 12  1  0  0  0  0
 21 22  1  0  0  0  0
 22 18  1  0  0  0  0
 22 41  1  1  0  0  0
 23  4  1  0  0  0  0
 23 10  1  0  0  0  0
 25 11  1  0  0  0  0
 25  2  1  0  0  0  0
 27 26  1  0  0  0  0
 28 27  1  0  0  0  0
 29 27  1  0  0  0  0
 29 30  1  0  0  0  0
 30 31  1  0  0  0  0
 31 35  1  0  0  0  0
 33 34  2  0  0  0  0
 34 32  1  0  0  0  0
 34 31  1  0  0  0  0
 35 39  1  0  0  0  0
 37 39  1  0  0  0  0
 37 36  1  0  0  0  0
 37 40  1  0  0  0  0
 39 40  1  0  0  0  0
 40 38  1  0  0  0  0
 41 44  1  0  0  0  0
 44 43  2  0  0  0  0
 44 42  2  0  0  0  0
 45 46  1  0  0  0  0
 45 44  1  0  0  0  0
 46 48  1  0  0  0  0
 47 53  1  0  0  0  0
 47 49  1  0  0  0  0
 49 46  1  0  0  0  0
 50 52  1  0  0  0  0
 51 53  1  0  0  0  0
 51 50  1  0  0  0  0
 52 48  1  0  0  0  0
 53 49  1  0  0  0  0
 54 51  2  0  0  0  0
M  END
>  <MODEL>
4

>  <REMARK>
 VINA RESULT:      -0.3      3.076     11.131
  Name = 
  12 active torsions:
  status: ('A' for Active; 'I' for Inactive)
    1  A    between atoms: C_4  and  N_10
    2  A    between atoms: C_8  and  N_23
    3  A    between atoms: O_9  and  C_28
    4  A    between atoms: O_9  and  C_40
    5  A    between atoms: N_10  and  S_43
    6  A    between atoms: O_17  and  C_41
    7  A    between atoms: O_17  and  C_45
    8  A    between atoms: N_23  and  C_28
    9  A    between atoms: C_29  and  S_43
   10  A    between atoms: C_29  and  C_49
   11  A    between atoms: C_40  and  C_41
   12  A    between atoms: C_41  and  C_52
                            x       y       z     vdW  Elec       q    Type
                         _______ _______ _______ _____ _____    ______ ____

>  <TORSDO>
F 12

$$$$
