=
 OpenBabel11072413453D

 44 46  0  0  1  0  0  0  0  0999 V2000
  160.4760  204.1260  144.5390 C   0  0  0  0  0  3  0  0  0  0  0  0
  161.5410  204.6610  147.2860 N   0  0  0  0  0  0  0  0  0  0  0  0
  161.3620  205.1130  144.3040 C   0  0  0  0  0  0  0  0  0  0  0  0
  160.7050  201.7940  145.1660 N   0  0  0  0  0  1  0  0  0  0  0  0
  162.0480  205.6290  146.5950 C   0  0  0  0  0  0  0  0  0  0  0  0
  161.3930  203.4020  146.7370 O   0  0  0  0  0  0  0  0  0  0  0  0
  162.5250  205.3750  145.2060 C   0  0  0  0  0  2  0  0  0  0  0  0
  160.4690  203.1340  145.6800 C   0  0  1  0  0  3  0  0  0  0  0  0
  161.2060  205.9460  143.1910 O   0  0  0  0  0  0  0  0  0  0  0  0
  162.2680  206.2370  142.3550 N   0  0  0  0  0  2  0  0  0  0  0  0
  161.7100  206.5450  141.0510 C   0  0  0  0  0  2  0  0  0  0  0  0
  161.9720  208.0010  140.6970 C   0  0  0  0  0  2  0  0  0  0  0  0
  162.4080  208.1470  139.2390 C   0  0  2  0  0  3  0  0  0  0  0  0
  162.2640  209.6170  138.7970 C   0  0  1  0  0  3  0  0  0  0  0  0
  160.8870  210.0690  138.6030 N   0  0  1  0  0  0  0  0  0  0  0  0
  162.8870  210.6360  139.7790 C   0  0  2  0  0  3  0  0  0  0  0  0
  159.8030  209.1240  138.4260 C   0  0  0  0  0  2  0  0  0  0  0  0
  160.5650  210.6260  139.8800 C   0  0  1  0  0  3  0  0  0  0  0  0
  161.7150  211.5080  140.2580 C   0  0  1  0  0  3  0  0  0  0  0  0
  163.8120  211.4320  139.1050 O   0  0  0  0  0  1  0  0  0  0  0  0
  158.5690  209.8620  138.9870 C   0  0  0  0  0  2  0  0  0  0  0  0
  159.1260  211.0380  139.8020 C   0  0  0  0  0  2  0  0  0  0  0  0
  162.9230  213.6920  141.6330 O   0  0  0  0  0  0  0  0  0  0  0  0
  161.7680  211.6540  141.7020 N   0  0  0  0  0  2  0  0  0  0  0  0
  162.3380  212.8140  142.3230 C   0  0  0  0  0  0  0  0  0  0  0  0
  162.1750  213.1130  144.9420 C   0  0  0  0  0  3  0  0  0  0  0  0
  162.2510  212.9760  143.7500 C   0  0  0  0  0  0  0  0  0  0  0  0
  161.6360  207.1790  138.3450 C   0  0  0  0  0  2  0  0  0  0  0  0
  162.4340  206.8590  137.0960 C   0  0  0  0  0  1  0  0  0  0  0  0
  162.2050  206.9790  147.2010 C   0  0  0  0  0  2  0  0  0  0  0  0
  161.1750  207.1950  148.2060 N   0  0  0  0  0  2  0  0  0  0  0  0
  161.7880  207.5780  149.4780 C   0  0  1  0  0  3  0  0  0  0  0  0
  162.0150  209.0870  149.5490 C   0  0  0  0  0  2  0  0  0  0  0  0
  162.2030  209.4770  150.8780 O   0  0  0  0  0  1  0  0  0  0  0  0
  161.0130  207.1340  150.5570 O   0  0  0  0  0  0  0  0  0  0  0  0
  161.6690  205.9960  151.0330 C   0  0  0  0  0  2  0  0  0  0  0  0
  162.2280  206.2710  152.3490 N   0  0  0  0  0  2  0  0  0  0  0  0
  161.2980  205.7450  153.3300 C   0  0  0  0  0  2  0  0  0  0  0  0
  160.8500  206.8430  154.2800 C   0  0  0  0  0  2  0  0  0  0  0  0
  161.2130  208.0890  153.7680 O   0  0  0  0  0  0  0  0  0  0  0  0
  159.6910  208.4860  156.0540 O   0  0  0  0  0  1  0  0  0  0  0  0
  159.9920  210.3670  154.2480 O   0  0  0  0  0  0  0  0  0  0  0  0
  162.0850  209.8240  155.7240 O   0  0  0  0  0  1  0  0  0  0  0  0
  160.7170  209.2200  154.9240 P   0  0  0  0  0  0  0  0  0  0  0  0
  1  8  1  0  0  0  0
  3  1  2  0  0  0  0
  3  7  1  0  0  0  0
  5 30  1  0  0  0  0
  5  2  2  0  0  0  0
  6  2  1  0  0  0  0
  7  5  1  0  0  0  0
  8  4  1  6  0  0  0
  8  6  1  0  0  0  0
  9  3  1  0  0  0  0
 10  9  1  0  0  0  0
 11 10  1  0  0  0  0
 12 11  1  0  0  0  0
 13 28  1  6  0  0  0
 13 12  1  0  0  0  0
 14 13  1  1  0  0  0
 14 16  1  0  0  0  0
 15 17  1  1  0  0  0
 15 14  1  0  0  0  0
 15 18  1  0  0  0  0
 16 20  1  6  0  0  0
 16 19  1  0  0  0  0
 17 21  1  0  0  0  0
 18 22  1  6  0  0  0
 18 19  1  0  0  0  0
 19 24  1  1  0  0  0
 21 22  1  0  0  0  0
 23 25  2  0  0  0  0
 24 25  1  0  0  0  0
 25 27  1  0  0  0  0
 27 26  3  0  0  0  0
 29 28  1  0  0  0  0
 30 31  1  0  0  0  0
 31 32  1  0  0  0  0
 32 33  1  6  0  0  0
 32 35  1  0  0  0  0
 33 34  1  0  0  0  0
 35 36  1  0  0  0  0
 36 37  1  0  0  0  0
 37 38  1  0  0  0  0
 38 39  1  0  0  0  0
 40 39  1  0  0  0  0
 40 44  1  0  0  0  0
 42 44  2  0  0  0  0
 44 43  1  0  0  0  0
 44 41  1  0  0  0  0
M  END
>  <MODEL>
1

>  <REMARK>
 VINA RESULT:      -5.2      0.000      0.000
  Name = 
  20 active torsions:
  status: ('A' for Active; 'I' for Inactive)
    1  A    between atoms: C_1  and  C_20
    2  A    between atoms: C_1  and  N_21
    3  A    between atoms: C_3  and  O_19
    4  A    between atoms: C_3  and  C_40
    5  A    between atoms: N_4  and  O_5
    6  A    between atoms: N_4  and  C_13
    7  A    between atoms: O_5  and  C_11
    8  A    between atoms: O_7  and  C_26
    9  A    between atoms: O_7  and  C_31
   10  A    between atoms: C_9  and  C_33
   11  A    between atoms: C_13  and  C_38
   12  A    between atoms: C_14  and  C_33
   13  A    between atoms: O_19  and  P_37
   14  A    between atoms: N_21  and  C_31
   15  A    between atoms: C_22  and  C_31
   16  A    between atoms: N_25  and  C_26
   17  A    between atoms: N_25  and  C_40
   18  A    between atoms: C_27  and  N_30
   19  A    between atoms: C_32  and  C_34
   20  A    between atoms: C_33  and  C_38
                            x       y       z     vdW  Elec       q    Type
                         _______ _______ _______ _____ _____    ______ ____

>  <TORSDO>
F 20

$$$$
=
 OpenBabel11072413453D

 44 46  0  0  1  0  0  0  0  0999 V2000
  160.9120  202.8390  150.3160 C   0  0  0  0  0  3  0  0  0  0  0  0
  161.5660  202.8880  147.3950 N   0  0  0  0  0  0  0  0  0  0  0  0
  160.9960  204.1610  150.0750 C   0  0  0  0  0  0  0  0  0  0  0  0
  159.3140  201.1270  149.6830 N   0  0  0  0  0  1  0  0  0  0  0  0
  161.7160  204.1260  147.7360 C   0  0  0  0  0  0  0  0  0  0  0  0
  160.5710  202.1130  147.9590 O   0  0  0  0  0  0  0  0  0  0  0  0
  160.7750  204.7410  148.7150 C   0  0  0  0  0  2  0  0  0  0  0  0
  160.5900  201.7330  149.3370 C   0  0  1  0  0  3  0  0  0  0  0  0
  161.3130  205.0450  151.1110 O   0  0  0  0  0  0  0  0  0  0  0  0
  161.0670  206.4000  151.0030 N   0  0  0  0  0  2  0  0  0  0  0  0
  162.1730  207.0860  151.6450 C   0  0  0  0  0  2  0  0  0  0  0  0
  161.7770  208.5130  151.9940 C   0  0  0  0  0  2  0  0  0  0  0  0
  160.9860  208.5630  153.3020 C   0  0  2  0  0  3  0  0  0  0  0  0
  161.3690  209.8310  154.0920 C   0  0  1  0  0  3  0  0  0  0  0  0
  161.0770  211.0920  153.4130 N   0  0  1  0  0  0  0  0  0  0  0  0
  160.6780  209.9480  155.4700 C   0  0  2  0  0  3  0  0  0  0  0  0
  160.8550  211.1400  151.9820 C   0  0  0  0  0  2  0  0  0  0  0  0
  159.7750  211.4130  153.9080 C   0  0  1  0  0  3  0  0  0  0  0  0
  159.8320  211.2300  155.3930 C   0  0  1  0  0  3  0  0  0  0  0  0
  161.6410  210.0880  156.4690 O   0  0  0  0  0  1  0  0  0  0  0  0
  159.9090  212.3450  151.7910 C   0  0  0  0  0  2  0  0  0  0  0  0
  159.3530  212.6580  153.1880 C   0  0  0  0  0  2  0  0  0  0  0  0
  158.1110  213.1980  156.5260 O   0  0  0  0  0  0  0  0  0  0  0  0
  158.4980  210.9710  155.9080 N   0  0  0  0  0  2  0  0  0  0  0  0
  157.6640  212.0260  156.4060 C   0  0  0  0  0  0  0  0  0  0  0  0
  155.1690  211.5050  157.0960 C   0  0  0  0  0  3  0  0  0  0  0  0
  156.3050  211.7440  156.7830 C   0  0  0  0  0  0  0  0  0  0  0  0
  161.1880  207.2790  154.1040 C   0  0  0  0  0  2  0  0  0  0  0  0
  160.0450  207.0810  155.0810 C   0  0  0  0  0  1  0  0  0  0  0  0
  162.7900  204.9490  147.1160 C   0  0  0  0  0  2  0  0  0  0  0  0
  162.2030  205.9490  146.2370 N   0  0  0  0  0  2  0  0  0  0  0  0
  161.7550  205.3210  144.9930 C   0  0  1  0  0  3  0  0  0  0  0  0
  160.2430  205.4500  144.8220 C   0  0  0  0  0  2  0  0  0  0  0  0
  159.7390  206.3770  145.7380 O   0  0  0  0  0  1  0  0  0  0  0  0
  162.4350  205.8590  143.8920 O   0  0  0  0  0  0  0  0  0  0  0  0
  161.5850  205.6520  142.8030 C   0  0  0  0  0  2  0  0  0  0  0  0
  161.6440  206.8030  141.9140 N   0  0  0  0  0  2  0  0  0  0  0  0
  162.3540  206.3880  140.7190 C   0  0  0  0  0  2  0  0  0  0  0  0
  161.8530  207.1570  139.5080 C   0  0  0  0  0  2  0  0  0  0  0  0
  162.1210  208.5170  139.6660 O   0  0  0  0  0  0  0  0  0  0  0  0
  160.9790  210.9110  138.8540 O   0  0  0  0  0  1  0  0  0  0  0  0
  159.9530  208.5900  138.1820 O   0  0  0  0  0  1  0  0  0  0  0  0
  162.1990  209.2550  137.0120 O   0  0  0  0  0  0  0  0  0  0  0  0
  161.2700  209.2980  138.4300 P   0  0  0  0  0  0  0  0  0  0  0  0
  2  5  2  0  0  0  0
  2  6  1  0  0  0  0
  3  1  2  0  0  0  0
  3  9  1  0  0  0  0
  5  7  1  0  0  0  0
  6  8  1  0  0  0  0
  7  3  1  0  0  0  0
  8  4  1  1  0  0  0
  8  1  1  0  0  0  0
 10  9  1  0  0  0  0
 10 11  1  0  0  0  0
 11 12  1  0  0  0  0
 13 12  1  6  0  0  0
 13 28  1  0  0  0  0
 14 13  1  6  0  0  0
 14 16  1  0  0  0  0
 15 17  1  6  0  0  0
 15 18  1  0  0  0  0
 15 14  1  0  0  0  0
 16 20  1  1  0  0  0
 18 22  1  1  0  0  0
 18 19  1  0  0  0  0
 19 16  1  0  0  0  0
 19 24  1  6  0  0  0
 21 17  1  0  0  0  0
 21 22  1  0  0  0  0
 24 25  1  0  0  0  0
 25 23  2  0  0  0  0
 25 27  1  0  0  0  0
 27 26  3  0  0  0  0
 28 29  1  0  0  0  0
 30  5  1  0  0  0  0
 31 30  1  0  0  0  0
 32 33  1  6  0  0  0
 32 31  1  0  0  0  0
 33 34  1  0  0  0  0
 35 32  1  0  0  0  0
 36 35  1  0  0  0  0
 37 36  1  0  0  0  0
 38 37  1  0  0  0  0
 39 40  1  0  0  0  0
 39 38  1  0  0  0  0
 42 44  1  0  0  0  0
 43 44  2  0  0  0  0
 44 41  1  0  0  0  0
 44 40  1  0  0  0  0
M  END
>  <MODEL>
2

>  <REMARK>
 VINA RESULT:      -5.2      4.315     12.131
  Name = 
  20 active torsions:
  status: ('A' for Active; 'I' for Inactive)
    1  A    between atoms: C_1  and  C_20
    2  A    between atoms: C_1  and  N_21
    3  A    between atoms: C_3  and  O_19
    4  A    between atoms: C_3  and  C_40
    5  A    between atoms: N_4  and  O_5
    6  A    between atoms: N_4  and  C_13
    7  A    between atoms: O_5  and  C_11
    8  A    between atoms: O_7  and  C_26
    9  A    between atoms: O_7  and  C_31
   10  A    between atoms: C_9  and  C_33
   11  A    between atoms: C_13  and  C_38
   12  A    between atoms: C_14  and  C_33
   13  A    between atoms: O_19  and  P_37
   14  A    between atoms: N_21  and  C_31
   15  A    between atoms: C_22  and  C_31
   16  A    between atoms: N_25  and  C_26
   17  A    between atoms: N_25  and  C_40
   18  A    between atoms: C_27  and  N_30
   19  A    between atoms: C_32  and  C_34
   20  A    between atoms: C_33  and  C_38
                            x       y       z     vdW  Elec       q    Type
                         _______ _______ _______ _____ _____    ______ ____

>  <TORSDO>
F 20

$$$$
=
 OpenBabel11072413453D

 44 46  0  0  1  0  0  0  0  0999 V2000
  161.5340  203.0660  151.3040 C   0  0  0  0  0  3  0  0  0  0  0  0
  161.2290  202.1370  148.4740 N   0  0  0  0  0  0  0  0  0  0  0  0
  161.2790  204.2220  150.6610 C   0  0  0  0  0  0  0  0  0  0  0  0
  160.1870  201.1200  151.8340 N   0  0  0  0  0  1  0  0  0  0  0  0
  161.2320  203.4240  148.3480 C   0  0  0  0  0  0  0  0  0  0  0  0
  160.6300  201.5340  149.5630 O   0  0  0  0  0  0  0  0  0  0  0  0
  160.5390  204.2680  149.3630 C   0  0  0  0  0  2  0  0  0  0  0  0
  161.1480  201.6650  150.8890 C   0  0  1  0  0  3  0  0  0  0  0  0
  161.7210  205.4360  151.1960 O   0  0  0  0  0  0  0  0  0  0  0  0
  160.9760  206.1240  152.1340 N   0  0  0  0  0  2  0  0  0  0  0  0
  161.8610  207.0960  152.7510 C   0  0  0  0  0  2  0  0  0  0  0  0
  161.5450  207.2300  154.2330 C   0  0  0  0  0  2  0  0  0  0  0  0
  160.5450  208.3580  154.4860 C   0  0  2  0  0  3  0  0  0  0  0  0
  161.3020  209.6660  154.7940 C   0  0  1  0  0  3  0  0  0  0  0  0
  161.3030  210.6460  153.7100 N   0  0  1  0  0  0  0  0  0  0  0  0
  160.7680  210.4290  156.0260 C   0  0  2  0  0  3  0  0  0  0  0  0
  160.9980  210.2600  152.3470 C   0  0  0  0  0  2  0  0  0  0  0  0
  160.1700  211.4570  154.0290 C   0  0  1  0  0  3  0  0  0  0  0  0
  160.2850  211.7850  155.4870 C   0  0  1  0  0  3  0  0  0  0  0  0
  161.8040  210.6360  156.9370 O   0  0  0  0  0  1  0  0  0  0  0  0
  160.3890  211.5350  151.7250 C   0  0  0  0  0  2  0  0  0  0  0  0
  160.0380  212.4460  152.9110 C   0  0  0  0  0  2  0  0  0  0  0  0
  159.5110  214.3040  156.5720 O   0  0  0  0  0  0  0  0  0  0  0  0
  158.9700  212.0900  156.0260 N   0  0  0  0  0  2  0  0  0  0  0  0
  158.6340  213.4020  156.4980 C   0  0  0  0  0  0  0  0  0  0  0  0
  156.1570  213.9380  157.2380 C   0  0  0  0  0  3  0  0  0  0  0  0
  157.2840  213.6910  156.9010 C   0  0  0  0  0  0  0  0  0  0  0  0
  159.5600  207.9690  155.5860 C   0  0  0  0  0  2  0  0  0  0  0  0
  160.1870  206.9580  156.5260 C   0  0  0  0  0  1  0  0  0  0  0  0
  161.8770  204.0590  147.1670 C   0  0  0  0  0  2  0  0  0  0  0  0
  162.5050  205.3120  147.5600 N   0  0  0  0  0  2  0  0  0  0  0  0
  162.0480  206.3960  146.6890 C   0  0  1  0  0  3  0  0  0  0  0  0
  160.5350  206.3370  146.4820 C   0  0  0  0  0  2  0  0  0  0  0  0
  160.2440  206.3080  145.1150 O   0  0  0  0  0  1  0  0  0  0  0  0
  162.4370  207.6410  147.1990 O   0  0  0  0  0  0  0  0  0  0  0  0
  161.6410  207.8360  148.3310 C   0  0  0  0  0  2  0  0  0  0  0  0
  162.1700  208.9440  149.1120 N   0  0  0  0  0  2  0  0  0  0  0  0
  161.5190  210.1530  148.6410 C   0  0  0  0  0  2  0  0  0  0  0  0
  162.5500  211.2220  148.3210 C   0  0  0  0  0  2  0  0  0  0  0  0
  162.2210  212.4080  148.9760 O   0  0  0  0  0  0  0  0  0  0  0  0
  160.1670  214.2250  148.5550 O   0  0  0  0  0  1  0  0  0  0  0  0
  160.8690  212.4810  146.7240 O   0  0  0  0  0  0  0  0  0  0  0  0
  162.5370  214.4530  147.1550 O   0  0  0  0  0  1  0  0  0  0  0  0
  161.4260  213.3600  147.8250 P   0  0  0  0  0  0  0  0  0  0  0  0
  2  6  1  0  0  0  0
  3  9  1  0  0  0  0
  3  1  2  0  0  0  0
  5  2  2  0  0  0  0
  5  7  1  0  0  0  0
  6  8  1  0  0  0  0
  7  3  1  0  0  0  0
  8  1  1  0  0  0  0
  8  4  1  1  0  0  0
  9 10  1  0  0  0  0
 10 11  1  0  0  0  0
 11 12  1  0  0  0  0
 13 12  1  1  0  0  0
 13 28  1  0  0  0  0
 14 13  1  6  0  0  0
 14 16  1  0  0  0  0
 15 17  1  6  0  0  0
 15 18  1  0  0  0  0
 15 14  1  0  0  0  0
 16 20  1  1  0  0  0
 18 22  1  6  0  0  0
 18 19  1  0  0  0  0
 19 24  1  1  0  0  0
 19 16  1  0  0  0  0
 21 17  1  0  0  0  0
 21 22  1  0  0  0  0
 24 25  1  0  0  0  0
 25 23  2  0  0  0  0
 25 27  1  0  0  0  0
 27 26  3  0  0  0  0
 28 29  1  0  0  0  0
 30 31  1  0  0  0  0
 30  5  1  0  0  0  0
 32 33  1  1  0  0  0
 32 35  1  0  0  0  0
 32 31  1  0  0  0  0
 34 33  1  0  0  0  0
 35 36  1  0  0  0  0
 36 37  1  0  0  0  0
 38 37  1  0  0  0  0
 39 38  1  0  0  0  0
 39 40  1  0  0  0  0
 42 44  2  0  0  0  0
 43 44  1  0  0  0  0
 44 41  1  0  0  0  0
 44 40  1  0  0  0  0
M  END
>  <MODEL>
3

>  <REMARK>
 VINA RESULT:      -5.2      5.506     10.983
  Name = 
  20 active torsions:
  status: ('A' for Active; 'I' for Inactive)
    1  A    between atoms: C_1  and  C_20
    2  A    between atoms: C_1  and  N_21
    3  A    between atoms: C_3  and  O_19
    4  A    between atoms: C_3  and  C_40
    5  A    between atoms: N_4  and  O_5
    6  A    between atoms: N_4  and  C_13
    7  A    between atoms: O_5  and  C_11
    8  A    between atoms: O_7  and  C_26
    9  A    between atoms: O_7  and  C_31
   10  A    between atoms: C_9  and  C_33
   11  A    between atoms: C_13  and  C_38
   12  A    between atoms: C_14  and  C_33
   13  A    between atoms: O_19  and  P_37
   14  A    between atoms: N_21  and  C_31
   15  A    between atoms: C_22  and  C_31
   16  A    between atoms: N_25  and  C_26
   17  A    between atoms: N_25  and  C_40
   18  A    between atoms: C_27  and  N_30
   19  A    between atoms: C_32  and  C_34
   20  A    between atoms: C_33  and  C_38
                            x       y       z     vdW  Elec       q    Type
                         _______ _______ _______ _____ _____    ______ ____

>  <TORSDO>
F 20

$$$$
=
 OpenBabel11072413453D

 44 46  0  0  1  0  0  0  0  0999 V2000
  162.6310  207.2340  150.8160 C   0  0  0  0  0  3  0  0  0  0  0  0
  161.2730  205.1290  149.1780 N   0  0  0  0  0  0  0  0  0  0  0  0
  161.7930  207.9710  150.0610 C   0  0  0  0  0  0  0  0  0  0  0  0
  162.2950  205.6820  152.6500 N   0  0  0  0  0  1  0  0  0  0  0  0
  160.8620  206.2220  148.6240 C   0  0  0  0  0  0  0  0  0  0  0  0
  161.4610  205.0540  150.5440 O   0  0  0  0  0  0  0  0  0  0  0  0
  160.5410  207.4050  149.4730 C   0  0  0  0  0  2  0  0  0  0  0  0
  162.4940  205.7820  151.2130 C   0  0  1  0  0  3  0  0  0  0  0  0
  162.0860  209.3110  149.7910 O   0  0  0  0  0  0  0  0  0  0  0  0
  161.9890  210.2820  150.7690 N   0  0  0  0  0  2  0  0  0  0  0  0
  161.0320  209.8030  151.7500 C   0  0  0  0  0  2  0  0  0  0  0  0
  161.3100  210.4310  153.1070 C   0  0  0  0  0  2  0  0  0  0  0  0
  160.0110  210.7550  153.8440 C   0  0  2  0  0  3  0  0  0  0  0  0
  160.0400  212.2180  154.3310 C   0  0  1  0  0  3  0  0  0  0  0  0
  159.3460  213.1690  153.4650 N   0  0  1  0  0  0  0  0  0  0  0  0
  159.4250  212.4290  155.7330 C   0  0  2  0  0  3  0  0  0  0  0  0
  159.0390  212.8440  152.0860 C   0  0  0  0  0  2  0  0  0  0  0  0
  158.0380  213.2090  154.0390 C   0  0  1  0  0  3  0  0  0  0  0  0
  158.2310  213.3730  155.5160 C   0  0  1  0  0  3  0  0  0  0  0  0
  160.3570  213.0460  156.5670 O   0  0  0  0  0  1  0  0  0  0  0  0
  157.7650  213.6640  151.7840 C   0  0  0  0  0  2  0  0  0  0  0  0
  157.2220  214.1010  153.1520 C   0  0  0  0  0  2  0  0  0  0  0  0
  156.6740  211.1310  154.6980 O   0  0  0  0  0  0  0  0  0  0  0  0
  157.0670  212.8670  156.2220 N   0  0  0  0  0  2  0  0  0  0  0  0
  156.3700  211.6930  155.7840 C   0  0  0  0  0  0  0  0  0  0  0  0
  154.4180  210.7020  157.2600 C   0  0  0  0  0  3  0  0  0  0  0  0
  155.3050  211.1530  156.5860 C   0  0  0  0  0  0  0  0  0  0  0  0
  159.7680  209.7580  154.9750 C   0  0  0  0  0  2  0  0  0  0  0  0
  161.0730  209.1110  155.3990 C   0  0  0  0  0  1  0  0  0  0  0  0
  160.6600  206.2870  147.1510 C   0  0  0  0  0  2  0  0  0  0  0  0
  161.9370  206.4880  146.4830 N   0  0  0  0  0  2  0  0  0  0  0  0
  162.0910  205.5210  145.3950 C   0  0  1  0  0  3  0  0  0  0  0  0
  163.2670  204.5810  145.6540 C   0  0  0  0  0  2  0  0  0  0  0  0
  163.9540  204.9850  146.8020 O   0  0  0  0  0  1  0  0  0  0  0  0
  160.9050  204.8010  145.1990 O   0  0  0  0  0  0  0  0  0  0  0  0
  161.2840  203.4570  145.2400 C   0  0  0  0  0  2  0  0  0  0  0  0
  160.1740  202.6250  144.8000 N   0  0  0  0  0  2  0  0  0  0  0  0
  160.1350  201.4650  145.6710 C   0  0  0  0  0  2  0  0  0  0  0  0
  161.1050  201.6360  146.8280 C   0  0  0  0  0  2  0  0  0  0  0  0
  160.5100  202.3950  147.8360 O   0  0  0  0  0  0  0  0  0  0  0  0
  161.1350  202.1440  150.5280 O   0  0  0  0  0  1  0  0  0  0  0  0
  161.1630  200.0830  148.9030 O   0  0  0  0  0  0  0  0  0  0  0  0
  158.8080  201.0400  149.5290 O   0  0  0  0  0  1  0  0  0  0  0  0
  160.4340  201.3810  149.1880 P   0  0  0  0  0  0  0  0  0  0  0  0
  1  8  1  0  0  0  0
  2  6  1  0  0  0  0
  3  1  2  0  0  0  0
  5  2  2  0  0  0  0
  5  7  1  0  0  0  0
  6  8  1  0  0  0  0
  7  3  1  0  0  0  0
  8  4  1  1  0  0  0
  9  3  1  0  0  0  0
  9 10  1  0  0  0  0
 10 11  1  0  0  0  0
 11 12  1  0  0  0  0
 13 12  1  1  0  0  0
 13 28  1  0  0  0  0
 14 13  1  6  0  0  0
 14 16  1  0  0  0  0
 15 17  1  6  0  0  0
 15 18  1  0  0  0  0
 15 14  1  0  0  0  0
 16 20  1  1  0  0  0
 18 22  1  6  0  0  0
 18 19  1  0  0  0  0
 19 16  1  0  0  0  0
 19 24  1  1  0  0  0
 21 17  1  0  0  0  0
 21 22  1  0  0  0  0
 23 25  2  0  0  0  0
 25 24  1  0  0  0  0
 25 27  1  0  0  0  0
 27 26  3  0  0  0  0
 28 29  1  0  0  0  0
 30  5  1  0  0  0  0
 31 30  1  0  0  0  0
 32 33  1  1  0  0  0
 32 31  1  0  0  0  0
 33 34  1  0  0  0  0
 35 36  1  0  0  0  0
 35 32  1  0  0  0  0
 37 36  1  0  0  0  0
 37 38  1  0  0  0  0
 38 39  1  0  0  0  0
 39 40  1  0  0  0  0
 40 44  1  0  0  0  0
 42 44  2  0  0  0  0
 44 43  1  0  0  0  0
 44 41  1  0  0  0  0
M  END
>  <MODEL>
4

>  <REMARK>
 VINA RESULT:      -5.1      5.565     11.352
  Name = 
  20 active torsions:
  status: ('A' for Active; 'I' for Inactive)
    1  A    between atoms: C_1  and  C_20
    2  A    between atoms: C_1  and  N_21
    3  A    between atoms: C_3  and  O_19
    4  A    between atoms: C_3  and  C_40
    5  A    between atoms: N_4  and  O_5
    6  A    between atoms: N_4  and  C_13
    7  A    between atoms: O_5  and  C_11
    8  A    between atoms: O_7  and  C_26
    9  A    between atoms: O_7  and  C_31
   10  A    between atoms: C_9  and  C_33
   11  A    between atoms: C_13  and  C_38
   12  A    between atoms: C_14  and  C_33
   13  A    between atoms: O_19  and  P_37
   14  A    between atoms: N_21  and  C_31
   15  A    between atoms: C_22  and  C_31
   16  A    between atoms: N_25  and  C_26
   17  A    between atoms: N_25  and  C_40
   18  A    between atoms: C_27  and  N_30
   19  A    between atoms: C_32  and  C_34
   20  A    between atoms: C_33  and  C_38
                            x       y       z     vdW  Elec       q    Type
                         _______ _______ _______ _____ _____    ______ ____

>  <TORSDO>
F 20

$$$$
=
 OpenBabel11072413453D

 44 46  0  0  1  0  0  0  0  0999 V2000
  160.5580  204.1860  144.4610 C   0  0  0  0  0  3  0  0  0  0  0  0
  161.4450  204.8600  147.2400 N   0  0  0  0  0  0  0  0  0  0  0  0
  161.4050  205.2090  144.2390 C   0  0  0  0  0  0  0  0  0  0  0  0
  160.8660  201.8900  145.1780 N   0  0  0  0  0  1  0  0  0  0  0  0
  161.9400  205.8310  146.5450 C   0  0  0  0  0  0  0  0  0  0  0  0
  161.3880  203.5790  146.7270 O   0  0  0  0  0  0  0  0  0  0  0  0
  162.5030  205.5580  145.1910 C   0  0  0  0  0  2  0  0  0  0  0  0
  160.5370  203.2320  145.6330 C   0  0  1  0  0  3  0  0  0  0  0  0
  161.2700  205.9980  143.0920 O   0  0  0  0  0  0  0  0  0  0  0  0
  162.3560  206.3000  142.2920 N   0  0  0  0  0  2  0  0  0  0  0  0
  161.8640  206.4150  140.9320 C   0  0  0  0  0  2  0  0  0  0  0  0
  161.6640  207.8770  140.5660 C   0  0  0  0  0  2  0  0  0  0  0  0
  162.1840  208.1730  139.1590 C   0  0  2  0  0  3  0  0  0  0  0  0
  162.0350  209.6780  138.8550 C   0  0  1  0  0  3  0  0  0  0  0  0
  160.6880  210.0980  138.4740 N   0  0  1  0  0  0  0  0  0  0  0  0
  162.4270  210.6010  140.0310 C   0  0  2  0  0  3  0  0  0  0  0  0
  159.7030  209.1400  138.0130 C   0  0  0  0  0  2  0  0  0  0  0  0
  160.1250  210.4960  139.7260 C   0  0  1  0  0  3  0  0  0  0  0  0
  161.1460  211.3720  140.3870 C   0  0  1  0  0  3  0  0  0  0  0  0
  163.4080  211.5010  139.6140 O   0  0  0  0  0  1  0  0  0  0  0  0
  158.3530  209.7650  138.4260 C   0  0  0  0  0  2  0  0  0  0  0  0
  158.7000  210.8620  139.4430 C   0  0  0  0  0  2  0  0  0  0  0  0
  159.7740  213.3850  141.8650 O   0  0  0  0  0  0  0  0  0  0  0  0
  160.9460  211.3570  141.8260 N   0  0  0  0  0  2  0  0  0  0  0  0
  160.1890  212.3750  142.4940 C   0  0  0  0  0  0  0  0  0  0  0  0
  159.6770  212.1450  145.0740 C   0  0  0  0  0  3  0  0  0  0  0  0
  159.9080  212.2510  143.8990 C   0  0  0  0  0  0  0  0  0  0  0  0
  161.4870  207.2870  138.1290 C   0  0  0  0  0  2  0  0  0  0  0  0
  162.4720  206.8320  137.0690 C   0  0  0  0  0  1  0  0  0  0  0  0
  161.9980  207.2060  147.1120 C   0  0  0  0  0  2  0  0  0  0  0  0
  162.8180  207.2120  148.3140 N   0  0  0  0  0  2  0  0  0  0  0  0
  162.3520  208.2530  149.2320 C   0  0  1  0  0  3  0  0  0  0  0  0
  161.6110  209.3580  148.4820 C   0  0  0  0  0  2  0  0  0  0  0  0
  162.2630  210.5800  148.6690 O   0  0  0  0  0  1  0  0  0  0  0  0
  161.5500  207.7030  150.2400 O   0  0  0  0  0  0  0  0  0  0  0  0
  162.4260  206.9670  151.0420 C   0  0  0  0  0  2  0  0  0  0  0  0
  161.6840  205.9420  151.7600 N   0  0  0  0  0  2  0  0  0  0  0  0
  160.7820  205.3180  150.8100 C   0  0  0  0  0  2  0  0  0  0  0  0
  161.0070  203.8160  150.7710 C   0  0  0  0  0  2  0  0  0  0  0  0
  160.4910  203.2910  149.5860 O   0  0  0  0  0  0  0  0  0  0  0  0
  159.0420  200.9300  149.7440 O   0  0  0  0  0  1  0  0  0  0  0  0
  161.3000  201.2570  151.0420 O   0  0  0  0  0  1  0  0  0  0  0  0
  161.4780  200.9840  148.4440 O   0  0  0  0  0  0  0  0  0  0  0  0
  160.5930  201.6100  149.7490 P   0  0  0  0  0  0  0  0  0  0  0  0
  1  8  1  0  0  0  0
  3  1  2  0  0  0  0
  3  7  1  0  0  0  0
  5 30  1  0  0  0  0
  5  2  2  0  0  0  0
  6  2  1  0  0  0  0
  7  5  1  0  0  0  0
  8  4  1  6  0  0  0
  8  6  1  0  0  0  0
  9  3  1  0  0  0  0
 10  9  1  0  0  0  0
 11 10  1  0  0  0  0
 12 11  1  0  0  0  0
 13 28  1  6  0  0  0
 13 12  1  0  0  0  0
 14 13  1  1  0  0  0
 14 16  1  0  0  0  0
 15 17  1  1  0  0  0
 15 14  1  0  0  0  0
 15 18  1  0  0  0  0
 16 20  1  6  0  0  0
 16 19  1  0  0  0  0
 17 21  1  0  0  0  0
 18 22  1  6  0  0  0
 18 19  1  0  0  0  0
 19 24  1  1  0  0  0
 21 22  1  0  0  0  0
 23 25  2  0  0  0  0
 24 25  1  0  0  0  0
 25 27  1  0  0  0  0
 27 26  3  0  0  0  0
 29 28  1  0  0  0  0
 30 31  1  0  0  0  0
 31 32  1  0  0  0  0
 32 33  1  6  0  0  0
 32 35  1  0  0  0  0
 33 34  1  0  0  0  0
 35 36  1  0  0  0  0
 36 37  1  0  0  0  0
 38 37  1  0  0  0  0
 39 38  1  0  0  0  0
 40 44  1  0  0  0  0
 40 39  1  0  0  0  0
 41 44  1  0  0  0  0
 43 44  2  0  0  0  0
 44 42  1  0  0  0  0
M  END
>  <MODEL>
5

>  <REMARK>
 VINA RESULT:      -5.0      2.419      3.450
  Name = 
  20 active torsions:
  status: ('A' for Active; 'I' for Inactive)
    1  A    between atoms: C_1  and  C_20
    2  A    between atoms: C_1  and  N_21
    3  A    between atoms: C_3  and  O_19
    4  A    between atoms: C_3  and  C_40
    5  A    between atoms: N_4  and  O_5
    6  A    between atoms: N_4  and  C_13
    7  A    between atoms: O_5  and  C_11
    8  A    between atoms: O_7  and  C_26
    9  A    between atoms: O_7  and  C_31
   10  A    between atoms: C_9  and  C_33
   11  A    between atoms: C_13  and  C_38
   12  A    between atoms: C_14  and  C_33
   13  A    between atoms: O_19  and  P_37
   14  A    between atoms: N_21  and  C_31
   15  A    between atoms: C_22  and  C_31
   16  A    between atoms: N_25  and  C_26
   17  A    between atoms: N_25  and  C_40
   18  A    between atoms: C_27  and  N_30
   19  A    between atoms: C_32  and  C_34
   20  A    between atoms: C_33  and  C_38
                            x       y       z     vdW  Elec       q    Type
                         _______ _______ _______ _____ _____    ______ ____

>  <TORSDO>
F 20

$$$$
=
 OpenBabel11072413453D

 44 46  0  0  1  0  0  0  0  0999 V2000
  161.5410  208.6490  149.5280 C   0  0  0  0  0  3  0  0  0  0  0  0
  160.4450  209.0750  152.2810 N   0  0  0  0  0  0  0  0  0  0  0  0
  162.0980  209.8270  149.8670 C   0  0  0  0  0  0  0  0  0  0  0  0
  161.8790  206.3670  150.2760 N   0  0  0  0  0  1  0  0  0  0  0  0
  161.0190  210.2060  152.0300 C   0  0  0  0  0  0  0  0  0  0  0  0
  160.9920  207.8880  151.8330 O   0  0  0  0  0  0  0  0  0  0  0  0
  162.3130  210.2300  151.2900 C   0  0  0  0  0  2  0  0  0  0  0  0
  161.0530  207.5520  150.4450 C   0  0  1  0  0  3  0  0  0  0  0  0
  162.4890  210.7320  148.8740 O   0  0  0  0  0  0  0  0  0  0  0  0
  161.8970  211.9750  148.7580 N   0  0  0  0  0  2  0  0  0  0  0  0
  160.7250  211.8120  147.9180 C   0  0  0  0  0  2  0  0  0  0  0  0
  160.6100  212.9740  146.9430 C   0  0  0  0  0  2  0  0  0  0  0  0
  159.6940  212.6240  145.7700 C   0  0  2  0  0  3  0  0  0  0  0  0
  159.7990  213.7150  144.6850 C   0  0  1  0  0  3  0  0  0  0  0  0
  161.1580  214.0030  144.2300 N   0  0  1  0  0  0  0  0  0  0  0  0
  159.0020  213.4040  143.3980 C   0  0  2  0  0  3  0  0  0  0  0  0
  162.3120  213.6160  145.0180 C   0  0  0  0  0  2  0  0  0  0  0  0
  161.2910  213.1400  143.0980 C   0  0  1  0  0  3  0  0  0  0  0  0
  160.0520  213.3260  142.2780 C   0  0  1  0  0  3  0  0  0  0  0  0
  158.1150  214.4470  143.1310 O   0  0  0  0  0  1  0  0  0  0  0  0
  163.4230  213.3960  143.9680 C   0  0  0  0  0  2  0  0  0  0  0  0
  162.7010  213.3030  142.6160 C   0  0  0  0  0  2  0  0  0  0  0  0
  158.4750  213.2640  139.9060 O   0  0  0  0  0  0  0  0  0  0  0  0
  159.8190  212.1450  141.4650 N   0  0  0  0  0  2  0  0  0  0  0  0
  159.0640  212.2040  140.2470 C   0  0  0  0  0  0  0  0  0  0  0  0
  158.8930  210.0640  138.7110 C   0  0  0  0  0  3  0  0  0  0  0  0
  158.9690  211.0390  139.4090 C   0  0  0  0  0  0  0  0  0  0  0  0
  158.2620  212.4010  146.2520 C   0  0  0  0  0  2  0  0  0  0  0  0
  157.6420  213.7110  146.6970 C   0  0  0  0  0  1  0  0  0  0  0  0
  160.4190  211.4760  152.5220 C   0  0  0  0  0  2  0  0  0  0  0  0
  158.9750  211.4420  152.3500 N   0  0  0  0  0  2  0  0  0  0  0  0
  158.3910  212.7190  152.7630 C   0  0  1  0  0  3  0  0  0  0  0  0
  157.8420  213.4890  151.5640 C   0  0  0  0  0  2  0  0  0  0  0  0
  158.6350  213.2450  150.4390 O   0  0  0  0  0  1  0  0  0  0  0  0
  157.3970  212.5200  153.7310 O   0  0  0  0  0  0  0  0  0  0  0  0
  157.7930  211.3770  154.4300 C   0  0  0  0  0  2  0  0  0  0  0  0
  157.1790  211.3750  155.7490 N   0  0  0  0  0  2  0  0  0  0  0  0
  158.2260  211.6600  156.7120 C   0  0  0  0  0  2  0  0  0  0  0  0
  159.5550  211.1000  156.2320 C   0  0  0  0  0  2  0  0  0  0  0  0
  159.9810  210.0880  157.0930 O   0  0  0  0  0  0  0  0  0  0  0  0
  161.9770  210.0910  155.1660 O   0  0  0  0  0  0  0  0  0  0  0  0
  160.2320  208.1400  155.3480 O   0  0  0  0  0  1  0  0  0  0  0  0
  162.0420  208.2630  157.2360 O   0  0  0  0  0  1  0  0  0  0  0  0
  161.0280  209.1230  156.1810 P   0  0  0  0  0  0  0  0  0  0  0  0
  1  3  2  0  0  0  0
  1  8  1  0  0  0  0
  3  7  1  0  0  0  0
  5  2  2  0  0  0  0
  5 30  1  0  0  0  0
  6  2  1  0  0  0  0
  7  5  1  0  0  0  0
  8  4  1  1  0  0  0
  8  6  1  0  0  0  0
  9  3  1  0  0  0  0
 10  9  1  0  0  0  0
 11 10  1  0  0  0  0
 12 11  1  0  0  0  0
 13 28  1  1  0  0  0
 13 12  1  0  0  0  0
 14 13  1  1  0  0  0
 15 14  1  0  0  0  0
 15 17  1  1  0  0  0
 16 20  1  6  0  0  0
 16 14  1  0  0  0  0
 18 22  1  6  0  0  0
 18 15  1  0  0  0  0
 19 24  1  6  0  0  0
 19 18  1  0  0  0  0
 19 16  1  0  0  0  0
 21 17  1  0  0  0  0
 22 21  1  0  0  0  0
 23 25  2  0  0  0  0
 25 24  1  0  0  0  0
 26 27  3  0  0  0  0
 27 25  1  0  0  0  0
 28 29  1  0  0  0  0
 31 30  1  0  0  0  0
 31 32  1  0  0  0  0
 32 33  1  6  0  0  0
 32 35  1  0  0  0  0
 34 33  1  0  0  0  0
 35 36  1  0  0  0  0
 36 37  1  0  0  0  0
 37 38  1  0  0  0  0
 39 38  1  0  0  0  0
 39 40  1  0  0  0  0
 41 44  2  0  0  0  0
 42 44  1  0  0  0  0
 44 40  1  0  0  0  0
 44 43  1  0  0  0  0
M  END
>  <MODEL>
6

>  <REMARK>
 VINA RESULT:      -4.8      3.893      6.766
  Name = 
  20 active torsions:
  status: ('A' for Active; 'I' for Inactive)
    1  A    between atoms: C_1  and  C_20
    2  A    between atoms: C_1  and  N_21
    3  A    between atoms: C_3  and  O_19
    4  A    between atoms: C_3  and  C_40
    5  A    between atoms: N_4  and  O_5
    6  A    between atoms: N_4  and  C_13
    7  A    between atoms: O_5  and  C_11
    8  A    between atoms: O_7  and  C_26
    9  A    between atoms: O_7  and  C_31
   10  A    between atoms: C_9  and  C_33
   11  A    between atoms: C_13  and  C_38
   12  A    between atoms: C_14  and  C_33
   13  A    between atoms: O_19  and  P_37
   14  A    between atoms: N_21  and  C_31
   15  A    between atoms: C_22  and  C_31
   16  A    between atoms: N_25  and  C_26
   17  A    between atoms: N_25  and  C_40
   18  A    between atoms: C_27  and  N_30
   19  A    between atoms: C_32  and  C_34
   20  A    between atoms: C_33  and  C_38
                            x       y       z     vdW  Elec       q    Type
                         _______ _______ _______ _____ _____    ______ ____

>  <TORSDO>
F 20

$$$$
=
 OpenBabel11072413453D

 44 46  0  0  1  0  0  0  0  0999 V2000
  160.5940  204.3250  144.5230 C   0  0  0  0  0  3  0  0  0  0  0  0
  161.1450  204.9770  147.3930 N   0  0  0  0  0  0  0  0  0  0  0  0
  161.4170  205.3850  144.4110 C   0  0  0  0  0  0  0  0  0  0  0  0
  160.9190  202.0290  145.2330 N   0  0  0  0  0  1  0  0  0  0  0  0
  161.6710  205.9810  146.7710 C   0  0  0  0  0  0  0  0  0  0  0  0
  161.1980  203.7050  146.8560 O   0  0  0  0  0  0  0  0  0  0  0  0
  162.3890  205.7590  145.4840 C   0  0  0  0  0  2  0  0  0  0  0  0
  160.4860  203.3460  145.6700 C   0  0  1  0  0  3  0  0  0  0  0  0
  161.3740  206.1910  143.2690 O   0  0  0  0  0  0  0  0  0  0  0  0
  162.2450  205.9940  142.2150 N   0  0  0  0  0  2  0  0  0  0  0  0
  161.7490  206.7800  141.1000 C   0  0  0  0  0  2  0  0  0  0  0  0
  162.6980  207.9300  140.8030 C   0  0  0  0  0  2  0  0  0  0  0  0
  162.1270  208.8550  139.7280 C   0  0  2  0  0  3  0  0  0  0  0  0
  162.0890  210.3040  140.2550 C   0  0  1  0  0  3  0  0  0  0  0  0
  162.3870  211.3300  139.2580 N   0  0  1  0  0  0  0  0  0  0  0  0
  160.7300  210.7190  140.8640 C   0  0  2  0  0  3  0  0  0  0  0  0
  163.0650  211.0010  138.0200 C   0  0  0  0  0  2  0  0  0  0  0  0
  161.0860  211.6790  138.7780 C   0  0  1  0  0  3  0  0  0  0  0  0
  160.2300  211.8800  139.9900 C   0  0  1  0  0  3  0  0  0  0  0  0
  160.9200  211.1700  142.1700 O   0  0  0  0  0  1  0  0  0  0  0  0
  162.5440  212.0530  137.0170 C   0  0  0  0  0  2  0  0  0  0  0  0
  161.3020  212.6710  137.6750 C   0  0  0  0  0  2  0  0  0  0  0  0
  158.0650  213.4930  140.9040 O   0  0  0  0  0  0  0  0  0  0  0  0
  158.8340  211.6710  139.6460 N   0  0  0  0  0  2  0  0  0  0  0  0
  157.8040  212.5630  140.0930 C   0  0  0  0  0  0  0  0  0  0  0  0
  155.3290  212.2500  139.2310 C   0  0  0  0  0  3  0  0  0  0  0  0
  156.4560  212.3930  139.6210 C   0  0  0  0  0  0  0  0  0  0  0  0
  160.7620  208.3590  139.2570 C   0  0  0  0  0  2  0  0  0  0  0  0
  160.6540  208.4560  137.7480 C   0  0  0  0  0  1  0  0  0  0  0  0
  161.6090  207.3450  147.3630 C   0  0  0  0  0  2  0  0  0  0  0  0
  162.7510  207.5580  148.2400 N   0  0  0  0  0  2  0  0  0  0  0  0
  162.2930  207.9340  149.5780 C   0  0  1  0  0  3  0  0  0  0  0  0
  161.6200  209.3060  149.5650 C   0  0  0  0  0  2  0  0  0  0  0  0
  162.5510  210.2880  149.2170 O   0  0  0  0  0  1  0  0  0  0  0  0
  161.4350  206.9580  150.1020 O   0  0  0  0  0  0  0  0  0  0  0  0
  162.1780  206.3180  151.0970 C   0  0  0  0  0  2  0  0  0  0  0  0
  161.2750  205.7060  152.0610 N   0  0  0  0  0  2  0  0  0  0  0  0
  160.5090  204.6970  151.3530 C   0  0  0  0  0  2  0  0  0  0  0  0
  161.4380  203.7460  150.6160 C   0  0  0  0  0  2  0  0  0  0  0  0
  160.7870  203.2160  149.5020 O   0  0  0  0  0  0  0  0  0  0  0  0
  159.0930  201.0340  149.7540 O   0  0  0  0  0  1  0  0  0  0  0  0
  161.3370  201.2070  151.1040 O   0  0  0  0  0  1  0  0  0  0  0  0
  161.5550  200.7520  148.5350 O   0  0  0  0  0  0  0  0  0  0  0  0
  160.7060  201.5480  149.7690 P   0  0  0  0  0  0  0  0  0  0  0  0
  1  8  1  0  0  0  0
  3  1  2  0  0  0  0
  3  7  1  0  0  0  0
  5 30  1  0  0  0  0
  5  2  2  0  0  0  0
  6  2  1  0  0  0  0
  7  5  1  0  0  0  0
  8  4  1  6  0  0  0
  8  6  1  0  0  0  0
  9  3  1  0  0  0  0
 10  9  1  0  0  0  0
 11 10  1  0  0  0  0
 12 11  1  0  0  0  0
 13 28  1  1  0  0  0
 13 12  1  0  0  0  0
 14 13  1  6  0  0  0
 14 16  1  0  0  0  0
 15 17  1  6  0  0  0
 15 14  1  0  0  0  0
 16 20  1  1  0  0  0
 18 22  1  1  0  0  0
 18 15  1  0  0  0  0
 18 19  1  0  0  0  0
 19 24  1  6  0  0  0
 19 16  1  0  0  0  0
 21 22  1  0  0  0  0
 21 17  1  0  0  0  0
 24 25  1  0  0  0  0
 25 23  2  0  0  0  0
 26 27  3  0  0  0  0
 27 25  1  0  0  0  0
 29 28  1  0  0  0  0
 30 31  1  0  0  0  0
 31 32  1  0  0  0  0
 32 33  1  6  0  0  0
 32 35  1  0  0  0  0
 34 33  1  0  0  0  0
 35 36  1  0  0  0  0
 36 37  1  0  0  0  0
 38 37  1  0  0  0  0
 39 38  1  0  0  0  0
 40 44  1  0  0  0  0
 40 39  1  0  0  0  0
 41 44  1  0  0  0  0
 43 44  2  0  0  0  0
 44 42  1  0  0  0  0
M  END
>  <MODEL>
7

>  <REMARK>
 VINA RESULT:      -4.7      2.843      4.220
  Name = 
  20 active torsions:
  status: ('A' for Active; 'I' for Inactive)
    1  A    between atoms: C_1  and  C_20
    2  A    between atoms: C_1  and  N_21
    3  A    between atoms: C_3  and  O_19
    4  A    between atoms: C_3  and  C_40
    5  A    between atoms: N_4  and  O_5
    6  A    between atoms: N_4  and  C_13
    7  A    between atoms: O_5  and  C_11
    8  A    between atoms: O_7  and  C_26
    9  A    between atoms: O_7  and  C_31
   10  A    between atoms: C_9  and  C_33
   11  A    between atoms: C_13  and  C_38
   12  A    between atoms: C_14  and  C_33
   13  A    between atoms: O_19  and  P_37
   14  A    between atoms: N_21  and  C_31
   15  A    between atoms: C_22  and  C_31
   16  A    between atoms: N_25  and  C_26
   17  A    between atoms: N_25  and  C_40
   18  A    between atoms: C_27  and  N_30
   19  A    between atoms: C_32  and  C_34
   20  A    between atoms: C_33  and  C_38
                            x       y       z     vdW  Elec       q    Type
                         _______ _______ _______ _____ _____    ______ ____

>  <TORSDO>
F 20

$$$$
=
 OpenBabel11072413453D

 44 46  0  0  1  0  0  0  0  0999 V2000
  160.4680  204.0070  144.5130 C   0  0  0  0  0  3  0  0  0  0  0  0
  161.2800  204.6740  147.3170 N   0  0  0  0  0  0  0  0  0  0  0  0
  161.3170  205.0340  144.3170 C   0  0  0  0  0  0  0  0  0  0  0  0
  160.7670  201.7090  145.2300 N   0  0  0  0  0  1  0  0  0  0  0  0
  161.7900  205.6490  146.6380 C   0  0  0  0  0  0  0  0  0  0  0  0
  161.2420  203.3940  146.7980 O   0  0  0  0  0  0  0  0  0  0  0  0
  162.3890  205.3840  145.2990 C   0  0  0  0  0  2  0  0  0  0  0  0
  160.4210  203.0480  145.6800 C   0  0  1  0  0  3  0  0  0  0  0  0
  161.2090  205.8260  143.1690 O   0  0  0  0  0  0  0  0  0  0  0  0
  162.3250  206.2090  142.4500 N   0  0  0  0  0  2  0  0  0  0  0  0
  161.9170  206.3250  141.0620 C   0  0  0  0  0  2  0  0  0  0  0  0
  161.7950  207.7900  140.6700 C   0  0  0  0  0  2  0  0  0  0  0  0
  162.3480  208.0350  139.2660 C   0  0  2  0  0  3  0  0  0  0  0  0
  162.1690  209.5200  138.8880 C   0  0  1  0  0  3  0  0  0  0  0  0
  160.8300  209.8810  138.4280 N   0  0  1  0  0  0  0  0  0  0  0  0
  162.4780  210.5050  140.0380 C   0  0  2  0  0  3  0  0  0  0  0  0
  159.8970  208.8730  137.9660 C   0  0  0  0  0  2  0  0  0  0  0  0
  160.1970  210.3140  139.6340 C   0  0  1  0  0  3  0  0  0  0  0  0
  161.1580  211.2490  140.3020 C   0  0  1  0  0  3  0  0  0  0  0  0
  163.4490  211.4170  139.6270 O   0  0  0  0  0  1  0  0  0  0  0  0
  158.5100  209.4710  138.2880 C   0  0  0  0  0  2  0  0  0  0  0  0
  158.7760  210.6220  139.2700 C   0  0  0  0  0  2  0  0  0  0  0  0
  159.7030  213.3070  141.6320 O   0  0  0  0  0  0  0  0  0  0  0  0
  160.8920  211.2900  141.7300 N   0  0  0  0  0  2  0  0  0  0  0  0
  160.0970  212.3270  142.3200 C   0  0  0  0  0  0  0  0  0  0  0  0
  159.4660  212.1980  144.8800 C   0  0  0  0  0  3  0  0  0  0  0  0
  159.7510  212.2560  143.7140 C   0  0  0  0  0  0  0  0  0  0  0  0
  161.7060  207.0840  138.2580 C   0  0  0  0  0  2  0  0  0  0  0  0
  162.6800  206.7570  137.1430 C   0  0  0  0  0  1  0  0  0  0  0  0
  161.8270  207.0220  147.2110 C   0  0  0  0  0  2  0  0  0  0  0  0
  162.4130  206.9880  148.5430 N   0  0  0  0  0  2  0  0  0  0  0  0
  161.4120  207.3690  149.5400 C   0  0  1  0  0  3  0  0  0  0  0  0
  161.4040  206.3920  150.7150 C   0  0  0  0  0  2  0  0  0  0  0  0
  160.4640  205.3830  150.4870 O   0  0  0  0  0  1  0  0  0  0  0  0
  161.6240  208.6820  149.9790 O   0  0  0  0  0  0  0  0  0  0  0  0
  161.2460  208.6820  151.3250 C   0  0  0  0  0  2  0  0  0  0  0  0
  161.6950  209.9140  151.9570 N   0  0  0  0  0  2  0  0  0  0  0  0
  161.4940  209.7620  153.3860 C   0  0  0  0  0  2  0  0  0  0  0  0
  160.9510  211.0480  153.9850 C   0  0  0  0  0  2  0  0  0  0  0  0
  159.8120  210.7730  154.7430 O   0  0  0  0  0  0  0  0  0  0  0  0
  158.6910  211.7730  152.4100 O   0  0  0  0  0  0  0  0  0  0  0  0
  158.7180  213.1610  154.6380 O   0  0  0  0  0  1  0  0  0  0  0  0
  157.0840  211.1170  154.5580 O   0  0  0  0  0  1  0  0  0  0  0  0
  158.5890  211.7500  154.1000 P   0  0  0  0  0  0  0  0  0  0  0  0
  1  8  1  0  0  0  0
  3  1  2  0  0  0  0
  3  7  1  0  0  0  0
  5 30  1  0  0  0  0
  5  2  2  0  0  0  0
  6  2  1  0  0  0  0
  7  5  1  0  0  0  0
  8  4  1  6  0  0  0
  8  6  1  0  0  0  0
  9  3  1  0  0  0  0
 10  9  1  0  0  0  0
 11 10  1  0  0  0  0
 12 11  1  0  0  0  0
 13 28  1  6  0  0  0
 13 12  1  0  0  0  0
 14 13  1  1  0  0  0
 14 16  1  0  0  0  0
 15 17  1  1  0  0  0
 15 14  1  0  0  0  0
 15 18  1  0  0  0  0
 16 20  1  6  0  0  0
 16 19  1  0  0  0  0
 17 21  1  0  0  0  0
 18 22  1  6  0  0  0
 18 19  1  0  0  0  0
 19 24  1  1  0  0  0
 21 22  1  0  0  0  0
 23 25  2  0  0  0  0
 24 25  1  0  0  0  0
 25 27  1  0  0  0  0
 27 26  3  0  0  0  0
 29 28  1  0  0  0  0
 30 31  1  0  0  0  0
 31 32  1  0  0  0  0
 32 35  1  0  0  0  0
 32 33  1  1  0  0  0
 34 33  1  0  0  0  0
 35 36  1  0  0  0  0
 36 37  1  0  0  0  0
 37 38  1  0  0  0  0
 38 39  1  0  0  0  0
 39 40  1  0  0  0  0
 41 44  2  0  0  0  0
 44 43  1  0  0  0  0
 44 42  1  0  0  0  0
 44 40  1  0  0  0  0
M  END
>  <MODEL>
8

>  <REMARK>
 VINA RESULT:      -4.6      1.689      2.178
  Name = 
  20 active torsions:
  status: ('A' for Active; 'I' for Inactive)
    1  A    between atoms: C_1  and  C_20
    2  A    between atoms: C_1  and  N_21
    3  A    between atoms: C_3  and  O_19
    4  A    between atoms: C_3  and  C_40
    5  A    between atoms: N_4  and  O_5
    6  A    between atoms: N_4  and  C_13
    7  A    between atoms: O_5  and  C_11
    8  A    between atoms: O_7  and  C_26
    9  A    between atoms: O_7  and  C_31
   10  A    between atoms: C_9  and  C_33
   11  A    between atoms: C_13  and  C_38
   12  A    between atoms: C_14  and  C_33
   13  A    between atoms: O_19  and  P_37
   14  A    between atoms: N_21  and  C_31
   15  A    between atoms: C_22  and  C_31
   16  A    between atoms: N_25  and  C_26
   17  A    between atoms: N_25  and  C_40
   18  A    between atoms: C_27  and  N_30
   19  A    between atoms: C_32  and  C_34
   20  A    between atoms: C_33  and  C_38
                            x       y       z     vdW  Elec       q    Type
                         _______ _______ _______ _____ _____    ______ ____

>  <TORSDO>
F 20

$$$$
=
 OpenBabel11072413453D

 44 46  0  0  1  0  0  0  0  0999 V2000
  161.9220  204.6480  146.9820 C   0  0  0  0  0  3  0  0  0  0  0  0
  161.2850  204.3880  144.0680 N   0  0  0  0  0  0  0  0  0  0  0  0
  161.4820  205.8860  146.6850 C   0  0  0  0  0  0  0  0  0  0  0  0
  160.8300  202.4900  147.1670 N   0  0  0  0  0  1  0  0  0  0  0  0
  161.1640  205.6590  144.2690 C   0  0  0  0  0  0  0  0  0  0  0  0
  160.9030  203.4790  145.0360 O   0  0  0  0  0  0  0  0  0  0  0  0
  160.5600  206.1520  145.5390 C   0  0  0  0  0  2  0  0  0  0  0  0
  161.5960  203.3500  146.2790 C   0  0  1  0  0  3  0  0  0  0  0  0
  161.8960  206.9810  147.4500 O   0  0  0  0  0  0  0  0  0  0  0  0
  162.1420  206.8630  148.8040 N   0  0  0  0  0  2  0  0  0  0  0  0
  161.6740  208.0860  149.4300 C   0  0  0  0  0  2  0  0  0  0  0  0
  162.2630  208.2230  150.8250 C   0  0  0  0  0  2  0  0  0  0  0  0
  161.1750  208.5050  151.8610 C   0  0  2  0  0  3  0  0  0  0  0  0
  161.6120  209.6710  152.7710 C   0  0  1  0  0  3  0  0  0  0  0  0
  161.3730  211.0040  152.2210 N   0  0  1  0  0  0  0  0  0  0  0  0
  160.9300  209.6800  154.1580 C   0  0  2  0  0  3  0  0  0  0  0  0
  161.1510  211.2030  150.8030 C   0  0  0  0  0  2  0  0  0  0  0  0
  160.0870  211.3290  152.7530 C   0  0  1  0  0  3  0  0  0  0  0  0
  160.1390  210.9980  154.2130 C   0  0  1  0  0  3  0  0  0  0  0  0
  161.9000  209.6800  155.1590 O   0  0  0  0  0  1  0  0  0  0  0  0
  160.2560  212.4600  150.7390 C   0  0  0  0  0  2  0  0  0  0  0  0
  159.7170  212.6570  152.1630 C   0  0  0  0  0  2  0  0  0  0  0  0
  158.7180  212.6930  156.0100 O   0  0  0  0  0  0  0  0  0  0  0  0
  158.7960  210.7460  154.7080 N   0  0  0  0  0  2  0  0  0  0  0  0
  158.1190  211.6780  155.5620 C   0  0  0  0  0  0  0  0  0  0  0  0
  155.5980  211.2620  156.2240 C   0  0  0  0  0  3  0  0  0  0  0  0
  156.7450  211.4500  155.9200 C   0  0  0  0  0  0  0  0  0  0  0  0
  160.8320  207.2390  152.6430 C   0  0  0  0  0  2  0  0  0  0  0  0
  161.6960  206.0810  152.1820 C   0  0  0  0  0  1  0  0  0  0  0  0
  161.5780  206.6260  143.2160 C   0  0  0  0  0  2  0  0  0  0  0  0
  161.6330  205.9590  141.9240 N   0  0  0  0  0  2  0  0  0  0  0  0
  162.3360  206.8020  140.9550 C   0  0  1  0  0  3  0  0  0  0  0  0
  162.9780  205.9600  139.8540 C   0  0  0  0  0  2  0  0  0  0  0  0
  162.3150  206.1760  138.6430 O   0  0  0  0  0  1  0  0  0  0  0  0
  161.4710  207.7630  140.4140 O   0  0  0  0  0  0  0  0  0  0  0  0
  162.2910  208.8420  140.0770 C   0  0  0  0  0  2  0  0  0  0  0  0
  161.4950  210.0600  140.0230 N   0  0  0  0  0  2  0  0  0  0  0  0
  162.4130  211.1790  140.1260 C   0  0  0  0  0  2  0  0  0  0  0  0
  161.7300  212.3680  140.7800 C   0  0  0  0  0  2  0  0  0  0  0  0
  162.3430  212.6550  141.9990 O   0  0  0  0  0  0  0  0  0  0  0  0
  160.1710  214.2130  142.7420 O   0  0  0  0  0  0  0  0  0  0  0  0
  161.6450  212.9580  144.5150 O   0  0  0  0  0  1  0  0  0  0  0  0
  160.0820  211.4680  143.0350 O   0  0  0  0  0  1  0  0  0  0  0  0
  161.0830  212.8350  143.1130 P   0  0  0  0  0  0  0  0  0  0  0  0
  2  5  2  0  0  0  0
  2  6  1  0  0  0  0
  3  1  2  0  0  0  0
  3  9  1  0  0  0  0
  5  7  1  0  0  0  0
  6  8  1  0  0  0  0
  7  3  1  0  0  0  0
  8  1  1  0  0  0  0
  8  4  1  1  0  0  0
  9 10  1  0  0  0  0
 10 11  1  0  0  0  0
 11 12  1  0  0  0  0
 13 12  1  6  0  0  0
 13 28  1  0  0  0  0
 14 13  1  6  0  0  0
 14 16  1  0  0  0  0
 15 17  1  6  0  0  0
 15 18  1  0  0  0  0
 15 14  1  0  0  0  0
 16 19  1  0  0  0  0
 16 20  1  1  0  0  0
 18 22  1  1  0  0  0
 18 19  1  0  0  0  0
 19 24  1  6  0  0  0
 21 17  1  0  0  0  0
 21 22  1  0  0  0  0
 24 25  1  0  0  0  0
 25 27  1  0  0  0  0
 25 23  2  0  0  0  0
 27 26  3  0  0  0  0
 29 28  1  0  0  0  0
 30  5  1  0  0  0  0
 31 30  1  0  0  0  0
 32 33  1  6  0  0  0
 32 31  1  0  0  0  0
 34 33  1  0  0  0  0
 35 32  1  0  0  0  0
 36 35  1  0  0  0  0
 37 36  1  0  0  0  0
 37 38  1  0  0  0  0
 38 39  1  0  0  0  0
 39 40  1  0  0  0  0
 40 44  1  0  0  0  0
 41 44  2  0  0  0  0
 43 44  1  0  0  0  0
 44 42  1  0  0  0  0
M  END
>  <MODEL>
9

>  <REMARK>
 VINA RESULT:      -4.6      3.632     11.205
  Name = 
  20 active torsions:
  status: ('A' for Active; 'I' for Inactive)
    1  A    between atoms: C_1  and  C_20
    2  A    between atoms: C_1  and  N_21
    3  A    between atoms: C_3  and  O_19
    4  A    between atoms: C_3  and  C_40
    5  A    between atoms: N_4  and  O_5
    6  A    between atoms: N_4  and  C_13
    7  A    between atoms: O_5  and  C_11
    8  A    between atoms: O_7  and  C_26
    9  A    between atoms: O_7  and  C_31
   10  A    between atoms: C_9  and  C_33
   11  A    between atoms: C_13  and  C_38
   12  A    between atoms: C_14  and  C_33
   13  A    between atoms: O_19  and  P_37
   14  A    between atoms: N_21  and  C_31
   15  A    between atoms: C_22  and  C_31
   16  A    between atoms: N_25  and  C_26
   17  A    between atoms: N_25  and  C_40
   18  A    between atoms: C_27  and  N_30
   19  A    between atoms: C_32  and  C_34
   20  A    between atoms: C_33  and  C_38
                            x       y       z     vdW  Elec       q    Type
                         _______ _______ _______ _____ _____    ______ ____

>  <TORSDO>
F 20

$$$$
