=
 OpenBabel11072412553D

 41 45  0  0  1  0  0  0  0  0999 V2000
  161.7200  210.6040  149.4080 C   0  0  1  0  0  3  0  0  0  0  0  0
  162.0400  209.5490  151.4290 C   0  0  1  0  0  3  0  0  0  0  0  0
  160.6850  209.3140  153.5420 C   0  0  0  0  0  2  0  0  0  0  0  0
  161.7540  207.0080  151.6670 C   0  0  2  0  0  3  0  0  0  0  0  0
  160.1650  208.0690  153.1610 O   0  0  0  0  0  0  0  0  0  0  0  0
  161.8060  209.3630  148.5150 C   0  0  0  0  0  2  0  0  0  0  0  0
  161.2740  207.2140  153.1080 C   0  0  0  0  0  2  0  0  0  0  0  0
  162.0330  208.0870  149.3340 C   0  0  1  0  0  3  0  0  0  0  0  0
  163.2170  206.5920  151.6900 C   0  0  0  0  0  1  0  0  0  0  0  0
  161.5220  208.2450  150.7750 C   0  0  2  0  0  3  0  0  0  0  0  0
  162.5830  210.4870  150.5160 O   0  0  0  0  0  0  0  0  0  0  0  0
  160.9670  210.1830  152.3160 C   0  0  0  0  0  2  0  0  0  0  0  0
  162.2430  205.9710  147.9790 N   0  0  0  0  0  2  0  0  0  0  0  0
  161.4010  206.9230  148.6420 C   0  0  0  0  0  0  0  0  0  0  0  0
  160.1470  206.7820  148.6620 O   0  0  0  0  0  0  0  0  0  0  0  0
  161.4430  203.6310  147.7960 C   0  0  0  0  0  3  0  0  0  0  0  0
  161.3220  203.9060  145.0190 C   0  0  0  0  0  3  0  0  0  0  0  0
  161.0290  202.5470  147.0090 C   0  0  0  0  0  0  0  0  0  0  0  0
  161.8150  204.8460  147.2010 C   0  0  0  0  0  0  0  0  0  0  0  0
  161.7530  204.9740  145.8100 C   0  0  0  0  0  3  0  0  0  0  0  0
  160.9560  202.6970  145.6170 C   0  0  0  0  0  3  0  0  0  0  0  0
  160.5850  201.2690  147.6540 C   0  0  0  0  0  3  0  0  0  0  0  0
  159.9680  201.5430  149.0160 C   0  0  0  0  0  2  0  0  0  0  0  0
  161.3810  201.0140  148.9240 C   0  0  0  0  0  2  0  0  0  0  0  0
  161.9960  211.8770  148.6090 C   0  0  1  0  0  3  0  0  0  0  0  0
  163.2780  211.7590  147.7980 C   0  0  0  0  0  1  0  0  0  0  0  0
  160.7580  212.4310  147.8540 C   0  0  1  0  0  3  0  0  0  0  0  0
  160.0820  213.1730  150.9000 O   0  0  0  0  0  0  0  0  0  0  0  0
  158.7310  213.5130  150.7660 C   0  0  1  0  0  3  0  0  0  0  0  0
  161.3860  214.4530  149.3230 C   0  0  0  0  0  2  0  0  0  0  0  0
  160.7680  214.3780  150.7210 C   0  0  0  0  0  2  0  0  0  0  0  0
  159.0060  214.2600  148.3640 C   0  0  0  0  0  2  0  0  0  0  0  0
  160.4970  213.9170  148.1850 C   0  0  2  0  0  3  0  0  0  0  0  0
  158.2810  213.3130  149.3230 C   0  0  0  0  0  2  0  0  0  0  0  0
  157.8800  212.6370  151.6740 C   0  0  0  0  0  2  0  0  0  0  0  0
  158.4220  212.6260  153.0960 C   0  0  0  0  0  2  0  0  0  0  0  0
  157.4680  211.9100  154.0380 C   0  0  0  0  0  2  0  0  0  0  0  0
  156.2800  212.6320  154.1510 O   0  0  0  0  0  1  0  0  0  0  0  0
  160.6740  212.1500  146.3360 C   0  0  0  0  0  3  0  0  0  0  0  0
  159.2510  212.0230  145.8140 C   0  0  0  0  0  1  0  0  0  0  0  0
  161.4720  213.1300  145.4990 C   0  0  0  0  0  1  0  0  0  0  0  0
  1 25  1  6  0  0  0
  1 11  1  0  0  0  0
  2 12  1  6  0  0  0
  4  9  1  1  0  0  0
  4  7  1  0  0  0  0
  5  3  1  0  0  0  0
  6  8  1  0  0  0  0
  6  1  1  0  0  0  0
  7  5  1  0  0  0  0
  8 14  1  6  0  0  0
  8 10  1  0  0  0  0
 10  2  1  0  0  0  0
 10  4  1  0  0  0  0
 11  2  1  0  0  0  0
 12  3  1  0  0  0  0
 13 14  1  0  0  0  0
 14 15  2  0  0  0  0
 17 21  2  0  0  0  0
 17 20  1  0  0  0  0
 18 22  1  0  0  0  0
 18 16  2  0  0  0  0
 19 16  1  0  0  0  0
 19 13  1  0  0  0  0
 20 19  2  0  0  0  0
 21 18  1  0  0  0  0
 22 24  1  0  0  0  0
 22 23  1  0  0  0  0
 24 23  1  0  0  0  0
 26 25  1  0  0  0  0
 27 33  1  0  0  0  0
 27 25  1  0  0  0  0
 29 28  1  0  0  0  0
 29 35  1  0  0  0  0
 30 31  1  0  0  0  0
 31 28  1  0  0  0  0
 32 34  1  0  0  0  0
 33 32  1  0  0  0  0
 33 30  1  0  0  0  0
 34 29  1  0  0  0  0
 35 36  1  0  0  0  0
 36 37  1  0  0  0  0
 37 38  1  0  0  0  0
 39 27  1  0  0  0  0
 40 39  1  0  0  0  0
 41 39  1  0  0  0  0
M  END
>  <MODEL>
1

>  <REMARK>
 VINA RESULT:      -7.1      0.000      0.000
  Name = 
  10 active torsions:
  status: ('A' for Active; 'I' for Inactive)
    1  A    between atoms: C_1  and  C_9
    2  A    between atoms: N_3  and  C_29
    3  A    between atoms: C_4  and  C_40
    4  A    between atoms: C_5  and  C_27
    5  A    between atoms: C_9  and  C_40
    6  A    between atoms: C_10  and  C_36
    7  A    between atoms: C_14  and  C_15
    8  A    between atoms: C_14  and  C_36
    9  A    between atoms: C_19  and  C_22
   10  A    between atoms: C_30  and  C_40
                            x       y       z     vdW  Elec       q    Type
                         _______ _______ _______ _____ _____    ______ ____

>  <TORSDO>
F 10

$$$$
=
 OpenBabel11072412553D

 41 45  0  0  1  0  0  0  0  0999 V2000
  160.7450  208.2760  152.9990 C   0  0  1  0  0  3  0  0  0  0  0  0
  161.4750  206.9900  151.2340 C   0  0  1  0  0  3  0  0  0  0  0  0
  160.3690  205.3980  149.6220 C   0  0  0  0  0  2  0  0  0  0  0  0
  161.9700  208.0330  148.9400 C   0  0  2  0  0  3  0  0  0  0  0  0
  160.2220  206.3810  148.6340 O   0  0  0  0  0  0  0  0  0  0  0  0
  161.1470  209.6420  152.4360 C   0  0  0  0  0  2  0  0  0  0  0  0
  161.5290  206.7270  148.2700 C   0  0  0  0  0  2  0  0  0  0  0  0
  161.7870  209.5200  151.0480 C   0  0  1  0  0  3  0  0  0  0  0  0
  163.4890  208.0680  149.0030 C   0  0  0  0  0  1  0  0  0  0  0  0
  161.3320  208.2400  150.3300 C   0  0  2  0  0  3  0  0  0  0  0  0
  161.6630  207.2820  152.6080 O   0  0  0  0  0  0  0  0  0  0  0  0
  160.3130  206.0200  151.0180 C   0  0  0  0  0  2  0  0  0  0  0  0
  161.9260  210.8000  148.8810 N   0  0  0  0  0  2  0  0  0  0  0  0
  161.4920  210.7460  150.2460 C   0  0  0  0  0  0  0  0  0  0  0  0
  160.8560  211.7030  150.7660 O   0  0  0  0  0  0  0  0  0  0  0  0
  160.7400  212.0280  147.0830 C   0  0  0  0  0  3  0  0  0  0  0  0
  162.6780  214.0370  147.1980 C   0  0  0  0  0  3  0  0  0  0  0  0
  160.6500  213.1310  146.2210 C   0  0  0  0  0  0  0  0  0  0  0  0
  161.8060  211.9150  147.9880 C   0  0  0  0  0  0  0  0  0  0  0  0
  162.7720  212.9250  148.0390 C   0  0  0  0  0  3  0  0  0  0  0  0
  161.6170  214.1430  146.2960 C   0  0  0  0  0  3  0  0  0  0  0  0
  159.4820  213.2700  145.2910 C   0  0  0  0  0  3  0  0  0  0  0  0
  158.3550  214.0400  145.9600 C   0  0  0  0  0  2  0  0  0  0  0  0
  158.2730  212.5360  145.8480 C   0  0  0  0  0  2  0  0  0  0  0  0
  160.5860  208.3320  154.5180 C   0  0  1  0  0  3  0  0  0  0  0  0
  161.0720  207.0500  155.1770 C   0  0  0  0  0  1  0  0  0  0  0  0
  161.0790  209.6580  155.1570 C   0  0  1  0  0  3  0  0  0  0  0  0
  158.5470  211.1650  153.8900 O   0  0  0  0  0  0  0  0  0  0  0  0
  158.8530  212.4830  154.2490 C   0  0  1  0  0  3  0  0  0  0  0  0
  158.6020  209.7700  155.8590 C   0  0  0  0  0  2  0  0  0  0  0  0
  157.7750  210.6810  154.9500 C   0  0  0  0  0  2  0  0  0  0  0  0
  160.1490  211.7770  156.3050 C   0  0  0  0  0  2  0  0  0  0  0  0
  160.0410  210.2510  156.1340 C   0  0  2  0  0  3  0  0  0  0  0  0
  160.1940  212.5310  154.9740 C   0  0  0  0  0  2  0  0  0  0  0  0
  158.9330  213.3570  153.0060 C   0  0  0  0  0  2  0  0  0  0  0  0
  157.6910  214.2250  152.8630 C   0  0  0  0  0  2  0  0  0  0  0  0
  157.0470  214.0340  151.4990 C   0  0  0  0  0  2  0  0  0  0  0  0
  157.8520  213.2200  150.7030 O   0  0  0  0  0  1  0  0  0  0  0  0
  162.5070  209.6660  155.7510 C   0  0  0  0  0  3  0  0  0  0  0  0
  163.3520  210.8480  155.3010 C   0  0  0  0  0  1  0  0  0  0  0  0
  162.5290  209.5300  157.2600 C   0  0  0  0  0  1  0  0  0  0  0  0
  1 25  1  1  0  0  0
  2 12  1  1  0  0  0
  2 11  1  0  0  0  0
  3 12  1  0  0  0  0
  4  9  1  1  0  0  0
  4 10  1  0  0  0  0
  5  3  1  0  0  0  0
  6  1  1  0  0  0  0
  7  5  1  0  0  0  0
  7  4  1  0  0  0  0
  8 14  1  6  0  0  0
  8  6  1  0  0  0  0
 10  8  1  0  0  0  0
 10  2  1  0  0  0  0
 11  1  1  0  0  0  0
 13 14  1  0  0  0  0
 14 15  2  0  0  0  0
 16 19  1  0  0  0  0
 17 20  1  0  0  0  0
 18 21  1  0  0  0  0
 18 16  2  0  0  0  0
 19 20  2  0  0  0  0
 19 13  1  0  0  0  0
 21 17  2  0  0  0  0
 22 24  1  0  0  0  0
 22 23  1  0  0  0  0
 22 18  1  0  0  0  0
 24 23  1  0  0  0  0
 25 27  1  0  0  0  0
 25 26  1  0  0  0  0
 27 39  1  0  0  0  0
 27 33  1  0  0  0  0
 28 29  1  0  0  0  0
 28 31  1  0  0  0  0
 29 34  1  0  0  0  0
 30 33  1  0  0  0  0
 31 30  1  0  0  0  0
 33 32  1  0  0  0  0
 34 32  1  0  0  0  0
 35 29  1  0  0  0  0
 36 35  1  0  0  0  0
 37 36  1  0  0  0  0
 38 37  1  0  0  0  0
 39 41  1  0  0  0  0
 40 39  1  0  0  0  0
M  END
>  <MODEL>
2

>  <REMARK>
 VINA RESULT:      -4.3      2.405      7.280
  Name = 
  10 active torsions:
  status: ('A' for Active; 'I' for Inactive)
    1  A    between atoms: C_1  and  C_9
    2  A    between atoms: N_3  and  C_29
    3  A    between atoms: C_4  and  C_40
    4  A    between atoms: C_5  and  C_27
    5  A    between atoms: C_9  and  C_40
    6  A    between atoms: C_10  and  C_36
    7  A    between atoms: C_14  and  C_15
    8  A    between atoms: C_14  and  C_36
    9  A    between atoms: C_19  and  C_22
   10  A    between atoms: C_30  and  C_40
                            x       y       z     vdW  Elec       q    Type
                         _______ _______ _______ _____ _____    ______ ____

>  <TORSDO>
F 10

$$$$
