=
 OpenBabel11072412003D

 45 49  0  0  1  0  0  0  0  0999 V2000
  160.0460  202.1050  145.0630 C   0  0  0  0  0  3  0  0  0  0  0  0
  161.4140  203.6600  145.8850 C   0  0  0  0  0  0  0  0  0  0  0  0
  160.7640  204.1330  144.7570 C   0  0  0  0  0  0  0  0  0  0  0  0
  159.9370  203.1850  144.2590 N   0  0  0  0  0  0  0  0  0  0  0  0
  160.9470  202.3750  146.0740 C   0  0  1  0  0  3  0  0  0  0  0  0
  161.4880  205.5970  142.8410 N   0  0  0  0  0  2  0  0  0  0  0  0
  160.4430  206.5050  144.7540 N   0  0  0  0  0  2  0  0  0  0  0  0
  160.9130  205.4650  144.1420 C   0  0  0  0  0  0  0  0  0  0  0  0
  162.0600  206.9510  140.9240 C   0  0  0  0  0  0  0  0  0  0  0  0
  161.6610  206.8600  142.1970 C   0  0  0  0  0  3  0  0  0  0  0  0
  162.3350  205.7230  140.1200 C   0  0  0  0  0  2  0  0  0  0  0  0
  162.4940  206.0780  138.7240 N   0  0  0  0  0  1  0  0  0  0  0  0
  162.2330  208.1950  140.3150 O   0  0  0  0  0  0  0  0  0  0  0  0
  161.2120  208.8100  139.6220 N   0  0  0  0  0  2  0  0  0  0  0  0
  161.8020  209.4760  138.5360 N   0  0  0  0  0  2  0  0  0  0  0  0
  163.6480  211.4970  139.1360 C   0  0  0  0  0  2  0  0  0  0  0  0
  162.3850  211.8610  138.9000 C   0  0  0  0  0  0  0  0  0  0  0  0
  161.3090  210.8480  138.5610 C   0  0  2  0  0  3  0  0  0  0  0  0
  162.5520  214.1870  138.0320 C   0  0  0  0  0  1  0  0  0  0  0  0
  159.8310  212.3750  140.0320 C   0  0  0  0  0  2  0  0  0  0  0  0
  160.4570  213.4500  139.1420 C   0  0  0  0  0  2  0  0  0  0  0  0
  161.9790  213.2980  139.1210 C   0  0  1  0  0  3  0  0  0  0  0  0
  160.1060  210.9530  139.5180 C   0  0  0  0  0  2  0  0  0  0  0  0
  162.3650  204.3970  146.7760 C   0  0  0  0  0  2  0  0  0  0  0  0
  163.7240  204.5130  146.1070 C   0  0  0  0  0  1  0  0  0  0  0  0
  161.3190  201.4360  147.1720 C   0  0  0  0  0  2  0  0  0  0  0  0
  160.2660  201.4680  148.2680 C   0  0  0  0  0  2  0  0  0  0  0  0
  160.9110  201.6670  149.6320 C   0  0  0  0  0  2  0  0  0  0  0  0
  160.3290  204.0280  149.3320 N   0  0  0  0  0  0  0  0  0  0  0  0
  161.6920  203.7120  151.0910 C   0  0  0  0  0  0  0  0  0  0  0  0
  160.5880  205.2910  149.8850 N   0  0  0  0  0  2  0  0  0  0  0  0
  161.4860  205.1840  151.0340 C   0  0  1  0  0  3  0  0  0  0  0  0
  162.4150  203.0930  151.9170 O   0  0  0  0  0  0  0  0  0  0  0  0
  160.9390  203.1140  150.0050 C   0  0  0  0  0  0  0  0  0  0  0  0
  160.7730  205.6730  152.2910 C   0  0  1  0  0  3  0  0  0  0  0  0
  161.7940  206.1350  153.3200 C   0  0  0  0  0  2  0  0  0  0  0  0
  160.9320  207.1690  152.6140 C   0  0  1  0  0  3  0  0  0  0  0  0
  161.7260  208.0520  151.6210 C   0  0  1  0  0  3  0  0  0  0  0  0
  162.0760  208.6400  149.5080 C   0  0  0  0  0  1  0  0  0  0  0  0
  161.0650  208.2760  150.4040 O   0  0  0  0  0  0  0  0  0  0  0  0
  162.0790  209.3200  152.2430 N   0  0  0  0  0  2  0  0  0  0  0  0
  160.8430  211.1150  153.1550 C   0  0  0  0  0  2  0  0  0  0  0  0
  160.9830  209.6910  153.1200 C   0  0  2  0  0  3  0  0  0  0  0  0
  161.5550  210.4370  154.3250 C   0  0  0  0  0  0  0  0  0  0  0  0
  162.1470  210.4690  155.3890 O   0  0  0  0  0  0  0  0  0  0  0  0
  1  5  1  0  0  0  0
  2  5  1  0  0  0  0
  2 24  1  0  0  0  0
  3  2  2  0  0  0  0
  4  3  1  0  0  0  0
  4  1  2  0  0  0  0
  5 26  1  1  0  0  0
  6  8  1  0  0  0  0
  8  7  2  0  0  0  0
  8  3  1  0  0  0  0
  9 10  2  0  0  0  0
 10  6  1  0  0  0  0
 11  9  1  0  0  0  0
 12 11  1  0  0  0  0
 13  9  1  0  0  0  0
 14 13  1  0  0  0  0
 15 14  1  0  0  0  0
 17 22  1  0  0  0  0
 17 16  2  0  0  0  0
 18 15  1  1  0  0  0
 18 17  1  0  0  0  0
 18 23  1  0  0  0  0
 21 20  1  0  0  0  0
 22 19  1  6  0  0  0
 22 21  1  0  0  0  0
 23 20  1  0  0  0  0
 25 24  1  0  0  0  0
 26 27  1  0  0  0  0
 27 28  1  0  0  0  0
 28 34  1  0  0  0  0
 29 31  1  0  0  0  0
 29 34  2  0  0  0  0
 30 33  2  0  0  0  0
 32 31  1  6  0  0  0
 32 30  1  0  0  0  0
 32 35  1  0  0  0  0
 34 30  1  0  0  0  0
 35 37  1  0  0  0  0
 35 36  1  1  0  0  0
 37 38  1  6  0  0  0
 37 36  1  0  0  0  0
 38 40  1  6  0  0  0
 38 41  1  0  0  0  0
 39 40  1  0  0  0  0
 42 44  1  0  0  0  0
 43 41  1  6  0  0  0
 43 42  1  0  0  0  0
 43 44  1  0  0  0  0
 44 45  2  0  0  0  0
M  END
>  <MODEL>
1

>  <REMARK>
 VINA RESULT:      -5.6      0.000      0.000
  Name = 
  17 active torsions:
  status: ('A' for Active; 'I' for Inactive)
    1  A    between atoms: C_2  and  C_34
    2  A    between atoms: C_7  and  C_12
    3  A    between atoms: C_7  and  O_29
    4  A    between atoms: N_8  and  O_29
    5  A    between atoms: N_8  and  N_33
    6  A    between atoms: C_10  and  N_39
    7  A    between atoms: N_11  and  C_19
    8  A    between atoms: C_13  and  O_18
    9  A    between atoms: C_13  and  N_39
   10  A    between atoms: C_13  and  C_45
   11  A    between atoms: C_14  and  C_16
   12  A    between atoms: C_17  and  N_33
   13  A    between atoms: C_22  and  C_25
   14  A    between atoms: C_27  and  C_36
   15  A    between atoms: C_27  and  C_37
   16  A    between atoms: C_36  and  C_44
   17  A    between atoms: C_37  and  C_38
                            x       y       z     vdW  Elec       q    Type
                         _______ _______ _______ _____ _____    ______ ____

>  <TORSDO>
F 17

$$$$
=
 OpenBabel11072412003D

 45 49  0  0  1  0  0  0  0  0999 V2000
  160.0960  202.0910  145.1560 C   0  0  0  0  0  3  0  0  0  0  0  0
  161.4210  203.6800  145.9830 C   0  0  0  0  0  0  0  0  0  0  0  0
  160.7960  204.1220  144.8280 C   0  0  0  0  0  0  0  0  0  0  0  0
  159.9950  203.1530  144.3270 N   0  0  0  0  0  0  0  0  0  0  0  0
  160.9650  202.3930  146.1850 C   0  0  1  0  0  3  0  0  0  0  0  0
  161.4960  205.5490  142.8760 N   0  0  0  0  0  2  0  0  0  0  0  0
  160.4990  206.4960  144.7950 N   0  0  0  0  0  2  0  0  0  0  0  0
  160.9470  205.4430  144.1900 C   0  0  0  0  0  0  0  0  0  0  0  0
  162.0390  206.8680  140.9260 C   0  0  0  0  0  0  0  0  0  0  0  0
  161.6690  206.8000  142.2090 C   0  0  0  0  0  3  0  0  0  0  0  0
  162.2820  205.6250  140.1340 C   0  0  0  0  0  2  0  0  0  0  0  0
  162.6320  205.9730  138.7720 N   0  0  0  0  0  1  0  0  0  0  0  0
  162.2130  208.1010  140.2940 O   0  0  0  0  0  0  0  0  0  0  0  0
  161.2500  208.6280  139.4610 N   0  0  0  0  0  2  0  0  0  0  0  0
  161.6380  209.9470  139.1760 N   0  0  0  0  0  2  0  0  0  0  0  0
  160.8730  211.5140  141.3700 C   0  0  0  0  0  2  0  0  0  0  0  0
  160.0890  211.5370  140.2880 C   0  0  0  0  0  0  0  0  0  0  0  0
  160.4150  210.7300  139.0460 C   0  0  2  0  0  3  0  0  0  0  0  0
  158.9850  213.7650  140.3580 C   0  0  0  0  0  1  0  0  0  0  0  0
  157.8550  210.3750  138.9730 C   0  0  0  0  0  2  0  0  0  0  0  0
  157.8720  211.8920  139.1690 C   0  0  0  0  0  2  0  0  0  0  0  0
  158.7680  212.2630  140.3510 C   0  0  1  0  0  3  0  0  0  0  0  0
  159.2470  209.8110  138.6420 C   0  0  0  0  0  2  0  0  0  0  0  0
  162.3380  204.4470  146.8840 C   0  0  0  0  0  2  0  0  0  0  0  0
  163.6600  204.7080  146.1840 C   0  0  0  0  0  1  0  0  0  0  0  0
  161.3170  201.4810  147.3120 C   0  0  0  0  0  2  0  0  0  0  0  0
  160.3290  201.6540  148.4550 C   0  0  0  0  0  2  0  0  0  0  0  0
  160.9920  201.3600  149.7930 C   0  0  0  0  0  2  0  0  0  0  0  0
  161.5660  202.6140  151.8190 N   0  0  0  0  0  0  0  0  0  0  0  0
  160.7400  203.9460  150.2070 C   0  0  0  0  0  0  0  0  0  0  0  0
  161.5270  203.9160  152.3400 N   0  0  0  0  0  2  0  0  0  0  0  0
  160.9840  204.8540  151.3600 C   0  0  1  0  0  3  0  0  0  0  0  0
  160.2530  204.2720  149.0920 O   0  0  0  0  0  0  0  0  0  0  0  0
  161.1320  202.6070  150.6060 C   0  0  0  0  0  0  0  0  0  0  0  0
  162.0410  205.8950  151.0050 C   0  0  1  0  0  3  0  0  0  0  0  0
  161.3760  207.1350  150.4270 C   0  0  0  0  0  2  0  0  0  0  0  0
  161.9950  207.2040  151.8140 C   0  0  1  0  0  3  0  0  0  0  0  0
  160.9460  207.3260  152.9460 C   0  0  1  0  0  3  0  0  0  0  0  0
  160.3280  207.0820  155.0650 C   0  0  0  0  0  1  0  0  0  0  0  0
  161.4340  206.9800  154.2150 O   0  0  0  0  0  0  0  0  0  0  0  0
  160.3850  208.6690  152.9720 N   0  0  0  0  0  2  0  0  0  0  0  0
  161.6260  210.3730  154.0400 C   0  0  0  0  0  2  0  0  0  0  0  0
  161.4910  209.6020  152.8420 C   0  0  2  0  0  3  0  0  0  0  0  0
  160.9320  211.0240  152.8440 C   0  0  0  0  0  0  0  0  0  0  0  0
  160.3520  211.9530  152.3100 O   0  0  0  0  0  0  0  0  0  0  0  0
  1  5  1  0  0  0  0
  2  5  1  0  0  0  0
  2 24  1  0  0  0  0
  3  2  2  0  0  0  0
  4  3  1  0  0  0  0
  4  1  2  0  0  0  0
  5 26  1  1  0  0  0
  6  8  1  0  0  0  0
  8  7  2  0  0  0  0
  8  3  1  0  0  0  0
  9 10  2  0  0  0  0
 10  6  1  0  0  0  0
 11  9  1  0  0  0  0
 12 11  1  0  0  0  0
 13  9  1  0  0  0  0
 14 13  1  0  0  0  0
 15 14  1  0  0  0  0
 17 22  1  0  0  0  0
 17 16  2  0  0  0  0
 18 15  1  1  0  0  0
 18 17  1  0  0  0  0
 20 21  1  0  0  0  0
 21 22  1  0  0  0  0
 22 19  1  6  0  0  0
 23 20  1  0  0  0  0
 23 18  1  0  0  0  0
 25 24  1  0  0  0  0
 26 27  1  0  0  0  0
 27 28  1  0  0  0  0
 28 34  1  0  0  0  0
 29 31  1  0  0  0  0
 30 34  1  0  0  0  0
 32 30  1  6  0  0  0
 32 31  1  0  0  0  0
 33 30  2  0  0  0  0
 34 29  2  0  0  0  0
 35 36  1  6  0  0  0
 35 32  1  0  0  0  0
 35 37  1  0  0  0  0
 36 37  1  0  0  0  0
 37 38  1  1  0  0  0
 38 41  1  1  0  0  0
 38 40  1  0  0  0  0
 40 39  1  0  0  0  0
 43 44  1  0  0  0  0
 43 41  1  1  0  0  0
 43 42  1  0  0  0  0
 44 42  1  0  0  0  0
 45 44  2  0  0  0  0
M  END
>  <MODEL>
2

>  <REMARK>
 VINA RESULT:      -5.4      1.684      2.129
  Name = 
  17 active torsions:
  status: ('A' for Active; 'I' for Inactive)
    1  A    between atoms: C_2  and  C_34
    2  A    between atoms: C_7  and  C_12
    3  A    between atoms: C_7  and  O_29
    4  A    between atoms: N_8  and  O_29
    5  A    between atoms: N_8  and  N_33
    6  A    between atoms: C_10  and  N_39
    7  A    between atoms: N_11  and  C_19
    8  A    between atoms: C_13  and  O_18
    9  A    between atoms: C_13  and  N_39
   10  A    between atoms: C_13  and  C_45
   11  A    between atoms: C_14  and  C_16
   12  A    between atoms: C_17  and  N_33
   13  A    between atoms: C_22  and  C_25
   14  A    between atoms: C_27  and  C_36
   15  A    between atoms: C_27  and  C_37
   16  A    between atoms: C_36  and  C_44
   17  A    between atoms: C_37  and  C_38
                            x       y       z     vdW  Elec       q    Type
                         _______ _______ _______ _____ _____    ______ ____

>  <TORSDO>
F 17

$$$$
=
 OpenBabel11072412003D

 45 49  0  0  1  0  0  0  0  0999 V2000
  162.9880  212.8470  147.1910 C   0  0  0  0  0  3  0  0  0  0  0  0
  161.0000  213.6880  146.6370 C   0  0  0  0  0  0  0  0  0  0  0  0
  161.7570  213.4430  145.5020 C   0  0  0  0  0  0  0  0  0  0  0  0
  162.9630  212.9350  145.8430 N   0  0  0  0  0  0  0  0  0  0  0  0
  161.7880  213.3010  147.7020 C   0  0  1  0  0  3  0  0  0  0  0  0
  160.1270  213.1570  143.6040 N   0  0  0  0  0  2  0  0  0  0  0  0
  162.0880  214.4480  143.3560 N   0  0  0  0  0  2  0  0  0  0  0  0
  161.3570  213.6840  144.1030 C   0  0  0  0  0  0  0  0  0  0  0  0
  159.9560  212.4660  141.2960 C   0  0  0  0  0  0  0  0  0  0  0  0
  159.6900  213.3540  142.2590 C   0  0  0  0  0  3  0  0  0  0  0  0
  160.7240  211.2210  141.5960 C   0  0  0  0  0  2  0  0  0  0  0  0
  162.1310  211.4340  141.3210 N   0  0  0  0  0  1  0  0  0  0  0  0
  159.5290  212.6820  139.9840 O   0  0  0  0  0  0  0  0  0  0  0  0
  158.6600  211.8160  139.3560 N   0  0  0  0  0  2  0  0  0  0  0  0
  157.6670  212.6050  138.7530 N   0  0  0  0  0  2  0  0  0  0  0  0
  155.3150  213.4060  140.0490 C   0  0  0  0  0  2  0  0  0  0  0  0
  155.2760  212.2760  139.3370 C   0  0  0  0  0  0  0  0  0  0  0  0
  156.4910  211.7560  138.5930 C   0  0  2  0  0  3  0  0  0  0  0  0
  152.9020  212.0610  138.6240 C   0  0  0  0  0  1  0  0  0  0  0  0
  155.6100  209.4560  139.3750 C   0  0  0  0  0  2  0  0  0  0  0  0
  154.3060  210.0220  138.8120 C   0  0  0  0  0  2  0  0  0  0  0  0
  154.0400  211.4130  139.3920 C   0  0  1  0  0  3  0  0  0  0  0  0
  156.8320  210.3100  138.9990 C   0  0  0  0  0  2  0  0  0  0  0  0
  159.5920  214.1900  146.7130 C   0  0  0  0  0  2  0  0  0  0  0  0
  158.6400  213.0380  146.9820 C   0  0  0  0  0  1  0  0  0  0  0  0
  161.4260  213.3380  149.1490 C   0  0  0  0  0  2  0  0  0  0  0  0
  161.0400  211.9480  149.6280 C   0  0  0  0  0  2  0  0  0  0  0  0
  162.1910  210.9710  149.4380 C   0  0  0  0  0  2  0  0  0  0  0  0
  161.2530  209.3530  151.0230 N   0  0  0  0  0  0  0  0  0  0  0  0
  162.0520  208.3570  149.1730 C   0  0  0  0  0  0  0  0  0  0  0  0
  161.0650  207.9720  151.1840 N   0  0  0  0  0  2  0  0  0  0  0  0
  161.5750  207.2380  150.0280 C   0  0  1  0  0  3  0  0  0  0  0  0
  162.6030  208.2500  148.0440 O   0  0  0  0  0  0  0  0  0  0  0  0
  161.8040  209.5970  149.8840 C   0  0  0  0  0  0  0  0  0  0  0  0
  160.4290  206.4960  149.3450 C   0  0  1  0  0  3  0  0  0  0  0  0
  160.9810  205.5360  148.3020 C   0  0  0  0  0  2  0  0  0  0  0  0
  160.3780  204.9760  149.5800 C   0  0  1  0  0  3  0  0  0  0  0  0
  161.4290  204.3470  150.5280 C   0  0  1  0  0  3  0  0  0  0  0  0
  160.9160  203.4670  152.5010 C   0  0  0  0  0  1  0  0  0  0  0  0
  161.2470  204.6760  151.8790 O   0  0  0  0  0  0  0  0  0  0  0  0
  161.4570  202.9010  150.3610 N   0  0  0  0  0  2  0  0  0  0  0  0
  159.8360  201.4130  149.5010 C   0  0  0  0  0  2  0  0  0  0  0  0
  160.6160  202.5800  149.2220 C   0  0  2  0  0  3  0  0  0  0  0  0
  161.0820  201.2500  148.6310 C   0  0  0  0  0  0  0  0  0  0  0  0
  161.8620  200.5740  147.9850 O   0  0  0  0  0  0  0  0  0  0  0  0
  1  5  1  0  0  0  0
  2 24  1  0  0  0  0
  2  5  1  0  0  0  0
  3  4  1  0  0  0  0
  3  2  2  0  0  0  0
  4  1  2  0  0  0  0
  5 26  1  6  0  0  0
  6  8  1  0  0  0  0
  7  8  2  0  0  0  0
  8  3  1  0  0  0  0
  9 11  1  0  0  0  0
  9 10  2  0  0  0  0
 10  6  1  0  0  0  0
 12 11  1  0  0  0  0
 13  9  1  0  0  0  0
 14 13  1  0  0  0  0
 15 14  1  0  0  0  0
 17 22  1  0  0  0  0
 17 16  2  0  0  0  0
 18 15  1  1  0  0  0
 18 23  1  0  0  0  0
 18 17  1  0  0  0  0
 21 20  1  0  0  0  0
 21 22  1  0  0  0  0
 22 19  1  6  0  0  0
 23 20  1  0  0  0  0
 24 25  1  0  0  0  0
 26 27  1  0  0  0  0
 28 27  1  0  0  0  0
 28 34  1  0  0  0  0
 29 31  1  0  0  0  0
 30 34  1  0  0  0  0
 32 30  1  6  0  0  0
 32 31  1  0  0  0  0
 33 30  2  0  0  0  0
 34 29  2  0  0  0  0
 35 36  1  6  0  0  0
 35 37  1  0  0  0  0
 35 32  1  0  0  0  0
 36 37  1  0  0  0  0
 37 38  1  1  0  0  0
 38 41  1  1  0  0  0
 38 40  1  0  0  0  0
 40 39  1  0  0  0  0
 43 42  1  0  0  0  0
 43 41  1  1  0  0  0
 44 43  1  0  0  0  0
 44 42  1  0  0  0  0
 45 44  2  0  0  0  0
M  END
>  <MODEL>
3

>  <REMARK>
 VINA RESULT:      -5.3      4.119      7.714
  Name = 
  17 active torsions:
  status: ('A' for Active; 'I' for Inactive)
    1  A    between atoms: C_2  and  C_34
    2  A    between atoms: C_7  and  C_12
    3  A    between atoms: C_7  and  O_29
    4  A    between atoms: N_8  and  O_29
    5  A    between atoms: N_8  and  N_33
    6  A    between atoms: C_10  and  N_39
    7  A    between atoms: N_11  and  C_19
    8  A    between atoms: C_13  and  O_18
    9  A    between atoms: C_13  and  N_39
   10  A    between atoms: C_13  and  C_45
   11  A    between atoms: C_14  and  C_16
   12  A    between atoms: C_17  and  N_33
   13  A    between atoms: C_22  and  C_25
   14  A    between atoms: C_27  and  C_36
   15  A    between atoms: C_27  and  C_37
   16  A    between atoms: C_36  and  C_44
   17  A    between atoms: C_37  and  C_38
                            x       y       z     vdW  Elec       q    Type
                         _______ _______ _______ _____ _____    ______ ____

>  <TORSDO>
F 17

$$$$
=
 OpenBabel11072412003D

 45 49  0  0  1  0  0  0  0  0999 V2000
  162.6220  214.3290  145.5120 C   0  0  0  0  0  3  0  0  0  0  0  0
  160.8180  213.1230  146.0170 C   0  0  0  0  0  0  0  0  0  0  0  0
  161.7300  213.0930  147.0600 C   0  0  0  0  0  0  0  0  0  0  0  0
  162.8250  213.8240  146.7480 N   0  0  0  0  0  2  0  0  0  0  0  0
  161.3920  213.9150  145.0430 C   0  0  0  0  0  0  0  0  0  0  0  0
  162.1640  211.0900  148.5230 N   0  0  0  0  0  2  0  0  0  0  0  0
  160.9960  212.9740  149.3350 N   0  0  0  0  0  2  0  0  0  0  0  0
  161.5830  212.3830  148.3440 C   0  0  0  0  0  0  0  0  0  0  0  0
  162.0040  209.0180  149.7530 C   0  0  0  0  0  0  0  0  0  0  0  0
  162.0520  210.3540  149.7410 C   0  0  0  0  0  3  0  0  0  0  0  0
  162.0730  208.2390  148.4800 C   0  0  0  0  0  2  0  0  0  0  0  0
  161.3700  206.9810  148.6370 N   0  0  0  0  0  1  0  0  0  0  0  0
  161.8840  208.3150  150.9540 O   0  0  0  0  0  0  0  0  0  0  0  0
  161.8180  208.9660  152.1680 N   0  0  0  0  0  2  0  0  0  0  0  0
  160.4620  209.0090  152.5300 N   0  0  0  0  0  2  0  0  0  0  0  0
  158.9010  211.3150  152.8440 C   0  0  0  0  0  2  0  0  0  0  0  0
  159.5320  210.8420  153.9230 C   0  0  0  0  0  0  0  0  0  0  0  0
  160.3980  209.5990  153.8620 C   0  0  2  0  0  3  0  0  0  0  0  0
  158.1380  211.5820  155.8450 C   0  0  0  0  0  1  0  0  0  0  0  0
  161.8970  210.9300  155.4940 C   0  0  0  0  0  2  0  0  0  0  0  0
  160.5540  211.1360  156.1960 C   0  0  0  0  0  2  0  0  0  0  0  0
  159.5110  211.6450  155.2000 C   0  0  1  0  0  3  0  0  0  0  0  0
  161.8220  209.8700  154.3820 C   0  0  0  0  0  2  0  0  0  0  0  0
  159.4570  212.5030  145.9670 C   0  0  0  0  0  2  0  0  0  0  0  0
  158.5500  213.1470  147.0010 C   0  0  0  0  0  1  0  0  0  0  0  0
  160.8020  214.2860  143.7230 C   0  0  0  0  0  2  0  0  0  0  0  0
  161.6690  213.7530  142.5940 C   0  0  0  0  0  2  0  0  0  0  0  0
  161.4200  212.2680  142.3740 C   0  0  0  0  0  2  0  0  0  0  0  0
  159.3750  212.7990  141.1330 N   0  0  0  0  0  0  0  0  0  0  0  0
  160.3890  210.9560  140.3410 C   0  0  0  0  0  0  0  0  0  0  0  0
  158.5830  212.3120  140.0820 N   0  0  0  0  0  2  0  0  0  0  0  0
  159.1610  211.0960  139.5130 C   0  0  1  0  0  3  0  0  0  0  0  0
  161.2440  210.0350  140.2530 O   0  0  0  0  0  0  0  0  0  0  0  0
  160.4110  212.0490  141.2930 C   0  0  0  0  0  0  0  0  0  0  0  0
  159.5270  211.3360  138.0510 C   0  0  1  0  0  3  0  0  0  0  0  0
  159.2790  210.0740  137.2400 C   0  0  0  0  0  2  0  0  0  0  0  0
  158.3620  211.2720  137.0470 C   0  0  1  0  0  3  0  0  0  0  0  0
  156.9340  211.0430  137.5990 C   0  0  1  0  0  3  0  0  0  0  0  0
  156.0380  213.0720  137.7090 C   0  0  0  0  0  1  0  0  0  0  0  0
  155.9580  211.8630  137.0120 O   0  0  0  0  0  0  0  0  0  0  0  0
  156.5600  209.6420  137.4670 N   0  0  0  0  0  2  0  0  0  0  0  0
  155.1940  207.9940  138.4660 C   0  0  0  0  0  2  0  0  0  0  0  0
  155.7670  209.2950  138.6320 C   0  0  2  0  0  3  0  0  0  0  0  0
  154.3000  209.2080  138.2160 C   0  0  0  0  0  0  0  0  0  0  0  0
  153.2390  209.7160  137.8990 O   0  0  0  0  0  0  0  0  0  0  0  0
  1  4  1  0  0  0  0
  2  3  2  0  0  0  0
  3  8  1  0  0  0  0
  4  3  1  0  0  0  0
  5  1  2  0  0  0  0
  5  2  1  0  0  0  0
  6 10  1  0  0  0  0
  8  6  1  0  0  0  0
  8  7  2  0  0  0  0
  9 13  1  0  0  0  0
 10  9  2  0  0  0  0
 11 12  1  0  0  0  0
 11  9  1  0  0  0  0
 13 14  1  0  0  0  0
 14 15  1  0  0  0  0
 16 17  2  0  0  0  0
 17 22  1  0  0  0  0
 18 15  1  6  0  0  0
 18 17  1  0  0  0  0
 18 23  1  0  0  0  0
 20 21  1  0  0  0  0
 22 19  1  1  0  0  0
 22 21  1  0  0  0  0
 23 20  1  0  0  0  0
 24  2  1  0  0  0  0
 24 25  1  0  0  0  0
 26  5  1  0  0  0  0
 27 26  1  0  0  0  0
 28 27  1  0  0  0  0
 29 34  2  0  0  0  0
 30 34  1  0  0  0  0
 31 29  1  0  0  0  0
 32 31  1  1  0  0  0
 32 30  1  0  0  0  0
 33 30  2  0  0  0  0
 34 28  1  0  0  0  0
 35 36  1  6  0  0  0
 35 32  1  0  0  0  0
 37 36  1  0  0  0  0
 37 38  1  1  0  0  0
 37 35  1  0  0  0  0
 38 40  1  6  0  0  0
 40 39  1  0  0  0  0
 41 38  1  0  0  0  0
 42 43  1  0  0  0  0
 43 41  1  6  0  0  0
 44 42  1  0  0  0  0
 44 43  1  0  0  0  0
 45 44  2  0  0  0  0
M  END
>  <MODEL>
4

>  <REMARK>
 VINA RESULT:      -5.2      4.397     13.495
  Name = 
  17 active torsions:
  status: ('A' for Active; 'I' for Inactive)
    1  A    between atoms: C_2  and  C_34
    2  A    between atoms: C_7  and  C_12
    3  A    between atoms: C_7  and  O_29
    4  A    between atoms: N_8  and  O_29
    5  A    between atoms: N_8  and  N_33
    6  A    between atoms: C_10  and  N_39
    7  A    between atoms: N_11  and  C_19
    8  A    between atoms: C_13  and  O_18
    9  A    between atoms: C_13  and  N_39
   10  A    between atoms: C_13  and  C_45
   11  A    between atoms: C_14  and  C_16
   12  A    between atoms: C_17  and  N_33
   13  A    between atoms: C_22  and  C_25
   14  A    between atoms: C_27  and  C_36
   15  A    between atoms: C_27  and  C_37
   16  A    between atoms: C_36  and  C_44
   17  A    between atoms: C_37  and  C_38
                            x       y       z     vdW  Elec       q    Type
                         _______ _______ _______ _____ _____    ______ ____

>  <TORSDO>
F 17

$$$$
=
 OpenBabel11072412003D

 45 49  0  0  1  0  0  0  0  0999 V2000
  161.0070  204.6410  150.4900 C   0  0  0  0  0  3  0  0  0  0  0  0
  162.0040  206.4500  149.6530 C   0  0  0  0  0  0  0  0  0  0  0  0
  161.3860  205.7260  148.6460 C   0  0  0  0  0  0  0  0  0  0  0  0
  160.7840  204.6280  149.1580 N   0  0  0  0  0  0  0  0  0  0  0  0
  161.7520  205.7560  150.8190 C   0  0  1  0  0  3  0  0  0  0  0  0
  162.2480  205.4040  146.3020 N   0  0  0  0  0  2  0  0  0  0  0  0
  160.4620  206.8770  146.7620 N   0  0  0  0  0  2  0  0  0  0  0  0
  161.3570  206.0560  147.2090 C   0  0  0  0  0  0  0  0  0  0  0  0
  161.4060  205.1090  144.0580 C   0  0  0  0  0  0  0  0  0  0  0  0
  162.2690  205.6840  144.9020 C   0  0  0  0  0  3  0  0  0  0  0  0
  160.3760  204.1480  144.5540 C   0  0  0  0  0  2  0  0  0  0  0  0
  161.0250  203.0430  145.2320 N   0  0  0  0  0  1  0  0  0  0  0  0
  161.4490  205.3890  142.6900 O   0  0  0  0  0  0  0  0  0  0  0  0
  161.8400  206.6230  142.2160 N   0  0  0  0  0  2  0  0  0  0  0  0
  162.1480  206.4550  140.8560 N   0  0  0  0  0  2  0  0  0  0  0  0
  162.1830  206.4140  138.0550 C   0  0  0  0  0  2  0  0  0  0  0  0
  161.7240  207.5170  138.6530 C   0  0  0  0  0  0  0  0  0  0  0  0
  161.6580  207.6410  140.1620 C   0  0  2  0  0  3  0  0  0  0  0  0
  160.1320  208.5050  137.0160 C   0  0  0  0  0  1  0  0  0  0  0  0
  162.3790  210.0780  139.6930 C   0  0  0  0  0  2  0  0  0  0  0  0
  161.2340  209.9780  138.6830 C   0  0  0  0  0  2  0  0  0  0  0  0
  161.4040  208.7300  137.8150 C   0  0  1  0  0  3  0  0  0  0  0  0
  162.4090  208.8880  140.6650 C   0  0  0  0  0  2  0  0  0  0  0  0
  162.7290  207.7540  149.5370 C   0  0  0  0  0  2  0  0  0  0  0  0
  161.7630  208.9090  149.7410 C   0  0  0  0  0  1  0  0  0  0  0  0
  162.1810  206.1310  152.1980 C   0  0  0  0  0  2  0  0  0  0  0  0
  160.9650  206.3410  153.0860 C   0  0  0  0  0  2  0  0  0  0  0  0
  161.3850  206.6410  154.5180 C   0  0  0  0  0  2  0  0  0  0  0  0
  159.5600  207.5750  155.8620 N   0  0  0  0  0  0  0  0  0  0  0  0
  160.7400  209.1740  154.8130 C   0  0  0  0  0  0  0  0  0  0  0  0
  158.9670  208.8040  156.1860 N   0  0  0  0  0  2  0  0  0  0  0  0
  159.6640  209.9090  155.5300 C   0  0  1  0  0  3  0  0  0  0  0  0
  161.6230  209.6840  154.0720 O   0  0  0  0  0  0  0  0  0  0  0  0
  160.5750  207.7600  155.0890 C   0  0  0  0  0  0  0  0  0  0  0  0
  160.2610  210.8370  156.5830 C   0  0  1  0  0  3  0  0  0  0  0  0
  160.8130  212.0890  155.9180 C   0  0  0  0  0  2  0  0  0  0  0  0
  159.5540  212.1920  156.7640 C   0  0  1  0  0  3  0  0  0  0  0  0
  158.2790  212.4680  155.9300 C   0  0  1  0  0  3  0  0  0  0  0  0
  156.3340  211.7120  156.6880 C   0  0  0  0  0  1  0  0  0  0  0  0
  157.1650  212.8370  156.6970 O   0  0  0  0  0  0  0  0  0  0  0  0
  158.5480  213.4770  154.9150 N   0  0  0  0  0  2  0  0  0  0  0  0
  158.3700  211.9680  153.1060 C   0  0  0  0  0  2  0  0  0  0  0  0
  157.7870  213.1150  153.7330 C   0  0  2  0  0  3  0  0  0  0  0  0
  158.6630  213.3410  152.5010 C   0  0  0  0  0  0  0  0  0  0  0  0
  159.2020  214.0640  151.6820 O   0  0  0  0  0  0  0  0  0  0  0  0
  1  5  1  0  0  0  0
  2  5  1  0  0  0  0
  3  4  1  0  0  0  0
  3  2  2  0  0  0  0
  4  1  2  0  0  0  0
  5 26  1  1  0  0  0
  6  8  1  0  0  0  0
  7  8  2  0  0  0  0
  8  3  1  0  0  0  0
  9 11  1  0  0  0  0
  9 10  2  0  0  0  0
 10  6  1  0  0  0  0
 11 12  1  0  0  0  0
 13  9  1  0  0  0  0
 14 13  1  0  0  0  0
 15 14  1  0  0  0  0
 16 17  2  0  0  0  0
 17 18  1  0  0  0  0
 18 23  1  0  0  0  0
 18 15  1  1  0  0  0
 20 23  1  0  0  0  0
 21 20  1  0  0  0  0
 22 19  1  1  0  0  0
 22 17  1  0  0  0  0
 22 21  1  0  0  0  0
 24  2  1  0  0  0  0
 24 25  1  0  0  0  0
 26 27  1  0  0  0  0
 27 28  1  0  0  0  0
 28 34  1  0  0  0  0
 29 31  1  0  0  0  0
 30 34  1  0  0  0  0
 32 30  1  6  0  0  0
 32 31  1  0  0  0  0
 32 35  1  0  0  0  0
 33 30  2  0  0  0  0
 34 29  2  0  0  0  0
 35 36  1  6  0  0  0
 35 37  1  0  0  0  0
 36 37  1  0  0  0  0
 37 38  1  6  0  0  0
 38 41  1  6  0  0  0
 38 40  1  0  0  0  0
 39 40  1  0  0  0  0
 42 43  1  0  0  0  0
 43 41  1  1  0  0  0
 44 42  1  0  0  0  0
 44 43  1  0  0  0  0
 45 44  2  0  0  0  0
M  END
>  <MODEL>
5

>  <REMARK>
 VINA RESULT:      -5.0      2.854      5.654
  Name = 
  17 active torsions:
  status: ('A' for Active; 'I' for Inactive)
    1  A    between atoms: C_2  and  C_34
    2  A    between atoms: C_7  and  C_12
    3  A    between atoms: C_7  and  O_29
    4  A    between atoms: N_8  and  O_29
    5  A    between atoms: N_8  and  N_33
    6  A    between atoms: C_10  and  N_39
    7  A    between atoms: N_11  and  C_19
    8  A    between atoms: C_13  and  O_18
    9  A    between atoms: C_13  and  N_39
   10  A    between atoms: C_13  and  C_45
   11  A    between atoms: C_14  and  C_16
   12  A    between atoms: C_17  and  N_33
   13  A    between atoms: C_22  and  C_25
   14  A    between atoms: C_27  and  C_36
   15  A    between atoms: C_27  and  C_37
   16  A    between atoms: C_36  and  C_44
   17  A    between atoms: C_37  and  C_38
                            x       y       z     vdW  Elec       q    Type
                         _______ _______ _______ _____ _____    ______ ____

>  <TORSDO>
F 17

$$$$
=
 OpenBabel11072412003D

 45 49  0  0  1  0  0  0  0  0999 V2000
  163.1300  213.4240  146.5010 C   0  0  0  0  0  3  0  0  0  0  0  0
  161.1350  212.5440  146.9600 C   0  0  0  0  0  0  0  0  0  0  0  0
  162.0980  212.0400  147.8210 C   0  0  0  0  0  0  0  0  0  0  0  0
  163.3070  212.5750  147.5360 N   0  0  0  0  0  2  0  0  0  0  0  0
  161.8000  213.4250  146.1310 C   0  0  0  0  0  0  0  0  0  0  0  0
  162.2060  209.6830  148.6990 N   0  0  0  0  0  2  0  0  0  0  0  0
  161.5040  211.4730  150.0680 N   0  0  0  0  0  2  0  0  0  0  0  0
  161.8910  211.0610  148.9040 C   0  0  0  0  0  0  0  0  0  0  0  0
  161.5560  207.4710  149.4190 C   0  0  0  0  0  0  0  0  0  0  0  0
  162.0240  208.6900  149.7090 C   0  0  0  0  0  3  0  0  0  0  0  0
  161.2080  207.0990  148.0150 C   0  0  0  0  0  2  0  0  0  0  0  0
  162.3290  206.4190  147.3980 N   0  0  0  0  0  1  0  0  0  0  0  0
  161.3760  206.5170  150.4220 O   0  0  0  0  0  0  0  0  0  0  0  0
  161.7320  206.7660  151.7310 N   0  0  0  0  0  2  0  0  0  0  0  0
  161.3360  208.0840  152.0130 N   0  0  0  0  0  2  0  0  0  0  0  0
  161.5920  210.3100  153.6960 C   0  0  0  0  0  2  0  0  0  0  0  0
  160.8310  209.2970  154.1190 C   0  0  0  0  0  0  0  0  0  0  0  0
  160.6230  208.0480  153.2850 C   0  0  2  0  0  3  0  0  0  0  0  0
  159.1720  210.3500  155.6460 C   0  0  0  0  0  1  0  0  0  0  0  0
  160.7520  206.8590  155.5760 C   0  0  0  0  0  2  0  0  0  0  0  0
  159.7480  207.9530  155.9410 C   0  0  0  0  0  2  0  0  0  0  0  0
  160.2850  209.3230  155.5260 C   0  0  1  0  0  3  0  0  0  0  0  0
  161.0020  206.7740  154.0610 C   0  0  0  0  0  2  0  0  0  0  0  0
  159.6640  212.2680  146.9620 C   0  0  0  0  0  2  0  0  0  0  0  0
  158.9420  213.2900  147.8220 C   0  0  0  0  0  1  0  0  0  0  0  0
  161.2080  214.2530  145.0400 C   0  0  0  0  0  2  0  0  0  0  0  0
  161.9180  213.9720  143.7250 C   0  0  0  0  0  2  0  0  0  0  0  0
  161.7850  212.5050  143.3410 C   0  0  0  0  0  2  0  0  0  0  0  0
  159.6830  212.7590  142.1070 N   0  0  0  0  0  0  0  0  0  0  0  0
  161.2330  211.6500  140.9160 C   0  0  0  0  0  0  0  0  0  0  0  0
  159.0910  212.4120  140.8830 N   0  0  0  0  0  2  0  0  0  0  0  0
  160.0290  211.6680  140.0430 C   0  0  1  0  0  3  0  0  0  0  0  0
  162.3380  211.1040  140.6490 O   0  0  0  0  0  0  0  0  0  0  0  0
  160.9020  212.3440  142.1450 C   0  0  0  0  0  0  0  0  0  0  0  0
  160.3070  212.4520  138.7640 C   0  0  1  0  0  3  0  0  0  0  0  0
  161.1140  211.5990  137.7980 C   0  0  0  0  0  2  0  0  0  0  0  0
  159.6580  211.8990  137.4830 C   0  0  1  0  0  3  0  0  0  0  0  0
  158.7380  210.6600  137.6050 C   0  0  1  0  0  3  0  0  0  0  0  0
  159.3840  208.5500  137.3520 C   0  0  0  0  0  1  0  0  0  0  0  0
  159.3190  209.5840  138.2920 O   0  0  0  0  0  0  0  0  0  0  0  0
  157.4730  211.0290  138.2240 N   0  0  0  0  0  2  0  0  0  0  0  0
  155.1380  210.9160  137.8830 C   0  0  0  0  0  2  0  0  0  0  0  0
  156.4190  210.7120  137.2780 C   0  0  2  0  0  3  0  0  0  0  0  0
  155.6630  209.4840  137.7820 C   0  0  0  0  0  0  0  0  0  0  0  0
  155.5660  208.2850  137.9780 O   0  0  0  0  0  0  0  0  0  0  0  0
  1  4  1  0  0  0  0
  2 24  1  0  0  0  0
  2  3  2  0  0  0  0
  3  8  1  0  0  0  0
  4  3  1  0  0  0  0
  5  1  2  0  0  0  0
  5  2  1  0  0  0  0
  6  8  1  0  0  0  0
  6 10  1  0  0  0  0
  8  7  2  0  0  0  0
  9 10  2  0  0  0  0
  9 13  1  0  0  0  0
 11  9  1  0  0  0  0
 12 11  1  0  0  0  0
 13 14  1  0  0  0  0
 14 15  1  0  0  0  0
 16 17  2  0  0  0  0
 17 22  1  0  0  0  0
 18 15  1  6  0  0  0
 18 23  1  0  0  0  0
 18 17  1  0  0  0  0
 20 21  1  0  0  0  0
 22 19  1  6  0  0  0
 22 21  1  0  0  0  0
 23 20  1  0  0  0  0
 24 25  1  0  0  0  0
 26  5  1  0  0  0  0
 27 26  1  0  0  0  0
 28 27  1  0  0  0  0
 29 34  2  0  0  0  0
 30 34  1  0  0  0  0
 31 29  1  0  0  0  0
 32 31  1  1  0  0  0
 32 30  1  0  0  0  0
 33 30  2  0  0  0  0
 34 28  1  0  0  0  0
 35 36  1  6  0  0  0
 35 32  1  0  0  0  0
 37 38  1  1  0  0  0
 37 36  1  0  0  0  0
 37 35  1  0  0  0  0
 38 41  1  1  0  0  0
 38 40  1  0  0  0  0
 39 40  1  0  0  0  0
 43 44  1  0  0  0  0
 43 42  1  0  0  0  0
 43 41  1  1  0  0  0
 44 42  1  0  0  0  0
 44 45  2  0  0  0  0
M  END
>  <MODEL>
6

>  <REMARK>
 VINA RESULT:      -4.9      3.760     13.189
  Name = 
  17 active torsions:
  status: ('A' for Active; 'I' for Inactive)
    1  A    between atoms: C_2  and  C_34
    2  A    between atoms: C_7  and  C_12
    3  A    between atoms: C_7  and  O_29
    4  A    between atoms: N_8  and  O_29
    5  A    between atoms: N_8  and  N_33
    6  A    between atoms: C_10  and  N_39
    7  A    between atoms: N_11  and  C_19
    8  A    between atoms: C_13  and  O_18
    9  A    between atoms: C_13  and  N_39
   10  A    between atoms: C_13  and  C_45
   11  A    between atoms: C_14  and  C_16
   12  A    between atoms: C_17  and  N_33
   13  A    between atoms: C_22  and  C_25
   14  A    between atoms: C_27  and  C_36
   15  A    between atoms: C_27  and  C_37
   16  A    between atoms: C_36  and  C_44
   17  A    between atoms: C_37  and  C_38
                            x       y       z     vdW  Elec       q    Type
                         _______ _______ _______ _____ _____    ______ ____

>  <TORSDO>
F 17

$$$$
=
 OpenBabel11072412003D

 45 49  0  0  1  0  0  0  0  0999 V2000
  162.7200  203.4380  146.6870 C   0  0  0  0  0  3  0  0  0  0  0  0
  160.9140  203.4080  145.3820 C   0  0  0  0  0  0  0  0  0  0  0  0
  161.5910  204.6090  145.2460 C   0  0  0  0  0  0  0  0  0  0  0  0
  162.6850  204.6250  146.0420 N   0  0  0  0  0  0  0  0  0  0  0  0
  161.6420  202.6700  146.2940 C   0  0  1  0  0  3  0  0  0  0  0  0
  161.7580  205.8460  143.0590 N   0  0  0  0  0  2  0  0  0  0  0  0
  160.3350  206.5940  144.7880 N   0  0  0  0  0  2  0  0  0  0  0  0
  161.2190  205.7420  144.3780 C   0  0  0  0  0  0  0  0  0  0  0  0
  161.8740  206.9460  140.9120 C   0  0  0  0  0  0  0  0  0  0  0  0
  161.4370  206.9210  142.1750 C   0  0  0  0  0  3  0  0  0  0  0  0
  162.7170  205.8380  140.3730 C   0  0  0  0  0  2  0  0  0  0  0  0
  162.6700  205.8480  138.9240 N   0  0  0  0  0  1  0  0  0  0  0  0
  161.5580  208.0110  140.0660 O   0  0  0  0  0  0  0  0  0  0  0  0
  162.3300  209.1530  140.0210 N   0  0  0  0  0  2  0  0  0  0  0  0
  161.4430  210.2410  139.9960 N   0  0  0  0  0  2  0  0  0  0  0  0
  160.4480  211.4600  142.3140 C   0  0  0  0  0  2  0  0  0  0  0  0
  161.5490  211.9800  141.7640 C   0  0  0  0  0  0  0  0  0  0  0  0
  162.1720  211.3930  140.5120 C   0  0  2  0  0  3  0  0  0  0  0  0
  162.7600  213.0430  143.6600 C   0  0  0  0  0  1  0  0  0  0  0  0
  162.5930  213.8740  139.9230 C   0  0  0  0  0  2  0  0  0  0  0  0
  163.1320  213.8830  141.3540 C   0  0  0  0  0  2  0  0  0  0  0  0
  162.1060  213.2720  142.3090 C   0  0  1  0  0  3  0  0  0  0  0  0
  162.3290  212.4510  139.4050 C   0  0  0  0  0  2  0  0  0  0  0  0
  159.6940  202.9510  144.6450 C   0  0  0  0  0  2  0  0  0  0  0  0
  159.7000  201.4380  144.5110 C   0  0  0  0  0  1  0  0  0  0  0  0
  161.3480  201.2870  146.7700 C   0  0  0  0  0  2  0  0  0  0  0  0
  161.4490  201.2220  148.2850 C   0  0  0  0  0  2  0  0  0  0  0  0
  160.2030  201.8050  148.9370 C   0  0  0  0  0  2  0  0  0  0  0  0
  160.8240  202.3750  151.2380 N   0  0  0  0  0  0  0  0  0  0  0  0
  160.6090  204.2010  149.9450 C   0  0  0  0  0  0  0  0  0  0  0  0
  161.0710  203.4890  152.0540 N   0  0  0  0  0  2  0  0  0  0  0  0
  160.9360  204.7310  151.2960 C   0  0  1  0  0  3  0  0  0  0  0  0
  160.3780  204.8850  148.9130 O   0  0  0  0  0  0  0  0  0  0  0  0
  160.5680  202.7540  150.0340 C   0  0  0  0  0  0  0  0  0  0  0  0
  162.2730  205.4660  151.2720 C   0  0  1  0  0  3  0  0  0  0  0  0
  162.1130  206.8110  150.5780 C   0  0  0  0  0  2  0  0  0  0  0  0
  162.3360  206.7730  152.0820 C   0  0  1  0  0  3  0  0  0  0  0  0
  161.0860  207.1900  152.8950 C   0  0  1  0  0  3  0  0  0  0  0  0
  160.7340  207.3070  155.0850 C   0  0  0  0  0  1  0  0  0  0  0  0
  160.8530  206.3970  154.0280 O   0  0  0  0  0  0  0  0  0  0  0  0
  161.1750  208.5940  153.2720 N   0  0  0  0  0  2  0  0  0  0  0  0
  162.0280  210.2390  151.8070 C   0  0  0  0  0  2  0  0  0  0  0  0
  160.9160  209.3800  152.0790 C   0  0  2  0  0  3  0  0  0  0  0  0
  160.7980  210.8490  152.4790 C   0  0  0  0  0  0  0  0  0  0  0  0
  160.1960  211.7840  152.9770 O   0  0  0  0  0  0  0  0  0  0  0  0
  2  5  1  0  0  0  0
  3  2  2  0  0  0  0
  3  4  1  0  0  0  0
  4  1  2  0  0  0  0
  5  1  1  0  0  0  0
  5 26  1  6  0  0  0
  6  8  1  0  0  0  0
  8  7  2  0  0  0  0
  8  3  1  0  0  0  0
  9 10  2  0  0  0  0
 10  6  1  0  0  0  0
 11  9  1  0  0  0  0
 12 11  1  0  0  0  0
 13  9  1  0  0  0  0
 14 13  1  0  0  0  0
 15 14  1  0  0  0  0
 17 22  1  0  0  0  0
 17 16  2  0  0  0  0
 18 15  1  6  0  0  0
 18 17  1  0  0  0  0
 20 21  1  0  0  0  0
 21 22  1  0  0  0  0
 22 19  1  1  0  0  0
 23 20  1  0  0  0  0
 23 18  1  0  0  0  0
 24  2  1  0  0  0  0
 25 24  1  0  0  0  0
 26 27  1  0  0  0  0
 27 28  1  0  0  0  0
 28 34  1  0  0  0  0
 29 31  1  0  0  0  0
 30 34  1  0  0  0  0
 32 30  1  6  0  0  0
 32 31  1  0  0  0  0
 33 30  2  0  0  0  0
 34 29  2  0  0  0  0
 35 36  1  6  0  0  0
 35 32  1  0  0  0  0
 35 37  1  0  0  0  0
 36 37  1  0  0  0  0
 37 38  1  1  0  0  0
 38 41  1  1  0  0  0
 38 40  1  0  0  0  0
 40 39  1  0  0  0  0
 42 43  1  0  0  0  0
 42 44  1  0  0  0  0
 43 44  1  0  0  0  0
 43 41  1  1  0  0  0
 44 45  2  0  0  0  0
M  END
>  <MODEL>
7

>  <REMARK>
 VINA RESULT:      -4.7      1.863      2.623
  Name = 
  17 active torsions:
  status: ('A' for Active; 'I' for Inactive)
    1  A    between atoms: C_2  and  C_34
    2  A    between atoms: C_7  and  C_12
    3  A    between atoms: C_7  and  O_29
    4  A    between atoms: N_8  and  O_29
    5  A    between atoms: N_8  and  N_33
    6  A    between atoms: C_10  and  N_39
    7  A    between atoms: N_11  and  C_19
    8  A    between atoms: C_13  and  O_18
    9  A    between atoms: C_13  and  N_39
   10  A    between atoms: C_13  and  C_45
   11  A    between atoms: C_14  and  C_16
   12  A    between atoms: C_17  and  N_33
   13  A    between atoms: C_22  and  C_25
   14  A    between atoms: C_27  and  C_36
   15  A    between atoms: C_27  and  C_37
   16  A    between atoms: C_36  and  C_44
   17  A    between atoms: C_37  and  C_38
                            x       y       z     vdW  Elec       q    Type
                         _______ _______ _______ _____ _____    ______ ____

>  <TORSDO>
F 17

$$$$
=
 OpenBabel11072412003D

 45 49  0  0  1  0  0  0  0  0999 V2000
  158.7850  209.5710  156.5110 C   0  0  0  0  0  3  0  0  0  0  0  0
  160.8200  209.8170  155.6380 C   0  0  0  0  0  0  0  0  0  0  0  0
  160.3940  208.5050  155.5120 C   0  0  0  0  0  0  0  0  0  0  0  0
  159.1600  208.3590  156.0460 N   0  0  0  0  0  0  0  0  0  0  0  0
  159.7900  210.4860  156.2670 C   0  0  1  0  0  3  0  0  0  0  0  0
  160.5650  206.6530  153.8150 N   0  0  0  0  0  2  0  0  0  0  0  0
  162.3430  207.1340  155.2910 N   0  0  0  0  0  2  0  0  0  0  0  0
  161.1360  207.3880  154.8980 C   0  0  0  0  0  0  0  0  0  0  0  0
  161.6890  205.6470  151.9290 C   0  0  0  0  0  0  0  0  0  0  0  0
  161.2340  205.5610  153.1830 C   0  0  0  0  0  3  0  0  0  0  0  0
  161.5180  206.9010  151.1370 C   0  0  0  0  0  2  0  0  0  0  0  0
  162.7680  207.2460  150.4900 N   0  0  0  0  0  1  0  0  0  0  0  0
  162.3320  204.5640  151.3250 O   0  0  0  0  0  0  0  0  0  0  0  0
  161.6680  203.3850  151.0590 N   0  0  0  0  0  2  0  0  0  0  0  0
  160.6680  203.6870  150.1210 N   0  0  0  0  0  2  0  0  0  0  0  0
  160.0900  205.9390  148.5560 C   0  0  0  0  0  2  0  0  0  0  0  0
  160.9390  205.0370  148.0550 C   0  0  0  0  0  0  0  0  0  0  0  0
  161.3220  203.7860  148.8210 C   0  0  2  0  0  3  0  0  0  0  0  0
  162.3990  206.3340  146.5130 C   0  0  0  0  0  1  0  0  0  0  0  0
  161.2210  202.6880  146.4840 C   0  0  0  0  0  2  0  0  0  0  0  0
  162.0800  203.9020  146.1300 C   0  0  0  0  0  2  0  0  0  0  0  0
  161.4140  205.1850  146.6300 C   0  0  1  0  0  3  0  0  0  0  0  0
  161.0520  202.5110  148.0020 C   0  0  0  0  0  2  0  0  0  0  0  0
  162.0920  210.4240  155.1320 C   0  0  0  0  0  2  0  0  0  0  0  0
  163.0810  210.5920  156.2720 C   0  0  0  0  0  1  0  0  0  0  0  0
  159.7390  211.9360  156.6150 C   0  0  0  0  0  2  0  0  0  0  0  0
  158.3420  212.4840  156.3730 C   0  0  0  0  0  2  0  0  0  0  0  0
  158.4040  213.9030  155.8280 C   0  0  0  0  0  2  0  0  0  0  0  0
  156.9500  214.4530  153.9330 N   0  0  0  0  0  0  0  0  0  0  0  0
  158.7930  213.3400  153.2880 C   0  0  0  0  0  0  0  0  0  0  0  0
  156.8620  214.2790  152.5440 N   0  0  0  0  0  2  0  0  0  0  0  0
  158.0190  213.5440  152.0350 C   0  0  1  0  0  3  0  0  0  0  0  0
  159.8920  212.7310  153.3930 O   0  0  0  0  0  0  0  0  0  0  0  0
  158.0430  213.9350  154.3770 C   0  0  0  0  0  0  0  0  0  0  0  0
  158.7990  214.4240  151.0620 C   0  0  1  0  0  3  0  0  0  0  0  0
  159.6300  213.5560  150.1300 C   0  0  0  0  0  2  0  0  0  0  0  0
  158.4170  214.2870  149.5780 C   0  0  1  0  0  3  0  0  0  0  0  0
  157.2490  213.3400  149.2080 C   0  0  1  0  0  3  0  0  0  0  0  0
  155.4690  214.4300  148.4500 C   0  0  0  0  0  1  0  0  0  0  0  0
  155.9870  213.8140  149.5940 O   0  0  0  0  0  0  0  0  0  0  0  0
  157.2640  213.0540  147.7800 N   0  0  0  0  0  2  0  0  0  0  0  0
  158.0720  214.1640  145.8580 C   0  0  0  0  0  2  0  0  0  0  0  0
  158.3770  213.7870  147.2040 C   0  0  2  0  0  3  0  0  0  0  0  0
  158.9780  212.9520  146.0740 C   0  0  0  0  0  0  0  0  0  0  0  0
  159.6450  212.0200  145.6620 O   0  0  0  0  0  0  0  0  0  0  0  0
  2  5  1  0  0  0  0
  3  2  2  0  0  0  0
  3  4  1  0  0  0  0
  4  1  2  0  0  0  0
  5  1  1  0  0  0  0
  5 26  1  6  0  0  0
  6  8  1  0  0  0  0
  8  7  2  0  0  0  0
  8  3  1  0  0  0  0
  9 10  2  0  0  0  0
 10  6  1  0  0  0  0
 11  9  1  0  0  0  0
 12 11  1  0  0  0  0
 13  9  1  0  0  0  0
 14 13  1  0  0  0  0
 15 14  1  0  0  0  0
 17 16  2  0  0  0  0
 17 18  1  0  0  0  0
 18 15  1  1  0  0  0
 20 23  1  0  0  0  0
 21 20  1  0  0  0  0
 21 22  1  0  0  0  0
 22 19  1  1  0  0  0
 22 17  1  0  0  0  0
 23 18  1  0  0  0  0
 24  2  1  0  0  0  0
 24 25  1  0  0  0  0
 27 26  1  0  0  0  0
 28 27  1  0  0  0  0
 29 34  2  0  0  0  0
 30 33  2  0  0  0  0
 30 34  1  0  0  0  0
 31 29  1  0  0  0  0
 32 31  1  1  0  0  0
 32 30  1  0  0  0  0
 34 28  1  0  0  0  0
 35 36  1  6  0  0  0
 35 32  1  0  0  0  0
 37 38  1  1  0  0  0
 37 36  1  0  0  0  0
 37 35  1  0  0  0  0
 38 41  1  6  0  0  0
 38 40  1  0  0  0  0
 39 40  1  0  0  0  0
 42 44  1  0  0  0  0
 42 43  1  0  0  0  0
 43 41  1  1  0  0  0
 44 43  1  0  0  0  0
 45 44  2  0  0  0  0
M  END
>  <MODEL>
8

>  <REMARK>
 VINA RESULT:      -4.4      5.175     11.069
  Name = 
  17 active torsions:
  status: ('A' for Active; 'I' for Inactive)
    1  A    between atoms: C_2  and  C_34
    2  A    between atoms: C_7  and  C_12
    3  A    between atoms: C_7  and  O_29
    4  A    between atoms: N_8  and  O_29
    5  A    between atoms: N_8  and  N_33
    6  A    between atoms: C_10  and  N_39
    7  A    between atoms: N_11  and  C_19
    8  A    between atoms: C_13  and  O_18
    9  A    between atoms: C_13  and  N_39
   10  A    between atoms: C_13  and  C_45
   11  A    between atoms: C_14  and  C_16
   12  A    between atoms: C_17  and  N_33
   13  A    between atoms: C_22  and  C_25
   14  A    between atoms: C_27  and  C_36
   15  A    between atoms: C_27  and  C_37
   16  A    between atoms: C_36  and  C_44
   17  A    between atoms: C_37  and  C_38
                            x       y       z     vdW  Elec       q    Type
                         _______ _______ _______ _____ _____    ______ ____

>  <TORSDO>
F 17

$$$$
=
 OpenBabel11072412003D

 45 49  0  0  1  0  0  0  0  0999 V2000
  162.9390  212.9820  147.2410 C   0  0  0  0  0  3  0  0  0  0  0  0
  161.0470  212.5600  148.3410 C   0  0  0  0  0  0  0  0  0  0  0  0
  162.0590  211.7200  148.7770 C   0  0  0  0  0  0  0  0  0  0  0  0
  163.2050  211.9770  148.1050 N   0  0  0  0  0  2  0  0  0  0  0  0
  161.6180  213.3600  147.3710 C   0  0  0  0  0  0  0  0  0  0  0  0
  162.3670  209.3390  149.5340 N   0  0  0  0  0  2  0  0  0  0  0  0
  161.5790  211.0050  151.0090 N   0  0  0  0  0  2  0  0  0  0  0  0
  161.9590  210.6790  149.8160 C   0  0  0  0  0  0  0  0  0  0  0  0
  161.7190  207.1130  150.2130 C   0  0  0  0  0  0  0  0  0  0  0  0
  162.2900  208.2880  150.4990 C   0  0  0  0  0  3  0  0  0  0  0  0
  161.1410  206.8530  148.8610 C   0  0  0  0  0  2  0  0  0  0  0  0
  160.2220  205.7340  148.9300 N   0  0  0  0  0  1  0  0  0  0  0  0
  161.6450  206.1020  151.1730 O   0  0  0  0  0  0  0  0  0  0  0  0
  161.5340  206.3870  152.5170 N   0  0  0  0  0  2  0  0  0  0  0  0
  161.5040  207.7860  152.6330 N   0  0  0  0  0  2  0  0  0  0  0  0
  162.1320  210.0850  154.1080 C   0  0  0  0  0  2  0  0  0  0  0  0
  161.0860  209.3570  154.5090 C   0  0  0  0  0  0  0  0  0  0  0  0
  160.6590  208.0980  153.7800 C   0  0  2  0  0  3  0  0  0  0  0  0
  159.5920  210.9810  155.6580 C   0  0  0  0  0  1  0  0  0  0  0  0
  160.1950  207.2310  156.1700 C   0  0  0  0  0  2  0  0  0  0  0  0
  159.4770  208.5780  156.2710 C   0  0  0  0  0  2  0  0  0  0  0  0
  160.4010  209.7050  155.8080 C   0  0  1  0  0  3  0  0  0  0  0  0
  160.5940  206.8850  154.7260 C   0  0  0  0  0  2  0  0  0  0  0  0
  159.6450  212.6550  148.8550 C   0  0  0  0  0  2  0  0  0  0  0  0
  159.5620  213.6930  149.9610 C   0  0  0  0  0  1  0  0  0  0  0  0
  160.9530  214.4530  146.6030 C   0  0  0  0  0  2  0  0  0  0  0  0
  161.1080  214.2130  145.1100 C   0  0  0  0  0  2  0  0  0  0  0  0
  160.3920  212.9370  144.6900 C   0  0  0  0  0  2  0  0  0  0  0  0
  159.0980  213.0480  142.6120 N   0  0  0  0  0  0  0  0  0  0  0  0
  161.2580  212.5550  142.2360 C   0  0  0  0  0  0  0  0  0  0  0  0
  159.2460  212.8760  141.2270 N   0  0  0  0  0  2  0  0  0  0  0  0
  160.6260  212.5340  140.8890 C   0  0  1  0  0  3  0  0  0  0  0  0
  162.4660  212.3070  142.4950 O   0  0  0  0  0  0  0  0  0  0  0  0
  160.2290  212.8790  143.2050 C   0  0  0  0  0  0  0  0  0  0  0  0
  161.2230  213.6230  140.0020 C   0  0  1  0  0  3  0  0  0  0  0  0
  162.3770  213.0550  139.1890 C   0  0  0  0  0  2  0  0  0  0  0  0
  161.0760  213.4090  138.4850 C   0  0  1  0  0  3  0  0  0  0  0  0
  160.2910  212.1680  137.9940 C   0  0  1  0  0  3  0  0  0  0  0  0
  158.1210  211.7210  137.8390 C   0  0  0  0  0  1  0  0  0  0  0  0
  159.1410  212.4790  137.2530 O   0  0  0  0  0  0  0  0  0  0  0  0
  161.1620  211.2900  137.2270 N   0  0  0  0  0  2  0  0  0  0  0  0
  162.0000  209.0980  137.5040 C   0  0  0  0  0  2  0  0  0  0  0  0
  161.7550  210.3470  138.1590 C   0  0  2  0  0  3  0  0  0  0  0  0
  160.7640  209.2080  138.3970 C   0  0  0  0  0  0  0  0  0  0  0  0
  159.7510  208.7490  138.8940 O   0  0  0  0  0  0  0  0  0  0  0  0
  1  5  2  0  0  0  0
  1  4  1  0  0  0  0
  2  3  2  0  0  0  0
  2 24  1  0  0  0  0
  3  8  1  0  0  0  0
  4  3  1  0  0  0  0
  5  2  1  0  0  0  0
  6  8  1  0  0  0  0
  6 10  1  0  0  0  0
  8  7  2  0  0  0  0
  9 10  2  0  0  0  0
  9 13  1  0  0  0  0
 11 12  1  0  0  0  0
 11  9  1  0  0  0  0
 13 14  1  0  0  0  0
 14 15  1  0  0  0  0
 16 17  2  0  0  0  0
 17 22  1  0  0  0  0
 18 15  1  6  0  0  0
 18 17  1  0  0  0  0
 18 23  1  0  0  0  0
 20 21  1  0  0  0  0
 22 19  1  6  0  0  0
 22 21  1  0  0  0  0
 23 20  1  0  0  0  0
 24 25  1  0  0  0  0
 26  5  1  0  0  0  0
 27 26  1  0  0  0  0
 28 27  1  0  0  0  0
 29 34  2  0  0  0  0
 30 33  2  0  0  0  0
 30 34  1  0  0  0  0
 31 29  1  0  0  0  0
 32 31  1  1  0  0  0
 32 30  1  0  0  0  0
 34 28  1  0  0  0  0
 35 36  1  6  0  0  0
 35 32  1  0  0  0  0
 37 38  1  1  0  0  0
 37 36  1  0  0  0  0
 37 35  1  0  0  0  0
 38 41  1  6  0  0  0
 40 39  1  0  0  0  0
 40 38  1  0  0  0  0
 42 43  1  0  0  0  0
 42 44  1  0  0  0  0
 43 41  1  6  0  0  0
 43 44  1  0  0  0  0
 44 45  2  0  0  0  0
M  END
>  <MODEL>
9

>  <REMARK>
 VINA RESULT:      -4.4      3.586     13.186
  Name = 
  17 active torsions:
  status: ('A' for Active; 'I' for Inactive)
    1  A    between atoms: C_2  and  C_34
    2  A    between atoms: C_7  and  C_12
    3  A    between atoms: C_7  and  O_29
    4  A    between atoms: N_8  and  O_29
    5  A    between atoms: N_8  and  N_33
    6  A    between atoms: C_10  and  N_39
    7  A    between atoms: N_11  and  C_19
    8  A    between atoms: C_13  and  O_18
    9  A    between atoms: C_13  and  N_39
   10  A    between atoms: C_13  and  C_45
   11  A    between atoms: C_14  and  C_16
   12  A    between atoms: C_17  and  N_33
   13  A    between atoms: C_22  and  C_25
   14  A    between atoms: C_27  and  C_36
   15  A    between atoms: C_27  and  C_37
   16  A    between atoms: C_36  and  C_44
   17  A    between atoms: C_37  and  C_38
                            x       y       z     vdW  Elec       q    Type
                         _______ _______ _______ _____ _____    ______ ____

>  <TORSDO>
F 17

$$$$
