=
 OpenBabel11072414143D

 34 35  0  0  1  0  0  0  0  0999 V2000
  162.7450  206.5740  151.6740 O   0  0  0  0  0  1  0  0  0  0  0  0
  161.3760  206.5390  151.9870 C   0  0  1  0  0  0  0  0  0  0  0  0
  160.6580  205.6510  151.0560 N   0  0  0  0  0  2  0  0  0  0  0  0
  161.5310  204.6780  150.5340 N   0  0  0  0  0  2  0  0  0  0  0  0
  161.4760  203.4150  147.0270 C   0  0  0  0  0  0  0  0  0  0  0  0
  161.4860  204.2910  148.0550 C   0  0  0  0  0  0  0  0  0  0  0  0
  161.2120  201.9490  147.2930 C   0  0  2  0  0  3  0  0  0  0  0  0
  161.1970  203.8280  149.4320 C   0  0  0  0  0  0  0  0  0  0  0  0
  160.6680  201.3330  146.1640 O   0  0  0  0  0  1  0  0  0  0  0  0
  160.6840  202.6080  149.6390 C   0  0  0  0  0  3  0  0  0  0  0  0
  160.2670  201.7560  148.4780 C   0  0  0  0  0  2  0  0  0  0  0  0
  161.8930  203.8350  145.6460 C   0  0  0  0  0  2  0  0  0  0  0  0
  160.7860  204.3020  144.9350 O   0  0  0  0  0  1  0  0  0  0  0  0
  160.7800  206.6140  147.6230 C   0  0  0  0  0  1  0  0  0  0  0  0
  161.8020  205.6420  147.8620 O   0  0  0  0  0  0  0  0  0  0  0  0
  161.2090  206.0440  153.3570 N   0  0  0  0  0  2  0  0  0  0  0  0
  160.2390  207.0020  155.3750 C   0  0  0  0  0  1  0  0  0  0  0  0
  161.3260  207.1300  154.3300 C   0  0  0  0  0  2  0  0  0  0  0  0
  160.7880  207.9640  151.9600 C   0  0  0  0  0  2  0  0  0  0  0  0
  161.8040  209.0340  151.5700 C   0  0  0  0  0  2  0  0  0  0  0  0
  161.5110  210.3340  152.2860 C   0  0  0  0  0  2  0  0  0  0  0  0
  160.0940  210.3280  152.8250 C   0  0  0  0  0  2  0  0  0  0  0  0
  160.0570  210.9920  154.1990 C   0  0  2  0  0  3  0  0  0  0  0  0
  159.6910  213.1120  155.5150 C   0  0  0  0  0  2  0  0  0  0  0  0
  159.8140  212.5100  154.1010 C   0  0  2  0  0  3  0  0  0  0  0  0
  157.2840  212.4380  153.9030 C   0  0  0  0  0  2  0  0  0  0  0  0
  157.1570  212.9320  155.3610 C   0  0  1  0  0  0  0  0  0  0  0  0
  157.1500  211.7950  156.1790 O   0  0  0  0  0  1  0  0  0  0  0  0
  158.3500  213.8100  155.7910 C   0  0  0  0  0  2  0  0  0  0  0  0
  158.5960  212.8530  153.2260 C   0  0  0  0  0  2  0  0  0  0  0  0
  155.9240  213.6030  155.5550 O   0  0  0  0  0  0  0  0  0  0  0  0
  155.2470  213.7290  154.3240 C   0  0  0  0  0  1  0  0  0  0  0  0
  161.3330  210.7320  154.8850 C   0  0  0  0  0  0  0  0  0  0  0  0
  162.3470  210.5400  155.4180 N   0  0  0  0  0  0  0  0  0  0  0  0
  2  1  1  6  0  0  0
  2 16  1  0  0  0  0
  3  2  1  0  0  0  0
  4  3  1  0  0  0  0
  5  7  1  0  0  0  0
  5  6  2  0  0  0  0
  6  8  1  0  0  0  0
  7  9  1  6  0  0  0
  7 11  1  0  0  0  0
  8 10  2  0  0  0  0
  8  4  1  0  0  0  0
 11 10  1  0  0  0  0
 12  5  1  0  0  0  0
 13 12  1  0  0  0  0
 14 15  1  0  0  0  0
 15  6  1  0  0  0  0
 16 18  1  0  0  0  0
 18 17  1  0  0  0  0
 19  2  1  0  0  0  0
 20 19  1  0  0  0  0
 20 21  1  0  0  0  0
 21 22  1  0  0  0  0
 23 22  1  6  0  0  0
 23 33  1  0  0  0  0
 24 29  1  0  0  0  0
 25 23  1  1  0  0  0
 25 24  1  0  0  0  0
 26 27  1  0  0  0  0
 27 31  1  0  0  0  0
 27 29  1  0  0  0  0
 27 28  1  1  0  0  0
 30 26  1  0  0  0  0
 30 25  1  0  0  0  0
 32 31  1  0  0  0  0
 33 34  3  0  0  0  0
M  END
>  <MODEL>
1

>  <REMARK>
 VINA RESULT:      -6.6      0.000      0.000
  Name = 
  15 active torsions:
  status: ('A' for Active; 'I' for Inactive)
    1  A    between atoms: C_1  and  C_7
    2  A    between atoms: C_1  and  C_12
    3  A    between atoms: C_1  and  C_33
    4  A    between atoms: N_2  and  N_24
    5  A    between atoms: N_2  and  C_30
    6  A    between atoms: C_3  and  C_10
    7  A    between atoms: O_4  and  C_17
    8  A    between atoms: C_6  and  O_19
    9  A    between atoms: N_9  and  C_18
   10  A    between atoms: N_9  and  C_30
   11  A    between atoms: C_16  and  C_23
   12  A    between atoms: C_16  and  C_33
   13  A    between atoms: C_20  and  N_24
   14  A    between atoms: C_23  and  C_27
   15  A    between atoms: C_27  and  C_30
                            x       y       z     vdW  Elec       q    Type
                         _______ _______ _______ _____ _____    ______ ____

>  <TORSDO>
F 15

$$$$
=
 OpenBabel11072414143D

 34 35  0  0  1  0  0  0  0  0999 V2000
  162.0770  210.0430  153.6030 O   0  0  0  0  0  1  0  0  0  0  0  0
  161.4410  210.0010  152.3500 C   0  0  1  0  0  0  0  0  0  0  0  0
  160.5410  211.1580  152.1930 N   0  0  0  0  0  2  0  0  0  0  0  0
  160.4210  211.8560  153.4090 N   0  0  0  0  0  2  0  0  0  0  0  0
  157.0270  213.0200  154.4210 C   0  0  0  0  0  0  0  0  0  0  0  0
  158.3000  213.0730  153.9710 C   0  0  0  0  0  0  0  0  0  0  0  0
  156.5190  211.7580  155.0850 C   0  0  2  0  0  3  0  0  0  0  0  0
  159.2080  211.9190  154.1660 C   0  0  0  0  0  0  0  0  0  0  0  0
  155.4770  212.0530  155.9680 O   0  0  0  0  0  1  0  0  0  0  0  0
  158.8660  210.9240  154.9950 C   0  0  0  0  0  3  0  0  0  0  0  0
  157.6310  211.0340  155.8390 C   0  0  0  0  0  2  0  0  0  0  0  0
  156.0520  214.1220  154.1210 C   0  0  0  0  0  2  0  0  0  0  0  0
  155.1400  213.7030  153.1520 O   0  0  0  0  0  1  0  0  0  0  0  0
  158.6360  214.3120  151.8660 C   0  0  0  0  0  1  0  0  0  0  0  0
  158.7860  214.1910  153.2830 O   0  0  0  0  0  0  0  0  0  0  0  0
  162.4570  210.0290  151.2940 N   0  0  0  0  0  2  0  0  0  0  0  0
  162.0950  209.7040  148.9080 C   0  0  0  0  0  1  0  0  0  0  0  0
  161.9370  210.6520  150.0770 C   0  0  0  0  0  2  0  0  0  0  0  0
  160.6740  208.6750  152.1880 C   0  0  0  0  0  2  0  0  0  0  0  0
  161.2200  207.5450  153.0570 C   0  0  0  0  0  2  0  0  0  0  0  0
  161.9680  206.5370  152.2120 C   0  0  0  0  0  2  0  0  0  0  0  0
  161.4470  206.5550  150.7880 C   0  0  0  0  0  2  0  0  0  0  0  0
  161.6560  205.1890  150.1400 C   0  0  2  0  0  3  0  0  0  0  0  0
  161.1090  203.6980  148.1810 C   0  0  0  0  0  2  0  0  0  0  0  0
  160.6730  204.9430  148.9800 C   0  0  2  0  0  3  0  0  0  0  0  0
  161.7890  206.4440  147.2640 C   0  0  0  0  0  2  0  0  0  0  0  0
  162.3260  205.1980  146.5240 C   0  0  1  0  0  0  0  0  0  0  0  0
  163.5660  204.8860  147.0950 O   0  0  0  0  0  1  0  0  0  0  0  0
  161.4080  203.9700  146.6990 C   0  0  0  0  0  2  0  0  0  0  0  0
  160.5150  206.1770  148.0750 C   0  0  0  0  0  2  0  0  0  0  0  0
  162.5470  205.4880  145.1550 O   0  0  0  0  0  0  0  0  0  0  0  0
  161.3190  205.5060  144.4630 C   0  0  0  0  0  1  0  0  0  0  0  0
  161.4900  204.1480  151.1670 C   0  0  0  0  0  0  0  0  0  0  0  0
  161.3440  203.3270  151.9760 N   0  0  0  0  0  0  0  0  0  0  0  0
  2  1  1  1  0  0  0
  3  2  1  0  0  0  0
  3  4  1  0  0  0  0
  4  8  1  0  0  0  0
  5  7  1  0  0  0  0
  6  8  1  0  0  0  0
  6  5  2  0  0  0  0
  7 11  1  0  0  0  0
  7  9  1  1  0  0  0
  8 10  2  0  0  0  0
 10 11  1  0  0  0  0
 12  5  1  0  0  0  0
 13 12  1  0  0  0  0
 14 15  1  0  0  0  0
 15  6  1  0  0  0  0
 16  2  1  0  0  0  0
 17 18  1  0  0  0  0
 18 16  1  0  0  0  0
 19  2  1  0  0  0  0
 19 20  1  0  0  0  0
 21 20  1  0  0  0  0
 22 21  1  0  0  0  0
 23 22  1  1  0  0  0
 23 33  1  0  0  0  0
 24 25  1  0  0  0  0
 25 23  1  1  0  0  0
 26 30  1  0  0  0  0
 27 29  1  0  0  0  0
 27 28  1  1  0  0  0
 27 26  1  0  0  0  0
 29 24  1  0  0  0  0
 30 25  1  0  0  0  0
 31 27  1  0  0  0  0
 32 31  1  0  0  0  0
 33 34  3  0  0  0  0
M  END
>  <MODEL>
2

>  <REMARK>
 VINA RESULT:      -6.5      2.040     10.042
  Name = 
  15 active torsions:
  status: ('A' for Active; 'I' for Inactive)
    1  A    between atoms: C_1  and  C_7
    2  A    between atoms: C_1  and  C_12
    3  A    between atoms: C_1  and  C_33
    4  A    between atoms: N_2  and  N_24
    5  A    between atoms: N_2  and  C_30
    6  A    between atoms: C_3  and  C_10
    7  A    between atoms: O_4  and  C_17
    8  A    between atoms: C_6  and  O_19
    9  A    between atoms: N_9  and  C_18
   10  A    between atoms: N_9  and  C_30
   11  A    between atoms: C_16  and  C_23
   12  A    between atoms: C_16  and  C_33
   13  A    between atoms: C_20  and  N_24
   14  A    between atoms: C_23  and  C_27
   15  A    between atoms: C_27  and  C_30
                            x       y       z     vdW  Elec       q    Type
                         _______ _______ _______ _____ _____    ______ ____

>  <TORSDO>
F 15

$$$$
=
 OpenBabel11072414143D

 34 35  0  0  1  0  0  0  0  0999 V2000
  160.3980  206.7550  151.3740 O   0  0  0  0  0  1  0  0  0  0  0  0
  161.6810  206.2480  151.6410 C   0  0  1  0  0  0  0  0  0  0  0  0
  161.8200  204.8880  151.0900 N   0  0  0  0  0  2  0  0  0  0  0  0
  160.8770  204.6740  150.0670 N   0  0  0  0  0  2  0  0  0  0  0  0
  161.2500  203.4140  146.5790 C   0  0  0  0  0  0  0  0  0  0  0  0
  161.2510  203.4140  147.9290 C   0  0  0  0  0  0  0  0  0  0  0  0
  161.1560  204.7250  145.8280 C   0  0  2  0  0  3  0  0  0  0  0  0
  161.2060  204.6940  148.6750 C   0  0  0  0  0  0  0  0  0  0  0  0
  161.7400  204.6120  144.5640 O   0  0  0  0  0  1  0  0  0  0  0  0
  161.4120  205.8530  148.0360 C   0  0  0  0  0  3  0  0  0  0  0  0
  161.8300  205.8600  146.5960 C   0  0  0  0  0  2  0  0  0  0  0  0
  161.1650  202.1300  145.8040 C   0  0  0  0  0  2  0  0  0  0  0  0
  159.8280  201.7820  145.6010 O   0  0  0  0  0  1  0  0  0  0  0  0
  160.0430  201.6300  149.1290 C   0  0  0  0  0  1  0  0  0  0  0  0
  161.2590  202.2210  148.6610 O   0  0  0  0  0  0  0  0  0  0  0  0
  162.6820  207.1260  151.0270 N   0  0  0  0  0  2  0  0  0  0  0  0
  162.1080  208.9740  149.5490 C   0  0  0  0  0  1  0  0  0  0  0  0
  162.2150  208.5110  150.9860 C   0  0  0  0  0  2  0  0  0  0  0  0
  161.9530  206.2620  153.1580 C   0  0  0  0  0  2  0  0  0  0  0  0
  160.7430  206.6760  153.9900 C   0  0  0  0  0  2  0  0  0  0  0  0
  161.0680  207.8820  154.8420 C   0  0  0  0  0  2  0  0  0  0  0  0
  160.7000  209.1580  154.1100 C   0  0  0  0  0  2  0  0  0  0  0  0
  160.5820  210.3120  155.1010 C   0  0  2  0  0  3  0  0  0  0  0  0
  159.9900  212.7360  155.4710 C   0  0  0  0  0  2  0  0  0  0  0  0
  160.1060  211.6100  154.4220 C   0  0  2  0  0  3  0  0  0  0  0  0
  157.6090  211.1860  154.5920 C   0  0  0  0  0  2  0  0  0  0  0  0
  157.5090  212.2320  155.7250 C   0  0  1  0  0  0  0  0  0  0  0  0
  157.7310  211.5540  156.9290 O   0  0  0  0  0  1  0  0  0  0  0  0
  158.5820  213.3350  155.6040 C   0  0  0  0  0  2  0  0  0  0  0  0
  158.7920  211.4170  153.6450 C   0  0  0  0  0  2  0  0  0  0  0  0
  156.2040  212.7840  155.7810 O   0  0  0  0  0  0  0  0  0  0  0  0
  155.8760  213.3680  154.5400 C   0  0  0  0  0  1  0  0  0  0  0  0
  161.8940  210.5290  155.7320 C   0  0  0  0  0  0  0  0  0  0  0  0
  162.9230  210.7130  156.2390 N   0  0  0  0  0  0  0  0  0  0  0  0
  2  1  1  6  0  0  0
  2 19  1  0  0  0  0
  3  2  1  0  0  0  0
  4  3  1  0  0  0  0
  5  6  2  0  0  0  0
  6 15  1  0  0  0  0
  6  8  1  0  0  0  0
  7  9  1  6  0  0  0
  7  5  1  0  0  0  0
  7 11  1  0  0  0  0
  8  4  1  0  0  0  0
 10  8  2  0  0  0  0
 11 10  1  0  0  0  0
 12  5  1  0  0  0  0
 13 12  1  0  0  0  0
 15 14  1  0  0  0  0
 16  2  1  0  0  0  0
 17 18  1  0  0  0  0
 18 16  1  0  0  0  0
 19 20  1  0  0  0  0
 20 21  1  0  0  0  0
 22 21  1  0  0  0  0
 23 22  1  6  0  0  0
 23 33  1  0  0  0  0
 24 29  1  0  0  0  0
 25 23  1  1  0  0  0
 25 24  1  0  0  0  0
 26 27  1  0  0  0  0
 27 31  1  0  0  0  0
 27 28  1  1  0  0  0
 29 27  1  0  0  0  0
 30 25  1  0  0  0  0
 30 26  1  0  0  0  0
 32 31  1  0  0  0  0
 33 34  3  0  0  0  0
M  END
>  <MODEL>
3

>  <REMARK>
 VINA RESULT:      -6.3      1.383      2.624
  Name = 
  15 active torsions:
  status: ('A' for Active; 'I' for Inactive)
    1  A    between atoms: C_1  and  C_7
    2  A    between atoms: C_1  and  C_12
    3  A    between atoms: C_1  and  C_33
    4  A    between atoms: N_2  and  N_24
    5  A    between atoms: N_2  and  C_30
    6  A    between atoms: C_3  and  C_10
    7  A    between atoms: O_4  and  C_17
    8  A    between atoms: C_6  and  O_19
    9  A    between atoms: N_9  and  C_18
   10  A    between atoms: N_9  and  C_30
   11  A    between atoms: C_16  and  C_23
   12  A    between atoms: C_16  and  C_33
   13  A    between atoms: C_20  and  N_24
   14  A    between atoms: C_23  and  C_27
   15  A    between atoms: C_27  and  C_30
                            x       y       z     vdW  Elec       q    Type
                         _______ _______ _______ _____ _____    ______ ____

>  <TORSDO>
F 15

$$$$
=
 OpenBabel11072414143D

 34 35  0  0  1  0  0  0  0  0999 V2000
  160.5850  207.6700  149.4100 O   0  0  0  0  0  1  0  0  0  0  0  0
  161.9790  207.8510  149.4140 C   0  0  1  0  0  0  0  0  0  0  0  0
  162.6390  206.7740  148.6540 N   0  0  0  0  0  2  0  0  0  0  0  0
  161.7040  206.1000  147.8460 N   0  0  0  0  0  2  0  0  0  0  0  0
  161.0880  202.5110  147.0490 C   0  0  0  0  0  0  0  0  0  0  0  0
  161.1470  203.8500  146.8840 C   0  0  0  0  0  0  0  0  0  0  0  0
  161.2420  201.9180  148.4330 C   0  0  2  0  0  3  0  0  0  0  0  0
  161.3160  204.7390  148.0570 C   0  0  0  0  0  0  0  0  0  0  0  0
  160.5960  200.6820  148.5130 O   0  0  0  0  0  1  0  0  0  0  0  0
  161.1640  204.2550  149.2970 C   0  0  0  0  0  3  0  0  0  0  0  0
  160.6840  202.8500  149.5070 C   0  0  0  0  0  2  0  0  0  0  0  0
  161.0480  201.5850  145.8670 C   0  0  0  0  0  2  0  0  0  0  0  0
  159.7580  201.5460  145.3350 O   0  0  0  0  0  1  0  0  0  0  0  0
  162.2720  204.8620  144.9370 C   0  0  0  0  0  1  0  0  0  0  0  0
  161.0860  204.4340  145.6130 O   0  0  0  0  0  0  0  0  0  0  0  0
  162.2970  209.1440  148.8000 N   0  0  0  0  0  2  0  0  0  0  0  0
  162.0340  211.5600  148.9610 C   0  0  0  0  0  1  0  0  0  0  0  0
  162.0110  210.2480  149.7160 C   0  0  0  0  0  2  0  0  0  0  0  0
  162.5030  207.9100  150.8620 C   0  0  0  0  0  2  0  0  0  0  0  0
  161.8540  206.8850  151.7870 C   0  0  0  0  0  2  0  0  0  0  0  0
  161.0810  207.5750  152.8890 C   0  0  0  0  0  2  0  0  0  0  0  0
  161.4160  209.0540  152.9190 C   0  0  0  0  0  2  0  0  0  0  0  0
  160.7270  209.7200  154.1060 C   0  0  2  0  0  3  0  0  0  0  0  0
  160.1590  211.8730  155.2900 C   0  0  0  0  0  2  0  0  0  0  0  0
  160.8090  211.2560  154.0350 C   0  0  2  0  0  3  0  0  0  0  0  0
  158.6720  211.6510  152.7240 C   0  0  0  0  0  2  0  0  0  0  0  0
  157.9800  212.1620  154.0070 C   0  0  1  0  0  0  0  0  0  0  0  0
  157.4160  211.0470  154.6390 O   0  0  0  0  0  1  0  0  0  0  0  0
  158.9750  212.8070  154.9950 C   0  0  0  0  0  2  0  0  0  0  0  0
  160.1960  211.8160  152.7400 C   0  0  0  0  0  2  0  0  0  0  0  0
  156.9230  213.0490  153.6840 O   0  0  0  0  0  0  0  0  0  0  0  0
  155.9330  213.0030  154.6880 C   0  0  0  0  0  1  0  0  0  0  0  0
  161.3580  209.2420  155.3480 C   0  0  0  0  0  0  0  0  0  0  0  0
  161.8620  208.8530  156.3200 N   0  0  0  0  0  0  0  0  0  0  0  0
  2  1  1  1  0  0  0
  2 19  1  0  0  0  0
  3  2  1  0  0  0  0
  4  8  1  0  0  0  0
  4  3  1  0  0  0  0
  5  7  1  0  0  0  0
  6  5  2  0  0  0  0
  6  8  1  0  0  0  0
  7  9  1  6  0  0  0
  7 11  1  0  0  0  0
  8 10  2  0  0  0  0
 10 11  1  0  0  0  0
 12  5  1  0  0  0  0
 13 12  1  0  0  0  0
 14 15  1  0  0  0  0
 15  6  1  0  0  0  0
 16  2  1  0  0  0  0
 16 18  1  0  0  0  0
 17 18  1  0  0  0  0
 19 20  1  0  0  0  0
 20 21  1  0  0  0  0
 21 22  1  0  0  0  0
 23 22  1  6  0  0  0
 23 33  1  0  0  0  0
 25 23  1  1  0  0  0
 25 24  1  0  0  0  0
 26 30  1  0  0  0  0
 26 27  1  0  0  0  0
 27 28  1  1  0  0  0
 27 29  1  0  0  0  0
 29 24  1  0  0  0  0
 30 25  1  0  0  0  0
 31 27  1  0  0  0  0
 31 32  1  0  0  0  0
 33 34  3  0  0  0  0
M  END
>  <MODEL>
4

>  <REMARK>
 VINA RESULT:      -6.3      1.841      2.846
  Name = 
  15 active torsions:
  status: ('A' for Active; 'I' for Inactive)
    1  A    between atoms: C_1  and  C_7
    2  A    between atoms: C_1  and  C_12
    3  A    between atoms: C_1  and  C_33
    4  A    between atoms: N_2  and  N_24
    5  A    between atoms: N_2  and  C_30
    6  A    between atoms: C_3  and  C_10
    7  A    between atoms: O_4  and  C_17
    8  A    between atoms: C_6  and  O_19
    9  A    between atoms: N_9  and  C_18
   10  A    between atoms: N_9  and  C_30
   11  A    between atoms: C_16  and  C_23
   12  A    between atoms: C_16  and  C_33
   13  A    between atoms: C_20  and  N_24
   14  A    between atoms: C_23  and  C_27
   15  A    between atoms: C_27  and  C_30
                            x       y       z     vdW  Elec       q    Type
                         _______ _______ _______ _____ _____    ______ ____

>  <TORSDO>
F 15

$$$$
=
 OpenBabel11072414143D

 34 35  0  0  1  0  0  0  0  0999 V2000
  162.9910  207.2840  148.1770 O   0  0  0  0  0  1  0  0  0  0  0  0
  161.6480  207.3920  148.5750 C   0  0  1  0  0  0  0  0  0  0  0  0
  161.4650  206.8300  149.9250 N   0  0  0  0  0  2  0  0  0  0  0  0
  161.3230  207.8630  150.8710 N   0  0  0  0  0  0  0  0  0  0  0  0
  160.8500  208.6460  154.4850 C   0  0  0  0  0  0  0  0  0  0  0  0
  161.2340  208.7970  153.1990 C   0  0  0  0  0  0  0  0  0  0  0  0
  160.3830  207.2930  154.9750 C   0  0  2  0  0  3  0  0  0  0  0  0
  161.2390  207.6330  152.2810 C   0  0  0  0  0  0  0  0  0  0  0  0
  160.5940  207.1670  156.3500 O   0  0  0  0  0  1  0  0  0  0  0  0
  161.1080  206.3920  152.7670 C   0  0  0  0  0  2  0  0  0  0  0  0
  161.0970  206.1550  154.2480 C   0  0  0  0  0  2  0  0  0  0  0  0
  160.7120  209.8320  155.3970 C   0  0  0  0  0  2  0  0  0  0  0  0
  161.9660  210.2120  155.8790 O   0  0  0  0  0  1  0  0  0  0  0  0
  160.6170  210.9620  152.1940 C   0  0  0  0  0  1  0  0  0  0  0  0
  161.6000  210.0470  152.6860 O   0  0  0  0  0  0  0  0  0  0  0  0
  161.2620  208.8070  148.5820 N   0  0  0  0  0  2  0  0  0  0  0  0
  162.0290  211.1170  148.5000 C   0  0  0  0  0  1  0  0  0  0  0  0
  162.4340  209.6730  148.7080 C   0  0  0  0  0  2  0  0  0  0  0  0
  160.7320  206.6910  147.5530 C   0  0  0  0  0  2  0  0  0  0  0  0
  161.4700  206.2020  146.3090 C   0  0  0  0  0  2  0  0  0  0  0  0
  160.5410  205.4100  145.4160 C   0  0  0  0  0  2  0  0  0  0  0  0
  161.1700  204.0780  145.0540 C   0  0  0  0  0  2  0  0  0  0  0  0
  160.6850  202.9960  146.0130 C   0  0  2  0  0  3  0  0  0  0  0  0
  161.5320  201.0270  147.3440 C   0  0  0  0  0  2  0  0  0  0  0  0
  161.8150  202.4850  146.9270 C   0  0  2  0  0  3  0  0  0  0  0  0
  160.8660  203.3080  149.1330 C   0  0  0  0  0  2  0  0  0  0  0  0
  160.4750  201.8600  149.5040 C   0  0  1  0  0  0  0  0  0  0  0  0
  159.1860  201.6430  149.0020 O   0  0  0  0  0  1  0  0  0  0  0  0
  161.4100  200.8150  148.8610 C   0  0  0  0  0  2  0  0  0  0  0  0
  162.0370  203.3950  148.1480 C   0  0  0  0  0  2  0  0  0  0  0  0
  160.4160  201.7040  150.9120 O   0  0  0  0  0  0  0  0  0  0  0  0
  160.9770  202.8330  151.5440 C   0  0  0  0  0  1  0  0  0  0  0  0
  160.1340  201.8790  145.2270 C   0  0  0  0  0  0  0  0  0  0  0  0
  159.7110  200.9890  144.6120 N   0  0  0  0  0  0  0  0  0  0  0  0
  2  1  1  6  0  0  0
  2 16  1  0  0  0  0
  2  3  1  0  0  0  0
  3  4  1  0  0  0  0
  4  8  2  0  0  0  0
  5  7  1  0  0  0  0
  5 12  1  0  0  0  0
  6  5  2  0  0  0  0
  7  9  1  1  0  0  0
  8 10  1  0  0  0  0
  8  6  1  0  0  0  0
 10 11  1  0  0  0  0
 11  7  1  0  0  0  0
 12 13  1  0  0  0  0
 14 15  1  0  0  0  0
 15  6  1  0  0  0  0
 16 18  1  0  0  0  0
 17 18  1  0  0  0  0
 19  2  1  0  0  0  0
 20 19  1  0  0  0  0
 21 20  1  0  0  0  0
 22 21  1  0  0  0  0
 23 22  1  6  0  0  0
 24 29  1  0  0  0  0
 25 23  1  1  0  0  0
 25 24  1  0  0  0  0
 25 30  1  0  0  0  0
 26 27  1  0  0  0  0
 27 28  1  6  0  0  0
 27 31  1  0  0  0  0
 29 27  1  0  0  0  0
 30 26  1  0  0  0  0
 31 32  1  0  0  0  0
 33 23  1  0  0  0  0
 34 33  3  0  0  0  0
M  END
>  <MODEL>
5

>  <REMARK>
 VINA RESULT:      -6.1      3.061      9.802
  Name = 
  15 active torsions:
  status: ('A' for Active; 'I' for Inactive)
    1  A    between atoms: C_1  and  C_7
    2  A    between atoms: C_1  and  C_12
    3  A    between atoms: C_1  and  C_33
    4  A    between atoms: N_2  and  N_24
    5  A    between atoms: N_2  and  C_30
    6  A    between atoms: C_3  and  C_10
    7  A    between atoms: O_4  and  C_17
    8  A    between atoms: C_6  and  O_19
    9  A    between atoms: N_9  and  C_18
   10  A    between atoms: N_9  and  C_30
   11  A    between atoms: C_16  and  C_23
   12  A    between atoms: C_16  and  C_33
   13  A    between atoms: C_20  and  N_24
   14  A    between atoms: C_23  and  C_27
   15  A    between atoms: C_27  and  C_30
                            x       y       z     vdW  Elec       q    Type
                         _______ _______ _______ _____ _____    ______ ____

>  <TORSDO>
F 15

$$$$
=
 OpenBabel11072414143D

 34 35  0  0  1  0  0  0  0  0999 V2000
  159.9890  209.4470  152.8890 O   0  0  0  0  0  1  0  0  0  0  0  0
  161.1210  209.9890  153.5200 C   0  0  1  0  0  0  0  0  0  0  0  0
  160.8380  211.3550  153.9980 N   0  0  0  0  0  2  0  0  0  0  0  0
  159.5730  211.7800  153.5490 N   0  0  0  0  0  2  0  0  0  0  0  0
  156.3560  213.2790  154.6880 C   0  0  0  0  0  0  0  0  0  0  0  0
  157.5460  213.1680  154.0590 C   0  0  0  0  0  0  0  0  0  0  0  0
  155.9670  212.2650  155.7420 C   0  0  2  0  0  3  0  0  0  0  0  0
  158.4870  212.0850  154.4290 C   0  0  0  0  0  0  0  0  0  0  0  0
  155.0670  212.8220  156.6530 O   0  0  0  0  0  1  0  0  0  0  0  0
  158.2840  211.3670  155.5410 C   0  0  0  0  0  3  0  0  0  0  0  0
  157.1890  211.7410  156.4950 C   0  0  0  0  0  2  0  0  0  0  0  0
  155.3350  214.2870  154.2430 C   0  0  0  0  0  2  0  0  0  0  0  0
  154.5470  213.7500  153.2240 O   0  0  0  0  0  1  0  0  0  0  0  0
  157.7030  213.6900  151.6540 C   0  0  0  0  0  1  0  0  0  0  0  0
  157.9110  214.0390  153.0260 O   0  0  0  0  0  0  0  0  0  0  0  0
  161.4860  209.1430  154.6600 N   0  0  0  0  0  2  0  0  0  0  0  0
  160.0010  207.5940  155.8120 C   0  0  0  0  0  1  0  0  0  0  0  0
  160.8390  207.8340  154.5750 C   0  0  0  0  0  2  0  0  0  0  0  0
  162.3240  209.9760  152.5580 C   0  0  0  0  0  2  0  0  0  0  0  0
  161.9350  209.7430  151.1010 C   0  0  0  0  0  2  0  0  0  0  0  0
  162.3840  208.3730  150.6410 C   0  0  0  0  0  2  0  0  0  0  0  0
  161.2020  207.5830  150.1150 C   0  0  0  0  0  2  0  0  0  0  0  0
  161.5830  206.1130  149.9650 C   0  0  2  0  0  3  0  0  0  0  0  0
  161.2060  203.9710  148.6890 C   0  0  0  0  0  2  0  0  0  0  0  0
  160.6260  205.3600  149.0230 C   0  0  2  0  0  3  0  0  0  0  0  0
  161.5220  206.2700  146.8290 C   0  0  0  0  0  2  0  0  0  0  0  0
  162.2040  204.9130  146.5460 C   0  0  1  0  0  0  0  0  0  0  0  0
  163.4800  204.9680  147.1180 O   0  0  0  0  0  1  0  0  0  0  0  0
  161.4510  203.7310  147.1910 C   0  0  0  0  0  2  0  0  0  0  0  0
  160.3020  206.1650  147.7520 C   0  0  0  0  0  2  0  0  0  0  0  0
  162.3700  204.7200  145.1510 O   0  0  0  0  0  0  0  0  0  0  0  0
  161.2530  205.2310  144.4590 C   0  0  0  0  0  1  0  0  0  0  0  0
  161.5730  205.4840  151.2960 C   0  0  0  0  0  0  0  0  0  0  0  0
  161.5510  204.9830  152.3440 N   0  0  0  0  0  0  0  0  0  0  0  0
  2  1  1  6  0  0  0
  2  3  1  0  0  0  0
  2 16  1  0  0  0  0
  4  3  1  0  0  0  0
  4  8  1  0  0  0  0
  5  7  1  0  0  0  0
  6  8  1  0  0  0  0
  6  5  2  0  0  0  0
  7 11  1  0  0  0  0
  7  9  1  1  0  0  0
  8 10  2  0  0  0  0
 10 11  1  0  0  0  0
 12  5  1  0  0  0  0
 13 12  1  0  0  0  0
 14 15  1  0  0  0  0
 15  6  1  0  0  0  0
 18 16  1  0  0  0  0
 18 17  1  0  0  0  0
 19  2  1  0  0  0  0
 20 19  1  0  0  0  0
 21 20  1  0  0  0  0
 22 21  1  0  0  0  0
 23 22  1  1  0  0  0
 23 33  1  0  0  0  0
 24 25  1  0  0  0  0
 25 23  1  1  0  0  0
 26 30  1  0  0  0  0
 27 26  1  0  0  0  0
 27 28  1  1  0  0  0
 27 29  1  0  0  0  0
 29 24  1  0  0  0  0
 30 25  1  0  0  0  0
 31 27  1  0  0  0  0
 32 31  1  0  0  0  0
 33 34  3  0  0  0  0
M  END
>  <MODEL>
6

>  <REMARK>
 VINA RESULT:      -6.1      1.807     10.071
  Name = 
  15 active torsions:
  status: ('A' for Active; 'I' for Inactive)
    1  A    between atoms: C_1  and  C_7
    2  A    between atoms: C_1  and  C_12
    3  A    between atoms: C_1  and  C_33
    4  A    between atoms: N_2  and  N_24
    5  A    between atoms: N_2  and  C_30
    6  A    between atoms: C_3  and  C_10
    7  A    between atoms: O_4  and  C_17
    8  A    between atoms: C_6  and  O_19
    9  A    between atoms: N_9  and  C_18
   10  A    between atoms: N_9  and  C_30
   11  A    between atoms: C_16  and  C_23
   12  A    between atoms: C_16  and  C_33
   13  A    between atoms: C_20  and  N_24
   14  A    between atoms: C_23  and  C_27
   15  A    between atoms: C_27  and  C_30
                            x       y       z     vdW  Elec       q    Type
                         _______ _______ _______ _____ _____    ______ ____

>  <TORSDO>
F 15

$$$$
=
 OpenBabel11072414143D

 34 35  0  0  1  0  0  0  0  0999 V2000
  162.9540  206.4210  152.0340 O   0  0  0  0  0  1  0  0  0  0  0  0
  161.6080  206.3370  152.4280 C   0  0  1  0  0  0  0  0  0  0  0  0
  160.9640  205.1640  151.8090 N   0  0  0  0  0  2  0  0  0  0  0  0
  160.4750  205.4900  150.5300 N   0  0  0  0  0  2  0  0  0  0  0  0
  160.9520  202.9500  147.8440 C   0  0  0  0  0  0  0  0  0  0  0  0
  160.7750  203.4650  149.0810 C   0  0  0  0  0  0  0  0  0  0  0  0
  161.3150  203.8670  146.6960 C   0  0  2  0  0  3  0  0  0  0  0  0
  160.9780  204.9120  149.3220 C   0  0  0  0  0  0  0  0  0  0  0  0
  162.0080  203.1650  145.7070 O   0  0  0  0  0  1  0  0  0  0  0  0
  161.5720  205.6730  148.3940 C   0  0  0  0  0  3  0  0  0  0  0  0
  162.1630  205.0470  147.1660 C   0  0  0  0  0  2  0  0  0  0  0  0
  160.6270  201.5140  147.5480 C   0  0  0  0  0  2  0  0  0  0  0  0
  161.6810  200.6930  147.9520 O   0  0  0  0  0  1  0  0  0  0  0  0
  161.3110  201.9300  150.9350 C   0  0  0  0  0  1  0  0  0  0  0  0
  160.3640  202.6640  150.1530 O   0  0  0  0  0  0  0  0  0  0  0  0
  161.5410  206.2130  153.8880 N   0  0  0  0  0  2  0  0  0  0  0  0
  160.7390  207.2940  155.9170 C   0  0  0  0  0  1  0  0  0  0  0  0
  160.4880  207.0630  154.4430 C   0  0  0  0  0  2  0  0  0  0  0  0
  160.8640  207.6350  152.0620 C   0  0  0  0  0  2  0  0  0  0  0  0
  161.7700  208.7090  151.4680 C   0  0  0  0  0  2  0  0  0  0  0  0
  161.8530  209.9070  152.3890 C   0  0  0  0  0  2  0  0  0  0  0  0
  160.4770  210.5140  152.5860 C   0  0  0  0  0  2  0  0  0  0  0  0
  160.2890  210.9140  154.0460 C   0  0  2  0  0  3  0  0  0  0  0  0
  159.6500  212.7270  155.6780 C   0  0  0  0  0  2  0  0  0  0  0  0
  159.9130  212.4000  154.1940 C   0  0  2  0  0  3  0  0  0  0  0  0
  157.4170  212.1610  153.7960 C   0  0  0  0  0  2  0  0  0  0  0  0
  157.1570  212.3730  155.3050 C   0  0  1  0  0  0  0  0  0  0  0  0
  157.2070  211.1120  155.9100 O   0  0  0  0  0  1  0  0  0  0  0  0
  158.2360  213.2540  155.9690 C   0  0  0  0  0  2  0  0  0  0  0  0
  158.7230  212.7950  153.3020 C   0  0  0  0  0  2  0  0  0  0  0  0
  155.8580  212.8980  155.5180 O   0  0  0  0  0  0  0  0  0  0  0  0
  155.7760  213.4730  156.8020 C   0  0  0  0  0  1  0  0  0  0  0  0
  161.5370  210.6380  154.7770 C   0  0  0  0  0  0  0  0  0  0  0  0
  162.5130  210.4160  155.3660 N   0  0  0  0  0  0  0  0  0  0  0  0
  2  1  1  6  0  0  0
  2 16  1  0  0  0  0
  3  2  1  0  0  0  0
  4  3  1  0  0  0  0
  5  6  2  0  0  0  0
  6  8  1  0  0  0  0
  6 15  1  0  0  0  0
  7  9  1  6  0  0  0
  7 11  1  0  0  0  0
  7  5  1  0  0  0  0
  8  4  1  0  0  0  0
 10  8  2  0  0  0  0
 11 10  1  0  0  0  0
 12  5  1  0  0  0  0
 12 13  1  0  0  0  0
 15 14  1  0  0  0  0
 16 18  1  0  0  0  0
 18 17  1  0  0  0  0
 19  2  1  0  0  0  0
 20 19  1  0  0  0  0
 20 21  1  0  0  0  0
 21 22  1  0  0  0  0
 23 22  1  6  0  0  0
 23 33  1  0  0  0  0
 24 29  1  0  0  0  0
 25 23  1  1  0  0  0
 25 24  1  0  0  0  0
 26 27  1  0  0  0  0
 27 31  1  0  0  0  0
 27 28  1  1  0  0  0
 27 29  1  0  0  0  0
 30 26  1  0  0  0  0
 30 25  1  0  0  0  0
 31 32  1  0  0  0  0
 33 34  3  0  0  0  0
M  END
>  <MODEL>
7

>  <REMARK>
 VINA RESULT:      -5.9      1.152      2.024
  Name = 
  15 active torsions:
  status: ('A' for Active; 'I' for Inactive)
    1  A    between atoms: C_1  and  C_7
    2  A    between atoms: C_1  and  C_12
    3  A    between atoms: C_1  and  C_33
    4  A    between atoms: N_2  and  N_24
    5  A    between atoms: N_2  and  C_30
    6  A    between atoms: C_3  and  C_10
    7  A    between atoms: O_4  and  C_17
    8  A    between atoms: C_6  and  O_19
    9  A    between atoms: N_9  and  C_18
   10  A    between atoms: N_9  and  C_30
   11  A    between atoms: C_16  and  C_23
   12  A    between atoms: C_16  and  C_33
   13  A    between atoms: C_20  and  N_24
   14  A    between atoms: C_23  and  C_27
   15  A    between atoms: C_27  and  C_30
                            x       y       z     vdW  Elec       q    Type
                         _______ _______ _______ _____ _____    ______ ____

>  <TORSDO>
F 15

$$$$
=
 OpenBabel11072414143D

 34 35  0  0  1  0  0  0  0  0999 V2000
  160.4740  206.6830  151.5940 O   0  0  0  0  0  1  0  0  0  0  0  0
  161.8010  206.3490  151.9130 C   0  0  1  0  0  0  0  0  0  0  0  0
  162.1130  204.9850  151.4480 N   0  0  0  0  0  2  0  0  0  0  0  0
  160.9380  204.3210  151.0500 N   0  0  0  0  0  2  0  0  0  0  0  0
  161.4070  203.5350  147.4360 C   0  0  0  0  0  0  0  0  0  0  0  0
  161.2100  204.2640  148.5560 C   0  0  0  0  0  0  0  0  0  0  0  0
  161.2680  202.0280  147.4890 C   0  0  2  0  0  3  0  0  0  0  0  0
  160.8190  203.5990  149.8200 C   0  0  0  0  0  0  0  0  0  0  0  0
  160.9220  201.5220  146.2340 O   0  0  0  0  0  1  0  0  0  0  0  0
  160.4160  202.3210  149.8130 C   0  0  0  0  0  3  0  0  0  0  0  0
  160.2220  201.5960  148.5140 C   0  0  0  0  0  2  0  0  0  0  0  0
  161.9280  204.1690  146.1790 C   0  0  0  0  0  2  0  0  0  0  0  0
  163.2350  204.6190  146.3770 O   0  0  0  0  0  1  0  0  0  0  0  0
  160.4120  206.5410  148.0480 C   0  0  0  0  0  1  0  0  0  0  0  0
  161.4030  205.6510  148.5680 O   0  0  0  0  0  0  0  0  0  0  0  0
  162.7060  207.3020  151.2630 N   0  0  0  0  0  2  0  0  0  0  0  0
  162.3320  209.7000  151.4670 C   0  0  0  0  0  1  0  0  0  0  0  0
  161.9680  208.4400  150.7130 C   0  0  0  0  0  2  0  0  0  0  0  0
  162.0330  206.4850  153.4300 C   0  0  0  0  0  2  0  0  0  0  0  0
  160.8010  206.9600  154.1940 C   0  0  0  0  0  2  0  0  0  0  0  0
  161.1690  208.0540  155.1730 C   0  0  0  0  0  2  0  0  0  0  0  0
  159.9180  208.7200  155.7120 C   0  0  0  0  0  2  0  0  0  0  0  0
  160.2980  209.8340  156.6830 C   0  0  2  0  0  3  0  0  0  0  0  0
  158.1290  210.6880  155.7200 C   0  0  0  0  0  2  0  0  0  0  0  0
  159.3790  211.0620  156.5420 C   0  0  2  0  0  3  0  0  0  0  0  0
  160.4550  212.0540  154.4670 C   0  0  0  0  0  2  0  0  0  0  0  0
  159.2550  211.5780  153.6190 C   0  0  1  0  0  0  0  0  0  0  0  0
  159.5510  210.2810  153.1820 O   0  0  0  0  0  1  0  0  0  0  0  0
  157.9470  211.5100  154.4350 C   0  0  0  0  0  2  0  0  0  0  0  0
  160.1130  212.2760  155.9450 C   0  0  0  0  0  2  0  0  0  0  0  0
  159.1050  212.3910  152.4670 O   0  0  0  0  0  0  0  0  0  0  0  0
  157.8990  213.1170  152.5460 C   0  0  0  0  0  1  0  0  0  0  0  0
  161.6960  210.2220  156.4340 C   0  0  0  0  0  0  0  0  0  0  0  0
  162.8040  210.5150  156.2440 N   0  0  0  0  0  0  0  0  0  0  0  0
  2  1  1  6  0  0  0
  2 19  1  0  0  0  0
  3  2  1  0  0  0  0
  4  3  1  0  0  0  0
  5  7  1  0  0  0  0
  5  6  2  0  0  0  0
  6 15  1  0  0  0  0
  6  8  1  0  0  0  0
  7  9  1  6  0  0  0
  7 11  1  0  0  0  0
  8  4  1  0  0  0  0
 10  8  2  0  0  0  0
 11 10  1  0  0  0  0
 12 13  1  0  0  0  0
 12  5  1  0  0  0  0
 14 15  1  0  0  0  0
 16  2  1  0  0  0  0
 18 16  1  0  0  0  0
 18 17  1  0  0  0  0
 19 20  1  0  0  0  0
 20 21  1  0  0  0  0
 21 22  1  0  0  0  0
 23 22  1  6  0  0  0
 24 25  1  0  0  0  0
 25 23  1  6  0  0  0
 26 30  1  0  0  0  0
 27 28  1  6  0  0  0
 27 29  1  0  0  0  0
 27 26  1  0  0  0  0
 29 24  1  0  0  0  0
 30 25  1  0  0  0  0
 31 32  1  0  0  0  0
 31 27  1  0  0  0  0
 33 23  1  0  0  0  0
 34 33  3  0  0  0  0
M  END
>  <MODEL>
8

>  <REMARK>
 VINA RESULT:      -5.9      1.732      2.580
  Name = 
  15 active torsions:
  status: ('A' for Active; 'I' for Inactive)
    1  A    between atoms: C_1  and  C_7
    2  A    between atoms: C_1  and  C_12
    3  A    between atoms: C_1  and  C_33
    4  A    between atoms: N_2  and  N_24
    5  A    between atoms: N_2  and  C_30
    6  A    between atoms: C_3  and  C_10
    7  A    between atoms: O_4  and  C_17
    8  A    between atoms: C_6  and  O_19
    9  A    between atoms: N_9  and  C_18
   10  A    between atoms: N_9  and  C_30
   11  A    between atoms: C_16  and  C_23
   12  A    between atoms: C_16  and  C_33
   13  A    between atoms: C_20  and  N_24
   14  A    between atoms: C_23  and  C_27
   15  A    between atoms: C_27  and  C_30
                            x       y       z     vdW  Elec       q    Type
                         _______ _______ _______ _____ _____    ______ ____

>  <TORSDO>
F 15

$$$$
=
 OpenBabel11072414143D

 34 35  0  0  1  0  0  0  0  0999 V2000
  158.5210  210.9890  152.7790 O   0  0  0  0  0  1  0  0  0  0  0  0
  159.8850  211.2620  152.9740 C   0  0  1  0  0  0  0  0  0  0  0  0
  160.5040  211.7190  151.7160 N   0  0  0  0  0  2  0  0  0  0  0  0
  160.0760  213.0240  151.4050 N   0  0  0  0  0  2  0  0  0  0  0  0
  158.9160  213.4650  147.8910 C   0  0  0  0  0  0  0  0  0  0  0  0
  159.7360  213.4890  148.9630 C   0  0  0  0  0  0  0  0  0  0  0  0
  157.4340  213.2240  148.0850 C   0  0  2  0  0  3  0  0  0  0  0  0
  159.1840  213.3250  150.3280 C   0  0  0  0  0  0  0  0  0  0  0  0
  156.7010  213.7950  147.0420 O   0  0  0  0  0  1  0  0  0  0  0  0
  157.8620  213.4000  150.5340 C   0  0  0  0  0  3  0  0  0  0  0  0
  156.9430  213.7900  149.4160 C   0  0  0  0  0  2  0  0  0  0  0  0
  159.4650  213.5000  146.4930 C   0  0  0  0  0  2  0  0  0  0  0  0
  159.7790  212.2070  146.0710 O   0  0  0  0  0  1  0  0  0  0  0  0
  161.9670  212.4970  148.6140 C   0  0  0  0  0  1  0  0  0  0  0  0
  161.1210  213.6330  148.8210 O   0  0  0  0  0  0  0  0  0  0  0  0
  160.0250  212.3090  153.9920 N   0  0  0  0  0  2  0  0  0  0  0  0
  160.4060  212.3210  156.3970 C   0  0  0  0  0  1  0  0  0  0  0  0
  159.4910  211.8670  155.2800 C   0  0  0  0  0  2  0  0  0  0  0  0
  160.6030  210.0150  153.5250 C   0  0  0  0  0  2  0  0  0  0  0  0
  161.4880  209.3170  152.4940 C   0  0  0  0  0  2  0  0  0  0  0  0
  160.8170  208.0630  151.9780 C   0  0  0  0  0  2  0  0  0  0  0  0
  161.7910  206.9010  151.9960 C   0  0  0  0  0  2  0  0  0  0  0  0
  161.8170  206.2220  150.6300 C   0  0  2  0  0  3  0  0  0  0  0  0
  160.1470  206.2010  148.7400 C   0  0  0  0  0  2  0  0  0  0  0  0
  161.1290  207.0740  149.5470 C   0  0  2  0  0  3  0  0  0  0  0  0
  162.8810  206.7960  147.7310 C   0  0  0  0  0  2  0  0  0  0  0  0
  161.9440  205.8270  146.9760 C   0  0  1  0  0  0  0  0  0  0  0  0
  162.2070  204.5410  147.4620 O   0  0  0  0  0  1  0  0  0  0  0  0
  160.4530  206.1300  147.2360 C   0  0  0  0  0  2  0  0  0  0  0  0
  162.1410  207.7890  148.6340 C   0  0  0  0  0  2  0  0  0  0  0  0
  162.2380  205.8280  145.5900 O   0  0  0  0  0  0  0  0  0  0  0  0
  161.0960  205.4460  144.8560 C   0  0  0  0  0  1  0  0  0  0  0  0
  161.1480  204.9150  150.7390 C   0  0  0  0  0  0  0  0  0  0  0  0
  160.6070  203.8900  150.8180 N   0  0  0  0  0  0  0  0  0  0  0  0
  2  1  1  6  0  0  0
  2 19  1  0  0  0  0
  2 16  1  0  0  0  0
  3  2  1  0  0  0  0
  4  3  1  0  0  0  0
  5  7  1  0  0  0  0
  5  6  2  0  0  0  0
  6  8  1  0  0  0  0
  7  9  1  6  0  0  0
  7 11  1  0  0  0  0
  8 10  2  0  0  0  0
  8  4  1  0  0  0  0
 11 10  1  0  0  0  0
 12  5  1  0  0  0  0
 13 12  1  0  0  0  0
 14 15  1  0  0  0  0
 15  6  1  0  0  0  0
 16 18  1  0  0  0  0
 18 17  1  0  0  0  0
 20 19  1  0  0  0  0
 21 22  1  0  0  0  0
 21 20  1  0  0  0  0
 23 33  1  1  0  0  0
 23 22  1  0  0  0  0
 24 25  1  0  0  0  0
 25 23  1  1  0  0  0
 26 30  1  0  0  0  0
 27 29  1  0  0  0  0
 27 28  1  1  0  0  0
 27 26  1  0  0  0  0
 29 24  1  0  0  0  0
 30 25  1  0  0  0  0
 31 27  1  0  0  0  0
 32 31  1  0  0  0  0
 33 34  3  0  0  0  0
M  END
>  <MODEL>
9

>  <REMARK>
 VINA RESULT:      -5.9      3.728      8.986
  Name = 
  15 active torsions:
  status: ('A' for Active; 'I' for Inactive)
    1  A    between atoms: C_1  and  C_7
    2  A    between atoms: C_1  and  C_12
    3  A    between atoms: C_1  and  C_33
    4  A    between atoms: N_2  and  N_24
    5  A    between atoms: N_2  and  C_30
    6  A    between atoms: C_3  and  C_10
    7  A    between atoms: O_4  and  C_17
    8  A    between atoms: C_6  and  O_19
    9  A    between atoms: N_9  and  C_18
   10  A    between atoms: N_9  and  C_30
   11  A    between atoms: C_16  and  C_23
   12  A    between atoms: C_16  and  C_33
   13  A    between atoms: C_20  and  N_24
   14  A    between atoms: C_23  and  C_27
   15  A    between atoms: C_27  and  C_30
                            x       y       z     vdW  Elec       q    Type
                         _______ _______ _______ _____ _____    ______ ____

>  <TORSDO>
F 15

$$$$
