=
 OpenBabel11072410213D

 33 38  0  0  1  0  0  0  0  0999 V2000
  161.0040  205.3900  150.5750 C   0  0  0  0  0  0  0  0  0  0  0  0
  161.0610  207.7850  153.3340 N   0  0  0  0  0  0  0  0  0  0  0  0
  162.4210  208.1700  149.7090 C   0  0  1  0  0  3  0  0  0  0  0  0
  160.7570  204.0420  150.4180 C   0  0  0  0  0  0  0  0  0  0  0  0
  161.5140  208.3900  150.9510 C   0  0  2  0  0  3  0  0  0  0  0  0
  160.7270  209.0090  153.6200 C   0  0  0  0  0  0  0  0  0  0  0  0
  160.7440  204.9760  148.2370 C   0  0  0  0  0  2  0  0  0  0  0  0
  161.4730  210.8600  150.4470 C   0  0  0  0  0  2  0  0  0  0  0  0
  163.0990  209.1200  147.6020 O   0  0  0  0  0  1  0  0  0  0  0  0
  159.8400  206.9550  149.2130 O   0  0  0  0  0  1  0  0  0  0  0  0
  161.7660  209.8050  151.4990 C   0  0  1  0  0  3  0  0  0  0  0  0
  162.4130  210.6620  149.2700 C   0  0  0  0  0  2  0  0  0  0  0  0
  162.2560  206.8110  149.0130 C   0  0  0  0  0  2  0  0  0  0  0  0
  160.8140  203.1580  151.4970 C   0  0  0  0  0  3  0  0  0  0  0  0
  161.7420  207.3680  152.0990 C   0  0  2  0  0  3  0  0  0  0  0  0
  160.9500  210.0510  152.6750 N   0  0  0  0  0  2  0  0  0  0  0  0
  161.4590  205.0180  152.9140 C   0  0  0  0  0  3  0  0  0  0  0  0
  161.1660  203.6570  152.7530 C   0  0  0  0  0  3  0  0  0  0  0  0
  162.2080  209.2790  148.6640 C   0  0  2  0  0  3  0  0  0  0  0  0
  160.4860  203.6770  149.0070 C   0  0  1  0  0  3  0  0  0  0  0  0
  161.3790  205.9180  151.8320 C   0  0  0  0  0  0  0  0  0  0  0  0
  160.9380  206.0920  149.2690 C   0  0  1  0  0  0  0  0  0  0  0  0
  161.4390  210.9910  156.1680 C   0  0  0  0  0  2  0  0  0  0  0  0
  158.4570  212.9620  157.2600 O   0  0  0  0  0  1  0  0  0  0  0  0
  160.4990  211.7520  157.0930 C   0  0  0  0  0  2  0  0  0  0  0  0
  158.3830  210.9790  155.9480 C   0  0  0  0  0  2  0  0  0  0  0  0
  158.9530  210.4140  154.6550 C   0  0  0  0  0  2  0  0  0  0  0  0
  159.2140  212.1770  156.3900 C   0  0  1  0  0  3  0  0  0  0  0  0
  160.9750  209.5460  156.0440 C   0  0  0  0  0  2  0  0  0  0  0  0
  159.9940  209.3130  154.8860 C   0  0  2  0  0  3  0  0  0  0  0  0
  162.3230  202.8560  147.6950 O   0  0  0  0  0  0  0  0  0  0  0  0
  161.2490  201.3030  148.9920 O   0  0  0  0  0  1  0  0  0  0  0  0
  161.4070  202.5990  148.5220 C   0  0  0  0  0  0  0  0  0  0  0  0
  1 21  1  0  0  0  0
  2  6  2  0  0  0  0
  3 13  1  6  0  0  0
  3  5  1  0  0  0  0
  4  1  2  0  0  0  0
  4 14  1  0  0  0  0
  5 11  1  0  0  0  0
  5 15  1  0  0  0  0
  6 30  1  0  0  0  0
  7 20  1  0  0  0  0
  7 22  1  0  0  0  0
  8 11  1  0  0  0  0
  9 19  1  0  0  0  0
 10 22  1  0  0  0  0
 11 16  1  0  0  0  0
 12  8  1  0  0  0  0
 13 22  1  0  0  0  0
 14 18  2  0  0  0  0
 15  2  1  0  0  0  0
 16  6  1  0  0  0  0
 18 17  1  0  0  0  0
 19 12  1  0  0  0  0
 19  3  1  0  0  0  0
 20  4  1  0  0  0  0
 21 15  1  0  0  0  0
 21 17  2  0  0  0  0
 22  1  1  0  0  0  0
 23 25  1  0  0  0  0
 26 28  1  0  0  0  0
 27 30  1  0  0  0  0
 27 26  1  0  0  0  0
 28 25  1  0  0  0  0
 28 24  1  0  0  0  0
 29 23  1  0  0  0  0
 30 29  1  0  0  0  0
 31 33  2  0  0  0  0
 33 32  1  0  0  0  0
 33 20  1  0  0  0  0
M  END
>  <MODEL>
1

>  <REMARK>
 VINA RESULT:      -6.4      0.000      0.000
  Name = 
  2 active torsions:
  status: ('A' for Active; 'I' for Inactive)
    1  A    between atoms: C_11  and  C_32
    2  A    between atoms: C_18  and  C_30
                            x       y       z     vdW  Elec       q    Type
                         _______ _______ _______ _____ _____    ______ ____

>  <TORSDO>
F 2

$$$$
=
 OpenBabel11072410213D

 33 38  0  0  1  0  0  0  0  0999 V2000
  161.2850  209.0100  154.0020 C   0  0  0  0  0  0  0  0  0  0  0  0
  161.0880  206.5180  151.3370 N   0  0  0  0  0  0  0  0  0  0  0  0
  160.8800  210.3960  151.1040 C   0  0  1  0  0  3  0  0  0  0  0  0
  161.2250  209.0160  155.3800 C   0  0  0  0  0  0  0  0  0  0  0  0
  161.4490  208.9600  150.9410 C   0  0  2  0  0  3  0  0  0  0  0  0
  161.6240  206.2140  150.1920 C   0  0  0  0  0  0  0  0  0  0  0  0
  162.0480  211.1480  154.7440 C   0  0  0  0  0  2  0  0  0  0  0  0
  162.2310  209.5630  148.6210 C   0  0  0  0  0  2  0  0  0  0  0  0
  161.0440  212.6570  150.2900 O   0  0  0  0  0  1  0  0  0  0  0  0
  163.1180  210.0630  152.9100 O   0  0  0  0  0  1  0  0  0  0  0  0
  161.4170  208.5840  149.4490 C   0  0  1  0  0  3  0  0  0  0  0  0
  161.6200  210.9480  148.7480 C   0  0  0  0  0  2  0  0  0  0  0  0
  160.8850  210.9410  152.5390 C   0  0  0  0  0  2  0  0  0  0  0  0
  160.6670  207.9530  156.0920 C   0  0  0  0  0  3  0  0  0  0  0  0
  160.6790  207.8720  151.7400 C   0  0  2  0  0  3  0  0  0  0  0  0
  161.9250  207.2390  149.2490 N   0  0  0  0  0  2  0  0  0  0  0  0
  160.1470  206.8840  153.9780 C   0  0  0  0  0  3  0  0  0  0  0  0
  160.1270  206.8800  155.3790 C   0  0  0  0  0  3  0  0  0  0  0  0
  161.6310  211.3940  150.2040 C   0  0  2  0  0  3  0  0  0  0  0  0
  161.7640  210.2680  155.9650 C   0  0  1  0  0  3  0  0  0  0  0  0
  160.7310  207.9450  153.2560 C   0  0  0  0  0  0  0  0  0  0  0  0
  161.8670  210.2780  153.4960 C   0  0  1  0  0  0  0  0  0  0  0  0
  160.4810  203.3020  151.2590 C   0  0  0  0  0  2  0  0  0  0  0  0
  160.2140  200.8200  148.4790 O   0  0  0  0  0  1  0  0  0  0  0  0
  160.4680  201.9510  150.5560 C   0  0  0  0  0  2  0  0  0  0  0  0
  161.5340  202.7990  148.4270 C   0  0  0  0  0  2  0  0  0  0  0  0
  161.3890  204.3010  148.6170 C   0  0  0  0  0  2  0  0  0  0  0  0
  160.3340  202.0890  149.0420 C   0  0  1  0  0  3  0  0  0  0  0  0
  161.8680  203.9230  151.1480 C   0  0  0  0  0  2  0  0  0  0  0  0
  162.0450  204.8090  149.9070 C   0  0  2  0  0  3  0  0  0  0  0  0
  159.7420  210.3240  157.2600 O   0  0  0  0  0  0  0  0  0  0  0  0
  160.9830  212.2500  157.2610 O   0  0  0  0  0  1  0  0  0  0  0  0
  160.7680  210.9380  156.8620 C   0  0  0  0  0  0  0  0  0  0  0  0
  1  4  1  0  0  0  0
  2 15  1  0  0  0  0
  3 13  1  1  0  0  0
  4 20  1  0  0  0  0
  4 14  2  0  0  0  0
  5  3  1  0  0  0  0
  5 15  1  0  0  0  0
  6  2  2  0  0  0  0
  7 20  1  0  0  0  0
  8 12  1  0  0  0  0
  8 11  1  0  0  0  0
 10 22  1  0  0  0  0
 11  5  1  0  0  0  0
 12 19  1  0  0  0  0
 13 22  1  0  0  0  0
 15 21  1  0  0  0  0
 16 11  1  0  0  0  0
 16  6  1  0  0  0  0
 17 18  2  0  0  0  0
 18 14  1  0  0  0  0
 19  9  1  0  0  0  0
 19  3  1  0  0  0  0
 20 33  1  0  0  0  0
 21 17  1  0  0  0  0
 21  1  2  0  0  0  0
 22  1  1  0  0  0  0
 22  7  1  0  0  0  0
 24 28  1  0  0  0  0
 25 23  1  0  0  0  0
 26 27  1  0  0  0  0
 26 28  1  0  0  0  0
 27 30  1  0  0  0  0
 28 25  1  0  0  0  0
 29 23  1  0  0  0  0
 30  6  1  0  0  0  0
 30 29  1  0  0  0  0
 33 31  2  0  0  0  0
 33 32  1  0  0  0  0
M  END
>  <MODEL>
2

>  <REMARK>
 VINA RESULT:      -5.2      2.081      7.660
  Name = 
  2 active torsions:
  status: ('A' for Active; 'I' for Inactive)
    1  A    between atoms: C_11  and  C_32
    2  A    between atoms: C_18  and  C_30
                            x       y       z     vdW  Elec       q    Type
                         _______ _______ _______ _____ _____    ______ ____

>  <TORSDO>
F 2

$$$$
=
 OpenBabel11072410213D

 33 38  0  0  1  0  0  0  0  0999 V2000
  161.4090  205.6580  150.8490 C   0  0  0  0  0  0  0  0  0  0  0  0
  161.1660  209.2660  150.3210 N   0  0  0  0  0  0  0  0  0  0  0  0
  160.6090  207.2100  153.5770 C   0  0  1  0  0  3  0  0  0  0  0  0
  161.4820  204.5290  150.0620 C   0  0  0  0  0  0  0  0  0  0  0  0
  161.2790  208.1900  152.5750 C   0  0  2  0  0  3  0  0  0  0  0  0
  161.6130  210.3920  150.7940 C   0  0  0  0  0  0  0  0  0  0  0  0
  162.0560  203.8420  152.2580 C   0  0  0  0  0  2  0  0  0  0  0  0
  161.7780  209.7580  154.4850 C   0  0  0  0  0  2  0  0  0  0  0  0
  160.5010  206.5730  155.8980 O   0  0  0  0  0  1  0  0  0  0  0  0
  163.0320  205.9970  152.5560 O   0  0  0  0  0  1  0  0  0  0  0  0
  161.1340  209.6230  153.1160 C   0  0  1  0  0  3  0  0  0  0  0  0
  161.0670  208.8360  155.4610 C   0  0  0  0  0  2  0  0  0  0  0  0
  160.7060  205.7240  153.2010 C   0  0  0  0  0  2  0  0  0  0  0  0
  161.0880  204.5460  148.7230 C   0  0  0  0  0  3  0  0  0  0  0  0
  160.6850  208.1430  151.1400 C   0  0  2  0  0  3  0  0  0  0  0  0
  161.7330  210.5790  152.2020 N   0  0  0  0  0  2  0  0  0  0  0  0
  160.4580  206.8720  148.9950 C   0  0  0  0  0  3  0  0  0  0  0  0
  160.5740  205.7300  148.1900 C   0  0  0  0  0  3  0  0  0  0  0  0
  161.1820  207.3910  154.9940 C   0  0  2  0  0  3  0  0  0  0  0  0
  161.9670  203.3450  150.8120 C   0  0  1  0  0  3  0  0  0  0  0  0
  160.8780  206.8660  150.3410 C   0  0  0  0  0  0  0  0  0  0  0  0
  161.8300  205.3570  152.2400 C   0  0  1  0  0  0  0  0  0  0  0  0
  161.2140  210.8690  147.5480 C   0  0  0  0  0  2  0  0  0  0  0  0
  160.5160  214.4530  146.7540 O   0  0  0  0  0  1  0  0  0  0  0  0
  161.1860  212.1710  146.7580 C   0  0  0  0  0  2  0  0  0  0  0  0
  161.4910  213.6620  148.7740 C   0  0  0  0  0  2  0  0  0  0  0  0
  161.2060  212.6780  149.9000 C   0  0  0  0  0  2  0  0  0  0  0  0
  160.6170  213.3290  147.5720 C   0  0  1  0  0  3  0  0  0  0  0  0
  162.4180  210.8630  148.4810 C   0  0  0  0  0  2  0  0  0  0  0  0
  162.1220  211.4490  149.8690 C   0  0  2  0  0  3  0  0  0  0  0  0
  160.0250  202.1110  151.5010 O   0  0  0  0  0  1  0  0  0  0  0  0
  161.2130  201.2140  149.7590 O   0  0  0  0  0  0  0  0  0  0  0  0
  161.0100  202.1960  150.7200 C   0  0  0  0  0  0  0  0  0  0  0  0
  1 22  1  0  0  0  0
  2  6  2  0  0  0  0
  2 15  1  0  0  0  0
  3 13  1  6  0  0  0
  3 19  1  0  0  0  0
  4 20  1  0  0  0  0
  4  1  2  0  0  0  0
  5 11  1  0  0  0  0
  5  3  1  0  0  0  0
  6 16  1  0  0  0  0
  8 12  1  0  0  0  0
 11  8  1  0  0  0  0
 14  4  1  0  0  0  0
 15  5  1  0  0  0  0
 16 11  1  0  0  0  0
 17 21  2  0  0  0  0
 18 14  2  0  0  0  0
 18 17  1  0  0  0  0
 19 12  1  0  0  0  0
 19  9  1  0  0  0  0
 20  7  1  0  0  0  0
 21  1  1  0  0  0  0
 21 15  1  0  0  0  0
 22  7  1  0  0  0  0
 22 10  1  0  0  0  0
 22 13  1  0  0  0  0
 23 29  1  0  0  0  0
 24 28  1  0  0  0  0
 25 23  1  0  0  0  0
 25 28  1  0  0  0  0
 26 27  1  0  0  0  0
 28 26  1  0  0  0  0
 29 30  1  0  0  0  0
 30 27  1  0  0  0  0
 30  6  1  0  0  0  0
 32 33  2  0  0  0  0
 33 20  1  0  0  0  0
 33 31  1  0  0  0  0
M  END
>  <MODEL>
3

>  <REMARK>
 VINA RESULT:      -5.1      2.481      5.445
  Name = 
  2 active torsions:
  status: ('A' for Active; 'I' for Inactive)
    1  A    between atoms: C_11  and  C_32
    2  A    between atoms: C_18  and  C_30
                            x       y       z     vdW  Elec       q    Type
                         _______ _______ _______ _____ _____    ______ ____

>  <TORSDO>
F 2

$$$$
=
 OpenBabel11072410213D

 33 38  0  0  1  0  0  0  0  0999 V2000
  161.4700  208.8190  153.4490 C   0  0  0  0  0  0  0  0  0  0  0  0
  161.5060  207.3370  150.1090 N   0  0  0  0  0  0  0  0  0  0  0  0
  160.7220  210.9960  151.1720 C   0  0  1  0  0  3  0  0  0  0  0  0
  161.4780  208.3650  154.7510 C   0  0  0  0  0  0  0  0  0  0  0  0
  161.4860  209.7990  150.5430 C   0  0  2  0  0  3  0  0  0  0  0  0
  162.0230  207.5110  148.9290 C   0  0  0  0  0  0  0  0  0  0  0  0
  161.9490  210.6880  154.8570 C   0  0  0  0  0  2  0  0  0  0  0  0
  162.0540  211.2410  148.5540 C   0  0  0  0  0  2  0  0  0  0  0  0
  160.5130  213.3960  151.1520 O   0  0  0  0  0  1  0  0  0  0  0  0
  163.0730  210.4410  152.7690 O   0  0  0  0  0  1  0  0  0  0  0  0
  161.4350  209.9310  149.0110 C   0  0  1  0  0  3  0  0  0  0  0  0
  161.2540  212.3960  149.1320 C   0  0  0  0  0  2  0  0  0  0  0  0
  160.7190  211.0360  152.7070 C   0  0  0  0  0  2  0  0  0  0  0  0
  161.1180  207.0550  155.0700 C   0  0  0  0  0  3  0  0  0  0  0  0
  160.9240  208.4040  150.9360 C   0  0  2  0  0  3  0  0  0  0  0  0
  162.1230  208.8210  148.3780 N   0  0  0  0  0  2  0  0  0  0  0  0
  160.6550  206.6690  152.7210 C   0  0  0  0  0  3  0  0  0  0  0  0
  160.7050  206.2040  154.0420 C   0  0  0  0  0  3  0  0  0  0  0  0
  161.2730  212.3370  150.6530 C   0  0  2  0  0  3  0  0  0  0  0  0
  161.8570  209.4240  155.7180 C   0  0  1  0  0  3  0  0  0  0  0  0
  161.0410  207.9840  152.3910 C   0  0  0  0  0  0  0  0  0  0  0  0
  161.8340  210.2560  153.3910 C   0  0  1  0  0  0  0  0  0  0  0  0
  161.0600  204.3710  148.5530 C   0  0  0  0  0  2  0  0  0  0  0  0
  161.4650  203.2150  145.0230 O   0  0  0  0  0  1  0  0  0  0  0  0
  161.2940  203.4210  147.3870 C   0  0  0  0  0  2  0  0  0  0  0  0
  162.5570  205.0980  145.9820 C   0  0  0  0  0  2  0  0  0  0  0  0
  162.2260  206.3890  146.7160 C   0  0  0  0  0  2  0  0  0  0  0  0
  161.3640  204.1520  146.0500 C   0  0  1  0  0  3  0  0  0  0  0  0
  162.3720  205.0410  148.9380 C   0  0  0  0  0  2  0  0  0  0  0  0
  162.6300  206.3600  148.1950 C   0  0  2  0  0  3  0  0  0  0  0  0
  160.5660  210.7430  157.2540 O   0  0  0  0  0  0  0  0  0  0  0  0
  160.1330  208.4930  157.2610 O   0  0  0  0  0  1  0  0  0  0  0  0
  160.8210  209.6010  156.7850 C   0  0  0  0  0  0  0  0  0  0  0  0
  1  4  1  0  0  0  0
  2 15  1  0  0  0  0
  3 13  1  1  0  0  0
  4 14  2  0  0  0  0
  4 20  1  0  0  0  0
  5 15  1  0  0  0  0
  5  3  1  0  0  0  0
  6  2  2  0  0  0  0
  7 20  1  0  0  0  0
  8 11  1  0  0  0  0
  8 12  1  0  0  0  0
 10 22  1  0  0  0  0
 11  5  1  0  0  0  0
 12 19  1  0  0  0  0
 13 22  1  0  0  0  0
 15 21  1  0  0  0  0
 16  6  1  0  0  0  0
 16 11  1  0  0  0  0
 17 18  2  0  0  0  0
 18 14  1  0  0  0  0
 19  9  1  0  0  0  0
 19  3  1  0  0  0  0
 20 33  1  0  0  0  0
 21 17  1  0  0  0  0
 21  1  2  0  0  0  0
 22  1  1  0  0  0  0
 22  7  1  0  0  0  0
 23 29  1  0  0  0  0
 24 28  1  0  0  0  0
 25 23  1  0  0  0  0
 26 28  1  0  0  0  0
 26 27  1  0  0  0  0
 27 30  1  0  0  0  0
 28 25  1  0  0  0  0
 30  6  1  0  0  0  0
 30 29  1  0  0  0  0
 33 31  2  0  0  0  0
 33 32  1  0  0  0  0
M  END
>  <MODEL>
4

>  <REMARK>
 VINA RESULT:      -4.9      2.505      7.734
  Name = 
  2 active torsions:
  status: ('A' for Active; 'I' for Inactive)
    1  A    between atoms: C_11  and  C_32
    2  A    between atoms: C_18  and  C_30
                            x       y       z     vdW  Elec       q    Type
                         _______ _______ _______ _____ _____    ______ ____

>  <TORSDO>
F 2

$$$$
=
 OpenBabel11072410213D

 33 38  0  0  1  0  0  0  0  0999 V2000
  161.1350  204.5770  147.3110 C   0  0  0  0  0  0  0  0  0  0  0  0
  161.1800  207.8490  148.9380 N   0  0  0  0  0  0  0  0  0  0  0  0
  160.4910  204.3420  150.4760 C   0  0  1  0  0  3  0  0  0  0  0  0
  161.1080  204.0970  146.0190 C   0  0  0  0  0  0  0  0  0  0  0  0
  161.2290  205.6760  150.1720 C   0  0  2  0  0  3  0  0  0  0  0  0
  161.7210  208.4740  149.9410 C   0  0  0  0  0  0  0  0  0  0  0  0
  161.6480  202.2460  147.4020 C   0  0  0  0  0  2  0  0  0  0  0  0
  161.8720  205.8410  152.6050 C   0  0  0  0  0  2  0  0  0  0  0  0
  160.3560  202.5040  152.0270 O   0  0  0  0  0  1  0  0  0  0  0  0
  162.7970  203.7830  148.8160 O   0  0  0  0  0  1  0  0  0  0  0  0
  161.2060  206.5500  151.4380 C   0  0  1  0  0  3  0  0  0  0  0  0
  161.0990  204.5720  152.9220 C   0  0  0  0  0  2  0  0  0  0  0  0
  160.4640  203.3330  149.3190 C   0  0  0  0  0  2  0  0  0  0  0  0
  160.7030  204.8980  144.9500 C   0  0  0  0  0  3  0  0  0  0  0  0
  160.6180  206.4920  148.9990 C   0  0  2  0  0  3  0  0  0  0  0  0
  161.8700  207.8180  151.1970 N   0  0  0  0  0  2  0  0  0  0  0  0
  160.2660  206.6860  146.5280 C   0  0  0  0  0  3  0  0  0  0  0  0
  160.2810  206.2030  145.2130 C   0  0  0  0  0  3  0  0  0  0  0  0
  161.0910  203.6480  151.7120 C   0  0  2  0  0  3  0  0  0  0  0  0
  161.5030  202.6700  145.9370 C   0  0  1  0  0  3  0  0  0  0  0  0
  160.6980  205.8890  147.6070 C   0  0  0  0  0  0  0  0  0  0  0  0
  161.5440  203.5120  148.2590 C   0  0  1  0  0  0  0  0  0  0  0  0
  161.2050  210.8060  147.6560 C   0  0  0  0  0  2  0  0  0  0  0  0
  160.9130  214.2010  149.1880 O   0  0  0  0  0  1  0  0  0  0  0  0
  161.2940  212.3210  147.7820 C   0  0  0  0  0  2  0  0  0  0  0  0
  161.8930  212.3050  150.2370 C   0  0  0  0  0  2  0  0  0  0  0  0
  161.5510  210.8680  150.6020 C   0  0  0  0  0  2  0  0  0  0  0  0
  160.9190  212.8070  149.1780 C   0  0  1  0  0  3  0  0  0  0  0  0
  162.4490  210.1680  148.2610 C   0  0  0  0  0  2  0  0  0  0  0  0
  162.3050  209.8370  149.7530 C   0  0  2  0  0  3  0  0  0  0  0  0
  159.5770  202.3740  144.5330 O   0  0  0  0  0  0  0  0  0  0  0  0
  160.4560  200.4620  145.4390 O   0  0  0  0  0  1  0  0  0  0  0  0
  160.4560  201.8390  145.2610 C   0  0  0  0  0  0  0  0  0  0  0  0
  1 21  1  0  0  0  0
  1 22  1  0  0  0  0
  2 15  1  0  0  0  0
  2  6  2  0  0  0  0
  3 13  1  6  0  0  0
  3 19  1  0  0  0  0
  4  1  2  0  0  0  0
  5  3  1  0  0  0  0
  5 11  1  0  0  0  0
  6 16  1  0  0  0  0
  7 22  1  0  0  0  0
  8 12  1  0  0  0  0
 11  8  1  0  0  0  0
 14 18  2  0  0  0  0
 14  4  1  0  0  0  0
 15  5  1  0  0  0  0
 16 11  1  0  0  0  0
 17 21  2  0  0  0  0
 18 17  1  0  0  0  0
 19  9  1  0  0  0  0
 19 12  1  0  0  0  0
 20  4  1  0  0  0  0
 20  7  1  0  0  0  0
 21 15  1  0  0  0  0
 22 10  1  0  0  0  0
 22 13  1  0  0  0  0
 23 25  1  0  0  0  0
 23 29  1  0  0  0  0
 25 28  1  0  0  0  0
 26 27  1  0  0  0  0
 28 24  1  0  0  0  0
 28 26  1  0  0  0  0
 29 30  1  0  0  0  0
 30  6  1  0  0  0  0
 30 27  1  0  0  0  0
 31 33  2  0  0  0  0
 33 32  1  0  0  0  0
 33 20  1  0  0  0  0
M  END
>  <MODEL>
5

>  <REMARK>
 VINA RESULT:      -4.8      3.468      5.644
  Name = 
  2 active torsions:
  status: ('A' for Active; 'I' for Inactive)
    1  A    between atoms: C_11  and  C_32
    2  A    between atoms: C_18  and  C_30
                            x       y       z     vdW  Elec       q    Type
                         _______ _______ _______ _____ _____    ______ ____

>  <TORSDO>
F 2

$$$$
=
 OpenBabel11072410213D

 33 38  0  0  1  0  0  0  0  0999 V2000
  160.9580  206.0290  151.6750 C   0  0  0  0  0  0  0  0  0  0  0  0
  161.0840  209.2540  153.3890 N   0  0  0  0  0  0  0  0  0  0  0  0
  162.4410  208.2770  149.8760 C   0  0  1  0  0  3  0  0  0  0  0  0
  160.6780  204.7220  152.0100 C   0  0  0  0  0  0  0  0  0  0  0  0
  161.5440  208.9510  150.9500 C   0  0  2  0  0  3  0  0  0  0  0  0
  160.7820  210.5070  153.2150 C   0  0  0  0  0  0  0  0  0  0  0  0
  160.6790  204.8100  149.6400 C   0  0  0  0  0  2  0  0  0  0  0  0
  161.5620  211.0760  149.5930 C   0  0  0  0  0  2  0  0  0  0  0  0
  163.1350  208.3910  147.5720 O   0  0  0  0  0  1  0  0  0  0  0  0
  159.8290  207.0290  149.8340 O   0  0  0  0  0  1  0  0  0  0  0  0
  161.8330  210.4620  150.9550 C   0  0  1  0  0  3  0  0  0  0  0  0
  162.4930  210.4450  148.5710 C   0  0  0  0  0  2  0  0  0  0  0  0
  162.2400  206.7640  149.7130 C   0  0  0  0  0  2  0  0  0  0  0  0
  160.7150  204.2840  153.3350 C   0  0  0  0  0  3  0  0  0  0  0  0
  161.7500  208.4050  152.3900 C   0  0  2  0  0  3  0  0  0  0  0  0
  161.0270  211.1340  151.9590 N   0  0  0  0  0  2  0  0  0  0  0  0
  161.4120  206.5120  153.9930 C   0  0  0  0  0  3  0  0  0  0  0  0
  161.0850  205.1910  154.3310 C   0  0  0  0  0  3  0  0  0  0  0  0
  162.2520  208.9430  148.5010 C   0  0  2  0  0  3  0  0  0  0  0  0
  160.3920  203.8810  150.8230 C   0  0  1  0  0  3  0  0  0  0  0  0
  161.3500  206.9640  152.6600 C   0  0  0  0  0  0  0  0  0  0  0  0
  160.9050  206.2170  150.2030 C   0  0  1  0  0  0  0  0  0  0  0  0
  157.9200  212.1610  153.2060 C   0  0  0  0  0  2  0  0  0  0  0  0
  155.8910  211.4280  156.2570 O   0  0  0  0  0  1  0  0  0  0  0  0
  156.9260  212.3800  154.3380 C   0  0  0  0  0  2  0  0  0  0  0  0
  158.2280  211.0420  156.0400 C   0  0  0  0  0  2  0  0  0  0  0  0
  159.2110  210.3130  155.1350 C   0  0  0  0  0  2  0  0  0  0  0  0
  156.8980  211.2110  155.3170 C   0  0  1  0  0  3  0  0  0  0  0  0
  159.3280  212.4770  153.6930 C   0  0  0  0  0  2  0  0  0  0  0  0
  160.0600  211.2630  154.2830 C   0  0  2  0  0  3  0  0  0  0  0  0
  162.2360  202.5400  151.5780 O   0  0  0  0  0  1  0  0  0  0  0  0
  161.0580  201.7070  149.7980 O   0  0  0  0  0  0  0  0  0  0  0  0
  161.2850  202.6790  150.7630 C   0  0  0  0  0  0  0  0  0  0  0  0
  1  4  2  0  0  0  0
  1 21  1  0  0  0  0
  3 13  1  6  0  0  0
  3  5  1  0  0  0  0
  4 14  1  0  0  0  0
  5 11  1  0  0  0  0
  5 15  1  0  0  0  0
  6  2  2  0  0  0  0
  6 30  1  0  0  0  0
  7 22  1  0  0  0  0
  7 20  1  0  0  0  0
  8 11  1  0  0  0  0
  9 19  1  0  0  0  0
 10 22  1  0  0  0  0
 11 16  1  0  0  0  0
 12  8  1  0  0  0  0
 13 22  1  0  0  0  0
 14 18  2  0  0  0  0
 15 21  1  0  0  0  0
 15  2  1  0  0  0  0
 16  6  1  0  0  0  0
 17 18  1  0  0  0  0
 19 12  1  0  0  0  0
 19  3  1  0  0  0  0
 20  4  1  0  0  0  0
 21 17  2  0  0  0  0
 22  1  1  0  0  0  0
 23 29  1  0  0  0  0
 23 25  1  0  0  0  0
 25 28  1  0  0  0  0
 27 26  1  0  0  0  0
 28 26  1  0  0  0  0
 28 24  1  0  0  0  0
 29 30  1  0  0  0  0
 30 27  1  0  0  0  0
 32 33  2  0  0  0  0
 33 20  1  0  0  0  0
 33 31  1  0  0  0  0
M  END
>  <MODEL>
6

>  <REMARK>
 VINA RESULT:      -4.3      1.411      2.060
  Name = 
  2 active torsions:
  status: ('A' for Active; 'I' for Inactive)
    1  A    between atoms: C_11  and  C_32
    2  A    between atoms: C_18  and  C_30
                            x       y       z     vdW  Elec       q    Type
                         _______ _______ _______ _____ _____    ______ ____

>  <TORSDO>
F 2

$$$$
=
 OpenBabel11072410213D

 33 38  0  0  1  0  0  0  0  0999 V2000
  161.4710  205.2430  147.4640 C   0  0  0  0  0  0  0  0  0  0  0  0
  161.0080  206.0420  151.0000 N   0  0  0  0  0  0  0  0  0  0  0  0
  160.5320  202.6480  149.1590 C   0  0  1  0  0  3  0  0  0  0  0  0
  161.6280  205.9430  146.2860 C   0  0  0  0  0  0  0  0  0  0  0  0
  161.1540  203.7130  150.1030 C   0  0  2  0  0  3  0  0  0  0  0  0
  161.3750  205.6500  152.1830 C   0  0  0  0  0  0  0  0  0  0  0  0
  162.2110  203.6950  145.8020 C   0  0  0  0  0  2  0  0  0  0  0  0
  161.5220  201.9200  151.8370 C   0  0  0  0  0  2  0  0  0  0  0  0
  160.4280  200.2870  148.6900 O   0  0  0  0  0  1  0  0  0  0  0  0
  163.0430  203.5490  148.0320 O   0  0  0  0  0  1  0  0  0  0  0  0
  160.9100  203.2820  151.5590 C   0  0  1  0  0  3  0  0  0  0  0  0
  160.8560  200.8860  150.9450 C   0  0  0  0  0  2  0  0  0  0  0  0
  160.7290  202.9100  147.6580 C   0  0  0  0  0  2  0  0  0  0  0  0
  161.2550  207.2830  146.1780 C   0  0  0  0  0  3  0  0  0  0  0  0
  160.5870  205.1470  149.9110 C   0  0  2  0  0  3  0  0  0  0  0  0
  161.4610  204.2590  152.4810 N   0  0  0  0  0  2  0  0  0  0  0  0
  160.4740  207.1930  148.4720 C   0  0  0  0  0  3  0  0  0  0  0  0
  160.6750  207.9090  147.2850 C   0  0  0  0  0  3  0  0  0  0  0  0
  161.0700  201.2420  149.4800 C   0  0  2  0  0  3  0  0  0  0  0  0
  162.1760  205.1010  145.1950 C   0  0  1  0  0  3  0  0  0  0  0  0
  160.8730  205.8460  148.5930 C   0  0  0  0  0  0  0  0  0  0  0  0
  161.8890  203.8290  147.2940 C   0  0  1  0  0  0  0  0  0  0  0  0
  160.7320  208.8690  152.5680 C   0  0  0  0  0  2  0  0  0  0  0  0
  160.0440  209.7240  156.1400 O   0  0  0  0  0  1  0  0  0  0  0  0
  160.6680  209.6970  153.8440 C   0  0  0  0  0  2  0  0  0  0  0  0
  161.1590  207.7600  155.3910 C   0  0  0  0  0  2  0  0  0  0  0  0
  160.9440  206.5850  154.4490 C   0  0  0  0  0  2  0  0  0  0  0  0
  160.1870  208.8800  155.0390 C   0  0  1  0  0  3  0  0  0  0  0  0
  162.0050  208.0330  152.5650 C   0  0  0  0  0  2  0  0  0  0  0  0
  161.8300  206.6460  153.2000 C   0  0  2  0  0  3  0  0  0  0  0  0
  161.6190  205.7770  142.9590 O   0  0  0  0  0  0  0  0  0  0  0  0
  160.1110  204.3940  143.9890 O   0  0  0  0  0  1  0  0  0  0  0  0
  161.2960  205.1170  143.9830 C   0  0  0  0  0  0  0  0  0  0  0  0
  1 21  1  0  0  0  0
  2  6  2  0  0  0  0
  3 13  1  6  0  0  0
  3 19  1  0  0  0  0
  3  5  1  0  0  0  0
  4  1  2  0  0  0  0
  5 11  1  0  0  0  0
  6 16  1  0  0  0  0
  6 30  1  0  0  0  0
  7 22  1  0  0  0  0
  9 19  1  0  0  0  0
 11  8  1  0  0  0  0
 11 16  1  0  0  0  0
 12  8  1  0  0  0  0
 14  4  1  0  0  0  0
 14 18  2  0  0  0  0
 15  5  1  0  0  0  0
 15  2  1  0  0  0  0
 17 21  2  0  0  0  0
 18 17  1  0  0  0  0
 19 12  1  0  0  0  0
 20  7  1  0  0  0  0
 20  4  1  0  0  0  0
 21 15  1  0  0  0  0
 22  1  1  0  0  0  0
 22 13  1  0  0  0  0
 22 10  1  0  0  0  0
 23 25  1  0  0  0  0
 25 28  1  0  0  0  0
 27 26  1  0  0  0  0
 28 26  1  0  0  0  0
 28 24  1  0  0  0  0
 29 23  1  0  0  0  0
 29 30  1  0  0  0  0
 30 27  1  0  0  0  0
 31 33  2  0  0  0  0
 33 32  1  0  0  0  0
 33 20  1  0  0  0  0
M  END
>  <MODEL>
7

>  <REMARK>
 VINA RESULT:      -4.3      2.469      5.413
  Name = 
  2 active torsions:
  status: ('A' for Active; 'I' for Inactive)
    1  A    between atoms: C_11  and  C_32
    2  A    between atoms: C_18  and  C_30
                            x       y       z     vdW  Elec       q    Type
                         _______ _______ _______ _____ _____    ______ ____

>  <TORSDO>
F 2

$$$$
=
 OpenBabel11072410213D

 33 38  0  0  1  0  0  0  0  0999 V2000
  161.5730  209.5610  150.4350 C   0  0  0  0  0  0  0  0  0  0  0  0
  161.6260  206.0260  151.3580 N   0  0  0  0  0  0  0  0  0  0  0  0
  162.1680  209.1630  153.5940 C   0  0  1  0  0  3  0  0  0  0  0  0
  161.5980  210.2980  149.2700 C   0  0  0  0  0  0  0  0  0  0  0  0
  161.4830  207.8970  153.0090 C   0  0  2  0  0  3  0  0  0  0  0  0
  161.0950  205.1910  152.2010 C   0  0  0  0  0  0  0  0  0  0  0  0
  160.9750  211.8060  150.9910 C   0  0  0  0  0  2  0  0  0  0  0  0
  160.8160  207.2160  155.3430 C   0  0  0  0  0  2  0  0  0  0  0  0
  162.2180  210.6480  155.4900 O   0  0  0  0  0  1  0  0  0  0  0  0
  159.8640  209.9750  152.0390 O   0  0  0  0  0  1  0  0  0  0  0  0
  161.5220  206.7840  154.0700 C   0  0  1  0  0  3  0  0  0  0  0  0
  161.5390  208.4170  155.9280 C   0  0  0  0  0  2  0  0  0  0  0  0
  162.1730  210.3890  152.6680 C   0  0  0  0  0  2  0  0  0  0  0  0
  162.0450  209.7470  148.0670 C   0  0  0  0  0  3  0  0  0  0  0  0
  162.1380  207.3600  151.7060 C   0  0  2  0  0  3  0  0  0  0  0  0
  160.9070  205.5710  153.5620 N   0  0  0  0  0  2  0  0  0  0  0  0
  162.5260  207.6880  149.2550 C   0  0  0  0  0  3  0  0  0  0  0  0
  162.5100  208.4290  148.0660 C   0  0  0  0  0  3  0  0  0  0  0  0
  161.5280  209.5700  154.9330 C   0  0  2  0  0  3  0  0  0  0  0  0
  161.1530  211.6970  149.4730 C   0  0  1  0  0  3  0  0  0  0  0  0
  162.0530  208.2320  150.4660 C   0  0  0  0  0  0  0  0  0  0  0  0
  161.1140  210.3960  151.5740 C   0  0  1  0  0  0  0  0  0  0  0  0
  160.6350  203.9540  149.1710 C   0  0  0  0  0  2  0  0  0  0  0  0
  161.7750  200.4030  148.9400 O   0  0  0  0  0  1  0  0  0  0  0  0
  160.6940  202.5080  148.6970 C   0  0  0  0  0  2  0  0  0  0  0  0
  161.2820  201.5550  150.9620 C   0  0  0  0  0  2  0  0  0  0  0  0
  161.6750  202.8220  151.7080 C   0  0  0  0  0  2  0  0  0  0  0  0
  161.6900  201.6770  149.4990 C   0  0  1  0  0  3  0  0  0  0  0  0
  159.7720  204.0470  150.4220 C   0  0  0  0  0  2  0  0  0  0  0  0
  160.5640  203.8770  151.7270 C   0  0  2  0  0  3  0  0  0  0  0  0
  163.3190  212.3000  148.6290 O   0  0  0  0  0  0  0  0  0  0  0  0
  161.8640  214.0350  148.9760 O   0  0  0  0  0  1  0  0  0  0  0  0
  162.1780  212.6830  149.0020 C   0  0  0  0  0  0  0  0  0  0  0  0
  1 21  1  0  0  0  0
  1 22  1  0  0  0  0
  2 15  1  0  0  0  0
  2  6  2  0  0  0  0
  3 13  1  6  0  0  0
  3 19  1  0  0  0  0
  4 20  1  0  0  0  0
  4  1  2  0  0  0  0
  5  3  1  0  0  0  0
  5 11  1  0  0  0  0
  6 16  1  0  0  0  0
  7 22  1  0  0  0  0
  8 12  1  0  0  0  0
 11  8  1  0  0  0  0
 14  4  1  0  0  0  0
 15  5  1  0  0  0  0
 16 11  1  0  0  0  0
 17 21  2  0  0  0  0
 18 14  2  0  0  0  0
 18 17  1  0  0  0  0
 19  9  1  0  0  0  0
 19 12  1  0  0  0  0
 20  7  1  0  0  0  0
 21 15  1  0  0  0  0
 22 10  1  0  0  0  0
 22 13  1  0  0  0  0
 23 29  1  0  0  0  0
 24 28  1  0  0  0  0
 25 23  1  0  0  0  0
 25 28  1  0  0  0  0
 26 27  1  0  0  0  0
 27 30  1  0  0  0  0
 28 26  1  0  0  0  0
 29 30  1  0  0  0  0
 30  6  1  0  0  0  0
 31 33  2  0  0  0  0
 32 33  1  0  0  0  0
 33 20  1  0  0  0  0
M  END
>  <MODEL>
8

>  <REMARK>
 VINA RESULT:      -4.3      2.190      7.716
  Name = 
  2 active torsions:
  status: ('A' for Active; 'I' for Inactive)
    1  A    between atoms: C_11  and  C_32
    2  A    between atoms: C_18  and  C_30
                            x       y       z     vdW  Elec       q    Type
                         _______ _______ _______ _____ _____    ______ ____

>  <TORSDO>
F 2

$$$$
=
 OpenBabel11072410213D

 33 38  0  0  1  0  0  0  0  0999 V2000
  159.3500  211.3040  153.8170 C   0  0  0  0  0  0  0  0  0  0  0  0
  160.8670  209.2650  151.1910 N   0  0  0  0  0  0  0  0  0  0  0  0
  161.1500  208.9130  155.0550 C   0  0  1  0  0  3  0  0  0  0  0  0
  158.7110  212.5220  153.9020 C   0  0  0  0  0  0  0  0  0  0  0  0
  160.7450  208.5820  153.5920 C   0  0  2  0  0  3  0  0  0  0  0  0
  160.9790  208.0280  150.8050 C   0  0  0  0  0  0  0  0  0  0  0  0
  158.3110  211.4210  155.9640 C   0  0  0  0  0  2  0  0  0  0  0  0
  161.2310  206.1480  154.0390 C   0  0  0  0  0  2  0  0  0  0  0  0
  161.4090  207.9790  157.2610 O   0  0  0  0  0  1  0  0  0  0  0  0
  158.3090  209.3740  154.7420 O   0  0  0  0  0  1  0  0  0  0  0  0
  161.5230  207.3350  153.1370 C   0  0  1  0  0  3  0  0  0  0  0  0
  161.6910  206.4730  155.4490 C   0  0  0  0  0  2  0  0  0  0  0  0
  160.4240  210.1140  155.6780 C   0  0  0  0  0  2  0  0  0  0  0  0
  158.8400  213.4860  152.9000 C   0  0  0  0  0  3  0  0  0  0  0  0
  161.0140  209.7290  152.5790 C   0  0  2  0  0  3  0  0  0  0  0  0
  161.1890  206.9960  151.7650 N   0  0  0  0  0  2  0  0  0  0  0  0
  160.3550  211.9920  151.7360 C   0  0  0  0  0  3  0  0  0  0  0  0
  159.6690  213.2120  151.8090 C   0  0  0  0  0  3  0  0  0  0  0  0
  160.9490  207.6950  155.9740 C   0  0  2  0  0  3  0  0  0  0  0  0
  157.9470  212.6750  155.1630 C   0  0  1  0  0  3  0  0  0  0  0  0
  160.2080  211.0060  152.7330 C   0  0  0  0  0  0  0  0  0  0  0  0
  159.0970  210.4920  155.0330 C   0  0  1  0  0  0  0  0  0  0  0  0
  163.0650  207.0710  148.4270 C   0  0  0  0  0  2  0  0  0  0  0  0
  161.6920  204.2100  146.4540 O   0  0  0  0  0  1  0  0  0  0  0  0
  162.8210  206.1520  147.2380 C   0  0  0  0  0  2  0  0  0  0  0  0
  160.4070  205.6770  147.8160 C   0  0  0  0  0  2  0  0  0  0  0  0
  160.3530  206.1910  149.2480 C   0  0  0  0  0  2  0  0  0  0  0  0
  161.7810  205.0780  147.5420 C   0  0  1  0  0  3  0  0  0  0  0  0
  161.9530  208.1080  148.5100 C   0  0  0  0  0  2  0  0  0  0  0  0
  160.7630  207.6630  149.3730 C   0  0  2  0  0  3  0  0  0  0  0  0
  157.5670  214.4520  156.7340 O   0  0  0  0  0  1  0  0  0  0  0  0
  159.6180  214.4430  155.7130 O   0  0  0  0  0  0  0  0  0  0  0  0
  158.3550  213.9040  155.9170 C   0  0  0  0  0  0  0  0  0  0  0  0
  1  4  1  0  0  0  0
  1 22  1  0  0  0  0
  2 15  1  0  0  0  0
  3 13  1  1  0  0  0
  3 19  1  0  0  0  0
  4 20  1  0  0  0  0
  5  3  1  0  0  0  0
  6  2  2  0  0  0  0
  6 16  1  0  0  0  0
  8 12  1  0  0  0  0
 10 22  1  0  0  0  0
 11  5  1  0  0  0  0
 11  8  1  0  0  0  0
 12 19  1  0  0  0  0
 14  4  2  0  0  0  0
 15 21  1  0  0  0  0
 15  5  1  0  0  0  0
 16 11  1  0  0  0  0
 17 18  2  0  0  0  0
 17 21  1  0  0  0  0
 18 14  1  0  0  0  0
 19  9  1  0  0  0  0
 20 33  1  0  0  0  0
 20  7  1  0  0  0  0
 21  1  2  0  0  0  0
 22 13  1  0  0  0  0
 22  7  1  0  0  0  0
 23 29  1  0  0  0  0
 24 28  1  0  0  0  0
 25 28  1  0  0  0  0
 25 23  1  0  0  0  0
 26 27  1  0  0  0  0
 27 30  1  0  0  0  0
 28 26  1  0  0  0  0
 29 30  1  0  0  0  0
 30  6  1  0  0  0  0
 32 33  2  0  0  0  0
 33 31  1  0  0  0  0
M  END
>  <MODEL>
9

>  <REMARK>
 VINA RESULT:      -4.2      2.171      8.838
  Name = 
  2 active torsions:
  status: ('A' for Active; 'I' for Inactive)
    1  A    between atoms: C_11  and  C_32
    2  A    between atoms: C_18  and  C_30
                            x       y       z     vdW  Elec       q    Type
                         _______ _______ _______ _____ _____    ______ ____

>  <TORSDO>
F 2

$$$$
