=
 OpenBabel11072410503D

 40 44  0  0  1  0  0  0  0  0999 V2000
  158.1790  213.7660  149.8010 N   0  0  0  0  0  0  0  0  0  0  0  0
  160.0220  212.6630  150.2610 C   0  0  0  0  0  0  0  0  0  0  0  0
  161.0200  211.8200  150.8270 N   0  0  0  0  0  2  0  0  0  0  0  0
  162.0890  211.8090  148.5680 C   0  0  0  0  0  3  0  0  0  0  0  0
  161.2730  207.2320  151.8160 C   0  0  0  0  0  2  0  0  0  0  0  0
  158.9160  213.7320  148.6900 N   0  0  0  0  0  0  0  0  0  0  0  0
  161.1220  207.5640  149.3480 C   0  0  0  0  0  2  0  0  0  0  0  0
  162.3090  209.0740  150.5280 C   0  0  2  0  0  3  0  0  0  0  0  0
  159.4520  211.0540  153.5620 C   0  0  0  0  0  0  0  0  0  0  0  0
  160.5800  209.4950  152.1920 O   0  0  0  0  0  0  0  0  0  0  0  0
  160.9060  211.5910  155.4110 C   0  0  0  0  0  2  0  0  0  0  0  0
  158.8300  213.0960  150.7750 C   0  0  2  0  0  3  0  0  0  0  0  0
  160.0460  213.0540  148.9670 C   0  0  0  0  0  0  0  0  0  0  0  0
  157.4040  213.3710  152.6600 O   0  0  0  0  0  0  0  0  0  0  0  0
  158.5400  211.3280  152.4960 N   0  0  0  0  0  2  0  0  0  0  0  0
  160.3980  207.0030  150.5800 C   0  0  0  0  0  2  0  0  0  0  0  0
  162.2660  211.6570  150.0760 C   0  0  2  0  0  3  0  0  0  0  0  0
  161.4830  209.9590  154.8200 S   0  0  0  0  0  0  0  0  0  0  0  0
  161.3610  208.9460  149.4970 O   0  0  0  0  0  0  0  0  0  0  0  0
  158.2350  212.6470  152.0380 C   0  0  0  0  0  0  0  0  0  0  0  0
  160.4000  210.1480  153.4130 C   0  0  0  0  0  0  0  0  0  0  0  0
  161.7160  208.6910  151.8980 C   0  0  1  0  0  3  0  0  0  0  0  0
  161.0740  212.5210  148.0400 C   0  0  0  0  0  0  0  0  0  0  0  0
  159.5290  211.8610  154.8090 C   0  0  0  0  0  2  0  0  0  0  0  0
  163.0600  210.4160  150.5030 C   0  0  0  0  0  2  0  0  0  0  0  0
  161.0000  212.6660  146.6510 O   0  0  0  0  0  0  0  0  0  0  0  0
  162.0940  213.1130  145.8510 C   0  0  0  0  0  2  0  0  0  0  0  0
  161.6110  213.5170  144.4670 C   0  0  0  0  0  2  0  0  0  0  0  0
  162.3040  212.6940  143.3850 C   0  0  0  0  0  2  0  0  0  0  0  0
  161.3230  212.3560  142.2730 C   0  0  2  0  0  3  0  0  0  0  0  0
  160.3020  211.5360  142.7640 O   0  0  0  0  0  1  0  0  0  0  0  0
  162.0400  211.6970  141.0870 C   0  0  2  0  0  3  0  0  0  0  0  0
  162.7650  212.7240  140.2180 C   0  0  0  0  0  2  0  0  0  0  0  0
  163.6740  212.0830  139.1840 C   0  0  0  0  0  1  0  0  0  0  0  0
  161.1350  210.7980  140.2500 C   0  0  0  0  0  2  0  0  0  0  0  0
  161.6570  208.5320  139.2630 C   0  0  0  0  0  0  0  0  0  0  0  0
  162.0630  207.3510  139.4350 O   0  0  0  0  0  0  0  0  0  0  0  0
  161.5440  209.4060  140.3870 N   0  0  0  0  0  2  0  0  0  0  0  0
  161.3340  209.0000  137.8830 C   0  0  0  0  0  2  0  0  0  0  0  0
  160.2690  208.2630  137.3710 O   0  0  0  0  0  1  0  0  0  0  0  0
  2 12  1  0  0  0  0
  2  3  1  0  0  0  0
  6 13  1  0  0  0  0
  6  1  2  0  0  0  0
  7 19  1  0  0  0  0
  7 16  1  0  0  0  0
  8 25  1  1  0  0  0
  8 22  1  0  0  0  0
  9 24  1  0  0  0  0
 10 21  1  0  0  0  0
 12  1  1  6  0  0  0
 12 20  1  0  0  0  0
 13  2  2  0  0  0  0
 15  9  1  0  0  0  0
 16  5  1  0  0  0  0
 17  4  1  6  0  0  0
 17 25  1  0  0  0  0
 17  3  1  0  0  0  0
 18 11  1  0  0  0  0
 19  8  1  0  0  0  0
 20 15  1  0  0  0  0
 20 14  2  0  0  0  0
 21  9  2  0  0  0  0
 21 18  1  0  0  0  0
 22  5  1  6  0  0  0
 22 10  1  0  0  0  0
 23  4  2  0  0  0  0
 23 13  1  0  0  0  0
 24 11  1  0  0  0  0
 26 23  1  0  0  0  0
 27 26  1  0  0  0  0
 28 27  1  0  0  0  0
 29 28  1  0  0  0  0
 30 31  1  1  0  0  0
 30 29  1  0  0  0  0
 32 33  1  6  0  0  0
 32 30  1  0  0  0  0
 34 33  1  0  0  0  0
 35 38  1  0  0  0  0
 35 32  1  0  0  0  0
 36 37  2  0  0  0  0
 36 38  1  0  0  0  0
 39 36  1  0  0  0  0
 40 39  1  0  0  0  0
M  END
>  <MODEL>
1

>  <REMARK>
 VINA RESULT:      -4.4      0.000      0.000
  Name = 
  10 active torsions:
  status: ('A' for Active; 'I' for Inactive)
    1  A    between atoms: C_1  and  C_4
    2  A    between atoms: C_3  and  C_31
    3  A    between atoms: C_4  and  C_11
    4  A    between atoms: C_4  and  C_16
    5  A    between atoms: C_11  and  N_36
    6  A    between atoms: C_12  and  C_14
    7  A    between atoms: C_12  and  C_23
    8  A    between atoms: C_14  and  O_25
    9  A    between atoms: C_16  and  C_23
   10  A    between atoms: O_25  and  C_37
                            x       y       z     vdW  Elec       q    Type
                         _______ _______ _______ _____ _____    ______ ____

>  <TORSDO>
F 10

$$$$
=
 OpenBabel11072410503D

 40 44  0  0  1  0  0  0  0  0999 V2000
  159.3860  212.4430  150.1480 N   0  0  0  0  0  0  0  0  0  0  0  0
  160.5180  211.8050  151.9200 C   0  0  0  0  0  0  0  0  0  0  0  0
  160.9400  211.4480  153.2320 N   0  0  0  0  0  2  0  0  0  0  0  0
  162.7310  210.0950  152.1330 C   0  0  0  0  0  3  0  0  0  0  0  0
  159.4710  208.3240  156.4220 C   0  0  0  0  0  2  0  0  0  0  0  0
  160.4450  211.7530  149.7230 N   0  0  0  0  0  0  0  0  0  0  0  0
  160.3650  207.1380  154.4180 C   0  0  0  0  0  2  0  0  0  0  0  0
  161.3990  209.0410  155.0450 C   0  0  2  0  0  3  0  0  0  0  0  0
  158.3070  212.4590  154.8350 C   0  0  0  0  0  0  0  0  0  0  0  0
  159.3690  210.3800  155.1950 O   0  0  0  0  0  0  0  0  0  0  0  0
  159.0430  213.9680  156.5670 C   0  0  0  0  0  2  0  0  0  0  0  0
  159.4000  212.4710  151.4980 C   0  0  2  0  0  3  0  0  0  0  0  0
  161.1410  211.3570  150.8070 C   0  0  0  0  0  0  0  0  0  0  0  0
  157.5110  213.8200  152.0250 O   0  0  0  0  0  0  0  0  0  0  0  0
  157.9860  212.0620  153.5000 N   0  0  0  0  0  2  0  0  0  0  0  0
  159.1010  207.4200  155.2430 C   0  0  0  0  0  2  0  0  0  0  0  0
  162.2740  210.8600  153.3710 C   0  0  2  0  0  3  0  0  0  0  0  0
  159.3050  212.2960  157.2600 S   0  0  0  0  0  0  0  0  0  0  0  0
  160.9160  208.3400  153.9260 O   0  0  0  0  0  0  0  0  0  0  0  0
  158.2690  212.8590  152.3480 C   0  0  0  0  0  0  0  0  0  0  0  0
  158.9380  211.6310  155.6450 C   0  0  0  0  0  0  0  0  0  0  0  0
  160.2490  209.5460  155.9390 C   0  0  1  0  0  3  0  0  0  0  0  0
  162.2420  210.3690  150.9080 C   0  0  0  0  0  0  0  0  0  0  0  0
  158.1360  213.8460  155.3460 C   0  0  0  0  0  2  0  0  0  0  0  0
  162.4550  210.1020  154.6920 C   0  0  0  0  0  2  0  0  0  0  0  0
  162.7430  209.6670  149.8070 O   0  0  0  0  0  0  0  0  0  0  0  0
  161.9130  208.9720  148.8780 C   0  0  0  0  0  2  0  0  0  0  0  0
  162.0880  207.4680  149.0280 C   0  0  0  0  0  2  0  0  0  0  0  0
  160.8050  206.7300  148.6610 C   0  0  0  0  0  2  0  0  0  0  0  0
  160.3740  205.8240  149.8050 C   0  0  2  0  0  3  0  0  0  0  0  0
  160.8080  206.3510  151.0260 O   0  0  0  0  0  1  0  0  0  0  0  0
  160.8950  204.3950  149.6020 C   0  0  2  0  0  3  0  0  0  0  0  0
  161.5970  203.8620  150.8500 C   0  0  0  0  0  2  0  0  0  0  0  0
  161.0090  202.5510  151.3410 C   0  0  0  0  0  1  0  0  0  0  0  0
  161.7670  204.2340  148.3590 C   0  0  0  0  0  2  0  0  0  0  0  0
  161.2710  203.2400  146.0910 C   0  0  0  0  0  0  0  0  0  0  0  0
  160.8510  202.2640  145.4120 O   0  0  0  0  0  0  0  0  0  0  0  0
  161.2470  203.1650  147.5170 N   0  0  0  0  0  2  0  0  0  0  0  0
  161.8130  204.4400  145.3880 C   0  0  0  0  0  2  0  0  0  0  0  0
  160.9830  204.7770  144.3200 O   0  0  0  0  0  1  0  0  0  0  0  0
  2  3  1  0  0  0  0
  3 17  1  0  0  0  0
  6  1  2  0  0  0  0
  6 13  1  0  0  0  0
  7 16  1  0  0  0  0
  8 25  1  6  0  0  0
  8 22  1  0  0  0  0
  9 24  1  0  0  0  0
  9 21  2  0  0  0  0
 10 21  1  0  0  0  0
 10 22  1  0  0  0  0
 11 18  1  0  0  0  0
 12  1  1  6  0  0  0
 12  2  1  0  0  0  0
 12 20  1  0  0  0  0
 13 23  1  0  0  0  0
 13  2  2  0  0  0  0
 14 20  2  0  0  0  0
 15  9  1  0  0  0  0
 16  5  1  0  0  0  0
 17  4  1  6  0  0  0
 17 25  1  0  0  0  0
 19  7  1  0  0  0  0
 19  8  1  0  0  0  0
 20 15  1  0  0  0  0
 21 18  1  0  0  0  0
 22  5  1  6  0  0  0
 23  4  2  0  0  0  0
 24 11  1  0  0  0  0
 26 23  1  0  0  0  0
 27 28  1  0  0  0  0
 27 26  1  0  0  0  0
 29 28  1  0  0  0  0
 29 30  1  0  0  0  0
 30 31  1  1  0  0  0
 32 35  1  6  0  0  0
 32 30  1  0  0  0  0
 32 33  1  0  0  0  0
 33 34  1  0  0  0  0
 36 38  1  0  0  0  0
 37 36  2  0  0  0  0
 38 35  1  0  0  0  0
 39 36  1  0  0  0  0
 40 39  1  0  0  0  0
M  END
>  <MODEL>
2

>  <REMARK>
 VINA RESULT:      -3.9      4.918      6.509
  Name = 
  10 active torsions:
  status: ('A' for Active; 'I' for Inactive)
    1  A    between atoms: C_1  and  C_4
    2  A    between atoms: C_3  and  C_31
    3  A    between atoms: C_4  and  C_11
    4  A    between atoms: C_4  and  C_16
    5  A    between atoms: C_11  and  N_36
    6  A    between atoms: C_12  and  C_14
    7  A    between atoms: C_12  and  C_23
    8  A    between atoms: C_14  and  O_25
    9  A    between atoms: C_16  and  C_23
   10  A    between atoms: O_25  and  C_37
                            x       y       z     vdW  Elec       q    Type
                         _______ _______ _______ _____ _____    ______ ____

>  <TORSDO>
F 10

$$$$
=
 OpenBabel11072410503D

 40 44  0  0  1  0  0  0  0  0999 V2000
  160.6070  206.2460  151.3190 N   0  0  0  0  0  0  0  0  0  0  0  0
  161.6140  205.5150  149.5080 C   0  0  0  0  0  0  0  0  0  0  0  0
  162.0510  204.7620  148.3820 N   0  0  0  0  0  2  0  0  0  0  0  0
  162.7890  206.9360  147.3940 C   0  0  0  0  0  3  0  0  0  0  0  0
  159.9050  202.9080  144.6330 C   0  0  0  0  0  2  0  0  0  0  0  0
  161.1340  207.3010  150.6970 N   0  0  0  0  0  2  0  0  0  0  0  0
  159.7790  205.3970  144.5420 C   0  0  0  0  0  2  0  0  0  0  0  0
  161.6660  204.4840  145.3700 C   0  0  2  0  0  3  0  0  0  0  0  0
  160.5140  201.9920  149.0790 C   0  0  0  0  0  0  0  0  0  0  0  0
  160.5440  202.9960  146.9410 O   0  0  0  0  0  0  0  0  0  0  0  0
  162.1580  200.2260  149.0820 C   0  0  0  0  0  2  0  0  0  0  0  0
  160.8730  205.1370  150.5940 C   0  0  0  0  0  0  0  0  0  0  0  0
  161.7500  206.8580  149.5840 C   0  0  0  0  0  0  0  0  0  0  0  0
  159.9460  203.3940  151.9230 O   0  0  0  0  0  0  0  0  0  0  0  0
  159.8130  203.1230  149.5990 N   0  0  0  0  0  2  0  0  0  0  0  0
  158.9570  204.1090  144.6870 C   0  0  0  0  0  2  0  0  0  0  0  0
  162.9650  205.4210  147.4470 C   0  0  2  0  0  3  0  0  0  0  0  0
  161.7400  200.4730  147.3190 S   0  0  0  0  0  0  0  0  0  0  0  0
  160.7230  205.5060  145.5840 O   0  0  0  0  0  0  0  0  0  0  0  0
  160.2200  203.8360  150.7690 C   0  0  0  0  0  0  0  0  0  0  0  0
  160.8250  201.9290  147.7980 C   0  0  0  0  0  0  0  0  0  0  0  0
  161.0580  203.0890  145.6180 C   0  0  1  0  0  3  0  0  0  0  0  0
  162.2710  207.6270  148.4280 C   0  0  0  0  0  0  0  0  0  0  0  0
  161.0950  200.9190  149.9300 C   0  0  0  0  0  2  0  0  0  0  0  0
  163.0090  204.7360  146.0760 C   0  0  0  0  0  2  0  0  0  0  0  0
  162.1870  209.0200  148.3360 O   0  0  0  0  0  0  0  0  0  0  0  0
  162.1540  209.8790  149.4740 C   0  0  0  0  0  2  0  0  0  0  0  0
  162.1960  211.3370  149.0430 C   0  0  0  0  0  2  0  0  0  0  0  0
  161.2490  211.5880  147.8740 C   0  0  0  0  0  2  0  0  0  0  0  0
  161.6220  212.8800  147.1640 C   0  0  2  0  0  3  0  0  0  0  0  0
  162.4780  213.6410  147.9660 O   0  0  0  0  0  1  0  0  0  0  0  0
  160.3700  213.6790  146.7770 C   0  0  2  0  0  3  0  0  0  0  0  0
  159.0910  213.0100  147.2770 C   0  0  0  0  0  2  0  0  0  0  0  0
  158.1340  212.6570  146.1510 C   0  0  0  0  0  1  0  0  0  0  0  0
  160.2870  214.0000  145.2870 C   0  0  0  0  0  2  0  0  0  0  0  0
  161.5270  212.7040  143.5080 C   0  0  0  0  0  0  0  0  0  0  0  0
  162.6190  212.4330  142.9380 O   0  0  0  0  0  0  0  0  0  0  0  0
  161.5200  213.6020  144.6180 N   0  0  0  0  0  2  0  0  0  0  0  0
  160.2620  212.1050  142.9890 C   0  0  0  0  0  2  0  0  0  0  0  0
  160.5510  211.2060  141.9640 O   0  0  0  0  0  1  0  0  0  0  0  0
  2 13  2  0  0  0  0
  2 12  1  0  0  0  0
  3  2  1  0  0  0  0
  4 17  1  0  0  0  0
  4 23  2  0  0  0  0
  5 16  1  0  0  0  0
  6  1  1  0  0  0  0
  7 16  1  0  0  0  0
  7 19  1  0  0  0  0
  8 19  1  0  0  0  0
  8 22  1  0  0  0  0
  8 25  1  1  0  0  0
  9 15  1  0  0  0  0
  9 24  1  0  0  0  0
 10 21  1  0  0  0  0
 11 24  1  0  0  0  0
 12 20  1  0  0  0  0
 12  1  2  0  0  0  0
 13  6  1  0  0  0  0
 15 20  1  0  0  0  0
 17 25  1  6  0  0  0
 17  3  1  0  0  0  0
 18 21  1  0  0  0  0
 18 11  1  0  0  0  0
 20 14  2  0  0  0  0
 21  9  2  0  0  0  0
 22  5  1  6  0  0  0
 22 10  1  0  0  0  0
 23 13  1  0  0  0  0
 26 23  1  0  0  0  0
 26 27  1  0  0  0  0
 28 27  1  0  0  0  0
 29 28  1  0  0  0  0
 30 29  1  0  0  0  0
 30 31  1  1  0  0  0
 32 35  1  6  0  0  0
 32 30  1  0  0  0  0
 32 33  1  0  0  0  0
 34 33  1  0  0  0  0
 36 38  1  0  0  0  0
 37 36  2  0  0  0  0
 38 35  1  0  0  0  0
 39 36  1  0  0  0  0
 40 39  1  0  0  0  0
M  END
>  <MODEL>
3

>  <REMARK>
 VINA RESULT:      -3.3      4.720      7.625
  Name = 
  10 active torsions:
  status: ('A' for Active; 'I' for Inactive)
    1  A    between atoms: C_1  and  C_4
    2  A    between atoms: C_3  and  C_31
    3  A    between atoms: C_4  and  C_11
    4  A    between atoms: C_4  and  C_16
    5  A    between atoms: C_11  and  N_36
    6  A    between atoms: C_12  and  C_14
    7  A    between atoms: C_12  and  C_23
    8  A    between atoms: C_14  and  O_25
    9  A    between atoms: C_16  and  C_23
   10  A    between atoms: O_25  and  C_37
                            x       y       z     vdW  Elec       q    Type
                         _______ _______ _______ _____ _____    ______ ____

>  <TORSDO>
F 10

$$$$
=
 OpenBabel11072410503D

 40 44  0  0  1  0  0  0  0  0999 V2000
  158.7460  212.9500  150.4890 N   0  0  0  0  0  0  0  0  0  0  0  0
  160.1970  212.0570  151.8760 C   0  0  0  0  0  0  0  0  0  0  0  0
  160.8500  211.4470  152.9850 N   0  0  0  0  0  2  0  0  0  0  0  0
  162.5830  210.6780  151.3570 C   0  0  0  0  0  3  0  0  0  0  0  0
  160.2230  207.4520  155.3810 C   0  0  0  0  0  2  0  0  0  0  0  0
  159.7930  212.5450  149.7710 N   0  0  0  0  0  0  0  0  0  0  0  0
  160.9190  206.9410  153.0400 C   0  0  0  0  0  2  0  0  0  0  0  0
  161.8310  208.7540  154.0220 C   0  0  2  0  0  3  0  0  0  0  0  0
  158.4030  211.6450  155.1050 C   0  0  0  0  0  0  0  0  0  0  0  0
  159.7190  209.7140  154.7680 O   0  0  0  0  0  0  0  0  0  0  0  0
  159.2340  212.7630  157.0750 C   0  0  0  0  0  2  0  0  0  0  0  0
  158.9630  212.6420  151.7860 C   0  0  2  0  0  3  0  0  0  0  0  0
  160.6850  211.9930  150.6170 C   0  0  0  0  0  0  0  0  0  0  0  0
  157.0470  213.5370  152.8780 O   0  0  0  0  0  0  0  0  0  0  0  0
  157.9240  211.5520  153.7620 N   0  0  0  0  0  2  0  0  0  0  0  0
  159.7740  206.8280  154.0570 C   0  0  0  0  0  2  0  0  0  0  0  0
  162.2440  211.0380  152.8000 C   0  0  2  0  0  3  0  0  0  0  0  0
  159.7730  211.0260  157.2600 S   0  0  0  0  0  0  0  0  0  0  0  0
  161.2590  208.2930  152.8230 O   0  0  0  0  0  0  0  0  0  0  0  0
  157.9420  212.6430  152.8390 C   0  0  0  0  0  0  0  0  0  0  0  0
  159.2340  210.7390  155.5830 C   0  0  0  0  0  0  0  0  0  0  0  0
  160.7860  208.8540  155.1500 C   0  0  1  0  0  3  0  0  0  0  0  0
  161.8860  211.1770  150.3180 C   0  0  0  0  0  0  0  0  0  0  0  0
  158.1680  212.8230  155.9840 C   0  0  0  0  0  2  0  0  0  0  0  0
  162.7030  210.0080  153.8400 C   0  0  0  0  0  2  0  0  0  0  0  0
  162.2830  210.8490  149.0170 O   0  0  0  0  0  0  0  0  0  0  0  0
  161.6670  209.8190  148.2470 C   0  0  0  0  0  2  0  0  0  0  0  0
  162.3000  208.4710  148.5570 C   0  0  0  0  0  2  0  0  0  0  0  0
  161.2520  207.3640  148.5630 C   0  0  0  0  0  2  0  0  0  0  0  0
  161.4590  206.4370  147.3740 C   0  0  2  0  0  3  0  0  0  0  0  0
  160.3090  206.4080  146.5790 O   0  0  0  0  0  1  0  0  0  0  0  0
  161.8480  205.0260  147.8360 C   0  0  2  0  0  3  0  0  0  0  0  0
  162.4310  204.1940  146.6950 C   0  0  0  0  0  2  0  0  0  0  0  0
  161.4130  203.2540  146.0730 C   0  0  0  0  0  1  0  0  0  0  0  0
  160.7190  204.2840  148.5480 C   0  0  0  0  0  2  0  0  0  0  0  0
  160.9610  202.6790  150.4830 C   0  0  0  0  0  0  0  0  0  0  0  0
  161.3560  202.4650  151.6610 O   0  0  0  0  0  0  0  0  0  0  0  0
  161.1040  203.9840  149.9210 N   0  0  0  0  0  2  0  0  0  0  0  0
  160.3830  201.5540  149.6900 C   0  0  0  0  0  2  0  0  0  0  0  0
  161.3280  201.0820  148.7810 O   0  0  0  0  0  1  0  0  0  0  0  0
  2  3  1  0  0  0  0
  6  1  2  0  0  0  0
  6 13  1  0  0  0  0
  7 16  1  0  0  0  0
  8 25  1  6  0  0  0
  8 22  1  0  0  0  0
  9 21  2  0  0  0  0
  9 24  1  0  0  0  0
 10 22  1  0  0  0  0
 10 21  1  0  0  0  0
 11 18  1  0  0  0  0
 12  1  1  6  0  0  0
 12  2  1  0  0  0  0
 12 20  1  0  0  0  0
 13  2  2  0  0  0  0
 15  9  1  0  0  0  0
 16  5  1  0  0  0  0
 17  4  1  6  0  0  0
 17  3  1  0  0  0  0
 17 25  1  0  0  0  0
 19  7  1  0  0  0  0
 19  8  1  0  0  0  0
 20 14  2  0  0  0  0
 20 15  1  0  0  0  0
 21 18  1  0  0  0  0
 22  5  1  6  0  0  0
 23 13  1  0  0  0  0
 23  4  2  0  0  0  0
 24 11  1  0  0  0  0
 26 23  1  0  0  0  0
 27 28  1  0  0  0  0
 27 26  1  0  0  0  0
 28 29  1  0  0  0  0
 30 31  1  1  0  0  0
 30 32  1  0  0  0  0
 30 29  1  0  0  0  0
 32 33  1  6  0  0  0
 32 35  1  0  0  0  0
 34 33  1  0  0  0  0
 35 38  1  0  0  0  0
 36 37  2  0  0  0  0
 38 36  1  0  0  0  0
 39 36  1  0  0  0  0
 40 39  1  0  0  0  0
M  END
>  <MODEL>
4

>  <REMARK>
 VINA RESULT:      -3.3      4.853      6.482
  Name = 
  10 active torsions:
  status: ('A' for Active; 'I' for Inactive)
    1  A    between atoms: C_1  and  C_4
    2  A    between atoms: C_3  and  C_31
    3  A    between atoms: C_4  and  C_11
    4  A    between atoms: C_4  and  C_16
    5  A    between atoms: C_11  and  N_36
    6  A    between atoms: C_12  and  C_14
    7  A    between atoms: C_12  and  C_23
    8  A    between atoms: C_14  and  O_25
    9  A    between atoms: C_16  and  C_23
   10  A    between atoms: O_25  and  C_37
                            x       y       z     vdW  Elec       q    Type
                         _______ _______ _______ _____ _____    ______ ____

>  <TORSDO>
F 10

$$$$
=
 OpenBabel11072410503D

 40 44  0  0  1  0  0  0  0  0999 V2000
  160.6510  206.1000  151.4480 N   0  0  0  0  0  0  0  0  0  0  0  0
  161.6070  205.4610  149.5760 C   0  0  0  0  0  0  0  0  0  0  0  0
  162.0110  204.7660  148.4010 N   0  0  0  0  0  2  0  0  0  0  0  0
  162.7340  206.9860  147.5090 C   0  0  0  0  0  3  0  0  0  0  0  0
  159.7600  203.1170  144.6190 C   0  0  0  0  0  2  0  0  0  0  0  0
  161.1670  207.1840  150.8680 N   0  0  0  0  0  2  0  0  0  0  0  0
  159.6440  205.6080  144.6600 C   0  0  0  0  0  2  0  0  0  0  0  0
  161.5470  204.6460  145.3910 C   0  0  2  0  0  3  0  0  0  0  0  0
  160.4790  201.9690  148.9930 C   0  0  0  0  0  0  0  0  0  0  0  0
  160.4590  203.0830  146.9110 O   0  0  0  0  0  0  0  0  0  0  0  0
  162.1140  200.1990  148.8620 C   0  0  0  0  0  2  0  0  0  0  0  0
  160.8920  205.0300  150.6600 C   0  0  0  0  0  0  0  0  0  0  0  0
  161.7520  206.7980  149.7180 C   0  0  0  0  0  0  0  0  0  0  0  0
  159.9920  203.2230  151.9200 O   0  0  0  0  0  0  0  0  0  0  0  0
  159.7970  203.0740  149.5900 N   0  0  0  0  0  2  0  0  0  0  0  0
  158.8190  204.3170  144.7600 C   0  0  0  0  0  2  0  0  0  0  0  0
  162.9040  205.4700  147.4790 C   0  0  2  0  0  3  0  0  0  0  0  0
  161.6520  200.5390  147.1260 S   0  0  0  0  0  0  0  0  0  0  0  0
  160.6160  205.6590  145.6820 O   0  0  0  0  0  0  0  0  0  0  0  0
  160.2380  203.7230  150.7840 C   0  0  0  0  0  0  0  0  0  0  0  0
  160.7570  201.9720  147.7030 C   0  0  0  0  0  0  0  0  0  0  0  0
  160.9390  203.2420  145.5810 C   0  0  1  0  0  3  0  0  0  0  0  0
  162.2460  207.6240  148.5900 C   0  0  0  0  0  0  0  0  0  0  0  0
  161.0760  200.8510  149.7730 C   0  0  0  0  0  2  0  0  0  0  0  0
  162.9090  204.8570  146.0730 C   0  0  0  0  0  2  0  0  0  0  0  0
  162.1670  209.0200  148.5730 O   0  0  0  0  0  0  0  0  0  0  0  0
  162.2850  209.8260  149.7440 C   0  0  0  0  0  2  0  0  0  0  0  0
  162.0830  211.2950  149.4040 C   0  0  0  0  0  2  0  0  0  0  0  0
  161.5800  211.4590  147.9740 C   0  0  0  0  0  2  0  0  0  0  0  0
  162.1070  212.7550  147.3780 C   0  0  2  0  0  3  0  0  0  0  0  0
  161.7900  213.8330  148.2110 O   0  0  0  0  0  1  0  0  0  0  0  0
  161.5610  212.9730  145.9600 C   0  0  2  0  0  3  0  0  0  0  0  0
  162.6430  213.4730  145.0040 C   0  0  0  0  0  2  0  0  0  0  0  0
  162.4640  212.9500  143.5890 C   0  0  0  0  0  1  0  0  0  0  0  0
  160.3210  213.8610  145.9130 C   0  0  0  0  0  2  0  0  0  0  0  0
  158.1030  212.8590  146.5880 C   0  0  0  0  0  0  0  0  0  0  0  0
  157.0800  212.1940  146.2680 O   0  0  0  0  0  0  0  0  0  0  0  0
  159.1390  213.0580  145.6260 N   0  0  0  0  0  2  0  0  0  0  0  0
  158.1920  213.4490  147.9560 C   0  0  0  0  0  2  0  0  0  0  0  0
  157.1690  212.9450  148.7570 O   0  0  0  0  0  1  0  0  0  0  0  0
  2 13  2  0  0  0  0
  2 12  1  0  0  0  0
  3  2  1  0  0  0  0
  4 23  2  0  0  0  0
  5 16  1  0  0  0  0
  6  1  1  0  0  0  0
  7 16  1  0  0  0  0
  7 19  1  0  0  0  0
  8 22  1  0  0  0  0
  8 19  1  0  0  0  0
  8 25  1  1  0  0  0
  9 15  1  0  0  0  0
  9 24  1  0  0  0  0
 10 21  1  0  0  0  0
 11 24  1  0  0  0  0
 12 20  1  0  0  0  0
 12  1  2  0  0  0  0
 13  6  1  0  0  0  0
 15 20  1  0  0  0  0
 17 25  1  6  0  0  0
 17  4  1  0  0  0  0
 17  3  1  0  0  0  0
 18 21  1  0  0  0  0
 18 11  1  0  0  0  0
 20 14  2  0  0  0  0
 21  9  2  0  0  0  0
 22  5  1  6  0  0  0
 22 10  1  0  0  0  0
 23 13  1  0  0  0  0
 26 23  1  0  0  0  0
 26 27  1  0  0  0  0
 28 27  1  0  0  0  0
 29 28  1  0  0  0  0
 30 29  1  0  0  0  0
 30 31  1  1  0  0  0
 32 33  1  6  0  0  0
 32 30  1  0  0  0  0
 34 33  1  0  0  0  0
 35 32  1  0  0  0  0
 36 39  1  0  0  0  0
 37 36  2  0  0  0  0
 38 35  1  0  0  0  0
 38 36  1  0  0  0  0
 39 40  1  0  0  0  0
M  END
>  <MODEL>
5

>  <REMARK>
 VINA RESULT:      -3.2      4.731      8.040
  Name = 
  10 active torsions:
  status: ('A' for Active; 'I' for Inactive)
    1  A    between atoms: C_1  and  C_4
    2  A    between atoms: C_3  and  C_31
    3  A    between atoms: C_4  and  C_11
    4  A    between atoms: C_4  and  C_16
    5  A    between atoms: C_11  and  N_36
    6  A    between atoms: C_12  and  C_14
    7  A    between atoms: C_12  and  C_23
    8  A    between atoms: C_14  and  O_25
    9  A    between atoms: C_16  and  C_23
   10  A    between atoms: O_25  and  C_37
                            x       y       z     vdW  Elec       q    Type
                         _______ _______ _______ _____ _____    ______ ____

>  <TORSDO>
F 10

$$$$
=
 OpenBabel11072410503D

 40 44  0  0  1  0  0  0  0  0999 V2000
  160.8210  206.2970  151.2750 N   0  0  0  0  0  0  0  0  0  0  0  0
  161.7550  205.5170  149.4460 C   0  0  0  0  0  0  0  0  0  0  0  0
  162.1310  204.7430  148.3120 N   0  0  0  0  0  2  0  0  0  0  0  0
  162.9590  206.8770  147.3090 C   0  0  0  0  0  3  0  0  0  0  0  0
  159.8220  203.0030  144.6060 C   0  0  0  0  0  2  0  0  0  0  0  0
  161.3890  207.3250  150.6430 N   0  0  0  0  0  2  0  0  0  0  0  0
  159.8210  205.4960  144.5150 C   0  0  0  0  0  2  0  0  0  0  0  0
  161.6740  204.4870  145.3080 C   0  0  2  0  0  3  0  0  0  0  0  0
  160.4680  202.0550  149.0390 C   0  0  0  0  0  0  0  0  0  0  0  0
  160.5090  203.0580  146.9010 O   0  0  0  0  0  0  0  0  0  0  0  0
  162.0200  200.2080  149.0120 C   0  0  0  0  0  2  0  0  0  0  0  0
  161.0160  205.1770  150.5460 C   0  0  0  0  0  0  0  0  0  0  0  0
  161.9600  206.8510  149.5180 C   0  0  0  0  0  0  0  0  0  0  0  0
  160.0270  203.4830  151.8930 O   0  0  0  0  0  0  0  0  0  0  0  0
  159.8350  203.2200  149.5720 N   0  0  0  0  0  2  0  0  0  0  0  0
  158.9370  204.2510  144.6770 C   0  0  0  0  0  2  0  0  0  0  0  0
  163.0590  205.3560  147.3590 C   0  0  2  0  0  3  0  0  0  0  0  0
  161.5810  200.4770  147.2570 S   0  0  0  0  0  0  0  0  0  0  0  0
  160.7900  205.5550  145.5400 O   0  0  0  0  0  0  0  0  0  0  0  0
  160.3010  203.9110  150.7340 C   0  0  0  0  0  0  0  0  0  0  0  0
  160.7510  201.9770  147.7530 C   0  0  0  0  0  0  0  0  0  0  0  0
  161.0010  203.1240  145.5680 C   0  0  1  0  0  3  0  0  0  0  0  0
  162.4970  207.5940  148.3520 C   0  0  0  0  0  0  0  0  0  0  0  0
  161.0100  200.9530  149.8800 C   0  0  0  0  0  2  0  0  0  0  0  0
  163.0420  204.6700  145.9870 C   0  0  0  0  0  2  0  0  0  0  0  0
  162.4830  208.9890  148.2610 O   0  0  0  0  0  0  0  0  0  0  0  0
  161.9560  209.8350  149.2820 C   0  0  0  0  0  2  0  0  0  0  0  0
  162.1950  211.2970  148.9390 C   0  0  0  0  0  2  0  0  0  0  0  0
  161.2180  211.7730  147.8680 C   0  0  0  0  0  2  0  0  0  0  0  0
  160.8640  213.2350  148.0920 C   0  0  2  0  0  3  0  0  0  0  0  0
  161.9560  213.9180  148.6350 O   0  0  0  0  0  1  0  0  0  0  0  0
  159.6250  213.3710  148.9870 C   0  0  2  0  0  3  0  0  0  0  0  0
  158.4650  214.0430  148.2550 C   0  0  0  0  0  2  0  0  0  0  0  0
  157.2590  213.1330  148.1040 C   0  0  0  0  0  1  0  0  0  0  0  0
  159.9100  214.0500  150.3240 C   0  0  0  0  0  2  0  0  0  0  0  0
  158.8620  212.7830  152.2410 C   0  0  0  0  0  0  0  0  0  0  0  0
  157.9030  212.6540  153.0500 O   0  0  0  0  0  0  0  0  0  0  0  0
  158.8120  213.8120  151.2530 N   0  0  0  0  0  2  0  0  0  0  0  0
  160.0420  211.8760  152.3570 C   0  0  0  0  0  2  0  0  0  0  0  0
  160.4570  211.8080  153.6850 O   0  0  0  0  0  1  0  0  0  0  0  0
  2 13  2  0  0  0  0
  2 12  1  0  0  0  0
  3  2  1  0  0  0  0
  4 17  1  0  0  0  0
  4 23  2  0  0  0  0
  5 16  1  0  0  0  0
  6  1  1  0  0  0  0
  7 16  1  0  0  0  0
  7 19  1  0  0  0  0
  8 19  1  0  0  0  0
  8 22  1  0  0  0  0
  8 25  1  1  0  0  0
  9 15  1  0  0  0  0
  9 24  1  0  0  0  0
 10 21  1  0  0  0  0
 11 24  1  0  0  0  0
 12 20  1  0  0  0  0
 12  1  2  0  0  0  0
 13  6  1  0  0  0  0
 15 20  1  0  0  0  0
 17 25  1  6  0  0  0
 17  3  1  0  0  0  0
 18 21  1  0  0  0  0
 18 11  1  0  0  0  0
 20 14  2  0  0  0  0
 21  9  2  0  0  0  0
 22  5  1  6  0  0  0
 22 10  1  0  0  0  0
 23 13  1  0  0  0  0
 26 23  1  0  0  0  0
 26 27  1  0  0  0  0
 28 27  1  0  0  0  0
 29 30  1  0  0  0  0
 29 28  1  0  0  0  0
 30 31  1  1  0  0  0
 30 32  1  0  0  0  0
 32 33  1  6  0  0  0
 32 35  1  0  0  0  0
 34 33  1  0  0  0  0
 35 38  1  0  0  0  0
 36 39  1  0  0  0  0
 36 37  2  0  0  0  0
 38 36  1  0  0  0  0
 39 40  1  0  0  0  0
M  END
>  <MODEL>
6

>  <REMARK>
 VINA RESULT:      -2.9      4.741      9.233
  Name = 
  10 active torsions:
  status: ('A' for Active; 'I' for Inactive)
    1  A    between atoms: C_1  and  C_4
    2  A    between atoms: C_3  and  C_31
    3  A    between atoms: C_4  and  C_11
    4  A    between atoms: C_4  and  C_16
    5  A    between atoms: C_11  and  N_36
    6  A    between atoms: C_12  and  C_14
    7  A    between atoms: C_12  and  C_23
    8  A    between atoms: C_14  and  O_25
    9  A    between atoms: C_16  and  C_23
   10  A    between atoms: O_25  and  C_37
                            x       y       z     vdW  Elec       q    Type
                         _______ _______ _______ _____ _____    ______ ____

>  <TORSDO>
F 10

$$$$
=
 OpenBabel11072410503D

 40 44  0  0  1  0  0  0  0  0999 V2000
  160.6640  210.6780  153.7770 N   0  0  0  0  0  0  0  0  0  0  0  0
  160.5820  210.6990  151.5820 C   0  0  0  0  0  0  0  0  0  0  0  0
  160.4510  211.0570  150.2100 N   0  0  0  0  0  2  0  0  0  0  0  0
  161.9200  209.0990  149.7070 C   0  0  0  0  0  3  0  0  0  0  0  0
  162.4800  214.2670  147.4400 C   0  0  0  0  0  2  0  0  0  0  0  0
  161.3550  209.6260  153.3380 N   0  0  0  0  0  2  0  0  0  0  0  0
  164.1700  212.5840  148.1720 C   0  0  0  0  0  2  0  0  0  0  0  0
  162.0810  211.8450  147.7570 C   0  0  2  0  0  3  0  0  0  0  0  0
  159.2150  214.0250  150.6420 C   0  0  0  0  0  0  0  0  0  0  0  0
  160.9560  213.5150  149.1300 O   0  0  0  0  0  0  0  0  0  0  0  0
  157.1620  214.1520  149.3810 C   0  0  0  0  0  2  0  0  0  0  0  0
  160.1950  211.3650  152.7130 C   0  0  0  0  0  0  0  0  0  0  0  0
  161.3110  209.6370  151.9910 C   0  0  0  0  0  0  0  0  0  0  0  0
  158.9260  213.1090  153.7170 O   0  0  0  0  0  0  0  0  0  0  0  0
  160.0550  213.6440  151.7350 N   0  0  0  0  0  2  0  0  0  0  0  0
  163.7500  214.0580  148.2700 C   0  0  0  0  0  2  0  0  0  0  0  0
  160.8360  210.0540  149.2150 C   0  0  2  0  0  3  0  0  0  0  0  0
  158.4850  214.4530  148.1550 S   0  0  0  0  0  0  0  0  0  0  0  0
  163.1500  211.7420  148.6650 O   0  0  0  0  0  0  0  0  0  0  0  0
  159.6550  212.7280  152.7560 C   0  0  0  0  0  0  0  0  0  0  0  0
  159.6720  213.9920  149.4050 C   0  0  0  0  0  0  0  0  0  0  0  0
  161.4170  213.2360  147.8140 C   0  0  1  0  0  3  0  0  0  0  0  0
  162.1070  208.8510  151.0180 C   0  0  0  0  0  0  0  0  0  0  0  0
  157.7590  214.3000  150.7790 C   0  0  0  0  0  2  0  0  0  0  0  0
  161.1020  210.6610  147.8310 C   0  0  0  0  0  2  0  0  0  0  0  0
  163.0810  207.9230  151.3980 O   0  0  0  0  0  0  0  0  0  0  0  0
  162.8230  206.5260  151.5300 C   0  0  0  0  0  2  0  0  0  0  0  0
  161.3410  206.2790  151.7700 C   0  0  0  0  0  2  0  0  0  0  0  0
  160.9050  204.9470  151.1670 C   0  0  0  0  0  2  0  0  0  0  0  0
  161.2280  204.9130  149.6810 C   0  0  2  0  0  3  0  0  0  0  0  0
  160.5720  205.9580  149.0210 O   0  0  0  0  0  1  0  0  0  0  0  0
  160.8620  203.5550  149.0680 C   0  0  2  0  0  3  0  0  0  0  0  0
  160.7850  202.4550  150.1260 C   0  0  0  0  0  2  0  0  0  0  0  0
  160.5680  201.0770  149.5250 C   0  0  0  0  0  1  0  0  0  0  0  0
  161.7620  203.1480  147.9040 C   0  0  0  0  0  2  0  0  0  0  0  0
  161.3200  204.0730  145.5950 C   0  0  0  0  0  0  0  0  0  0  0  0
  160.6660  204.0140  144.5190 O   0  0  0  0  0  0  0  0  0  0  0  0
  161.0090  203.1690  146.6560 N   0  0  0  0  0  2  0  0  0  0  0  0
  162.4280  205.0660  145.7240 C   0  0  0  0  0  2  0  0  0  0  0  0
  161.9020  206.3260  146.0060 O   0  0  0  0  0  1  0  0  0  0  0  0
  2 13  2  0  0  0  0
  2 12  1  0  0  0  0
  3  2  1  0  0  0  0
  4 23  2  0  0  0  0
  5 16  1  0  0  0  0
  6  1  1  0  0  0  0
  7 16  1  0  0  0  0
  7 19  1  0  0  0  0
  8 22  1  0  0  0  0
  8 25  1  1  0  0  0
  8 19  1  0  0  0  0
  9 24  1  0  0  0  0
  9 15  1  0  0  0  0
 10 21  1  0  0  0  0
 11 24  1  0  0  0  0
 12 20  1  0  0  0  0
 12  1  2  0  0  0  0
 13  6  1  0  0  0  0
 15 20  1  0  0  0  0
 17 25  1  6  0  0  0
 17  4  1  0  0  0  0
 17  3  1  0  0  0  0
 18 11  1  0  0  0  0
 18 21  1  0  0  0  0
 20 14  2  0  0  0  0
 21  9  2  0  0  0  0
 22  5  1  1  0  0  0
 22 10  1  0  0  0  0
 23 26  1  0  0  0  0
 23 13  1  0  0  0  0
 26 27  1  0  0  0  0
 27 28  1  0  0  0  0
 29 28  1  0  0  0  0
 30 31  1  6  0  0  0
 30 29  1  0  0  0  0
 32 35  1  6  0  0  0
 32 30  1  0  0  0  0
 32 33  1  0  0  0  0
 34 33  1  0  0  0  0
 36 39  1  0  0  0  0
 36 38  1  0  0  0  0
 37 36  2  0  0  0  0
 38 35  1  0  0  0  0
 39 40  1  0  0  0  0
M  END
>  <MODEL>
7

>  <REMARK>
 VINA RESULT:      -2.7      4.537      7.432
  Name = 
  10 active torsions:
  status: ('A' for Active; 'I' for Inactive)
    1  A    between atoms: C_1  and  C_4
    2  A    between atoms: C_3  and  C_31
    3  A    between atoms: C_4  and  C_11
    4  A    between atoms: C_4  and  C_16
    5  A    between atoms: C_11  and  N_36
    6  A    between atoms: C_12  and  C_14
    7  A    between atoms: C_12  and  C_23
    8  A    between atoms: C_14  and  O_25
    9  A    between atoms: C_16  and  C_23
   10  A    between atoms: O_25  and  C_37
                            x       y       z     vdW  Elec       q    Type
                         _______ _______ _______ _____ _____    ______ ____

>  <TORSDO>
F 10

$$$$
=
 OpenBabel11072410503D

 40 44  0  0  1  0  0  0  0  0999 V2000
  160.5610  205.8030  151.2350 N   0  0  0  0  0  0  0  0  0  0  0  0
  161.4970  205.2090  149.3390 C   0  0  0  0  0  0  0  0  0  0  0  0
  161.9020  204.5320  148.1530 N   0  0  0  0  0  2  0  0  0  0  0  0
  162.4960  206.7830  147.2430 C   0  0  0  0  0  3  0  0  0  0  0  0
  159.6330  202.7770  144.4300 C   0  0  0  0  0  2  0  0  0  0  0  0
  161.0100  206.9100  150.6430 N   0  0  0  0  0  2  0  0  0  0  0  0
  159.4000  205.2600  144.4750 C   0  0  0  0  0  2  0  0  0  0  0  0
  161.3650  204.3890  145.1550 C   0  0  2  0  0  3  0  0  0  0  0  0
  160.5190  201.6660  148.7830 C   0  0  0  0  0  0  0  0  0  0  0  0
  160.3920  202.7770  146.7020 O   0  0  0  0  0  0  0  0  0  0  0  0
  162.2320  199.9760  148.6080 C   0  0  0  0  0  2  0  0  0  0  0  0
  160.8320  204.7450  150.4410 C   0  0  0  0  0  0  0  0  0  0  0  0
  161.5820  206.5500  149.4770 C   0  0  0  0  0  0  0  0  0  0  0  0
  160.0510  202.8990  151.7220 O   0  0  0  0  0  0  0  0  0  0  0  0
  159.8020  202.7390  149.3980 N   0  0  0  0  0  2  0  0  0  0  0  0
  158.6410  203.9310  144.5960 C   0  0  0  0  0  2  0  0  0  0  0  0
  162.7370  205.2770  147.2070 C   0  0  2  0  0  3  0  0  0  0  0  0
  161.7080  200.2930  146.8840 S   0  0  0  0  0  0  0  0  0  0  0  0
  160.3950  205.3570  145.4710 O   0  0  0  0  0  0  0  0  0  0  0  0
  160.2430  203.4090  150.5800 C   0  0  0  0  0  0  0  0  0  0  0  0
  160.7630  201.6820  147.4860 C   0  0  0  0  0  0  0  0  0  0  0  0
  160.8300  202.9580  145.3610 C   0  0  1  0  0  3  0  0  0  0  0  0
  162.0080  207.3980  148.3380 C   0  0  0  0  0  0  0  0  0  0  0  0
  161.1890  200.5780  149.5460 C   0  0  0  0  0  2  0  0  0  0  0  0
  162.7340  204.6640  145.8010 C   0  0  0  0  0  2  0  0  0  0  0  0
  161.8620  208.7890  148.3230 O   0  0  0  0  0  0  0  0  0  0  0  0
  162.6750  209.6700  149.0970 C   0  0  0  0  0  2  0  0  0  0  0  0
  161.8340  210.4000  150.1330 C   0  0  0  0  0  2  0  0  0  0  0  0
  162.1980  209.9520  151.5450 C   0  0  0  0  0  2  0  0  0  0  0  0
  160.9450  209.8360  152.3990 C   0  0  2  0  0  3  0  0  0  0  0  0
  160.1320  210.9590  152.2180 O   0  0  0  0  0  1  0  0  0  0  0  0
  161.3010  209.6430  153.8790 C   0  0  2  0  0  3  0  0  0  0  0  0
  160.5000  208.5080  154.5140 C   0  0  0  0  0  2  0  0  0  0  0  0
  161.2020  207.1650  154.4120 C   0  0  0  0  0  1  0  0  0  0  0  0
  161.2020  210.9250  154.7020 C   0  0  0  0  0  2  0  0  0  0  0  0
  159.0640  211.6690  155.8230 C   0  0  0  0  0  0  0  0  0  0  0  0
  158.1850  211.4690  156.7040 O   0  0  0  0  0  0  0  0  0  0  0  0
  160.1810  210.7830  155.7310 N   0  0  0  0  0  2  0  0  0  0  0  0
  158.9010  212.8090  154.8730 C   0  0  0  0  0  2  0  0  0  0  0  0
  157.6960  212.6840  154.1860 O   0  0  0  0  0  1  0  0  0  0  0  0
  2 13  2  0  0  0  0
  2 12  1  0  0  0  0
  3  2  1  0  0  0  0
  4 23  2  0  0  0  0
  5 16  1  0  0  0  0
  6  1  1  0  0  0  0
  7 16  1  0  0  0  0
  7 19  1  0  0  0  0
  8 22  1  0  0  0  0
  8 19  1  0  0  0  0
  8 25  1  1  0  0  0
  9 15  1  0  0  0  0
  9 24  1  0  0  0  0
 10 21  1  0  0  0  0
 11 24  1  0  0  0  0
 12 20  1  0  0  0  0
 12  1  2  0  0  0  0
 13  6  1  0  0  0  0
 15 20  1  0  0  0  0
 17 25  1  6  0  0  0
 17  4  1  0  0  0  0
 17  3  1  0  0  0  0
 18 21  1  0  0  0  0
 18 11  1  0  0  0  0
 20 14  2  0  0  0  0
 21  9  2  0  0  0  0
 22  5  1  6  0  0  0
 22 10  1  0  0  0  0
 23 13  1  0  0  0  0
 26 23  1  0  0  0  0
 26 27  1  0  0  0  0
 27 28  1  0  0  0  0
 28 29  1  0  0  0  0
 29 30  1  0  0  0  0
 30 31  1  1  0  0  0
 30 32  1  0  0  0  0
 32 33  1  1  0  0  0
 32 35  1  0  0  0  0
 34 33  1  0  0  0  0
 35 38  1  0  0  0  0
 36 37  2  0  0  0  0
 38 36  1  0  0  0  0
 39 36  1  0  0  0  0
 40 39  1  0  0  0  0
M  END
>  <MODEL>
8

>  <REMARK>
 VINA RESULT:      -2.6      5.477     10.753
  Name = 
  10 active torsions:
  status: ('A' for Active; 'I' for Inactive)
    1  A    between atoms: C_1  and  C_4
    2  A    between atoms: C_3  and  C_31
    3  A    between atoms: C_4  and  C_11
    4  A    between atoms: C_4  and  C_16
    5  A    between atoms: C_11  and  N_36
    6  A    between atoms: C_12  and  C_14
    7  A    between atoms: C_12  and  C_23
    8  A    between atoms: C_14  and  O_25
    9  A    between atoms: C_16  and  C_23
   10  A    between atoms: O_25  and  C_37
                            x       y       z     vdW  Elec       q    Type
                         _______ _______ _______ _____ _____    ______ ____

>  <TORSDO>
F 10

$$$$
=
 OpenBabel11072410503D

 40 44  0  0  1  0  0  0  0  0999 V2000
  160.5630  205.9240  151.7110 N   0  0  0  0  0  0  0  0  0  0  0  0
  161.5640  205.4080  149.8250 C   0  0  0  0  0  0  0  0  0  0  0  0
  161.9970  204.7890  148.6180 N   0  0  0  0  0  2  0  0  0  0  0  0
  162.7260  207.0640  147.8820 C   0  0  0  0  0  3  0  0  0  0  0  0
  159.8390  203.3700  144.6910 C   0  0  0  0  0  2  0  0  0  0  0  0
  161.0850  207.0440  151.2120 N   0  0  0  0  0  2  0  0  0  0  0  0
  159.7070  205.8530  144.8850 C   0  0  0  0  0  2  0  0  0  0  0  0
  161.5990  204.8560  145.5960 C   0  0  2  0  0  3  0  0  0  0  0  0
  160.4690  201.9530  149.0000 C   0  0  0  0  0  0  0  0  0  0  0  0
  160.4880  203.1960  146.9910 O   0  0  0  0  0  0  0  0  0  0  0  0
  162.1180  200.2030  148.7940 C   0  0  0  0  0  2  0  0  0  0  0  0
  160.8280  204.9060  150.8640 C   0  0  0  0  0  0  0  0  0  0  0  0
  161.6970  206.7330  150.0530 C   0  0  0  0  0  0  0  0  0  0  0  0
  159.9110  203.0200  151.9880 O   0  0  0  0  0  0  0  0  0  0  0  0
  159.7680  203.0160  149.6490 N   0  0  0  0  0  2  0  0  0  0  0  0
  158.8880  204.5540  144.8860 C   0  0  0  0  0  2  0  0  0  0  0  0
  162.9060  205.5530  147.7610 C   0  0  2  0  0  3  0  0  0  0  0  0
  161.6910  200.6490  147.0730 S   0  0  0  0  0  0  0  0  0  0  0  0
  160.6560  205.8440  145.9290 O   0  0  0  0  0  0  0  0  0  0  0  0
  160.1790  203.5910  150.8910 C   0  0  0  0  0  0  0  0  0  0  0  0
  160.7750  202.0380  147.7190 C   0  0  0  0  0  0  0  0  0  0  0  0
  160.9960  203.4400  145.6850 C   0  0  1  0  0  3  0  0  0  0  0  0
  162.2110  207.6310  148.9900 C   0  0  0  0  0  0  0  0  0  0  0  0
  161.0560  200.7920  149.7210 C   0  0  0  0  0  2  0  0  0  0  0  0
  162.9450  205.0300  146.3200 C   0  0  0  0  0  2  0  0  0  0  0  0
  162.1230  209.0250  149.0590 O   0  0  0  0  0  0  0  0  0  0  0  0
  162.6080  209.7870  150.1630 C   0  0  0  0  0  2  0  0  0  0  0  0
  161.5640  210.7990  150.6120 C   0  0  0  0  0  2  0  0  0  0  0  0
  161.1640  210.5630  152.0640 C   0  0  0  0  0  2  0  0  0  0  0  0
  159.9060  211.3510  152.3970 C   0  0  2  0  0  3  0  0  0  0  0  0
  159.9960  212.6450  151.8740 O   0  0  0  0  0  1  0  0  0  0  0  0
  159.6590  211.3820  153.9120 C   0  0  2  0  0  3  0  0  0  0  0  0
  158.9990  212.6870  154.3540 C   0  0  0  0  0  2  0  0  0  0  0  0
  157.4920  212.5630  154.5010 C   0  0  0  0  0  1  0  0  0  0  0  0
  160.9050  211.0770  154.7390 C   0  0  0  0  0  2  0  0  0  0  0  0
  160.5240  208.9160  155.9910 C   0  0  0  0  0  0  0  0  0  0  0  0
  160.2470  208.3350  157.0750 O   0  0  0  0  0  0  0  0  0  0  0  0
  160.5390  210.3440  155.9440 N   0  0  0  0  0  2  0  0  0  0  0  0
  160.8620  208.0990  154.7880 C   0  0  0  0  0  2  0  0  0  0  0  0
  160.4570  206.7800  154.9840 O   0  0  0  0  0  1  0  0  0  0  0  0
  2 13  2  0  0  0  0
  2 12  1  0  0  0  0
  3  2  1  0  0  0  0
  4 23  2  0  0  0  0
  5 16  1  0  0  0  0
  6  1  1  0  0  0  0
  7 16  1  0  0  0  0
  7 19  1  0  0  0  0
  8 22  1  0  0  0  0
  8 19  1  0  0  0  0
  8 25  1  1  0  0  0
  9 15  1  0  0  0  0
  9 24  1  0  0  0  0
 10 21  1  0  0  0  0
 11 24  1  0  0  0  0
 12 20  1  0  0  0  0
 12  1  2  0  0  0  0
 13  6  1  0  0  0  0
 15 20  1  0  0  0  0
 17 25  1  6  0  0  0
 17  4  1  0  0  0  0
 17  3  1  0  0  0  0
 18 21  1  0  0  0  0
 18 11  1  0  0  0  0
 20 14  2  0  0  0  0
 21  9  2  0  0  0  0
 22  5  1  6  0  0  0
 22 10  1  0  0  0  0
 23 26  1  0  0  0  0
 23 13  1  0  0  0  0
 26 27  1  0  0  0  0
 27 28  1  0  0  0  0
 28 29  1  0  0  0  0
 29 30  1  0  0  0  0
 30 31  1  1  0  0  0
 30 32  1  0  0  0  0
 32 33  1  1  0  0  0
 32 35  1  0  0  0  0
 33 34  1  0  0  0  0
 35 38  1  0  0  0  0
 36 37  2  0  0  0  0
 38 36  1  0  0  0  0
 39 40  1  0  0  0  0
 39 36  1  0  0  0  0
M  END
>  <MODEL>
9

>  <REMARK>
 VINA RESULT:      -2.5      5.486     10.550
  Name = 
  10 active torsions:
  status: ('A' for Active; 'I' for Inactive)
    1  A    between atoms: C_1  and  C_4
    2  A    between atoms: C_3  and  C_31
    3  A    between atoms: C_4  and  C_11
    4  A    between atoms: C_4  and  C_16
    5  A    between atoms: C_11  and  N_36
    6  A    between atoms: C_12  and  C_14
    7  A    between atoms: C_12  and  C_23
    8  A    between atoms: C_14  and  O_25
    9  A    between atoms: C_16  and  C_23
   10  A    between atoms: O_25  and  C_37
                            x       y       z     vdW  Elec       q    Type
                         _______ _______ _______ _____ _____    ______ ____

>  <TORSDO>
F 10

$$$$
