=
 OpenBabel11072412263D

 33 36  0  0  1  0  0  0  0  0999 V2000
  161.8760  206.7610  153.0670 C   0  0  0  0  0  3  0  0  0  0  0  0
  160.8090  204.8150  152.1070 C   0  0  0  0  0  3  0  0  0  0  0  0
  160.5600  205.5310  150.9350 C   0  0  0  0  0  3  0  0  0  0  0  0
  161.6120  207.4940  151.9040 C   0  0  0  0  0  0  0  0  0  0  0  0
  160.9660  206.8710  150.8140 C   0  0  0  0  0  0  0  0  0  0  0  0
  161.4750  205.4270  153.1710 C   0  0  0  0  0  3  0  0  0  0  0  0
  156.9260  211.1820  155.3720 C   0  0  0  0  0  0  0  0  0  0  0  0
  159.5850  210.8920  153.7410 C   0  0  2  0  0  3  0  0  0  0  0  0
  161.6050  210.7440  154.9330 C   0  0  0  0  0  0  0  0  0  0  0  0
  162.7670  210.3020  155.2840 N   0  0  0  0  0  2  0  0  0  0  0  0
  161.0420  210.6030  153.5990 C   0  0  0  0  0  0  0  0  0  0  0  0
  161.5130  209.7620  152.7160 C   0  0  0  0  0  0  0  0  0  0  0  0
  159.2760  212.2030  153.0390 C   0  0  0  0  0  1  0  0  0  0  0  0
  156.7640  210.6440  154.2420 O   0  0  0  0  0  0  0  0  0  0  0  0
  158.2370  211.3380  155.9250 N   0  0  0  0  0  2  0  0  0  0  0  0
  159.4660  211.0900  155.2320 C   0  0  0  0  0  0  0  0  0  0  0  0
  162.0160  208.9030  151.8720 C   0  0  0  0  0  3  0  0  0  0  0  0
  160.5860  211.0180  155.8760 N   0  0  0  0  0  0  0  0  0  0  0  0
  155.7970  211.6180  156.1340 N   0  0  0  0  0  0  0  0  0  0  0  0
  155.6090  212.8600  156.4400 C   0  0  0  0  0  3  0  0  0  0  0  0
  154.4190  213.2570  157.2370 C   0  0  0  0  0  1  0  0  0  0  0  0
  160.7900  207.5760  149.5770 N   0  0  0  0  0  2  0  0  0  0  0  0
  162.1820  209.4080  148.7430 O   0  0  0  0  0  1  0  0  0  0  0  0
  161.8890  208.0440  148.7340 C   0  0  1  0  0  0  0  0  0  0  0  0
  163.0650  207.1100  148.6060 C   0  0  0  0  0  2  0  0  0  0  0  0
  162.1370  207.3470  147.4080 C   0  0  1  0  0  3  0  0  0  0  0  0
  162.1170  204.8870  147.0770 C   0  0  0  0  0  2  0  0  0  0  0  0
  162.6520  203.8830  144.8710 C   0  0  0  0  0  1  0  0  0  0  0  0
  160.4020  204.8290  145.3420 C   0  0  0  0  0  2  0  0  0  0  0  0
  161.5760  204.0640  145.9230 C   0  0  2  0  0  0  0  0  0  0  0  0
  161.1510  202.8190  146.3820 O   0  0  0  0  0  1  0  0  0  0  0  0
  160.5290  206.2460  145.8580 C   0  0  0  0  0  2  0  0  0  0  0  0
  161.2530  206.1290  147.1830 C   0  0  2  0  0  3  0  0  0  0  0  0
  1  6  1  0  0  0  0
  2  6  2  0  0  0  0
  3  2  1  0  0  0  0
  4  1  2  0  0  0  0
  5  3  2  0  0  0  0
  5  4  1  0  0  0  0
  7 15  1  0  0  0  0
  7 19  1  0  0  0  0
  8 13  1  6  0  0  0
  8 16  1  0  0  0  0
  9 10  2  0  0  0  0
  9 18  1  0  0  0  0
 11  8  1  0  0  0  0
 11  9  1  0  0  0  0
 12 11  2  0  0  0  0
 14  7  2  0  0  0  0
 16 18  2  0  0  0  0
 16 15  1  0  0  0  0
 17  4  1  0  0  0  0
 17 12  2  0  0  0  0
 19 20  2  0  0  0  0
 20 21  1  0  0  0  0
 22  5  1  0  0  0  0
 24 23  1  1  0  0  0
 24 22  1  0  0  0  0
 25 24  1  0  0  0  0
 26 25  1  1  0  0  0
 26 24  1  0  0  0  0
 27 33  1  0  0  0  0
 29 32  1  0  0  0  0
 29 30  1  0  0  0  0
 30 28  1  6  0  0  0
 30 31  1  0  0  0  0
 30 27  1  0  0  0  0
 33 32  1  6  0  0  0
 33 26  1  0  0  0  0
M  END
>  <MODEL>
1

>  <REMARK>
 VINA RESULT:      -7.3      0.000      0.000
  Name = 
  5 active torsions:
  status: ('A' for Active; 'I' for Inactive)
    1  A    between atoms: C_1  and  N_3
    2  A    between atoms: C_10  and  N_28
    3  A    between atoms: C_22  and  C_31
    4  A    between atoms: C_24  and  N_28
    5  A    between atoms: C_25  and  C_29
                            x       y       z     vdW  Elec       q    Type
                         _______ _______ _______ _____ _____    ______ ____

>  <TORSDO>
F 5

$$$$
=
 OpenBabel11072412263D

 33 36  0  0  1  0  0  0  0  0999 V2000
  161.7800  208.6210  148.7030 C   0  0  0  0  0  3  0  0  0  0  0  0
  160.8660  206.6810  149.8180 C   0  0  0  0  0  3  0  0  0  0  0  0
  161.0090  207.3220  151.0490 C   0  0  0  0  0  3  0  0  0  0  0  0
  161.9470  209.2650  149.9350 C   0  0  0  0  0  0  0  0  0  0  0  0
  161.5390  208.6220  151.1230 C   0  0  0  0  0  0  0  0  0  0  0  0
  161.2440  207.3330  148.6430 C   0  0  0  0  0  3  0  0  0  0  0  0
  159.5120  212.7830  144.5230 C   0  0  0  0  0  0  0  0  0  0  0  0
  161.2590  212.5180  147.1110 C   0  0  2  0  0  3  0  0  0  0  0  0
  160.3810  213.3440  149.1280 C   0  0  0  0  0  0  0  0  0  0  0  0
  160.0500  213.3700  150.3770 N   0  0  0  0  0  2  0  0  0  0  0  0
  161.4770  212.5550  148.5860 C   0  0  0  0  0  0  0  0  0  0  0  0
  162.0360  211.5730  149.2430 C   0  0  0  0  0  0  0  0  0  0  0  0
  162.3510  213.3280  146.4350 C   0  0  0  0  0  1  0  0  0  0  0  0
  160.3260  211.8190  144.4820 O   0  0  0  0  0  0  0  0  0  0  0  0
  159.2400  213.4550  145.7570 N   0  0  0  0  0  2  0  0  0  0  0  0
  159.9480  213.2560  146.9870 C   0  0  0  0  0  0  0  0  0  0  0  0
  162.5570  210.5980  149.9370 C   0  0  0  0  0  3  0  0  0  0  0  0
  159.4810  213.7160  148.1010 N   0  0  0  0  0  0  0  0  0  0  0  0
  158.8240  213.2000  143.3410 N   0  0  0  0  0  0  0  0  0  0  0  0
  159.2310  212.8810  142.1560 C   0  0  0  0  0  3  0  0  0  0  0  0
  158.4780  213.3440  140.9620 C   0  0  0  0  0  1  0  0  0  0  0  0
  161.6000  209.3130  152.3790 N   0  0  0  0  0  2  0  0  0  0  0  0
  160.8120  207.4140  153.7080 O   0  0  0  0  0  1  0  0  0  0  0  0
  161.0690  208.7840  153.6350 C   0  0  1  0  0  0  0  0  0  0  0  0
  161.5800  209.4350  154.8940 C   0  0  0  0  0  2  0  0  0  0  0  0
  160.1280  209.6530  154.4510 C   0  0  1  0  0  3  0  0  0  0  0  0
  159.6170  212.0150  155.0220 C   0  0  0  0  0  2  0  0  0  0  0  0
  157.2840  212.7690  155.4030 C   0  0  0  0  0  1  0  0  0  0  0  0
  158.1840  212.4870  153.1040 C   0  0  0  0  0  2  0  0  0  0  0  0
  158.5070  212.9190  154.5210 C   0  0  2  0  0  0  0  0  0  0  0  0
  158.9330  214.2460  154.5280 O   0  0  0  0  0  1  0  0  0  0  0  0
  158.7800  211.1050  152.9420 C   0  0  0  0  0  2  0  0  0  0  0  0
  159.9570  211.0590  153.8930 C   0  0  2  0  0  3  0  0  0  0  0  0
  1  4  1  0  0  0  0
  2  3  2  0  0  0  0
  3  5  1  0  0  0  0
  4 17  1  0  0  0  0
  4  5  2  0  0  0  0
  5 22  1  0  0  0  0
  6  1  2  0  0  0  0
  6  2  1  0  0  0  0
  7 15  1  0  0  0  0
  8 13  1  6  0  0  0
  8 11  1  0  0  0  0
  9 10  2  0  0  0  0
 11  9  1  0  0  0  0
 11 12  2  0  0  0  0
 12 17  2  0  0  0  0
 14  7  2  0  0  0  0
 15 16  1  0  0  0  0
 16  8  1  0  0  0  0
 16 18  2  0  0  0  0
 18  9  1  0  0  0  0
 19  7  1  0  0  0  0
 20 19  2  0  0  0  0
 21 20  1  0  0  0  0
 22 24  1  0  0  0  0
 24 23  1  1  0  0  0
 24 26  1  0  0  0  0
 24 25  1  0  0  0  0
 26 25  1  1  0  0  0
 29 30  1  0  0  0  0
 30 31  1  0  0  0  0
 30 27  1  0  0  0  0
 30 28  1  1  0  0  0
 32 29  1  0  0  0  0
 33 32  1  6  0  0  0
 33 26  1  0  0  0  0
 33 27  1  0  0  0  0
M  END
>  <MODEL>
2

>  <REMARK>
 VINA RESULT:      -6.7      4.399      8.904
  Name = 
  5 active torsions:
  status: ('A' for Active; 'I' for Inactive)
    1  A    between atoms: C_1  and  N_3
    2  A    between atoms: C_10  and  N_28
    3  A    between atoms: C_22  and  C_31
    4  A    between atoms: C_24  and  N_28
    5  A    between atoms: C_25  and  C_29
                            x       y       z     vdW  Elec       q    Type
                         _______ _______ _______ _____ _____    ______ ____

>  <TORSDO>
F 5

$$$$
=
 OpenBabel11072412263D

 33 36  0  0  1  0  0  0  0  0999 V2000
  160.1900  209.8610  154.1850 C   0  0  0  0  0  3  0  0  0  0  0  0
  158.0560  210.9830  154.3490 C   0  0  0  0  0  3  0  0  0  0  0  0
  158.3630  211.7320  153.2110 C   0  0  0  0  0  3  0  0  0  0  0  0
  160.5170  210.6210  153.0560 C   0  0  0  0  0  0  0  0  0  0  0  0
  159.5880  211.5530  152.5460 C   0  0  0  0  0  0  0  0  0  0  0  0
  158.9660  210.0410  154.8320 C   0  0  0  0  0  3  0  0  0  0  0  0
  160.7360  204.2540  150.4080 C   0  0  0  0  0  0  0  0  0  0  0  0
  161.9810  207.0710  150.9870 C   0  0  2  0  0  3  0  0  0  0  0  0
  161.8820  208.6950  149.2920 C   0  0  0  0  0  0  0  0  0  0  0  0
  161.6750  209.8410  148.7320 N   0  0  0  0  0  2  0  0  0  0  0  0
  162.2110  208.5160  150.6980 C   0  0  0  0  0  0  0  0  0  0  0  0
  162.0350  209.4530  151.5920 C   0  0  0  0  0  0  0  0  0  0  0  0
  163.3210  206.4040  151.2450 C   0  0  0  0  0  1  0  0  0  0  0  0
  160.7500  204.5530  151.6340 O   0  0  0  0  0  0  0  0  0  0  0  0
  160.9850  205.2510  149.4110 N   0  0  0  0  0  2  0  0  0  0  0  0
  161.4360  206.5870  149.6650 C   0  0  0  0  0  0  0  0  0  0  0  0
  161.8350  210.4180  152.4470 C   0  0  0  0  0  3  0  0  0  0  0  0
  161.3970  207.4860  148.7370 N   0  0  0  0  0  0  0  0  0  0  0  0
  160.4400  202.9190  149.9930 N   0  0  0  0  0  0  0  0  0  0  0  0
  160.9680  202.3910  148.9370 C   0  0  0  0  0  3  0  0  0  0  0  0
  160.6220  200.9980  148.5500 C   0  0  0  0  0  1  0  0  0  0  0  0
  159.8630  212.2570  151.3260 N   0  0  0  0  0  2  0  0  0  0  0  0
  159.3290  214.4530  152.2670 O   0  0  0  0  0  1  0  0  0  0  0  0
  159.6660  213.6950  151.1450 C   0  0  1  0  0  0  0  0  0  0  0  0
  160.5650  214.3620  150.1360 C   0  0  0  0  0  2  0  0  0  0  0  0
  159.0700  214.1890  149.8390 C   0  0  1  0  0  3  0  0  0  0  0  0
  159.5990  213.4530  147.5270 C   0  0  0  0  0  2  0  0  0  0  0  0
  158.3830  214.3830  145.5730 C   0  0  0  0  0  1  0  0  0  0  0  0
  157.3860  212.5870  146.9720 C   0  0  0  0  0  2  0  0  0  0  0  0
  158.6700  213.1280  146.3730 C   0  0  2  0  0  0  0  0  0  0  0  0
  159.2510  212.1660  145.5480 O   0  0  0  0  0  1  0  0  0  0  0  0
  157.4020  212.9910  148.4310 C   0  0  0  0  0  2  0  0  0  0  0  0
  158.8660  213.0910  148.8050 C   0  0  2  0  0  3  0  0  0  0  0  0
  1  6  1  0  0  0  0
  2  6  2  0  0  0  0
  3  2  1  0  0  0  0
  4  1  2  0  0  0  0
  5  4  1  0  0  0  0
  5  3  2  0  0  0  0
  7 14  2  0  0  0  0
  8 13  1  6  0  0  0
  9 11  1  0  0  0  0
 10  9  2  0  0  0  0
 11  8  1  0  0  0  0
 11 12  2  0  0  0  0
 12 17  2  0  0  0  0
 15 16  1  0  0  0  0
 15  7  1  0  0  0  0
 16  8  1  0  0  0  0
 17  4  1  0  0  0  0
 18  9  1  0  0  0  0
 18 16  2  0  0  0  0
 19  7  1  0  0  0  0
 20 19  2  0  0  0  0
 21 20  1  0  0  0  0
 22  5  1  0  0  0  0
 24 22  1  0  0  0  0
 24 23  1  1  0  0  0
 25 24  1  0  0  0  0
 26 25  1  6  0  0  0
 26 24  1  0  0  0  0
 29 32  1  0  0  0  0
 30 28  1  6  0  0  0
 30 29  1  0  0  0  0
 30 27  1  0  0  0  0
 31 30  1  0  0  0  0
 32 33  1  0  0  0  0
 33 27  1  6  0  0  0
 33 26  1  0  0  0  0
M  END
>  <MODEL>
3

>  <REMARK>
 VINA RESULT:      -6.6      3.666      8.032
  Name = 
  5 active torsions:
  status: ('A' for Active; 'I' for Inactive)
    1  A    between atoms: C_1  and  N_3
    2  A    between atoms: C_10  and  N_28
    3  A    between atoms: C_22  and  C_31
    4  A    between atoms: C_24  and  N_28
    5  A    between atoms: C_25  and  C_29
                            x       y       z     vdW  Elec       q    Type
                         _______ _______ _______ _____ _____    ______ ____

>  <TORSDO>
F 5

$$$$
=
 OpenBabel11072412263D

 33 36  0  0  1  0  0  0  0  0999 V2000
  158.4130  213.9630  149.1760 C   0  0  0  0  0  3  0  0  0  0  0  0
  156.1990  213.6750  150.1030 C   0  0  0  0  0  3  0  0  0  0  0  0
  156.7580  213.4340  151.3590 C   0  0  0  0  0  3  0  0  0  0  0  0
  158.9840  213.7010  150.4270 C   0  0  0  0  0  0  0  0  0  0  0  0
  158.1510  213.4550  151.5400 C   0  0  0  0  0  0  0  0  0  0  0  0
  157.0260  213.9480  149.0120 C   0  0  0  0  0  3  0  0  0  0  0  0
  161.0470  207.1600  151.1640 C   0  0  0  0  0  0  0  0  0  0  0  0
  161.5900  210.2320  150.8690 C   0  0  2  0  0  3  0  0  0  0  0  0
  162.1330  211.0610  148.7390 C   0  0  0  0  0  0  0  0  0  0  0  0
  162.0990  211.8290  147.7000 N   0  0  0  0  0  2  0  0  0  0  0  0
  161.7840  211.4860  150.0860 C   0  0  0  0  0  0  0  0  0  0  0  0
  161.1180  212.5840  150.3320 C   0  0  0  0  0  0  0  0  0  0  0  0
  162.7130  210.1120  151.8850 C   0  0  0  0  0  1  0  0  0  0  0  0
  160.4560  207.8590  152.0330 O   0  0  0  0  0  0  0  0  0  0  0  0
  161.6320  207.7730  150.0100 N   0  0  0  0  0  2  0  0  0  0  0  0
  161.7770  209.1830  149.8000 C   0  0  0  0  0  0  0  0  0  0  0  0
  160.4470  213.6860  150.5260 C   0  0  0  0  0  3  0  0  0  0  0  0
  162.0870  209.6500  148.6360 N   0  0  0  0  0  0  0  0  0  0  0  0
  161.1130  205.7390  151.3010 N   0  0  0  0  0  0  0  0  0  0  0  0
  160.7650  204.9360  150.3490 C   0  0  0  0  0  3  0  0  0  0  0  0
  160.8520  203.4660  150.5470 C   0  0  0  0  0  1  0  0  0  0  0  0
  158.7190  213.2970  152.8490 N   0  0  0  0  0  2  0  0  0  0  0  0
  157.3620  214.3150  154.6130 O   0  0  0  0  0  1  0  0  0  0  0  0
  157.9330  213.1610  154.0740 C   0  0  1  0  0  0  0  0  0  0  0  0
  157.1240  211.8960  154.2030 C   0  0  0  0  0  2  0  0  0  0  0  0
  158.3520  212.1190  155.0960 C   0  0  1  0  0  3  0  0  0  0  0  0
  159.4060  209.8820  155.3070 C   0  0  0  0  0  2  0  0  0  0  0  0
  160.8360  209.3140  157.2540 C   0  0  0  0  0  1  0  0  0  0  0  0
  161.7240  210.6430  155.3500 C   0  0  0  0  0  2  0  0  0  0  0  0
  160.8060  209.5040  155.7500 C   0  0  2  0  0  0  0  0  0  0  0  0
  161.2060  208.3270  155.1190 O   0  0  0  0  0  1  0  0  0  0  0  0
  160.8240  211.8290  155.0760 C   0  0  0  0  0  2  0  0  0  0  0  0
  159.5020  211.2380  154.6330 C   0  0  2  0  0  3  0  0  0  0  0  0
  1  4  1  0  0  0  0
  2  3  2  0  0  0  0
  3  5  1  0  0  0  0
  4 17  1  0  0  0  0
  4  5  2  0  0  0  0
  5 22  1  0  0  0  0
  6  1  2  0  0  0  0
  6  2  1  0  0  0  0
  7 19  1  0  0  0  0
  7 14  2  0  0  0  0
  8 13  1  1  0  0  0
  9 11  1  0  0  0  0
 10  9  2  0  0  0  0
 11 12  2  0  0  0  0
 11  8  1  0  0  0  0
 12 17  2  0  0  0  0
 15  7  1  0  0  0  0
 16 15  1  0  0  0  0
 16  8  1  0  0  0  0
 18  9  1  0  0  0  0
 18 16  2  0  0  0  0
 20 21  1  0  0  0  0
 20 19  2  0  0  0  0
 22 24  1  0  0  0  0
 24 25  1  0  0  0  0
 24 23  1  1  0  0  0
 24 26  1  0  0  0  0
 26 25  1  6  0  0  0
 27 30  1  0  0  0  0
 29 30  1  0  0  0  0
 30 28  1  1  0  0  0
 31 30  1  0  0  0  0
 32 29  1  0  0  0  0
 33 32  1  1  0  0  0
 33 26  1  0  0  0  0
 33 27  1  0  0  0  0
M  END
>  <MODEL>
4

>  <REMARK>
 VINA RESULT:      -6.0      3.384      8.740
  Name = 
  5 active torsions:
  status: ('A' for Active; 'I' for Inactive)
    1  A    between atoms: C_1  and  N_3
    2  A    between atoms: C_10  and  N_28
    3  A    between atoms: C_22  and  C_31
    4  A    between atoms: C_24  and  N_28
    5  A    between atoms: C_25  and  C_29
                            x       y       z     vdW  Elec       q    Type
                         _______ _______ _______ _____ _____    ______ ____

>  <TORSDO>
F 5

$$$$
=
 OpenBabel11072412263D

 33 36  0  0  1  0  0  0  0  0999 V2000
  162.2560  209.1530  149.6550 C   0  0  0  0  0  3  0  0  0  0  0  0
  161.0990  207.7200  148.0890 C   0  0  0  0  0  3  0  0  0  0  0  0
  160.7970  206.8340  149.1250 C   0  0  0  0  0  3  0  0  0  0  0  0
  161.9760  208.2610  150.6960 C   0  0  0  0  0  0  0  0  0  0  0  0
  161.2200  207.0970  150.4390 C   0  0  0  0  0  0  0  0  0  0  0  0
  161.8220  208.8840  148.3550 C   0  0  0  0  0  3  0  0  0  0  0  0
  157.4560  212.3850  153.8820 C   0  0  0  0  0  0  0  0  0  0  0  0
  160.1100  210.7220  153.7760 C   0  0  2  0  0  3  0  0  0  0  0  0
  160.1040  208.5680  154.7140 C   0  0  0  0  0  0  0  0  0  0  0  0
  160.3080  207.2960  154.8110 N   0  0  0  0  0  2  0  0  0  0  0  0
  160.9070  209.4680  153.9000 C   0  0  0  0  0  0  0  0  0  0  0  0
  161.7120  209.0460  152.9610 C   0  0  0  0  0  0  0  0  0  0  0  0
  160.8100  211.8250  154.5500 C   0  0  0  0  0  1  0  0  0  0  0  0
  158.2090  212.7050  152.9220 O   0  0  0  0  0  0  0  0  0  0  0  0
  157.6890  211.1840  154.6230 N   0  0  0  0  0  2  0  0  0  0  0  0
  158.8410  210.3400  154.4990 C   0  0  0  0  0  0  0  0  0  0  0  0
  162.4970  208.5760  152.0310 C   0  0  0  0  0  3  0  0  0  0  0  0
  158.8550  209.1570  155.0210 N   0  0  0  0  0  0  0  0  0  0  0  0
  156.3360  213.2040  154.2260 N   0  0  0  0  0  0  0  0  0  0  0  0
  156.0640  213.5240  155.4500 C   0  0  0  0  0  3  0  0  0  0  0  0
  154.8850  214.3760  155.7510 C   0  0  0  0  0  1  0  0  0  0  0  0
  160.8300  206.2330  151.5160 N   0  0  0  0  0  2  0  0  0  0  0  0
  162.8860  205.7120  152.7380 O   0  0  0  0  0  1  0  0  0  0  0  0
  161.7130  205.2490  152.1400 C   0  0  1  0  0  0  0  0  0  0  0  0
  161.0330  204.0870  152.8190 C   0  0  0  0  0  2  0  0  0  0  0  0
  161.8170  203.8670  151.5190 C   0  0  1  0  0  3  0  0  0  0  0  0
  160.4540  202.1820  150.3080 C   0  0  0  0  0  2  0  0  0  0  0  0
  161.4880  200.6260  148.6740 C   0  0  0  0  0  1  0  0  0  0  0  0
  160.9390  202.9680  148.0490 C   0  0  0  0  0  2  0  0  0  0  0  0
  160.4970  201.7600  148.8520 C   0  0  2  0  0  0  0  0  0  0  0  0
  159.2320  201.3490  148.4350 O   0  0  0  0  0  1  0  0  0  0  0  0
  161.5490  203.9320  149.0440 C   0  0  0  0  0  2  0  0  0  0  0  0
  160.8560  203.6440  150.3600 C   0  0  2  0  0  3  0  0  0  0  0  0
  1  4  1  0  0  0  0
  2  6  1  0  0  0  0
  2  3  2  0  0  0  0
  3  5  1  0  0  0  0
  4 17  1  0  0  0  0
  5  4  2  0  0  0  0
  5 22  1  0  0  0  0
  6  1  2  0  0  0  0
  7 19  1  0  0  0  0
  7 15  1  0  0  0  0
  8 11  1  0  0  0  0
  8 16  1  0  0  0  0
  8 13  1  1  0  0  0
  9 10  2  0  0  0  0
  9 18  1  0  0  0  0
 11  9  1  0  0  0  0
 12 11  2  0  0  0  0
 14  7  2  0  0  0  0
 16 15  1  0  0  0  0
 16 18  2  0  0  0  0
 17 12  2  0  0  0  0
 19 20  2  0  0  0  0
 20 21  1  0  0  0  0
 22 24  1  0  0  0  0
 24 23  1  1  0  0  0
 24 25  1  0  0  0  0
 26 24  1  0  0  0  0
 26 25  1  1  0  0  0
 27 33  1  0  0  0  0
 29 30  1  0  0  0  0
 29 32  1  0  0  0  0
 30 28  1  6  0  0  0
 30 27  1  0  0  0  0
 31 30  1  0  0  0  0
 33 32  1  6  0  0  0
 33 26  1  0  0  0  0
M  END
>  <MODEL>
5

>  <REMARK>
 VINA RESULT:      -5.9      2.321      3.396
  Name = 
  5 active torsions:
  status: ('A' for Active; 'I' for Inactive)
    1  A    between atoms: C_1  and  N_3
    2  A    between atoms: C_10  and  N_28
    3  A    between atoms: C_22  and  C_31
    4  A    between atoms: C_24  and  N_28
    5  A    between atoms: C_25  and  C_29
                            x       y       z     vdW  Elec       q    Type
                         _______ _______ _______ _____ _____    ______ ____

>  <TORSDO>
F 5

$$$$
=
 OpenBabel11072412263D

 33 36  0  0  1  0  0  0  0  0999 V2000
  162.3170  209.3610  148.9290 C   0  0  0  0  0  3  0  0  0  0  0  0
  161.7890  207.0270  149.2740 C   0  0  0  0  0  3  0  0  0  0  0  0
  161.2150  207.3410  150.5080 C   0  0  0  0  0  3  0  0  0  0  0  0
  161.7630  209.6830  150.1740 C   0  0  0  0  0  0  0  0  0  0  0  0
  161.1840  208.6690  150.9670 C   0  0  0  0  0  0  0  0  0  0  0  0
  162.3330  208.0390  148.4800 C   0  0  0  0  0  3  0  0  0  0  0  0
  162.1740  213.6930  144.5750 C   0  0  0  0  0  0  0  0  0  0  0  0
  161.9860  213.2490  147.6710 C   0  0  2  0  0  3  0  0  0  0  0  0
  159.8750  213.4210  148.6880 C   0  0  0  0  0  0  0  0  0  0  0  0
  158.8700  213.1090  149.4370 N   0  0  0  0  0  2  0  0  0  0  0  0
  161.2480  213.0130  148.9460 C   0  0  0  0  0  0  0  0  0  0  0  0
  161.5580  212.0530  149.7760 C   0  0  0  0  0  0  0  0  0  0  0  0
  162.9620  214.3950  147.8760 C   0  0  0  0  0  1  0  0  0  0  0  0
  163.0880  212.9520  145.0310 O   0  0  0  0  0  0  0  0  0  0  0  0
  161.0290  214.0120  145.3720 N   0  0  0  0  0  2  0  0  0  0  0  0
  160.8710  213.7060  146.7630 C   0  0  0  0  0  0  0  0  0  0  0  0
  161.8160  211.0820  150.6100 C   0  0  0  0  0  3  0  0  0  0  0  0
  159.7170  213.8080  147.3370 N   0  0  0  0  0  0  0  0  0  0  0  0
  162.2520  214.2010  143.2410 N   0  0  0  0  0  0  0  0  0  0  0  0
  162.6610  213.4780  142.2500 C   0  0  0  0  0  3  0  0  0  0  0  0
  162.7250  214.0580  140.8830 C   0  0  0  0  0  1  0  0  0  0  0  0
  160.5140  209.0010  152.1920 N   0  0  0  0  0  2  0  0  0  0  0  0
  161.5740  207.5890  153.8880 O   0  0  0  0  0  1  0  0  0  0  0  0
  161.1070  208.8520  153.5190 C   0  0  1  0  0  0  0  0  0  0  0  0
  161.9030  210.0290  154.0220 C   0  0  0  0  0  2  0  0  0  0  0  0
  160.5530  209.6850  154.6620 C   0  0  1  0  0  3  0  0  0  0  0  0
  160.0850  212.0890  154.2600 C   0  0  0  0  0  2  0  0  0  0  0  0
  159.6080  213.6380  156.1400 C   0  0  0  0  0  1  0  0  0  0  0  0
  157.8500  212.1300  155.2390 C   0  0  0  0  0  2  0  0  0  0  0  0
  159.0440  212.9960  154.8880 C   0  0  2  0  0  0  0  0  0  0  0  0
  158.6640  213.9860  153.9830 O   0  0  0  0  0  1  0  0  0  0  0  0
  158.3480  210.7010  155.2150 C   0  0  0  0  0  2  0  0  0  0  0  0
  159.4970  210.6910  154.2280 C   0  0  2  0  0  3  0  0  0  0  0  0
  1  4  1  0  0  0  0
  2  3  2  0  0  0  0
  3  5  1  0  0  0  0
  4 17  1  0  0  0  0
  4  5  2  0  0  0  0
  5 22  1  0  0  0  0
  6  1  2  0  0  0  0
  6  2  1  0  0  0  0
  7 14  2  0  0  0  0
  7 15  1  0  0  0  0
  8 13  1  1  0  0  0
  8 11  1  0  0  0  0
  9 11  1  0  0  0  0
  9 10  2  0  0  0  0
 11 12  2  0  0  0  0
 12 17  2  0  0  0  0
 15 16  1  0  0  0  0
 16 18  2  0  0  0  0
 16  8  1  0  0  0  0
 18  9  1  0  0  0  0
 19  7  1  0  0  0  0
 20 19  2  0  0  0  0
 21 20  1  0  0  0  0
 22 24  1  0  0  0  0
 24 23  1  1  0  0  0
 24 25  1  0  0  0  0
 24 26  1  0  0  0  0
 26 25  1  6  0  0  0
 27 30  1  0  0  0  0
 30 29  1  0  0  0  0
 30 28  1  1  0  0  0
 31 30  1  0  0  0  0
 32 29  1  0  0  0  0
 33 27  1  1  0  0  0
 33 26  1  0  0  0  0
 33 32  1  0  0  0  0
M  END
>  <MODEL>
6

>  <REMARK>
 VINA RESULT:      -5.7      4.628      9.379
  Name = 
  5 active torsions:
  status: ('A' for Active; 'I' for Inactive)
    1  A    between atoms: C_1  and  N_3
    2  A    between atoms: C_10  and  N_28
    3  A    between atoms: C_22  and  C_31
    4  A    between atoms: C_24  and  N_28
    5  A    between atoms: C_25  and  C_29
                            x       y       z     vdW  Elec       q    Type
                         _______ _______ _______ _____ _____    ______ ____

>  <TORSDO>
F 5

$$$$
=
 OpenBabel11072412263D

 33 36  0  0  1  0  0  0  0  0999 V2000
  161.5370  204.1210  152.3850 C   0  0  0  0  0  3  0  0  0  0  0  0
  160.0430  203.9500  150.4930 C   0  0  0  0  0  3  0  0  0  0  0  0
  160.0730  205.3380  150.3460 C   0  0  0  0  0  3  0  0  0  0  0  0
  161.5560  205.5150  152.2600 C   0  0  0  0  0  0  0  0  0  0  0  0
  160.8350  206.1350  151.2170 C   0  0  0  0  0  0  0  0  0  0  0  0
  160.7830  203.3400  151.5070 C   0  0  0  0  0  3  0  0  0  0  0  0
  158.2780  211.4700  153.4370 C   0  0  0  0  0  0  0  0  0  0  0  0
  160.6050  209.4300  153.9310 C   0  0  2  0  0  3  0  0  0  0  0  0
  160.4380  207.9870  155.7780 C   0  0  0  0  0  0  0  0  0  0  0  0
  160.4660  206.8850  156.4530 N   0  0  0  0  0  2  0  0  0  0  0  0
  161.2190  208.2330  154.5750 C   0  0  0  0  0  0  0  0  0  0  0  0
  161.7880  207.2750  153.8910 C   0  0  0  0  0  0  0  0  0  0  0  0
  161.5770  210.5920  154.0320 C   0  0  0  0  0  1  0  0  0  0  0  0
  158.9020  211.1560  152.3850 O   0  0  0  0  0  0  0  0  0  0  0  0
  158.4520  210.7140  154.6400 N   0  0  0  0  0  2  0  0  0  0  0  0
  159.4310  209.6880  154.8440 C   0  0  0  0  0  0  0  0  0  0  0  0
  162.3310  206.2830  153.2390 C   0  0  0  0  0  3  0  0  0  0  0  0
  159.3570  208.8950  155.8630 N   0  0  0  0  0  0  0  0  0  0  0  0
  157.3630  212.5670  153.4350 N   0  0  0  0  0  0  0  0  0  0  0  0
  156.3700  212.6400  154.2610 C   0  0  0  0  0  3  0  0  0  0  0  0
  155.4470  213.8030  154.2130 C   0  0  0  0  0  1  0  0  0  0  0  0
  160.9360  207.5510  151.0080 N   0  0  0  0  0  2  0  0  0  0  0  0
  162.3310  209.5300  150.6480 O   0  0  0  0  0  1  0  0  0  0  0  0
  162.0490  208.2030  150.3200 C   0  0  1  0  0  0  0  0  0  0  0  0
  163.2360  207.3270  150.0080 C   0  0  0  0  0  2  0  0  0  0  0  0
  162.3310  207.8290  148.8750 C   0  0  1  0  0  3  0  0  0  0  0  0
  162.3370  205.5030  148.0070 C   0  0  0  0  0  2  0  0  0  0  0  0
  162.9490  205.0120  145.6530 C   0  0  0  0  0  1  0  0  0  0  0  0
  160.6800  205.8330  146.2470 C   0  0  0  0  0  2  0  0  0  0  0  0
  161.8380  204.9570  146.6830 C   0  0  2  0  0  0  0  0  0  0  0  0
  161.4060  203.6420  146.8410 O   0  0  0  0  0  1  0  0  0  0  0  0
  160.7810  207.1010  147.0680 C   0  0  0  0  0  2  0  0  0  0  0  0
  161.4620  206.6920  148.3570 C   0  0  2  0  0  3  0  0  0  0  0  0
  2  6  1  0  0  0  0
  3  2  2  0  0  0  0
  3  5  1  0  0  0  0
  4  1  1  0  0  0  0
  4 17  1  0  0  0  0
  5  4  2  0  0  0  0
  6  1  2  0  0  0  0
  7 15  1  0  0  0  0
  8 13  1  1  0  0  0
  8 11  1  0  0  0  0
  8 16  1  0  0  0  0
  9 18  1  0  0  0  0
  9 10  2  0  0  0  0
 11  9  1  0  0  0  0
 12 11  2  0  0  0  0
 14  7  2  0  0  0  0
 15 16  1  0  0  0  0
 16 18  2  0  0  0  0
 17 12  2  0  0  0  0
 19  7  1  0  0  0  0
 19 20  2  0  0  0  0
 21 20  1  0  0  0  0
 22  5  1  0  0  0  0
 24 23  1  1  0  0  0
 24 22  1  0  0  0  0
 25 24  1  0  0  0  0
 26 25  1  1  0  0  0
 26 24  1  0  0  0  0
 27 33  1  0  0  0  0
 29 30  1  0  0  0  0
 29 32  1  0  0  0  0
 30 28  1  6  0  0  0
 30 31  1  0  0  0  0
 30 27  1  0  0  0  0
 33 32  1  6  0  0  0
 33 26  1  0  0  0  0
M  END
>  <MODEL>
7

>  <REMARK>
 VINA RESULT:      -5.7      1.747      2.220
  Name = 
  5 active torsions:
  status: ('A' for Active; 'I' for Inactive)
    1  A    between atoms: C_1  and  N_3
    2  A    between atoms: C_10  and  N_28
    3  A    between atoms: C_22  and  C_31
    4  A    between atoms: C_24  and  N_28
    5  A    between atoms: C_25  and  C_29
                            x       y       z     vdW  Elec       q    Type
                         _______ _______ _______ _____ _____    ______ ____

>  <TORSDO>
F 5

$$$$
=
 OpenBabel11072412263D

 33 36  0  0  1  0  0  0  0  0999 V2000
  160.8630  206.7660  153.8250 C   0  0  0  0  0  3  0  0  0  0  0  0
  160.5680  204.4000  153.4230 C   0  0  0  0  0  3  0  0  0  0  0  0
  161.0890  204.5560  152.1360 C   0  0  0  0  0  3  0  0  0  0  0  0
  161.3660  206.9360  152.5310 C   0  0  0  0  0  0  0  0  0  0  0  0
  161.5030  205.8190  151.6790 C   0  0  0  0  0  0  0  0  0  0  0  0
  160.4630  205.5040  154.2710 C   0  0  0  0  0  3  0  0  0  0  0  0
  157.0420  211.3840  155.5490 C   0  0  0  0  0  0  0  0  0  0  0  0
  159.4890  210.6900  153.7190 C   0  0  2  0  0  3  0  0  0  0  0  0
  161.6420  210.8310  154.6500 C   0  0  0  0  0  0  0  0  0  0  0  0
  162.8500  210.4840  154.9510 N   0  0  0  0  0  2  0  0  0  0  0  0
  160.9250  210.3690  153.4720 C   0  0  0  0  0  0  0  0  0  0  0  0
  161.3070  209.3350  152.7700 C   0  0  0  0  0  0  0  0  0  0  0  0
  159.0630  211.7900  152.7630 C   0  0  0  0  0  1  0  0  0  0  0  0
  156.7580  210.5850  154.6150 O   0  0  0  0  0  0  0  0  0  0  0  0
  158.4060  211.6650  155.8790 N   0  0  0  0  0  2  0  0  0  0  0  0
  159.5480  211.2490  155.1200 C   0  0  0  0  0  0  0  0  0  0  0  0
  161.7260  208.2930  152.1050 C   0  0  0  0  0  3  0  0  0  0  0  0
  160.7390  211.3330  155.6170 N   0  0  0  0  0  0  0  0  0  0  0  0
  156.0040  211.9980  156.3160 N   0  0  0  0  0  0  0  0  0  0  0  0
  155.6800  213.2420  156.1700 C   0  0  0  0  0  3  0  0  0  0  0  0
  154.5940  213.8290  156.9970 C   0  0  0  0  0  1  0  0  0  0  0  0
  162.1210  205.9600  150.3910 N   0  0  0  0  0  2  0  0  0  0  0  0
  160.4500  207.2900  149.1950 O   0  0  0  0  0  1  0  0  0  0  0  0
  161.3930  206.2610  149.1600 C   0  0  1  0  0  0  0  0  0  0  0  0
  162.1730  206.1170  147.8790 C   0  0  0  0  0  2  0  0  0  0  0  0
  161.0560  205.1210  148.2150 C   0  0  1  0  0  3  0  0  0  0  0  0
  161.1810  202.6980  147.6860 C   0  0  0  0  0  2  0  0  0  0  0  0
  159.3530  201.1470  148.3280 C   0  0  0  0  0  1  0  0  0  0  0  0
  161.0570  201.8810  149.9820 C   0  0  0  0  0  2  0  0  0  0  0  0
  160.8130  201.4970  148.5350 C   0  0  2  0  0  0  0  0  0  0  0  0
  161.6110  200.4070  148.1920 O   0  0  0  0  0  1  0  0  0  0  0  0
  161.1480  203.3910  150.0040 C   0  0  0  0  0  2  0  0  0  0  0  0
  161.6550  203.7850  148.6330 C   0  0  2  0  0  3  0  0  0  0  0  0
  1  6  1  0  0  0  0
  2  6  2  0  0  0  0
  3  2  1  0  0  0  0
  4  1  2  0  0  0  0
  5  3  2  0  0  0  0
  5  4  1  0  0  0  0
  7 15  1  0  0  0  0
  7 19  1  0  0  0  0
  8 13  1  6  0  0  0
  8 16  1  0  0  0  0
  9 10  2  0  0  0  0
  9 18  1  0  0  0  0
 11  8  1  0  0  0  0
 11  9  1  0  0  0  0
 12 11  2  0  0  0  0
 14  7  2  0  0  0  0
 16 18  2  0  0  0  0
 16 15  1  0  0  0  0
 17  4  1  0  0  0  0
 17 12  2  0  0  0  0
 20 19  2  0  0  0  0
 20 21  1  0  0  0  0
 22  5  1  0  0  0  0
 24 23  1  1  0  0  0
 24 22  1  0  0  0  0
 25 24  1  0  0  0  0
 26 25  1  6  0  0  0
 26 33  1  0  0  0  0
 26 24  1  0  0  0  0
 27 30  1  0  0  0  0
 29 32  1  0  0  0  0
 30 28  1  6  0  0  0
 30 29  1  0  0  0  0
 31 30  1  0  0  0  0
 33 27  1  6  0  0  0
 33 32  1  0  0  0  0
M  END
>  <MODEL>
8

>  <REMARK>
 VINA RESULT:      -5.1      1.748      2.226
  Name = 
  5 active torsions:
  status: ('A' for Active; 'I' for Inactive)
    1  A    between atoms: C_1  and  N_3
    2  A    between atoms: C_10  and  N_28
    3  A    between atoms: C_22  and  C_31
    4  A    between atoms: C_24  and  N_28
    5  A    between atoms: C_25  and  C_29
                            x       y       z     vdW  Elec       q    Type
                         _______ _______ _______ _____ _____    ______ ____

>  <TORSDO>
F 5

$$$$
=
 OpenBabel11072412263D

 33 36  0  0  1  0  0  0  0  0999 V2000
  161.5310  206.0980  148.4130 C   0  0  0  0  0  3  0  0  0  0  0  0
  162.6180  208.1940  147.8960 C   0  0  0  0  0  3  0  0  0  0  0  0
  162.0980  208.7500  149.0670 C   0  0  0  0  0  3  0  0  0  0  0  0
  160.9880  206.6520  149.5770 C   0  0  0  0  0  0  0  0  0  0  0  0
  161.2890  207.9870  149.9250 C   0  0  0  0  0  0  0  0  0  0  0  0
  162.3420  206.8640  147.5730 C   0  0  0  0  0  3  0  0  0  0  0  0
  161.3050  200.1930  147.1750 C   0  0  0  0  0  0  0  0  0  0  0  0
  160.2800  202.3660  149.1870 C   0  0  2  0  0  3  0  0  0  0  0  0
  161.3720  202.5580  151.2590 C   0  0  0  0  0  0  0  0  0  0  0  0
  161.9560  203.1190  152.2660 N   0  0  0  0  0  2  0  0  0  0  0  0
  160.3910  203.2150  150.4080 C   0  0  0  0  0  0  0  0  0  0  0  0
  160.2280  204.5110  150.3860 C   0  0  0  0  0  0  0  0  0  0  0  0
  158.9120  201.7080  149.1710 C   0  0  0  0  0  1  0  0  0  0  0  0
  160.7430  201.1720  146.6120 O   0  0  0  0  0  0  0  0  0  0  0  0
  161.6840  200.2640  148.5530 N   0  0  0  0  0  2  0  0  0  0  0  0
  161.3300  201.3150  149.4600 C   0  0  0  0  0  0  0  0  0  0  0  0
  160.1070  205.8110  150.3950 C   0  0  0  0  0  3  0  0  0  0  0  0
  161.9140  201.4250  150.6090 N   0  0  0  0  0  0  0  0  0  0  0  0
  161.6030  199.0060  146.4360 N   0  0  0  0  0  0  0  0  0  0  0  0
  161.2060  198.8340  145.2170 C   0  0  0  0  0  3  0  0  0  0  0  0
  161.5420  197.5780  144.4970 C   0  0  0  0  0  1  0  0  0  0  0  0
  160.8310  208.5330  151.1710 N   0  0  0  0  0  2  0  0  0  0  0  0
  162.5990  210.2220  151.2790 O   0  0  0  0  0  1  0  0  0  0  0  0
  161.4330  209.6890  151.8320 C   0  0  1  0  0  0  0  0  0  0  0  0
  160.4720  210.6780  152.4390 C   0  0  0  0  0  2  0  0  0  0  0  0
  161.3390  209.7940  153.3440 C   0  0  1  0  0  3  0  0  0  0  0  0
  160.3080  208.9980  155.4580 C   0  0  0  0  0  2  0  0  0  0  0  0
  161.6510  207.8110  157.1750 C   0  0  0  0  0  1  0  0  0  0  0  0
  160.8020  206.6270  155.1610 C   0  0  0  0  0  2  0  0  0  0  0  0
  160.4960  207.6890  156.1990 C   0  0  2  0  0  0  0  0  0  0  0  0
  159.3310  207.3590  156.8890 O   0  0  0  0  0  1  0  0  0  0  0  0
  161.2060  207.3720  153.9070 C   0  0  0  0  0  2  0  0  0  0  0  0
  160.4890  208.7040  153.9800 C   0  0  2  0  0  3  0  0  0  0  0  0
  1  4  1  0  0  0  0
  2  3  2  0  0  0  0
  3  5  1  0  0  0  0
  4  5  2  0  0  0  0
  4 17  1  0  0  0  0
  5 22  1  0  0  0  0
  6  2  1  0  0  0  0
  6  1  2  0  0  0  0
  7 15  1  0  0  0  0
  8 13  1  1  0  0  0
  8 16  1  0  0  0  0
  8 11  1  0  0  0  0
  9 10  2  0  0  0  0
 11  9  1  0  0  0  0
 12 17  2  0  0  0  0
 12 11  2  0  0  0  0
 14  7  2  0  0  0  0
 15 16  1  0  0  0  0
 16 18  2  0  0  0  0
 18  9  1  0  0  0  0
 19  7  1  0  0  0  0
 20 19  2  0  0  0  0
 21 20  1  0  0  0  0
 22 24  1  0  0  0  0
 24 23  1  6  0  0  0
 24 25  1  0  0  0  0
 24 26  1  0  0  0  0
 26 25  1  6  0  0  0
 26 33  1  0  0  0  0
 27 30  1  0  0  0  0
 29 30  1  0  0  0  0
 30 31  1  0  0  0  0
 30 28  1  1  0  0  0
 32 29  1  0  0  0  0
 33 32  1  1  0  0  0
 33 27  1  0  0  0  0
M  END
>  <MODEL>
9

>  <REMARK>
 VINA RESULT:      -5.0      3.691     10.052
  Name = 
  5 active torsions:
  status: ('A' for Active; 'I' for Inactive)
    1  A    between atoms: C_1  and  N_3
    2  A    between atoms: C_10  and  N_28
    3  A    between atoms: C_22  and  C_31
    4  A    between atoms: C_24  and  N_28
    5  A    between atoms: C_25  and  C_29
                            x       y       z     vdW  Elec       q    Type
                         _______ _______ _______ _____ _____    ______ ____

>  <TORSDO>
F 5

$$$$
