=
 OpenBabel11072409573D

 48 53  0  0  1  0  0  0  0  0999 V2000
  161.8510  211.9660  143.6490 O   0  0  0  0  0  0  0  0  0  0  0  0
  160.6550  212.1940  143.5460 C   0  0  0  0  0  0  0  0  0  0  0  0
  162.4220  213.3540  141.2310 C   0  0  1  0  0  3  0  0  0  0  0  0
  156.6880  212.3100  139.2790 C   0  0  0  0  0  3  0  0  0  0  0  0
  162.8580  211.8530  139.2260 C   0  0  1  0  0  3  0  0  0  0  0  0
  163.2630  211.8760  137.7610 C   0  0  0  0  0  1  0  0  0  0  0  0
  160.0980  212.6110  142.1910 C   0  0  1  0  0  3  0  0  0  0  0  0
  158.3970  213.2090  142.4020 S   0  0  1  0  0  0  0  0  0  0  0  0
  158.5450  214.4490  143.2690 O   0  0  0  0  0  0  0  0  0  0  0  0
  158.0080  213.8930  140.7740 C   0  0  1  0  0  3  0  0  0  0  0  0
  160.9230  213.6630  141.3960 C   0  0  2  0  0  3  0  0  0  0  0  0
  162.8640  213.2730  139.7700 C   0  0  0  0  0  2  0  0  0  0  0  0
  160.3540  211.6510  138.5700 C   0  0  2  0  0  3  0  0  0  0  0  0
  161.5250  211.1180  139.4400 C   0  0  1  0  0  3  0  0  0  0  0  0
  159.1380  212.0800  139.4160 C   0  0  1  0  0  3  0  0  0  0  0  0
  163.2250  214.4530  141.8940 C   0  0  0  0  0  1  0  0  0  0  0  0
  160.3770  214.1320  140.1650 O   0  0  0  0  0  0  0  0  0  0  0  0
  159.1340  213.5800  139.7870 C   0  0  2  0  0  3  0  0  0  0  0  0
  156.7440  213.3480  140.2770 N   0  0  0  0  0  2  0  0  0  0  0  0
  157.8010  211.7230  138.8290 C   0  0  0  0  0  3  0  0  0  0  0  0
  160.0610  210.8830  137.4180 O   0  0  0  0  0  0  0  0  0  0  0  0
  159.7530  209.6600  137.8160 O   0  0  0  0  0  1  0  0  0  0  0  0
  161.7120  209.7430  139.2720 O   0  0  0  0  0  0  0  0  0  0  0  0
  161.5390  209.1840  140.5430 C   0  0  0  0  0  1  0  0  0  0  0  0
  159.7890  211.8380  144.7280 C   0  0  0  0  0  2  0  0  0  0  0  0
  161.1950  213.7280  145.5400 C   0  0  0  0  0  2  0  0  0  0  0  0
  162.5260  213.3190  145.9740 N   0  0  0  0  0  2  0  0  0  0  0  0
  160.1440  212.6960  145.9370 C   0  0  2  0  0  3  0  0  0  0  0  0
  162.5730  213.3940  147.4320 C   0  0  0  0  0  2  0  0  0  0  0  0
  160.5990  211.7980  147.0890 C   0  0  0  0  0  2  0  0  0  0  0  0
  161.5130  212.4950  148.0970 C   0  0  1  0  0  3  0  0  0  0  0  0
  162.1930  211.4490  148.9210 C   0  0  0  0  0  3  0  0  0  0  0  0
  161.5170  210.4270  149.4390 C   0  0  0  0  0  3  0  0  0  0  0  0
  162.2260  209.3980  150.2870 C   0  0  1  0  0  3  0  0  0  0  0  0
  160.1770  210.4320  153.1690 C   0  0  1  0  0  3  0  0  0  0  0  0
  160.7040  208.2920  154.4530 N   0  0  0  0  0  2  0  0  0  0  0  0
  161.4140  209.1510  151.5060 N   0  0  0  0  0  0  0  0  0  0  0  0
  160.2380  210.2710  155.5610 O   0  0  0  0  0  0  0  0  0  0  0  0
  161.9900  208.1050  152.3550 C   0  0  0  0  0  2  0  0  0  0  0  0
  160.9100  207.4960  153.2420 C   0  0  0  0  0  2  0  0  0  0  0  0
  161.4230  210.3770  152.3080 C   0  0  0  0  0  2  0  0  0  0  0  0
  160.4090  209.6930  154.4580 C   0  0  0  0  0  0  0  0  0  0  0  0
  159.8090  211.8190  153.4100 N   0  0  0  0  0  1  0  0  0  0  0  0
  162.0360  206.8760  150.1530 C   0  0  0  0  0  3  0  0  0  0  0  0
  162.4890  208.1250  149.4440 C   0  0  1  0  0  3  0  0  0  0  0  0
  160.8190  206.9860  148.3350 C   0  0  0  0  0  3  0  0  0  0  0  0
  161.5900  208.0580  148.2460 C   0  0  0  0  0  3  0  0  0  0  0  0
  161.0990  206.2590  149.5200 N   0  0  0  0  0  0  0  0  0  0  0  0
  2  1  2  0  0  0  0
  2 25  1  0  0  0  0
  3 11  1  0  0  0  0
  3 16  1  1  0  0  0
  4 19  1  0  0  0  0
  5  6  1  6  0  0  0
  5 14  1  0  0  0  0
  5 12  1  0  0  0  0
  7  8  1  0  0  0  0
  7  2  1  1  0  0  0
  8  9  2  1  0  0  0
 10 19  1  6  0  0  0
 10  8  1  0  0  0  0
 11 17  1  6  0  0  0
 11  7  1  0  0  0  0
 12  3  1  0  0  0  0
 13 21  1  6  0  0  0
 13 15  1  0  0  0  0
 13 14  1  0  0  0  0
 14 23  1  6  0  0  0
 15 20  1  6  0  0  0
 15 18  1  0  0  0  0
 18 17  1  1  0  0  0
 18 10  1  0  0  0  0
 20  4  2  0  0  0  0
 21 22  1  0  0  0  0
 23 24  1  0  0  0  0
 26 28  1  0  0  0  0
 26 27  1  0  0  0  0
 27 29  1  0  0  0  0
 28 25  1  6  0  0  0
 28 30  1  0  0  0  0
 29 31  1  0  0  0  0
 30 31  1  0  0  0  0
 31 32  1  6  0  0  0
 32 33  2  0  0  0  0
 34 33  1  6  0  0  0
 34 37  1  0  0  0  0
 35 43  1  1  0  0  0
 35 42  1  0  0  0  0
 36 42  1  0  0  0  0
 37 41  1  0  0  0  0
 37 39  1  0  0  0  0
 39 40  1  0  0  0  0
 40 36  1  0  0  0  0
 41 35  1  0  0  0  0
 42 38  2  0  0  0  0
 45 44  1  0  0  0  0
 45 34  1  1  0  0  0
 46 48  1  0  0  0  0
 47 46  2  0  0  0  0
 47 45  1  0  0  0  0
 48 44  2  0  0  0  0
M  END
>  <MODEL>
1

>  <REMARK>
 VINA RESULT:      -5.5      0.000      0.000
  Name = 
  9 active torsions:
  status: ('A' for Active; 'I' for Inactive)
    1  A    between atoms: C_5  and  C_44
    2  A    between atoms: O_8  and  C_35
    3  A    between atoms: C_9  and  C_38
    4  A    between atoms: O_10  and  C_39
    5  A    between atoms: C_13  and  C_29
    6  A    between atoms: N_14  and  C_38
    7  A    between atoms: C_20  and  C_38
    8  A    between atoms: C_27  and  C_45
    9  A    between atoms: C_29  and  C_45
                            x       y       z     vdW  Elec       q    Type
                         _______ _______ _______ _____ _____    ______ ____

>  <TORSDO>
F 9

$$$$
=
 OpenBabel11072409573D

 48 53  0  0  1  0  0  0  0  0999 V2000
  162.0250  210.1280  148.6930 O   0  0  0  0  0  0  0  0  0  0  0  0
  161.6360  210.8140  149.6270 C   0  0  0  0  0  0  0  0  0  0  0  0
  162.3930  213.1990  147.7380 C   0  0  1  0  0  3  0  0  0  0  0  0
  156.5000  213.5620  149.4490 C   0  0  0  0  0  3  0  0  0  0  0  0
  161.2380  213.3140  145.4760 C   0  0  1  0  0  3  0  0  0  0  0  0
  160.8800  214.2660  144.3460 C   0  0  0  0  0  1  0  0  0  0  0  0
  160.7090  211.9880  149.3430 C   0  0  1  0  0  3  0  0  0  0  0  0
  159.6720  212.2970  150.8000 S   0  0  1  0  0  0  0  0  0  0  0  0
  160.6610  212.7090  151.8790 O   0  0  0  0  0  0  0  0  0  0  0  0
  158.8500  213.8530  150.3850 C   0  0  1  0  0  3  0  0  0  0  0  0
  161.3880  213.3150  148.8980 C   0  0  2  0  0  3  0  0  0  0  0  0
  162.0290  214.0680  146.5340 C   0  0  0  0  0  2  0  0  0  0  0  0
  158.8510  213.5440  146.4750 C   0  0  2  0  0  3  0  0  0  0  0  0
  159.9980  212.5940  146.0320 C   0  0  1  0  0  3  0  0  0  0  0  0
  158.4370  213.3250  147.9440 C   0  0  1  0  0  3  0  0  0  0  0  0
  163.7570  213.6380  148.2250 C   0  0  0  0  0  1  0  0  0  0  0  0
  160.5470  214.4520  148.7100 O   0  0  0  0  0  0  0  0  0  0  0  0
  159.1690  214.2510  148.9420 C   0  0  2  0  0  3  0  0  0  0  0  0
  157.4020  213.7320  150.5600 N   0  0  0  0  0  2  0  0  0  0  0  0
  156.9590  213.4060  148.2030 C   0  0  0  0  0  3  0  0  0  0  0  0
  157.7880  213.6770  145.5500 O   0  0  0  0  0  0  0  0  0  0  0  0
  158.2060  214.4530  144.5640 O   0  0  0  0  0  1  0  0  0  0  0  0
  159.5550  211.6390  145.1120 O   0  0  0  0  0  0  0  0  0  0  0  0
  160.1670  211.9760  143.9000 C   0  0  0  0  0  1  0  0  0  0  0  0
  161.9390  210.3100  151.0150 C   0  0  0  0  0  2  0  0  0  0  0  0
  161.7070  208.3420  152.5250 C   0  0  0  0  0  2  0  0  0  0  0  0
  162.4540  207.1730  152.0760 N   0  0  0  0  0  2  0  0  0  0  0  0
  161.0900  209.0880  151.3450 C   0  0  2  0  0  3  0  0  0  0  0  0
  161.5000  206.1890  151.5700 C   0  0  0  0  0  2  0  0  0  0  0  0
  160.9420  208.2120  150.1010 C   0  0  0  0  0  2  0  0  0  0  0  0
  160.6560  206.7410  150.4050 C   0  0  1  0  0  3  0  0  0  0  0  0
  160.9240  205.9420  149.1720 C   0  0  0  0  0  3  0  0  0  0  0  0
  162.0380  206.1130  148.4630 C   0  0  0  0  0  3  0  0  0  0  0  0
  162.2720  205.3060  147.2080 C   0  0  1  0  0  3  0  0  0  0  0  0
  160.7150  202.5420  149.0820 C   0  0  1  0  0  3  0  0  0  0  0  0
  160.9190  200.9410  147.1070 N   0  0  0  0  0  2  0  0  0  0  0  0
  161.5330  204.0230  147.3280 N   0  0  0  0  0  0  0  0  0  0  0  0
  160.9440  200.1630  149.2880 O   0  0  0  0  0  0  0  0  0  0  0  0
  161.9630  203.0390  146.3320 C   0  0  0  0  0  2  0  0  0  0  0  0
  160.8630  202.0070  146.1060 C   0  0  0  0  0  2  0  0  0  0  0  0
  161.8490  203.4430  148.6360 C   0  0  0  0  0  2  0  0  0  0  0  0
  160.9050  201.1600  148.5210 C   0  0  0  0  0  0  0  0  0  0  0  0
  160.6470  202.5230  150.5350 N   0  0  0  0  0  1  0  0  0  0  0  0
  162.1470  205.4200  144.6810 C   0  0  0  0  0  3  0  0  0  0  0  0
  161.8680  206.1450  145.9710 C   0  0  1  0  0  3  0  0  0  0  0  0
  159.9770  205.7130  144.7240 C   0  0  0  0  0  3  0  0  0  0  0  0
  160.3780  206.2760  145.8520 C   0  0  0  0  0  3  0  0  0  0  0  0
  161.0780  205.1820  144.0040 N   0  0  0  0  0  0  0  0  0  0  0  0
  1  2  2  0  0  0  0
  2 25  1  0  0  0  0
  3 16  1  1  0  0  0
  3 11  1  0  0  0  0
  4 19  1  0  0  0  0
  5  6  1  6  0  0  0
  5 14  1  0  0  0  0
  5 12  1  0  0  0  0
  7  2  1  1  0  0  0
  7  8  1  0  0  0  0
  8  9  2  1  0  0  0
 10 19  1  6  0  0  0
 10  8  1  0  0  0  0
 11 17  1  6  0  0  0
 11  7  1  0  0  0  0
 12  3  1  0  0  0  0
 13 21  1  6  0  0  0
 13 15  1  0  0  0  0
 14 23  1  6  0  0  0
 14 13  1  0  0  0  0
 15 20  1  6  0  0  0
 15 18  1  0  0  0  0
 18 17  1  1  0  0  0
 18 10  1  0  0  0  0
 20  4  2  0  0  0  0
 22 21  1  0  0  0  0
 24 23  1  0  0  0  0
 27 26  1  0  0  0  0
 28 25  1  6  0  0  0
 28 26  1  0  0  0  0
 29 27  1  0  0  0  0
 30 31  1  0  0  0  0
 30 28  1  0  0  0  0
 31 32  1  6  0  0  0
 31 29  1  0  0  0  0
 33 32  2  0  0  0  0
 34 37  1  0  0  0  0
 34 33  1  1  0  0  0
 35 43  1  1  0  0  0
 36 42  1  0  0  0  0
 37 41  1  0  0  0  0
 39 37  1  0  0  0  0
 40 39  1  0  0  0  0
 40 36  1  0  0  0  0
 41 35  1  0  0  0  0
 42 35  1  0  0  0  0
 42 38  2  0  0  0  0
 44 45  1  0  0  0  0
 45 34  1  1  0  0  0
 46 47  2  0  0  0  0
 47 45  1  0  0  0  0
 48 44  2  0  0  0  0
 48 46  1  0  0  0  0
M  END
>  <MODEL>
2

>  <REMARK>
 VINA RESULT:      -5.1      4.198      7.716
  Name = 
  9 active torsions:
  status: ('A' for Active; 'I' for Inactive)
    1  A    between atoms: C_5  and  C_44
    2  A    between atoms: O_8  and  C_35
    3  A    between atoms: C_9  and  C_38
    4  A    between atoms: O_10  and  C_39
    5  A    between atoms: C_13  and  C_29
    6  A    between atoms: N_14  and  C_38
    7  A    between atoms: C_20  and  C_38
    8  A    between atoms: C_27  and  C_45
    9  A    between atoms: C_29  and  C_45
                            x       y       z     vdW  Elec       q    Type
                         _______ _______ _______ _____ _____    ______ ____

>  <TORSDO>
F 9

$$$$
=
 OpenBabel11072409573D

 48 53  0  0  1  0  0  0  0  0999 V2000
  160.8130  211.0910  144.2370 O   0  0  0  0  0  0  0  0  0  0  0  0
  160.0000  212.0020  144.2000 C   0  0  0  0  0  0  0  0  0  0  0  0
  162.1490  213.2940  142.3200 C   0  0  1  0  0  3  0  0  0  0  0  0
  156.6830  213.0320  139.5210 C   0  0  0  0  0  3  0  0  0  0  0  0
  162.7530  212.0370  140.1940 C   0  0  1  0  0  3  0  0  0  0  0  0
  163.3580  212.2170  138.8110 C   0  0  0  0  0  1  0  0  0  0  0  0
  159.6680  212.6410  142.8590 C   0  0  1  0  0  3  0  0  0  0  0  0
  158.0010  213.3560  142.9330 S   0  0  1  0  0  0  0  0  0  0  0  0
  158.1140  214.4530  143.9800 O   0  0  0  0  0  0  0  0  0  0  0  0
  157.8910  214.2800  141.3830 C   0  0  1  0  0  3  0  0  0  0  0  0
  160.6680  213.7110  142.3340 C   0  0  2  0  0  3  0  0  0  0  0  0
  162.7830  213.3670  140.9310 C   0  0  0  0  0  2  0  0  0  0  0  0
  160.3560  212.1480  139.2010 C   0  0  2  0  0  3  0  0  0  0  0  0
  161.3540  211.4020  140.1280 C   0  0  1  0  0  3  0  0  0  0  0  0
  159.0670  212.5680  139.9370 C   0  0  1  0  0  3  0  0  0  0  0  0
  162.9290  214.2200  143.2290 C   0  0  0  0  0  1  0  0  0  0  0  0
  160.3330  214.3850  141.1220 O   0  0  0  0  0  0  0  0  0  0  0  0
  159.1180  214.0010  140.5130 C   0  0  2  0  0  3  0  0  0  0  0  0
  156.6730  213.9210  140.6560 N   0  0  0  0  0  2  0  0  0  0  0  0
  157.8040  212.4120  139.1380 C   0  0  0  0  0  3  0  0  0  0  0  0
  160.1720  211.5670  137.9230 O   0  0  0  0  0  0  0  0  0  0  0  0
  160.3300  212.5210  137.0210 O   0  0  0  0  0  1  0  0  0  0  0  0
  161.4650  210.0500  139.7920 O   0  0  0  0  0  0  0  0  0  0  0  0
  162.5140  209.5550  140.5740 C   0  0  0  0  0  1  0  0  0  0  0  0
  159.2310  212.2790  145.4670 C   0  0  0  0  0  2  0  0  0  0  0  0
  161.3940  213.4400  145.8910 C   0  0  0  0  0  2  0  0  0  0  0  0
  162.2520  212.7440  146.8430 N   0  0  0  0  0  2  0  0  0  0  0  0
  159.9270  213.3490  146.3010 C   0  0  2  0  0  3  0  0  0  0  0  0
  162.2470  213.4940  148.0960 C   0  0  0  0  0  2  0  0  0  0  0  0
  159.7450  213.0410  147.7880 C   0  0  0  0  0  2  0  0  0  0  0  0
  160.8300  213.6370  148.6850 C   0  0  1  0  0  3  0  0  0  0  0  0
  160.7720  212.9560  150.0140 C   0  0  0  0  0  3  0  0  0  0  0  0
  159.9660  213.3900  150.9810 C   0  0  0  0  0  3  0  0  0  0  0  0
  159.9460  212.6960  152.3220 C   0  0  1  0  0  3  0  0  0  0  0  0
  157.7490  212.8530  155.2750 C   0  0  1  0  0  3  0  0  0  0  0  0
  155.7810  213.7190  153.9030 N   0  0  0  0  0  2  0  0  0  0  0  0
  158.7820  213.1980  153.0950 N   0  0  0  0  0  0  0  0  0  0  0  0
  155.4460  212.4620  155.8180 O   0  0  0  0  0  0  0  0  0  0  0  0
  157.5880  213.3570  152.2610 C   0  0  0  0  0  2  0  0  0  0  0  0
  156.6330  214.3600  152.8990 C   0  0  0  0  0  2  0  0  0  0  0  0
  158.4430  212.1890  154.1030 C   0  0  0  0  0  2  0  0  0  0  0  0
  156.2720  212.9550  155.0090 C   0  0  0  0  0  0  0  0  0  0  0  0
  158.0200  212.1040  156.4920 N   0  0  0  0  0  1  0  0  0  0  0  0
  161.1010  210.7020  151.2690 C   0  0  0  0  0  3  0  0  0  0  0  0
  159.9390  211.1620  152.1110 C   0  0  1  0  0  3  0  0  0  0  0  0
  161.3750  209.7350  153.2150 C   0  0  0  0  0  3  0  0  0  0  0  0
  160.2580  210.4250  153.3770 C   0  0  0  0  0  3  0  0  0  0  0  0
  161.8930  209.9130  151.9070 N   0  0  0  0  0  0  0  0  0  0  0  0
  2  1  2  0  0  0  0
  2 25  1  0  0  0  0
  3 11  1  0  0  0  0
  3 16  1  1  0  0  0
  4 19  1  0  0  0  0
  5  6  1  6  0  0  0
  5 12  1  0  0  0  0
  7  8  1  0  0  0  0
  7  2  1  1  0  0  0
  8  9  2  1  0  0  0
 10 19  1  6  0  0  0
 10  8  1  0  0  0  0
 11 17  1  6  0  0  0
 11  7  1  0  0  0  0
 12  3  1  0  0  0  0
 13 21  1  6  0  0  0
 13 15  1  0  0  0  0
 13 14  1  0  0  0  0
 14 23  1  6  0  0  0
 14  5  1  0  0  0  0
 15 20  1  6  0  0  0
 15 18  1  0  0  0  0
 18 17  1  1  0  0  0
 18 10  1  0  0  0  0
 20  4  2  0  0  0  0
 22 21  1  0  0  0  0
 23 24  1  0  0  0  0
 26 28  1  0  0  0  0
 26 27  1  0  0  0  0
 27 29  1  0  0  0  0
 28 25  1  6  0  0  0
 28 30  1  0  0  0  0
 29 31  1  0  0  0  0
 30 31  1  0  0  0  0
 31 32  1  1  0  0  0
 32 33  2  0  0  0  0
 34 33  1  6  0  0  0
 34 37  1  0  0  0  0
 35 43  1  1  0  0  0
 36 42  1  0  0  0  0
 37 41  1  0  0  0  0
 39 40  1  0  0  0  0
 39 37  1  0  0  0  0
 40 36  1  0  0  0  0
 41 35  1  0  0  0  0
 42 35  1  0  0  0  0
 42 38  2  0  0  0  0
 44 48  2  0  0  0  0
 44 45  1  0  0  0  0
 45 34  1  1  0  0  0
 45 47  1  0  0  0  0
 46 47  2  0  0  0  0
 48 46  1  0  0  0  0
M  END
>  <MODEL>
3

>  <REMARK>
 VINA RESULT:      -3.5      2.105      3.210
  Name = 
  9 active torsions:
  status: ('A' for Active; 'I' for Inactive)
    1  A    between atoms: C_5  and  C_44
    2  A    between atoms: O_8  and  C_35
    3  A    between atoms: C_9  and  C_38
    4  A    between atoms: O_10  and  C_39
    5  A    between atoms: C_13  and  C_29
    6  A    between atoms: N_14  and  C_38
    7  A    between atoms: C_20  and  C_38
    8  A    between atoms: C_27  and  C_45
    9  A    between atoms: C_29  and  C_45
                            x       y       z     vdW  Elec       q    Type
                         _______ _______ _______ _____ _____    ______ ____

>  <TORSDO>
F 9

$$$$
=
 OpenBabel11072409573D

 48 53  0  0  1  0  0  0  0  0999 V2000
  163.7380  205.4610  152.0680 O   0  0  0  0  0  0  0  0  0  0  0  0
  162.9070  205.8820  151.2770 C   0  0  0  0  0  0  0  0  0  0  0  0
  160.8380  206.7030  149.0690 C   0  0  1  0  0  3  0  0  0  0  0  0
  161.2200  200.5850  149.5260 C   0  0  0  0  0  3  0  0  0  0  0  0
  161.3760  206.0710  146.6660 C   0  0  1  0  0  3  0  0  0  0  0  0
  160.7430  205.8450  145.3030 C   0  0  0  0  0  1  0  0  0  0  0  0
  161.9980  204.8890  150.5650 C   0  0  1  0  0  3  0  0  0  0  0  0
  161.6040  203.5240  151.6950 S   0  0  1  0  0  0  0  0  0  0  0  0
  160.8180  204.1850  152.8170 O   0  0  0  0  0  0  0  0  0  0  0  0
  160.3330  202.6090  150.7910 C   0  0  1  0  0  3  0  0  0  0  0  0
  160.6820  205.4610  149.9640 C   0  0  2  0  0  3  0  0  0  0  0  0
  160.3010  206.4990  147.6530 C   0  0  0  0  0  2  0  0  0  0  0  0
  161.3910  203.5140  147.1240 C   0  0  2  0  0  3  0  0  0  0  0  0
  162.1850  204.8490  147.1310 C   0  0  1  0  0  3  0  0  0  0  0  0
  161.3910  202.8200  148.5020 C   0  0  1  0  0  3  0  0  0  0  0  0
  160.0740  207.8540  149.6890 C   0  0  0  0  0  1  0  0  0  0  0  0
  159.7750  204.5350  149.3700 O   0  0  0  0  0  0  0  0  0  0  0  0
  160.1730  203.1810  149.3810 C   0  0  2  0  0  3  0  0  0  0  0  0
  160.6770  201.1880  150.7160 N   0  0  0  0  0  2  0  0  0  0  0  0
  161.5300  201.3250  148.4560 C   0  0  0  0  0  3  0  0  0  0  0  0
  161.6340  202.6730  146.0120 O   0  0  0  0  0  0  0  0  0  0  0  0
  160.5450  202.6700  145.2630 O   0  0  0  0  0  1  0  0  0  0  0  0
  163.3650  204.7550  146.3870 O   0  0  0  0  0  0  0  0  0  0  0  0
  163.0920  205.3900  145.1700 C   0  0  0  0  0  1  0  0  0  0  0  0
  162.7080  207.3750  151.2290 C   0  0  0  0  0  2  0  0  0  0  0  0
  161.4310  207.1900  153.3610 C   0  0  0  0  0  2  0  0  0  0  0  0
  160.1880  207.9540  153.3630 N   0  0  0  0  0  2  0  0  0  0  0  0
  162.5400  207.9450  152.6330 C   0  0  2  0  0  3  0  0  0  0  0  0
  160.3700  209.1180  154.2260 C   0  0  0  0  0  2  0  0  0  0  0  0
  162.2780  209.4490  152.5500 C   0  0  0  0  0  2  0  0  0  0  0  0
  161.5280  210.0180  153.7540 C   0  0  1  0  0  3  0  0  0  0  0  0
  160.9950  211.3650  153.3870 C   0  0  0  0  0  3  0  0  0  0  0  0
  160.3000  211.5540  152.2680 C   0  0  0  0  0  3  0  0  0  0  0  0
  159.7930  212.9320  151.9110 C   0  0  1  0  0  3  0  0  0  0  0  0
  158.8800  213.9400  148.4870 C   0  0  1  0  0  3  0  0  0  0  0  0
  160.7770  212.5800  147.4610 N   0  0  0  0  0  2  0  0  0  0  0  0
  160.0690  213.1770  150.4730 N   0  0  0  0  0  0  0  0  0  0  0  0
  158.8200  212.9780  146.2910 O   0  0  0  0  0  0  0  0  0  0  0  0
  160.9230  212.1420  149.8850 C   0  0  0  0  0  2  0  0  0  0  0  0
  161.6290  212.6840  148.6480 C   0  0  0  0  0  2  0  0  0  0  0  0
  158.7940  213.1100  149.7530 C   0  0  0  0  0  2  0  0  0  0  0  0
  159.4530  213.1150  147.3690 C   0  0  0  0  0  0  0  0  0  0  0  0
  157.5610  214.4530  148.1490 N   0  0  0  0  0  1  0  0  0  0  0  0
  157.8380  211.8920  153.1410 C   0  0  0  0  0  3  0  0  0  0  0  0
  158.2950  213.0450  152.2860 C   0  0  1  0  0  3  0  0  0  0  0  0
  157.5690  213.6770  154.3810 C   0  0  0  0  0  3  0  0  0  0  0  0
  158.0470  214.1680  153.2490 C   0  0  0  0  0  3  0  0  0  0  0  0
  157.4440  212.2670  154.3080 N   0  0  0  0  0  0  0  0  0  0  0  0
  2  1  2  0  0  0  0
  3 16  1  1  0  0  0
  3 11  1  0  0  0  0
  4 19  1  0  0  0  0
  5  6  1  6  0  0  0
  5 14  1  0  0  0  0
  5 12  1  0  0  0  0
  7  2  1  1  0  0  0
  7  8  1  0  0  0  0
  8  9  2  1  0  0  0
 10 19  1  6  0  0  0
 10  8  1  0  0  0  0
 11 17  1  6  0  0  0
 11  7  1  0  0  0  0
 12  3  1  0  0  0  0
 13 21  1  6  0  0  0
 13 14  1  0  0  0  0
 13 15  1  0  0  0  0
 14 23  1  6  0  0  0
 15 20  1  6  0  0  0
 15 18  1  0  0  0  0
 18 17  1  1  0  0  0
 18 10  1  0  0  0  0
 20  4  2  0  0  0  0
 22 21  1  0  0  0  0
 24 23  1  0  0  0  0
 25  2  1  0  0  0  0
 26 27  1  0  0  0  0
 27 29  1  0  0  0  0
 28 25  1  6  0  0  0
 28 26  1  0  0  0  0
 30 28  1  0  0  0  0
 30 31  1  0  0  0  0
 31 32  1  6  0  0  0
 31 29  1  0  0  0  0
 33 32  2  0  0  0  0
 34 33  1  6  0  0  0
 35 43  1  6  0  0  0
 35 41  1  0  0  0  0
 36 40  1  0  0  0  0
 37 34  1  0  0  0  0
 38 42  2  0  0  0  0
 39 37  1  0  0  0  0
 40 39  1  0  0  0  0
 41 37  1  0  0  0  0
 42 36  1  0  0  0  0
 42 35  1  0  0  0  0
 44 48  2  0  0  0  0
 45 34  1  1  0  0  0
 45 44  1  0  0  0  0
 45 47  1  0  0  0  0
 47 46  2  0  0  0  0
 48 46  1  0  0  0  0
M  END
>  <MODEL>
4

>  <REMARK>
 VINA RESULT:      -3.4      5.788     10.046
  Name = 
  9 active torsions:
  status: ('A' for Active; 'I' for Inactive)
    1  A    between atoms: C_5  and  C_44
    2  A    between atoms: O_8  and  C_35
    3  A    between atoms: C_9  and  C_38
    4  A    between atoms: O_10  and  C_39
    5  A    between atoms: C_13  and  C_29
    6  A    between atoms: N_14  and  C_38
    7  A    between atoms: C_20  and  C_38
    8  A    between atoms: C_27  and  C_45
    9  A    between atoms: C_29  and  C_45
                            x       y       z     vdW  Elec       q    Type
                         _______ _______ _______ _____ _____    ______ ____

>  <TORSDO>
F 9

$$$$
=
 OpenBabel11072409573D

 48 53  0  0  1  0  0  0  0  0999 V2000
  162.0560  210.0650  148.6180 O   0  0  0  0  0  0  0  0  0  0  0  0
  161.7930  210.7920  149.5650 C   0  0  0  0  0  0  0  0  0  0  0  0
  162.4730  213.2630  147.7610 C   0  0  1  0  0  3  0  0  0  0  0  0
  156.6210  213.4760  149.6280 C   0  0  0  0  0  3  0  0  0  0  0  0
  161.2610  213.4570  145.5340 C   0  0  1  0  0  3  0  0  0  0  0  0
  160.8640  214.4500  144.4530 C   0  0  0  0  0  1  0  0  0  0  0  0
  160.8450  211.9640  149.3530 C   0  0  1  0  0  3  0  0  0  0  0  0
  159.8400  212.1980  150.8470 S   0  0  1  0  0  0  0  0  0  0  0  0
  160.8510  212.5780  151.9180 O   0  0  0  0  0  0  0  0  0  0  0  0
  158.9900  213.7590  150.5180 C   0  0  1  0  0  3  0  0  0  0  0  0
  161.4960  213.3180  148.9480 C   0  0  2  0  0  3  0  0  0  0  0  0
  162.0690  214.1760  146.6030 C   0  0  0  0  0  2  0  0  0  0  0  0
  158.8980  213.6140  146.5990 C   0  0  2  0  0  3  0  0  0  0  0  0
  160.0440  212.6980  146.0890 C   0  0  1  0  0  3  0  0  0  0  0  0
  158.5230  213.3280  148.0680 C   0  0  1  0  0  3  0  0  0  0  0  0
  163.8440  213.7000  148.2320 C   0  0  0  0  0  1  0  0  0  0  0  0
  160.6370  214.4500  148.8290 O   0  0  0  0  0  0  0  0  0  0  0  0
  159.2670  214.2200  149.0850 C   0  0  2  0  0  3  0  0  0  0  0  0
  157.5480  213.6120  150.7220 N   0  0  0  0  0  2  0  0  0  0  0  0
  157.0510  213.3780  148.3660 C   0  0  0  0  0  3  0  0  0  0  0  0
  157.8100  213.7710  145.7070 O   0  0  0  0  0  0  0  0  0  0  0  0
  157.0970  212.6570  145.7390 O   0  0  0  0  0  1  0  0  0  0  0  0
  159.5910  211.7770  145.1410 O   0  0  0  0  0  0  0  0  0  0  0  0
  160.0800  212.2330  143.9120 C   0  0  0  0  0  1  0  0  0  0  0  0
  162.2660  210.3390  150.9220 C   0  0  0  0  0  2  0  0  0  0  0  0
  161.4770  209.5190  153.1390 C   0  0  0  0  0  2  0  0  0  0  0  0
  162.0610  208.2400  153.5280 N   0  0  0  0  0  2  0  0  0  0  0  0
  161.1750  209.5550  151.6430 C   0  0  2  0  0  3  0  0  0  0  0  0
  161.0290  207.2130  153.4090 C   0  0  0  0  0  2  0  0  0  0  0  0
  161.0530  208.1590  151.0290 C   0  0  0  0  0  2  0  0  0  0  0  0
  160.4700  207.1110  151.9770 C   0  0  1  0  0  3  0  0  0  0  0  0
  160.7650  205.7550  151.4220 C   0  0  0  0  0  3  0  0  0  0  0  0
  160.4080  205.4190  150.1840 C   0  0  0  0  0  3  0  0  0  0  0  0
  160.6990  204.0340  149.6580 C   0  0  1  0  0  3  0  0  0  0  0  0
  161.8190  205.9120  146.6930 C   0  0  1  0  0  3  0  0  0  0  0  0
  161.6210  203.8650  145.1840 N   0  0  0  0  0  2  0  0  0  0  0  0
  161.2970  204.1600  148.3050 N   0  0  0  0  0  0  0  0  0  0  0  0
  161.3410  206.0040  144.3440 O   0  0  0  0  0  0  0  0  0  0  0  0
  160.8550  203.0950  147.4010 C   0  0  0  0  0  2  0  0  0  0  0  0
  161.8630  202.9140  146.2710 C   0  0  0  0  0  2  0  0  0  0  0  0
  160.8190  205.4150  147.7180 C   0  0  0  0  0  2  0  0  0  0  0  0
  161.5400  205.2840  145.3560 C   0  0  0  0  0  0  0  0  0  0  0  0
  161.7660  207.3640  146.6200 N   0  0  0  0  0  1  0  0  0  0  0  0
  160.9610  203.1810  152.0290 C   0  0  0  0  0  3  0  0  0  0  0  0
  161.5970  203.2760  150.6670 C   0  0  1  0  0  3  0  0  0  0  0  0
  161.1770  201.1120  151.3440 C   0  0  0  0  0  3  0  0  0  0  0  0
  161.6840  201.8140  150.3440 C   0  0  0  0  0  3  0  0  0  0  0  0
  160.7280  201.9650  152.3840 N   0  0  0  0  0  0  0  0  0  0  0  0
  1  2  2  0  0  0  0
  2 25  1  0  0  0  0
  3 16  1  1  0  0  0
  3 11  1  0  0  0  0
  4 19  1  0  0  0  0
  5  6  1  6  0  0  0
  5 14  1  0  0  0  0
  5 12  1  0  0  0  0
  7  2  1  1  0  0  0
  7  8  1  0  0  0  0
  8  9  2  1  0  0  0
 10 19  1  6  0  0  0
 10  8  1  0  0  0  0
 11 17  1  6  0  0  0
 11  7  1  0  0  0  0
 12  3  1  0  0  0  0
 13 21  1  6  0  0  0
 13 15  1  0  0  0  0
 14 23  1  6  0  0  0
 14 13  1  0  0  0  0
 15 20  1  6  0  0  0
 15 18  1  0  0  0  0
 18 17  1  6  0  0  0
 18 10  1  0  0  0  0
 20  4  2  0  0  0  0
 21 22  1  0  0  0  0
 24 23  1  0  0  0  0
 26 27  1  0  0  0  0
 28 25  1  6  0  0  0
 28 26  1  0  0  0  0
 29 27  1  0  0  0  0
 30 28  1  0  0  0  0
 30 31  1  0  0  0  0
 31 32  1  6  0  0  0
 31 29  1  0  0  0  0
 33 32  2  0  0  0  0
 34 33  1  1  0  0  0
 35 43  1  6  0  0  0
 35 41  1  0  0  0  0
 36 42  1  0  0  0  0
 36 40  1  0  0  0  0
 37 34  1  0  0  0  0
 38 42  2  0  0  0  0
 39 37  1  0  0  0  0
 40 39  1  0  0  0  0
 41 37  1  0  0  0  0
 42 35  1  0  0  0  0
 44 48  2  0  0  0  0
 45 34  1  6  0  0  0
 45 44  1  0  0  0  0
 46 48  1  0  0  0  0
 47 45  1  0  0  0  0
 47 46  2  0  0  0  0
M  END
>  <MODEL>
5

>  <REMARK>
 VINA RESULT:      -3.0      4.180      7.789
  Name = 
  9 active torsions:
  status: ('A' for Active; 'I' for Inactive)
    1  A    between atoms: C_5  and  C_44
    2  A    between atoms: O_8  and  C_35
    3  A    between atoms: C_9  and  C_38
    4  A    between atoms: O_10  and  C_39
    5  A    between atoms: C_13  and  C_29
    6  A    between atoms: N_14  and  C_38
    7  A    between atoms: C_20  and  C_38
    8  A    between atoms: C_27  and  C_45
    9  A    between atoms: C_29  and  C_45
                            x       y       z     vdW  Elec       q    Type
                         _______ _______ _______ _____ _____    ______ ____

>  <TORSDO>
F 9

$$$$
=
 OpenBabel11072409573D

 48 53  0  0  1  0  0  0  0  0999 V2000
  159.3410  206.9020  149.6400 O   0  0  0  0  0  0  0  0  0  0  0  0
  160.0780  205.9570  149.8790 C   0  0  0  0  0  0  0  0  0  0  0  0
  161.6140  203.2370  150.1440 C   0  0  1  0  0  3  0  0  0  0  0  0
  161.4230  205.0660  144.2790 C   0  0  0  0  0  3  0  0  0  0  0  0
  160.5810  201.1960  149.0340 C   0  0  1  0  0  3  0  0  0  0  0  0
  160.9100  199.8100  148.5030 C   0  0  0  0  0  1  0  0  0  0  0  0
  160.8270  205.2990  148.7280 C   0  0  1  0  0  3  0  0  0  0  0  0
  161.4730  206.5850  147.6220 S   0  0  1  0  0  0  0  0  0  0  0  0
  162.4720  207.3450  148.4800 O   0  0  0  0  0  0  0  0  0  0  0  0
  162.5340  205.6490  146.4950 C   0  0  1  0  0  3  0  0  0  0  0  0
  161.9750  204.3230  149.1160 C   0  0  2  0  0  3  0  0  0  0  0  0
  161.8370  201.8170  149.6260 C   0  0  0  0  0  2  0  0  0  0  0  0
  160.7000  202.1840  146.6350 C   0  0  2  0  0  3  0  0  0  0  0  0
  159.9070  202.0730  147.9660 C   0  0  1  0  0  3  0  0  0  0  0  0
  161.0060  203.6460  146.2500 C   0  0  1  0  0  3  0  0  0  0  0  0
  162.4770  203.4180  151.3750 C   0  0  0  0  0  1  0  0  0  0  0  0
  162.7470  203.7620  148.0560 O   0  0  0  0  0  0  0  0  0  0  0  0
  162.3790  204.1480  146.7480 C   0  0  2  0  0  3  0  0  0  0  0  0
  162.2010  205.9560  145.1030 N   0  0  0  0  0  2  0  0  0  0  0  0
  160.8810  203.9530  144.7840 C   0  0  0  0  0  3  0  0  0  0  0  0
  160.2350  201.3570  145.5850 O   0  0  0  0  0  0  0  0  0  0  0  0
  160.9450  200.2410  145.6070 O   0  0  0  0  0  1  0  0  0  0  0  0
  158.5970  201.6350  147.7540 O   0  0  0  0  0  0  0  0  0  0  0  0
  158.1370  201.2100  149.0060 C   0  0  0  0  0  1  0  0  0  0  0  0
  160.3500  205.6550  151.3300 C   0  0  0  0  0  2  0  0  0  0  0  0
  161.7110  206.2680  153.3250 C   0  0  0  0  0  2  0  0  0  0  0  0
  160.9320  206.8850  154.3940 N   0  0  0  0  0  2  0  0  0  0  0  0
  161.2290  206.7330  151.9530 C   0  0  2  0  0  3  0  0  0  0  0  0
  161.2570  208.3080  154.4320 C   0  0  0  0  0  2  0  0  0  0  0  0
  160.4610  208.0540  152.0110 C   0  0  0  0  0  2  0  0  0  0  0  0
  160.9510  209.0130  153.0960 C   0  0  1  0  0  3  0  0  0  0  0  0
  159.9040  210.0580  153.3120 C   0  0  0  0  0  3  0  0  0  0  0  0
  159.5930  210.9340  152.3610 C   0  0  0  0  0  3  0  0  0  0  0  0
  158.5470  211.9940  152.6160 C   0  0  1  0  0  3  0  0  0  0  0  0
  156.4120  211.1580  155.5000 C   0  0  1  0  0  3  0  0  0  0  0  0
  157.3960  213.0390  156.9150 N   0  0  0  0  0  2  0  0  0  0  0  0
  158.2000  211.9750  154.0600 N   0  0  0  0  0  0  0  0  0  0  0  0
  155.2260  212.3030  157.2430 O   0  0  0  0  0  0  0  0  0  0  0  0
  158.5130  213.2420  154.7240 C   0  0  0  0  0  2  0  0  0  0  0  0
  158.6860  213.0210  156.2230 C   0  0  0  0  0  2  0  0  0  0  0  0
  156.7490  211.8050  154.1720 C   0  0  0  0  0  2  0  0  0  0  0  0
  156.2820  212.2110  156.5670 C   0  0  0  0  0  0  0  0  0  0  0  0
  155.1900  210.3790  155.3700 N   0  0  0  0  0  1  0  0  0  0  0  0
  160.2050  213.2170  151.1440 C   0  0  0  0  0  3  0  0  0  0  0  0
  159.0660  213.3650  152.1180 C   0  0  1  0  0  3  0  0  0  0  0  0
  158.6030  214.1960  150.0180 C   0  0  0  0  0  3  0  0  0  0  0  0
  158.0740  214.0420  151.2210 C   0  0  0  0  0  3  0  0  0  0  0  0
  159.9230  213.6810  149.9770 N   0  0  0  0  0  0  0  0  0  0  0  0
  1  2  2  0  0  0  0
  2 25  1  0  0  0  0
  3 16  1  1  0  0  0
  4 20  2  0  0  0  0
  4 19  1  0  0  0  0
  5  6  1  6  0  0  0
  5 12  1  0  0  0  0
  7 11  1  0  0  0  0
  7  2  1  1  0  0  0
  8  9  2  1  0  0  0
  8  7  1  0  0  0  0
 10 19  1  6  0  0  0
 10 18  1  0  0  0  0
 10  8  1  0  0  0  0
 11 17  1  6  0  0  0
 11  3  1  0  0  0  0
 12  3  1  0  0  0  0
 13 21  1  6  0  0  0
 13 14  1  0  0  0  0
 14 23  1  6  0  0  0
 14  5  1  0  0  0  0
 15 20  1  6  0  0  0
 15 13  1  0  0  0  0
 15 18  1  0  0  0  0
 18 17  1  1  0  0  0
 21 22  1  0  0  0  0
 23 24  1  0  0  0  0
 26 27  1  0  0  0  0
 27 29  1  0  0  0  0
 28 25  1  1  0  0  0
 28 30  1  0  0  0  0
 28 26  1  0  0  0  0
 30 31  1  0  0  0  0
 31 32  1  1  0  0  0
 31 29  1  0  0  0  0
 33 32  2  0  0  0  0
 34 33  1  1  0  0  0
 34 37  1  0  0  0  0
 35 43  1  6  0  0  0
 35 42  1  0  0  0  0
 37 41  1  0  0  0  0
 37 39  1  0  0  0  0
 39 40  1  0  0  0  0
 40 36  1  0  0  0  0
 41 35  1  0  0  0  0
 42 36  1  0  0  0  0
 42 38  2  0  0  0  0
 44 45  1  0  0  0  0
 45 34  1  6  0  0  0
 46 47  2  0  0  0  0
 47 45  1  0  0  0  0
 48 46  1  0  0  0  0
 48 44  2  0  0  0  0
M  END
>  <MODEL>
6

>  <REMARK>
 VINA RESULT:      -2.8      6.962      9.810
  Name = 
  9 active torsions:
  status: ('A' for Active; 'I' for Inactive)
    1  A    between atoms: C_5  and  C_44
    2  A    between atoms: O_8  and  C_35
    3  A    between atoms: C_9  and  C_38
    4  A    between atoms: O_10  and  C_39
    5  A    between atoms: C_13  and  C_29
    6  A    between atoms: N_14  and  C_38
    7  A    between atoms: C_20  and  C_38
    8  A    between atoms: C_27  and  C_45
    9  A    between atoms: C_29  and  C_45
                            x       y       z     vdW  Elec       q    Type
                         _______ _______ _______ _____ _____    ______ ____

>  <TORSDO>
F 9

$$$$
=
 OpenBabel11072409573D

 48 53  0  0  1  0  0  0  0  0999 V2000
  159.4050  206.9500  149.6380 O   0  0  0  0  0  0  0  0  0  0  0  0
  160.1300  205.9980  149.8850 C   0  0  0  0  0  0  0  0  0  0  0  0
  161.5810  203.2340  150.1710 C   0  0  1  0  0  3  0  0  0  0  0  0
  161.4140  205.0050  144.2870 C   0  0  0  0  0  3  0  0  0  0  0  0
  160.4800  201.2150  149.0890 C   0  0  1  0  0  3  0  0  0  0  0  0
  160.7620  199.8130  148.5710 C   0  0  0  0  0  1  0  0  0  0  0  0
  160.8510  205.3040  148.7370 C   0  0  1  0  0  3  0  0  0  0  0  0
  161.5300  206.5570  147.6130 S   0  0  1  0  0  0  0  0  0  0  0  0
  162.5570  207.2960  148.4570 O   0  0  0  0  0  0  0  0  0  0  0  0
  162.5550  205.5770  146.4910 C   0  0  1  0  0  3  0  0  0  0  0  0
  161.9710  204.2980  149.1290 C   0  0  2  0  0  3  0  0  0  0  0  0
  161.7580  201.8020  149.6670 C   0  0  0  0  0  2  0  0  0  0  0  0
  160.6150  202.1730  146.6790 C   0  0  2  0  0  3  0  0  0  0  0  0
  159.8270  202.1010  148.0150 C   0  0  1  0  0  3  0  0  0  0  0  0
  160.9640  203.6200  146.2760 C   0  0  1  0  0  3  0  0  0  0  0  0
  162.4570  203.4010  151.3950 C   0  0  0  0  0  1  0  0  0  0  0  0
  162.7180  203.7010  148.0710 O   0  0  0  0  0  0  0  0  0  0  0  0
  162.3550  204.0850  146.7620 C   0  0  2  0  0  3  0  0  0  0  0  0
  162.2230  205.8790  145.0970 N   0  0  0  0  0  2  0  0  0  0  0  0
  160.8400  203.9150  144.8080 C   0  0  0  0  0  3  0  0  0  0  0  0
  160.1190  201.3490  145.6410 O   0  0  0  0  0  0  0  0  0  0  0  0
  160.8910  200.2770  145.5720 O   0  0  0  0  0  1  0  0  0  0  0  0
  158.5020  201.7010  147.8160 O   0  0  0  0  0  0  0  0  0  0  0  0
  158.0460  201.2800  149.0690 C   0  0  0  0  0  1  0  0  0  0  0  0
  160.4170  205.7200  151.3380 C   0  0  0  0  0  2  0  0  0  0  0  0
  161.4360  206.6050  153.4330 C   0  0  0  0  0  2  0  0  0  0  0  0
  160.5930  207.5740  154.1250 N   0  0  0  0  0  2  0  0  0  0  0  0
  161.3470  206.7800  151.9190 C   0  0  2  0  0  3  0  0  0  0  0  0
  161.1800  208.8990  153.9450 C   0  0  0  0  0  2  0  0  0  0  0  0
  160.8610  208.1710  151.5100 C   0  0  0  0  0  2  0  0  0  0  0  0
  161.2990  209.2870  152.4580 C   0  0  1  0  0  3  0  0  0  0  0  0
  160.4580  210.4930  152.1890 C   0  0  0  0  0  3  0  0  0  0  0  0
  160.5030  211.5610  152.9830 C   0  0  0  0  0  3  0  0  0  0  0  0
  159.6250  212.7560  152.6990 C   0  0  1  0  0  3  0  0  0  0  0  0
  160.4270  213.0070  149.1120 C   0  0  1  0  0  3  0  0  0  0  0  0
  158.0490  213.7080  148.5150 N   0  0  0  0  0  2  0  0  0  0  0  0
  159.2880  212.7610  151.2520 N   0  0  0  0  0  0  0  0  0  0  0  0
  159.8560  214.3930  147.2400 O   0  0  0  0  0  0  0  0  0  0  0  0
  158.0450  213.4830  150.9720 C   0  0  0  0  0  2  0  0  0  0  0  0
  157.4490  213.0080  149.6520 C   0  0  0  0  0  2  0  0  0  0  0  0
  160.3480  213.4870  150.5470 C   0  0  0  0  0  2  0  0  0  0  0  0
  159.4550  213.7740  148.2580 C   0  0  0  0  0  0  0  0  0  0  0  0
  161.7900  213.1470  148.6230 N   0  0  0  0  0  1  0  0  0  0  0  0
  157.9690  211.3120  153.9590 C   0  0  0  0  0  3  0  0  0  0  0  0
  158.3850  212.7200  153.6270 C   0  0  1  0  0  3  0  0  0  0  0  0
  158.5120  212.2230  155.8750 C   0  0  0  0  0  3  0  0  0  0  0  0
  158.7110  213.2040  155.0080 C   0  0  0  0  0  3  0  0  0  0  0  0
  158.0550  211.0530  155.2170 N   0  0  0  0  0  0  0  0  0  0  0  0
  1  2  2  0  0  0  0
  2 25  1  0  0  0  0
  3 16  1  1  0  0  0
  4 20  2  0  0  0  0
  4 19  1  0  0  0  0
  5  6  1  6  0  0  0
  5 12  1  0  0  0  0
  7 11  1  0  0  0  0
  7  2  1  1  0  0  0
  8  9  2  1  0  0  0
  8  7  1  0  0  0  0
 10 19  1  6  0  0  0
 10 18  1  0  0  0  0
 10  8  1  0  0  0  0
 11 17  1  6  0  0  0
 11  3  1  0  0  0  0
 12  3  1  0  0  0  0
 13 21  1  6  0  0  0
 13 14  1  0  0  0  0
 14 23  1  6  0  0  0
 14  5  1  0  0  0  0
 15 20  1  6  0  0  0
 15 13  1  0  0  0  0
 15 18  1  0  0  0  0
 18 17  1  1  0  0  0
 22 21  1  0  0  0  0
 23 24  1  0  0  0  0
 26 27  1  0  0  0  0
 28 25  1  1  0  0  0
 28 26  1  0  0  0  0
 29 27  1  0  0  0  0
 30 28  1  0  0  0  0
 30 31  1  0  0  0  0
 31 32  1  1  0  0  0
 31 29  1  0  0  0  0
 32 33  2  0  0  0  0
 34 33  1  6  0  0  0
 35 43  1  6  0  0  0
 35 41  1  0  0  0  0
 36 40  1  0  0  0  0
 37 34  1  0  0  0  0
 38 42  2  0  0  0  0
 39 37  1  0  0  0  0
 40 39  1  0  0  0  0
 41 37  1  0  0  0  0
 42 36  1  0  0  0  0
 42 35  1  0  0  0  0
 44 48  2  0  0  0  0
 45 34  1  6  0  0  0
 45 44  1  0  0  0  0
 45 47  1  0  0  0  0
 47 46  2  0  0  0  0
 48 46  1  0  0  0  0
M  END
>  <MODEL>
7

>  <REMARK>
 VINA RESULT:      -2.6      6.081      9.970
  Name = 
  9 active torsions:
  status: ('A' for Active; 'I' for Inactive)
    1  A    between atoms: C_5  and  C_44
    2  A    between atoms: O_8  and  C_35
    3  A    between atoms: C_9  and  C_38
    4  A    between atoms: O_10  and  C_39
    5  A    between atoms: C_13  and  C_29
    6  A    between atoms: N_14  and  C_38
    7  A    between atoms: C_20  and  C_38
    8  A    between atoms: C_27  and  C_45
    9  A    between atoms: C_29  and  C_45
                            x       y       z     vdW  Elec       q    Type
                         _______ _______ _______ _____ _____    ______ ____

>  <TORSDO>
F 9

$$$$
=
 OpenBabel11072409573D

 48 53  0  0  1  0  0  0  0  0999 V2000
  160.3380  209.1390  151.1920 O   0  0  0  0  0  0  0  0  0  0  0  0
  160.6530  210.2820  151.4880 C   0  0  0  0  0  0  0  0  0  0  0  0
  159.3960  213.0170  152.3640 C   0  0  1  0  0  3  0  0  0  0  0  0
  160.5570  209.4870  157.2610 C   0  0  0  0  0  3  0  0  0  0  0  0
  157.1070  212.9540  153.4690 C   0  0  1  0  0  3  0  0  0  0  0  0
  156.1740  213.7480  154.3690 C   0  0  0  0  0  1  0  0  0  0  0  0
  160.5340  210.7260  152.9400 C   0  0  1  0  0  3  0  0  0  0  0  0
  161.9140  210.0320  153.8920 S   0  0  1  0  0  0  0  0  0  0  0  0
  163.1480  210.6810  153.2850 O   0  0  0  0  0  0  0  0  0  0  0  0
  161.7600  210.8660  155.4890 C   0  0  1  0  0  3  0  0  0  0  0  0
  160.4490  212.2590  153.1910 C   0  0  2  0  0  3  0  0  0  0  0  0
  158.3740  213.7600  153.2230 C   0  0  0  0  0  2  0  0  0  0  0  0
  157.8920  211.5200  155.4870 C   0  0  2  0  0  3  0  0  0  0  0  0
  157.3730  211.5440  154.0230 C   0  0  1  0  0  3  0  0  0  0  0  0
  159.2340  210.7720  155.6250 C   0  0  1  0  0  3  0  0  0  0  0  0
  160.0970  214.0410  151.4960 C   0  0  0  0  0  1  0  0  0  0  0  0
  160.4250  212.7020  154.5470 O   0  0  0  0  0  0  0  0  0  0  0  0
  160.4720  211.6910  155.5310 C   0  0  2  0  0  3  0  0  0  0  0  0
  161.7620  209.8900  156.5800 N   0  0  0  0  0  0  0  0  0  0  0  0
  159.3580  209.9170  156.8550 C   0  0  0  0  0  2  0  0  0  0  0  0
  156.9170  211.2180  156.4670 O   0  0  0  0  0  0  0  0  0  0  0  0
  156.5770  212.3500  157.0600 O   0  0  0  0  0  1  0  0  0  0  0  0
  156.2330  210.7520  153.8630 O   0  0  0  0  0  0  0  0  0  0  0  0
  156.0390  210.1210  155.0960 C   0  0  0  0  0  1  0  0  0  0  0  0
  161.3370  211.0980  150.4210 C   0  0  0  0  0  2  0  0  0  0  0  0
  161.9260  210.2530  148.1520 C   0  0  0  0  0  2  0  0  0  0  0  0
  161.2180  209.0320  147.7840 N   0  0  0  0  0  2  0  0  0  0  0  0
  162.3160  210.2400  149.6280 C   0  0  2  0  0  3  0  0  0  0  0  0
  162.1670  207.9230  147.8290 C   0  0  0  0  0  2  0  0  0  0  0  0
  162.3600  208.8290  150.2170 C   0  0  0  0  0  2  0  0  0  0  0  0
  162.7990  207.7530  149.2250 C   0  0  1  0  0  3  0  0  0  0  0  0
  162.4280  206.4170  149.7810 C   0  0  0  0  0  3  0  0  0  0  0  0
  161.1620  206.1050  150.0490 C   0  0  0  0  0  3  0  0  0  0  0  0
  160.8190  204.7540  150.6320 C   0  0  1  0  0  3  0  0  0  0  0  0
  161.7020  203.5450  147.2650 C   0  0  1  0  0  3  0  0  0  0  0  0
  160.8730  201.1870  147.7740 N   0  0  0  0  0  2  0  0  0  0  0  0
  161.1750  203.7080  149.6390 N   0  0  0  0  0  0  0  0  0  0  0  0
  160.8310  202.0330  145.6190 O   0  0  0  0  0  0  0  0  0  0  0  0
  160.3950  202.4820  149.8200 C   0  0  0  0  0  2  0  0  0  0  0  0
  161.1340  201.2960  149.2110 C   0  0  0  0  0  2  0  0  0  0  0  0
  160.8310  204.2170  148.3080 C   0  0  0  0  0  2  0  0  0  0  0  0
  161.0780  202.2460  146.8340 C   0  0  0  0  0  0  0  0  0  0  0  0
  161.8950  204.4430  146.1380 N   0  0  0  0  0  1  0  0  0  0  0  0
  162.3790  205.7790  152.3440 C   0  0  0  0  0  3  0  0  0  0  0  0
  161.5300  204.5850  151.9980 C   0  0  1  0  0  3  0  0  0  0  0  0
  160.8520  205.6790  153.9110 C   0  0  0  0  0  3  0  0  0  0  0  0
  160.5590  204.6440  153.1390 C   0  0  0  0  0  3  0  0  0  0  0  0
  161.9790  206.3790  153.4110 N   0  0  0  0  0  0  0  0  0  0  0  0
  1  2  2  0  0  0  0
  3 16  1  6  0  0  0
  3 11  1  0  0  0  0
  3 12  1  0  0  0  0
  5 14  1  0  0  0  0
  5  6  1  1  0  0  0
  7  2  1  6  0  0  0
  7 11  1  0  0  0  0
  7  8  1  0  0  0  0
  8  9  2  6  0  0  0
  8 10  1  0  0  0  0
 10 18  1  0  0  0  0
 10 19  1  1  0  0  0
 11 17  1  1  0  0  0
 12  5  1  0  0  0  0
 13 15  1  0  0  0  0
 13 21  1  1  0  0  0
 14 23  1  1  0  0  0
 14 13  1  0  0  0  0
 15 20  1  1  0  0  0
 18 17  1  6  0  0  0
 18 15  1  0  0  0  0
 19  4  2  0  0  0  0
 20  4  1  0  0  0  0
 21 22  1  0  0  0  0
 23 24  1  0  0  0  0
 25  2  1  0  0  0  0
 26 28  1  0  0  0  0
 27 29  1  0  0  0  0
 27 26  1  0  0  0  0
 28 30  1  0  0  0  0
 28 25  1  1  0  0  0
 29 31  1  0  0  0  0
 31 32  1  1  0  0  0
 31 30  1  0  0  0  0
 32 33  2  0  0  0  0
 34 33  1  6  0  0  0
 35 43  1  6  0  0  0
 35 41  1  0  0  0  0
 36 40  1  0  0  0  0
 37 39  1  0  0  0  0
 37 34  1  0  0  0  0
 38 42  2  0  0  0  0
 40 39  1  0  0  0  0
 41 37  1  0  0  0  0
 42 35  1  0  0  0  0
 42 36  1  0  0  0  0
 44 48  2  0  0  0  0
 45 34  1  6  0  0  0
 45 44  1  0  0  0  0
 45 47  1  0  0  0  0
 47 46  2  0  0  0  0
 48 46  1  0  0  0  0
M  END
>  <MODEL>
8

>  <REMARK>
 VINA RESULT:      -2.5      6.948     11.655
  Name = 
  9 active torsions:
  status: ('A' for Active; 'I' for Inactive)
    1  A    between atoms: C_5  and  C_44
    2  A    between atoms: O_8  and  C_35
    3  A    between atoms: C_9  and  C_38
    4  A    between atoms: O_10  and  C_39
    5  A    between atoms: C_13  and  C_29
    6  A    between atoms: N_14  and  C_38
    7  A    between atoms: C_20  and  C_38
    8  A    between atoms: C_27  and  C_45
    9  A    between atoms: C_29  and  C_45
                            x       y       z     vdW  Elec       q    Type
                         _______ _______ _______ _____ _____    ______ ____

>  <TORSDO>
F 9

$$$$
