=
 OpenBabel11072411553D

 32 36  0  0  1  0  0  0  0  0999 V2000
  161.9890  209.6640  151.3010 C   0  0  0  0  0  0  0  0  0  0  0  0
  160.9100  203.7790  152.4190 N   0  0  0  0  0  1  0  0  0  0  0  0
  161.8730  209.1610  148.5170 N   0  0  0  0  0  0  0  0  0  0  0  0
  161.2140  205.4680  150.7000 N   0  0  0  0  0  0  0  0  0  0  0  0
  161.0560  204.1420  148.5590 S   0  0  0  0  0  0  0  0  0  0  0  0
  160.9930  204.1750  151.0540 C   0  0  0  0  0  0  0  0  0  0  0  0
  160.8620  203.2810  149.9930 C   0  0  0  0  0  0  0  0  0  0  0  0
  161.2710  205.6080  149.3570 C   0  0  0  0  0  0  0  0  0  0  0  0
  162.0790  210.4800  149.0270 C   0  0  0  0  0  0  0  0  0  0  0  0
  161.6140  208.2940  150.7970 C   0  0  0  0  0  2  0  0  0  0  0  0
  162.1710  210.6910  150.4710 C   0  0  0  0  0  3  0  0  0  0  0  0
  161.4940  206.8500  148.6810 N   0  0  0  0  0  2  0  0  0  0  0  0
  161.6820  208.1330  149.2910 C   0  0  0  0  0  0  0  0  0  0  0  0
  162.2380  211.4700  148.2160 N   0  0  0  0  0  2  0  0  0  0  0  0
  161.2110  201.1370  148.9040 N   0  0  0  0  0  2  0  0  0  0  0  0
  160.6780  201.7990  150.1050 C   0  0  2  0  0  3  0  0  0  0  0  0
  159.7650  201.3260  149.0700 C   0  0  0  0  0  2  0  0  0  0  0  0
  162.0680  209.8820  152.7720 C   0  0  0  0  0  2  0  0  0  0  0  0
  160.8140  209.3590  153.4540 C   0  0  0  0  0  2  0  0  0  0  0  0
  160.5920  210.0610  154.7820 C   0  0  1  0  0  0  0  0  0  0  0  0
  159.4350  211.6560  157.0910 O   0  0  0  0  0  0  0  0  0  0  0  0
  159.6160  209.4330  155.6720 C   0  0  0  0  0  2  0  0  0  0  0  0
  160.7500  212.1220  157.2610 C   0  0  0  0  0  2  0  0  0  0  0  0
  161.7510  211.0600  156.8540 C   0  0  0  0  0  2  0  0  0  0  0  0
  161.7440  210.9190  155.3410 C   0  0  0  0  0  2  0  0  0  0  0  0
  159.0310  211.8010  155.7350 C   0  0  2  0  0  3  0  0  0  0  0  0
  159.2170  210.6140  154.8700 N   0  0  1  0  0  0  0  0  0  0  0  0
  159.3750  213.1230  155.0300 C   0  0  0  0  0  2  0  0  0  0  0  0
  156.9700  213.3060  154.2340 S   0  0  0  0  0  0  0  0  0  0  0  0
  158.3740  213.4470  153.9650 C   0  0  0  0  0  0  0  0  0  0  0  0
  159.8010  212.6590  152.2470 O   0  0  0  0  0  1  0  0  0  0  0  0
  158.8470  213.6280  152.5610 C   0  0  0  0  0  2  0  0  0  0  0  0
  1 18  1  0  0  0  0
  3  9  1  0  0  0  0
  3 13  2  0  0  0  0
  4  6  1  0  0  0  0
  5  8  1  0  0  0  0
  5  7  1  0  0  0  0
  6  2  1  0  0  0  0
  7  6  2  0  0  0  0
  8  4  2  0  0  0  0
  9 11  1  0  0  0  0
 10  1  1  0  0  0  0
 11  1  2  0  0  0  0
 12 13  1  0  0  0  0
 12  8  1  0  0  0  0
 13 10  1  0  0  0  0
 14  9  2  0  0  0  0
 15 17  1  0  0  0  0
 15 16  1  0  0  0  0
 16  7  1  6  0  0  0
 17 16  1  0  0  0  0
 18 19  1  0  0  0  0
 20 19  1  6  0  0  0
 20 27  1  0  0  0  0
 20 25  1  0  0  0  0
 20 22  1  0  0  0  0
 21 23  1  0  0  0  0
 24 23  1  0  0  0  0
 25 24  1  0  0  0  0
 26 28  1  6  0  0  0
 26 21  1  0  0  0  0
 27 22  1  1  0  0  0
 27 26  1  0  0  0  0
 30 29  2  0  0  0  0
 30 28  1  0  0  0  0
 31 32  1  0  0  0  0
 32 30  1  0  0  0  0
M  END
>  <MODEL>
1

>  <REMARK>
 VINA RESULT:      -7.4      0.000      0.000
  Name = 
  7 active torsions:
  status: ('A' for Active; 'I' for Inactive)
    1  A    between atoms: C_1  and  C_29
    2  A    between atoms: C_5  and  C_13
    3  A    between atoms: C_7  and  C_9
    4  A    between atoms: C_7  and  C_29
    5  A    between atoms: C_14  and  C_17
    6  A    between atoms: C_14  and  C_22
    7  A    between atoms: C_17  and  C_28
                            x       y       z     vdW  Elec       q    Type
                         _______ _______ _______ _____ _____    ______ ____

>  <TORSDO>
F 7

$$$$
=
 OpenBabel11072411553D

 32 36  0  0  1  0  0  0  0  0999 V2000
  161.7080  209.3140  151.3910 C   0  0  0  0  0  0  0  0  0  0  0  0
  160.4880  203.3700  151.8710 N   0  0  0  0  0  1  0  0  0  0  0  0
  161.9510  209.0430  148.5830 N   0  0  0  0  0  0  0  0  0  0  0  0
  161.0120  205.1910  150.3510 N   0  0  0  0  0  0  0  0  0  0  0  0
  161.1300  204.0470  148.1040 S   0  0  0  0  0  0  0  0  0  0  0  0
  160.7470  203.8760  150.5650 C   0  0  0  0  0  0  0  0  0  0  0  0
  160.7520  203.0730  149.4260 C   0  0  0  0  0  0  0  0  0  0  0  0
  161.2420  205.4390  149.0420 C   0  0  0  0  0  0  0  0  0  0  0  0
  162.0910  210.3120  149.2220 C   0  0  0  0  0  0  0  0  0  0  0  0
  161.4000  207.9940  150.7310 C   0  0  0  0  0  2  0  0  0  0  0  0
  161.9960  210.4040  150.6790 C   0  0  0  0  0  3  0  0  0  0  0  0
  161.5510  206.7310  148.5050 N   0  0  0  0  0  2  0  0  0  0  0  0
  161.6600  207.9570  149.2380 C   0  0  0  0  0  0  0  0  0  0  0  0
  162.3550  211.3630  148.5230 N   0  0  0  0  0  2  0  0  0  0  0  0
  161.8350  200.9200  149.1190 N   0  0  0  0  0  2  0  0  0  0  0  0
  160.5540  201.5900  149.3900 C   0  0  2  0  0  3  0  0  0  0  0  0
  160.8380  201.0760  148.0540 C   0  0  0  0  0  2  0  0  0  0  0  0
  161.5980  209.4110  152.8730 C   0  0  0  0  0  2  0  0  0  0  0  0
  160.1400  209.5260  153.2890 C   0  0  0  0  0  2  0  0  0  0  0  0
  159.7700  210.9740  153.5570 C   0  0  1  0  0  0  0  0  0  0  0  0
  158.7750  213.5570  154.8030 O   0  0  0  0  0  0  0  0  0  0  0  0
  160.6030  211.6660  154.5400 C   0  0  0  0  0  2  0  0  0  0  0  0
  158.3410  213.8670  153.5020 C   0  0  0  0  0  2  0  0  0  0  0  0
  159.2630  213.2530  152.4690 C   0  0  0  0  0  2  0  0  0  0  0  0
  159.0470  211.7490  152.4380 C   0  0  0  0  0  2  0  0  0  0  0  0
  158.3240  212.2610  155.1780 C   0  0  2  0  0  3  0  0  0  0  0  0
  159.2740  211.1490  154.9460 N   0  0  1  0  0  0  0  0  0  0  0  0
  156.8690  211.8920  154.8460 C   0  0  0  0  0  2  0  0  0  0  0  0
  156.3590  212.5200  157.2540 S   0  0  0  0  0  0  0  0  0  0  0  0
  156.0520  211.7360  156.0900 C   0  0  0  0  0  0  0  0  0  0  0  0
  155.0500  209.8980  154.9820 O   0  0  0  0  0  1  0  0  0  0  0  0
  155.1260  210.5700  156.2030 C   0  0  0  0  0  2  0  0  0  0  0  0
  1 18  1  0  0  0  0
  3  9  1  0  0  0  0
  3 13  2  0  0  0  0
  4  6  1  0  0  0  0
  5  8  1  0  0  0  0
  5  7  1  0  0  0  0
  6  2  1  0  0  0  0
  7  6  2  0  0  0  0
  8  4  2  0  0  0  0
  9 11  1  0  0  0  0
 10  1  1  0  0  0  0
 11  1  2  0  0  0  0
 12  8  1  0  0  0  0
 12 13  1  0  0  0  0
 13 10  1  0  0  0  0
 14  9  2  0  0  0  0
 15 16  1  0  0  0  0
 16  7  1  6  0  0  0
 17 15  1  0  0  0  0
 17 16  1  0  0  0  0
 18 19  1  0  0  0  0
 20 19  1  6  0  0  0
 20 22  1  0  0  0  0
 20 27  1  0  0  0  0
 21 26  1  0  0  0  0
 23 21  1  0  0  0  0
 24 23  1  0  0  0  0
 25 24  1  0  0  0  0
 25 20  1  0  0  0  0
 26 28  1  6  0  0  0
 27 22  1  1  0  0  0
 27 26  1  0  0  0  0
 28 30  1  0  0  0  0
 30 32  1  0  0  0  0
 30 29  2  0  0  0  0
 31 32  1  0  0  0  0
M  END
>  <MODEL>
2

>  <REMARK>
 VINA RESULT:      -7.4      1.722      2.515
  Name = 
  7 active torsions:
  status: ('A' for Active; 'I' for Inactive)
    1  A    between atoms: C_1  and  C_29
    2  A    between atoms: C_5  and  C_13
    3  A    between atoms: C_7  and  C_9
    4  A    between atoms: C_7  and  C_29
    5  A    between atoms: C_14  and  C_17
    6  A    between atoms: C_14  and  C_22
    7  A    between atoms: C_17  and  C_28
                            x       y       z     vdW  Elec       q    Type
                         _______ _______ _______ _____ _____    ______ ____

>  <TORSDO>
F 7

$$$$
=
 OpenBabel11072411553D

 32 36  0  0  1  0  0  0  0  0999 V2000
  161.6830  208.4050  151.2440 C   0  0  0  0  0  0  0  0  0  0  0  0
  160.6090  202.4190  151.0010 N   0  0  0  0  0  1  0  0  0  0  0  0
  161.9300  208.4800  148.4240 N   0  0  0  0  0  0  0  0  0  0  0  0
  161.0870  204.4220  149.7130 N   0  0  0  0  0  0  0  0  0  0  0  0
  161.2300  203.5600  147.3450 S   0  0  0  0  0  0  0  0  0  0  0  0
  160.8540  203.0840  149.7660 C   0  0  0  0  0  0  0  0  0  0  0  0
  160.8770  202.4260  148.5380 C   0  0  0  0  0  0  0  0  0  0  0  0
  161.3090  204.8320  148.4440 C   0  0  0  0  0  0  0  0  0  0  0  0
  162.0400  209.6670  149.2120 C   0  0  0  0  0  0  0  0  0  0  0  0
  161.4070  207.1680  150.4290 C   0  0  0  0  0  2  0  0  0  0  0  0
  161.9450  209.5790  150.6690 C   0  0  0  0  0  3  0  0  0  0  0  0
  161.5870  206.1860  148.0670 N   0  0  0  0  0  2  0  0  0  0  0  0
  161.6670  207.3170  148.9430 C   0  0  0  0  0  0  0  0  0  0  0  0
  162.2770  210.8010  148.6450 N   0  0  0  0  0  2  0  0  0  0  0  0
  162.0360  200.3100  148.2510 N   0  0  0  0  0  2  0  0  0  0  0  0
  160.7150  200.9530  148.3240 C   0  0  2  0  0  3  0  0  0  0  0  0
  161.2670  200.5700  147.0290 C   0  0  0  0  0  2  0  0  0  0  0  0
  161.5720  208.3200  152.7260 C   0  0  0  0  0  2  0  0  0  0  0  0
  160.3690  209.1110  153.2140 C   0  0  0  0  0  2  0  0  0  0  0  0
  160.6350  209.7030  154.5860 C   0  0  1  0  0  0  0  0  0  0  0  0
  160.3870  211.1180  157.2610 O   0  0  0  0  0  0  0  0  0  0  0  0
  159.9870  209.0190  155.7050 C   0  0  0  0  0  2  0  0  0  0  0  0
  161.7020  211.5460  157.0100 C   0  0  0  0  0  2  0  0  0  0  0  0
  162.4620  210.5060  156.2140 C   0  0  0  0  0  2  0  0  0  0  0  0
  161.9430  210.4930  154.7860 C   0  0  0  0  0  2  0  0  0  0  0  0
  159.5590  211.3830  156.1340 C   0  0  2  0  0  3  0  0  0  0  0  0
  159.3930  210.2690  155.1720 N   0  0  1  0  0  0  0  0  0  0  0  0
  159.7050  212.7530  155.4530 C   0  0  0  0  0  2  0  0  0  0  0  0
  158.9380  213.1230  153.0600 S   0  0  0  0  0  0  0  0  0  0  0  0
  158.6150  212.9800  154.4530 C   0  0  0  0  0  0  0  0  0  0  0  0
  156.3070  212.4500  154.4310 O   0  0  0  0  0  1  0  0  0  0  0  0
  157.2520  213.3420  154.9400 C   0  0  0  0  0  2  0  0  0  0  0  0
  1 18  1  0  0  0  0
  3 13  2  0  0  0  0
  3  9  1  0  0  0  0
  4  6  1  0  0  0  0
  5  8  1  0  0  0  0
  5  7  1  0  0  0  0
  6  2  1  0  0  0  0
  7  6  2  0  0  0  0
  8  4  2  0  0  0  0
  9 11  1  0  0  0  0
 10  1  1  0  0  0  0
 11  1  2  0  0  0  0
 12  8  1  0  0  0  0
 12 13  1  0  0  0  0
 13 10  1  0  0  0  0
 14  9  2  0  0  0  0
 15 16  1  0  0  0  0
 16  7  1  6  0  0  0
 17 15  1  0  0  0  0
 17 16  1  0  0  0  0
 18 19  1  0  0  0  0
 20 19  1  6  0  0  0
 20 25  1  0  0  0  0
 20 27  1  0  0  0  0
 20 22  1  0  0  0  0
 23 21  1  0  0  0  0
 24 23  1  0  0  0  0
 25 24  1  0  0  0  0
 26 28  1  6  0  0  0
 26 21  1  0  0  0  0
 27 22  1  1  0  0  0
 27 26  1  0  0  0  0
 29 30  2  0  0  0  0
 30 32  1  0  0  0  0
 30 28  1  0  0  0  0
 31 32  1  0  0  0  0
M  END
>  <MODEL>
3

>  <REMARK>
 VINA RESULT:      -7.3      1.376      1.538
  Name = 
  7 active torsions:
  status: ('A' for Active; 'I' for Inactive)
    1  A    between atoms: C_1  and  C_29
    2  A    between atoms: C_5  and  C_13
    3  A    between atoms: C_7  and  C_9
    4  A    between atoms: C_7  and  C_29
    5  A    between atoms: C_14  and  C_17
    6  A    between atoms: C_14  and  C_22
    7  A    between atoms: C_17  and  C_28
                            x       y       z     vdW  Elec       q    Type
                         _______ _______ _______ _____ _____    ______ ____

>  <TORSDO>
F 7

$$$$
=
 OpenBabel11072411553D

 32 36  0  0  1  0  0  0  0  0999 V2000
  161.8480  209.0540  151.1330 C   0  0  0  0  0  0  0  0  0  0  0  0
  162.4800  206.0770  145.8620 N   0  0  0  0  0  1  0  0  0  0  0  0
  160.8820  206.6910  152.3580 N   0  0  0  0  0  0  0  0  0  0  0  0
  161.7980  205.9100  148.1880 N   0  0  0  0  0  0  0  0  0  0  0  0
  160.9960  203.5250  148.3810 S   0  0  0  0  0  0  0  0  0  0  0  0
  161.9610  205.3400  146.9650 C   0  0  0  0  0  0  0  0  0  0  0  0
  161.5820  204.0020  146.8750 C   0  0  0  0  0  0  0  0  0  0  0  0
  161.2780  205.0320  149.0740 C   0  0  0  0  0  0  0  0  0  0  0  0
  161.0490  207.9000  153.1020 C   0  0  0  0  0  0  0  0  0  0  0  0
  161.8320  207.7580  150.3640 C   0  0  0  0  0  2  0  0  0  0  0  0
  161.5140  209.1090  152.4230 C   0  0  0  0  0  3  0  0  0  0  0  0
  160.9900  205.3380  150.4430 N   0  0  0  0  0  2  0  0  0  0  0  0
  161.2040  206.5920  151.1020 C   0  0  0  0  0  0  0  0  0  0  0  0
  160.7370  207.9390  154.3520 N   0  0  0  0  0  2  0  0  0  0  0  0
  160.3470  203.3500  144.8870 N   0  0  0  0  0  2  0  0  0  0  0  0
  161.5980  203.1620  145.6370 C   0  0  2  0  0  3  0  0  0  0  0  0
  160.5510  202.1480  145.7040 C   0  0  0  0  0  2  0  0  0  0  0  0
  162.3360  210.2830  150.4460 C   0  0  0  0  0  2  0  0  0  0  0  0
  161.8210  210.3290  149.0160 C   0  0  0  0  0  2  0  0  0  0  0  0
  161.8160  211.7550  148.4940 C   0  0  1  0  0  0  0  0  0  0  0  0
  161.0880  214.3700  147.1340 O   0  0  0  0  0  0  0  0  0  0  0  0
  160.8620  212.6580  149.1360 C   0  0  0  0  0  2  0  0  0  0  0  0
  162.4600  214.4490  146.8390 C   0  0  0  0  0  2  0  0  0  0  0  0
  163.2810  213.7960  147.9310 C   0  0  0  0  0  2  0  0  0  0  0  0
  163.1110  212.2880  147.8510 C   0  0  0  0  0  2  0  0  0  0  0  0
  160.5750  213.0990  146.7530 C   0  0  2  0  0  3  0  0  0  0  0  0
  160.5320  212.0690  147.8170 N   0  0  1  0  0  0  0  0  0  0  0  0
  161.0060  212.5390  145.3870 C   0  0  0  0  0  2  0  0  0  0  0  0
  158.5820  213.0250  144.8040 S   0  0  0  0  0  0  0  0  0  0  0  0
  159.9040  212.6560  144.3810 C   0  0  0  0  0  0  0  0  0  0  0  0
  161.3550  212.5290  142.5140 O   0  0  0  0  0  1  0  0  0  0  0  0
  160.1190  212.1100  143.0090 C   0  0  0  0  0  2  0  0  0  0  0  0
  1 11  2  0  0  0  0
  2  6  1  0  0  0  0
  3  9  1  0  0  0  0
  4  8  2  0  0  0  0
  5  8  1  0  0  0  0
  6  4  1  0  0  0  0
  7  6  2  0  0  0  0
  7  5  1  0  0  0  0
  8 12  1  0  0  0  0
  9 14  2  0  0  0  0
 10 13  1  0  0  0  0
 10  1  1  0  0  0  0
 11  9  1  0  0  0  0
 12 13  1  0  0  0  0
 13  3  2  0  0  0  0
 15 16  1  0  0  0  0
 15 17  1  0  0  0  0
 16 17  1  0  0  0  0
 16  7  1  1  0  0  0
 18  1  1  0  0  0  0
 19 18  1  0  0  0  0
 20 19  1  1  0  0  0
 20 22  1  0  0  0  0
 23 21  1  0  0  0  0
 23 24  1  0  0  0  0
 25 24  1  0  0  0  0
 25 20  1  0  0  0  0
 26 28  1  6  0  0  0
 26 21  1  0  0  0  0
 26 27  1  0  0  0  0
 27 20  1  0  0  0  0
 27 22  1  1  0  0  0
 30 29  2  0  0  0  0
 30 28  1  0  0  0  0
 31 32  1  0  0  0  0
 32 30  1  0  0  0  0
M  END
>  <MODEL>
4

>  <REMARK>
 VINA RESULT:      -7.2      3.984      6.561
  Name = 
  7 active torsions:
  status: ('A' for Active; 'I' for Inactive)
    1  A    between atoms: C_1  and  C_29
    2  A    between atoms: C_5  and  C_13
    3  A    between atoms: C_7  and  C_9
    4  A    between atoms: C_7  and  C_29
    5  A    between atoms: C_14  and  C_17
    6  A    between atoms: C_14  and  C_22
    7  A    between atoms: C_17  and  C_28
                            x       y       z     vdW  Elec       q    Type
                         _______ _______ _______ _____ _____    ______ ____

>  <TORSDO>
F 7

$$$$
=
 OpenBabel11072411553D

 32 36  0  0  1  0  0  0  0  0999 V2000
  161.9250  209.9540  149.9040 C   0  0  0  0  0  0  0  0  0  0  0  0
  161.6140  204.6830  146.8760 N   0  0  0  0  0  1  0  0  0  0  0  0
  161.4140  208.5930  152.3340 N   0  0  0  0  0  0  0  0  0  0  0  0
  161.4620  205.7560  149.0500 N   0  0  0  0  0  0  0  0  0  0  0  0
  160.8900  203.8440  150.5950 S   0  0  0  0  0  0  0  0  0  0  0  0
  161.3970  204.6360  148.2830 C   0  0  0  0  0  0  0  0  0  0  0  0
  161.1030  203.4600  148.9690 C   0  0  0  0  0  0  0  0  0  0  0  0
  161.2080  205.4770  150.3480 C   0  0  0  0  0  0  0  0  0  0  0  0
  161.6510  210.0020  152.3060 C   0  0  0  0  0  0  0  0  0  0  0  0
  161.8350  208.4490  149.9220 C   0  0  0  0  0  2  0  0  0  0  0  0
  161.8730  210.6730  151.0250 C   0  0  0  0  0  3  0  0  0  0  0  0
  161.2010  206.4510  151.3980 N   0  0  0  0  0  2  0  0  0  0  0  0
  161.4640  207.8530  151.2660 C   0  0  0  0  0  0  0  0  0  0  0  0
  161.6140  210.6870  153.3980 N   0  0  0  0  0  2  0  0  0  0  0  0
  159.5710  201.5950  148.6850 N   0  0  0  0  0  2  0  0  0  0  0  0
  160.9110  202.1060  148.3580 C   0  0  2  0  0  3  0  0  0  0  0  0
  160.7520  201.1010  149.4030 C   0  0  0  0  0  2  0  0  0  0  0  0
  162.1650  210.6360  148.6020 C   0  0  0  0  0  2  0  0  0  0  0  0
  162.1140  212.1450  148.7780 C   0  0  0  0  0  2  0  0  0  0  0  0
  161.1340  212.7670  147.7990 C   0  0  1  0  0  0  0  0  0  0  0  0
  158.9350  214.4150  146.5090 O   0  0  0  0  0  0  0  0  0  0  0  0
  161.3930  214.1630  147.4470 C   0  0  0  0  0  2  0  0  0  0  0  0
  158.6800  213.2530  145.7610 C   0  0  0  0  0  2  0  0  0  0  0  0
  159.9570  212.4750  145.5260 C   0  0  0  0  0  2  0  0  0  0  0  0
  160.3940  211.8250  146.8290 C   0  0  0  0  0  2  0  0  0  0  0  0
  158.9950  214.1060  147.8960 C   0  0  2  0  0  3  0  0  0  0  0  0
  160.3450  213.8460  148.4470 N   0  0  1  0  0  0  0  0  0  0  0  0
  157.9200  213.1620  148.4610 C   0  0  0  0  0  2  0  0  0  0  0  0
  155.8230  214.4370  149.1160 S   0  0  0  0  0  0  0  0  0  0  0  0
  157.0810  213.8500  149.4900 C   0  0  0  0  0  0  0  0  0  0  0  0
  158.2780  213.0350  151.3630 O   0  0  0  0  0  1  0  0  0  0  0  0
  157.6850  214.1730  150.8160 C   0  0  0  0  0  2  0  0  0  0  0  0
  1 10  1  0  0  0  0
  1 11  2  0  0  0  0
  2  6  1  0  0  0  0
  4  8  2  0  0  0  0
  6  7  2  0  0  0  0
  6  4  1  0  0  0  0
  7  5  1  0  0  0  0
  8  5  1  0  0  0  0
  8 12  1  0  0  0  0
  9  3  1  0  0  0  0
  9 14  2  0  0  0  0
 10 13  1  0  0  0  0
 11  9  1  0  0  0  0
 13 12  1  0  0  0  0
 13  3  2  0  0  0  0
 15 17  1  0  0  0  0
 16 15  1  0  0  0  0
 16  7  1  1  0  0  0
 16 17  1  0  0  0  0
 18 19  1  0  0  0  0
 18  1  1  0  0  0  0
 20 27  1  0  0  0  0
 20 19  1  1  0  0  0
 21 26  1  0  0  0  0
 22 20  1  0  0  0  0
 23 21  1  0  0  0  0
 24 23  1  0  0  0  0
 24 25  1  0  0  0  0
 25 20  1  0  0  0  0
 26 27  1  0  0  0  0
 26 28  1  6  0  0  0
 27 22  1  6  0  0  0
 28 30  1  0  0  0  0
 29 30  2  0  0  0  0
 30 32  1  0  0  0  0
 32 31  1  0  0  0  0
M  END
>  <MODEL>
5

>  <REMARK>
 VINA RESULT:      -7.2      2.913      5.630
  Name = 
  7 active torsions:
  status: ('A' for Active; 'I' for Inactive)
    1  A    between atoms: C_1  and  C_29
    2  A    between atoms: C_5  and  C_13
    3  A    between atoms: C_7  and  C_9
    4  A    between atoms: C_7  and  C_29
    5  A    between atoms: C_14  and  C_17
    6  A    between atoms: C_14  and  C_22
    7  A    between atoms: C_17  and  C_28
                            x       y       z     vdW  Elec       q    Type
                         _______ _______ _______ _____ _____    ______ ____

>  <TORSDO>
F 7

$$$$
=
 OpenBabel11072411553D

 32 36  0  0  1  0  0  0  0  0999 V2000
  161.8530  206.5380  150.7990 C   0  0  0  0  0  0  0  0  0  0  0  0
  160.5730  211.8200  153.5390 N   0  0  0  0  0  1  0  0  0  0  0  0
  161.1920  205.1410  153.1710 N   0  0  0  0  0  0  0  0  0  0  0  0
  160.6780  209.4060  153.7920 N   0  0  0  0  0  0  0  0  0  0  0  0
  160.0340  209.0530  156.2060 S   0  0  0  0  0  0  0  0  0  0  0  0
  160.4320  210.6350  154.3170 C   0  0  0  0  0  0  0  0  0  0  0  0
  160.0440  210.6450  155.6550 C   0  0  0  0  0  0  0  0  0  0  0  0
  160.4970  208.4330  154.7130 C   0  0  0  0  0  0  0  0  0  0  0  0
  161.5830  204.4480  151.9840 C   0  0  0  0  0  0  0  0  0  0  0  0
  161.2940  207.2850  151.9820 C   0  0  0  0  0  2  0  0  0  0  0  0
  161.9540  205.2090  150.7920 C   0  0  0  0  0  3  0  0  0  0  0  0
  160.6820  207.0350  154.4600 N   0  0  0  0  0  2  0  0  0  0  0  0
  161.0710  206.4350  153.2190 C   0  0  0  0  0  0  0  0  0  0  0  0
  161.6630  203.1610  151.9830 N   0  0  0  0  0  2  0  0  0  0  0  0
  158.4760  211.7280  157.1620 N   0  0  0  0  0  2  0  0  0  0  0  0
  159.7770  211.8600  156.4880 C   0  0  2  0  0  3  0  0  0  0  0  0
  158.6150  212.5770  155.9730 C   0  0  0  0  0  2  0  0  0  0  0  0
  162.2160  207.3110  149.5790 C   0  0  0  0  0  2  0  0  0  0  0  0
  161.0720  207.2900  148.5770 C   0  0  0  0  0  2  0  0  0  0  0  0
  161.3450  206.2870  147.4710 C   0  0  1  0  0  0  0  0  0  0  0  0
  161.2850  203.8750  145.6270 O   0  0  0  0  0  0  0  0  0  0  0  0
  160.3230  206.2040  146.4280 C   0  0  0  0  0  2  0  0  0  0  0  0
  162.6830  204.0140  145.6120 C   0  0  0  0  0  2  0  0  0  0  0  0
  163.0800  205.4680  145.7520 C   0  0  0  0  0  2  0  0  0  0  0  0
  162.8140  205.9240  147.1770 C   0  0  0  0  0  2  0  0  0  0  0  0
  160.8040  203.8720  146.9660 C   0  0  2  0  0  3  0  0  0  0  0  0
  160.3560  205.1790  147.5000 N   0  0  1  0  0  0  0  0  0  0  0  0
  161.5770  203.0320  147.9960 C   0  0  0  0  0  2  0  0  0  0  0  0
  159.9190  201.7000  149.3850 S   0  0  0  0  0  0  0  0  0  0  0  0
  160.8600  201.7550  148.3010 C   0  0  0  0  0  0  0  0  0  0  0  0
  161.2090  200.5640  146.2840 O   0  0  0  0  0  1  0  0  0  0  0  0
  161.3410  200.4890  147.6710 C   0  0  0  0  0  2  0  0  0  0  0  0
  1 10  1  0  0  0  0
  2  6  1  0  0  0  0
  3 13  2  0  0  0  0
  4  6  1  0  0  0  0
  4  8  2  0  0  0  0
  6  7  2  0  0  0  0
  7  5  1  0  0  0  0
  8  5  1  0  0  0  0
  9  3  1  0  0  0  0
 10 13  1  0  0  0  0
 11  1  2  0  0  0  0
 11  9  1  0  0  0  0
 12  8  1  0  0  0  0
 13 12  1  0  0  0  0
 14  9  2  0  0  0  0
 16  7  1  6  0  0  0
 16 15  1  0  0  0  0
 17 16  1  0  0  0  0
 17 15  1  0  0  0  0
 18  1  1  0  0  0  0
 19 18  1  0  0  0  0
 20 27  1  0  0  0  0
 20 19  1  1  0  0  0
 21 26  1  0  0  0  0
 22 20  1  0  0  0  0
 23 21  1  0  0  0  0
 23 24  1  0  0  0  0
 24 25  1  0  0  0  0
 25 20  1  0  0  0  0
 26 27  1  0  0  0  0
 26 28  1  1  0  0  0
 27 22  1  6  0  0  0
 28 30  1  0  0  0  0
 30 29  2  0  0  0  0
 31 32  1  0  0  0  0
 32 30  1  0  0  0  0
M  END
>  <MODEL>
6

>  <REMARK>
 VINA RESULT:      -6.9      4.054      9.831
  Name = 
  7 active torsions:
  status: ('A' for Active; 'I' for Inactive)
    1  A    between atoms: C_1  and  C_29
    2  A    between atoms: C_5  and  C_13
    3  A    between atoms: C_7  and  C_9
    4  A    between atoms: C_7  and  C_29
    5  A    between atoms: C_14  and  C_17
    6  A    between atoms: C_14  and  C_22
    7  A    between atoms: C_17  and  C_28
                            x       y       z     vdW  Elec       q    Type
                         _______ _______ _______ _____ _____    ______ ____

>  <TORSDO>
F 7

$$$$
=
 OpenBabel11072411553D

 32 36  0  0  1  0  0  0  0  0999 V2000
  160.5060  209.4520  153.3780 C   0  0  0  0  0  0  0  0  0  0  0  0
  160.6320  205.7180  148.5730 N   0  0  0  0  0  1  0  0  0  0  0  0
  161.1590  207.2880  155.0840 N   0  0  0  0  0  0  0  0  0  0  0  0
  160.9020  205.8940  150.9810 N   0  0  0  0  0  0  0  0  0  0  0  0
  161.3620  203.5130  151.6820 S   0  0  0  0  0  0  0  0  0  0  0  0
  160.8910  205.1410  149.8490 C   0  0  0  0  0  0  0  0  0  0  0  0
  161.1430  203.7830  150.0340 C   0  0  0  0  0  0  0  0  0  0  0  0
  161.1520  205.1360  152.0720 C   0  0  0  0  0  0  0  0  0  0  0  0
  161.0010  208.6140  155.5910 C   0  0  0  0  0  0  0  0  0  0  0  0
  160.8190  208.0990  152.7930 C   0  0  0  0  0  2  0  0  0  0  0  0
  160.6260  209.6970  154.6830 C   0  0  0  0  0  3  0  0  0  0  0  0
  161.2240  205.6430  153.4100 N   0  0  0  0  0  2  0  0  0  0  0  0
  161.0590  207.0070  153.8170 C   0  0  0  0  0  0  0  0  0  0  0  0
  161.1350  208.8440  156.8530 N   0  0  0  0  0  2  0  0  0  0  0  0
  159.9070  201.9150  149.0930 N   0  0  0  0  0  2  0  0  0  0  0  0
  161.1260  202.7300  148.9710 C   0  0  2  0  0  3  0  0  0  0  0  0
  161.1960  201.4040  149.5750 C   0  0  0  0  0  2  0  0  0  0  0  0
  160.1390  210.5590  152.4520 C   0  0  0  0  0  2  0  0  0  0  0  0
  160.4140  211.9060  153.1010 C   0  0  0  0  0  2  0  0  0  0  0  0
  159.1560  212.7550  153.1310 C   0  0  1  0  0  0  0  0  0  0  0  0
  156.6640  214.2630  153.9860 O   0  0  0  0  0  0  0  0  0  0  0  0
  159.2910  214.0600  153.7770 C   0  0  0  0  0  2  0  0  0  0  0  0
  156.1390  213.8350  152.7550 C   0  0  0  0  0  2  0  0  0  0  0  0
  157.2340  213.7210  151.7150 C   0  0  0  0  0  2  0  0  0  0  0  0
  158.1020  212.5150  152.0330 C   0  0  0  0  0  2  0  0  0  0  0  0
  157.2170  213.1620  154.6960 C   0  0  2  0  0  3  0  0  0  0  0  0
  158.6710  212.9390  154.5220 N   0  0  1  0  0  0  0  0  0  0  0  0
  156.4050  211.8560  154.7260 C   0  0  0  0  0  2  0  0  0  0  0  0
  156.6380  212.0090  157.2510 S   0  0  0  0  0  0  0  0  0  0  0  0
  155.8970  211.5660  156.1030 C   0  0  0  0  0  0  0  0  0  0  0  0
  154.8930  209.5750  155.3030 O   0  0  0  0  0  1  0  0  0  0  0  0
  154.7920  210.5760  156.2700 C   0  0  0  0  0  2  0  0  0  0  0  0
  1 11  2  0  0  0  0
  2  6  1  0  0  0  0
  3  9  1  0  0  0  0
  4  8  2  0  0  0  0
  5  8  1  0  0  0  0
  6  7  2  0  0  0  0
  6  4  1  0  0  0  0
  7  5  1  0  0  0  0
  8 12  1  0  0  0  0
  9 14  2  0  0  0  0
 10  1  1  0  0  0  0
 10 13  1  0  0  0  0
 11  9  1  0  0  0  0
 12 13  1  0  0  0  0
 13  3  2  0  0  0  0
 15 17  1  0  0  0  0
 16 15  1  0  0  0  0
 16 17  1  0  0  0  0
 16  7  1  1  0  0  0
 18 19  1  0  0  0  0
 18  1  1  0  0  0  0
 20 19  1  6  0  0  0
 20 22  1  0  0  0  0
 20 27  1  0  0  0  0
 21 26  1  0  0  0  0
 23 21  1  0  0  0  0
 24 25  1  0  0  0  0
 24 23  1  0  0  0  0
 25 20  1  0  0  0  0
 26 28  1  6  0  0  0
 27 22  1  6  0  0  0
 27 26  1  0  0  0  0
 28 30  1  0  0  0  0
 30 32  1  0  0  0  0
 30 29  2  0  0  0  0
 31 32  1  0  0  0  0
M  END
>  <MODEL>
7

>  <REMARK>
 VINA RESULT:      -6.7      2.585      4.438
  Name = 
  7 active torsions:
  status: ('A' for Active; 'I' for Inactive)
    1  A    between atoms: C_1  and  C_29
    2  A    between atoms: C_5  and  C_13
    3  A    between atoms: C_7  and  C_9
    4  A    between atoms: C_7  and  C_29
    5  A    between atoms: C_14  and  C_17
    6  A    between atoms: C_14  and  C_22
    7  A    between atoms: C_17  and  C_28
                            x       y       z     vdW  Elec       q    Type
                         _______ _______ _______ _____ _____    ______ ____

>  <TORSDO>
F 7

$$$$
=
 OpenBabel11072411553D

 32 36  0  0  1  0  0  0  0  0999 V2000
  162.0370  207.4530  150.6150 C   0  0  0  0  0  0  0  0  0  0  0  0
  160.0750  213.2070  150.8900 N   0  0  0  0  0  1  0  0  0  0  0  0
  160.9720  206.9610  153.1930 N   0  0  0  0  0  0  0  0  0  0  0  0
  160.2070  211.0790  152.0530 N   0  0  0  0  0  0  0  0  0  0  0  0
  159.1170  211.5700  154.2750 S   0  0  0  0  0  0  0  0  0  0  0  0
  159.8240  212.3820  152.0230 C   0  0  0  0  0  0  0  0  0  0  0  0
  159.1820  212.8410  153.1720 C   0  0  0  0  0  0  0  0  0  0  0  0
  159.8830  210.4980  153.2290 C   0  0  0  0  0  0  0  0  0  0  0  0
  161.6100  205.9270  152.4420 C   0  0  0  0  0  0  0  0  0  0  0  0
  161.2340  208.5180  151.3150 C   0  0  0  0  0  2  0  0  0  0  0  0
  162.1810  206.2310  151.1300 C   0  0  0  0  0  3  0  0  0  0  0  0
  160.1590  209.1320  153.5610 N   0  0  0  0  0  2  0  0  0  0  0  0
  160.8030  208.1630  152.7250 C   0  0  0  0  0  0  0  0  0  0  0  0
  161.7310  204.7440  152.9420 N   0  0  0  0  0  2  0  0  0  0  0  0
  157.5190  214.2260  154.2750 N   0  0  0  0  0  2  0  0  0  0  0  0
  158.7180  214.2420  153.4230 C   0  0  2  0  0  3  0  0  0  0  0  0
  157.4020  214.4500  152.8290 C   0  0  0  0  0  2  0  0  0  0  0  0
  162.6060  207.7580  149.2740 C   0  0  0  0  0  2  0  0  0  0  0  0
  161.5060  207.7800  148.2240 C   0  0  0  0  0  2  0  0  0  0  0  0
  161.5830  206.5480  147.3390 C   0  0  1  0  0  0  0  0  0  0  0  0
  161.1450  203.8250  146.0700 O   0  0  0  0  0  0  0  0  0  0  0  0
  160.4530  206.3510  146.4330 C   0  0  0  0  0  2  0  0  0  0  0  0
  162.5410  203.8210  145.9030 C   0  0  0  0  0  2  0  0  0  0  0  0
  163.0590  205.2290  145.6920 C   0  0  0  0  0  2  0  0  0  0  0  0
  162.9810  205.9930  147.0030 C   0  0  0  0  0  2  0  0  0  0  0  0
  160.8100  204.1450  147.4150 C   0  0  2  0  0  3  0  0  0  0  0  0
  160.5220  205.5710  147.6930 N   0  0  1  0  0  0  0  0  0  0  0  0
  161.6220  203.4650  148.5300 C   0  0  0  0  0  2  0  0  0  0  0  0
  160.8160  202.1300  150.5350 S   0  0  0  0  0  0  0  0  0  0  0  0
  160.8790  202.3040  149.1100 C   0  0  0  0  0  0  0  0  0  0  0  0
  161.5580  200.3670  147.9270 O   0  0  0  0  0  1  0  0  0  0  0  0
  160.4650  201.1890  148.2080 C   0  0  0  0  0  2  0  0  0  0  0  0
  1 11  2  0  0  0  0
  1 10  1  0  0  0  0
  2  6  1  0  0  0  0
  4  8  2  0  0  0  0
  6  4  1  0  0  0  0
  6  7  2  0  0  0  0
  7  5  1  0  0  0  0
  8 12  1  0  0  0  0
  8  5  1  0  0  0  0
  9 14  2  0  0  0  0
  9  3  1  0  0  0  0
 10 13  1  0  0  0  0
 11  9  1  0  0  0  0
 13  3  2  0  0  0  0
 13 12  1  0  0  0  0
 16  7  1  6  0  0  0
 16 15  1  0  0  0  0
 17 16  1  0  0  0  0
 17 15  1  0  0  0  0
 18  1  1  0  0  0  0
 19 18  1  0  0  0  0
 20 27  1  0  0  0  0
 20 19  1  1  0  0  0
 21 26  1  0  0  0  0
 22 20  1  0  0  0  0
 23 21  1  0  0  0  0
 24 23  1  0  0  0  0
 24 25  1  0  0  0  0
 25 20  1  0  0  0  0
 26 27  1  0  0  0  0
 26 28  1  1  0  0  0
 27 22  1  6  0  0  0
 28 30  1  0  0  0  0
 30 29  2  0  0  0  0
 31 32  1  0  0  0  0
 32 30  1  0  0  0  0
M  END
>  <MODEL>
8

>  <REMARK>
 VINA RESULT:      -6.5      3.927      9.789
  Name = 
  7 active torsions:
  status: ('A' for Active; 'I' for Inactive)
    1  A    between atoms: C_1  and  C_29
    2  A    between atoms: C_5  and  C_13
    3  A    between atoms: C_7  and  C_9
    4  A    between atoms: C_7  and  C_29
    5  A    between atoms: C_14  and  C_17
    6  A    between atoms: C_14  and  C_22
    7  A    between atoms: C_17  and  C_28
                            x       y       z     vdW  Elec       q    Type
                         _______ _______ _______ _____ _____    ______ ____

>  <TORSDO>
F 7

$$$$
=
 OpenBabel11072411553D

 32 36  0  0  1  0  0  0  0  0999 V2000
  161.6780  209.1750  151.1650 C   0  0  0  0  0  0  0  0  0  0  0  0
  160.5410  203.2080  151.5370 N   0  0  0  0  0  1  0  0  0  0  0  0
  161.9510  208.9530  148.3550 N   0  0  0  0  0  0  0  0  0  0  0  0
  161.0520  205.0600  150.0520 N   0  0  0  0  0  0  0  0  0  0  0  0
  161.2070  203.9550  147.7880 S   0  0  0  0  0  0  0  0  0  0  0  0
  160.8040  203.7380  150.2420 C   0  0  0  0  0  0  0  0  0  0  0  0
  160.8310  202.9540  149.0900 C   0  0  0  0  0  0  0  0  0  0  0  0
  161.2900  205.3330  148.7490 C   0  0  0  0  0  0  0  0  0  0  0  0
  162.0670  210.2140  149.0160 C   0  0  0  0  0  0  0  0  0  0  0  0
  161.3960  207.8620  150.4810 C   0  0  0  0  0  2  0  0  0  0  0  0
  161.9580  210.2800  150.4730 C   0  0  0  0  0  3  0  0  0  0  0  0
  161.5850  206.6370  148.2360 N   0  0  0  0  0  2  0  0  0  0  0  0
  161.6700  207.8530  148.9900 C   0  0  0  0  0  0  0  0  0  0  0  0
  162.3210  211.2800  148.3370 N   0  0  0  0  0  2  0  0  0  0  0  0
  161.9220  200.8310  148.6390 N   0  0  0  0  0  2  0  0  0  0  0  0
  160.6550  201.4690  149.0280 C   0  0  2  0  0  3  0  0  0  0  0  0
  160.8410  200.9970  147.6610 C   0  0  0  0  0  2  0  0  0  0  0  0
  161.5530  209.2460  152.6470 C   0  0  0  0  0  2  0  0  0  0  0  0
  161.6090  210.6920  153.1150 C   0  0  0  0  0  2  0  0  0  0  0  0
  160.4790  210.9860  154.0850 C   0  0  1  0  0  0  0  0  0  0  0  0
  158.6480  211.0710  156.5050 O   0  0  0  0  0  0  0  0  0  0  0  0
  160.8290  211.8360  155.2230 C   0  0  0  0  0  2  0  0  0  0  0  0
  157.6100  211.0890  155.5590 C   0  0  0  0  0  2  0  0  0  0  0  0
  158.0460  211.8060  154.2980 C   0  0  0  0  0  2  0  0  0  0  0  0
  159.0360  210.9330  153.5440 C   0  0  0  0  0  2  0  0  0  0  0  0
  159.5540  210.0110  156.2230 C   0  0  2  0  0  3  0  0  0  0  0  0
  160.7400  210.3680  155.4100 N   0  0  1  0  0  0  0  0  0  0  0  0
  158.9550  208.6450  155.8510 C   0  0  0  0  0  2  0  0  0  0  0  0
  160.7240  207.3390  157.1240 S   0  0  0  0  0  0  0  0  0  0  0  0
  159.9900  207.5660  155.9100 C   0  0  0  0  0  0  0  0  0  0  0  0
  161.7920  206.5690  154.7410 O   0  0  0  0  0  1  0  0  0  0  0  0
  160.4500  206.9380  154.6360 C   0  0  0  0  0  2  0  0  0  0  0  0
  1 18  1  0  0  0  0
  3 13  2  0  0  0  0
  3  9  1  0  0  0  0
  4  6  1  0  0  0  0
  5  8  1  0  0  0  0
  5  7  1  0  0  0  0
  6  2  1  0  0  0  0
  7  6  2  0  0  0  0
  8  4  2  0  0  0  0
  9 11  1  0  0  0  0
 10  1  1  0  0  0  0
 11  1  2  0  0  0  0
 12  8  1  0  0  0  0
 12 13  1  0  0  0  0
 13 10  1  0  0  0  0
 14  9  2  0  0  0  0
 15 16  1  0  0  0  0
 16  7  1  6  0  0  0
 17 15  1  0  0  0  0
 17 16  1  0  0  0  0
 18 19  1  0  0  0  0
 20 19  1  6  0  0  0
 20 22  1  0  0  0  0
 20 27  1  0  0  0  0
 23 21  1  0  0  0  0
 24 23  1  0  0  0  0
 25 20  1  0  0  0  0
 25 24  1  0  0  0  0
 26 28  1  6  0  0  0
 26 21  1  0  0  0  0
 27 22  1  1  0  0  0
 27 26  1  0  0  0  0
 28 30  1  0  0  0  0
 30 29  2  0  0  0  0
 32 31  1  0  0  0  0
 32 30  1  0  0  0  0
M  END
>  <MODEL>
9

>  <REMARK>
 VINA RESULT:      -6.5      2.070      3.037
  Name = 
  7 active torsions:
  status: ('A' for Active; 'I' for Inactive)
    1  A    between atoms: C_1  and  C_29
    2  A    between atoms: C_5  and  C_13
    3  A    between atoms: C_7  and  C_9
    4  A    between atoms: C_7  and  C_29
    5  A    between atoms: C_14  and  C_17
    6  A    between atoms: C_14  and  C_22
    7  A    between atoms: C_17  and  C_28
                            x       y       z     vdW  Elec       q    Type
                         _______ _______ _______ _____ _____    ______ ____

>  <TORSDO>
F 7

$$$$
