=
 OpenBabel11072413183D

 27 29  0  0  1  0  0  0  0  0999 V2000
  161.4320  205.9900  151.7440 C   0  0  0  0  0  0  0  0  0  0  0  0
  160.7270  204.1280  149.6850 C   0  0  0  0  0  0  0  0  0  0  0  0
  161.0170  207.7780  150.1700 C   0  0  0  0  0  3  0  0  0  0  0  0
  161.5650  204.5210  152.0110 C   0  0  0  0  0  2  0  0  0  0  0  0
  160.5640  203.7650  151.1450 C   0  0  0  0  0  2  0  0  0  0  0  0
  161.2160  206.4130  150.4150 C   0  0  0  0  0  0  0  0  0  0  0  0
  161.1050  205.3860  149.3200 C   0  0  0  0  0  0  0  0  0  0  0  0
  161.3480  208.2970  152.5180 C   0  0  0  0  0  0  0  0  0  0  0  0
  161.5120  206.9280  152.7920 C   0  0  0  0  0  0  0  0  0  0  0  0
  161.0890  208.7100  151.2050 C   0  0  0  0  0  3  0  0  0  0  0  0
  161.3160  204.5610  145.5260 C   0  0  0  0  0  0  0  0  0  0  0  0
  162.3970  206.8050  147.6370 C   0  0  0  0  0  1  0  0  0  0  0  0
  161.7130  203.6140  144.6860 C   0  0  0  0  0  2  0  0  0  0  0  0
  159.9750  206.3290  147.3190 C   0  0  0  0  0  2  0  0  0  0  0  0
  160.0630  206.6730  145.8350 C   0  0  0  0  0  2  0  0  0  0  0  0
  160.4200  205.5300  145.0640 O   0  0  0  0  0  0  0  0  0  0  0  0
  161.3010  205.7500  147.8320 C   0  0  2  0  0  0  0  0  0  0  0  0
  161.6890  204.4980  146.9930 C   0  0  2  0  0  3  0  0  0  0  0  0
  164.0780  204.3780  146.3690 N   0  0  0  0  0  1  0  0  0  0  0  0
  163.0720  203.8970  147.3010 C   0  0  0  0  0  2  0  0  0  0  0  0
  161.4360  209.2270  153.5610 O   0  0  0  0  0  0  0  0  0  0  0  0
  160.3210  209.9790  154.0200 C   0  0  0  0  0  1  0  0  0  0  0  0
  160.6130  206.5250  154.9430 O   0  0  0  0  0  1  0  0  0  0  0  0
  161.7900  206.4840  154.1950 C   0  0  0  0  0  2  0  0  0  0  0  0
  160.4290  203.1660  148.7120 O   0  0  0  0  0  0  0  0  0  0  0  0
  161.2220  200.9120  148.5590 C   0  0  0  0  0  1  0  0  0  0  0  0
  160.1070  201.8210  149.0320 C   0  0  0  0  0  2  0  0  0  0  0  0
  1  4  1  0  0  0  0
  1  9  1  0  0  0  0
  2  5  1  0  0  0  0
  3  6  1  0  0  0  0
  3 10  2  0  0  0  0
  5  4  1  0  0  0  0
  6  1  2  0  0  0  0
  7  2  2  0  0  0  0
  7  6  1  0  0  0  0
  8  9  2  0  0  0  0
  8 21  1  0  0  0  0
  9 24  1  0  0  0  0
 10  8  1  0  0  0  0
 11 18  1  0  0  0  0
 13 11  2  0  0  0  0
 14 17  1  0  0  0  0
 15 14  1  0  0  0  0
 16 11  1  0  0  0  0
 16 15  1  0  0  0  0
 17 12  1  6  0  0  0
 17  7  1  0  0  0  0
 18 20  1  6  0  0  0
 18 17  1  0  0  0  0
 19 20  1  0  0  0  0
 21 22  1  0  0  0  0
 24 23  1  0  0  0  0
 25 27  1  0  0  0  0
 25  2  1  0  0  0  0
 26 27  1  0  0  0  0
M  END
>  <MODEL>
1

>  <REMARK>
 VINA RESULT:      -6.0      0.000      0.000
  Name = 
  6 active torsions:
  status: ('A' for Active; 'I' for Inactive)
    1  A    between atoms: O_2  and  C_21
    2  A    between atoms: C_4  and  O_18
    3  A    between atoms: C_9  and  C_25
    4  A    between atoms: C_16  and  C_22
    5  A    between atoms: C_17  and  C_23
    6  A    between atoms: O_18  and  C_24
                            x       y       z     vdW  Elec       q    Type
                         _______ _______ _______ _____ _____    ______ ____

>  <TORSDO>
F 6

$$$$
=
 OpenBabel11072413183D

 27 29  0  0  1  0  0  0  0  0999 V2000
  161.8300  208.0570  151.6350 C   0  0  0  0  0  0  0  0  0  0  0  0
  160.8670  210.6160  152.4880 C   0  0  0  0  0  0  0  0  0  0  0  0
  160.6900  207.0770  153.5290 C   0  0  0  0  0  3  0  0  0  0  0  0
  162.2720  209.2860  150.8980 C   0  0  0  0  0  2  0  0  0  0  0  0
  161.1990  210.3590  151.0340 C   0  0  0  0  0  2  0  0  0  0  0  0
  161.1710  208.2170  152.8730 C   0  0  0  0  0  0  0  0  0  0  0  0
  160.9130  209.6030  153.4000 C   0  0  0  0  0  0  0  0  0  0  0  0
  161.6010  205.6380  151.7990 C   0  0  0  0  0  0  0  0  0  0  0  0
  162.0590  206.7710  151.1050 C   0  0  0  0  0  0  0  0  0  0  0  0
  160.9080  205.8030  153.0050 C   0  0  0  0  0  3  0  0  0  0  0  0
  160.8830  211.7830  156.6200 C   0  0  0  0  0  0  0  0  0  0  0  0
  160.8630  208.6330  155.7600 C   0  0  0  0  0  1  0  0  0  0  0  0
  161.5900  212.7050  157.2610 C   0  0  0  0  0  2  0  0  0  0  0  0
  159.1190  210.2360  154.9960 C   0  0  0  0  0  2  0  0  0  0  0  0
  158.7360  210.5650  156.4370 C   0  0  0  0  0  2  0  0  0  0  0  0
  159.5330  211.6280  156.9490 O   0  0  0  0  0  0  0  0  0  0  0  0
  160.6060  209.8690  154.8900 C   0  0  2  0  0  0  0  0  0  0  0  0
  161.4780  211.0330  155.4440 C   0  0  2  0  0  3  0  0  0  0  0  0
  163.4040  210.5350  156.9110 N   0  0  0  0  0  1  0  0  0  0  0  0
  162.9860  210.7460  155.5350 C   0  0  0  0  0  2  0  0  0  0  0  0
  161.8370  204.3620  151.2730 O   0  0  0  0  0  0  0  0  0  0  0  0
  161.1400  203.2050  151.7150 C   0  0  0  0  0  1  0  0  0  0  0  0
  161.9090  206.6730  148.7450 O   0  0  0  0  0  1  0  0  0  0  0  0
  162.8010  206.5980  149.8160 C   0  0  0  0  0  2  0  0  0  0  0  0
  160.4600  211.8990  152.8720 O   0  0  0  0  0  0  0  0  0  0  0  0
  158.6680  213.4710  153.1040 C   0  0  0  0  0  1  0  0  0  0  0  0
  159.5070  212.6560  152.1410 C   0  0  0  0  0  2  0  0  0  0  0  0
  1  6  1  0  0  0  0
  2 25  1  0  0  0  0
  2  7  2  0  0  0  0
  4  5  1  0  0  0  0
  4  1  1  0  0  0  0
  5  2  1  0  0  0  0
  6  7  1  0  0  0  0
  6  3  2  0  0  0  0
  7 17  1  0  0  0  0
  8 10  2  0  0  0  0
  9  1  2  0  0  0  0
  9  8  1  0  0  0  0
 10  3  1  0  0  0  0
 11 16  1  0  0  0  0
 11 13  2  0  0  0  0
 14 15  1  0  0  0  0
 15 16  1  0  0  0  0
 17 14  1  0  0  0  0
 17 18  1  0  0  0  0
 17 12  1  1  0  0  0
 18 20  1  1  0  0  0
 18 11  1  0  0  0  0
 20 19  1  0  0  0  0
 21 22  1  0  0  0  0
 21  8  1  0  0  0  0
 23 24  1  0  0  0  0
 24  9  1  0  0  0  0
 27 25  1  0  0  0  0
 27 26  1  0  0  0  0
M  END
>  <MODEL>
2

>  <REMARK>
 VINA RESULT:      -5.2      3.800      8.746
  Name = 
  6 active torsions:
  status: ('A' for Active; 'I' for Inactive)
    1  A    between atoms: O_2  and  C_21
    2  A    between atoms: C_4  and  O_18
    3  A    between atoms: C_9  and  C_25
    4  A    between atoms: C_16  and  C_22
    5  A    between atoms: C_17  and  C_23
    6  A    between atoms: O_18  and  C_24
                            x       y       z     vdW  Elec       q    Type
                         _______ _______ _______ _____ _____    ______ ____

>  <TORSDO>
F 6

$$$$
=
 OpenBabel11072413183D

 27 29  0  0  1  0  0  0  0  0999 V2000
  161.0310  208.9010  152.0530 C   0  0  0  0  0  0  0  0  0  0  0  0
  160.3430  208.8080  154.8320 C   0  0  0  0  0  0  0  0  0  0  0  0
  160.7810  211.3040  152.1460 C   0  0  0  0  0  3  0  0  0  0  0  0
  160.8810  207.5690  152.7240 C   0  0  0  0  0  2  0  0  0  0  0  0
  161.1920  207.7220  154.2080 C   0  0  0  0  0  2  0  0  0  0  0  0
  160.5770  210.0510  152.7350 C   0  0  0  0  0  0  0  0  0  0  0  0
  159.9840  209.9080  154.1120 C   0  0  0  0  0  0  0  0  0  0  0  0
  161.7760  210.2750  150.1860 C   0  0  0  0  0  0  0  0  0  0  0  0
  161.6150  209.0090  150.7760 C   0  0  0  0  0  0  0  0  0  0  0  0
  161.3660  211.4170  150.8850 C   0  0  0  0  0  3  0  0  0  0  0  0
  159.3000  213.4700  155.5140 C   0  0  0  0  0  0  0  0  0  0  0  0
  158.1310  210.4330  155.7870 C   0  0  0  0  0  1  0  0  0  0  0  0
  159.8790  214.4510  156.1950 C   0  0  0  0  0  2  0  0  0  0  0  0
  158.2600  211.6230  153.6050 C   0  0  0  0  0  2  0  0  0  0  0  0
  157.3790  212.7550  154.1260 C   0  0  0  0  0  2  0  0  0  0  0  0
  158.1620  213.7640  154.7570 O   0  0  0  0  0  0  0  0  0  0  0  0
  159.0920  211.0030  154.7360 C   0  0  2  0  0  0  0  0  0  0  0  0
  159.9510  212.1050  155.4230 C   0  0  2  0  0  3  0  0  0  0  0  0
  162.1250  211.3930  156.3620 N   0  0  0  0  0  1  0  0  0  0  0  0
  160.7290  211.6550  156.6720 C   0  0  0  0  0  2  0  0  0  0  0  0
  162.3510  210.3780  148.9130 O   0  0  0  0  0  0  0  0  0  0  0  0
  162.4160  211.6010  148.1930 C   0  0  0  0  0  1  0  0  0  0  0  0
  160.9350  207.1030  149.5500 O   0  0  0  0  0  1  0  0  0  0  0  0
  162.0520  207.7860  150.0300 C   0  0  0  0  0  2  0  0  0  0  0  0
  159.9780  208.6910  156.1790 O   0  0  0  0  0  0  0  0  0  0  0  0
  160.2710  206.5750  157.2600 C   0  0  0  0  0  1  0  0  0  0  0  0
  160.7690  207.9990  157.1340 C   0  0  0  0  0  2  0  0  0  0  0  0
  1  4  1  0  0  0  0
  1  6  1  0  0  0  0
  2 25  1  0  0  0  0
  3  6  2  0  0  0  0
  4  5  1  0  0  0  0
  5  2  1  0  0  0  0
  6  7  1  0  0  0  0
  7 17  1  0  0  0  0
  7  2  2  0  0  0  0
  8  9  1  0  0  0  0
  8 10  2  0  0  0  0
  9  1  2  0  0  0  0
 10  3  1  0  0  0  0
 11 13  2  0  0  0  0
 14 15  1  0  0  0  0
 14 17  1  0  0  0  0
 15 16  1  0  0  0  0
 16 11  1  0  0  0  0
 17 18  1  0  0  0  0
 17 12  1  1  0  0  0
 18 11  1  0  0  0  0
 18 20  1  1  0  0  0
 19 20  1  0  0  0  0
 21  8  1  0  0  0  0
 22 21  1  0  0  0  0
 23 24  1  0  0  0  0
 24  9  1  0  0  0  0
 25 27  1  0  0  0  0
 27 26  1  0  0  0  0
M  END
>  <MODEL>
3

>  <REMARK>
 VINA RESULT:      -5.0      4.447      8.637
  Name = 
  6 active torsions:
  status: ('A' for Active; 'I' for Inactive)
    1  A    between atoms: O_2  and  C_21
    2  A    between atoms: C_4  and  O_18
    3  A    between atoms: C_9  and  C_25
    4  A    between atoms: C_16  and  C_22
    5  A    between atoms: C_17  and  C_23
    6  A    between atoms: O_18  and  C_24
                            x       y       z     vdW  Elec       q    Type
                         _______ _______ _______ _____ _____    ______ ____

>  <TORSDO>
F 6

$$$$
=
 OpenBabel11072413183D

 27 29  0  0  1  0  0  0  0  0999 V2000
  160.9420  206.7650  151.4110 C   0  0  0  0  0  0  0  0  0  0  0  0
  161.4120  207.2380  154.1970 C   0  0  0  0  0  0  0  0  0  0  0  0
  161.9020  208.9370  150.9540 C   0  0  0  0  0  3  0  0  0  0  0  0
  160.4560  205.7620  152.4140 C   0  0  0  0  0  2  0  0  0  0  0  0
  161.3430  205.8280  153.6520 C   0  0  0  0  0  2  0  0  0  0  0  0
  161.3780  208.0240  151.8780 C   0  0  0  0  0  0  0  0  0  0  0  0
  161.3650  208.3100  153.3560 C   0  0  0  0  0  0  0  0  0  0  0  0
  161.4650  207.4070  149.1210 C   0  0  0  0  0  0  0  0  0  0  0  0
  160.9710  206.4610  150.0360 C   0  0  0  0  0  0  0  0  0  0  0  0
  161.9390  208.6380  149.5930 C   0  0  0  0  0  3  0  0  0  0  0  0
  159.8200  211.4080  155.1270 C   0  0  0  0  0  0  0  0  0  0  0  0
  162.1940  210.6970  153.0010 C   0  0  0  0  0  1  0  0  0  0  0  0
  158.6780  212.0690  155.2630 C   0  0  0  0  0  2  0  0  0  0  0  0
  162.1000  209.6990  155.2790 C   0  0  0  0  0  2  0  0  0  0  0  0
  162.1400  211.0800  155.9280 C   0  0  0  0  0  2  0  0  0  0  0  0
  160.8280  211.6150  156.0740 O   0  0  0  0  0  0  0  0  0  0  0  0
  161.4040  209.7500  153.9120 C   0  0  2  0  0  0  0  0  0  0  0  0
  159.9680  210.3300  154.0720 C   0  0  2  0  0  3  0  0  0  0  0  0
  159.4490  211.9130  152.2460 N   0  0  0  0  0  1  0  0  0  0  0  0
  159.2030  210.5760  152.7610 C   0  0  0  0  0  2  0  0  0  0  0  0
  161.4860  207.1040  147.7540 O   0  0  0  0  0  0  0  0  0  0  0  0
  162.4950  206.3020  147.1570 C   0  0  0  0  0  1  0  0  0  0  0  0
  161.4630  204.1790  149.6510 O   0  0  0  0  0  1  0  0  0  0  0  0
  160.4630  205.1450  149.5340 C   0  0  0  0  0  2  0  0  0  0  0  0
  161.5810  207.4230  155.5750 O   0  0  0  0  0  0  0  0  0  0  0  0
  159.2550  207.3280  156.1360 C   0  0  0  0  0  1  0  0  0  0  0  0
  160.6610  206.9300  156.5360 C   0  0  0  0  0  2  0  0  0  0  0  0
  1  6  1  0  0  0  0
  1  4  1  0  0  0  0
  2 25  1  0  0  0  0
  3  6  2  0  0  0  0
  4  5  1  0  0  0  0
  5  2  1  0  0  0  0
  6  7  1  0  0  0  0
  7 17  1  0  0  0  0
  7  2  2  0  0  0  0
  8 10  2  0  0  0  0
  8  9  1  0  0  0  0
  9  1  2  0  0  0  0
 10  3  1  0  0  0  0
 11 13  2  0  0  0  0
 11 16  1  0  0  0  0
 14 15  1  0  0  0  0
 15 16  1  0  0  0  0
 17 12  1  6  0  0  0
 17 18  1  0  0  0  0
 17 14  1  0  0  0  0
 18 20  1  6  0  0  0
 18 11  1  0  0  0  0
 19 20  1  0  0  0  0
 21  8  1  0  0  0  0
 22 21  1  0  0  0  0
 24 23  1  0  0  0  0
 24  9  1  0  0  0  0
 25 27  1  0  0  0  0
 26 27  1  0  0  0  0
M  END
>  <MODEL>
4

>  <REMARK>
 VINA RESULT:      -5.0      2.923      7.697
  Name = 
  6 active torsions:
  status: ('A' for Active; 'I' for Inactive)
    1  A    between atoms: O_2  and  C_21
    2  A    between atoms: C_4  and  O_18
    3  A    between atoms: C_9  and  C_25
    4  A    between atoms: C_16  and  C_22
    5  A    between atoms: C_17  and  C_23
    6  A    between atoms: O_18  and  C_24
                            x       y       z     vdW  Elec       q    Type
                         _______ _______ _______ _____ _____    ______ ____

>  <TORSDO>
F 6

$$$$
=
 OpenBabel11072413183D

 27 29  0  0  1  0  0  0  0  0999 V2000
  160.8700  208.4170  153.3360 C   0  0  0  0  0  0  0  0  0  0  0  0
  159.9430  210.2700  155.3130 C   0  0  0  0  0  0  0  0  0  0  0  0
  160.8000  210.2160  151.7210 C   0  0  0  0  0  3  0  0  0  0  0  0
  160.5610  207.9190  154.7150 C   0  0  0  0  0  2  0  0  0  0  0  0
  160.7550  209.0570  155.7100 C   0  0  0  0  0  2  0  0  0  0  0  0
  160.4500  209.7180  152.9820 C   0  0  0  0  0  0  0  0  0  0  0  0
  159.7320  210.5660  153.9990 C   0  0  0  0  0  0  0  0  0  0  0  0
  161.8760  208.1200  151.1380 C   0  0  0  0  0  0  0  0  0  0  0  0
  161.5680  207.6140  152.4130 C   0  0  0  0  0  0  0  0  0  0  0  0
  161.4970  209.4270  150.8070 C   0  0  0  0  0  3  0  0  0  0  0  0
  157.1180  213.3670  154.6560 C   0  0  0  0  0  0  0  0  0  0  0  0
  158.3500  211.6660  152.1570 C   0  0  0  0  0  1  0  0  0  0  0  0
  155.9990  213.6130  155.3260 C   0  0  0  0  0  2  0  0  0  0  0  0
  159.7750  213.0270  153.6760 C   0  0  0  0  0  2  0  0  0  0  0  0
  158.9950  214.2940  153.3350 C   0  0  0  0  0  2  0  0  0  0  0  0
  157.8720  214.4510  154.1970 O   0  0  0  0  0  0  0  0  0  0  0  0
  158.8770  211.7850  153.5920 C   0  0  2  0  0  0  0  0  0  0  0  0
  157.6530  211.9550  154.5380 C   0  0  2  0  0  3  0  0  0  0  0  0
  156.0770  210.4970  155.7640 N   0  0  0  0  0  1  0  0  0  0  0  0
  156.5890  210.8470  154.4490 C   0  0  0  0  0  2  0  0  0  0  0  0
  162.5630  207.3160  150.2210 O   0  0  0  0  0  0  0  0  0  0  0  0
  162.4050  207.4420  148.8140 C   0  0  0  0  0  1  0  0  0  0  0  0
  160.9990  205.3190  152.3280 O   0  0  0  0  0  1  0  0  0  0  0  0
  161.9710  206.2160  152.7700 C   0  0  0  0  0  2  0  0  0  0  0  0
  159.4570  211.1160  156.3180 O   0  0  0  0  0  0  0  0  0  0  0  0
  160.0230  213.2470  157.2530 C   0  0  0  0  0  1  0  0  0  0  0  0
  160.3020  211.7580  157.2610 C   0  0  0  0  0  2  0  0  0  0  0  0
  1  4  1  0  0  0  0
  2  5  1  0  0  0  0
  2 25  1  0  0  0  0
  3  6  2  0  0  0  0
  4  5  1  0  0  0  0
  6  1  1  0  0  0  0
  6  7  1  0  0  0  0
  7  2  2  0  0  0  0
  8  9  1  0  0  0  0
  9 24  1  0  0  0  0
  9  1  2  0  0  0  0
 10  8  2  0  0  0  0
 10  3  1  0  0  0  0
 11 13  2  0  0  0  0
 15 14  1  0  0  0  0
 15 16  1  0  0  0  0
 16 11  1  0  0  0  0
 17 12  1  6  0  0  0
 17 14  1  0  0  0  0
 17  7  1  0  0  0  0
 17 18  1  0  0  0  0
 18 20  1  6  0  0  0
 18 11  1  0  0  0  0
 20 19  1  0  0  0  0
 21  8  1  0  0  0  0
 22 21  1  0  0  0  0
 23 24  1  0  0  0  0
 25 27  1  0  0  0  0
 26 27  1  0  0  0  0
M  END
>  <MODEL>
5

>  <REMARK>
 VINA RESULT:      -4.9      4.324      9.029
  Name = 
  6 active torsions:
  status: ('A' for Active; 'I' for Inactive)
    1  A    between atoms: O_2  and  C_21
    2  A    between atoms: C_4  and  O_18
    3  A    between atoms: C_9  and  C_25
    4  A    between atoms: C_16  and  C_22
    5  A    between atoms: C_17  and  C_23
    6  A    between atoms: O_18  and  C_24
                            x       y       z     vdW  Elec       q    Type
                         _______ _______ _______ _____ _____    ______ ____

>  <TORSDO>
F 6

$$$$
=
 OpenBabel11072413183D

 27 29  0  0  1  0  0  0  0  0999 V2000
  161.6470  206.1100  150.8050 C   0  0  0  0  0  0  0  0  0  0  0  0
  160.6050  203.7750  149.5140 C   0  0  0  0  0  0  0  0  0  0  0  0
  161.5540  207.2430  148.6700 C   0  0  0  0  0  3  0  0  0  0  0  0
  161.5140  204.8400  151.5900 C   0  0  0  0  0  2  0  0  0  0  0  0
  160.3880  204.0040  150.9940 C   0  0  0  0  0  2  0  0  0  0  0  0
  161.5040  206.0500  149.4010 C   0  0  0  0  0  0  0  0  0  0  0  0
  161.2020  204.7290  148.7450 C   0  0  0  0  0  0  0  0  0  0  0  0
  161.9860  208.5180  150.6890 C   0  0  0  0  0  0  0  0  0  0  0  0
  161.9020  207.3380  151.4470 C   0  0  0  0  0  0  0  0  0  0  0  0
  161.8000  208.4610  149.3020 C   0  0  0  0  0  3  0  0  0  0  0  0
  160.6770  202.8520  145.3800 C   0  0  0  0  0  0  0  0  0  0  0  0
  162.9220  204.7050  146.8590 C   0  0  0  0  0  1  0  0  0  0  0  0
  160.4560  201.6400  144.8860 C   0  0  0  0  0  2  0  0  0  0  0  0
  160.5950  205.4910  146.4610 C   0  0  0  0  0  2  0  0  0  0  0  0
  160.7430  205.2900  144.9550 C   0  0  0  0  0  2  0  0  0  0  0  0
  160.3920  203.9620  144.5790 O   0  0  0  0  0  0  0  0  0  0  0  0
  161.4530  204.4860  147.2400 C   0  0  2  0  0  0  0  0  0  0  0  0
  161.0660  203.0340  146.8330 C   0  0  2  0  0  3  0  0  0  0  0  0
  161.5250  200.6090  146.9690 N   0  0  0  0  0  1  0  0  0  0  0  0
  161.9460  201.9220  147.4290 C   0  0  0  0  0  2  0  0  0  0  0  0
  162.2470  209.7360  151.3310 O   0  0  0  0  0  0  0  0  0  0  0  0
  161.2210  210.6370  151.7210 C   0  0  0  0  0  1  0  0  0  0  0  0
  160.8760  207.6050  153.5630 O   0  0  0  0  0  1  0  0  0  0  0  0
  162.1020  207.3960  152.9300 C   0  0  0  0  0  2  0  0  0  0  0  0
  160.1330  202.5900  148.9360 O   0  0  0  0  0  0  0  0  0  0  0  0
  160.8320  200.8990  150.4810 C   0  0  0  0  0  1  0  0  0  0  0  0
  159.6720  201.4890  149.7050 C   0  0  0  0  0  2  0  0  0  0  0  0
  1  9  1  0  0  0  0
  1  4  1  0  0  0  0
  2  5  1  0  0  0  0
  3 10  2  0  0  0  0
  3  6  1  0  0  0  0
  5  4  1  0  0  0  0
  6  1  2  0  0  0  0
  7  6  1  0  0  0  0
  7  2  2  0  0  0  0
  8 21  1  0  0  0  0
  8  9  2  0  0  0  0
  9 24  1  0  0  0  0
 10  8  1  0  0  0  0
 11 18  1  0  0  0  0
 13 11  2  0  0  0  0
 14 17  1  0  0  0  0
 15 14  1  0  0  0  0
 16 15  1  0  0  0  0
 16 11  1  0  0  0  0
 17 12  1  6  0  0  0
 17  7  1  0  0  0  0
 18 17  1  0  0  0  0
 18 20  1  6  0  0  0
 19 20  1  0  0  0  0
 21 22  1  0  0  0  0
 24 23  1  0  0  0  0
 25  2  1  0  0  0  0
 25 27  1  0  0  0  0
 27 26  1  0  0  0  0
M  END
>  <MODEL>
6

>  <REMARK>
 VINA RESULT:      -4.9      1.591      1.848
  Name = 
  6 active torsions:
  status: ('A' for Active; 'I' for Inactive)
    1  A    between atoms: O_2  and  C_21
    2  A    between atoms: C_4  and  O_18
    3  A    between atoms: C_9  and  C_25
    4  A    between atoms: C_16  and  C_22
    5  A    between atoms: C_17  and  C_23
    6  A    between atoms: O_18  and  C_24
                            x       y       z     vdW  Elec       q    Type
                         _______ _______ _______ _____ _____    ______ ____

>  <TORSDO>
F 6

$$$$
=
 OpenBabel11072413183D

 27 29  0  0  1  0  0  0  0  0999 V2000
  161.7940  206.6080  149.2140 C   0  0  0  0  0  0  0  0  0  0  0  0
  161.8270  209.4140  149.7910 C   0  0  0  0  0  0  0  0  0  0  0  0
  160.6080  206.2680  151.2940 C   0  0  0  0  0  3  0  0  0  0  0  0
  162.5330  207.5330  148.2960 C   0  0  0  0  0  2  0  0  0  0  0  0
  161.8950  208.9160  148.3630 C   0  0  0  0  0  2  0  0  0  0  0  0
  161.3630  207.1050  150.4630 C   0  0  0  0  0  0  0  0  0  0  0  0
  161.6350  208.5420  150.8220 C   0  0  0  0  0  0  0  0  0  0  0  0
  160.8010  204.4410  149.7090 C   0  0  0  0  0  0  0  0  0  0  0  0
  161.5270  205.2760  148.8430 C   0  0  0  0  0  0  0  0  0  0  0  0
  160.3350  204.9510  150.9280 C   0  0  0  0  0  3  0  0  0  0  0  0
  159.8300  209.7400  154.0510 C   0  0  0  0  0  0  0  0  0  0  0  0
  162.7320  210.0290  152.5820 C   0  0  0  0  0  1  0  0  0  0  0  0
  158.7720  210.4280  154.4590 C   0  0  0  0  0  2  0  0  0  0  0  0
  161.7600  207.8210  153.1940 C   0  0  0  0  0  2  0  0  0  0  0  0
  161.6840  208.2190  154.6660 C   0  0  0  0  0  2  0  0  0  0  0  0
  160.4540  208.8760  154.9560 O   0  0  0  0  0  0  0  0  0  0  0  0
  161.5960  209.0440  152.2810 C   0  0  2  0  0  0  0  0  0  0  0  0
  160.2490  209.7580  152.5950 C   0  0  2  0  0  3  0  0  0  0  0  0
  160.2340  212.2270  152.7300 N   0  0  0  0  0  1  0  0  0  0  0  0
  160.0170  211.0870  151.8540 C   0  0  0  0  0  2  0  0  0  0  0  0
  160.5440  203.1140  149.3390 O   0  0  0  0  0  0  0  0  0  0  0  0
  160.7520  202.0150  150.2150 C   0  0  0  0  0  1  0  0  0  0  0  0
  161.0830  204.9680  146.5390 O   0  0  0  0  0  1  0  0  0  0  0  0
  162.0270  204.7330  147.5390 C   0  0  0  0  0  2  0  0  0  0  0  0
  161.9090  210.7910  150.0310 O   0  0  0  0  0  0  0  0  0  0  0  0
  161.1810  212.7620  148.8820 C   0  0  0  0  0  1  0  0  0  0  0  0
  162.2770  211.7270  149.0300 C   0  0  0  0  0  2  0  0  0  0  0  0
  1  6  1  0  0  0  0
  2 25  1  0  0  0  0
  2  7  2  0  0  0  0
  4  5  1  0  0  0  0
  4  1  1  0  0  0  0
  5  2  1  0  0  0  0
  6  7  1  0  0  0  0
  6  3  2  0  0  0  0
  7 17  1  0  0  0  0
  8 10  2  0  0  0  0
  9  1  2  0  0  0  0
  9  8  1  0  0  0  0
 10  3  1  0  0  0  0
 11 13  2  0  0  0  0
 11 16  1  0  0  0  0
 14 15  1  0  0  0  0
 15 16  1  0  0  0  0
 17 12  1  1  0  0  0
 17 18  1  0  0  0  0
 17 14  1  0  0  0  0
 18 20  1  1  0  0  0
 18 11  1  0  0  0  0
 20 19  1  0  0  0  0
 21  8  1  0  0  0  0
 21 22  1  0  0  0  0
 23 24  1  0  0  0  0
 24  9  1  0  0  0  0
 26 27  1  0  0  0  0
 27 25  1  0  0  0  0
M  END
>  <MODEL>
7

>  <REMARK>
 VINA RESULT:      -4.8      2.813      7.549
  Name = 
  6 active torsions:
  status: ('A' for Active; 'I' for Inactive)
    1  A    between atoms: O_2  and  C_21
    2  A    between atoms: C_4  and  O_18
    3  A    between atoms: C_9  and  C_25
    4  A    between atoms: C_16  and  C_22
    5  A    between atoms: C_17  and  C_23
    6  A    between atoms: O_18  and  C_24
                            x       y       z     vdW  Elec       q    Type
                         _______ _______ _______ _____ _____    ______ ____

>  <TORSDO>
F 6

$$$$
=
 OpenBabel11072413183D

 27 29  0  0  1  0  0  0  0  0999 V2000
  161.1750  206.1700  149.8440 C   0  0  0  0  0  0  0  0  0  0  0  0
  161.7590  204.6340  147.4980 C   0  0  0  0  0  0  0  0  0  0  0  0
  161.2830  204.1220  151.1250 C   0  0  0  0  0  3  0  0  0  0  0  0
  161.1720  206.8490  148.5070 C   0  0  0  0  0  2  0  0  0  0  0  0
  162.1140  206.1030  147.5690 C   0  0  0  0  0  2  0  0  0  0  0  0
  161.2060  204.7590  149.8800 C   0  0  0  0  0  0  0  0  0  0  0  0
  161.2580  203.9870  148.5890 C   0  0  0  0  0  0  0  0  0  0  0  0
  161.1950  206.2560  152.2770 C   0  0  0  0  0  0  0  0  0  0  0  0
  161.1550  206.9170  151.0380 C   0  0  0  0  0  0  0  0  0  0  0  0
  161.2710  204.8570  152.3090 C   0  0  0  0  0  3  0  0  0  0  0  0
  161.0390  200.5270  146.8280 C   0  0  0  0  0  0  0  0  0  0  0  0
  159.5020  202.2240  149.1560 C   0  0  0  0  0  1  0  0  0  0  0  0
  160.8760  199.9730  145.6330 C   0  0  0  0  0  2  0  0  0  0  0  0
  161.9320  201.6970  149.2720 C   0  0  0  0  0  2  0  0  0  0  0  0
  161.6490  200.1980  149.2050 C   0  0  0  0  0  2  0  0  0  0  0  0
  161.5850  199.7500  147.8550 O   0  0  0  0  0  0  0  0  0  0  0  0
  160.8660  202.4950  148.5100 C   0  0  2  0  0  0  0  0  0  0  0  0
  160.7990  202.0090  147.0330 C   0  0  2  0  0  3  0  0  0  0  0  0
  159.7520  202.1840  144.8000 N   0  0  0  0  0  1  0  0  0  0  0  0
  159.6710  202.6220  146.1840 C   0  0  0  0  0  2  0  0  0  0  0  0
  161.1670  207.0020  153.4620 O   0  0  0  0  0  0  0  0  0  0  0  0
  160.4670  206.5780  154.6240 C   0  0  0  0  0  1  0  0  0  0  0  0
  162.3580  208.9540  150.9930 O   0  0  0  0  0  1  0  0  0  0  0  0
  161.0730  208.4120  151.0010 C   0  0  0  0  0  2  0  0  0  0  0  0
  162.0040  203.9350  146.3090 O   0  0  0  0  0  0  0  0  0  0  0  0
  161.4980  205.2070  144.3440 C   0  0  0  0  0  1  0  0  0  0  0  0
  162.5840  204.5430  145.1650 C   0  0  0  0  0  2  0  0  0  0  0  0
  1  6  2  0  0  0  0
  1  9  1  0  0  0  0
  2  5  1  0  0  0  0
  2  7  2  0  0  0  0
  3 10  2  0  0  0  0
  4  1  1  0  0  0  0
  5  4  1  0  0  0  0
  6  3  1  0  0  0  0
  7  6  1  0  0  0  0
  8 10  1  0  0  0  0
  8 21  1  0  0  0  0
  9  8  2  0  0  0  0
 11 18  1  0  0  0  0
 11 16  1  0  0  0  0
 13 11  2  0  0  0  0
 15 14  1  0  0  0  0
 16 15  1  0  0  0  0
 17  7  1  0  0  0  0
 17 12  1  1  0  0  0
 17 14  1  0  0  0  0
 18 20  1  1  0  0  0
 18 17  1  0  0  0  0
 19 20  1  0  0  0  0
 21 22  1  0  0  0  0
 23 24  1  0  0  0  0
 24  9  1  0  0  0  0
 25  2  1  0  0  0  0
 26 27  1  0  0  0  0
 27 25  1  0  0  0  0
M  END
>  <MODEL>
8

>  <REMARK>
 VINA RESULT:      -4.6      1.898      4.181
  Name = 
  6 active torsions:
  status: ('A' for Active; 'I' for Inactive)
    1  A    between atoms: O_2  and  C_21
    2  A    between atoms: C_4  and  O_18
    3  A    between atoms: C_9  and  C_25
    4  A    between atoms: C_16  and  C_22
    5  A    between atoms: C_17  and  C_23
    6  A    between atoms: O_18  and  C_24
                            x       y       z     vdW  Elec       q    Type
                         _______ _______ _______ _____ _____    ______ ____

>  <TORSDO>
F 6

$$$$
=
 OpenBabel11072413183D

 27 29  0  0  1  0  0  0  0  0999 V2000
  161.6910  207.0580  150.2480 C   0  0  0  0  0  0  0  0  0  0  0  0
  160.8350  204.4410  149.4580 C   0  0  0  0  0  0  0  0  0  0  0  0
  161.7300  207.6720  147.9100 C   0  0  0  0  0  3  0  0  0  0  0  0
  161.5390  205.9930  151.2920 C   0  0  0  0  0  2  0  0  0  0  0  0
  160.4930  204.9870  150.8270 C   0  0  0  0  0  2  0  0  0  0  0  0
  161.6630  206.6740  148.8900 C   0  0  0  0  0  0  0  0  0  0  0  0
  161.4590  205.2250  148.5340 C   0  0  0  0  0  0  0  0  0  0  0  0
  161.9560  209.3920  149.6070 C   0  0  0  0  0  0  0  0  0  0  0  0
  161.8520  208.4100  150.6080 C   0  0  0  0  0  0  0  0  0  0  0  0
  161.8830  209.0130  148.2610 C   0  0  0  0  0  3  0  0  0  0  0  0
  161.9550  205.4740  144.6850 C   0  0  0  0  0  0  0  0  0  0  0  0
  161.3680  203.2130  146.9670 C   0  0  0  0  0  1  0  0  0  0  0  0
  161.4460  206.0500  143.6040 C   0  0  0  0  0  2  0  0  0  0  0  0
  163.3680  204.6930  147.0370 C   0  0  0  0  0  2  0  0  0  0  0  0
  163.8320  204.1960  145.6700 C   0  0  0  0  0  2  0  0  0  0  0  0
  163.2570  204.9700  144.6220 O   0  0  0  0  0  0  0  0  0  0  0  0
  161.8370  204.6620  147.1470 C   0  0  2  0  0  0  0  0  0  0  0  0
  161.2100  205.5130  146.0040 C   0  0  2  0  0  3  0  0  0  0  0  0
  159.2480  204.5220  144.8720 N   0  0  0  0  0  1  0  0  0  0  0  0
  159.6760  205.4550  145.9020 C   0  0  0  0  0  2  0  0  0  0  0  0
  162.1240  210.7340  149.9690 O   0  0  0  0  0  0  0  0  0  0  0  0
  162.0670  211.7990  149.0300 C   0  0  0  0  0  1  0  0  0  0  0  0
  160.6590  209.1460  152.5140 O   0  0  0  0  0  1  0  0  0  0  0  0
  161.9310  208.8120  152.0480 C   0  0  0  0  0  2  0  0  0  0  0  0
  160.4510  203.1330  149.1360 O   0  0  0  0  0  0  0  0  0  0  0  0
  161.2060  200.9000  149.5530 C   0  0  0  0  0  1  0  0  0  0  0  0
  160.4250  202.0820  150.0890 C   0  0  0  0  0  2  0  0  0  0  0  0
  1  9  1  0  0  0  0
  1  4  1  0  0  0  0
  2  5  1  0  0  0  0
  3 10  2  0  0  0  0
  3  6  1  0  0  0  0
  5  4  1  0  0  0  0
  6  1  2  0  0  0  0
  7  6  1  0  0  0  0
  7  2  2  0  0  0  0
  8 21  1  0  0  0  0
  8  9  2  0  0  0  0
  9 24  1  0  0  0  0
 10  8  1  0  0  0  0
 11 18  1  0  0  0  0
 13 11  2  0  0  0  0
 14 17  1  0  0  0  0
 15 14  1  0  0  0  0
 16 11  1  0  0  0  0
 16 15  1  0  0  0  0
 17 12  1  6  0  0  0
 17  7  1  0  0  0  0
 18 20  1  6  0  0  0
 18 17  1  0  0  0  0
 19 20  1  0  0  0  0
 22 21  1  0  0  0  0
 24 23  1  0  0  0  0
 25  2  1  0  0  0  0
 25 27  1  0  0  0  0
 26 27  1  0  0  0  0
M  END
>  <MODEL>
9

>  <REMARK>
 VINA RESULT:      -4.6      1.960      2.906
  Name = 
  6 active torsions:
  status: ('A' for Active; 'I' for Inactive)
    1  A    between atoms: O_2  and  C_21
    2  A    between atoms: C_4  and  O_18
    3  A    between atoms: C_9  and  C_25
    4  A    between atoms: C_16  and  C_22
    5  A    between atoms: C_17  and  C_23
    6  A    between atoms: O_18  and  C_24
                            x       y       z     vdW  Elec       q    Type
                         _______ _______ _______ _____ _____    ______ ____

>  <TORSDO>
F 6

$$$$
