=
 OpenBabel11072410203D

 33 37  0  0  1  0  0  0  0  0999 V2000
  160.9300  209.9080  153.9430 C   0  0  1  0  0  3  0  0  0  0  0  0
  156.6310  213.8110  154.2000 C   0  0  0  0  0  3  0  0  0  0  0  0
  163.2590  210.7730  155.4120 Cl  0  0  0  0  0  0  0  0  0  0  0  0
  161.6520  206.8110  151.1570 O   0  0  0  0  0  0  0  0  0  0  0  0
  157.4230  213.8900  153.0360 C   0  0  0  0  0  3  0  0  0  0  0  0
  158.7300  212.0580  153.8680 C   0  0  0  0  0  3  0  0  0  0  0  0
  159.3020  213.5740  150.5660 N   0  0  0  0  0  0  0  0  0  0  0  0
  159.4820  210.0630  155.5720 N   0  0  1  0  0  0  0  0  0  0  0  0
  161.9900  211.0580  150.1760 C   0  0  0  0  0  2  0  0  0  0  0  0
  161.1960  207.4250  153.5410 C   0  0  0  0  0  2  0  0  0  0  0  0
  156.1010  212.7540  156.2810 F   0  0  0  0  0  0  0  0  0  0  0  0
  160.2960  213.0140  149.8340 C   0  0  0  0  0  0  0  0  0  0  0  0
  162.4870  210.2930  151.4160 C   0  0  0  0  0  2  0  0  0  0  0  0
  157.9650  211.9400  155.0110 C   0  0  0  0  0  0  0  0  0  0  0  0
  158.2550  210.7890  155.9480 C   0  0  0  0  0  2  0  0  0  0  0  0
  160.7260  205.2550  152.6030 N   0  0  0  0  0  2  0  0  0  0  0  0
  156.8950  212.8340  155.1840 C   0  0  0  0  0  0  0  0  0  0  0  0
  161.7040  208.8340  153.1480 C   0  0  1  0  0  3  0  0  0  0  0  0
  160.8890  211.9960  150.5560 C   0  0  0  0  0  0  0  0  0  0  0  0
  162.3470  208.0320  150.9850 C   0  0  0  0  0  2  0  0  0  0  0  0
  159.6190  209.5060  154.3290 O   0  0  0  0  0  0  0  0  0  0  0  0
  160.2890  211.9450  151.7020 O   0  0  0  0  0  0  0  0  0  0  0  0
  161.1940  206.4420  152.4140 C   0  0  0  0  0  0  0  0  0  0  0  0
  159.3580  212.8650  151.7160 C   0  0  0  0  0  0  0  0  0  0  0  0
  160.7030  210.4380  156.1300 N   0  0  0  0  0  2  0  0  0  0  0  0
  161.6590  209.1130  151.6900 N   0  0  2  0  0  0  0  0  0  0  0  0
  158.4870  212.9940  152.8840 C   0  0  0  0  0  0  0  0  0  0  0  0
  161.5860  210.2880  155.2190 C   0  0  1  0  0  3  0  0  0  0  0  0
  160.6080  213.3920  148.4280 C   0  0  0  0  0  2  0  0  0  0  0  0
  161.5470  214.4230  148.4180 O   0  0  0  0  0  0  0  0  0  0  0  0
  162.6660  213.8780  147.7850 C   0  0  0  0  0  2  0  0  0  0  0  0
  162.6760  213.4420  145.4410 O   0  0  0  0  0  1  0  0  0  0  0  0
  162.2240  212.9530  146.6670 C   0  0  0  0  0  2  0  0  0  0  0  0
  1 21  1  1  0  0  0
  1 28  1  0  0  0  0
  2 17  1  0  0  0  0
  4 23  1  0  0  0  0
  5  2  2  0  0  0  0
  6 14  1  0  0  0  0
  7 24  2  0  0  0  0
  8 15  1  6  0  0  0
  8 25  1  0  0  0  0
  9 19  1  0  0  0  0
  9 13  1  0  0  0  0
 12 19  2  0  0  0  0
 12  7  1  0  0  0  0
 13 26  1  0  0  0  0
 14 17  2  0  0  0  0
 14 15  1  0  0  0  0
 17 11  1  0  0  0  0
 18 10  1  6  0  0  0
 18  1  1  0  0  0  0
 19 22  1  0  0  0  0
 20  4  1  0  0  0  0
 21  8  1  0  0  0  0
 22 24  1  0  0  0  0
 23 16  2  0  0  0  0
 23 10  1  0  0  0  0
 24 27  1  0  0  0  0
 26 20  1  6  0  0  0
 26 18  1  0  0  0  0
 27  5  1  0  0  0  0
 27  6  2  0  0  0  0
 28  3  1  6  0  0  0
 28 25  1  0  0  0  0
 29 12  1  0  0  0  0
 30 29  1  0  0  0  0
 31 30  1  0  0  0  0
 32 33  1  0  0  0  0
 33 31  1  0  0  0  0
M  END
>  <MODEL>
1

>  <REMARK>
 VINA RESULT:      -5.3      0.000      0.000
  Name = 
  4 active torsions:
  status: ('A' for Active; 'I' for Inactive)
    1  A    between atoms: C_8  and  C_17
    2  A    between atoms: C_8  and  O_19
    3  A    between atoms: C_14  and  C_33
    4  A    between atoms: O_19  and  C_33
                            x       y       z     vdW  Elec       q    Type
                         _______ _______ _______ _____ _____    ______ ____

>  <TORSDO>
F 4

$$$$
=
 OpenBabel11072410203D

 33 37  0  0  1  0  0  0  0  0999 V2000
  160.9320  209.9030  153.7640 C   0  0  1  0  0  3  0  0  0  0  0  0
  156.6530  213.8270  154.0520 C   0  0  0  0  0  3  0  0  0  0  0  0
  163.2590  210.7370  155.2540 Cl  0  0  0  0  0  0  0  0  0  0  0  0
  161.6480  206.8370  150.9430 O   0  0  0  0  0  0  0  0  0  0  0  0
  157.4500  213.9150  152.8930 C   0  0  0  0  0  3  0  0  0  0  0  0
  158.7440  212.0660  153.7070 C   0  0  0  0  0  3  0  0  0  0  0  0
  159.3380  213.6200  150.4270 N   0  0  0  0  0  0  0  0  0  0  0  0
  159.4770  210.0460  155.3890 N   0  0  1  0  0  0  0  0  0  0  0  0
  162.0140  211.0940  150.0170 C   0  0  0  0  0  2  0  0  0  0  0  0
  161.1850  207.4240  153.3330 C   0  0  0  0  0  2  0  0  0  0  0  0
  156.1090  212.7470  156.1180 F   0  0  0  0  0  0  0  0  0  0  0  0
  160.3320  213.0630  149.6920 C   0  0  0  0  0  0  0  0  0  0  0  0
  162.5010  210.3100  151.2490 C   0  0  0  0  0  2  0  0  0  0  0  0
  157.9730  211.9390  154.8460 C   0  0  0  0  0  0  0  0  0  0  0  0
  158.2530  210.7750  155.7690 C   0  0  0  0  0  2  0  0  0  0  0  0
  160.7080  205.2680  152.3660 N   0  0  0  0  0  2  0  0  0  0  0  0
  156.9070  212.8360  155.0260 C   0  0  0  0  0  0  0  0  0  0  0  0
  161.7030  208.8350  152.9590 C   0  0  1  0  0  3  0  0  0  0  0  0
  160.9170  212.0330  150.4040 C   0  0  0  0  0  0  0  0  0  0  0  0
  162.3500  208.0560  150.7890 C   0  0  0  0  0  2  0  0  0  0  0  0
  159.6170  209.5040  154.1400 O   0  0  0  0  0  0  0  0  0  0  0  0
  160.3120  211.9710  151.5460 O   0  0  0  0  0  0  0  0  0  0  0  0
  161.1830  206.4550  152.1940 C   0  0  0  0  0  0  0  0  0  0  0  0
  159.3850  212.8960  151.5680 C   0  0  0  0  0  0  0  0  0  0  0  0
  160.6980  210.4080  155.9570 N   0  0  0  0  0  2  0  0  0  0  0  0
  161.6650  209.1320  151.5050 N   0  0  2  0  0  0  0  0  0  0  0  0
  158.5110  213.0160  152.7340 C   0  0  0  0  0  0  0  0  0  0  0  0
  161.5840  210.2630  155.0480 C   0  0  1  0  0  3  0  0  0  0  0  0
  160.6520  213.4570  148.2920 C   0  0  0  0  0  2  0  0  0  0  0  0
  160.0320  212.5770  147.4050 O   0  0  0  0  0  0  0  0  0  0  0  0
  159.0840  213.3550  146.7380 C   0  0  0  0  0  2  0  0  0  0  0  0
  157.1690  212.6650  147.9800 O   0  0  0  0  0  1  0  0  0  0  0  0
  157.7510  212.6310  146.7130 C   0  0  0  0  0  2  0  0  0  0  0  0
  1 21  1  1  0  0  0
  1 28  1  0  0  0  0
  2 17  1  0  0  0  0
  4 23  1  0  0  0  0
  5  2  2  0  0  0  0
  6 14  1  0  0  0  0
  7 24  2  0  0  0  0
  8 15  1  6  0  0  0
  8 25  1  0  0  0  0
  9 19  1  0  0  0  0
  9 13  1  0  0  0  0
 12 19  2  0  0  0  0
 12  7  1  0  0  0  0
 13 26  1  0  0  0  0
 14 17  2  0  0  0  0
 14 15  1  0  0  0  0
 17 11  1  0  0  0  0
 18 10  1  6  0  0  0
 18  1  1  0  0  0  0
 19 22  1  0  0  0  0
 20  4  1  0  0  0  0
 21  8  1  0  0  0  0
 22 24  1  0  0  0  0
 23 16  2  0  0  0  0
 23 10  1  0  0  0  0
 24 27  1  0  0  0  0
 26 20  1  6  0  0  0
 26 18  1  0  0  0  0
 27  5  1  0  0  0  0
 27  6  2  0  0  0  0
 28  3  1  6  0  0  0
 28 25  1  0  0  0  0
 29 12  1  0  0  0  0
 30 29  1  0  0  0  0
 31 30  1  0  0  0  0
 33 31  1  0  0  0  0
 33 32  1  0  0  0  0
M  END
>  <MODEL>
2

>  <REMARK>
 VINA RESULT:      -5.3      1.193      1.550
  Name = 
  4 active torsions:
  status: ('A' for Active; 'I' for Inactive)
    1  A    between atoms: C_8  and  C_17
    2  A    between atoms: C_8  and  O_19
    3  A    between atoms: C_14  and  C_33
    4  A    between atoms: O_19  and  C_33
                            x       y       z     vdW  Elec       q    Type
                         _______ _______ _______ _____ _____    ______ ____

>  <TORSDO>
F 4

$$$$
=
 OpenBabel11072410203D

 33 37  0  0  1  0  0  0  0  0999 V2000
  161.1380  210.1450  152.3520 C   0  0  1  0  0  3  0  0  0  0  0  0
  157.1880  214.3540  153.0320 C   0  0  0  0  0  3  0  0  0  0  0  0
  163.5710  210.7070  153.7990 Cl  0  0  0  0  0  0  0  0  0  0  0  0
  161.5190  207.2120  149.3310 O   0  0  0  0  0  0  0  0  0  0  0  0
  157.9510  214.4530  151.8510 C   0  0  0  0  0  3  0  0  0  0  0  0
  159.1230  212.4660  152.5060 C   0  0  0  0  0  3  0  0  0  0  0  0
  159.7260  214.1690  149.3020 N   0  0  0  0  0  0  0  0  0  0  0  0
  159.7540  210.2960  154.0370 N   0  0  1  0  0  0  0  0  0  0  0  0
  162.1830  211.4780  148.6420 C   0  0  0  0  0  2  0  0  0  0  0  0
  161.1840  207.6840  151.7670 C   0  0  0  0  0  2  0  0  0  0  0  0
  156.6310  213.1940  155.0500 F   0  0  0  0  0  0  0  0  0  0  0  0
  160.6480  213.5840  148.4980 C   0  0  0  0  0  0  0  0  0  0  0  0
  162.6490  210.5860  149.8070 C   0  0  0  0  0  2  0  0  0  0  0  0
  158.3840  212.3270  153.6630 C   0  0  0  0  0  0  0  0  0  0  0  0
  158.6030  211.0900  154.5050 C   0  0  0  0  0  2  0  0  0  0  0  0
  160.5090  205.6340  150.6940 N   0  0  0  0  0  2  0  0  0  0  0  0
  157.3970  213.2890  153.9350 C   0  0  0  0  0  0  0  0  0  0  0  0
  161.7960  209.0730  151.4570 C   0  0  1  0  0  3  0  0  0  0  0  0
  161.1750  212.4720  149.1250 C   0  0  0  0  0  0  0  0  0  0  0  0
  162.3080  208.3820  149.2220 C   0  0  0  0  0  2  0  0  0  0  0  0
  159.8090  209.8230  152.7540 O   0  0  0  0  0  0  0  0  0  0  0  0
  160.6060  212.3860  150.2840 O   0  0  0  0  0  0  0  0  0  0  0  0
  161.0680  206.7900  150.5740 C   0  0  0  0  0  0  0  0  0  0  0  0
  159.7550  213.3750  150.3950 C   0  0  0  0  0  0  0  0  0  0  0  0
  161.0180  210.5300  154.5780 N   0  0  0  0  0  2  0  0  0  0  0  0
  161.7330  209.4600  150.0250 N   0  0  2  0  0  0  0  0  0  0  0  0
  158.9320  213.4880  151.5990 C   0  0  0  0  0  0  0  0  0  0  0  0
  161.8590  210.3750  153.6290 C   0  0  1  0  0  3  0  0  0  0  0  0
  160.9510  214.0380  147.1120 C   0  0  0  0  0  2  0  0  0  0  0  0
  160.3670  213.1630  146.1950 O   0  0  0  0  0  0  0  0  0  0  0  0
  161.1340  213.3010  145.0370 C   0  0  0  0  0  2  0  0  0  0  0  0
  163.3790  213.3060  144.2330 O   0  0  0  0  0  1  0  0  0  0  0  0
  162.6080  213.3200  145.3950 C   0  0  0  0  0  2  0  0  0  0  0  0
  1 21  1  1  0  0  0
  1 28  1  0  0  0  0
  2 17  1  0  0  0  0
  4 23  1  0  0  0  0
  5  2  2  0  0  0  0
  6 14  1  0  0  0  0
  7 24  2  0  0  0  0
  8 15  1  6  0  0  0
  8 25  1  0  0  0  0
  9 19  1  0  0  0  0
  9 13  1  0  0  0  0
 12 19  2  0  0  0  0
 12  7  1  0  0  0  0
 13 26  1  0  0  0  0
 14 17  2  0  0  0  0
 14 15  1  0  0  0  0
 17 11  1  0  0  0  0
 18 10  1  6  0  0  0
 18  1  1  0  0  0  0
 19 22  1  0  0  0  0
 20  4  1  0  0  0  0
 21  8  1  0  0  0  0
 22 24  1  0  0  0  0
 23 16  2  0  0  0  0
 23 10  1  0  0  0  0
 24 27  1  0  0  0  0
 26 20  1  6  0  0  0
 26 18  1  0  0  0  0
 27  5  1  0  0  0  0
 27  6  2  0  0  0  0
 28  3  1  6  0  0  0
 28 25  1  0  0  0  0
 29 12  1  0  0  0  0
 30 29  1  0  0  0  0
 31 33  1  0  0  0  0
 31 30  1  0  0  0  0
 32 33  1  0  0  0  0
M  END
>  <MODEL>
3

>  <REMARK>
 VINA RESULT:      -5.2      1.455      1.707
  Name = 
  4 active torsions:
  status: ('A' for Active; 'I' for Inactive)
    1  A    between atoms: C_8  and  C_17
    2  A    between atoms: C_8  and  O_19
    3  A    between atoms: C_14  and  C_33
    4  A    between atoms: O_19  and  C_33
                            x       y       z     vdW  Elec       q    Type
                         _______ _______ _______ _____ _____    ______ ____

>  <TORSDO>
F 4

$$$$
=
 OpenBabel11072410203D

 33 37  0  0  1  0  0  0  0  0999 V2000
  161.1280  212.0290  148.7440 C   0  0  1  0  0  3  0  0  0  0  0  0
  161.7870  207.7290  152.5980 C   0  0  0  0  0  3  0  0  0  0  0  0
  163.4890  213.6790  148.5580 Cl  0  0  0  0  0  0  0  0  0  0  0  0
  157.6160  213.7900  147.1820 O   0  0  0  0  0  0  0  0  0  0  0  0
  161.1180  208.8640  153.0980 C   0  0  0  0  0  3  0  0  0  0  0  0
  161.3660  209.8910  150.9440 C   0  0  0  0  0  3  0  0  0  0  0  0
  159.5350  211.4830  153.7090 N   0  0  0  0  0  0  0  0  0  0  0  0
  162.0800  210.1080  148.3190 N   0  0  1  0  0  0  0  0  0  0  0  0
  158.8990  214.2520  151.3360 C   0  0  0  0  0  2  0  0  0  0  0  0
  159.7220  212.5250  146.7000 C   0  0  0  0  0  2  0  0  0  0  0  0
  162.8400  206.5710  150.7870 F   0  0  0  0  0  0  0  0  0  0  0  0
  158.9880  212.6900  153.4240 C   0  0  0  0  0  0  0  0  0  0  0  0
  159.7230  214.3320  150.0380 C   0  0  0  0  0  2  0  0  0  0  0  0
  162.0090  208.7900  150.4160 C   0  0  0  0  0  0  0  0  0  0  0  0
  162.3370  208.7950  148.9400 C   0  0  0  0  0  2  0  0  0  0  0  0
  157.7860  212.4980  145.2650 N   0  0  0  0  0  2  0  0  0  0  0  0
  162.2270  207.6860  151.2570 C   0  0  0  0  0  0  0  0  0  0  0  0
  160.2190  213.0730  148.0610 C   0  0  1  0  0  3  0  0  0  0  0  0
  159.2980  213.0470  152.1260 C   0  0  0  0  0  0  0  0  0  0  0  0
  158.2670  214.4470  148.2540 C   0  0  0  0  0  2  0  0  0  0  0  0
  160.8390  210.6840  148.3740 O   0  0  0  0  0  0  0  0  0  0  0  0
  160.0270  212.0970  151.6350 O   0  0  0  0  0  0  0  0  0  0  0  0
  158.3340  212.9490  146.3420 C   0  0  0  0  0  0  0  0  0  0  0  0
  160.1700  211.1760  152.5550 C   0  0  0  0  0  0  0  0  0  0  0  0
  163.1060  211.0490  148.2490 N   0  0  0  0  0  2  0  0  0  0  0  0
  159.1330  213.5130  148.9720 N   0  0  2  0  0  0  0  0  0  0  0  0
  160.9150  209.9560  152.2470 C   0  0  0  0  0  0  0  0  0  0  0  0
  162.5680  212.1950  148.4210 C   0  0  1  0  0  3  0  0  0  0  0  0
  158.1050  213.4440  154.3570 C   0  0  0  0  0  2  0  0  0  0  0  0
  156.7990  212.9630  154.2570 O   0  0  0  0  0  0  0  0  0  0  0  0
  156.3500  212.8780  155.5760 C   0  0  0  0  0  2  0  0  0  0  0  0
  155.6650  210.7690  154.7010 O   0  0  0  0  0  1  0  0  0  0  0  0
  155.9330  211.4530  155.8860 C   0  0  0  0  0  2  0  0  0  0  0  0
  1 21  1  6  0  0  0
  2  5  1  0  0  0  0
  4 20  1  0  0  0  0
  6 27  1  0  0  0  0
  8 21  1  0  0  0  0
  8 15  1  1  0  0  0
  9 19  1  0  0  0  0
 11 17  1  0  0  0  0
 12  7  1  0  0  0  0
 12 29  1  0  0  0  0
 13  9  1  0  0  0  0
 14  6  2  0  0  0  0
 14 17  1  0  0  0  0
 15 14  1  0  0  0  0
 16 23  2  0  0  0  0
 17  2  2  0  0  0  0
 18 10  1  6  0  0  0
 18  1  1  0  0  0  0
 18 26  1  0  0  0  0
 19 12  2  0  0  0  0
 22 19  1  0  0  0  0
 22 24  1  0  0  0  0
 23 10  1  0  0  0  0
 23  4  1  0  0  0  0
 24  7  2  0  0  0  0
 25  8  1  0  0  0  0
 25 28  1  0  0  0  0
 26 20  1  6  0  0  0
 26 13  1  0  0  0  0
 27 24  1  0  0  0  0
 27  5  2  0  0  0  0
 28  3  1  1  0  0  0
 28  1  1  0  0  0  0
 30 29  1  0  0  0  0
 30 31  1  0  0  0  0
 31 33  1  0  0  0  0
 32 33  1  0  0  0  0
M  END
>  <MODEL>
4

>  <REMARK>
 VINA RESULT:      -4.3      3.307      7.397
  Name = 
  4 active torsions:
  status: ('A' for Active; 'I' for Inactive)
    1  A    between atoms: C_8  and  C_17
    2  A    between atoms: C_8  and  O_19
    3  A    between atoms: C_14  and  C_33
    4  A    between atoms: O_19  and  C_33
                            x       y       z     vdW  Elec       q    Type
                         _______ _______ _______ _____ _____    ______ ____

>  <TORSDO>
F 4

$$$$
=
 OpenBabel11072410203D

 33 37  0  0  1  0  0  0  0  0999 V2000
  161.3080  210.2430  153.3820 C   0  0  1  0  0  3  0  0  0  0  0  0
  160.3910  213.0990  148.4040 C   0  0  0  0  0  3  0  0  0  0  0  0
  160.2120  207.5740  153.3100 Cl  0  0  0  0  0  0  0  0  0  0  0  0
  162.1440  211.7030  157.2610 O   0  0  0  0  0  0  0  0  0  0  0  0
  159.4550  213.3800  149.4190 C   0  0  0  0  0  3  0  0  0  0  0  0
  160.6300  211.8540  150.8490 C   0  0  0  0  0  3  0  0  0  0  0  0
  157.7490  213.8340  151.9920 N   0  0  0  0  0  0  0  0  0  0  0  0
  162.5710  210.0890  151.6050 N   0  0  1  0  0  0  0  0  0  0  0  0
  158.2810  212.2120  155.2770 C   0  0  0  0  0  2  0  0  0  0  0  0
  162.9250  210.3210  155.3250 C   0  0  0  0  0  2  0  0  0  0  0  0
  162.3630  211.9680  147.6550 F   0  0  0  0  0  0  0  0  0  0  0  0
  157.4030  213.6590  153.2910 C   0  0  0  0  0  0  0  0  0  0  0  0
  159.1860  210.9700  155.3630 C   0  0  0  0  0  2  0  0  0  0  0  0
  161.5750  211.5680  149.8840 C   0  0  0  0  0  0  0  0  0  0  0  0
  162.7400  210.6840  150.2660 C   0  0  0  0  0  2  0  0  0  0  0  0
  164.4050  211.2980  156.9580 N   0  0  0  0  0  2  0  0  0  0  0  0
  161.4550  212.2000  148.6350 C   0  0  0  0  0  0  0  0  0  0  0  0
  161.4310  210.2620  154.9210 C   0  0  1  0  0  3  0  0  0  0  0  0
  158.2310  212.7180  153.8710 C   0  0  0  0  0  0  0  0  0  0  0  0
  160.8060  211.3540  156.9580 C   0  0  0  0  0  2  0  0  0  0  0  0
  162.3910  210.8780  152.7090 O   0  0  0  0  0  0  0  0  0  0  0  0
  159.0490  212.3160  152.9520 O   0  0  0  0  0  0  0  0  0  0  0  0
  163.1910  211.1190  156.5620 C   0  0  0  0  0  0  0  0  0  0  0  0
  158.7750  212.9650  151.8490 C   0  0  0  0  0  0  0  0  0  0  0  0
  161.9620  208.8410  151.7320 N   0  0  0  0  0  2  0  0  0  0  0  0
  160.5980  211.3400  155.5110 N   0  0  2  0  0  0  0  0  0  0  0  0
  159.5880  212.7370  150.6550 C   0  0  0  0  0  0  0  0  0  0  0  0
  161.2720  208.8750  152.8070 C   0  0  1  0  0  3  0  0  0  0  0  0
  156.3510  214.4520  153.9850 C   0  0  0  0  0  2  0  0  0  0  0  0
  155.4620  213.5900  154.6270 O   0  0  0  0  0  0  0  0  0  0  0  0
  155.0040  214.3100  155.7310 C   0  0  0  0  0  2  0  0  0  0  0  0
  155.1790  212.1750  156.7780 O   0  0  0  0  0  1  0  0  0  0  0  0
  155.3070  213.5460  157.0060 C   0  0  0  0  0  2  0  0  0  0  0  0
  1 21  1  6  0  0  0
  1 18  1  0  0  0  0
  2 17  2  0  0  0  0
  2  5  1  0  0  0  0
  5 27  2  0  0  0  0
  7 12  1  0  0  0  0
  8 15  1  6  0  0  0
  8 25  1  0  0  0  0
  8 21  1  0  0  0  0
  9 13  1  0  0  0  0
 10 23  1  0  0  0  0
 11 17  1  0  0  0  0
 12 19  2  0  0  0  0
 12 29  1  0  0  0  0
 14 15  1  0  0  0  0
 14  6  2  0  0  0  0
 17 14  1  0  0  0  0
 18 10  1  6  0  0  0
 18 26  1  0  0  0  0
 19  9  1  0  0  0  0
 20  4  1  0  0  0  0
 22 19  1  0  0  0  0
 23 16  2  0  0  0  0
 23  4  1  0  0  0  0
 24  7  2  0  0  0  0
 24 22  1  0  0  0  0
 25 28  1  0  0  0  0
 26 13  1  1  0  0  0
 26 20  1  0  0  0  0
 27  6  1  0  0  0  0
 27 24  1  0  0  0  0
 28  3  1  6  0  0  0
 28  1  1  0  0  0  0
 29 30  1  0  0  0  0
 30 31  1  0  0  0  0
 31 33  1  0  0  0  0
 32 33  1  0  0  0  0
M  END
>  <MODEL>
5

>  <REMARK>
 VINA RESULT:      -2.6      3.117      6.552
  Name = 
  4 active torsions:
  status: ('A' for Active; 'I' for Inactive)
    1  A    between atoms: C_8  and  C_17
    2  A    between atoms: C_8  and  O_19
    3  A    between atoms: C_14  and  C_33
    4  A    between atoms: O_19  and  C_33
                            x       y       z     vdW  Elec       q    Type
                         _______ _______ _______ _____ _____    ______ ____

>  <TORSDO>
F 4

$$$$
