=
 OpenBabel11072413533D

 46 49  0  0  1  0  0  0  0  0999 V2000
  161.5730  209.3750  150.4450 C   0  0  1  0  0  3  0  0  0  0  0  0
  163.3490  210.4770  151.6330 O   0  0  0  0  0  0  0  0  0  0  0  0
  161.2370  210.8280  152.5260 N   0  0  0  0  0  2  0  0  0  0  0  0
  162.1130  210.2450  151.5590 C   0  0  0  0  0  0  0  0  0  0  0  0
  159.7830  210.7260  152.4590 C   0  0  0  0  0  2  0  0  0  0  0  0
  159.1530  211.1340  153.7850 C   0  0  0  0  0  2  0  0  0  0  0  0
  158.0010  212.1190  153.5710 C   0  0  2  0  0  3  0  0  0  0  0  0
  157.9560  214.2300  152.6540 C   0  0  0  0  0  1  0  0  0  0  0  0
  158.1180  212.8620  152.3700 O   0  0  0  0  0  0  0  0  0  0  0  0
  157.7630  212.9860  154.8040 C   0  0  0  0  0  2  0  0  0  0  0  0
  156.8520  212.3080  155.7330 C   0  0  0  0  0  0  0  0  0  0  0  0
  156.1340  211.7730  156.4690 N   0  0  0  0  0  0  0  0  0  0  0  0
  161.9270  209.8310  149.1520 O   0  0  0  0  0  0  0  0  0  0  0  0
  162.9340  211.6540  148.0580 C   0  0  1  0  0  3  0  0  0  0  0  0
  161.4550  211.8210  147.9920 N   0  0  1  0  0  0  0  0  0  0  0  0
  163.6070  212.8320  148.4070 O   0  0  0  0  0  1  0  0  0  0  0  0
  162.0990  211.2280  149.1800 C   0  0  1  0  0  3  0  0  0  0  0  0
  160.0440  214.4530  146.5660 C   0  0  0  0  0  2  0  0  0  0  0  0
  159.4830  213.1900  148.5900 C   0  0  2  0  0  3  0  0  0  0  0  0
  161.0010  213.1590  148.3850 C   0  0  2  0  0  3  0  0  0  0  0  0
  161.3320  214.1720  147.3020 C   0  0  0  0  0  2  0  0  0  0  0  0
  158.7240  212.5440  147.4380 C   0  0  0  0  0  2  0  0  0  0  0  0
  158.8990  214.0480  147.4770 C   0  0  2  0  0  3  0  0  0  0  0  0
  161.8210  207.8660  150.6380 C   0  0  1  0  0  3  0  0  0  0  0  0
  162.0830  207.5060  152.0340 N   0  0  0  0  0  2  0  0  0  0  0  0
  160.8320  207.2030  152.7210 C   0  0  0  0  0  2  0  0  0  0  0  0
  161.1300  206.5130  154.0370 C   0  0  0  0  0  2  0  0  0  0  0  0
  160.0480  207.0030  156.0960 O   0  0  0  0  0  0  0  0  0  0  0  0
  160.7910  207.4210  155.1720 C   0  0  0  0  0  0  0  0  0  0  0  0
  161.2990  208.7200  155.2340 O   0  0  0  0  0  0  0  0  0  0  0  0
  161.3100  210.1710  156.8510 C   0  0  0  0  0  1  0  0  0  0  0  0
  162.0420  209.1340  156.2710 O   0  0  0  0  0  0  0  0  0  0  0  0
  160.7060  207.0880  150.1070 N   0  0  0  0  0  2  0  0  0  0  0  0
  160.8860  205.8920  149.3450 C   0  0  0  0  0  0  0  0  0  0  0  0
  161.5450  204.8290  147.2590 C   0  0  0  0  0  0  0  0  0  0  0  0
  160.6500  204.6310  149.9070 C   0  0  0  0  0  3  0  0  0  0  0  0
  160.8650  203.4650  149.1590 C   0  0  0  0  0  0  0  0  0  0  0  0
  161.3340  205.9830  148.0250 C   0  0  0  0  0  3  0  0  0  0  0  0
  161.3120  203.5730  147.8360 C   0  0  0  0  0  3  0  0  0  0  0  0
  163.1200  204.4850  145.5190 O   0  0  0  0  0  0  0  0  0  0  0  0
  161.9880  204.9330  145.8590 C   0  0  0  0  0  0  0  0  0  0  0  0
  161.1330  205.5310  144.8820 N   0  0  0  0  0  2  0  0  0  0  0  0
  161.4960  205.5890  143.4760 C   0  0  0  0  0  1  0  0  0  0  0  0
  160.6430  202.1740  149.7420 N   0  0  0  0  0  0  0  0  0  0  0  0
  159.7170  201.4450  149.3310 O   0  0  0  0  0  0  0  0  0  0  0  0
  161.4460  201.7290  150.7680 O   0  0  0  0  0  0  0  0  0  0  0  0
  1 13  1  6  0  0  0
  1 24  1  0  0  0  0
  1  4  1  0  0  0  0
  4  2  2  0  0  0  0
  4  3  1  0  0  0  0
  5  3  1  0  0  0  0
  5  6  1  0  0  0  0
  7  6  1  1  0  0  0
  7 10  1  0  0  0  0
  9  8  1  0  0  0  0
  9  7  1  0  0  0  0
 10 11  1  0  0  0  0
 11 12  3  0  0  0  0
 14 16  1  1  0  0  0
 14 17  1  0  0  0  0
 15 14  1  0  0  0  0
 15 20  1  1  0  0  0
 15 17  1  0  0  0  0
 17 13  1  6  0  0  0
 18 21  1  0  0  0  0
 19 22  1  6  0  0  0
 20 21  1  6  0  0  0
 20 19  1  0  0  0  0
 22 23  1  0  0  0  0
 23 18  1  6  0  0  0
 23 19  1  0  0  0  0
 24 33  1  1  0  0  0
 24 25  1  0  0  0  0
 25 26  1  0  0  0  0
 26 27  1  0  0  0  0
 27 29  1  0  0  0  0
 29 30  1  0  0  0  0
 29 28  2  0  0  0  0
 30 32  1  0  0  0  0
 32 31  1  0  0  0  0
 34 36  1  0  0  0  0
 34 33  1  0  0  0  0
 35 39  2  0  0  0  0
 35 38  1  0  0  0  0
 37 44  1  0  0  0  0
 37 36  2  0  0  0  0
 38 34  2  0  0  0  0
 39 37  1  0  0  0  0
 40 41  2  0  0  0  0
 41 35  1  0  0  0  0
 42 41  1  0  0  0  0
 43 42  1  0  0  0  0
 44 46  2  0  0  0  0
 45 44  2  0  0  0  0
M  END
>  <MODEL>
1

>  <REMARK>
 VINA RESULT:      -6.2      0.000      0.000
  Name = 
  21 active torsions:
  status: ('A' for Active; 'I' for Inactive)
    1  A    between atoms: N_2  and  C_11
    2  A    between atoms: N_2  and  C_13
    3  A    between atoms: C_4  and  C_17
    4  A    between atoms: C_4  and  C_21
    5  A    between atoms: O_5  and  O_25
    6  A    between atoms: C_7  and  C_11
    7  A    between atoms: C_7  and  O_14
    8  A    between atoms: C_7  and  C_27
    9  A    between atoms: N_9  and  C_24
   10  A    between atoms: C_10  and  N_30
   11  A    between atoms: C_11  and  N_35
   12  A    between atoms: O_14  and  C_45
   13  A    between atoms: C_17  and  O_18
   14  A    between atoms: C_17  and  C_37
   15  A    between atoms: N_19  and  C_41
   16  A    between atoms: C_22  and  N_35
   17  A    between atoms: C_22  and  C_43
   18  A    between atoms: C_24  and  C_37
   19  A    between atoms: O_25  and  C_39
   20  A    between atoms: C_28  and  C_29
   21  A    between atoms: C_39  and  C_43
                            x       y       z     vdW  Elec       q    Type
                         _______ _______ _______ _____ _____    ______ ____

>  <TORSDO>
F 21

$$$$
=
 OpenBabel11072413533D

 46 49  0  0  1  0  0  0  0  0999 V2000
  161.4260  209.1400  151.9280 C   0  0  1  0  0  3  0  0  0  0  0  0
  162.9540  210.5090  153.1810 O   0  0  0  0  0  0  0  0  0  0  0  0
  160.8190  211.3930  152.9810 N   0  0  0  0  0  2  0  0  0  0  0  0
  161.7850  210.3690  152.7330 C   0  0  0  0  0  0  0  0  0  0  0  0
  159.4780  211.3900  152.4050 C   0  0  0  0  0  2  0  0  0  0  0  0
  159.1950  212.7060  151.6920 C   0  0  0  0  0  2  0  0  0  0  0  0
  158.2620  213.5940  152.5180 C   0  0  2  0  0  3  0  0  0  0  0  0
  156.4090  213.3760  153.8670 C   0  0  0  0  0  1  0  0  0  0  0  0
  157.7280  212.9380  153.6550 O   0  0  0  0  0  0  0  0  0  0  0  0
  157.2020  214.2630  151.6470 C   0  0  0  0  0  2  0  0  0  0  0  0
  157.1510  213.6240  150.3280 C   0  0  0  0  0  0  0  0  0  0  0  0
  157.1100  213.1180  149.2870 N   0  0  0  0  0  0  0  0  0  0  0  0
  160.1440  208.6200  152.2330 O   0  0  0  0  0  0  0  0  0  0  0  0
  161.5180  206.9750  153.2030 C   0  0  1  0  0  3  0  0  0  0  0  0
  161.3740  208.1010  154.1680 N   0  0  1  0  0  0  0  0  0  0  0  0
  161.3690  205.7170  153.7990 O   0  0  0  0  0  1  0  0  0  0  0  0
  160.2530  207.7030  153.2950 C   0  0  1  0  0  3  0  0  0  0  0  0
  161.6360  209.2520  157.2600 C   0  0  0  0  0  2  0  0  0  0  0  0
  159.7370  208.3400  156.0070 C   0  0  2  0  0  3  0  0  0  0  0  0
  161.0250  207.6660  155.5250 C   0  0  2  0  0  3  0  0  0  0  0  0
  162.1260  208.0410  156.5030 C   0  0  0  0  0  2  0  0  0  0  0  0
  159.7420  209.8460  155.7750 C   0  0  0  0  0  2  0  0  0  0  0  0
  160.1230  209.2910  157.1310 C   0  0  2  0  0  3  0  0  0  0  0  0
  161.6730  209.2760  150.4120 C   0  0  1  0  0  3  0  0  0  0  0  0
  162.2200  210.5830  150.0400 N   0  0  0  0  0  2  0  0  0  0  0  0
  162.0590  210.8090  148.6070 C   0  0  0  0  0  2  0  0  0  0  0  0
  162.6700  212.1440  148.2320 C   0  0  0  0  0  2  0  0  0  0  0  0
  160.4950  213.0740  148.4610 O   0  0  0  0  0  0  0  0  0  0  0  0
  161.5930  213.1030  147.8490 C   0  0  0  0  0  0  0  0  0  0  0  0
  161.7900  214.0440  146.8370 O   0  0  0  0  0  0  0  0  0  0  0  0
  162.2620  213.3280  144.8410 C   0  0  0  0  0  1  0  0  0  0  0  0
  161.2490  213.8880  145.6190 O   0  0  0  0  0  0  0  0  0  0  0  0
  162.5380  208.2010  149.9320 N   0  0  0  0  0  2  0  0  0  0  0  0
  162.0430  207.0670  149.2170 C   0  0  0  0  0  0  0  0  0  0  0  0
  161.1670  204.7980  149.2580 C   0  0  0  0  0  0  0  0  0  0  0  0
  161.8890  207.0960  147.8250 C   0  0  0  0  0  3  0  0  0  0  0  0
  161.3690  205.9880  147.1420 C   0  0  0  0  0  0  0  0  0  0  0  0
  161.6790  205.9180  149.9250 C   0  0  0  0  0  3  0  0  0  0  0  0
  161.0110  204.8430  147.8660 C   0  0  0  0  0  3  0  0  0  0  0  0
  160.4470  203.6630  151.2120 O   0  0  0  0  0  0  0  0  0  0  0  0
  160.8130  203.5800  150.0060 C   0  0  0  0  0  0  0  0  0  0  0  0
  160.8730  202.3050  149.3620 N   0  0  0  0  0  2  0  0  0  0  0  0
  160.4640  201.0850  150.0370 C   0  0  0  0  0  1  0  0  0  0  0  0
  161.1930  206.0260  145.7200 N   0  0  0  0  0  0  0  0  0  0  0  0
  160.1260  206.4450  145.2250 O   0  0  0  0  0  0  0  0  0  0  0  0
  162.1980  205.5930  144.8850 O   0  0  0  0  0  0  0  0  0  0  0  0
  1 13  1  6  0  0  0
  1  4  1  0  0  0  0
  4  3  1  0  0  0  0
  4  2  2  0  0  0  0
  5  3  1  0  0  0  0
  6  5  1  0  0  0  0
  6  7  1  0  0  0  0
  7 10  1  6  0  0  0
  7  9  1  0  0  0  0
  9  8  1  0  0  0  0
 11 10  1  0  0  0  0
 12 11  3  0  0  0  0
 14 17  1  0  0  0  0
 14 16  1  1  0  0  0
 14 15  1  0  0  0  0
 15 20  1  1  0  0  0
 17 13  1  6  0  0  0
 17 15  1  0  0  0  0
 19 22  1  6  0  0  0
 19 23  1  0  0  0  0
 20 19  1  0  0  0  0
 20 21  1  1  0  0  0
 21 18  1  0  0  0  0
 23 22  1  6  0  0  0
 23 18  1  0  0  0  0
 24 33  1  1  0  0  0
 24  1  1  0  0  0  0
 25 24  1  0  0  0  0
 26 25  1  0  0  0  0
 27 26  1  0  0  0  0
 29 27  1  0  0  0  0
 29 28  2  0  0  0  0
 30 29  1  0  0  0  0
 31 32  1  0  0  0  0
 32 30  1  0  0  0  0
 34 38  1  0  0  0  0
 34 33  1  0  0  0  0
 35 38  2  0  0  0  0
 35 41  1  0  0  0  0
 36 34  2  0  0  0  0
 37 36  1  0  0  0  0
 37 39  2  0  0  0  0
 39 35  1  0  0  0  0
 41 40  2  0  0  0  0
 42 41  1  0  0  0  0
 42 43  1  0  0  0  0
 44 37  1  0  0  0  0
 45 44  2  0  0  0  0
 46 44  2  0  0  0  0
M  END
>  <MODEL>
2

>  <REMARK>
 VINA RESULT:      -5.8      2.077      6.566
  Name = 
  21 active torsions:
  status: ('A' for Active; 'I' for Inactive)
    1  A    between atoms: N_2  and  C_11
    2  A    between atoms: N_2  and  C_13
    3  A    between atoms: C_4  and  C_17
    4  A    between atoms: C_4  and  C_21
    5  A    between atoms: O_5  and  O_25
    6  A    between atoms: C_7  and  C_11
    7  A    between atoms: C_7  and  O_14
    8  A    between atoms: C_7  and  C_27
    9  A    between atoms: N_9  and  C_24
   10  A    between atoms: C_10  and  N_30
   11  A    between atoms: C_11  and  N_35
   12  A    between atoms: O_14  and  C_45
   13  A    between atoms: C_17  and  O_18
   14  A    between atoms: C_17  and  C_37
   15  A    between atoms: N_19  and  C_41
   16  A    between atoms: C_22  and  N_35
   17  A    between atoms: C_22  and  C_43
   18  A    between atoms: C_24  and  C_37
   19  A    between atoms: O_25  and  C_39
   20  A    between atoms: C_28  and  C_29
   21  A    between atoms: C_39  and  C_43
                            x       y       z     vdW  Elec       q    Type
                         _______ _______ _______ _____ _____    ______ ____

>  <TORSDO>
F 21

$$$$
=
 OpenBabel11072413533D

 46 49  0  0  1  0  0  0  0  0999 V2000
  161.6990  209.4830  150.2230 C   0  0  1  0  0  3  0  0  0  0  0  0
  163.4600  210.5370  151.4750 O   0  0  0  0  0  0  0  0  0  0  0  0
  161.3420  210.8160  152.3790 N   0  0  0  0  0  2  0  0  0  0  0  0
  162.2260  210.2960  151.3840 C   0  0  0  0  0  0  0  0  0  0  0  0
  159.8890  210.7010  152.3030 C   0  0  0  0  0  2  0  0  0  0  0  0
  159.2480  212.0760  152.1590 C   0  0  0  0  0  2  0  0  0  0  0  0
  158.5300  212.4890  153.4460 C   0  0  2  0  0  3  0  0  0  0  0  0
  156.5780  213.6770  153.1660 C   0  0  0  0  0  1  0  0  0  0  0  0
  157.9640  213.7860  153.3780 O   0  0  0  0  0  0  0  0  0  0  0  0
  159.4060  212.2700  154.6770 C   0  0  0  0  0  2  0  0  0  0  0  0
  159.4440  213.4880  155.4940 C   0  0  0  0  0  0  0  0  0  0  0  0
  159.4740  214.4490  156.1420 N   0  0  0  0  0  0  0  0  0  0  0  0
  162.0670  210.0020  148.9580 O   0  0  0  0  0  0  0  0  0  0  0  0
  163.0080  211.9360  148.0040 C   0  0  1  0  0  3  0  0  0  0  0  0
  161.5360  211.9630  147.7760 N   0  0  1  0  0  0  0  0  0  0  0  0
  163.5200  213.1640  148.4400 O   0  0  0  0  0  1  0  0  0  0  0  0
  162.0990  211.4070  149.0210 C   0  0  1  0  0  3  0  0  0  0  0  0
  159.9890  214.4530  146.2390 C   0  0  0  0  0  2  0  0  0  0  0  0
  159.3890  213.1160  148.2030 C   0  0  2  0  0  3  0  0  0  0  0  0
  160.9130  213.2430  148.1310 C   0  0  2  0  0  3  0  0  0  0  0  0
  161.2310  214.2970  147.0830 C   0  0  0  0  0  2  0  0  0  0  0  0
  158.8020  212.4090  146.9880 C   0  0  0  0  0  2  0  0  0  0  0  0
  158.8170  213.9220  147.0460 C   0  0  2  0  0  3  0  0  0  0  0  0
  161.9440  207.9660  150.3440 C   0  0  1  0  0  3  0  0  0  0  0  0
  162.1960  207.5370  151.7230 N   0  0  0  0  0  2  0  0  0  0  0  0
  160.9440  207.1690  152.3750 C   0  0  0  0  0  2  0  0  0  0  0  0
  161.2410  206.4910  153.6970 C   0  0  0  0  0  2  0  0  0  0  0  0
  159.7960  207.2100  155.4410 O   0  0  0  0  0  0  0  0  0  0  0  0
  160.8750  207.3980  154.8230 C   0  0  0  0  0  0  0  0  0  0  0  0
  161.7180  208.4400  155.2150 O   0  0  0  0  0  0  0  0  0  0  0  0
  162.2670  210.4160  155.9320 C   0  0  0  0  0  1  0  0  0  0  0  0
  161.2910  209.4220  156.0230 O   0  0  0  0  0  0  0  0  0  0  0  0
  160.8310  207.2160  149.7680 N   0  0  0  0  0  2  0  0  0  0  0  0
  161.0150  206.1260  148.8610 C   0  0  0  0  0  0  0  0  0  0  0  0
  161.0250  203.7270  148.4610 C   0  0  0  0  0  0  0  0  0  0  0  0
  161.3040  206.3490  147.5090 C   0  0  0  0  0  3  0  0  0  0  0  0
  161.4460  205.2700  146.6240 C   0  0  0  0  0  0  0  0  0  0  0  0
  160.8760  204.8170  149.3290 C   0  0  0  0  0  3  0  0  0  0  0  0
  161.3060  203.9630  147.1090 C   0  0  0  0  0  3  0  0  0  0  0  0
  160.8260  201.3830  148.1540 O   0  0  0  0  0  0  0  0  0  0  0  0
  160.9060  202.3490  148.9650 C   0  0  0  0  0  0  0  0  0  0  0  0
  160.8920  202.1030  150.3740 N   0  0  0  0  0  2  0  0  0  0  0  0
  160.8500  200.7570  150.9180 C   0  0  0  0  0  1  0  0  0  0  0  0
  161.7210  205.4990  145.2360 N   0  0  0  0  0  0  0  0  0  0  0  0
  162.7780  206.0630  144.8840 O   0  0  0  0  0  0  0  0  0  0  0  0
  160.8170  205.1050  144.2760 O   0  0  0  0  0  0  0  0  0  0  0  0
  1 13  1  6  0  0  0
  1 24  1  0  0  0  0
  1  4  1  0  0  0  0
  4  2  2  0  0  0  0
  4  3  1  0  0  0  0
  5  3  1  0  0  0  0
  6  5  1  0  0  0  0
  7  6  1  6  0  0  0
  7 10  1  0  0  0  0
  8  9  1  0  0  0  0
  9  7  1  0  0  0  0
 10 11  1  0  0  0  0
 11 12  3  0  0  0  0
 14 16  1  1  0  0  0
 14 17  1  0  0  0  0
 15 14  1  0  0  0  0
 15 20  1  1  0  0  0
 15 17  1  0  0  0  0
 17 13  1  6  0  0  0
 18 21  1  0  0  0  0
 19 22  1  6  0  0  0
 20 21  1  6  0  0  0
 20 19  1  0  0  0  0
 22 23  1  0  0  0  0
 23 18  1  6  0  0  0
 23 19  1  0  0  0  0
 24 33  1  1  0  0  0
 24 25  1  0  0  0  0
 25 26  1  0  0  0  0
 26 27  1  0  0  0  0
 27 29  1  0  0  0  0
 29 30  1  0  0  0  0
 29 28  2  0  0  0  0
 30 32  1  0  0  0  0
 31 32  1  0  0  0  0
 34 38  1  0  0  0  0
 34 33  1  0  0  0  0
 35 41  1  0  0  0  0
 35 38  2  0  0  0  0
 36 34  2  0  0  0  0
 37 39  2  0  0  0  0
 37 36  1  0  0  0  0
 39 35  1  0  0  0  0
 40 41  2  0  0  0  0
 41 42  1  0  0  0  0
 42 43  1  0  0  0  0
 44 37  1  0  0  0  0
 45 44  2  0  0  0  0
 46 44  2  0  0  0  0
M  END
>  <MODEL>
3

>  <REMARK>
 VINA RESULT:      -5.5      1.225      2.826
  Name = 
  21 active torsions:
  status: ('A' for Active; 'I' for Inactive)
    1  A    between atoms: N_2  and  C_11
    2  A    between atoms: N_2  and  C_13
    3  A    between atoms: C_4  and  C_17
    4  A    between atoms: C_4  and  C_21
    5  A    between atoms: O_5  and  O_25
    6  A    between atoms: C_7  and  C_11
    7  A    between atoms: C_7  and  O_14
    8  A    between atoms: C_7  and  C_27
    9  A    between atoms: N_9  and  C_24
   10  A    between atoms: C_10  and  N_30
   11  A    between atoms: C_11  and  N_35
   12  A    between atoms: O_14  and  C_45
   13  A    between atoms: C_17  and  O_18
   14  A    between atoms: C_17  and  C_37
   15  A    between atoms: N_19  and  C_41
   16  A    between atoms: C_22  and  N_35
   17  A    between atoms: C_22  and  C_43
   18  A    between atoms: C_24  and  C_37
   19  A    between atoms: O_25  and  C_39
   20  A    between atoms: C_28  and  C_29
   21  A    between atoms: C_39  and  C_43
                            x       y       z     vdW  Elec       q    Type
                         _______ _______ _______ _____ _____    ______ ____

>  <TORSDO>
F 21

$$$$
=
 OpenBabel11072413533D

 46 49  0  0  1  0  0  0  0  0999 V2000
  161.5820  210.0810  149.5840 C   0  0  1  0  0  3  0  0  0  0  0  0
  163.4080  210.8160  150.9640 O   0  0  0  0  0  0  0  0  0  0  0  0
  161.3100  211.4030  151.7590 N   0  0  0  0  0  2  0  0  0  0  0  0
  162.1600  210.7740  150.7980 C   0  0  0  0  0  0  0  0  0  0  0  0
  159.8640  211.5200  151.6000 C   0  0  0  0  0  2  0  0  0  0  0  0
  159.1390  210.8750  152.7740 C   0  0  0  0  0  2  0  0  0  0  0  0
  159.5730  211.4990  154.1030 C   0  0  2  0  0  3  0  0  0  0  0  0
  161.1720  211.1070  155.7130 C   0  0  0  0  0  1  0  0  0  0  0  0
  160.0780  210.5500  155.0260 O   0  0  0  0  0  0  0  0  0  0  0  0
  158.4870  212.3980  154.6870 C   0  0  0  0  0  2  0  0  0  0  0  0
  157.2820  211.6130  154.9810 C   0  0  0  0  0  0  0  0  0  0  0  0
  156.3310  210.9940  155.2150 N   0  0  0  0  0  0  0  0  0  0  0  0
  161.9830  210.6640  148.3580 O   0  0  0  0  0  0  0  0  0  0  0  0
  162.8880  212.7660  147.8110 C   0  0  1  0  0  3  0  0  0  0  0  0
  161.6340  212.5720  147.0300 N   0  0  1  0  0  0  0  0  0  0  0  0
  162.9850  214.0370  148.3900 O   0  0  0  0  0  1  0  0  0  0  0  0
  161.7580  212.0520  148.4050 C   0  0  1  0  0  3  0  0  0  0  0  0
  159.4070  214.0540  145.0810 C   0  0  0  0  0  2  0  0  0  0  0  0
  159.2900  213.2720  147.4000 C   0  0  2  0  0  3  0  0  0  0  0  0
  160.7220  213.7200  147.0950 C   0  0  2  0  0  3  0  0  0  0  0  0
  160.6940  214.4520  145.7630 C   0  0  0  0  0  2  0  0  0  0  0  0
  158.8370  212.1160  146.5180 C   0  0  0  0  0  2  0  0  0  0  0  0
  158.4620  213.5360  146.1500 C   0  0  2  0  0  3  0  0  0  0  0  0
  161.7300  208.5470  149.5960 C   0  0  1  0  0  3  0  0  0  0  0  0
  162.3710  208.0270  148.3860 N   0  0  0  0  0  2  0  0  0  0  0  0
  161.4790  207.0990  147.6990 C   0  0  0  0  0  2  0  0  0  0  0  0
  161.7990  205.6790  148.1220 C   0  0  0  0  0  2  0  0  0  0  0  0
  162.0810  203.5780  147.0480 O   0  0  0  0  0  0  0  0  0  0  0  0
  161.9990  204.8260  146.9150 C   0  0  0  0  0  0  0  0  0  0  0  0
  162.0800  205.3870  145.6390 O   0  0  0  0  0  0  0  0  0  0  0  0
  160.3700  204.6650  144.5090 C   0  0  0  0  0  1  0  0  0  0  0  0
  161.7650  204.6830  144.5410 O   0  0  0  0  0  0  0  0  0  0  0  0
  162.4490  208.1070  150.7880 N   0  0  0  0  0  2  0  0  0  0  0  0
  161.8880  207.2060  151.7460 C   0  0  0  0  0  0  0  0  0  0  0  0
  161.1690  204.9550  152.3180 C   0  0  0  0  0  0  0  0  0  0  0  0
  161.5580  207.6350  153.0380 C   0  0  0  0  0  3  0  0  0  0  0  0
  161.0420  206.7310  153.9780 C   0  0  0  0  0  0  0  0  0  0  0  0
  161.6930  205.8690  151.3940 C   0  0  0  0  0  3  0  0  0  0  0  0
  160.8500  205.3940  153.6090 C   0  0  0  0  0  3  0  0  0  0  0  0
  160.5210  202.7210  152.7870 O   0  0  0  0  0  0  0  0  0  0  0  0
  160.9370  203.5520  151.9310 C   0  0  0  0  0  0  0  0  0  0  0  0
  161.1740  203.1350  150.5840 N   0  0  0  0  0  2  0  0  0  0  0  0
  160.8910  201.7810  150.1400 C   0  0  0  0  0  1  0  0  0  0  0  0
  160.7240  207.1660  155.3070 N   0  0  0  0  0  0  0  0  0  0  0  0
  159.5450  207.1370  155.7180 O   0  0  0  0  0  0  0  0  0  0  0  0
  161.7160  207.6270  156.1420 O   0  0  0  0  0  0  0  0  0  0  0  0
  1 13  1  6  0  0  0
  1 24  1  0  0  0  0
  1  4  1  0  0  0  0
  4  2  2  0  0  0  0
  4  3  1  0  0  0  0
  5  3  1  0  0  0  0
  5  6  1  0  0  0  0
  7  6  1  6  0  0  0
  7 10  1  0  0  0  0
  7  9  1  0  0  0  0
  9  8  1  0  0  0  0
 10 11  1  0  0  0  0
 11 12  3  0  0  0  0
 14 16  1  1  0  0  0
 14 17  1  0  0  0  0
 15 20  1  1  0  0  0
 15 14  1  0  0  0  0
 15 17  1  0  0  0  0
 17 13  1  6  0  0  0
 18 21  1  0  0  0  0
 19 22  1  6  0  0  0
 20 21  1  6  0  0  0
 20 19  1  0  0  0  0
 23 18  1  6  0  0  0
 23 22  1  0  0  0  0
 23 19  1  0  0  0  0
 24 25  1  6  0  0  0
 24 33  1  0  0  0  0
 26 27  1  0  0  0  0
 26 25  1  0  0  0  0
 29 28  2  0  0  0  0
 29 27  1  0  0  0  0
 30 29  1  0  0  0  0
 31 32  1  0  0  0  0
 32 30  1  0  0  0  0
 33 34  1  0  0  0  0
 34 36  1  0  0  0  0
 35 39  2  0  0  0  0
 36 37  2  0  0  0  0
 37 44  1  0  0  0  0
 38 34  2  0  0  0  0
 38 35  1  0  0  0  0
 39 37  1  0  0  0  0
 41 35  1  0  0  0  0
 41 40  2  0  0  0  0
 42 41  1  0  0  0  0
 43 42  1  0  0  0  0
 44 45  2  0  0  0  0
 44 46  2  0  0  0  0
M  END
>  <MODEL>
4

>  <REMARK>
 VINA RESULT:      -5.4      1.677      5.334
  Name = 
  21 active torsions:
  status: ('A' for Active; 'I' for Inactive)
    1  A    between atoms: N_2  and  C_11
    2  A    between atoms: N_2  and  C_13
    3  A    between atoms: C_4  and  C_17
    4  A    between atoms: C_4  and  C_21
    5  A    between atoms: O_5  and  O_25
    6  A    between atoms: C_7  and  C_11
    7  A    between atoms: C_7  and  O_14
    8  A    between atoms: C_7  and  C_27
    9  A    between atoms: N_9  and  C_24
   10  A    between atoms: C_10  and  N_30
   11  A    between atoms: C_11  and  N_35
   12  A    between atoms: O_14  and  C_45
   13  A    between atoms: C_17  and  O_18
   14  A    between atoms: C_17  and  C_37
   15  A    between atoms: N_19  and  C_41
   16  A    between atoms: C_22  and  N_35
   17  A    between atoms: C_22  and  C_43
   18  A    between atoms: C_24  and  C_37
   19  A    between atoms: O_25  and  C_39
   20  A    between atoms: C_28  and  C_29
   21  A    between atoms: C_39  and  C_43
                            x       y       z     vdW  Elec       q    Type
                         _______ _______ _______ _____ _____    ______ ____

>  <TORSDO>
F 21

$$$$
=
 OpenBabel11072413533D

 46 49  0  0  1  0  0  0  0  0999 V2000
  161.7650  207.8680  151.6450 C   0  0  1  0  0  3  0  0  0  0  0  0
  163.1060  206.3120  152.8930 O   0  0  0  0  0  0  0  0  0  0  0  0
  161.7090  205.3290  151.3230 N   0  0  0  0  0  2  0  0  0  0  0  0
  162.2400  206.4750  151.9920 C   0  0  0  0  0  0  0  0  0  0  0  0
  160.6180  205.3960  150.3560 C   0  0  0  0  0  2  0  0  0  0  0  0
  160.6710  204.2090  149.4020 C   0  0  0  0  0  2  0  0  0  0  0  0
  160.3760  202.8980  150.1330 C   0  0  2  0  0  3  0  0  0  0  0  0
  161.0750  202.5970  152.3060 C   0  0  0  0  0  1  0  0  0  0  0  0
  161.4450  202.4640  150.9560 O   0  0  0  0  0  0  0  0  0  0  0  0
  159.8660  201.8210  149.1780 C   0  0  0  0  0  2  0  0  0  0  0  0
  160.6050  201.8760  147.9120 C   0  0  0  0  0  0  0  0  0  0  0  0
  161.1870  201.9210  146.9120 N   0  0  0  0  0  0  0  0  0  0  0  0
  161.8290  208.7730  152.7320 O   0  0  0  0  0  0  0  0  0  0  0  0
  161.0640  207.8820  154.7710 C   0  0  1  0  0  3  0  0  0  0  0  0
  160.8810  209.3600  154.8020 N   0  0  1  0  0  0  0  0  0  0  0  0
  159.9490  207.1780  155.2430 O   0  0  0  0  0  1  0  0  0  0  0  0
  160.6970  208.6000  153.5510 C   0  0  1  0  0  3  0  0  0  0  0  0
  159.5360  211.7420  156.6650 C   0  0  0  0  0  2  0  0  0  0  0  0
  159.0230  210.9450  154.4050 C   0  0  2  0  0  3  0  0  0  0  0  0
  159.5440  209.7740  155.2430 C   0  0  2  0  0  3  0  0  0  0  0  0
  159.5810  210.2330  156.6910 C   0  0  0  0  0  2  0  0  0  0  0  0
  160.0480  212.0630  154.2600 C   0  0  0  0  0  2  0  0  0  0  0  0
  158.9710  212.1610  155.3190 C   0  0  2  0  0  3  0  0  0  0  0  0
  162.3690  208.4440  150.3490 C   0  0  1  0  0  3  0  0  0  0  0  0
  161.4950  208.2690  149.1860 N   0  0  0  0  0  2  0  0  0  0  0  0
  162.2470  207.7090  148.0680 C   0  0  0  0  0  2  0  0  0  0  0  0
  161.3320  206.8450  147.2230 C   0  0  0  0  0  2  0  0  0  0  0  0
  162.8750  205.0510  146.9990 O   0  0  0  0  0  0  0  0  0  0  0  0
  162.1450  205.8910  146.4130 C   0  0  0  0  0  0  0  0  0  0  0  0
  162.0950  205.9030  145.0180 O   0  0  0  0  0  0  0  0  0  0  0  0
  160.5810  204.4460  144.4690 C   0  0  0  0  0  1  0  0  0  0  0  0
  160.9340  205.7910  144.3560 O   0  0  0  0  0  0  0  0  0  0  0  0
  162.7180  209.8510  150.5230 N   0  0  0  0  0  2  0  0  0  0  0  0
  161.9300  210.9180  149.9890 C   0  0  0  0  0  0  0  0  0  0  0  0
  161.2820  212.2760  148.0780 C   0  0  0  0  0  0  0  0  0  0  0  0
  161.0140  211.6140  150.7880 C   0  0  0  0  0  3  0  0  0  0  0  0
  160.2230  212.6350  150.2420 C   0  0  0  0  0  0  0  0  0  0  0  0
  162.0570  211.2520  148.6390 C   0  0  0  0  0  3  0  0  0  0  0  0
  160.3640  212.9590  148.8860 C   0  0  0  0  0  3  0  0  0  0  0  0
  160.4490  212.5980  145.8810 O   0  0  0  0  0  0  0  0  0  0  0  0
  161.4420  212.6430  146.6610 C   0  0  0  0  0  0  0  0  0  0  0  0
  162.7190  213.0610  146.1720 N   0  0  0  0  0  2  0  0  0  0  0  0
  162.9080  213.5030  144.8010 C   0  0  0  0  0  1  0  0  0  0  0  0
  159.2710  213.3330  151.0560 N   0  0  0  0  0  0  0  0  0  0  0  0
  159.5500  214.4500  151.5390 O   0  0  0  0  0  0  0  0  0  0  0  0
  158.0420  212.7730  151.3190 O   0  0  0  0  0  0  0  0  0  0  0  0
  1  4  1  1  0  0  0
  1 13  1  0  0  0  0
  3  4  1  0  0  0  0
  4  2  2  0  0  0  0
  5  3  1  0  0  0  0
  6  7  1  0  0  0  0
  6  5  1  0  0  0  0
  7 10  1  6  0  0  0
  7  9  1  0  0  0  0
  9  8  1  0  0  0  0
 11 10  1  0  0  0  0
 12 11  3  0  0  0  0
 14 15  1  0  0  0  0
 14 16  1  1  0  0  0
 15 20  1  1  0  0  0
 17 13  1  6  0  0  0
 17 14  1  0  0  0  0
 17 15  1  0  0  0  0
 18 21  1  0  0  0  0
 19 22  1  6  0  0  0
 19 20  1  0  0  0  0
 19 23  1  0  0  0  0
 20 21  1  1  0  0  0
 23 22  1  6  0  0  0
 23 18  1  0  0  0  0
 24 25  1  6  0  0  0
 24 33  1  0  0  0  0
 24  1  1  0  0  0  0
 26 25  1  0  0  0  0
 27 26  1  0  0  0  0
 29 28  2  0  0  0  0
 29 27  1  0  0  0  0
 30 29  1  0  0  0  0
 32 31  1  0  0  0  0
 32 30  1  0  0  0  0
 34 33  1  0  0  0  0
 34 36  1  0  0  0  0
 35 38  1  0  0  0  0
 35 39  2  0  0  0  0
 37 36  2  0  0  0  0
 37 44  1  0  0  0  0
 38 34  2  0  0  0  0
 39 37  1  0  0  0  0
 40 41  2  0  0  0  0
 41 35  1  0  0  0  0
 42 41  1  0  0  0  0
 43 42  1  0  0  0  0
 44 46  2  0  0  0  0
 44 45  2  0  0  0  0
M  END
>  <MODEL>
5

>  <REMARK>
 VINA RESULT:      -5.3      2.166      8.765
  Name = 
  21 active torsions:
  status: ('A' for Active; 'I' for Inactive)
    1  A    between atoms: N_2  and  C_11
    2  A    between atoms: N_2  and  C_13
    3  A    between atoms: C_4  and  C_17
    4  A    between atoms: C_4  and  C_21
    5  A    between atoms: O_5  and  O_25
    6  A    between atoms: C_7  and  C_11
    7  A    between atoms: C_7  and  O_14
    8  A    between atoms: C_7  and  C_27
    9  A    between atoms: N_9  and  C_24
   10  A    between atoms: C_10  and  N_30
   11  A    between atoms: C_11  and  N_35
   12  A    between atoms: O_14  and  C_45
   13  A    between atoms: C_17  and  O_18
   14  A    between atoms: C_17  and  C_37
   15  A    between atoms: N_19  and  C_41
   16  A    between atoms: C_22  and  N_35
   17  A    between atoms: C_22  and  C_43
   18  A    between atoms: C_24  and  C_37
   19  A    between atoms: O_25  and  C_39
   20  A    between atoms: C_28  and  C_29
   21  A    between atoms: C_39  and  C_43
                            x       y       z     vdW  Elec       q    Type
                         _______ _______ _______ _____ _____    ______ ____

>  <TORSDO>
F 21

$$$$
=
 OpenBabel11072413533D

 46 49  0  0  1  0  0  0  0  0999 V2000
  161.9250  210.4320  149.0330 C   0  0  1  0  0  3  0  0  0  0  0  0
  163.8980  211.7410  148.6200 O   0  0  0  0  0  0  0  0  0  0  0  0
  162.0290  212.4240  147.4290 N   0  0  0  0  0  2  0  0  0  0  0  0
  162.6770  211.5610  148.3660 C   0  0  0  0  0  0  0  0  0  0  0  0
  160.6570  212.2280  146.9710 C   0  0  0  0  0  2  0  0  0  0  0  0
  160.1250  213.4920  146.3080 C   0  0  0  0  0  2  0  0  0  0  0  0
  159.9280  213.2880  144.8050 C   0  0  2  0  0  3  0  0  0  0  0  0
  161.4230  213.8070  143.1330 C   0  0  0  0  0  1  0  0  0  0  0  0
  160.4710  214.3370  144.0230 O   0  0  0  0  0  0  0  0  0  0  0  0
  158.4750  212.9630  144.4640 C   0  0  0  0  0  2  0  0  0  0  0  0
  157.7460  212.5710  145.6750 C   0  0  0  0  0  0  0  0  0  0  0  0
  157.1680  212.2630  146.6310 N   0  0  0  0  0  0  0  0  0  0  0  0
  162.5260  209.1640  148.8430 O   0  0  0  0  0  0  0  0  0  0  0  0
  161.9720  207.2970  147.5220 C   0  0  1  0  0  3  0  0  0  0  0  0
  162.0210  206.8700  148.9490 N   0  0  1  0  0  0  0  0  0  0  0  0
  160.8540  206.8050  146.8380 O   0  0  0  0  0  1  0  0  0  0  0  0
  161.5270  208.2090  148.5750 C   0  0  1  0  0  3  0  0  0  0  0  0
  161.3520  203.7900  149.9590 C   0  0  0  0  0  2  0  0  0  0  0  0
  160.7730  205.9820  150.8920 C   0  0  2  0  0  3  0  0  0  0  0  0
  160.8500  206.0910  149.3660 C   0  0  2  0  0  3  0  0  0  0  0  0
  160.9280  204.6780  148.8130 C   0  0  0  0  0  2  0  0  0  0  0  0
  162.1000  205.5690  151.5160 C   0  0  0  0  0  2  0  0  0  0  0  0
  161.0350  204.5260  151.2490 C   0  0  2  0  0  3  0  0  0  0  0  0
  161.5440  210.7010  150.5030 C   0  0  1  0  0  3  0  0  0  0  0  0
  162.5800  210.2720  151.4470 N   0  0  0  0  0  2  0  0  0  0  0  0
  162.1830  209.0300  152.1020 C   0  0  0  0  0  2  0  0  0  0  0  0
  160.8600  209.2310  152.8130 C   0  0  0  0  0  2  0  0  0  0  0  0
  160.8640  207.3480  154.2630 O   0  0  0  0  0  0  0  0  0  0  0  0
  160.9120  208.6010  154.1640 C   0  0  0  0  0  0  0  0  0  0  0  0
  161.0310  209.3760  155.3190 O   0  0  0  0  0  0  0  0  0  0  0  0
  162.2350  210.7510  156.4940 C   0  0  0  0  0  1  0  0  0  0  0  0
  161.5540  210.6110  155.2840 O   0  0  0  0  0  0  0  0  0  0  0  0
  161.2190  212.1100  150.7020 N   0  0  0  0  0  2  0  0  0  0  0  0
  159.9970  212.5490  151.2990 C   0  0  0  0  0  0  0  0  0  0  0  0
  158.6580  212.8830  153.3010 C   0  0  0  0  0  0  0  0  0  0  0  0
  158.9730  213.1120  150.5260 C   0  0  0  0  0  3  0  0  0  0  0  0
  157.7940  213.5710  151.1300 C   0  0  0  0  0  0  0  0  0  0  0  0
  159.8340  212.4390  152.6820 C   0  0  0  0  0  3  0  0  0  0  0  0
  157.6450  213.4520  152.5180 C   0  0  0  0  0  3  0  0  0  0  0  0
  159.3220  213.2440  155.5500 O   0  0  0  0  0  0  0  0  0  0  0  0
  158.4800  212.7380  154.7560 C   0  0  0  0  0  0  0  0  0  0  0  0
  157.3460  212.0330  155.2690 N   0  0  0  0  0  2  0  0  0  0  0  0
  157.0900  211.9270  156.6950 C   0  0  0  0  0  1  0  0  0  0  0  0
  156.7550  214.1660  150.3420 N   0  0  0  0  0  0  0  0  0  0  0  0
  156.9550  214.4520  149.1430 O   0  0  0  0  0  0  0  0  0  0  0  0
  155.5270  214.4350  150.9020 O   0  0  0  0  0  0  0  0  0  0  0  0
  1  4  1  1  0  0  0
  1 24  1  0  0  0  0
  3  4  1  0  0  0  0
  4  2  2  0  0  0  0
  5  3  1  0  0  0  0
  6  5  1  0  0  0  0
  7 10  1  1  0  0  0
  7  6  1  0  0  0  0
  8  9  1  0  0  0  0
  9  7  1  0  0  0  0
 10 11  1  0  0  0  0
 11 12  3  0  0  0  0
 13  1  1  0  0  0  0
 14 16  1  6  0  0  0
 14 17  1  0  0  0  0
 14 15  1  0  0  0  0
 15 20  1  6  0  0  0
 17 13  1  1  0  0  0
 17 15  1  0  0  0  0
 19 23  1  0  0  0  0
 19 22  1  1  0  0  0
 20 21  1  6  0  0  0
 20 19  1  0  0  0  0
 21 18  1  0  0  0  0
 23 18  1  6  0  0  0
 23 22  1  0  0  0  0
 24 33  1  6  0  0  0
 24 25  1  0  0  0  0
 25 26  1  0  0  0  0
 26 27  1  0  0  0  0
 27 29  1  0  0  0  0
 29 28  2  0  0  0  0
 29 30  1  0  0  0  0
 32 30  1  0  0  0  0
 32 31  1  0  0  0  0
 33 34  1  0  0  0  0
 34 38  1  0  0  0  0
 35 41  1  0  0  0  0
 36 37  1  0  0  0  0
 36 34  2  0  0  0  0
 37 39  2  0  0  0  0
 38 35  2  0  0  0  0
 39 35  1  0  0  0  0
 41 42  1  0  0  0  0
 41 40  2  0  0  0  0
 42 43  1  0  0  0  0
 44 46  2  0  0  0  0
 44 37  1  0  0  0  0
 45 44  2  0  0  0  0
M  END
>  <MODEL>
6

>  <REMARK>
 VINA RESULT:      -5.0      2.414      8.381
  Name = 
  21 active torsions:
  status: ('A' for Active; 'I' for Inactive)
    1  A    between atoms: N_2  and  C_11
    2  A    between atoms: N_2  and  C_13
    3  A    between atoms: C_4  and  C_17
    4  A    between atoms: C_4  and  C_21
    5  A    between atoms: O_5  and  O_25
    6  A    between atoms: C_7  and  C_11
    7  A    between atoms: C_7  and  O_14
    8  A    between atoms: C_7  and  C_27
    9  A    between atoms: N_9  and  C_24
   10  A    between atoms: C_10  and  N_30
   11  A    between atoms: C_11  and  N_35
   12  A    between atoms: O_14  and  C_45
   13  A    between atoms: C_17  and  O_18
   14  A    between atoms: C_17  and  C_37
   15  A    between atoms: N_19  and  C_41
   16  A    between atoms: C_22  and  N_35
   17  A    between atoms: C_22  and  C_43
   18  A    between atoms: C_24  and  C_37
   19  A    between atoms: O_25  and  C_39
   20  A    between atoms: C_28  and  C_29
   21  A    between atoms: C_39  and  C_43
                            x       y       z     vdW  Elec       q    Type
                         _______ _______ _______ _____ _____    ______ ____

>  <TORSDO>
F 21

$$$$
=
 OpenBabel11072413533D

 46 49  0  0  1  0  0  0  0  0999 V2000
  161.1520  207.4870  150.9010 C   0  0  1  0  0  3  0  0  0  0  0  0
  162.4260  206.4670  152.6660 O   0  0  0  0  0  0  0  0  0  0  0  0
  161.4800  204.9630  151.1750 N   0  0  0  0  0  2  0  0  0  0  0  0
  161.7290  206.2940  151.6310 C   0  0  0  0  0  0  0  0  0  0  0  0
  160.5880  204.6460  150.0650 C   0  0  0  0  0  2  0  0  0  0  0  0
  161.2850  203.7450  149.0540 C   0  0  0  0  0  2  0  0  0  0  0  0
  160.4650  202.4820  148.7790 C   0  0  2  0  0  3  0  0  0  0  0  0
  160.8460  200.7740  150.2750 C   0  0  0  0  0  1  0  0  0  0  0  0
  159.9990  201.8520  149.9600 O   0  0  0  0  0  0  0  0  0  0  0  0
  161.1880  201.5340  147.8270 C   0  0  0  0  0  2  0  0  0  0  0  0
  160.4990  201.4920  146.5320 C   0  0  0  0  0  0  0  0  0  0  0  0
  159.9530  201.4600  145.5110 N   0  0  0  0  0  0  0  0  0  0  0  0
  160.5580  208.4420  151.7610 O   0  0  0  0  0  0  0  0  0  0  0  0
  161.5390  210.1000  153.1110 C   0  0  1  0  0  3  0  0  0  0  0  0
  160.6260  209.2810  153.9570 N   0  0  1  0  0  0  0  0  0  0  0  0
  162.7770  210.3470  153.7180 O   0  0  0  0  0  1  0  0  0  0  0  0
  161.4030  208.6650  152.8640 C   0  0  1  0  0  3  0  0  0  0  0  0
  159.7260  208.8640  157.1140 C   0  0  0  0  0  2  0  0  0  0  0  0
  160.8580  207.3820  155.5250 C   0  0  2  0  0  3  0  0  0  0  0  0
  161.2360  208.8330  155.2120 C   0  0  2  0  0  3  0  0  0  0  0  0
  160.7530  209.6870  156.3730 C   0  0  0  0  0  2  0  0  0  0  0  0
  159.3630  207.1240  155.3860 C   0  0  0  0  0  2  0  0  0  0  0  0
  159.9560  207.4080  156.7500 C   0  0  2  0  0  3  0  0  0  0  0  0
  162.1020  208.1200  149.8650 C   0  0  1  0  0  3  0  0  0  0  0  0
  161.5400  208.1370  148.5120 N   0  0  0  0  0  2  0  0  0  0  0  0
  162.2780  207.2230  147.6470 C   0  0  0  0  0  2  0  0  0  0  0  0
  161.3050  206.3330  146.9000 C   0  0  0  0  0  2  0  0  0  0  0  0
  163.2970  205.1690  146.3290 O   0  0  0  0  0  0  0  0  0  0  0  0
  162.0520  205.2640  146.1760 C   0  0  0  0  0  0  0  0  0  0  0  0
  161.3920  204.3570  145.3450 O   0  0  0  0  0  0  0  0  0  0  0  0
  161.2860  205.5020  143.5020 C   0  0  0  0  0  1  0  0  0  0  0  0
  160.5230  204.7660  144.4090 O   0  0  0  0  0  0  0  0  0  0  0  0
  162.4900  209.4670  150.2770 N   0  0  0  0  0  2  0  0  0  0  0  0
  161.9230  210.6480  149.7040 C   0  0  0  0  0  0  0  0  0  0  0  0
  160.4940  212.6010  149.9440 C   0  0  0  0  0  0  0  0  0  0  0  0
  162.2530  211.0540  148.4050 C   0  0  0  0  0  3  0  0  0  0  0  0
  161.7170  212.2340  147.8700 C   0  0  0  0  0  0  0  0  0  0  0  0
  161.0470  211.4240  150.4660 C   0  0  0  0  0  3  0  0  0  0  0  0
  160.8380  213.0010  148.6460 C   0  0  0  0  0  3  0  0  0  0  0  0
  158.7390  214.1810  150.1660 O   0  0  0  0  0  0  0  0  0  0  0  0
  159.5480  213.4000  150.7410 C   0  0  0  0  0  0  0  0  0  0  0  0
  159.5380  213.2810  152.1660 N   0  0  0  0  0  2  0  0  0  0  0  0
  158.5750  213.9930  152.9890 C   0  0  0  0  0  1  0  0  0  0  0  0
  162.0720  212.6610  146.5480 N   0  0  0  0  0  0  0  0  0  0  0  0
  163.2060  213.1290  146.3160 O   0  0  0  0  0  0  0  0  0  0  0  0
  161.1600  212.5660  145.5210 O   0  0  0  0  0  0  0  0  0  0  0  0
  1  4  1  1  0  0  0
  1 13  1  0  0  0  0
  3  4  1  0  0  0  0
  4  2  2  0  0  0  0
  5  3  1  0  0  0  0
  6  5  1  0  0  0  0
  7 10  1  1  0  0  0
  7  6  1  0  0  0  0
  7  9  1  0  0  0  0
  9  8  1  0  0  0  0
 11 10  1  0  0  0  0
 12 11  3  0  0  0  0
 14 16  1  1  0  0  0
 14 15  1  0  0  0  0
 15 20  1  1  0  0  0
 17 13  1  6  0  0  0
 17 14  1  0  0  0  0
 17 15  1  0  0  0  0
 19 22  1  6  0  0  0
 19 23  1  0  0  0  0
 20 19  1  0  0  0  0
 20 21  1  1  0  0  0
 21 18  1  0  0  0  0
 23 22  1  6  0  0  0
 23 18  1  0  0  0  0
 24 25  1  6  0  0  0
 24 33  1  0  0  0  0
 24  1  1  0  0  0  0
 26 25  1  0  0  0  0
 27 26  1  0  0  0  0
 29 28  2  0  0  0  0
 29 27  1  0  0  0  0
 30 29  1  0  0  0  0
 31 32  1  0  0  0  0
 32 30  1  0  0  0  0
 34 33  1  0  0  0  0
 34 38  1  0  0  0  0
 35 38  2  0  0  0  0
 35 41  1  0  0  0  0
 36 34  2  0  0  0  0
 37 36  1  0  0  0  0
 37 39  2  0  0  0  0
 39 35  1  0  0  0  0
 40 41  2  0  0  0  0
 41 42  1  0  0  0  0
 42 43  1  0  0  0  0
 44 37  1  0  0  0  0
 45 44  2  0  0  0  0
 46 44  2  0  0  0  0
M  END
>  <MODEL>
7

>  <REMARK>
 VINA RESULT:      -4.9      2.214      9.462
  Name = 
  21 active torsions:
  status: ('A' for Active; 'I' for Inactive)
    1  A    between atoms: N_2  and  C_11
    2  A    between atoms: N_2  and  C_13
    3  A    between atoms: C_4  and  C_17
    4  A    between atoms: C_4  and  C_21
    5  A    between atoms: O_5  and  O_25
    6  A    between atoms: C_7  and  C_11
    7  A    between atoms: C_7  and  O_14
    8  A    between atoms: C_7  and  C_27
    9  A    between atoms: N_9  and  C_24
   10  A    between atoms: C_10  and  N_30
   11  A    between atoms: C_11  and  N_35
   12  A    between atoms: O_14  and  C_45
   13  A    between atoms: C_17  and  O_18
   14  A    between atoms: C_17  and  C_37
   15  A    between atoms: N_19  and  C_41
   16  A    between atoms: C_22  and  N_35
   17  A    between atoms: C_22  and  C_43
   18  A    between atoms: C_24  and  C_37
   19  A    between atoms: O_25  and  C_39
   20  A    between atoms: C_28  and  C_29
   21  A    between atoms: C_39  and  C_43
                            x       y       z     vdW  Elec       q    Type
                         _______ _______ _______ _____ _____    ______ ____

>  <TORSDO>
F 21

$$$$
=
 OpenBabel11072413533D

 46 49  0  0  1  0  0  0  0  0999 V2000
  161.8180  210.3600  149.1590 C   0  0  1  0  0  3  0  0  0  0  0  0
  163.8680  211.4890  148.6090 O   0  0  0  0  0  0  0  0  0  0  0  0
  162.0060  212.2790  147.4750 N   0  0  0  0  0  2  0  0  0  0  0  0
  162.6260  211.4000  148.4150 C   0  0  0  0  0  0  0  0  0  0  0  0
  160.6030  212.1790  147.0850 C   0  0  0  0  0  2  0  0  0  0  0  0
  159.9720  213.5620  146.9860 C   0  0  0  0  0  2  0  0  0  0  0  0
  159.0810  213.6770  145.7470 C   0  0  2  0  0  3  0  0  0  0  0  0
  157.3370  212.3770  146.5020 C   0  0  0  0  0  1  0  0  0  0  0  0
  158.3150  212.5110  145.5000 O   0  0  0  0  0  0  0  0  0  0  0  0
  159.8660  214.1590  144.5290 C   0  0  0  0  0  2  0  0  0  0  0  0
  159.1920  213.7440  143.2940 C   0  0  0  0  0  0  0  0  0  0  0  0
  158.6590  213.4140  142.3200 N   0  0  0  0  0  0  0  0  0  0  0  0
  162.4080  209.0730  149.1470 O   0  0  0  0  0  0  0  0  0  0  0  0
  162.0380  207.3440  147.5950 C   0  0  1  0  0  3  0  0  0  0  0  0
  161.9630  206.7710  148.9680 N   0  0  1  0  0  0  0  0  0  0  0  0
  161.0060  206.9040  146.7570 O   0  0  0  0  0  1  0  0  0  0  0  0
  161.4680  208.1330  148.6870 C   0  0  1  0  0  3  0  0  0  0  0  0
  161.2920  203.5980  149.6260 C   0  0  0  0  0  2  0  0  0  0  0  0
  160.5470  205.6810  150.6800 C   0  0  2  0  0  3  0  0  0  0  0  0
  160.7810  205.9310  149.1870 C   0  0  2  0  0  3  0  0  0  0  0  0
  160.9630  204.5760  148.5240 C   0  0  0  0  0  2  0  0  0  0  0  0
  161.8140  205.2440  151.4050 C   0  0  0  0  0  2  0  0  0  0  0  0
  160.8180  204.2050  150.9340 C   0  0  2  0  0  3  0  0  0  0  0  0
  161.3570  210.7960  150.5640 C   0  0  1  0  0  3  0  0  0  0  0  0
  162.3040  210.4190  151.6170 N   0  0  0  0  0  2  0  0  0  0  0  0
  161.5880  210.0560  152.8350 C   0  0  0  0  0  2  0  0  0  0  0  0
  160.9440  208.6950  152.6600 C   0  0  0  0  0  2  0  0  0  0  0  0
  160.7350  206.7340  153.9850 O   0  0  0  0  0  0  0  0  0  0  0  0
  160.9150  207.9780  153.9670 C   0  0  0  0  0  0  0  0  0  0  0  0
  161.1030  208.6610  155.1700 O   0  0  0  0  0  0  0  0  0  0  0  0
  160.9400  207.6050  157.0620 C   0  0  0  0  0  1  0  0  0  0  0  0
  161.8530  208.1500  156.1580 O   0  0  0  0  0  0  0  0  0  0  0  0
  161.0960  212.2320  150.5990 N   0  0  0  0  0  2  0  0  0  0  0  0
  159.9090  212.7930  151.1640 C   0  0  0  0  0  0  0  0  0  0  0  0
  157.6580  213.6590  150.8480 C   0  0  0  0  0  0  0  0  0  0  0  0
  159.7820  212.9810  152.5460 C   0  0  0  0  0  3  0  0  0  0  0  0
  158.5970  213.4980  153.0890 C   0  0  0  0  0  0  0  0  0  0  0  0
  158.8460  213.1320  150.3230 C   0  0  0  0  0  3  0  0  0  0  0  0
  157.5410  213.8350  152.2330 C   0  0  0  0  0  3  0  0  0  0  0  0
  156.7980  214.4520  148.7840 O   0  0  0  0  0  0  0  0  0  0  0  0
  156.5520  214.0420  149.9540 C   0  0  0  0  0  0  0  0  0  0  0  0
  155.2000  213.9400  150.4070 N   0  0  0  0  0  2  0  0  0  0  0  0
  154.0750  214.2360  149.5380 C   0  0  0  0  0  1  0  0  0  0  0  0
  158.4600  213.6710  154.5060 N   0  0  0  0  0  0  0  0  0  0  0  0
  159.3160  213.2050  155.2860 O   0  0  0  0  0  0  0  0  0  0  0  0
  157.3770  214.3460  155.0200 O   0  0  0  0  0  0  0  0  0  0  0  0
  1  4  1  1  0  0  0
  1 24  1  0  0  0  0
  3  4  1  0  0  0  0
  4  2  2  0  0  0  0
  5  3  1  0  0  0  0
  6  5  1  0  0  0  0
  7 10  1  6  0  0  0
  7  6  1  0  0  0  0
  9  7  1  0  0  0  0
  9  8  1  0  0  0  0
 11 10  1  0  0  0  0
 12 11  3  0  0  0  0
 13  1  1  0  0  0  0
 14 16  1  6  0  0  0
 14 17  1  0  0  0  0
 14 15  1  0  0  0  0
 15 20  1  6  0  0  0
 17 15  1  0  0  0  0
 17 13  1  1  0  0  0
 19 23  1  0  0  0  0
 19 22  1  1  0  0  0
 20 21  1  6  0  0  0
 20 19  1  0  0  0  0
 21 18  1  0  0  0  0
 23 18  1  6  0  0  0
 23 22  1  0  0  0  0
 24 33  1  6  0  0  0
 24 25  1  0  0  0  0
 25 26  1  0  0  0  0
 27 26  1  0  0  0  0
 27 29  1  0  0  0  0
 29 28  2  0  0  0  0
 29 30  1  0  0  0  0
 30 32  1  0  0  0  0
 32 31  1  0  0  0  0
 33 34  1  0  0  0  0
 34 36  1  0  0  0  0
 35 39  2  0  0  0  0
 36 37  2  0  0  0  0
 37 44  1  0  0  0  0
 38 35  1  0  0  0  0
 38 34  2  0  0  0  0
 39 37  1  0  0  0  0
 40 41  2  0  0  0  0
 41 42  1  0  0  0  0
 41 35  1  0  0  0  0
 43 42  1  0  0  0  0
 44 46  2  0  0  0  0
 44 45  2  0  0  0  0
M  END
>  <MODEL>
8

>  <REMARK>
 VINA RESULT:      -4.8      2.584      8.270
  Name = 
  21 active torsions:
  status: ('A' for Active; 'I' for Inactive)
    1  A    between atoms: N_2  and  C_11
    2  A    between atoms: N_2  and  C_13
    3  A    between atoms: C_4  and  C_17
    4  A    between atoms: C_4  and  C_21
    5  A    between atoms: O_5  and  O_25
    6  A    between atoms: C_7  and  C_11
    7  A    between atoms: C_7  and  O_14
    8  A    between atoms: C_7  and  C_27
    9  A    between atoms: N_9  and  C_24
   10  A    between atoms: C_10  and  N_30
   11  A    between atoms: C_11  and  N_35
   12  A    between atoms: O_14  and  C_45
   13  A    between atoms: C_17  and  O_18
   14  A    between atoms: C_17  and  C_37
   15  A    between atoms: N_19  and  C_41
   16  A    between atoms: C_22  and  N_35
   17  A    between atoms: C_22  and  C_43
   18  A    between atoms: C_24  and  C_37
   19  A    between atoms: O_25  and  C_39
   20  A    between atoms: C_28  and  C_29
   21  A    between atoms: C_39  and  C_43
                            x       y       z     vdW  Elec       q    Type
                         _______ _______ _______ _____ _____    ______ ____

>  <TORSDO>
F 21

$$$$
=
 OpenBabel11072413533D

 46 49  0  0  1  0  0  0  0  0999 V2000
  161.1640  207.2650  150.8290 C   0  0  1  0  0  3  0  0  0  0  0  0
  162.6230  206.4590  152.5620 O   0  0  0  0  0  0  0  0  0  0  0  0
  161.9100  204.8280  151.0740 N   0  0  0  0  0  2  0  0  0  0  0  0
  161.9440  206.1790  151.5380 C   0  0  0  0  0  0  0  0  0  0  0  0
  161.0610  204.3750  149.9770 C   0  0  0  0  0  2  0  0  0  0  0  0
  161.7250  203.2330  149.2190 C   0  0  0  0  0  2  0  0  0  0  0  0
  160.6940  202.4100  148.4430 C   0  0  2  0  0  3  0  0  0  0  0  0
  160.7730  200.7000  149.9830 C   0  0  0  0  0  1  0  0  0  0  0  0
  159.9180  201.5620  149.2720 O   0  0  0  0  0  0  0  0  0  0  0  0
  161.3240  201.6890  147.2540 C   0  0  0  0  0  2  0  0  0  0  0  0
  160.4480  201.7840  146.0810 C   0  0  0  0  0  0  0  0  0  0  0  0
  159.7560  201.8560  145.1550 N   0  0  0  0  0  0  0  0  0  0  0  0
  160.4760  208.1320  151.7120 O   0  0  0  0  0  0  0  0  0  0  0  0
  161.1290  209.8510  153.1790 C   0  0  1  0  0  3  0  0  0  0  0  0
  160.4770  208.7720  153.9740 N   0  0  1  0  0  0  0  0  0  0  0  0
  162.3110  210.3260  153.7610 O   0  0  0  0  0  1  0  0  0  0  0  0
  161.3100  208.4500  152.7990 C   0  0  1  0  0  3  0  0  0  0  0  0
  160.0680  208.6850  157.2570 C   0  0  0  0  0  2  0  0  0  0  0  0
  160.8180  206.9890  155.6550 C   0  0  2  0  0  3  0  0  0  0  0  0
  161.2470  208.3720  155.1570 C   0  0  2  0  0  3  0  0  0  0  0  0
  161.0200  209.3540  156.2950 C   0  0  0  0  0  2  0  0  0  0  0  0
  159.3060  206.8520  155.7710 C   0  0  0  0  0  2  0  0  0  0  0  0
  160.1290  207.1900  156.9960 C   0  0  2  0  0  3  0  0  0  0  0  0
  161.9620  208.0190  149.7470 C   0  0  1  0  0  3  0  0  0  0  0  0
  161.2040  208.2040  148.5060 N   0  0  0  0  0  2  0  0  0  0  0  0
  161.1720  206.9600  147.7440 C   0  0  0  0  0  2  0  0  0  0  0  0
  162.5880  206.5000  147.4630 C   0  0  0  0  0  2  0  0  0  0  0  0
  163.6010  204.6660  146.3410 O   0  0  0  0  0  0  0  0  0  0  0  0
  162.5670  205.3640  146.4950 C   0  0  0  0  0  0  0  0  0  0  0  0
  161.4140  205.0520  145.7720 O   0  0  0  0  0  0  0  0  0  0  0  0
  161.2090  205.6000  143.6800 C   0  0  0  0  0  1  0  0  0  0  0  0
  161.4790  204.5330  144.5370 O   0  0  0  0  0  0  0  0  0  0  0  0
  162.4340  209.3040  150.2560 N   0  0  0  0  0  2  0  0  0  0  0  0
  161.9420  210.5580  149.7790 C   0  0  0  0  0  0  0  0  0  0  0  0
  161.8700  212.2350  148.0200 C   0  0  0  0  0  0  0  0  0  0  0  0
  161.0320  211.3130  150.5300 C   0  0  0  0  0  3  0  0  0  0  0  0
  160.5300  212.5240  150.0320 C   0  0  0  0  0  0  0  0  0  0  0  0
  162.3540  211.0230  148.5280 C   0  0  0  0  0  3  0  0  0  0  0  0
  160.9550  212.9780  148.7770 C   0  0  0  0  0  3  0  0  0  0  0  0
  163.5610  212.9490  146.5160 O   0  0  0  0  0  0  0  0  0  0  0  0
  162.3310  212.7350  146.7130 C   0  0  0  0  0  0  0  0  0  0  0  0
  161.3870  212.9670  145.6640 N   0  0  0  0  0  2  0  0  0  0  0  0
  161.8020  213.3890  144.3380 C   0  0  0  0  0  1  0  0  0  0  0  0
  159.5830  213.2870  150.7930 N   0  0  0  0  0  0  0  0  0  0  0  0
  159.9700  214.1830  151.5700 O   0  0  0  0  0  0  0  0  0  0  0  0
  158.2350  213.0310  150.6780 O   0  0  0  0  0  0  0  0  0  0  0  0
  1  4  1  1  0  0  0
  1 13  1  0  0  0  0
  3  4  1  0  0  0  0
  4  2  2  0  0  0  0
  5  3  1  0  0  0  0
  6  5  1  0  0  0  0
  7 10  1  6  0  0  0
  7  6  1  0  0  0  0
  7  9  1  0  0  0  0
  9  8  1  0  0  0  0
 11 10  1  0  0  0  0
 12 11  3  0  0  0  0
 14 16  1  1  0  0  0
 14 15  1  0  0  0  0
 15 20  1  1  0  0  0
 17 13  1  6  0  0  0
 17 14  1  0  0  0  0
 17 15  1  0  0  0  0
 19 22  1  6  0  0  0
 19 23  1  0  0  0  0
 20 19  1  0  0  0  0
 20 21  1  1  0  0  0
 21 18  1  0  0  0  0
 23 22  1  6  0  0  0
 23 18  1  0  0  0  0
 24 25  1  6  0  0  0
 24 33  1  0  0  0  0
 24  1  1  0  0  0  0
 26 25  1  0  0  0  0
 27 26  1  0  0  0  0
 28 29  2  0  0  0  0
 29 27  1  0  0  0  0
 30 29  1  0  0  0  0
 31 32  1  0  0  0  0
 32 30  1  0  0  0  0
 34 33  1  0  0  0  0
 34 36  1  0  0  0  0
 35 38  1  0  0  0  0
 35 39  2  0  0  0  0
 37 36  2  0  0  0  0
 37 44  1  0  0  0  0
 38 34  2  0  0  0  0
 39 37  1  0  0  0  0
 40 41  2  0  0  0  0
 41 35  1  0  0  0  0
 42 41  1  0  0  0  0
 43 42  1  0  0  0  0
 44 45  2  0  0  0  0
 46 44  2  0  0  0  0
M  END
>  <MODEL>
9

>  <REMARK>
 VINA RESULT:      -4.7      2.502      9.193
  Name = 
  21 active torsions:
  status: ('A' for Active; 'I' for Inactive)
    1  A    between atoms: N_2  and  C_11
    2  A    between atoms: N_2  and  C_13
    3  A    between atoms: C_4  and  C_17
    4  A    between atoms: C_4  and  C_21
    5  A    between atoms: O_5  and  O_25
    6  A    between atoms: C_7  and  C_11
    7  A    between atoms: C_7  and  O_14
    8  A    between atoms: C_7  and  C_27
    9  A    between atoms: N_9  and  C_24
   10  A    between atoms: C_10  and  N_30
   11  A    between atoms: C_11  and  N_35
   12  A    between atoms: O_14  and  C_45
   13  A    between atoms: C_17  and  O_18
   14  A    between atoms: C_17  and  C_37
   15  A    between atoms: N_19  and  C_41
   16  A    between atoms: C_22  and  N_35
   17  A    between atoms: C_22  and  C_43
   18  A    between atoms: C_24  and  C_37
   19  A    between atoms: O_25  and  C_39
   20  A    between atoms: C_28  and  C_29
   21  A    between atoms: C_39  and  C_43
                            x       y       z     vdW  Elec       q    Type
                         _______ _______ _______ _____ _____    ______ ____

>  <TORSDO>
F 21

$$$$
