=
 OpenBabel11072413463D

 29 31  0  0  1  0  0  0  0  0999 V2000
  160.8670  210.2520  152.3280 C   0  0  0  0  0  0  0  0  0  0  0  0
  161.5730  209.6410  151.4190 N   0  0  0  0  0  0  0  0  0  0  0  0
  160.3680  207.3870  154.5230 O   0  0  0  0  0  0  0  0  0  0  0  0
  162.0600  208.3290  151.5800 N   0  0  0  0  0  0  0  0  0  0  0  0
  161.7430  207.5920  152.6000 C   0  0  0  0  0  0  0  0  0  0  0  0
  160.3830  211.5650  152.0650 N   0  0  0  0  0  1  0  0  0  0  0  0
  160.8580  208.1370  153.6370 C   0  0  0  0  0  0  0  0  0  0  0  0
  160.5870  209.6110  153.6700 C   0  0  1  0  0  3  0  0  0  0  0  0
  162.6730  210.6120  154.3740 O   0  0  0  0  0  1  0  0  0  0  0  0
  161.3910  210.2550  154.8050 C   0  0  1  0  0  3  0  0  0  0  0  0
  160.6620  211.4600  155.3790 C   0  0  0  0  0  2  0  0  0  0  0  0
  159.4400  210.2080  156.9950 O   0  0  0  0  0  1  0  0  0  0  0  0
  159.2870  211.0670  155.9030 C   0  0  1  0  0  3  0  0  0  0  0  0
  157.3570  212.6560  153.7550 C   0  0  0  0  0  2  0  0  0  0  0  0
  156.3430  212.2610  154.8240 C   0  0  0  0  0  2  0  0  0  0  0  0
  156.3440  211.7410  157.1220 O   0  0  0  0  0  0  0  0  0  0  0  0
  158.9560  213.5540  155.5320 C   0  0  0  0  0  2  0  0  0  0  0  0
  157.0090  212.0850  156.1590 C   0  0  0  0  0  0  0  0  0  0  0  0
  158.4930  212.3100  156.3200 C   0  0  1  0  0  3  0  0  0  0  0  0
  158.1810  213.8460  154.2350 C   0  0  0  0  0  2  0  0  0  0  0  0
  162.3930  205.9270  152.7270 S   0  0  0  0  0  0  0  0  0  0  0  0
  161.0620  204.6670  148.3200 C   0  0  0  0  0  0  0  0  0  0  0  0
  160.8440  204.0490  151.3380 C   0  0  0  0  0  3  0  0  0  0  0  0
  161.5320  204.7610  146.6360 Cl  0  0  0  0  0  0  0  0  0  0  0  0
  161.4990  205.3730  151.2800 C   0  0  0  0  0  0  0  0  0  0  0  0
  160.6190  205.9140  149.0100 C   0  0  0  0  0  2  0  0  0  0  0  0
  160.6190  203.2240  150.3080 C   0  0  0  0  0  3  0  0  0  0  0  0
  160.9770  203.4690  148.8970 C   0  0  0  0  0  3  0  0  0  0  0  0
  161.4310  206.1930  150.2290 C   0  0  0  0  0  3  0  0  0  0  0  0
  1  8  1  0  0  0  0
  2  4  1  0  0  0  0
  2  1  2  0  0  0  0
  4  5  2  0  0  0  0
  5 21  1  0  0  0  0
  5  7  1  0  0  0  0
  6  1  1  0  0  0  0
  7  8  1  0  0  0  0
  7  3  2  0  0  0  0
  8 10  1  1  0  0  0
 10  9  1  6  0  0  0
 10 11  1  0  0  0  0
 11 13  1  0  0  0  0
 13 12  1  1  0  0  0
 14 20  1  0  0  0  0
 14 15  1  0  0  0  0
 15 18  1  0  0  0  0
 17 19  1  0  0  0  0
 18 19  1  0  0  0  0
 18 16  2  0  0  0  0
 19 13  1  6  0  0  0
 20 17  1  0  0  0  0
 22 28  2  0  0  0  0
 22 26  1  0  0  0  0
 24 22  1  0  0  0  0
 25 23  1  0  0  0  0
 25 21  1  0  0  0  0
 26 29  1  0  0  0  0
 27 23  2  0  0  0  0
 28 27  1  0  0  0  0
 29 25  2  0  0  0  0
M  END
>  <MODEL>
1

>  <REMARK>
 VINA RESULT:      -7.2      0.000      0.000
  Name = 
  6 active torsions:
  status: ('A' for Active; 'I' for Inactive)
    1  A    between atoms: C_9  and  S_22
    2  A    between atoms: C_11  and  C_21
    3  A    between atoms: C_11  and  C_26
    4  A    between atoms: C_14  and  S_22
    5  A    between atoms: C_25  and  C_28
    6  A    between atoms: C_26  and  C_28
                            x       y       z     vdW  Elec       q    Type
                         _______ _______ _______ _____ _____    ______ ____

>  <TORSDO>
F 6

$$$$
=
 OpenBabel11072413463D

 29 31  0  0  1  0  0  0  0  0999 V2000
  160.9690  204.2870  151.5600 C   0  0  0  0  0  0  0  0  0  0  0  0
  160.3310  204.2180  150.4250 N   0  0  0  0  0  0  0  0  0  0  0  0
  163.0040  207.2030  150.7630 O   0  0  0  0  0  0  0  0  0  0  0  0
  160.4110  205.2190  149.4370 N   0  0  0  0  0  0  0  0  0  0  0  0
  161.2180  206.2310  149.5400 C   0  0  0  0  0  0  0  0  0  0  0  0
  160.8600  203.2100  152.4840 N   0  0  0  0  0  1  0  0  0  0  0  0
  162.0710  206.3570  150.7280 C   0  0  0  0  0  0  0  0  0  0  0  0
  161.7860  205.5060  151.9290 C   0  0  1  0  0  3  0  0  0  0  0  0
  161.9040  206.4300  154.1600 O   0  0  0  0  0  1  0  0  0  0  0  0
  161.1120  206.3570  153.0110 C   0  0  1  0  0  3  0  0  0  0  0  0
  160.7870  207.7500  152.4920 C   0  0  0  0  0  2  0  0  0  0  0  0
  162.0970  209.7370  152.5770 O   0  0  0  0  0  1  0  0  0  0  0  0
  161.4090  208.8210  153.3780 C   0  0  1  0  0  3  0  0  0  0  0  0
  161.9660  209.7700  156.4850 C   0  0  0  0  0  2  0  0  0  0  0  0
  161.6530  211.1080  155.8210 C   0  0  0  0  0  2  0  0  0  0  0  0
  160.4690  211.8870  153.9390 O   0  0  0  0  0  0  0  0  0  0  0  0
  159.9060  208.7030  155.4170 C   0  0  0  0  0  2  0  0  0  0  0  0
  160.7890  210.9170  154.6070 C   0  0  0  0  0  0  0  0  0  0  0  0
  160.3290  209.5410  154.1920 C   0  0  1  0  0  3  0  0  0  0  0  0
  160.6750  208.9930  156.7190 C   0  0  0  0  0  2  0  0  0  0  0  0
  161.2720  207.4580  148.2340 S   0  0  0  0  0  0  0  0  0  0  0  0
  161.2350  203.4400  145.6580 C   0  0  0  0  0  0  0  0  0  0  0  0
  160.8660  206.5050  145.6290 C   0  0  0  0  0  3  0  0  0  0  0  0
  161.0240  201.7060  145.7740 Cl  0  0  0  0  0  0  0  0  0  0  0  0
  161.4500  206.2180  146.9570 C   0  0  0  0  0  0  0  0  0  0  0  0
  162.4620  204.0520  146.2480 C   0  0  0  0  0  2  0  0  0  0  0  0
  160.3980  205.6090  144.7520 C   0  0  0  0  0  3  0  0  0  0  0  0
  160.3710  204.1440  144.9290 C   0  0  0  0  0  3  0  0  0  0  0  0
  162.1310  205.1080  147.2470 C   0  0  0  0  0  3  0  0  0  0  0  0
  1  8  1  0  0  0  0
  1  6  1  0  0  0  0
  2  1  2  0  0  0  0
  4  5  2  0  0  0  0
  4  2  1  0  0  0  0
  5  7  1  0  0  0  0
  7  3  2  0  0  0  0
  7  8  1  0  0  0  0
  8 10  1  1  0  0  0
 10  9  1  1  0  0  0
 11 10  1  0  0  0  0
 11 13  1  0  0  0  0
 13 12  1  6  0  0  0
 14 20  1  0  0  0  0
 15 14  1  0  0  0  0
 16 18  2  0  0  0  0
 17 20  1  0  0  0  0
 18 15  1  0  0  0  0
 19 13  1  1  0  0  0
 19 18  1  0  0  0  0
 19 17  1  0  0  0  0
 21  5  1  0  0  0  0
 22 24  1  0  0  0  0
 22 26  1  0  0  0  0
 23 25  1  0  0  0  0
 25 29  2  0  0  0  0
 25 21  1  0  0  0  0
 26 29  1  0  0  0  0
 27 28  1  0  0  0  0
 27 23  2  0  0  0  0
 28 22  2  0  0  0  0
M  END
>  <MODEL>
2

>  <REMARK>
 VINA RESULT:      -7.1      3.154      4.883
  Name = 
  6 active torsions:
  status: ('A' for Active; 'I' for Inactive)
    1  A    between atoms: C_9  and  S_22
    2  A    between atoms: C_11  and  C_21
    3  A    between atoms: C_11  and  C_26
    4  A    between atoms: C_14  and  S_22
    5  A    between atoms: C_25  and  C_28
    6  A    between atoms: C_26  and  C_28
                            x       y       z     vdW  Elec       q    Type
                         _______ _______ _______ _____ _____    ______ ____

>  <TORSDO>
F 6

$$$$
=
 OpenBabel11072413463D

 29 31  0  0  1  0  0  0  0  0999 V2000
  161.9460  208.1090  150.2230 C   0  0  0  0  0  0  0  0  0  0  0  0
  161.2950  209.0260  150.8820 N   0  0  0  0  0  0  0  0  0  0  0  0
  162.3830  205.7800  152.9910 O   0  0  0  0  0  0  0  0  0  0  0  0
  160.8230  208.8380  152.1960 N   0  0  0  0  0  0  0  0  0  0  0  0
  161.1020  207.7740  152.8870 C   0  0  0  0  0  0  0  0  0  0  0  0
  162.4200  208.4000  148.9130 N   0  0  0  0  0  1  0  0  0  0  0  0
  161.9240  206.7180  152.2850 C   0  0  0  0  0  0  0  0  0  0  0  0
  162.1690  206.7310  150.8060 C   0  0  1  0  0  3  0  0  0  0  0  0
  160.5170  204.9850  151.0740 O   0  0  0  0  0  1  0  0  0  0  0  0
  161.2990  205.6630  150.1340 C   0  0  1  0  0  3  0  0  0  0  0  0
  160.4260  206.2710  149.0460 C   0  0  0  0  0  2  0  0  0  0  0  0
  160.6510  206.3250  146.6760 O   0  0  0  0  0  1  0  0  0  0  0  0
  160.5080  205.4570  147.7610 C   0  0  1  0  0  3  0  0  0  0  0  0
  160.7940  203.0000  145.5830 C   0  0  0  0  0  2  0  0  0  0  0  0
  162.0840  203.7720  145.3250 C   0  0  0  0  0  2  0  0  0  0  0  0
  163.5020  205.2410  146.5000 O   0  0  0  0  0  0  0  0  0  0  0  0
  161.2120  203.0430  148.1020 C   0  0  0  0  0  2  0  0  0  0  0  0
  162.5020  204.5440  146.5440 C   0  0  0  0  0  0  0  0  0  0  0  0
  161.6910  204.4820  147.8150 C   0  0  1  0  0  3  0  0  0  0  0  0
  160.9270  202.1780  146.8610 C   0  0  0  0  0  2  0  0  0  0  0  0
  160.4730  207.6130  154.5570 S   0  0  0  0  0  0  0  0  0  0  0  0
  160.2860  212.1060  156.1560 C   0  0  0  0  0  0  0  0  0  0  0  0
  162.0850  209.6620  155.5880 C   0  0  0  0  0  3  0  0  0  0  0  0
  159.2120  213.2970  156.8600 Cl  0  0  0  0  0  0  0  0  0  0  0  0
  160.7990  209.3310  154.9390 C   0  0  0  0  0  0  0  0  0  0  0  0
  160.0780  211.7090  154.7330 C   0  0  0  0  0  2  0  0  0  0  0  0
  162.3190  210.6840  156.4200 C   0  0  0  0  0  3  0  0  0  0  0  0
  161.3380  211.6950  156.8610 C   0  0  0  0  0  3  0  0  0  0  0  0
  159.8840  210.2370  154.5890 C   0  0  0  0  0  3  0  0  0  0  0  0
  1  8  1  0  0  0  0
  1  2  2  0  0  0  0
  2  4  1  0  0  0  0
  4  5  2  0  0  0  0
  5 21  1  0  0  0  0
  6  1  1  0  0  0  0
  7  5  1  0  0  0  0
  7  3  2  0  0  0  0
  8 10  1  6  0  0  0
  8  7  1  0  0  0  0
 10  9  1  1  0  0  0
 11 10  1  0  0  0  0
 13 12  1  6  0  0  0
 13 11  1  0  0  0  0
 14 20  1  0  0  0  0
 15 14  1  0  0  0  0
 15 18  1  0  0  0  0
 16 18  2  0  0  0  0
 18 19  1  0  0  0  0
 19 13  1  6  0  0  0
 19 17  1  0  0  0  0
 20 17  1  0  0  0  0
 21 25  1  0  0  0  0
 22 24  1  0  0  0  0
 22 28  2  0  0  0  0
 23 27  2  0  0  0  0
 25 23  1  0  0  0  0
 26 22  1  0  0  0  0
 27 28  1  0  0  0  0
 29 26  1  0  0  0  0
 29 25  2  0  0  0  0
M  END
>  <MODEL>
3

>  <REMARK>
 VINA RESULT:      -6.9      3.925      9.169
  Name = 
  6 active torsions:
  status: ('A' for Active; 'I' for Inactive)
    1  A    between atoms: C_9  and  S_22
    2  A    between atoms: C_11  and  C_21
    3  A    between atoms: C_11  and  C_26
    4  A    between atoms: C_14  and  S_22
    5  A    between atoms: C_25  and  C_28
    6  A    between atoms: C_26  and  C_28
                            x       y       z     vdW  Elec       q    Type
                         _______ _______ _______ _____ _____    ______ ____

>  <TORSDO>
F 6

$$$$
=
 OpenBabel11072413463D

 29 31  0  0  1  0  0  0  0  0999 V2000
  161.8060  208.8330  150.9510 C   0  0  0  0  0  0  0  0  0  0  0  0
  161.0000  209.4480  151.7700 N   0  0  0  0  0  0  0  0  0  0  0  0
  162.4100  205.8970  153.0230 O   0  0  0  0  0  0  0  0  0  0  0  0
  160.4870  208.8490  152.9370 N   0  0  0  0  0  0  0  0  0  0  0  0
  160.8730  207.6760  153.3410 C   0  0  0  0  0  0  0  0  0  0  0  0
  162.3060  209.5290  149.8150 N   0  0  0  0  0  1  0  0  0  0  0  0
  161.8650  206.9320  152.5560 C   0  0  0  0  0  0  0  0  0  0  0  0
  162.1860  207.3830  151.1620 C   0  0  1  0  0  3  0  0  0  0  0  0
  160.5870  205.6090  150.7840 O   0  0  0  0  0  1  0  0  0  0  0  0
  161.5090  206.4480  150.1530 C   0  0  1  0  0  3  0  0  0  0  0  0
  160.8420  207.2360  149.0360 C   0  0  0  0  0  2  0  0  0  0  0  0
  162.8140  206.6200  147.8500 O   0  0  0  0  0  1  0  0  0  0  0  0
  161.4530  206.8900  147.6840 C   0  0  1  0  0  3  0  0  0  0  0  0
  162.5660  205.4910  144.9150 C   0  0  0  0  0  2  0  0  0  0  0  0
  162.6530  204.3210  145.8900 C   0  0  0  0  0  2  0  0  0  0  0  0
  161.6280  203.6460  147.9010 O   0  0  0  0  0  0  0  0  0  0  0  0
  160.1830  206.0100  145.6720 C   0  0  0  0  0  2  0  0  0  0  0  0
  161.6700  204.4830  147.0140 C   0  0  0  0  0  0  0  0  0  0  0  0
  160.7470  205.6750  147.0690 C   0  0  1  0  0  3  0  0  0  0  0  0
  161.1180  205.7040  144.4880 C   0  0  0  0  0  2  0  0  0  0  0  0
  160.1830  206.9860  154.8440 S   0  0  0  0  0  0  0  0  0  0  0  0
  162.6030  210.6730  156.6690 C   0  0  0  0  0  0  0  0  0  0  0  0
  159.8190  209.4530  156.1250 C   0  0  0  0  0  3  0  0  0  0  0  0
  164.1300  211.5250  156.5810 Cl  0  0  0  0  0  0  0  0  0  0  0  0
  160.7650  208.3520  155.8430 C   0  0  0  0  0  0  0  0  0  0  0  0
  162.5830  209.3020  157.2600 C   0  0  0  0  0  2  0  0  0  0  0  0
  160.1310  210.7370  156.3390 C   0  0  0  0  0  3  0  0  0  0  0  0
  161.4860  211.3200  156.3390 C   0  0  0  0  0  3  0  0  0  0  0  0
  162.0110  208.2980  156.3170 C   0  0  0  0  0  3  0  0  0  0  0  0
  1  8  1  0  0  0  0
  1  2  2  0  0  0  0
  2  4  1  0  0  0  0
  4  5  2  0  0  0  0
  5 21  1  0  0  0  0
  6  1  1  0  0  0  0
  7  3  2  0  0  0  0
  7  5  1  0  0  0  0
  8 10  1  6  0  0  0
  8  7  1  0  0  0  0
 10  9  1  1  0  0  0
 11 10  1  0  0  0  0
 13 12  1  1  0  0  0
 13 11  1  0  0  0  0
 14 15  1  0  0  0  0
 15 18  1  0  0  0  0
 17 19  1  0  0  0  0
 18 19  1  0  0  0  0
 18 16  2  0  0  0  0
 19 13  1  6  0  0  0
 20 14  1  0  0  0  0
 20 17  1  0  0  0  0
 21 25  1  0  0  0  0
 22 26  1  0  0  0  0
 23 27  2  0  0  0  0
 24 22  1  0  0  0  0
 25 23  1  0  0  0  0
 25 29  2  0  0  0  0
 27 28  1  0  0  0  0
 28 22  2  0  0  0  0
 29 26  1  0  0  0  0
M  END
>  <MODEL>
4

>  <REMARK>
 VINA RESULT:      -6.7      3.987      8.738
  Name = 
  6 active torsions:
  status: ('A' for Active; 'I' for Inactive)
    1  A    between atoms: C_9  and  S_22
    2  A    between atoms: C_11  and  C_21
    3  A    between atoms: C_11  and  C_26
    4  A    between atoms: C_14  and  S_22
    5  A    between atoms: C_25  and  C_28
    6  A    between atoms: C_26  and  C_28
                            x       y       z     vdW  Elec       q    Type
                         _______ _______ _______ _____ _____    ______ ____

>  <TORSDO>
F 6

$$$$
=
 OpenBabel11072413463D

 29 31  0  0  1  0  0  0  0  0999 V2000
  160.8620  203.9540  151.9930 C   0  0  0  0  0  0  0  0  0  0  0  0
  161.6050  204.7030  152.7580 N   0  0  0  0  0  0  0  0  0  0  0  0
  160.0810  206.4860  149.4920 O   0  0  0  0  0  0  0  0  0  0  0  0
  162.0220  205.9990  152.3920 N   0  0  0  0  0  0  0  0  0  0  0  0
  161.5990  206.5840  151.3130 C   0  0  0  0  0  0  0  0  0  0  0  0
  160.4560  202.6720  152.4610 N   0  0  0  0  0  1  0  0  0  0  0  0
  160.6670  205.8770  150.4260 C   0  0  0  0  0  0  0  0  0  0  0  0
  160.4580  204.4030  150.6060 C   0  0  1  0  0  3  0  0  0  0  0  0
  160.8740  202.2840  149.5170 O   0  0  0  0  0  1  0  0  0  0  0  0
  161.2060  203.6420  149.5050 C   0  0  1  0  0  3  0  0  0  0  0  0
  160.9340  204.2500  148.1360 C   0  0  0  0  0  2  0  0  0  0  0  0
  161.2060  202.8980  146.1940 O   0  0  0  0  0  1  0  0  0  0  0  0
  161.9050  203.7060  147.0960 C   0  0  1  0  0  3  0  0  0  0  0  0
  160.1740  205.8280  145.2610 C   0  0  0  0  0  2  0  0  0  0  0  0
  160.8090  206.7700  146.2790 C   0  0  0  0  0  2  0  0  0  0  0  0
  162.7060  206.8080  147.6750 O   0  0  0  0  0  0  0  0  0  0  0  0
  162.4260  204.7040  144.8230 C   0  0  0  0  0  2  0  0  0  0  0  0
  162.0840  206.1930  146.8250 C   0  0  0  0  0  0  0  0  0  0  0  0
  162.5940  204.8540  146.3490 C   0  0  1  0  0  3  0  0  0  0  0  0
  161.2070  205.4220  144.2150 C   0  0  0  0  0  2  0  0  0  0  0  0
  162.1660  208.2380  150.9220 S   0  0  0  0  0  0  0  0  0  0  0  0
  160.9010  209.9870  155.1790 C   0  0  0  0  0  0  0  0  0  0  0  0
  160.6580  210.2790  152.1140 C   0  0  0  0  0  3  0  0  0  0  0  0
  161.3880  210.0690  156.8590 Cl  0  0  0  0  0  0  0  0  0  0  0  0
  161.2950  208.9590  152.3090 C   0  0  0  0  0  0  0  0  0  0  0  0
  160.4340  208.6790  154.6330 C   0  0  0  0  0  2  0  0  0  0  0  0
  160.4560  211.2130  153.0510 C   0  0  0  0  0  3  0  0  0  0  0  0
  160.8260  211.1170  154.4770 C   0  0  0  0  0  3  0  0  0  0  0  0
  161.2280  208.2580  153.4430 C   0  0  0  0  0  3  0  0  0  0  0  0
  1  6  1  0  0  0  0
  1  2  2  0  0  0  0
  3  7  2  0  0  0  0
  4  2  1  0  0  0  0
  5  4  2  0  0  0  0
  7  8  1  0  0  0  0
  7  5  1  0  0  0  0
  8 10  1  6  0  0  0
  8  1  1  0  0  0  0
 10  9  1  6  0  0  0
 11 10  1  0  0  0  0
 13 12  1  6  0  0  0
 13 11  1  0  0  0  0
 14 15  1  0  0  0  0
 15 18  1  0  0  0  0
 17 19  1  0  0  0  0
 18 16  2  0  0  0  0
 19 18  1  0  0  0  0
 19 13  1  1  0  0  0
 20 17  1  0  0  0  0
 20 14  1  0  0  0  0
 21  5  1  0  0  0  0
 21 25  1  0  0  0  0
 22 24  1  0  0  0  0
 23 25  1  0  0  0  0
 23 27  2  0  0  0  0
 25 29  2  0  0  0  0
 26 22  1  0  0  0  0
 27 28  1  0  0  0  0
 28 22  2  0  0  0  0
 29 26  1  0  0  0  0
M  END
>  <MODEL>
5

>  <REMARK>
 VINA RESULT:      -6.7      4.321      9.117
  Name = 
  6 active torsions:
  status: ('A' for Active; 'I' for Inactive)
    1  A    between atoms: C_9  and  S_22
    2  A    between atoms: C_11  and  C_21
    3  A    between atoms: C_11  and  C_26
    4  A    between atoms: C_14  and  S_22
    5  A    between atoms: C_25  and  C_28
    6  A    between atoms: C_26  and  C_28
                            x       y       z     vdW  Elec       q    Type
                         _______ _______ _______ _____ _____    ______ ____

>  <TORSDO>
F 6

$$$$
=
 OpenBabel11072413463D

 29 31  0  0  1  0  0  0  0  0999 V2000
  160.9590  204.5080  151.4740 C   0  0  0  0  0  0  0  0  0  0  0  0
  160.4370  204.2870  150.3010 N   0  0  0  0  0  0  0  0  0  0  0  0
  162.8650  207.4800  150.5730 O   0  0  0  0  0  0  0  0  0  0  0  0
  160.5430  205.1960  149.2290 N   0  0  0  0  0  0  0  0  0  0  0  0
  161.2690  206.2700  149.3010 C   0  0  0  0  0  0  0  0  0  0  0  0
  160.8350  203.5160  152.4870 N   0  0  0  0  0  1  0  0  0  0  0  0
  161.9970  206.5680  150.5400 C   0  0  0  0  0  0  0  0  0  0  0  0
  161.6570  205.8130  151.7900 C   0  0  1  0  0  3  0  0  0  0  0  0
  160.8210  206.2060  154.0250 O   0  0  0  0  0  1  0  0  0  0  0  0
  160.8300  206.7080  152.7200 C   0  0  1  0  0  3  0  0  0  0  0  0
  161.3400  208.1410  152.7000 C   0  0  0  0  0  2  0  0  0  0  0  0
  161.5510  208.4290  155.0540 O   0  0  0  0  0  1  0  0  0  0  0  0
  160.8700  208.9060  153.9310 C   0  0  1  0  0  3  0  0  0  0  0  0
  158.3970  211.0780  154.1010 C   0  0  0  0  0  2  0  0  0  0  0  0
  159.2920  211.5620  155.2380 C   0  0  0  0  0  2  0  0  0  0  0  0
  161.5690  211.4530  155.8330 O   0  0  0  0  0  0  0  0  0  0  0  0
  160.3950  210.9550  152.5140 C   0  0  0  0  0  2  0  0  0  0  0  0
  160.7220  211.1680  155.0020 C   0  0  0  0  0  0  0  0  0  0  0  0
  161.1220  210.4080  153.7610 C   0  0  1  0  0  3  0  0  0  0  0  0
  158.9810  211.5120  152.7600 C   0  0  0  0  0  2  0  0  0  0  0  0
  161.3640  207.3710  147.8910 S   0  0  0  0  0  0  0  0  0  0  0  0
  161.2040  203.1420  145.6840 C   0  0  0  0  0  0  0  0  0  0  0  0
  160.9470  206.2040  145.3770 C   0  0  0  0  0  3  0  0  0  0  0  0
  160.9290  201.4340  145.9520 Cl  0  0  0  0  0  0  0  0  0  0  0  0
  161.5080  206.0160  146.7310 C   0  0  0  0  0  0  0  0  0  0  0  0
  162.4470  203.7600  146.2310 C   0  0  0  0  0  2  0  0  0  0  0  0
  160.4550  205.2490  144.5770 C   0  0  0  0  0  3  0  0  0  0  0  0
  160.3720  203.8080  144.8840 C   0  0  0  0  0  3  0  0  0  0  0  0
  162.1460  204.9130  147.1280 C   0  0  0  0  0  3  0  0  0  0  0  0
  1  8  1  0  0  0  0
  1  6  1  0  0  0  0
  2  1  2  0  0  0  0
  4  5  2  0  0  0  0
  4  2  1  0  0  0  0
  5  7  1  0  0  0  0
  7  3  2  0  0  0  0
  7  8  1  0  0  0  0
  8 10  1  1  0  0  0
 10  9  1  1  0  0  0
 11 10  1  0  0  0  0
 11 13  1  0  0  0  0
 13 12  1  1  0  0  0
 14 15  1  0  0  0  0
 17 20  1  0  0  0  0
 17 19  1  0  0  0  0
 18 15  1  0  0  0  0
 18 16  2  0  0  0  0
 19 13  1  1  0  0  0
 19 18  1  0  0  0  0
 20 14  1  0  0  0  0
 21  5  1  0  0  0  0
 22 24  1  0  0  0  0
 22 26  1  0  0  0  0
 23 25  1  0  0  0  0
 25 29  2  0  0  0  0
 25 21  1  0  0  0  0
 26 29  1  0  0  0  0
 27 28  1  0  0  0  0
 27 23  2  0  0  0  0
 28 22  2  0  0  0  0
M  END
>  <MODEL>
6

>  <REMARK>
 VINA RESULT:      -6.6      2.766      4.501
  Name = 
  6 active torsions:
  status: ('A' for Active; 'I' for Inactive)
    1  A    between atoms: C_9  and  S_22
    2  A    between atoms: C_11  and  C_21
    3  A    between atoms: C_11  and  C_26
    4  A    between atoms: C_14  and  S_22
    5  A    between atoms: C_25  and  C_28
    6  A    between atoms: C_26  and  C_28
                            x       y       z     vdW  Elec       q    Type
                         _______ _______ _______ _____ _____    ______ ____

>  <TORSDO>
F 6

$$$$
=
 OpenBabel11072413463D

 29 31  0  0  1  0  0  0  0  0999 V2000
  160.8950  206.2370  153.0000 C   0  0  0  0  0  0  0  0  0  0  0  0
  160.9050  206.6070  154.2490 N   0  0  0  0  0  0  0  0  0  0  0  0
  160.9710  209.5710  151.5320 O   0  0  0  0  0  0  0  0  0  0  0  0
  161.1190  207.9400  154.6520 N   0  0  0  0  0  0  0  0  0  0  0  0
  161.2070  208.9160  153.8010 C   0  0  0  0  0  0  0  0  0  0  0  0
  160.6330  204.8740  152.6830 N   0  0  0  0  0  1  0  0  0  0  0  0
  161.0970  208.6330  152.3640 C   0  0  0  0  0  0  0  0  0  0  0  0
  161.1960  207.2160  151.8860 C   0  0  1  0  0  3  0  0  0  0  0  0
  163.3470  206.1220  152.0460 O   0  0  0  0  0  1  0  0  0  0  0  0
  162.5750  206.9820  151.2590 C   0  0  1  0  0  3  0  0  0  0  0  0
  162.4480  206.4430  149.8410 C   0  0  0  0  0  2  0  0  0  0  0  0
  161.8980  208.0810  148.2020 O   0  0  0  0  0  1  0  0  0  0  0  0
  161.3350  207.1550  149.0840 C   0  0  1  0  0  3  0  0  0  0  0  0
  162.6450  205.2460  146.7390 C   0  0  0  0  0  2  0  0  0  0  0  0
  162.1190  204.1960  147.7120 C   0  0  0  0  0  2  0  0  0  0  0  0
  160.4560  204.0340  149.3730 O   0  0  0  0  0  0  0  0  0  0  0  0
  160.4210  206.4990  146.8110 C   0  0  0  0  0  2  0  0  0  0  0  0
  160.9760  204.7380  148.5230 C   0  0  0  0  0  0  0  0  0  0  0  0
  160.4770  206.1460  148.3120 C   0  0  1  0  0  3  0  0  0  0  0  0
  161.4910  205.8290  145.9300 C   0  0  0  0  0  2  0  0  0  0  0  0
  161.4670  210.5880  154.3920 S   0  0  0  0  0  0  0  0  0  0  0  0
  157.1080  212.1110  155.6010 C   0  0  0  0  0  0  0  0  0  0  0  0
  159.0620  211.5110  153.2870 C   0  0  0  0  0  3  0  0  0  0  0  0
  156.1920  212.8380  156.9040 Cl  0  0  0  0  0  0  0  0  0  0  0  0
  159.7110  210.9240  154.4780 C   0  0  0  0  0  0  0  0  0  0  0  0
  157.5830  210.7050  155.7590 C   0  0  0  0  0  2  0  0  0  0  0  0
  157.9910  212.3140  153.2760 C   0  0  0  0  0  3  0  0  0  0  0  0
  157.2340  212.7780  154.4550 C   0  0  0  0  0  3  0  0  0  0  0  0
  159.0620  210.5960  155.5960 C   0  0  0  0  0  3  0  0  0  0  0  0
  1  2  2  0  0  0  0
  2  4  1  0  0  0  0
  3  7  2  0  0  0  0
  5 21  1  0  0  0  0
  5  4  2  0  0  0  0
  6  1  1  0  0  0  0
  7  5  1  0  0  0  0
  8 10  1  1  0  0  0
  8  7  1  0  0  0  0
  8  1  1  0  0  0  0
 10  9  1  1  0  0  0
 11 10  1  0  0  0  0
 13 12  1  6  0  0  0
 13 11  1  0  0  0  0
 14 15  1  0  0  0  0
 15 18  1  0  0  0  0
 17 19  1  0  0  0  0
 18 16  2  0  0  0  0
 19 18  1  0  0  0  0
 19 13  1  1  0  0  0
 20 14  1  0  0  0  0
 20 17  1  0  0  0  0
 21 25  1  0  0  0  0
 22 26  1  0  0  0  0
 22 24  1  0  0  0  0
 23 25  1  0  0  0  0
 25 29  2  0  0  0  0
 27 23  2  0  0  0  0
 27 28  1  0  0  0  0
 28 22  2  0  0  0  0
 29 26  1  0  0  0  0
M  END
>  <MODEL>
7

>  <REMARK>
 VINA RESULT:      -6.5      3.839      8.556
  Name = 
  6 active torsions:
  status: ('A' for Active; 'I' for Inactive)
    1  A    between atoms: C_9  and  S_22
    2  A    between atoms: C_11  and  C_21
    3  A    between atoms: C_11  and  C_26
    4  A    between atoms: C_14  and  S_22
    5  A    between atoms: C_25  and  C_28
    6  A    between atoms: C_26  and  C_28
                            x       y       z     vdW  Elec       q    Type
                         _______ _______ _______ _____ _____    ______ ____

>  <TORSDO>
F 6

$$$$
=
 OpenBabel11072413463D

 29 31  0  0  1  0  0  0  0  0999 V2000
  161.8700  209.6650  150.7360 C   0  0  0  0  0  0  0  0  0  0  0  0
  161.0990  210.0710  151.7040 N   0  0  0  0  0  0  0  0  0  0  0  0
  162.6200  206.3700  152.0990 O   0  0  0  0  0  0  0  0  0  0  0  0
  160.6540  209.2240  152.7380 N   0  0  0  0  0  0  0  0  0  0  0  0
  161.0760  208.0020  152.8630 C   0  0  0  0  0  0  0  0  0  0  0  0
  162.3020  210.6000  149.7530 N   0  0  0  0  0  1  0  0  0  0  0  0
  162.0380  207.4680  151.8910 C   0  0  0  0  0  0  0  0  0  0  0  0
  162.2810  208.2140  150.6130 C   0  0  1  0  0  3  0  0  0  0  0  0
  162.4880  206.9470  148.5630 O   0  0  0  0  0  1  0  0  0  0  0  0
  161.5680  207.4990  149.4590 C   0  0  1  0  0  3  0  0  0  0  0  0
  160.6160  206.4320  149.9780 C   0  0  0  0  0  2  0  0  0  0  0  0
  160.3910  205.8570  147.6780 O   0  0  0  0  0  1  0  0  0  0  0  0
  160.4490  205.3090  148.9620 C   0  0  1  0  0  3  0  0  0  0  0  0
  159.9090  202.0640  149.1640 C   0  0  0  0  0  2  0  0  0  0  0  0
  160.7370  202.1450  147.8860 C   0  0  0  0  0  2  0  0  0  0  0  0
  162.3220  203.5980  146.9230 O   0  0  0  0  0  0  0  0  0  0  0  0
  161.5790  203.5510  150.3990 C   0  0  0  0  0  2  0  0  0  0  0  0
  161.6130  203.3650  147.8880 C   0  0  0  0  0  0  0  0  0  0  0  0
  161.6130  204.3160  149.0600 C   0  0  1  0  0  3  0  0  0  0  0  0
  160.8160  202.2140  150.3810 C   0  0  0  0  0  2  0  0  0  0  0  0
  160.4730  206.9890  154.2130 S   0  0  0  0  0  0  0  0  0  0  0  0
  162.4030  210.4940  156.8160 C   0  0  0  0  0  0  0  0  0  0  0  0
  159.8080  209.3170  155.6260 C   0  0  0  0  0  3  0  0  0  0  0  0
  163.8960  211.3600  157.1080 Cl  0  0  0  0  0  0  0  0  0  0  0  0
  160.8170  208.2540  155.4310 C   0  0  0  0  0  0  0  0  0  0  0  0
  162.3030  209.0720  157.2590 C   0  0  0  0  0  2  0  0  0  0  0  0
  160.0400  210.5760  156.0180 C   0  0  0  0  0  3  0  0  0  0  0  0
  161.3550  211.1630  156.3380 C   0  0  0  0  0  3  0  0  0  0  0  0
  161.9490  208.1620  156.1320 C   0  0  0  0  0  3  0  0  0  0  0  0
  1  2  2  0  0  0  0
  2  4  1  0  0  0  0
  4  5  2  0  0  0  0
  5 21  1  0  0  0  0
  6  1  1  0  0  0  0
  7  3  2  0  0  0  0
  7  5  1  0  0  0  0
  8 10  1  6  0  0  0
  8  1  1  0  0  0  0
  8  7  1  0  0  0  0
 10  9  1  6  0  0  0
 10 11  1  0  0  0  0
 13 12  1  6  0  0  0
 13 11  1  0  0  0  0
 14 20  1  0  0  0  0
 15 18  1  0  0  0  0
 15 14  1  0  0  0  0
 16 18  2  0  0  0  0
 18 19  1  0  0  0  0
 19 13  1  6  0  0  0
 19 17  1  0  0  0  0
 20 17  1  0  0  0  0
 21 25  1  0  0  0  0
 22 24  1  0  0  0  0
 22 26  1  0  0  0  0
 23 27  2  0  0  0  0
 25 23  1  0  0  0  0
 25 29  2  0  0  0  0
 27 28  1  0  0  0  0
 28 22  2  0  0  0  0
 29 26  1  0  0  0  0
M  END
>  <MODEL>
8

>  <REMARK>
 VINA RESULT:      -6.5      3.954      8.598
  Name = 
  6 active torsions:
  status: ('A' for Active; 'I' for Inactive)
    1  A    between atoms: C_9  and  S_22
    2  A    between atoms: C_11  and  C_21
    3  A    between atoms: C_11  and  C_26
    4  A    between atoms: C_14  and  S_22
    5  A    between atoms: C_25  and  C_28
    6  A    between atoms: C_26  and  C_28
                            x       y       z     vdW  Elec       q    Type
                         _______ _______ _______ _____ _____    ______ ____

>  <TORSDO>
F 6

$$$$
=
 OpenBabel11072413463D

 29 31  0  0  1  0  0  0  0  0999 V2000
  161.8150  206.3630  151.6310 C   0  0  0  0  0  0  0  0  0  0  0  0
  160.8400  205.6920  151.0860 N   0  0  0  0  0  0  0  0  0  0  0  0
  163.0450  207.9420  148.5860 O   0  0  0  0  0  0  0  0  0  0  0  0
  160.4400  205.8720  149.7470 N   0  0  0  0  0  0  0  0  0  0  0  0
  161.0910  206.6380  148.9250 C   0  0  0  0  0  0  0  0  0  0  0  0
  162.1770  206.0880  152.9800 N   0  0  0  0  0  1  0  0  0  0  0  0
  162.2780  207.3610  149.3990 C   0  0  0  0  0  0  0  0  0  0  0  0
  162.5410  207.4520  150.8720 C   0  0  1  0  0  3  0  0  0  0  0  0
  162.1760  209.7790  150.3220 O   0  0  0  0  0  1  0  0  0  0  0  0
  162.1770  208.8550  151.3720 C   0  0  1  0  0  3  0  0  0  0  0  0
  160.8330  208.8520  152.0850 C   0  0  0  0  0  2  0  0  0  0  0  0
  159.9300  211.0340  152.3950 O   0  0  0  0  0  1  0  0  0  0  0  0
  160.7060  210.0510  153.0160 C   0  0  1  0  0  3  0  0  0  0  0  0
  162.1790  210.6990  155.8920 C   0  0  0  0  0  2  0  0  0  0  0  0
  160.8610  211.4480  156.0620 C   0  0  0  0  0  2  0  0  0  0  0  0
  158.6700  211.3390  155.2050 O   0  0  0  0  0  0  0  0  0  0  0  0
  160.9470  208.6110  155.0890 C   0  0  0  0  0  2  0  0  0  0  0  0
  159.7830  210.8410  155.2100 C   0  0  0  0  0  0  0  0  0  0  0  0
  160.0660  209.6370  154.3450 C   0  0  1  0  0  3  0  0  0  0  0  0
  161.9560  209.2030  156.0900 C   0  0  0  0  0  2  0  0  0  0  0  0
  160.5270  206.8050  147.2330 S   0  0  0  0  0  0  0  0  0  0  0  0
  161.2100  202.0940  146.8910 C   0  0  0  0  0  0  0  0  0  0  0  0
  161.0250  204.7730  145.3680 C   0  0  0  0  0  3  0  0  0  0  0  0
  160.8870  200.5720  147.6950 Cl  0  0  0  0  0  0  0  0  0  0  0  0
  161.0850  205.1640  146.7920 C   0  0  0  0  0  0  0  0  0  0  0  0
  162.1760  203.0420  147.5190 C   0  0  0  0  0  2  0  0  0  0  0  0
  160.8550  203.5360  144.8860 C   0  0  0  0  0  3  0  0  0  0  0  0
  160.6950  202.3020  145.6800 C   0  0  0  0  0  3  0  0  0  0  0  0
  161.5650  204.3810  147.7610 C   0  0  0  0  0  3  0  0  0  0  0  0
  1  6  1  0  0  0  0
  2  1  2  0  0  0  0
  3  7  2  0  0  0  0
  4  2  1  0  0  0  0
  5  7  1  0  0  0  0
  5  4  2  0  0  0  0
  7  8  1  0  0  0  0
  8 10  1  1  0  0  0
  8  1  1  0  0  0  0
 10  9  1  6  0  0  0
 10 11  1  0  0  0  0
 11 13  1  0  0  0  0
 13 12  1  6  0  0  0
 14 15  1  0  0  0  0
 14 20  1  0  0  0  0
 16 18  2  0  0  0  0
 17 20  1  0  0  0  0
 18 15  1  0  0  0  0
 19 13  1  6  0  0  0
 19 17  1  0  0  0  0
 19 18  1  0  0  0  0
 21  5  1  0  0  0  0
 22 26  1  0  0  0  0
 22 24  1  0  0  0  0
 23 25  1  0  0  0  0
 25 21  1  0  0  0  0
 25 29  2  0  0  0  0
 26 29  1  0  0  0  0
 27 23  2  0  0  0  0
 27 28  1  0  0  0  0
 28 22  2  0  0  0  0
M  END
>  <MODEL>
9

>  <REMARK>
 VINA RESULT:      -6.5      2.916      4.524
  Name = 
  6 active torsions:
  status: ('A' for Active; 'I' for Inactive)
    1  A    between atoms: C_9  and  S_22
    2  A    between atoms: C_11  and  C_21
    3  A    between atoms: C_11  and  C_26
    4  A    between atoms: C_14  and  S_22
    5  A    between atoms: C_25  and  C_28
    6  A    between atoms: C_26  and  C_28
                            x       y       z     vdW  Elec       q    Type
                         _______ _______ _______ _____ _____    ______ ____

>  <TORSDO>
F 6

$$$$
