=
 OpenBabel11072412583D

 48 55  0  0  1  0  0  0  0  0999 V2000
  160.1140  211.5370  153.4020 C   0  0  2  0  0  3  0  0  0  0  0  0
  162.4240  207.3750  150.9890 C   0  0  0  0  0  2  0  0  0  0  0  0
  162.9150  211.4730  149.2540 O   0  0  0  0  0  0  0  0  0  0  0  0
  159.2220  211.1400  154.6020 C   0  0  1  0  0  3  0  0  0  0  0  0
  161.3630  209.0190  152.9740 P   0  0  2  0  0  4  0  0  0  0  0  0
  160.3460  207.5450  153.2840 C   0  0  0  0  0  2  0  0  0  0  0  0
  159.5660  212.6490  152.7580 O   0  0  0  0  0  1  0  0  0  0  0  0
  161.2210  206.4060  153.6990 C   0  0  0  0  0  0  0  0  0  0  0  0
  161.5400  211.4280  148.9280 C   0  0  1  0  0  0  0  0  0  0  0  0
  161.6310  209.3990  156.9720 O   0  0  0  0  0  1  0  0  0  0  0  0
  162.4430  209.3390  154.4130 C   0  0  0  0  0  2  0  0  0  0  0  0
  162.1450  210.5680  155.0270 O   0  0  0  0  0  0  0  0  0  0  0  0
  159.8050  210.0280  155.4990 C   0  0  1  0  0  3  0  0  0  0  0  0
  160.3170  210.4050  152.3770 C   0  0  2  0  0  3  0  0  0  0  0  0
  162.4040  208.8160  151.4850 C   0  0  2  0  0  3  0  0  0  0  0  0
  161.1960  210.3610  156.0530 C   0  0  1  0  0  3  0  0  0  0  0  0
  162.3130  210.1910  149.2220 C   0  0  2  0  0  0  0  0  0  0  0  0
  161.1560  210.8810  151.2060 C   0  0  2  0  0  3  0  0  0  0  0  0
  163.0480  206.4310  152.0040 C   0  0  0  0  0  2  0  0  0  0  0  0
  160.5900  211.7410  150.0940 C   0  0  0  0  0  2  0  0  0  0  0  0
  161.9640  205.6020  152.6780 C   0  0  0  0  0  2  0  0  0  0  0  0
  161.3720  206.1640  154.8840 O   0  0  0  0  0  0  0  0  0  0  0  0
  158.9230  209.6990  156.5250 O   0  0  0  0  0  1  0  0  0  0  0  0
  161.6530  209.6630  150.4830 C   0  0  2  0  0  3  0  0  0  0  0  0
  154.2650  214.4480  155.7150 O   0  0  0  0  0  0  0  0  0  0  0  0
  157.1650  212.7460  155.1480 C   0  0  1  0  0  3  0  0  0  0  0  0
  158.6140  212.3480  155.3600 C   0  0  2  0  0  0  0  0  0  0  0  0
  155.2070  211.2620  156.5870 C   0  0  0  0  0  2  0  0  0  0  0  0
  155.1880  213.7750  156.1330 C   0  0  0  0  0  0  0  0  0  0  0  0
  156.7080  210.8760  156.5680 C   0  0  0  0  0  2  0  0  0  0  0  0
  159.4700  213.4150  155.6240 O   0  0  0  0  0  1  0  0  0  0  0  0
  154.9040  212.6730  157.1390 C   0  0  0  0  0  2  0  0  0  0  0  0
  157.5990  212.1030  156.4640 C   0  0  2  0  0  3  0  0  0  0  0  0
  156.5890  214.0560  155.6350 C   0  0  0  0  0  2  0  0  0  0  0  0
  162.6380  209.3070  148.0210 C   0  0  0  0  0  2  0  0  0  0  0  0
  160.6730  208.0550  148.3980 O   0  0  0  0  0  0  0  0  0  0  0  0
  161.8450  208.0390  148.0530 C   0  0  0  0  0  0  0  0  0  0  0  0
  162.5070  206.7390  147.7300 C   0  0  0  0  0  2  0  0  0  0  0  0
  160.7250  206.2560  145.9190 C   0  0  0  0  0  1  0  0  0  0  0  0
  161.5420  205.8050  147.0820 C   0  0  0  0  0  0  0  0  0  0  0  0
  161.3910  204.6810  147.5310 O   0  0  0  0  0  0  0  0  0  0  0  0
  161.2180  211.8040  147.4850 C   0  0  0  0  0  2  0  0  0  0  0  0
  159.5330  212.2380  145.9200 C   0  0  0  0  0  2  0  0  0  0  0  0
  157.6450  213.7850  146.5270 C   0  0  0  0  0  2  0  0  0  0  0  0
  158.6690  213.4240  145.4580 C   0  0  0  0  0  2  0  0  0  0  0  0
  159.7580  213.5790  147.9310 C   0  0  0  0  0  2  0  0  0  0  0  0
  159.8340  212.2320  147.3610 N   0  0  0  0  0  0  0  0  0  0  0  0
  158.3200  214.0970  147.8710 C   0  0  0  0  0  2  0  0  0  0  0  0
  1  7  1  6  0  0  0
  1  4  1  0  0  0  0
  2 15  1  0  0  0  0
  2 19  1  0  0  0  0
  4 27  1  1  0  0  0
  4 13  1  0  0  0  0
  5  6  1  1  0  0  0
  5 11  1  0  0  0  0
  6  8  1  0  0  0  0
  8 22  2  0  0  0  0
  9 42  1  6  0  0  0
  9 17  1  0  0  0  0
  9  3  1  0  0  0  0
  9 20  1  0  0  0  0
 11 12  1  0  0  0  0
 12 16  1  0  0  0  0
 13 16  1  0  0  0  0
 13 23  1  1  0  0  0
 14  5  1  0  0  0  0
 14  1  1  0  0  0  0
 15  5  1  0  0  0  0
 16 10  1  0  0  0  0
 17  3  1  0  0  0  0
 17 24  1  0  0  0  0
 18 14  1  0  0  0  0
 19 21  1  0  0  0  0
 20 18  1  0  0  0  0
 21  8  1  0  0  0  0
 24 18  1  0  0  0  0
 24 15  1  0  0  0  0
 25 29  2  0  0  0  0
 26 27  1  0  0  0  0
 26 34  1  0  0  0  0
 26 33  1  0  0  0  0
 27 31  1  0  0  0  0
 27 33  1  0  0  0  0
 28 32  1  0  0  0  0
 29 32  1  0  0  0  0
 30 28  1  0  0  0  0
 33 30  1  0  0  0  0
 34 29  1  0  0  0  0
 35 37  1  0  0  0  0
 35 17  1  0  0  0  0
 37 36  2  0  0  0  0
 38 37  1  0  0  0  0
 39 40  1  0  0  0  0
 40 41  2  0  0  0  0
 40 38  1  0  0  0  0
 43 47  1  0  0  0  0
 44 48  1  0  0  0  0
 45 43  1  0  0  0  0
 45 44  1  0  0  0  0
 47 42  1  0  0  0  0
 47 46  1  0  0  0  0
 48 46  1  0  0  0  0
M  END
>  <MODEL>
1

>  <REMARK>
 VINA RESULT:      -2.8      0.000      0.000
  Name = 
  7 active torsions:
  status: ('A' for Active; 'I' for Inactive)
    1  A    between atoms: C_1  and  C_19
    2  A    between atoms: C_1  and  C_27
    3  A    between atoms: C_7  and  C_13
    4  A    between atoms: C_14  and  C_27
    5  A    between atoms: C_14  and  C_33
    6  A    between atoms: C_16  and  C_35
    7  A    between atoms: C_35  and  N_37
                            x       y       z     vdW  Elec       q    Type
                         _______ _______ _______ _____ _____    ______ ____

>  <TORSDO>
F 7

$$$$
=
 OpenBabel11072412583D

 48 55  0  0  1  0  0  0  0  0999 V2000
  160.7380  210.7760  151.8000 C   0  0  2  0  0  3  0  0  0  0  0  0
  160.9550  206.3370  154.7530 C   0  0  0  0  0  2  0  0  0  0  0  0
  163.4790  206.6510  151.0680 O   0  0  0  0  0  0  0  0  0  0  0  0
  159.6750  211.7900  152.2830 C   0  0  1  0  0  3  0  0  0  0  0  0
  160.6600  209.0110  154.0270 P   0  0  2  0  0  4  0  0  0  0  0  0
  159.0410  208.7750  154.8190 C   0  0  0  0  0  2  0  0  0  0  0  0
  160.8400  210.8320  150.4070 O   0  0  0  0  0  1  0  0  0  0  0  0
  159.2300  208.4500  156.2660 C   0  0  0  0  0  0  0  0  0  0  0  0
  162.2790  206.5930  150.3210 C   0  0  1  0  0  0  0  0  0  0  0  0
  160.7660  212.6070  155.8320 O   0  0  0  0  0  1  0  0  0  0  0  0
  161.6470  210.2160  154.9840 C   0  0  0  0  0  2  0  0  0  0  0  0
  161.9250  211.3730  154.2360 O   0  0  0  0  0  0  0  0  0  0  0  0
  159.5840  211.9470  153.8150 C   0  0  1  0  0  3  0  0  0  0  0  0
  160.4540  209.3250  152.2290 C   0  0  2  0  0  3  0  0  0  0  0  0
  161.5890  207.4400  153.9140 C   0  0  2  0  0  3  0  0  0  0  0  0
  160.9170  212.3350  154.4670 C   0  0  1  0  0  3  0  0  0  0  0  0
  162.3410  206.1340  151.7360 C   0  0  2  0  0  0  0  0  0  0  0  0
  161.5050  208.3810  151.6760 C   0  0  2  0  0  3  0  0  0  0  0  0
  160.9720  206.6660  156.2370 C   0  0  0  0  0  2  0  0  0  0  0  0
  161.5080  207.9180  150.2340 C   0  0  0  0  0  2  0  0  0  0  0  0
  159.5740  207.0580  156.6970 C   0  0  0  0  0  2  0  0  0  0  0  0
  159.1540  209.3370  157.0970 O   0  0  0  0  0  0  0  0  0  0  0  0
  158.5760  212.8410  154.1680 O   0  0  0  0  0  1  0  0  0  0  0  0
  161.4140  207.1000  152.4520 C   0  0  2  0  0  3  0  0  0  0  0  0
  158.8100  214.4530  146.9060 O   0  0  0  0  0  0  0  0  0  0  0  0
  159.4060  213.1170  149.9870 C   0  0  1  0  0  3  0  0  0  0  0  0
  159.6620  213.1170  151.4820 C   0  0  2  0  0  0  0  0  0  0  0  0
  156.6880  212.9550  149.1530 C   0  0  0  0  0  2  0  0  0  0  0  0
  158.5300  214.3660  148.0870 C   0  0  0  0  0  0  0  0  0  0  0  0
  157.1240  212.8030  150.6330 C   0  0  0  0  0  2  0  0  0  0  0  0
  160.5290  214.1170  151.9160 O   0  0  0  0  0  1  0  0  0  0  0  0
  157.0690  214.3010  148.4970 C   0  0  0  0  0  2  0  0  0  0  0  0
  158.3460  213.6530  150.9460 C   0  0  2  0  0  3  0  0  0  0  0  0
  159.6470  214.3230  149.1080 C   0  0  0  0  0  2  0  0  0  0  0  0
  162.2950  204.6240  151.9500 C   0  0  0  0  0  2  0  0  0  0  0  0
  160.2790  203.8390  152.8930 O   0  0  0  0  0  0  0  0  0  0  0  0
  160.8930  204.1090  151.8710 C   0  0  0  0  0  0  0  0  0  0  0  0
  160.2660  203.8580  150.5390 C   0  0  0  0  0  2  0  0  0  0  0  0
  160.7230  202.2760  148.5450 C   0  0  0  0  0  1  0  0  0  0  0  0
  160.6600  202.5190  150.0150 C   0  0  0  0  0  0  0  0  0  0  0  0
  160.8910  201.6080  150.7910 O   0  0  0  0  0  0  0  0  0  0  0  0
  162.2890  205.5730  149.1860 C   0  0  0  0  0  2  0  0  0  0  0  0
  160.5110  206.2220  147.8100 C   0  0  0  0  0  2  0  0  0  0  0  0
  160.8970  206.5150  145.3410 C   0  0  0  0  0  2  0  0  0  0  0  0
  159.9770  205.9180  146.3990 C   0  0  0  0  0  2  0  0  0  0  0  0
  162.5890  205.3880  146.8720 C   0  0  0  0  0  2  0  0  0  0  0  0
  161.9790  206.2120  147.9180 N   0  0  0  0  0  0  0  0  0  0  0  0
  162.3380  206.0080  145.4970 C   0  0  0  0  0  2  0  0  0  0  0  0
  1  7  1  6  0  0  0
  1 14  1  0  0  0  0
  1  4  1  0  0  0  0
  2 19  1  0  0  0  0
  3 17  1  0  0  0  0
  4 27  1  6  0  0  0
  4 13  1  0  0  0  0
  5  6  1  1  0  0  0
  5 11  1  0  0  0  0
  6  8  1  0  0  0  0
  8 21  1  0  0  0  0
  8 22  2  0  0  0  0
  9 42  1  6  0  0  0
  9  3  1  0  0  0  0
  9 17  1  0  0  0  0
 12 16  1  0  0  0  0
 12 11  1  0  0  0  0
 13 23  1  6  0  0  0
 13 16  1  0  0  0  0
 14  5  1  0  0  0  0
 15  5  1  0  0  0  0
 15  2  1  0  0  0  0
 16 10  1  0  0  0  0
 17 35  1  0  0  0  0
 17 24  1  0  0  0  0
 18 14  1  0  0  0  0
 18 24  1  0  0  0  0
 19 21  1  0  0  0  0
 20  9  1  0  0  0  0
 20 18  1  0  0  0  0
 24 15  1  0  0  0  0
 25 29  2  0  0  0  0
 26 33  1  0  0  0  0
 26 27  1  0  0  0  0
 27 31  1  0  0  0  0
 28 30  1  0  0  0  0
 29 32  1  0  0  0  0
 29 34  1  0  0  0  0
 30 33  1  0  0  0  0
 32 28  1  0  0  0  0
 33 27  1  0  0  0  0
 34 26  1  0  0  0  0
 37 35  1  0  0  0  0
 37 36  2  0  0  0  0
 38 37  1  0  0  0  0
 39 40  1  0  0  0  0
 40 38  1  0  0  0  0
 40 41  2  0  0  0  0
 43 47  1  0  0  0  0
 44 48  1  0  0  0  0
 44 45  1  0  0  0  0
 45 43  1  0  0  0  0
 46 47  1  0  0  0  0
 47 42  1  0  0  0  0
 48 46  1  0  0  0  0
M  END
>  <MODEL>
2

>  <REMARK>
 VINA RESULT:      -2.7      2.723      5.392
  Name = 
  7 active torsions:
  status: ('A' for Active; 'I' for Inactive)
    1  A    between atoms: C_1  and  C_19
    2  A    between atoms: C_1  and  C_27
    3  A    between atoms: C_7  and  C_13
    4  A    between atoms: C_14  and  C_27
    5  A    between atoms: C_14  and  C_33
    6  A    between atoms: C_16  and  C_35
    7  A    between atoms: C_35  and  N_37
                            x       y       z     vdW  Elec       q    Type
                         _______ _______ _______ _____ _____    ______ ____

>  <TORSDO>
F 7

$$$$
=
 OpenBabel11072412583D

 48 55  0  0  1  0  0  0  0  0999 V2000
  159.7820  210.6580  153.3880 C   0  0  2  0  0  3  0  0  0  0  0  0
  161.8790  210.3930  148.4880 C   0  0  0  0  0  2  0  0  0  0  0  0
  160.2320  206.6830  150.3780 O   0  0  0  0  0  0  0  0  0  0  0  0
  159.9340  212.0470  154.0530 C   0  0  1  0  0  3  0  0  0  0  0  0
  160.5960  211.3720  150.7590 P   0  0  2  0  0  4  0  0  0  0  0  0
  161.8950  212.6370  150.6270 C   0  0  0  0  0  2  0  0  0  0  0  0
  159.8660  209.6600  154.3630 O   0  0  0  0  0  1  0  0  0  0  0  0
  161.7380  213.3890  149.3450 C   0  0  0  0  0  0  0  0  0  0  0  0
  161.3140  206.7460  151.2870 C   0  0  1  0  0  0  0  0  0  0  0  0
  158.0810  214.3760  151.6880 O   0  0  0  0  0  1  0  0  0  0  0  0
  158.9580  212.1380  150.4890 C   0  0  0  0  0  2  0  0  0  0  0  0
  158.1450  212.0510  151.6330 O   0  0  0  0  0  0  0  0  0  0  0  0
  159.6930  213.2420  153.1070 C   0  0  1  0  0  3  0  0  0  0  0  0
  160.8220  210.3790  152.2870 C   0  0  2  0  0  3  0  0  0  0  0  0
  160.8330  210.0340  149.5380 C   0  0  2  0  0  3  0  0  0  0  0  0
  158.3210  213.2090  152.4230 C   0  0  1  0  0  3  0  0  0  0  0  0
  161.3420  207.4730  149.9900 C   0  0  2  0  0  0  0  0  0  0  0  0
  160.6470  208.9820  151.7190 C   0  0  2  0  0  3  0  0  0  0  0  0
  161.4560  211.5860  147.6460 C   0  0  0  0  0  2  0  0  0  0  0  0
  161.1300  207.7420  152.4430 C   0  0  0  0  0  2  0  0  0  0  0  0
  162.2490  212.8190  148.0580 C   0  0  0  0  0  2  0  0  0  0  0  0
  161.1430  214.4520  149.3390 O   0  0  0  0  0  0  0  0  0  0  0  0
  159.8930  214.4510  153.7700 O   0  0  0  0  0  1  0  0  0  0  0  0
  161.3840  208.9310  150.4130 C   0  0  2  0  0  3  0  0  0  0  0  0
  155.2860  214.2510  157.2600 O   0  0  0  0  0  0  0  0  0  0  0  0
  158.0050  212.9950  155.6290 C   0  0  1  0  0  3  0  0  0  0  0  0
  159.2550  212.1560  155.4420 C   0  0  2  0  0  0  0  0  0  0  0  0
  155.5350  211.8000  154.8660 C   0  0  0  0  0  2  0  0  0  0  0  0
  155.9450  213.2960  156.8960 C   0  0  0  0  0  0  0  0  0  0  0  0
  156.9090  211.1400  154.5870 C   0  0  0  0  0  2  0  0  0  0  0  0
  160.0950  212.1200  156.5520 O   0  0  0  0  0  1  0  0  0  0  0  0
  155.2310  212.0680  156.3570 C   0  0  0  0  0  2  0  0  0  0  0  0
  157.9190  211.4710  155.6760 C   0  0  2  0  0  3  0  0  0  0  0  0
  157.4540  213.3630  156.9880 C   0  0  0  0  0  2  0  0  0  0  0  0
  162.2610  206.8920  148.9190 C   0  0  0  0  0  2  0  0  0  0  0  0
  160.3220  206.0380  147.8800 O   0  0  0  0  0  0  0  0  0  0  0  0
  161.4790  206.4060  147.7410 C   0  0  0  0  0  0  0  0  0  0  0  0
  162.1340  206.3060  146.4020 C   0  0  0  0  0  2  0  0  0  0  0  0
  161.5180  203.8660  145.8120 C   0  0  0  0  0  1  0  0  0  0  0  0
  162.5450  204.9010  146.1200 C   0  0  0  0  0  0  0  0  0  0  0  0
  163.7220  204.5890  146.1850 O   0  0  0  0  0  0  0  0  0  0  0  0
  162.0830  205.4380  151.4480 C   0  0  0  0  0  2  0  0  0  0  0  0
  161.4420  203.3030  152.1630 C   0  0  0  0  0  2  0  0  0  0  0  0
  160.5760  201.6420  150.4850 C   0  0  0  0  0  2  0  0  0  0  0  0
  161.5200  201.8510  151.6620 C   0  0  0  0  0  2  0  0  0  0  0  0
  161.7250  203.8090  149.8050 C   0  0  0  0  0  2  0  0  0  0  0  0
  161.2460  204.3020  151.0990 N   0  0  0  0  0  0  0  0  0  0  0  0
  160.8730  202.6250  149.3430 C   0  0  0  0  0  2  0  0  0  0  0  0
  1  4  1  0  0  0  0
  1  7  1  1  0  0  0
  2 15  1  0  0  0  0
  3  9  1  0  0  0  0
  4 27  1  1  0  0  0
  5 11  1  6  0  0  0
  5 14  1  0  0  0  0
  6  5  1  0  0  0  0
  8  6  1  0  0  0  0
  9 42  1  1  0  0  0
  9 20  1  0  0  0  0
 10 16  1  0  0  0  0
 11 12  1  0  0  0  0
 12 16  1  0  0  0  0
 13 23  1  1  0  0  0
 13  4  1  0  0  0  0
 14  1  1  0  0  0  0
 15 24  1  0  0  0  0
 15  5  1  0  0  0  0
 16 13  1  0  0  0  0
 17  3  1  0  0  0  0
 17 24  1  0  0  0  0
 17  9  1  0  0  0  0
 18 14  1  0  0  0  0
 18 20  1  0  0  0  0
 19 21  1  0  0  0  0
 19  2  1  0  0  0  0
 21  8  1  0  0  0  0
 22  8  2  0  0  0  0
 24 18  1  0  0  0  0
 26 33  1  0  0  0  0
 26 34  1  0  0  0  0
 27 26  1  0  0  0  0
 27 33  1  0  0  0  0
 27 31  1  0  0  0  0
 28 32  1  0  0  0  0
 29 34  1  0  0  0  0
 29 25  2  0  0  0  0
 30 28  1  0  0  0  0
 30 33  1  0  0  0  0
 32 29  1  0  0  0  0
 35 17  1  0  0  0  0
 37 36  2  0  0  0  0
 37 35  1  0  0  0  0
 38 37  1  0  0  0  0
 39 40  1  0  0  0  0
 40 41  2  0  0  0  0
 40 38  1  0  0  0  0
 44 45  1  0  0  0  0
 45 43  1  0  0  0  0
 46 47  1  0  0  0  0
 47 42  1  0  0  0  0
 47 43  1  0  0  0  0
 48 46  1  0  0  0  0
 48 44  1  0  0  0  0
M  END
>  <MODEL>
3

>  <REMARK>
 VINA RESULT:      -1.1      2.408      5.743
  Name = 
  7 active torsions:
  status: ('A' for Active; 'I' for Inactive)
    1  A    between atoms: C_1  and  C_19
    2  A    between atoms: C_1  and  C_27
    3  A    between atoms: C_7  and  C_13
    4  A    between atoms: C_14  and  C_27
    5  A    between atoms: C_14  and  C_33
    6  A    between atoms: C_16  and  C_35
    7  A    between atoms: C_35  and  N_37
                            x       y       z     vdW  Elec       q    Type
                         _______ _______ _______ _____ _____    ______ ____

>  <TORSDO>
F 7

$$$$
