=
 OpenBabel11072409463D

 49 52  0  0  1  0  0  0  0  0999 V2000
  160.8410  212.3990  151.8250 C   0  0  0  0  0  2  0  0  0  0  0  0
  160.4430  204.4590  152.4880 C   0  0  2  0  0  3  0  0  0  0  0  0
  160.9860  205.9430  154.3380 N   0  0  0  0  0  2  0  0  0  0  0  0
  159.7120  204.3690  151.1430 C   0  0  0  0  0  2  0  0  0  0  0  0
  161.6290  212.0620  148.8380 C   0  0  2  0  0  3  0  0  0  0  0  0
  161.6190  207.2260  154.6000 C   0  0  2  0  0  3  0  0  0  0  0  0
  161.1090  208.5920  149.9080 C   0  0  2  0  0  3  0  0  0  0  0  0
  159.4970  207.6070  155.8310 O   0  0  0  0  0  1  0  0  0  0  0  0
  161.5990  203.3530  148.2700 C   0  0  0  0  0  0  0  0  0  0  0  0
  161.8910  211.0480  149.9670 C   0  0  1  0  0  3  0  0  0  0  0  0
  161.9650  207.6580  150.7480 C   0  0  0  0  0  2  0  0  0  0  0  0
  161.8930  207.3370  156.0990 C   0  0  0  0  0  2  0  0  0  0  0  0
  159.8080  212.3420  152.9420 C   0  0  0  0  0  2  0  0  0  0  0  0
  160.6550  205.8970  152.9260 C   0  0  0  0  0  2  0  0  0  0  0  0
  160.1730  206.3580  149.5750 C   0  0  0  0  0  2  0  0  0  0  0  0
  161.4300  207.1930  149.4040 C   0  0  1  0  0  3  0  0  0  0  0  0
  160.7590  211.1310  150.9970 C   0  0  0  0  0  2  0  0  0  0  0  0
  160.4750  204.9560  149.9890 C   0  0  0  0  0  0  0  0  0  0  0  0
  159.5390  209.5800  153.4500 O   0  0  0  0  0  0  0  0  0  0  0  0
  161.6260  209.9570  147.8850 C   0  0  0  0  0  0  0  0  0  0  0  0
  161.4270  211.3010  147.6610 O   0  0  0  0  0  0  0  0  0  0  0  0
  160.3420  211.6600  154.0780 O   0  0  0  0  0  0  0  0  0  0  0  0
  160.7490  208.1120  155.4840 C   0  0  1  0  0  0  0  0  0  0  0  0
  160.2290  210.2750  154.2510 C   0  0  0  0  0  0  0  0  0  0  0  0
  160.9130  209.6400  155.4290 C   0  0  2  0  0  3  0  0  0  0  0  0
  161.7470  203.6680  152.4780 C   0  0  0  0  0  1  0  0  0  0  0  0
  161.5470  209.0980  146.9700 O   0  0  0  0  0  0  0  0  0  0  0  0
  162.0080  209.6600  149.2840 C   0  0  2  0  0  3  0  0  0  0  0  0
  161.0350  204.1510  149.1340 C   0  0  0  0  0  0  0  0  0  0  0  0
  161.2340  201.9270  148.2480 C   0  0  0  0  0  3  0  0  0  0  0  0
  161.1420  201.2480  149.3050 O   0  0  0  0  0  0  0  0  0  0  0  0
  163.8630  212.3770  147.9910 O   0  0  0  0  0  1  0  0  0  0  0  0
  162.8140  213.0080  148.6710 C   0  0  0  0  0  2  0  0  0  0  0  0
  162.5560  203.8970  147.3980 O   0  0  0  0  0  0  0  0  0  0  0  0
  162.3000  204.7900  146.3470 C   0  0  0  0  0  0  0  0  0  0  0  0
  162.5450  206.0190  146.4510 O   0  0  0  0  0  0  0  0  0  0  0  0
  161.7800  204.2610  145.0590 C   0  0  0  0  0  2  0  0  0  0  0  0
  161.2840  205.4060  144.1990 C   0  0  0  0  0  1  0  0  0  0  0  0
  162.2620  210.0310  155.4630 O   0  0  0  0  0  0  0  0  0  0  0  0
  162.2420  211.2720  155.9160 O   0  0  0  0  0  0  0  0  0  0  0  0
  163.7550  210.0880  157.1310 O   0  0  0  0  0  1  0  0  0  0  0  0
  162.9590  211.2300  157.1130 C   0  0  1  0  0  3  0  0  0  0  0  0
  163.7690  212.3620  157.2070 O   0  0  0  0  0  0  0  0  0  0  0  0
  165.0630  211.8600  157.2600 C   0  0  0  0  0  2  0  0  0  0  0  0
  166.0540  213.0000  157.1160 C   0  0  0  0  0  2  0  0  0  0  0  0
  167.0550  212.7550  155.5710 P   0  0  1  0  0  0  0  0  0  0  0  0
  167.3610  214.4420  155.3020 O   0  0  0  0  0  1  0  0  0  0  0  0
  168.6750  212.4100  156.4140 C   0  0  0  0  0  2  0  0  0  0  0  0
  169.1590  211.0910  156.0280 N   0  0  0  0  0  1  0  0  0  0  0  0
  1 13  1  0  0  0  0
  2 26  1  6  0  0  0
  2 14  1  0  0  0  0
  3  6  1  0  0  0  0
  4  2  1  0  0  0  0
  5 33  1  6  0  0  0
  5 10  1  0  0  0  0
  6 23  1  0  0  0  0
  6 12  1  1  0  0  0
  7 11  1  1  0  0  0
  9 29  2  0  0  0  0
 10 17  1  1  0  0  0
 13 22  1  0  0  0  0
 14  3  1  0  0  0  0
 15 18  1  0  0  0  0
 16 15  1  1  0  0  0
 16  7  1  0  0  0  0
 16 11  1  0  0  0  0
 17  1  1  0  0  0  0
 18  4  1  0  0  0  0
 19 24  2  0  0  0  0
 21 20  1  0  0  0  0
 21  5  1  0  0  0  0
 22 24  1  0  0  0  0
 23  8  1  1  0  0  0
 23 12  1  0  0  0  0
 24 25  1  0  0  0  0
 25 39  1  6  0  0  0
 25 23  1  0  0  0  0
 27 20  2  0  0  0  0
 28 20  1  6  0  0  0
 28  7  1  0  0  0  0
 28 10  1  0  0  0  0
 29 18  2  0  0  0  0
 30  9  1  0  0  0  0
 30 31  2  0  0  0  0
 32 33  1  0  0  0  0
 34  9  1  0  0  0  0
 35 36  2  0  0  0  0
 35 34  1  0  0  0  0
 37 35  1  0  0  0  0
 38 37  1  0  0  0  0
 39 40  1  0  0  0  0
 40 42  1  0  0  0  0
 42 41  1  6  0  0  0
 42 43  1  0  0  0  0
 43 44  1  0  0  0  0
 45 44  1  0  0  0  0
 46 47  1  6  0  0  0
 46 48  1  0  0  0  0
 46 45  1  0  0  0  0
 49 48  1  0  0  0  0
M  END
>  <MODEL>
1

>  <REMARK>
 VINA RESULT:      -2.4      0.000      0.000
  Name = 
  13 active torsions:
  status: ('A' for Active; 'I' for Inactive)
    1  A    between atoms: C_2  and  P_27
    2  A    between atoms: O_5  and  C_20
    3  A    between atoms: O_5  and  C_21
    4  A    between atoms: O_6  and  C_12
    5  A    between atoms: O_6  and  O_14
    6  A    between atoms: C_7  and  C_21
    7  A    between atoms: C_9  and  C_20
    8  A    between atoms: C_11  and  C_43
    9  A    between atoms: C_12  and  O_16
   10  A    between atoms: O_14  and  C_44
   11  A    between atoms: O_16  and  C_17
   12  A    between atoms: C_17  and  C_45
   13  A    between atoms: P_27  and  C_45
                            x       y       z     vdW  Elec       q    Type
                         _______ _______ _______ _____ _____    ______ ____

>  <TORSDO>
F 13

$$$$
