=
 OpenBabel11072415243D

 25 27  0  0  1  0  0  0  0  0999 V2000
  162.0680  204.3600  146.9440 C   0  0  2  0  0  3  0  0  0  0  0  0
  160.2570  205.8750  146.0150 C   0  0  0  0  0  1  0  0  0  0  0  0
  162.6350  205.9410  145.3030 C   0  0  0  0  0  2  0  0  0  0  0  0
  161.7060  205.7500  146.4840 C   0  0  2  0  0  0  0  0  0  0  0  0
  162.5360  203.7000  145.6700 C   0  0  0  0  0  2  0  0  0  0  0  0
  163.0400  204.6860  144.8020 O   0  0  0  0  0  0  0  0  0  0  0  0
  160.3340  201.4470  148.0140 N   0  0  0  0  0  2  0  0  0  0  0  0
  160.7390  202.0280  149.2680 C   0  0  0  0  0  0  0  0  0  0  0  0
  161.3760  201.1010  150.2670 C   0  0  0  0  0  2  0  0  0  0  0  0
  159.9540  201.6330  150.4880 C   0  0  0  0  0  2  0  0  0  0  0  0
  160.8170  202.2850  147.0470 O   0  0  0  0  0  0  0  0  0  0  0  0
  161.2420  203.4020  149.1080 C   0  0  0  0  0  2  0  0  0  0  0  0
  160.9500  203.5700  147.6340 C   0  0  1  0  0  3  0  0  0  0  0  0
  161.1250  207.0190  148.6350 C   0  0  0  0  0  0  0  0  0  0  0  0
  160.0080  206.4460  148.7460 O   0  0  0  0  0  0  0  0  0  0  0  0
  162.0000  206.7140  147.5410 N   0  0  0  0  0  2  0  0  0  0  0  0
  161.5400  208.0170  149.6660 C   0  0  2  0  0  3  0  0  0  0  0  0
  161.9380  209.2670  149.0280 N   0  0  0  0  0  2  0  0  0  0  0  0
  161.9400  210.5190  149.7160 C   0  0  0  0  0  0  0  0  0  0  0  0
  161.6140  210.5850  150.9310 O   0  0  0  0  0  0  0  0  0  0  0  0
  162.3340  211.7540  148.9920 C   0  0  0  0  0  1  0  0  0  0  0  0
  162.6790  207.4690  150.4730 C   0  0  0  0  0  3  0  0  0  0  0  0
  162.5110  206.7250  151.5720 C   0  0  0  0  0  3  0  0  0  0  0  0
  161.1510  204.8920  152.4800 C   0  0  0  0  0  1  0  0  0  0  0  0
  161.1630  206.3580  152.1040 C   0  0  0  0  0  2  0  0  0  0  0  0
  1  5  1  6  0  0  0
  1 13  1  0  0  0  0
  3  4  1  0  0  0  0
  4  2  1  6  0  0  0
  4  1  1  0  0  0  0
  4 16  1  0  0  0  0
  6  3  1  0  0  0  0
  6  5  1  0  0  0  0
  7  8  1  0  0  0  0
  8  9  1  0  0  0  0
  8 10  1  0  0  0  0
  9 10  1  0  0  0  0
 11 13  1  0  0  0  0
 11  7  1  0  0  0  0
 12  8  1  0  0  0  0
 13 12  1  1  0  0  0
 14 15  2  0  0  0  0
 14 17  1  0  0  0  0
 16 14  1  0  0  0  0
 17 22  1  6  0  0  0
 18 17  1  0  0  0  0
 18 19  1  0  0  0  0
 19 20  2  0  0  0  0
 21 19  1  0  0  0  0
 22 23  2  0  0  0  0
 23 25  1  0  0  0  0
 25 24  1  0  0  0  0
M  END
>  <MODEL>
1

>  <REMARK>
 VINA RESULT:      -6.6      0.000      0.000
  Name = 
  6 active torsions:
  status: ('A' for Active; 'I' for Inactive)
    1  A    between atoms: C_1  and  N_6
    2  A    between atoms: C_1  and  C_7
    3  A    between atoms: C_1  and  C_8
    4  A    between atoms: C_5  and  C_23
    5  A    between atoms: C_17  and  N_20
    6  A    between atoms: C_18  and  C_21
                            x       y       z     vdW  Elec       q    Type
                         _______ _______ _______ _____ _____    ______ ____

>  <TORSDO>
F 6

$$$$
=
 OpenBabel11072415243D

 25 27  0  0  1  0  0  0  0  0999 V2000
  160.5020  210.0490  152.6310 C   0  0  2  0  0  3  0  0  0  0  0  0
  162.9580  210.0130  151.9930 C   0  0  0  0  0  1  0  0  0  0  0  0
  161.1430  210.8460  150.5180 C   0  0  0  0  0  2  0  0  0  0  0  0
  161.5150  209.7940  151.5420 C   0  0  2  0  0  0  0  0  0  0  0  0
  160.2140  211.5220  152.4790 C   0  0  0  0  0  2  0  0  0  0  0  0
  160.4370  211.8970  151.1410 O   0  0  0  0  0  0  0  0  0  0  0  0
  160.1070  209.5810  156.1330 N   0  0  0  0  0  2  0  0  0  0  0  0
  160.3510  208.2350  155.6800 C   0  0  0  0  0  0  0  0  0  0  0  0
  159.4200  207.1720  156.1940 C   0  0  0  0  0  2  0  0  0  0  0  0
  160.8670  207.2560  156.6980 C   0  0  0  0  0  2  0  0  0  0  0  0
  160.1390  210.3590  155.0080 O   0  0  0  0  0  0  0  0  0  0  0  0
  160.8240  208.1950  154.2870 C   0  0  0  0  0  2  0  0  0  0  0  0
  160.9420  209.6840  154.0540 C   0  0  1  0  0  3  0  0  0  0  0  0
  161.7140  208.0420  149.6800 C   0  0  0  0  0  0  0  0  0  0  0  0
  162.2490  208.8580  148.8830 O   0  0  0  0  0  0  0  0  0  0  0  0
  161.3330  208.4500  151.0010 N   0  0  0  0  0  2  0  0  0  0  0  0
  161.4880  206.6320  149.2410 C   0  0  2  0  0  3  0  0  0  0  0  0
  160.6840  206.6050  148.0240 N   0  0  0  0  0  2  0  0  0  0  0  0
  161.2190  206.2350  146.7520 C   0  0  0  0  0  0  0  0  0  0  0  0
  162.4260  205.8890  146.6390 O   0  0  0  0  0  0  0  0  0  0  0  0
  160.3440  206.2550  145.5530 C   0  0  0  0  0  1  0  0  0  0  0  0
  160.7960  205.8670  150.3280 C   0  0  0  0  0  3  0  0  0  0  0  0
  160.6740  204.5350  150.3270 C   0  0  0  0  0  3  0  0  0  0  0  0
  160.6390  202.2810  149.3510 C   0  0  0  0  0  1  0  0  0  0  0  0
  161.2260  203.6710  149.2390 C   0  0  0  0  0  2  0  0  0  0  0  0
  1  5  1  1  0  0  0
  1 13  1  0  0  0  0
  3  6  1  0  0  0  0
  3  4  1  0  0  0  0
  4  2  1  1  0  0  0
  4  1  1  0  0  0  0
  6  5  1  0  0  0  0
  8  7  1  0  0  0  0
  8  9  1  0  0  0  0
  8 10  1  0  0  0  0
  9 10  1  0  0  0  0
 11  7  1  0  0  0  0
 12  8  1  0  0  0  0
 13 12  1  1  0  0  0
 13 11  1  0  0  0  0
 14 16  1  0  0  0  0
 15 14  2  0  0  0  0
 16  4  1  0  0  0  0
 17 14  1  0  0  0  0
 17 22  1  1  0  0  0
 18 17  1  0  0  0  0
 19 18  1  0  0  0  0
 20 19  2  0  0  0  0
 21 19  1  0  0  0  0
 23 22  2  0  0  0  0
 25 24  1  0  0  0  0
 25 23  1  0  0  0  0
M  END
>  <MODEL>
2

>  <REMARK>
 VINA RESULT:      -6.3      2.972      7.084
  Name = 
  6 active torsions:
  status: ('A' for Active; 'I' for Inactive)
    1  A    between atoms: C_1  and  N_6
    2  A    between atoms: C_1  and  C_7
    3  A    between atoms: C_1  and  C_8
    4  A    between atoms: C_5  and  C_23
    5  A    between atoms: C_17  and  N_20
    6  A    between atoms: C_18  and  C_21
                            x       y       z     vdW  Elec       q    Type
                         _______ _______ _______ _____ _____    ______ ____

>  <TORSDO>
F 6

$$$$
=
 OpenBabel11072415243D

 25 27  0  0  1  0  0  0  0  0999 V2000
  160.9910  210.7220  154.6130 C   0  0  2  0  0  3  0  0  0  0  0  0
  159.4710  208.8790  155.4660 C   0  0  0  0  0  1  0  0  0  0  0  0
  161.9190  208.9700  155.8700 C   0  0  0  0  0  2  0  0  0  0  0  0
  160.8250  209.2430  154.8600 C   0  0  2  0  0  0  0  0  0  0  0  0
  161.5640  211.2150  155.9190 C   0  0  0  0  0  2  0  0  0  0  0  0
  162.2700  210.1650  156.5340 O   0  0  0  0  0  0  0  0  0  0  0  0
  158.9870  213.5860  153.9690 N   0  0  0  0  0  2  0  0  0  0  0  0
  159.0850  212.9940  152.6600 C   0  0  0  0  0  0  0  0  0  0  0  0
  159.4380  213.9170  151.5260 C   0  0  0  0  0  2  0  0  0  0  0  0
  158.0170  213.3560  151.6650 C   0  0  0  0  0  2  0  0  0  0  0  0
  159.7090  212.7720  154.7970 O   0  0  0  0  0  0  0  0  0  0  0  0
  159.6410  211.6320  152.7070 C   0  0  0  0  0  2  0  0  0  0  0  0
  159.7220  211.4810  154.2090 C   0  0  1  0  0  3  0  0  0  0  0  0
  160.9930  207.0780  153.4960 C   0  0  0  0  0  0  0  0  0  0  0  0
  160.7150  206.3560  154.4900 O   0  0  0  0  0  0  0  0  0  0  0  0
  161.0610  208.5050  153.6220 N   0  0  0  0  0  2  0  0  0  0  0  0
  161.2430  206.4340  152.1710 C   0  0  2  0  0  3  0  0  0  0  0  0
  161.5040  205.0090  152.3430 N   0  0  0  0  0  2  0  0  0  0  0  0
  161.0370  204.0210  151.4240 C   0  0  0  0  0  0  0  0  0  0  0  0
  160.3880  204.3550  150.3970 O   0  0  0  0  0  0  0  0  0  0  0  0
  161.3210  202.5870  151.6800 C   0  0  0  0  0  1  0  0  0  0  0  0
  162.4110  207.0910  151.5000 C   0  0  0  0  0  3  0  0  0  0  0  0
  162.3640  207.5840  150.2570 C   0  0  0  0  0  3  0  0  0  0  0  0
  161.4540  206.8740  148.0880 C   0  0  0  0  0  1  0  0  0  0  0  0
  161.1310  207.5340  149.4120 C   0  0  0  0  0  2  0  0  0  0  0  0
  1  4  1  0  0  0  0
  1  5  1  1  0  0  0
  3  6  1  0  0  0  0
  4  2  1  1  0  0  0
  4  3  1  0  0  0  0
  5  6  1  0  0  0  0
  7 11  1  0  0  0  0
  8 12  1  0  0  0  0
  8  7  1  0  0  0  0
  9 10  1  0  0  0  0
  9  8  1  0  0  0  0
 10  8  1  0  0  0  0
 13 12  1  6  0  0  0
 13  1  1  0  0  0  0
 13 11  1  0  0  0  0
 14 16  1  0  0  0  0
 14 15  2  0  0  0  0
 16  4  1  0  0  0  0
 17 22  1  1  0  0  0
 17 18  1  0  0  0  0
 17 14  1  0  0  0  0
 19 21  1  0  0  0  0
 19 18  1  0  0  0  0
 20 19  2  0  0  0  0
 23 22  2  0  0  0  0
 24 25  1  0  0  0  0
 25 23  1  0  0  0  0
M  END
>  <MODEL>
3

>  <REMARK>
 VINA RESULT:      -6.1      4.180      9.118
  Name = 
  6 active torsions:
  status: ('A' for Active; 'I' for Inactive)
    1  A    between atoms: C_1  and  N_6
    2  A    between atoms: C_1  and  C_7
    3  A    between atoms: C_1  and  C_8
    4  A    between atoms: C_5  and  C_23
    5  A    between atoms: C_17  and  N_20
    6  A    between atoms: C_18  and  C_21
                            x       y       z     vdW  Elec       q    Type
                         _______ _______ _______ _____ _____    ______ ____

>  <TORSDO>
F 6

$$$$
=
 OpenBabel11072415243D

 25 27  0  0  1  0  0  0  0  0999 V2000
  160.5440  205.6520  150.6060 C   0  0  2  0  0  3  0  0  0  0  0  0
  162.8530  206.5450  151.1670 C   0  0  0  0  0  1  0  0  0  0  0  0
  161.5810  204.9600  152.5950 C   0  0  0  0  0  2  0  0  0  0  0  0
  161.4660  206.1650  151.6850 C   0  0  2  0  0  0  0  0  0  0  0  0
  160.8310  204.1710  150.6000 C   0  0  0  0  0  2  0  0  0  0  0  0
  161.2700  203.7850  151.8800 O   0  0  0  0  0  0  0  0  0  0  0  0
  162.3370  207.0930  147.8960 N   0  0  0  0  0  2  0  0  0  0  0  0
  161.8450  205.8730  147.3090 C   0  0  0  0  0  0  0  0  0  0  0  0
  162.8390  205.0440  146.5430 C   0  0  0  0  0  2  0  0  0  0  0  0
  161.7430  205.8280  145.8100 C   0  0  0  0  0  2  0  0  0  0  0  0
  161.8860  207.0900  149.1870 O   0  0  0  0  0  0  0  0  0  0  0  0
  160.8310  205.2200  148.1540 C   0  0  0  0  0  2  0  0  0  0  0  0
  160.7170  206.2850  149.2200 C   0  0  1  0  0  3  0  0  0  0  0  0
  161.3050  208.6420  152.3280 C   0  0  0  0  0  0  0  0  0  0  0  0
  162.3230  208.9480  151.6520 O   0  0  0  0  0  0  0  0  0  0  0  0
  160.8400  207.2870  152.3790 N   0  0  0  0  0  2  0  0  0  0  0  0
  160.5740  209.7100  153.0730 C   0  0  2  0  0  3  0  0  0  0  0  0
  160.4450  210.9050  152.2460 N   0  0  0  0  0  2  0  0  0  0  0  0
  159.3640  211.8280  152.3850 C   0  0  0  0  0  0  0  0  0  0  0  0
  158.4760  211.6510  153.2620 O   0  0  0  0  0  0  0  0  0  0  0  0
  159.2870  213.0090  151.4890 C   0  0  0  0  0  1  0  0  0  0  0  0
  161.3070  210.0400  154.3380 C   0  0  0  0  0  3  0  0  0  0  0  0
  160.9170  209.6190  155.5460 C   0  0  0  0  0  3  0  0  0  0  0  0
  160.1320  207.3320  155.9820 C   0  0  0  0  0  1  0  0  0  0  0  0
  159.7060  208.7670  155.7550 C   0  0  0  0  0  2  0  0  0  0  0  0
  1  5  1  6  0  0  0
  1  4  1  0  0  0  0
  4  2  1  6  0  0  0
  4 16  1  0  0  0  0
  4  3  1  0  0  0  0
  5  6  1  0  0  0  0
  6  3  1  0  0  0  0
  7 11  1  0  0  0  0
  8  7  1  0  0  0  0
  8 12  1  0  0  0  0
  9  8  1  0  0  0  0
 10  9  1  0  0  0  0
 10  8  1  0  0  0  0
 11 13  1  0  0  0  0
 13 12  1  6  0  0  0
 13  1  1  0  0  0  0
 14 16  1  0  0  0  0
 14 17  1  0  0  0  0
 15 14  2  0  0  0  0
 17 22  1  1  0  0  0
 18 19  1  0  0  0  0
 18 17  1  0  0  0  0
 19 20  2  0  0  0  0
 21 19  1  0  0  0  0
 22 23  2  0  0  0  0
 23 25  1  0  0  0  0
 25 24  1  0  0  0  0
M  END
>  <MODEL>
4

>  <REMARK>
 VINA RESULT:      -5.8      2.948      4.980
  Name = 
  6 active torsions:
  status: ('A' for Active; 'I' for Inactive)
    1  A    between atoms: C_1  and  N_6
    2  A    between atoms: C_1  and  C_7
    3  A    between atoms: C_1  and  C_8
    4  A    between atoms: C_5  and  C_23
    5  A    between atoms: C_17  and  N_20
    6  A    between atoms: C_18  and  C_21
                            x       y       z     vdW  Elec       q    Type
                         _______ _______ _______ _____ _____    ______ ____

>  <TORSDO>
F 6

$$$$
=
 OpenBabel11072415243D

 25 27  0  0  1  0  0  0  0  0999 V2000
  161.9870  204.5420  147.3350 C   0  0  2  0  0  3  0  0  0  0  0  0
  160.0570  205.8620  146.3500 C   0  0  0  0  0  1  0  0  0  0  0  0
  162.3550  205.8350  145.4110 C   0  0  0  0  0  2  0  0  0  0  0  0
  161.5460  205.8330  146.6910 C   0  0  2  0  0  0  0  0  0  0  0  0
  162.3510  203.6850  146.1470 C   0  0  0  0  0  2  0  0  0  0  0  0
  162.7440  204.5190  145.0850 O   0  0  0  0  0  0  0  0  0  0  0  0
  160.6500  201.9300  149.3410 N   0  0  0  0  0  2  0  0  0  0  0  0
  160.8840  202.9630  150.3180 C   0  0  0  0  0  0  0  0  0  0  0  0
  161.5900  202.5510  151.5800 C   0  0  0  0  0  2  0  0  0  0  0  0
  160.0930  202.8870  151.5950 C   0  0  0  0  0  2  0  0  0  0  0  0
  161.0600  202.4530  148.1460 O   0  0  0  0  0  0  0  0  0  0  0  0
  161.1830  204.2610  149.6920 C   0  0  0  0  0  2  0  0  0  0  0  0
  160.9600  203.8650  148.2500 C   0  0  1  0  0  3  0  0  0  0  0  0
  161.1620  207.4020  148.6820 C   0  0  0  0  0  0  0  0  0  0  0  0
  160.1030  206.8120  149.0230 O   0  0  0  0  0  0  0  0  0  0  0  0
  161.9120  206.9620  147.5420 N   0  0  0  0  0  2  0  0  0  0  0  0
  161.6430  208.5650  149.4870 C   0  0  2  0  0  3  0  0  0  0  0  0
  162.3360  209.5210  148.6300 N   0  0  0  0  0  2  0  0  0  0  0  0
  162.2580  210.9340  148.8270 C   0  0  0  0  0  0  0  0  0  0  0  0
  161.5920  211.4130  149.7840 O   0  0  0  0  0  0  0  0  0  0  0  0
  162.9710  211.8450  147.8970 C   0  0  0  0  0  1  0  0  0  0  0  0
  162.5640  208.0880  150.5690 C   0  0  0  0  0  3  0  0  0  0  0  0
  162.2570  208.1360  151.8700 C   0  0  0  0  0  3  0  0  0  0  0  0
  160.7820  208.2800  153.8300 C   0  0  0  0  0  1  0  0  0  0  0  0
  160.9550  208.6680  152.3770 C   0  0  0  0  0  2  0  0  0  0  0  0
  1  5  1  6  0  0  0
  1 13  1  0  0  0  0
  3  4  1  0  0  0  0
  4  2  1  6  0  0  0
  4  1  1  0  0  0  0
  4 16  1  0  0  0  0
  6  3  1  0  0  0  0
  6  5  1  0  0  0  0
  7  8  1  0  0  0  0
  8  9  1  0  0  0  0
  8 10  1  0  0  0  0
  9 10  1  0  0  0  0
 11 13  1  0  0  0  0
 11  7  1  0  0  0  0
 12  8  1  0  0  0  0
 13 12  1  1  0  0  0
 14 15  2  0  0  0  0
 14 17  1  0  0  0  0
 16 14  1  0  0  0  0
 17 22  1  1  0  0  0
 18 19  1  0  0  0  0
 18 17  1  0  0  0  0
 19 20  2  0  0  0  0
 21 19  1  0  0  0  0
 22 23  2  0  0  0  0
 23 25  1  0  0  0  0
 25 24  1  0  0  0  0
M  END
>  <MODEL>
5

>  <REMARK>
 VINA RESULT:      -5.8      1.178      1.294
  Name = 
  6 active torsions:
  status: ('A' for Active; 'I' for Inactive)
    1  A    between atoms: C_1  and  N_6
    2  A    between atoms: C_1  and  C_7
    3  A    between atoms: C_1  and  C_8
    4  A    between atoms: C_5  and  C_23
    5  A    between atoms: C_17  and  N_20
    6  A    between atoms: C_18  and  C_21
                            x       y       z     vdW  Elec       q    Type
                         _______ _______ _______ _____ _____    ______ ____

>  <TORSDO>
F 6

$$$$
=
 OpenBabel11072415243D

 25 27  0  0  1  0  0  0  0  0999 V2000
  162.0880  204.3340  146.9890 C   0  0  2  0  0  3  0  0  0  0  0  0
  160.3460  206.0690  146.3600 C   0  0  0  0  0  1  0  0  0  0  0  0
  162.6760  206.0540  145.5030 C   0  0  0  0  0  2  0  0  0  0  0  0
  161.8060  205.7910  146.7140 C   0  0  2  0  0  0  0  0  0  0  0  0
  162.4280  203.7970  145.6200 C   0  0  0  0  0  2  0  0  0  0  0  0
  162.9540  204.8420  144.8370 O   0  0  0  0  0  0  0  0  0  0  0  0
  160.3080  201.4260  147.9950 N   0  0  0  0  0  2  0  0  0  0  0  0
  160.7150  201.9770  149.2620 C   0  0  0  0  0  0  0  0  0  0  0  0
  161.3340  201.0220  150.2450 C   0  0  0  0  0  2  0  0  0  0  0  0
  159.9190  201.5700  150.4710 C   0  0  0  0  0  2  0  0  0  0  0  0
  160.8070  202.2760  147.0460 O   0  0  0  0  0  0  0  0  0  0  0  0
  161.2390  203.3460  149.1300 C   0  0  0  0  0  2  0  0  0  0  0  0
  160.9550  203.5470  147.6590 C   0  0  1  0  0  3  0  0  0  0  0  0
  161.4050  206.9400  148.9710 C   0  0  0  0  0  0  0  0  0  0  0  0
  160.2130  206.5380  149.0350 O   0  0  0  0  0  0  0  0  0  0  0  0
  162.2330  206.6010  147.8510 N   0  0  0  0  0  2  0  0  0  0  0  0
  161.9580  207.7680  150.0840 C   0  0  2  0  0  3  0  0  0  0  0  0
  161.2590  207.4720  151.3300 N   0  0  0  0  0  2  0  0  0  0  0  0
  161.7540  206.5380  152.2910 C   0  0  0  0  0  0  0  0  0  0  0  0
  162.8470  205.9420  152.1020 O   0  0  0  0  0  0  0  0  0  0  0  0
  160.9720  206.2700  153.5240 C   0  0  0  0  0  1  0  0  0  0  0  0
  161.8170  209.2230  149.7520 C   0  0  0  0  0  3  0  0  0  0  0  0
  162.0180  210.2030  150.6400 C   0  0  0  0  0  3  0  0  0  0  0  0
  161.3800  210.5460  152.9880 C   0  0  0  0  0  1  0  0  0  0  0  0
  162.4120  209.9430  152.0590 C   0  0  0  0  0  2  0  0  0  0  0  0
  1  5  1  6  0  0  0
  1 13  1  0  0  0  0
  3  4  1  0  0  0  0
  4  2  1  6  0  0  0
  4  1  1  0  0  0  0
  4 16  1  0  0  0  0
  6  3  1  0  0  0  0
  6  5  1  0  0  0  0
  7  8  1  0  0  0  0
  8  9  1  0  0  0  0
  8 10  1  0  0  0  0
  9 10  1  0  0  0  0
 11 13  1  0  0  0  0
 11  7  1  0  0  0  0
 12  8  1  0  0  0  0
 13 12  1  1  0  0  0
 14 15  2  0  0  0  0
 14 17  1  0  0  0  0
 16 14  1  0  0  0  0
 17 22  1  6  0  0  0
 17 18  1  0  0  0  0
 18 19  1  0  0  0  0
 19 21  1  0  0  0  0
 20 19  2  0  0  0  0
 22 23  2  0  0  0  0
 23 25  1  0  0  0  0
 25 24  1  0  0  0  0
M  END
>  <MODEL>
6

>  <REMARK>
 VINA RESULT:      -5.8      1.440      2.638
  Name = 
  6 active torsions:
  status: ('A' for Active; 'I' for Inactive)
    1  A    between atoms: C_1  and  N_6
    2  A    between atoms: C_1  and  C_7
    3  A    between atoms: C_1  and  C_8
    4  A    between atoms: C_5  and  C_23
    5  A    between atoms: C_17  and  N_20
    6  A    between atoms: C_18  and  C_21
                            x       y       z     vdW  Elec       q    Type
                         _______ _______ _______ _____ _____    ______ ____

>  <TORSDO>
F 6

$$$$
=
 OpenBabel11072415243D

 25 27  0  0  1  0  0  0  0  0999 V2000
  160.4920  210.0540  152.6870 C   0  0  2  0  0  3  0  0  0  0  0  0
  162.9570  210.0170  152.0890 C   0  0  0  0  0  1  0  0  0  0  0  0
  161.1740  210.9130  150.6110 C   0  0  0  0  0  2  0  0  0  0  0  0
  161.5200  209.8260  151.6070 C   0  0  2  0  0  0  0  0  0  0  0  0
  160.2180  211.5340  152.5780 C   0  0  0  0  0  2  0  0  0  0  0  0
  160.4660  211.9490  151.2570 O   0  0  0  0  0  0  0  0  0  0  0  0
  160.0330  209.4740  156.1640 N   0  0  0  0  0  2  0  0  0  0  0  0
  160.2770  208.1420  155.6720 C   0  0  0  0  0  0  0  0  0  0  0  0
  159.3320  207.0680  156.1340 C   0  0  0  0  0  2  0  0  0  0  0  0
  160.7700  207.1270  156.6650 C   0  0  0  0  0  2  0  0  0  0  0  0
  160.0890  210.2880  155.0670 O   0  0  0  0  0  0  0  0  0  0  0  0
  160.7750  208.1450  154.2860 C   0  0  0  0  0  2  0  0  0  0  0  0
  160.9050  209.6400  154.1040 C   0  0  1  0  0  3  0  0  0  0  0  0
  161.5820  208.1750  149.6450 C   0  0  0  0  0  0  0  0  0  0  0  0
  161.9870  209.0530  148.8380 O   0  0  0  0  0  0  0  0  0  0  0  0
  161.3360  208.5010  151.0200 N   0  0  0  0  0  2  0  0  0  0  0  0
  161.3690  206.7780  149.1610 C   0  0  2  0  0  3  0  0  0  0  0  0
  161.5420  205.8310  150.2570 N   0  0  0  0  0  2  0  0  0  0  0  0
  161.0940  204.4770  150.1850 C   0  0  0  0  0  0  0  0  0  0  0  0
  160.5430  204.0370  149.1410 O   0  0  0  0  0  0  0  0  0  0  0  0
  161.2830  203.5780  151.3520 C   0  0  0  0  0  1  0  0  0  0  0  0
  162.3390  206.4700  148.0600 C   0  0  0  0  0  3  0  0  0  0  0  0
  161.9670  206.2070  146.8030 C   0  0  0  0  0  3  0  0  0  0  0  0
  160.4560  205.8040  144.9080 C   0  0  0  0  0  1  0  0  0  0  0  0
  160.5370  206.2020  146.3660 C   0  0  0  0  0  2  0  0  0  0  0  0
  1  5  1  1  0  0  0
  1 13  1  0  0  0  0
  3  6  1  0  0  0  0
  3  4  1  0  0  0  0
  4  2  1  1  0  0  0
  4  1  1  0  0  0  0
  6  5  1  0  0  0  0
  8  9  1  0  0  0  0
  8  7  1  0  0  0  0
  8 10  1  0  0  0  0
  9 10  1  0  0  0  0
 11  7  1  0  0  0  0
 12  8  1  0  0  0  0
 13 12  1  6  0  0  0
 13 11  1  0  0  0  0
 14 16  1  0  0  0  0
 15 14  2  0  0  0  0
 16  4  1  0  0  0  0
 17 22  1  6  0  0  0
 17 14  1  0  0  0  0
 17 18  1  0  0  0  0
 19 18  1  0  0  0  0
 19 21  1  0  0  0  0
 20 19  2  0  0  0  0
 23 22  2  0  0  0  0
 24 25  1  0  0  0  0
 25 23  1  0  0  0  0
M  END
>  <MODEL>
7

>  <REMARK>
 VINA RESULT:      -5.7      3.039      7.422
  Name = 
  6 active torsions:
  status: ('A' for Active; 'I' for Inactive)
    1  A    between atoms: C_1  and  N_6
    2  A    between atoms: C_1  and  C_7
    3  A    between atoms: C_1  and  C_8
    4  A    between atoms: C_5  and  C_23
    5  A    between atoms: C_17  and  N_20
    6  A    between atoms: C_18  and  C_21
                            x       y       z     vdW  Elec       q    Type
                         _______ _______ _______ _____ _____    ______ ____

>  <TORSDO>
F 6

$$$$
=
 OpenBabel11072415243D

 25 27  0  0  1  0  0  0  0  0999 V2000
  160.8320  205.0630  150.3920 C   0  0  2  0  0  3  0  0  0  0  0  0
  163.0220  205.4550  151.6150 C   0  0  0  0  0  1  0  0  0  0  0  0
  160.8420  205.0690  152.7400 C   0  0  0  0  0  2  0  0  0  0  0  0
  161.5190  205.7300  151.5580 C   0  0  2  0  0  0  0  0  0  0  0  0
  160.4560  203.7150  150.9550 C   0  0  0  0  0  2  0  0  0  0  0  0
  160.2920  203.8300  152.3480 O   0  0  0  0  0  0  0  0  0  0  0  0
  161.6380  203.8510  147.1490 N   0  0  0  0  0  2  0  0  0  0  0  0
  161.3650  205.2410  146.8860 C   0  0  0  0  0  0  0  0  0  0  0  0
  160.4560  205.5420  145.7260 C   0  0  0  0  0  2  0  0  0  0  0  0
  161.9610  205.8290  145.6370 C   0  0  0  0  0  2  0  0  0  0  0  0
  161.4460  203.6860  148.4930 O   0  0  0  0  0  0  0  0  0  0  0  0
  161.2740  206.0330  148.1230 C   0  0  0  0  0  2  0  0  0  0  0  0
  161.6570  204.9490  149.1050 C   0  0  1  0  0  3  0  0  0  0  0  0
  162.0540  208.1390  150.8570 C   0  0  0  0  0  0  0  0  0  0  0  0
  163.0790  207.7900  150.2140 O   0  0  0  0  0  0  0  0  0  0  0  0
  161.2500  207.1650  151.5370 N   0  0  0  0  0  2  0  0  0  0  0  0
  161.6700  209.5820  150.8970 C   0  0  2  0  0  3  0  0  0  0  0  0
  162.3310  210.3100  149.8190 N   0  0  0  0  0  2  0  0  0  0  0  0
  161.8840  211.5870  149.3620 C   0  0  0  0  0  0  0  0  0  0  0  0
  160.8960  212.1520  149.9020 O   0  0  0  0  0  0  0  0  0  0  0  0
  162.5940  212.2560  148.2430 C   0  0  0  0  0  1  0  0  0  0  0  0
  162.0510  210.1720  152.2220 C   0  0  0  0  0  3  0  0  0  0  0  0
  161.1580  210.5970  153.1210 C   0  0  0  0  0  3  0  0  0  0  0  0
  159.0960  211.9160  152.9100 C   0  0  0  0  0  1  0  0  0  0  0  0
  159.6810  210.5200  152.8970 C   0  0  0  0  0  2  0  0  0  0  0  0
  1  5  1  1  0  0  0
  1  4  1  0  0  0  0
  4  2  1  6  0  0  0
  4  3  1  0  0  0  0
  5  6  1  0  0  0  0
  6  3  1  0  0  0  0
  7 11  1  0  0  0  0
  8  7  1  0  0  0  0
  8 12  1  0  0  0  0
  9  8  1  0  0  0  0
 10  9  1  0  0  0  0
 10  8  1  0  0  0  0
 11 13  1  0  0  0  0
 13 12  1  6  0  0  0
 13  1  1  0  0  0  0
 14 17  1  0  0  0  0
 14 16  1  0  0  0  0
 15 14  2  0  0  0  0
 16  4  1  0  0  0  0
 17 22  1  1  0  0  0
 18 17  1  0  0  0  0
 19 18  1  0  0  0  0
 19 20  2  0  0  0  0
 21 19  1  0  0  0  0
 22 23  2  0  0  0  0
 25 24  1  0  0  0  0
 25 23  1  0  0  0  0
M  END
>  <MODEL>
8

>  <REMARK>
 VINA RESULT:      -5.6      2.328      4.546
  Name = 
  6 active torsions:
  status: ('A' for Active; 'I' for Inactive)
    1  A    between atoms: C_1  and  N_6
    2  A    between atoms: C_1  and  C_7
    3  A    between atoms: C_1  and  C_8
    4  A    between atoms: C_5  and  C_23
    5  A    between atoms: C_17  and  N_20
    6  A    between atoms: C_18  and  C_21
                            x       y       z     vdW  Elec       q    Type
                         _______ _______ _______ _____ _____    ______ ____

>  <TORSDO>
F 6

$$$$
=
 OpenBabel11072415243D

 25 27  0  0  1  0  0  0  0  0999 V2000
  161.2530  205.5310  147.0210 C   0  0  2  0  0  3  0  0  0  0  0  0
  163.4310  205.0670  145.8040 C   0  0  0  0  0  1  0  0  0  0  0  0
  161.2060  204.2720  145.0400 C   0  0  0  0  0  2  0  0  0  0  0  0
  162.0750  204.5250  146.2540 C   0  0  2  0  0  0  0  0  0  0  0  0
  160.4880  206.2370  145.9280 C   0  0  0  0  0  2  0  0  0  0  0  0
  160.3310  205.3590  144.8390 O   0  0  0  0  0  0  0  0  0  0  0  0
  161.8280  208.5410  148.8210 N   0  0  0  0  0  2  0  0  0  0  0  0
  161.7870  207.5660  149.8810 C   0  0  0  0  0  0  0  0  0  0  0  0
  160.9340  207.9010  151.0730 C   0  0  0  0  0  2  0  0  0  0  0  0
  162.4640  207.9320  151.1720 C   0  0  0  0  0  2  0  0  0  0  0  0
  161.6200  207.8390  147.6660 O   0  0  0  0  0  0  0  0  0  0  0  0
  161.8350  206.1870  149.3690 C   0  0  0  0  0  2  0  0  0  0  0  0
  162.0400  206.5050  147.9050 C   0  0  1  0  0  3  0  0  0  0  0  0
  161.2650  202.8060  147.9760 C   0  0  0  0  0  0  0  0  0  0  0  0
  160.1790  203.4150  148.1660 O   0  0  0  0  0  0  0  0  0  0  0  0
  162.2340  203.3080  147.0460 N   0  0  0  0  0  2  0  0  0  0  0  0
  161.5330  201.5410  148.7230 C   0  0  2  0  0  3  0  0  0  0  0  0
  161.7420  200.4380  147.7910 N   0  0  0  0  0  2  0  0  0  0  0  0
  160.9970  200.2980  146.5800 C   0  0  0  0  0  0  0  0  0  0  0  0
  160.1300  201.1540  146.2570 O   0  0  0  0  0  0  0  0  0  0  0  0
  161.2480  199.1340  145.6940 C   0  0  0  0  0  1  0  0  0  0  0  0
  160.3800  201.2320  149.6300 C   0  0  0  0  0  3  0  0  0  0  0  0
  160.3140  201.6410  150.9010 C   0  0  0  0  0  3  0  0  0  0  0  0
  160.8330  203.8140  151.9240 C   0  0  0  0  0  1  0  0  0  0  0  0
  161.3880  202.4580  151.5470 C   0  0  0  0  0  2  0  0  0  0  0  0
  1  5  1  6  0  0  0
  1 13  1  0  0  0  0
  3  4  1  0  0  0  0
  4  2  1  6  0  0  0
  4  1  1  0  0  0  0
  4 16  1  0  0  0  0
  6  3  1  0  0  0  0
  6  5  1  0  0  0  0
  7  8  1  0  0  0  0
  8  9  1  0  0  0  0
  8 10  1  0  0  0  0
  9 10  1  0  0  0  0
 11 13  1  0  0  0  0
 11  7  1  0  0  0  0
 12  8  1  0  0  0  0
 13 12  1  1  0  0  0
 14 15  2  0  0  0  0
 14 17  1  0  0  0  0
 16 14  1  0  0  0  0
 17 22  1  1  0  0  0
 18 17  1  0  0  0  0
 19 18  1  0  0  0  0
 20 19  2  0  0  0  0
 21 19  1  0  0  0  0
 22 23  2  0  0  0  0
 23 25  1  0  0  0  0
 25 24  1  0  0  0  0
M  END
>  <MODEL>
9

>  <REMARK>
 VINA RESULT:      -5.4      1.883      6.071
  Name = 
  6 active torsions:
  status: ('A' for Active; 'I' for Inactive)
    1  A    between atoms: C_1  and  N_6
    2  A    between atoms: C_1  and  C_7
    3  A    between atoms: C_1  and  C_8
    4  A    between atoms: C_5  and  C_23
    5  A    between atoms: C_17  and  N_20
    6  A    between atoms: C_18  and  C_21
                            x       y       z     vdW  Elec       q    Type
                         _______ _______ _______ _____ _____    ______ ____

>  <TORSDO>
F 6

$$$$
