=
 OpenBabel11072415143D

 40 45  0  0  1  0  0  0  0  0999 V2000
  161.7380  208.8940  148.4170 N   0  0  0  0  0  2  0  0  0  0  0  0
  162.1970  208.6650  150.7320 N   0  0  0  0  0  0  0  0  0  0  0  0
  161.9580  209.4640  149.5570 C   0  0  0  0  0  0  0  0  0  0  0  0
  161.3330  206.5710  151.6500 C   0  0  2  0  0  3  0  0  0  0  0  0
  160.9340  206.6290  150.1680 C   0  0  1  0  0  3  0  0  0  0  0  0
  162.2690  207.2050  150.6350 C   0  0  1  0  0  3  0  0  0  0  0  0
  161.7460  205.3390  148.1470 C   0  0  0  0  0  3  0  0  0  0  0  0
  160.5600  204.1590  149.8980 C   0  0  0  0  0  3  0  0  0  0  0  0
  161.1120  205.3470  149.3990 C   0  0  0  0  0  0  0  0  0  0  0  0
  161.8590  204.1500  147.4220 C   0  0  0  0  0  3  0  0  0  0  0  0
  160.6740  202.9700  149.1710 C   0  0  0  0  0  3  0  0  0  0  0  0
  161.3260  202.9650  147.9350 C   0  0  0  0  0  3  0  0  0  0  0  0
  161.9420  205.2590  152.1250 C   0  0  0  0  0  2  0  0  0  0  0  0
  161.2490  204.8070  153.2480 O   0  0  0  0  0  1  0  0  0  0  0  0
  162.1260  210.9540  149.6040 C   0  0  0  0  0  2  0  0  0  0  0  0
  162.0660  211.5770  148.2130 C   0  0  0  0  0  2  0  0  0  0  0  0
  162.0930  213.0310  148.2920 N   0  0  0  0  0  2  0  0  0  0  0  0
  162.4700  213.5410  146.9810 C   0  0  0  0  0  2  0  0  0  0  0  0
  160.2790  214.1610  145.9600 C   0  0  0  0  0  2  0  0  0  0  0  0
  159.8630  213.4550  143.5970 C   0  0  0  0  0  0  0  0  0  0  0  0
  159.0680  213.3270  142.6280 O   0  0  0  0  0  0  0  0  0  0  0  0
  159.3550  213.8590  144.8730 N   0  0  0  0  0  2  0  0  0  0  0  0
  161.4220  213.1500  145.9540 C   0  0  1  0  0  3  0  0  0  0  0  0
  162.0400  213.0670  144.5840 C   0  0  0  0  0  3  0  0  0  0  0  0
  161.3160  213.1640  143.4580 C   0  0  0  0  0  0  0  0  0  0  0  0
  161.9920  213.0200  142.1370 C   0  0  0  0  0  0  0  0  0  0  0  0
  163.2660  212.7700  139.6400 C   0  0  0  0  0  3  0  0  0  0  0  0
  162.6330  211.6570  140.2140 C   0  0  0  0  0  0  0  0  0  0  0  0
  162.6300  214.1220  141.5400 C   0  0  0  0  0  3  0  0  0  0  0  0
  163.2620  213.9990  140.3010 C   0  0  0  0  0  3  0  0  0  0  0  0
  162.0020  211.7920  141.4540 C   0  0  0  0  0  3  0  0  0  0  0  0
  161.7100  209.3800  139.9310 C   0  0  0  0  0  1  0  0  0  0  0  0
  162.6180  210.4130  139.5780 O   0  0  0  0  0  0  0  0  0  0  0  0
  162.1720  209.2930  152.0530 C   0  0  0  0  0  2  0  0  0  0  0  0
  160.5440  211.6580  153.2750 C   0  0  0  0  0  2  0  0  0  0  0  0
  160.8750  208.9010  154.1460 C   0  0  0  0  0  2  0  0  0  0  0  0
  159.8890  209.8210  154.8390 C   0  0  0  0  0  2  0  0  0  0  0  0
  160.7790  209.2030  152.6660 C   0  0  1  0  0  3  0  0  0  0  0  0
  159.3890  210.8450  153.8290 C   0  0  2  0  0  3  0  0  0  0  0  0
  159.9810  210.4910  152.4760 C   0  0  1  0  0  3  0  0  0  0  0  0
  1  3  2  0  0  0  0
  2 34  1  0  0  0  0
  3 15  1  0  0  0  0
  3  2  1  0  0  0  0
  4 13  1  6  0  0  0
  5  9  1  6  0  0  0
  5  6  1  0  0  0  0
  5  4  1  0  0  0  0
  6  2  1  1  0  0  0
  6  4  1  0  0  0  0
  7  9  1  0  0  0  0
  9  8  2  0  0  0  0
 10 12  1  0  0  0  0
 10  7  2  0  0  0  0
 11  8  1  0  0  0  0
 12 11  2  0  0  0  0
 13 14  1  0  0  0  0
 16 17  1  0  0  0  0
 16 15  1  0  0  0  0
 18 17  1  0  0  0  0
 20 22  1  0  0  0  0
 21 20  2  0  0  0  0
 22 19  1  0  0  0  0
 23 19  1  0  0  0  0
 23 18  1  1  0  0  0
 24 23  1  0  0  0  0
 25 20  1  0  0  0  0
 25 24  2  0  0  0  0
 26 25  1  0  0  0  0
 27 28  2  0  0  0  0
 27 30  1  0  0  0  0
 28 31  1  0  0  0  0
 29 26  1  0  0  0  0
 30 29  2  0  0  0  0
 31 26  2  0  0  0  0
 33 32  1  0  0  0  0
 33 28  1  0  0  0  0
 36 37  1  0  0  0  0
 38 34  1  1  0  0  0
 38 36  1  0  0  0  0
 39 35  1  1  0  0  0
 39 37  1  0  0  0  0
 40 38  1  0  0  0  0
 40 35  1  1  0  0  0
 40 39  1  0  0  0  0
M  END
>  <MODEL>
1

>  <REMARK>
 VINA RESULT:      -8.1      0.000      0.000
  Name = 
  12 active torsions:
  status: ('A' for Active; 'I' for Inactive)
    1  A    between atoms: C_3  and  N_5
    2  A    between atoms: C_3  and  C_30
    3  A    between atoms: C_4  and  C_40
    4  A    between atoms: N_5  and  C_29
    5  A    between atoms: C_12  and  O_13
    6  A    between atoms: C_15  and  C_29
    7  A    between atoms: C_15  and  C_33
    8  A    between atoms: N_17  and  C_36
    9  A    between atoms: N_17  and  C_37
   10  A    between atoms: C_19  and  C_32
   11  A    between atoms: C_21  and  C_36
   12  A    between atoms: C_28  and  C_34
                            x       y       z     vdW  Elec       q    Type
                         _______ _______ _______ _____ _____    ______ ____

>  <TORSDO>
F 12

$$$$
=
 OpenBabel11072415143D

 40 45  0  0  1  0  0  0  0  0999 V2000
  162.0200  203.5030  151.9370 N   0  0  0  0  0  2  0  0  0  0  0  0
  161.2130  205.3870  150.7430 N   0  0  0  0  0  0  0  0  0  0  0  0
  161.4280  204.6540  151.9650 C   0  0  0  0  0  0  0  0  0  0  0  0
  160.5430  203.8030  149.0070 C   0  0  2  0  0  3  0  0  0  0  0  0
  160.5900  205.1990  148.3700 C   0  0  1  0  0  3  0  0  0  0  0  0
  161.5930  204.8070  149.4520 C   0  0  1  0  0  3  0  0  0  0  0  0
  160.4690  205.5750  145.8690 C   0  0  0  0  0  3  0  0  0  0  0  0
  162.5840  204.9350  146.8620 C   0  0  0  0  0  3  0  0  0  0  0  0
  161.2300  205.2680  147.0080 C   0  0  0  0  0  0  0  0  0  0  0  0
  161.0660  205.5870  144.6060 C   0  0  0  0  0  3  0  0  0  0  0  0
  163.1790  204.9470  145.5980 C   0  0  0  0  0  3  0  0  0  0  0  0
  162.4210  205.2750  144.4700 C   0  0  0  0  0  3  0  0  0  0  0  0
  161.2290  202.6910  148.2260 C   0  0  0  0  0  2  0  0  0  0  0  0
  160.6680  201.4640  148.5780 O   0  0  0  0  0  1  0  0  0  0  0  0
  160.8230  205.1290  153.2520 C   0  0  0  0  0  2  0  0  0  0  0  0
  161.6590  206.2290  153.9010 C   0  0  0  0  0  2  0  0  0  0  0  0
  160.8170  207.3370  154.3320 N   0  0  0  0  0  2  0  0  0  0  0  0
  160.5390  207.1570  155.7500 C   0  0  0  0  0  2  0  0  0  0  0  0
  161.8920  209.0810  156.5820 C   0  0  0  0  0  2  0  0  0  0  0  0
  160.7920  211.3270  156.6490 C   0  0  0  0  0  0  0  0  0  0  0  0
  160.8140  212.5330  157.0080 O   0  0  0  0  0  0  0  0  0  0  0  0
  161.8160  210.4390  157.1110 N   0  0  0  0  0  2  0  0  0  0  0  0
  160.4860  208.5080  156.4410 C   0  0  1  0  0  3  0  0  0  0  0  0
  159.6100  209.4560  155.6650 C   0  0  0  0  0  3  0  0  0  0  0  0
  159.7080  210.7900  155.7830 C   0  0  0  0  0  0  0  0  0  0  0  0
  158.7700  211.6630  155.0200 C   0  0  0  0  0  0  0  0  0  0  0  0
  156.9830  213.3000  153.5910 C   0  0  0  0  0  3  0  0  0  0  0  0
  158.2960  213.1290  153.1260 C   0  0  0  0  0  0  0  0  0  0  0  0
  157.4480  211.8470  155.4650 C   0  0  0  0  0  3  0  0  0  0  0  0
  156.5610  212.6590  154.7560 C   0  0  0  0  0  3  0  0  0  0  0  0
  159.1760  212.3130  153.8430 C   0  0  0  0  0  3  0  0  0  0  0  0
  159.7870  213.2200  151.1550 C   0  0  0  0  0  1  0  0  0  0  0  0
  158.7500  213.7570  151.9620 O   0  0  0  0  0  0  0  0  0  0  0  0
  160.7980  206.7880  150.8030 C   0  0  0  0  0  2  0  0  0  0  0  0
  161.0810  209.7780  151.6530 C   0  0  0  0  0  2  0  0  0  0  0  0
  161.7150  208.4220  149.1570 C   0  0  0  0  0  2  0  0  0  0  0  0
  162.1000  209.8720  149.3710 C   0  0  0  0  0  2  0  0  0  0  0  0
  161.9650  207.7110  150.4690 C   0  0  1  0  0  3  0  0  0  0  0  0
  162.3340  210.0960  150.8600 C   0  0  2  0  0  3  0  0  0  0  0  0
  162.2040  208.7550  151.5590 C   0  0  1  0  0  3  0  0  0  0  0  0
  1  3  2  0  0  0  0
  2 34  1  0  0  0  0
  2  3  1  0  0  0  0
  3 15  1  0  0  0  0
  4 13  1  6  0  0  0
  4  6  1  0  0  0  0
  5  9  1  6  0  0  0
  5  4  1  0  0  0  0
  5  6  1  0  0  0  0
  6  2  1  1  0  0  0
  7  9  1  0  0  0  0
  8  9  2  0  0  0  0
 10  7  2  0  0  0  0
 11  8  1  0  0  0  0
 12 10  1  0  0  0  0
 12 11  2  0  0  0  0
 13 14  1  0  0  0  0
 15 16  1  0  0  0  0
 16 17  1  0  0  0  0
 17 18  1  0  0  0  0
 19 22  1  0  0  0  0
 20 21  2  0  0  0  0
 20 22  1  0  0  0  0
 23 18  1  6  0  0  0
 23 19  1  0  0  0  0
 24 25  2  0  0  0  0
 24 23  1  0  0  0  0
 25 20  1  0  0  0  0
 26 29  1  0  0  0  0
 26 25  1  0  0  0  0
 27 30  1  0  0  0  0
 28 27  2  0  0  0  0
 28 31  1  0  0  0  0
 30 29  2  0  0  0  0
 31 26  2  0  0  0  0
 32 33  1  0  0  0  0
 33 28  1  0  0  0  0
 36 37  1  0  0  0  0
 36 38  1  0  0  0  0
 38 34  1  1  0  0  0
 38 40  1  0  0  0  0
 39 37  1  6  0  0  0
 39 40  1  0  0  0  0
 39 35  1  0  0  0  0
 40 35  1  1  0  0  0
M  END
>  <MODEL>
2

>  <REMARK>
 VINA RESULT:      -7.8      5.431      9.159
  Name = 
  12 active torsions:
  status: ('A' for Active; 'I' for Inactive)
    1  A    between atoms: C_3  and  N_5
    2  A    between atoms: C_3  and  C_30
    3  A    between atoms: C_4  and  C_40
    4  A    between atoms: N_5  and  C_29
    5  A    between atoms: C_12  and  O_13
    6  A    between atoms: C_15  and  C_29
    7  A    between atoms: C_15  and  C_33
    8  A    between atoms: N_17  and  C_36
    9  A    between atoms: N_17  and  C_37
   10  A    between atoms: C_19  and  C_32
   11  A    between atoms: C_21  and  C_36
   12  A    between atoms: C_28  and  C_34
                            x       y       z     vdW  Elec       q    Type
                         _______ _______ _______ _____ _____    ______ ____

>  <TORSDO>
F 12

$$$$
=
 OpenBabel11072415143D

 40 45  0  0  1  0  0  0  0  0999 V2000
  161.9930  209.1210  150.5720 N   0  0  0  0  0  2  0  0  0  0  0  0
  161.9870  207.4380  148.9010 N   0  0  0  0  0  0  0  0  0  0  0  0
  161.9610  208.8180  149.3140 C   0  0  0  0  0  0  0  0  0  0  0  0
  160.9050  206.6430  150.9440 C   0  0  2  0  0  3  0  0  0  0  0  0
  160.6520  205.5990  149.8470 C   0  0  1  0  0  3  0  0  0  0  0  0
  161.9720  206.3640  149.8980 C   0  0  1  0  0  3  0  0  0  0  0  0
  161.4260  203.8360  151.4910 C   0  0  0  0  0  3  0  0  0  0  0  0
  160.4360  203.1360  149.3940 C   0  0  0  0  0  3  0  0  0  0  0  0
  160.8160  204.1630  150.2690 C   0  0  0  0  0  0  0  0  0  0  0  0
  161.6170  202.4990  151.8470 C   0  0  0  0  0  3  0  0  0  0  0  0
  160.6290  201.7990  149.7520 C   0  0  0  0  0  3  0  0  0  0  0  0
  161.2160  201.4800  150.9790 C   0  0  0  0  0  3  0  0  0  0  0  0
  161.3790  206.0990  152.2840 C   0  0  0  0  0  2  0  0  0  0  0  0
  160.8770  206.8970  153.3120 O   0  0  0  0  0  1  0  0  0  0  0  0
  161.7290  209.9070  148.3100 C   0  0  0  0  0  2  0  0  0  0  0  0
  162.4950  211.1790  148.6630 C   0  0  0  0  0  2  0  0  0  0  0  0
  161.6060  212.1820  149.2310 N   0  0  0  0  0  2  0  0  0  0  0  0
  161.2240  213.0940  148.1620 C   0  0  0  0  0  2  0  0  0  0  0  0
  158.8210  212.9320  147.5120 C   0  0  0  0  0  2  0  0  0  0  0  0
  157.1120  213.5100  149.2460 C   0  0  0  0  0  0  0  0  0  0  0  0
  155.9120  213.7410  149.5490 O   0  0  0  0  0  0  0  0  0  0  0  0
  157.4700  213.3510  147.8680 N   0  0  0  0  0  2  0  0  0  0  0  0
  159.8290  213.6350  148.4170 C   0  0  1  0  0  3  0  0  0  0  0  0
  159.4530  213.4470  149.8630 C   0  0  0  0  0  3  0  0  0  0  0  0
  158.1780  213.4300  150.2810 C   0  0  0  0  0  0  0  0  0  0  0  0
  157.8860  213.2930  151.7370 C   0  0  0  0  0  0  0  0  0  0  0  0
  157.3300  213.0550  154.4850 C   0  0  0  0  0  3  0  0  0  0  0  0
  158.2230  212.1610  153.8750 C   0  0  0  0  0  0  0  0  0  0  0  0
  156.9980  214.1790  152.3720 C   0  0  0  0  0  3  0  0  0  0  0  0
  156.7210  214.0620  153.7350 C   0  0  0  0  0  3  0  0  0  0  0  0
  158.4940  212.2890  152.5090 C   0  0  0  0  0  3  0  0  0  0  0  0
  159.9890  210.4450  154.1130 C   0  0  0  0  0  1  0  0  0  0  0  0
  158.8500  211.1420  154.5980 O   0  0  0  0  0  0  0  0  0  0  0  0
  162.2250  207.1060  147.4970 C   0  0  0  0  0  2  0  0  0  0  0  0
  163.1010  204.7960  145.5900 C   0  0  0  0  0  2  0  0  0  0  0  0
  160.5920  206.2550  145.8160 C   0  0  0  0  0  2  0  0  0  0  0  0
  160.7110  205.0530  144.9000 C   0  0  0  0  0  2  0  0  0  0  0  0
  161.3680  205.9190  147.0710 C   0  0  1  0  0  3  0  0  0  0  0  0
  161.7550  204.1050  145.4770 C   0  0  2  0  0  3  0  0  0  0  0  0
  162.2050  204.6670  146.8140 C   0  0  1  0  0  3  0  0  0  0  0  0
  2  3  1  0  0  0  0
  3  1  2  0  0  0  0
  4 13  1  1  0  0  0
  5  6  1  0  0  0  0
  5  9  1  1  0  0  0
  5  4  1  0  0  0  0
  6  2  1  6  0  0  0
  6  4  1  0  0  0  0
  7 10  1  0  0  0  0
  8 11  2  0  0  0  0
  8  9  1  0  0  0  0
  9  7  2  0  0  0  0
 11 12  1  0  0  0  0
 12 10  2  0  0  0  0
 13 14  1  0  0  0  0
 15 16  1  0  0  0  0
 15  3  1  0  0  0  0
 16 17  1  0  0  0  0
 18 17  1  0  0  0  0
 19 22  1  0  0  0  0
 19 23  1  0  0  0  0
 20 21  2  0  0  0  0
 20 25  1  0  0  0  0
 22 20  1  0  0  0  0
 23 18  1  1  0  0  0
 23 24  1  0  0  0  0
 24 25  2  0  0  0  0
 25 26  1  0  0  0  0
 26 29  2  0  0  0  0
 26 31  1  0  0  0  0
 28 27  1  0  0  0  0
 28 33  1  0  0  0  0
 29 30  1  0  0  0  0
 30 27  2  0  0  0  0
 31 28  2  0  0  0  0
 32 33  1  0  0  0  0
 34  2  1  0  0  0  0
 36 38  1  0  0  0  0
 37 36  1  0  0  0  0
 38 34  1  6  0  0  0
 39 37  1  6  0  0  0
 39 35  1  0  0  0  0
 39 40  1  0  0  0  0
 40 35  1  6  0  0  0
 40 38  1  0  0  0  0
M  END
>  <MODEL>
3

>  <REMARK>
 VINA RESULT:      -7.7      4.241      7.732
  Name = 
  12 active torsions:
  status: ('A' for Active; 'I' for Inactive)
    1  A    between atoms: C_3  and  N_5
    2  A    between atoms: C_3  and  C_30
    3  A    between atoms: C_4  and  C_40
    4  A    between atoms: N_5  and  C_29
    5  A    between atoms: C_12  and  O_13
    6  A    between atoms: C_15  and  C_29
    7  A    between atoms: C_15  and  C_33
    8  A    between atoms: N_17  and  C_36
    9  A    between atoms: N_17  and  C_37
   10  A    between atoms: C_19  and  C_32
   11  A    between atoms: C_21  and  C_36
   12  A    between atoms: C_28  and  C_34
                            x       y       z     vdW  Elec       q    Type
                         _______ _______ _______ _____ _____    ______ ____

>  <TORSDO>
F 12

$$$$
=
 OpenBabel11072415143D

 40 45  0  0  1  0  0  0  0  0999 V2000
  160.8310  207.4940  152.0070 N   0  0  0  0  0  2  0  0  0  0  0  0
  161.3420  209.8100  152.0050 N   0  0  0  0  0  0  0  0  0  0  0  0
  161.5200  208.4690  151.5080 C   0  0  0  0  0  0  0  0  0  0  0  0
  161.2340  210.1860  154.4180 C   0  0  2  0  0  3  0  0  0  0  0  0
  160.7060  211.4510  153.7260 C   0  0  1  0  0  3  0  0  0  0  0  0
  160.4380  210.0710  153.1290 C   0  0  1  0  0  3  0  0  0  0  0  0
  158.1950  211.7630  153.8110 C   0  0  0  0  0  3  0  0  0  0  0  0
  159.5860  212.9790  155.3770 C   0  0  0  0  0  3  0  0  0  0  0  0
  159.4650  212.0510  154.3340 C   0  0  0  0  0  0  0  0  0  0  0  0
  157.0570  212.3670  154.3530 C   0  0  0  0  0  3  0  0  0  0  0  0
  158.4470  213.5820  155.9180 C   0  0  0  0  0  3  0  0  0  0  0  0
  157.1820  213.2740  155.4080 C   0  0  0  0  0  3  0  0  0  0  0  0
  160.3870  209.6510  155.5650 C   0  0  0  0  0  2  0  0  0  0  0  0
  160.0790  208.3120  155.3280 O   0  0  0  0  0  1  0  0  0  0  0  0
  162.6170  208.1600  150.5340 C   0  0  0  0  0  2  0  0  0  0  0  0
  162.1690  207.1610  149.4710 C   0  0  0  0  0  2  0  0  0  0  0  0
  161.4010  207.8230  148.4250 N   0  0  0  0  0  2  0  0  0  0  0  0
  162.0190  207.4980  147.1470 C   0  0  0  0  0  2  0  0  0  0  0  0
  162.1060  205.8260  145.2970 C   0  0  0  0  0  2  0  0  0  0  0  0
  161.1880  203.5440  145.7550 C   0  0  0  0  0  0  0  0  0  0  0  0
  160.8390  202.4120  145.3300 O   0  0  0  0  0  0  0  0  0  0  0  0
  161.5540  204.5630  144.8180 N   0  0  0  0  0  2  0  0  0  0  0  0
  161.3580  206.2690  146.5500 C   0  0  1  0  0  3  0  0  0  0  0  0
  161.3230  205.1520  147.5610 C   0  0  0  0  0  3  0  0  0  0  0  0
  161.1980  203.8630  147.2090 C   0  0  0  0  0  0  0  0  0  0  0  0
  161.1190  202.8180  148.2700 C   0  0  0  0  0  0  0  0  0  0  0  0
  160.9630  200.8310  150.2560 C   0  0  0  0  0  3  0  0  0  0  0  0
  160.8670  202.1840  150.6150 C   0  0  0  0  0  0  0  0  0  0  0  0
  161.2090  201.4550  147.9350 C   0  0  0  0  0  3  0  0  0  0  0  0
  161.1320  200.4690  148.9190 C   0  0  0  0  0  3  0  0  0  0  0  0
  160.9440  203.1640  149.6200 C   0  0  0  0  0  3  0  0  0  0  0  0
  160.9180  203.9140  152.3830 C   0  0  0  0  0  1  0  0  0  0  0  0
  160.6970  202.5810  151.9440 O   0  0  0  0  0  0  0  0  0  0  0  0
  161.9100  210.9380  151.2680 C   0  0  0  0  0  2  0  0  0  0  0  0
  162.7580  212.2280  148.5560 C   0  0  0  0  0  2  0  0  0  0  0  0
  160.5460  212.8150  150.3540 C   0  0  0  0  0  2  0  0  0  0  0  0
  160.6470  213.4920  149.0010 C   0  0  0  0  0  2  0  0  0  0  0  0
  160.9710  211.3770  150.1490 C   0  0  1  0  0  3  0  0  0  0  0  0
  161.3680  212.5530  148.0420 C   0  0  2  0  0  3  0  0  0  0  0  0
  161.6160  211.2440  148.7700 C   0  0  1  0  0  3  0  0  0  0  0  0
  3  2  1  0  0  0  0
  3  1  2  0  0  0  0
  4 13  1  1  0  0  0
  5  9  1  1  0  0  0
  5  4  1  0  0  0  0
  6  2  1  6  0  0  0
  6  5  1  0  0  0  0
  6  4  1  0  0  0  0
  7  9  2  0  0  0  0
  7 10  1  0  0  0  0
  8 11  2  0  0  0  0
  9  8  1  0  0  0  0
 10 12  2  0  0  0  0
 12 11  1  0  0  0  0
 14 13  1  0  0  0  0
 15  3  1  0  0  0  0
 16 15  1  0  0  0  0
 17 16  1  0  0  0  0
 18 17  1  0  0  0  0
 19 23  1  0  0  0  0
 20 25  1  0  0  0  0
 21 20  2  0  0  0  0
 22 19  1  0  0  0  0
 22 20  1  0  0  0  0
 23 18  1  1  0  0  0
 23 24  1  0  0  0  0
 25 24  2  0  0  0  0
 25 26  1  0  0  0  0
 26 31  1  0  0  0  0
 27 28  1  0  0  0  0
 28 33  1  0  0  0  0
 29 26  2  0  0  0  0
 29 30  1  0  0  0  0
 30 27  2  0  0  0  0
 31 28  2  0  0  0  0
 33 32  1  0  0  0  0
 34  2  1  0  0  0  0
 37 36  1  0  0  0  0
 38 36  1  0  0  0  0
 38 34  1  1  0  0  0
 39 35  1  1  0  0  0
 39 40  1  0  0  0  0
 39 37  1  0  0  0  0
 40 35  1  1  0  0  0
 40 38  1  0  0  0  0
M  END
>  <MODEL>
4

>  <REMARK>
 VINA RESULT:      -7.4      4.442      9.224
  Name = 
  12 active torsions:
  status: ('A' for Active; 'I' for Inactive)
    1  A    between atoms: C_3  and  N_5
    2  A    between atoms: C_3  and  C_30
    3  A    between atoms: C_4  and  C_40
    4  A    between atoms: N_5  and  C_29
    5  A    between atoms: C_12  and  O_13
    6  A    between atoms: C_15  and  C_29
    7  A    between atoms: C_15  and  C_33
    8  A    between atoms: N_17  and  C_36
    9  A    between atoms: N_17  and  C_37
   10  A    between atoms: C_19  and  C_32
   11  A    between atoms: C_21  and  C_36
   12  A    between atoms: C_28  and  C_34
                            x       y       z     vdW  Elec       q    Type
                         _______ _______ _______ _____ _____    ______ ____

>  <TORSDO>
F 12

$$$$
=
 OpenBabel11072415143D

 40 45  0  0  1  0  0  0  0  0999 V2000
  161.9400  203.1380  151.9880 N   0  0  0  0  0  2  0  0  0  0  0  0
  161.1570  204.9710  150.7030 N   0  0  0  0  0  0  0  0  0  0  0  0
  161.3420  204.2850  151.9570 C   0  0  0  0  0  0  0  0  0  0  0  0
  160.5160  203.3570  148.9840 C   0  0  2  0  0  3  0  0  0  0  0  0
  160.6280  204.7330  148.3120 C   0  0  1  0  0  3  0  0  0  0  0  0
  161.5740  204.3450  149.4460 C   0  0  1  0  0  3  0  0  0  0  0  0
  162.7260  204.7840  146.8960 C   0  0  0  0  0  3  0  0  0  0  0  0
  160.5660  204.8130  145.8000 C   0  0  0  0  0  3  0  0  0  0  0  0
  161.3250  204.7470  146.9770 C   0  0  0  0  0  0  0  0  0  0  0  0
  163.3580  204.8470  145.6510 C   0  0  0  0  0  3  0  0  0  0  0  0
  161.2000  204.8760  144.5560 C   0  0  0  0  0  3  0  0  0  0  0  0
  162.5960  204.8900  144.4810 C   0  0  0  0  0  3  0  0  0  0  0  0
  161.2030  202.2060  148.2630 C   0  0  0  0  0  2  0  0  0  0  0  0
  161.1700  201.0690  149.0700 O   0  0  0  0  0  1  0  0  0  0  0  0
  160.7020  204.8050  153.2090 C   0  0  0  0  0  2  0  0  0  0  0  0
  161.5100  205.9400  153.8320 C   0  0  0  0  0  2  0  0  0  0  0  0
  160.6490  206.8340  154.5940 N   0  0  0  0  0  2  0  0  0  0  0  0
  161.4440  207.9910  154.9840 C   0  0  0  0  0  2  0  0  0  0  0  0
  161.2970  209.7770  156.7190 C   0  0  0  0  0  2  0  0  0  0  0  0
  159.7360  211.6840  156.2880 C   0  0  0  0  0  0  0  0  0  0  0  0
  159.1440  212.7150  156.7040 O   0  0  0  0  0  0  0  0  0  0  0  0
  160.4830  210.8830  157.2110 N   0  0  0  0  0  2  0  0  0  0  0  0
  160.5490  209.0450  155.6100 C   0  0  1  0  0  3  0  0  0  0  0  0
  160.0820  210.0210  154.5620 C   0  0  0  0  0  3  0  0  0  0  0  0
  159.6520  211.2560  154.8650 C   0  0  0  0  0  0  0  0  0  0  0  0
  159.1560  212.1470  153.7780 C   0  0  0  0  0  0  0  0  0  0  0  0
  158.2420  213.8350  151.7200 C   0  0  0  0  0  3  0  0  0  0  0  0
  157.4110  213.5590  152.8150 C   0  0  0  0  0  0  0  0  0  0  0  0
  159.9730  212.4420  152.6710 C   0  0  0  0  0  3  0  0  0  0  0  0
  159.5200  213.2790  151.6500 C   0  0  0  0  0  3  0  0  0  0  0  0
  157.8750  212.7200  153.8340 C   0  0  0  0  0  3  0  0  0  0  0  0
  155.2740  213.8550  154.0270 C   0  0  0  0  0  1  0  0  0  0  0  0
  156.1250  214.0990  152.9170 O   0  0  0  0  0  0  0  0  0  0  0  0
  160.7350  206.3710  150.6990 C   0  0  0  0  0  2  0  0  0  0  0  0
  161.1300  209.3510  151.5370 C   0  0  0  0  0  2  0  0  0  0  0  0
  161.5340  208.0010  148.9900 C   0  0  0  0  0  2  0  0  0  0  0  0
  161.9560  209.4450  149.1780 C   0  0  0  0  0  2  0  0  0  0  0  0
  161.8830  207.2800  150.2730 C   0  0  1  0  0  3  0  0  0  0  0  0
  162.3170  209.6570  150.6430 C   0  0  2  0  0  3  0  0  0  0  0  0
  162.2270  208.3140  151.3440 C   0  0  1  0  0  3  0  0  0  0  0  0
  2  3  1  0  0  0  0
  3  1  2  0  0  0  0
  3 15  1  0  0  0  0
  4 13  1  6  0  0  0
  4  6  1  0  0  0  0
  5  9  1  6  0  0  0
  5  4  1  0  0  0  0
  5  6  1  0  0  0  0
  6  2  1  1  0  0  0
  7  9  1  0  0  0  0
  8  9  2  0  0  0  0
 10  7  2  0  0  0  0
 11  8  1  0  0  0  0
 12 11  2  0  0  0  0
 12 10  1  0  0  0  0
 13 14  1  0  0  0  0
 15 16  1  0  0  0  0
 16 17  1  0  0  0  0
 17 18  1  0  0  0  0
 19 22  1  0  0  0  0
 20 21  2  0  0  0  0
 20 22  1  0  0  0  0
 23 18  1  6  0  0  0
 23 19  1  0  0  0  0
 24 25  2  0  0  0  0
 24 23  1  0  0  0  0
 25 20  1  0  0  0  0
 26 31  1  0  0  0  0
 26 25  1  0  0  0  0
 27 28  1  0  0  0  0
 28 33  1  0  0  0  0
 28 31  2  0  0  0  0
 29 26  2  0  0  0  0
 30 27  2  0  0  0  0
 30 29  1  0  0  0  0
 33 32  1  0  0  0  0
 34  2  1  0  0  0  0
 36 37  1  0  0  0  0
 36 38  1  0  0  0  0
 38 34  1  1  0  0  0
 38 40  1  0  0  0  0
 39 37  1  6  0  0  0
 39 40  1  0  0  0  0
 39 35  1  0  0  0  0
 40 35  1  1  0  0  0
M  END
>  <MODEL>
5

>  <REMARK>
 VINA RESULT:      -7.4      5.664      8.873
  Name = 
  12 active torsions:
  status: ('A' for Active; 'I' for Inactive)
    1  A    between atoms: C_3  and  N_5
    2  A    between atoms: C_3  and  C_30
    3  A    between atoms: C_4  and  C_40
    4  A    between atoms: N_5  and  C_29
    5  A    between atoms: C_12  and  O_13
    6  A    between atoms: C_15  and  C_29
    7  A    between atoms: C_15  and  C_33
    8  A    between atoms: N_17  and  C_36
    9  A    between atoms: N_17  and  C_37
   10  A    between atoms: C_19  and  C_32
   11  A    between atoms: C_21  and  C_36
   12  A    between atoms: C_28  and  C_34
                            x       y       z     vdW  Elec       q    Type
                         _______ _______ _______ _____ _____    ______ ____

>  <TORSDO>
F 12

$$$$
=
 OpenBabel11072415143D

 40 45  0  0  1  0  0  0  0  0999 V2000
  162.0920  209.2700  150.5020 N   0  0  0  0  0  2  0  0  0  0  0  0
  161.8800  207.6590  148.7750 N   0  0  0  0  0  0  0  0  0  0  0  0
  161.9260  209.0210  149.2430 C   0  0  0  0  0  0  0  0  0  0  0  0
  161.0640  206.8400  150.9280 C   0  0  2  0  0  3  0  0  0  0  0  0
  160.5830  205.8620  149.8460 C   0  0  1  0  0  3  0  0  0  0  0  0
  161.9430  206.5450  149.7250 C   0  0  1  0  0  3  0  0  0  0  0  0
  160.8230  203.4320  149.1790 C   0  0  0  0  0  3  0  0  0  0  0  0
  160.6390  203.9950  151.5280 C   0  0  0  0  0  3  0  0  0  0  0  0
  160.7150  204.4020  150.1880 C   0  0  0  0  0  0  0  0  0  0  0  0
  160.8940  202.0760  149.5100 C   0  0  0  0  0  3  0  0  0  0  0  0
  160.7100  202.6390  151.8570 C   0  0  0  0  0  3  0  0  0  0  0  0
  160.8410  201.6790  150.8480 C   0  0  0  0  0  3  0  0  0  0  0  0
  161.6950  206.2100  152.1620 C   0  0  0  0  0  2  0  0  0  0  0  0
  163.0820  206.1870  152.0120 O   0  0  0  0  0  1  0  0  0  0  0  0
  161.6160  210.1550  148.3120 C   0  0  0  0  0  2  0  0  0  0  0  0
  162.6130  211.3010  148.4610 C   0  0  0  0  0  2  0  0  0  0  0  0
  161.9260  212.5830  148.5310 N   0  0  0  0  0  2  0  0  0  0  0  0
  162.0150  213.2070  147.2180 C   0  0  0  0  0  2  0  0  0  0  0  0
  160.1770  212.3410  145.7710 C   0  0  0  0  0  2  0  0  0  0  0  0
  157.8380  213.0200  146.3400 C   0  0  0  0  0  0  0  0  0  0  0  0
  156.6170  213.0640  146.0340 O   0  0  0  0  0  0  0  0  0  0  0  0
  158.7860  212.5420  145.3800 N   0  0  0  0  0  2  0  0  0  0  0  0
  160.6220  213.4820  146.6800 C   0  0  1  0  0  3  0  0  0  0  0  0
  159.6490  213.6550  147.8160 C   0  0  0  0  0  3  0  0  0  0  0  0
  158.3260  213.4860  147.6670 C   0  0  0  0  0  0  0  0  0  0  0  0
  157.4210  213.7260  148.8270 C   0  0  0  0  0  0  0  0  0  0  0  0
  155.7010  214.1960  151.0040 C   0  0  0  0  0  3  0  0  0  0  0  0
  156.9980  213.7140  151.2320 C   0  0  0  0  0  0  0  0  0  0  0  0
  156.1170  214.2130  148.6230 C   0  0  0  0  0  3  0  0  0  0  0  0
  155.2630  214.4460  149.7020 C   0  0  0  0  0  3  0  0  0  0  0  0
  157.8460  213.4860  150.1440 C   0  0  0  0  0  3  0  0  0  0  0  0
  158.8510  213.3940  152.8400 C   0  0  0  0  0  1  0  0  0  0  0  0
  157.4680  213.4540  152.5230 O   0  0  0  0  0  0  0  0  0  0  0  0
  161.9680  207.3820  147.3420 C   0  0  0  0  0  2  0  0  0  0  0  0
  163.0820  205.1450  145.4730 C   0  0  0  0  0  2  0  0  0  0  0  0
  160.3990  206.2330  145.7800 C   0  0  0  0  0  2  0  0  0  0  0  0
  160.6500  205.0230  144.9030 C   0  0  0  0  0  2  0  0  0  0  0  0
  161.2750  206.0660  147.0040 C   0  0  1  0  0  3  0  0  0  0  0  0
  161.8480  204.2620  145.4560 C   0  0  2  0  0  3  0  0  0  0  0  0
  162.2740  204.9390  146.7470 C   0  0  1  0  0  3  0  0  0  0  0  0
  2  3  1  0  0  0  0
  3  1  2  0  0  0  0
  4 13  1  1  0  0  0
  5  9  1  1  0  0  0
  5  4  1  0  0  0  0
  6  2  1  6  0  0  0
  6  5  1  0  0  0  0
  6  4  1  0  0  0  0
  7 10  2  0  0  0  0
  7  9  1  0  0  0  0
  8 11  1  0  0  0  0
  9  8  2  0  0  0  0
 10 12  1  0  0  0  0
 12 11  2  0  0  0  0
 14 13  1  0  0  0  0
 15 16  1  0  0  0  0
 15  3  1  0  0  0  0
 16 17  1  0  0  0  0
 18 17  1  0  0  0  0
 19 23  1  0  0  0  0
 20 25  1  0  0  0  0
 21 20  2  0  0  0  0
 22 19  1  0  0  0  0
 22 20  1  0  0  0  0
 23 18  1  1  0  0  0
 23 24  1  0  0  0  0
 25 24  2  0  0  0  0
 25 26  1  0  0  0  0
 26 31  1  0  0  0  0
 27 28  1  0  0  0  0
 28 33  1  0  0  0  0
 29 26  2  0  0  0  0
 29 30  1  0  0  0  0
 30 27  2  0  0  0  0
 31 28  2  0  0  0  0
 33 32  1  0  0  0  0
 34  2  1  0  0  0  0
 36 38  1  0  0  0  0
 37 36  1  0  0  0  0
 38 34  1  6  0  0  0
 39 37  1  6  0  0  0
 39 35  1  0  0  0  0
 39 40  1  0  0  0  0
 40 35  1  6  0  0  0
 40 38  1  0  0  0  0
M  END
>  <MODEL>
6

>  <REMARK>
 VINA RESULT:      -7.4      3.376      6.808
  Name = 
  12 active torsions:
  status: ('A' for Active; 'I' for Inactive)
    1  A    between atoms: C_3  and  N_5
    2  A    between atoms: C_3  and  C_30
    3  A    between atoms: C_4  and  C_40
    4  A    between atoms: N_5  and  C_29
    5  A    between atoms: C_12  and  O_13
    6  A    between atoms: C_15  and  C_29
    7  A    between atoms: C_15  and  C_33
    8  A    between atoms: N_17  and  C_36
    9  A    between atoms: N_17  and  C_37
   10  A    between atoms: C_19  and  C_32
   11  A    between atoms: C_21  and  C_36
   12  A    between atoms: C_28  and  C_34
                            x       y       z     vdW  Elec       q    Type
                         _______ _______ _______ _____ _____    ______ ____

>  <TORSDO>
F 12

$$$$
=
 OpenBabel11072415143D

 40 45  0  0  1  0  0  0  0  0999 V2000
  161.1790  209.1650  147.7390 N   0  0  0  0  0  2  0  0  0  0  0  0
  161.8220  207.7290  149.5120 N   0  0  0  0  0  0  0  0  0  0  0  0
  161.8250  209.0070  148.8490 C   0  0  0  0  0  0  0  0  0  0  0  0
  161.6340  206.3990  147.4710 C   0  0  2  0  0  3  0  0  0  0  0  0
  162.1630  205.4770  148.5790 C   0  0  1  0  0  3  0  0  0  0  0  0
  161.1540  206.5760  148.9010 C   0  0  1  0  0  3  0  0  0  0  0  0
  161.5760  203.2540  147.5200 C   0  0  0  0  0  3  0  0  0  0  0  0
  160.8390  203.7120  149.7810 C   0  0  0  0  0  3  0  0  0  0  0  0
  161.5400  204.1070  148.6340 C   0  0  0  0  0  0  0  0  0  0  0  0
  160.9510  202.0050  147.5690 C   0  0  0  0  0  3  0  0  0  0  0  0
  160.2130  202.4630  149.8280 C   0  0  0  0  0  3  0  0  0  0  0  0
  160.2720  201.6080  148.7240 C   0  0  0  0  0  3  0  0  0  0  0  0
  160.4870  205.8450  146.6350 C   0  0  0  0  0  2  0  0  0  0  0  0
  160.4570  206.4960  145.4020 O   0  0  0  0  0  1  0  0  0  0  0  0
  162.7060  210.1160  149.3410 C   0  0  0  0  0  2  0  0  0  0  0  0
  162.0360  211.4810  149.2010 C   0  0  0  0  0  2  0  0  0  0  0  0
  162.5010  212.1690  148.0050 N   0  0  0  0  0  2  0  0  0  0  0  0
  162.0600  213.5540  148.0900 C   0  0  0  0  0  2  0  0  0  0  0  0
  160.4430  212.5020  146.5070 C   0  0  0  0  0  2  0  0  0  0  0  0
  158.0220  213.0670  146.7810 C   0  0  0  0  0  0  0  0  0  0  0  0
  156.8420  213.0200  146.3430 O   0  0  0  0  0  0  0  0  0  0  0  0
  159.0950  212.5980  145.9580 N   0  0  0  0  0  2  0  0  0  0  0  0
  160.7220  213.7140  147.3900 C   0  0  1  0  0  3  0  0  0  0  0  0
  159.6220  213.8880  148.4030 C   0  0  0  0  0  3  0  0  0  0  0  0
  158.3350  213.6310  148.1230 C   0  0  0  0  0  0  0  0  0  0  0  0
  157.2940  213.8760  149.1630 C   0  0  0  0  0  0  0  0  0  0  0  0
  155.3200  214.3530  151.1100 C   0  0  0  0  0  3  0  0  0  0  0  0
  156.6250  214.0220  151.5070 C   0  0  0  0  0  0  0  0  0  0  0  0
  155.9810  214.2130  148.7900 C   0  0  0  0  0  3  0  0  0  0  0  0
  155.0000  214.4490  149.7550 C   0  0  0  0  0  3  0  0  0  0  0  0
  157.5990  213.7890  150.5310 C   0  0  0  0  0  3  0  0  0  0  0  0
  158.2560  213.4710  153.2820 C   0  0  0  0  0  1  0  0  0  0  0  0
  156.9780  213.9180  152.8550 O   0  0  0  0  0  0  0  0  0  0  0  0
  162.3150  207.6240  150.8850 C   0  0  0  0  0  2  0  0  0  0  0  0
  161.6690  209.4670  153.3190 C   0  0  0  0  0  2  0  0  0  0  0  0
  161.5750  206.5730  153.0230 C   0  0  0  0  0  2  0  0  0  0  0  0
  161.0520  207.2420  154.2780 C   0  0  0  0  0  2  0  0  0  0  0  0
  161.1570  207.4500  151.8620 C   0  0  1  0  0  3  0  0  0  0  0  0
  160.5500  208.6330  153.9140 C   0  0  2  0  0  3  0  0  0  0  0  0
  160.6580  208.7870  152.4070 C   0  0  1  0  0  3  0  0  0  0  0  0
  1  3  2  0  0  0  0
  2 34  1  0  0  0  0
  3 15  1  0  0  0  0
  3  2  1  0  0  0  0
  4 13  1  6  0  0  0
  4  5  1  0  0  0  0
  4  6  1  0  0  0  0
  5  9  1  6  0  0  0
  5  6  1  0  0  0  0
  6  2  1  1  0  0  0
  7 10  2  0  0  0  0
  7  9  1  0  0  0  0
  8 11  1  0  0  0  0
  9  8  2  0  0  0  0
 10 12  1  0  0  0  0
 12 11  2  0  0  0  0
 14 13  1  0  0  0  0
 16 15  1  0  0  0  0
 17 18  1  0  0  0  0
 17 16  1  0  0  0  0
 19 23  1  0  0  0  0
 20 25  1  0  0  0  0
 21 20  2  0  0  0  0
 22 19  1  0  0  0  0
 22 20  1  0  0  0  0
 23 18  1  1  0  0  0
 23 24  1  0  0  0  0
 25 24  2  0  0  0  0
 25 26  1  0  0  0  0
 26 31  1  0  0  0  0
 27 28  1  0  0  0  0
 28 33  1  0  0  0  0
 29 26  2  0  0  0  0
 29 30  1  0  0  0  0
 30 27  2  0  0  0  0
 31 28  2  0  0  0  0
 33 32  1  0  0  0  0
 36 37  1  0  0  0  0
 38 34  1  6  0  0  0
 38 40  1  0  0  0  0
 38 36  1  0  0  0  0
 39 35  1  1  0  0  0
 39 37  1  0  0  0  0
 40 35  1  1  0  0  0
 40 39  1  0  0  0  0
M  END
>  <MODEL>
7

>  <REMARK>
 VINA RESULT:      -7.3      3.522      6.144
  Name = 
  12 active torsions:
  status: ('A' for Active; 'I' for Inactive)
    1  A    between atoms: C_3  and  N_5
    2  A    between atoms: C_3  and  C_30
    3  A    between atoms: C_4  and  C_40
    4  A    between atoms: N_5  and  C_29
    5  A    between atoms: C_12  and  O_13
    6  A    between atoms: C_15  and  C_29
    7  A    between atoms: C_15  and  C_33
    8  A    between atoms: N_17  and  C_36
    9  A    between atoms: N_17  and  C_37
   10  A    between atoms: C_19  and  C_32
   11  A    between atoms: C_21  and  C_36
   12  A    between atoms: C_28  and  C_34
                            x       y       z     vdW  Elec       q    Type
                         _______ _______ _______ _____ _____    ______ ____

>  <TORSDO>
F 12

$$$$
=
 OpenBabel11072415143D

 40 45  0  0  1  0  0  0  0  0999 V2000
  162.2480  209.9700  148.6370 N   0  0  0  0  0  2  0  0  0  0  0  0
  161.1330  211.6570  149.8770 N   0  0  0  0  0  0  0  0  0  0  0  0
  161.8890  210.4330  149.7910 C   0  0  0  0  0  0  0  0  0  0  0  0
  160.6680  213.8480  148.9000 C   0  0  2  0  0  3  0  0  0  0  0  0
  161.8230  213.2210  148.1060 C   0  0  1  0  0  3  0  0  0  0  0  0
  160.6990  212.3480  148.6600 C   0  0  1  0  0  3  0  0  0  0  0  0
  160.6930  212.7690  145.8860 C   0  0  0  0  0  3  0  0  0  0  0  0
  162.7550  214.0400  145.9210 C   0  0  0  0  0  3  0  0  0  0  0  0
  161.7350  213.3690  146.6100 C   0  0  0  0  0  0  0  0  0  0  0  0
  160.6530  212.8720  144.4930 C   0  0  0  0  0  3  0  0  0  0  0  0
  162.7130  214.1420  144.5270 C   0  0  0  0  0  3  0  0  0  0  0  0
  161.6600  213.5610  143.8140 C   0  0  0  0  0  3  0  0  0  0  0  0
  159.5420  214.4530  148.0720 C   0  0  0  0  0  2  0  0  0  0  0  0
  158.3920  213.6770  148.2180 O   0  0  0  0  0  1  0  0  0  0  0  0
  162.1220  209.5970  151.0140 C   0  0  0  0  0  2  0  0  0  0  0  0
  162.4600  208.1520  150.6580 C   0  0  0  0  0  2  0  0  0  0  0  0
  161.3150  207.2800  150.8790 N   0  0  0  0  0  2  0  0  0  0  0  0
  161.5360  206.5620  152.1260 C   0  0  0  0  0  2  0  0  0  0  0  0
  160.6110  204.2950  152.6020 C   0  0  0  0  0  2  0  0  0  0  0  0
  160.8920  202.5380  150.8440 C   0  0  0  0  0  0  0  0  0  0  0  0
  160.8070  201.3310  150.4950 O   0  0  0  0  0  0  0  0  0  0  0  0
  160.6670  202.8900  152.2130 N   0  0  0  0  0  2  0  0  0  0  0  0
  161.6820  205.0770  151.8490 C   0  0  1  0  0  3  0  0  0  0  0  0
  161.5830  204.8100  150.3710 C   0  0  0  0  0  3  0  0  0  0  0  0
  161.2550  203.6070  149.8740 C   0  0  0  0  0  0  0  0  0  0  0  0
  161.2280  203.4060  148.3970 C   0  0  0  0  0  0  0  0  0  0  0  0
  161.1800  203.0050  145.6120 C   0  0  0  0  0  3  0  0  0  0  0  0
  161.5790  204.2460  146.1300 C   0  0  0  0  0  0  0  0  0  0  0  0
  160.8350  202.1700  147.8530 C   0  0  0  0  0  3  0  0  0  0  0  0
  160.8110  201.9700  146.4720 C   0  0  0  0  0  3  0  0  0  0  0  0
  161.6020  204.4350  147.5160 C   0  0  0  0  0  3  0  0  0  0  0  0
  161.4350  205.4720  143.9860 C   0  0  0  0  0  1  0  0  0  0  0  0
  161.9560  205.3030  145.2970 O   0  0  0  0  0  0  0  0  0  0  0  0
  160.9670  212.3160  151.1710 C   0  0  0  0  0  2  0  0  0  0  0  0
  158.7960  214.0940  152.5380 C   0  0  0  0  0  2  0  0  0  0  0  0
  159.9870  211.5610  153.3370 C   0  0  0  0  0  2  0  0  0  0  0  0
  158.8220  212.1480  154.1080 C   0  0  0  0  0  2  0  0  0  0  0  0
  159.7070  211.8180  151.8720 C   0  0  1  0  0  3  0  0  0  0  0  0
  157.9740  212.9750  153.1510 C   0  0  2  0  0  3  0  0  0  0  0  0
  158.5520  212.8110  151.7570 C   0  0  1  0  0  3  0  0  0  0  0  0
  1  3  2  0  0  0  0
  2 34  1  0  0  0  0
  3  2  1  0  0  0  0
  3 15  1  0  0  0  0
  4 13  1  6  0  0  0
  5  9  1  6  0  0  0
  5  6  1  0  0  0  0
  5  4  1  0  0  0  0
  6  4  1  0  0  0  0
  6  2  1  1  0  0  0
  7  9  1  0  0  0  0
  8  9  2  0  0  0  0
 10  7  2  0  0  0  0
 11  8  1  0  0  0  0
 12 10  1  0  0  0  0
 12 11  2  0  0  0  0
 13 14  1  0  0  0  0
 16 17  1  0  0  0  0
 16 15  1  0  0  0  0
 17 18  1  0  0  0  0
 20 22  1  0  0  0  0
 21 20  2  0  0  0  0
 22 19  1  0  0  0  0
 23 18  1  6  0  0  0
 23 19  1  0  0  0  0
 24 23  1  0  0  0  0
 25 24  2  0  0  0  0
 25 20  1  0  0  0  0
 26 25  1  0  0  0  0
 27 28  2  0  0  0  0
 27 30  1  0  0  0  0
 28 31  1  0  0  0  0
 29 26  1  0  0  0  0
 30 29  2  0  0  0  0
 31 26  2  0  0  0  0
 32 33  1  0  0  0  0
 33 28  1  0  0  0  0
 36 37  1  0  0  0  0
 38 34  1  1  0  0  0
 38 36  1  0  0  0  0
 39 35  1  1  0  0  0
 39 37  1  0  0  0  0
 40 38  1  0  0  0  0
 40 35  1  1  0  0  0
 40 39  1  0  0  0  0
M  END
>  <MODEL>
8

>  <REMARK>
 VINA RESULT:      -7.3      2.743      8.860
  Name = 
  12 active torsions:
  status: ('A' for Active; 'I' for Inactive)
    1  A    between atoms: C_3  and  N_5
    2  A    between atoms: C_3  and  C_30
    3  A    between atoms: C_4  and  C_40
    4  A    between atoms: N_5  and  C_29
    5  A    between atoms: C_12  and  O_13
    6  A    between atoms: C_15  and  C_29
    7  A    between atoms: C_15  and  C_33
    8  A    between atoms: N_17  and  C_36
    9  A    between atoms: N_17  and  C_37
   10  A    between atoms: C_19  and  C_32
   11  A    between atoms: C_21  and  C_36
   12  A    between atoms: C_28  and  C_34
                            x       y       z     vdW  Elec       q    Type
                         _______ _______ _______ _____ _____    ______ ____

>  <TORSDO>
F 12

$$$$
=
 OpenBabel11072415143D

 40 45  0  0  1  0  0  0  0  0999 V2000
  160.6610  210.0060  151.3710 N   0  0  0  0  0  2  0  0  0  0  0  0
  159.4630  211.7180  152.4920 N   0  0  0  0  0  0  0  0  0  0  0  0
  160.1920  210.4760  152.4820 C   0  0  0  0  0  0  0  0  0  0  0  0
  158.9850  213.9040  151.5100 C   0  0  2  0  0  3  0  0  0  0  0  0
  160.3010  213.3990  150.9030 C   0  0  1  0  0  3  0  0  0  0  0  0
  159.1780  212.4220  151.2390 C   0  0  1  0  0  3  0  0  0  0  0  0
  159.5380  213.0190  148.5190 C   0  0  0  0  0  3  0  0  0  0  0  0
  161.5560  214.2990  148.9200 C   0  0  0  0  0  3  0  0  0  0  0  0
  160.4480  213.5990  149.4170 C   0  0  0  0  0  0  0  0  0  0  0  0
  159.7150  213.1720  147.1410 C   0  0  0  0  0  3  0  0  0  0  0  0
  161.7310  214.4500  147.5410 C   0  0  0  0  0  3  0  0  0  0  0  0
  160.8100  213.8890  146.6520 C   0  0  0  0  0  3  0  0  0  0  0  0
  157.9630  214.4530  150.5230 C   0  0  0  0  0  2  0  0  0  0  0  0
  156.8610  213.6000  150.4750 O   0  0  0  0  0  1  0  0  0  0  0  0
  160.2730  209.6320  153.7200 C   0  0  0  0  0  2  0  0  0  0  0  0
  161.3670  208.5730  153.6160 C   0  0  0  0  0  2  0  0  0  0  0  0
  160.8440  207.2520  153.9350 N   0  0  0  0  0  2  0  0  0  0  0  0
  161.5820  206.2780  153.1420 C   0  0  0  0  0  2  0  0  0  0  0  0
  162.2910  207.2770  150.9690 C   0  0  0  0  0  2  0  0  0  0  0  0
  161.5920  206.1040  148.8730 C   0  0  0  0  0  0  0  0  0  0  0  0
  161.4940  206.0950  147.6180 O   0  0  0  0  0  0  0  0  0  0  0  0
  162.0250  207.2980  149.5350 N   0  0  0  0  0  2  0  0  0  0  0  0
  161.2320  206.4360  151.6740 C   0  0  1  0  0  3  0  0  0  0  0  0
  161.1160  205.0850  151.0180 C   0  0  0  0  0  3  0  0  0  0  0  0
  161.2380  204.9130  149.6920 C   0  0  0  0  0  0  0  0  0  0  0  0
  161.0580  203.5520  149.1110 C   0  0  0  0  0  0  0  0  0  0  0  0
  160.7260  200.9740  148.0320 C   0  0  0  0  0  3  0  0  0  0  0  0
  160.9650  202.0610  147.1780 C   0  0  0  0  0  0  0  0  0  0  0  0
  160.8200  202.4460  149.9470 C   0  0  0  0  0  3  0  0  0  0  0  0
  160.6550  201.1670  149.4130 C   0  0  0  0  0  3  0  0  0  0  0  0
  161.1310  203.3380  147.7240 C   0  0  0  0  0  3  0  0  0  0  0  0
  160.0060  201.3030  145.0280 C   0  0  0  0  0  1  0  0  0  0  0  0
  161.0420  201.9020  145.7920 O   0  0  0  0  0  0  0  0  0  0  0  0
  159.1750  212.3790  153.7640 C   0  0  0  0  0  2  0  0  0  0  0  0
  157.6080  214.0730  155.8660 C   0  0  0  0  0  2  0  0  0  0  0  0
  157.5660  211.2220  155.2780 C   0  0  0  0  0  2  0  0  0  0  0  0
  156.5780  211.8280  156.2550 C   0  0  0  0  0  2  0  0  0  0  0  0
  157.7070  212.2110  154.1400 C   0  0  1  0  0  3  0  0  0  0  0  0
  156.3190  213.2730  155.8500 C   0  0  2  0  0  3  0  0  0  0  0  0
  157.0620  213.5330  154.5520 C   0  0  1  0  0  3  0  0  0  0  0  0
  1  3  2  0  0  0  0
  2 34  1  0  0  0  0
  3  2  1  0  0  0  0
  3 15  1  0  0  0  0
  4 13  1  6  0  0  0
  5  9  1  6  0  0  0
  5  6  1  0  0  0  0
  5  4  1  0  0  0  0
  6  4  1  0  0  0  0
  6  2  1  1  0  0  0
  7  9  1  0  0  0  0
  8  9  2  0  0  0  0
 10  7  2  0  0  0  0
 11  8  1  0  0  0  0
 12 10  1  0  0  0  0
 12 11  2  0  0  0  0
 14 13  1  0  0  0  0
 16 15  1  0  0  0  0
 16 17  1  0  0  0  0
 18 17  1  0  0  0  0
 19 23  1  0  0  0  0
 20 22  1  0  0  0  0
 20 25  1  0  0  0  0
 21 20  2  0  0  0  0
 22 19  1  0  0  0  0
 23 18  1  1  0  0  0
 24 23  1  0  0  0  0
 25 24  2  0  0  0  0
 26 25  1  0  0  0  0
 26 29  1  0  0  0  0
 27 30  1  0  0  0  0
 28 31  1  0  0  0  0
 28 27  2  0  0  0  0
 30 29  2  0  0  0  0
 31 26  2  0  0  0  0
 32 33  1  0  0  0  0
 33 28  1  0  0  0  0
 36 37  1  0  0  0  0
 38 34  1  1  0  0  0
 38 40  1  0  0  0  0
 38 36  1  0  0  0  0
 39 35  1  1  0  0  0
 39 37  1  0  0  0  0
 40 39  1  0  0  0  0
 40 35  1  1  0  0  0
M  END
>  <MODEL>
9

>  <REMARK>
 VINA RESULT:      -7.3      4.038      8.976
  Name = 
  12 active torsions:
  status: ('A' for Active; 'I' for Inactive)
    1  A    between atoms: C_3  and  N_5
    2  A    between atoms: C_3  and  C_30
    3  A    between atoms: C_4  and  C_40
    4  A    between atoms: N_5  and  C_29
    5  A    between atoms: C_12  and  O_13
    6  A    between atoms: C_15  and  C_29
    7  A    between atoms: C_15  and  C_33
    8  A    between atoms: N_17  and  C_36
    9  A    between atoms: N_17  and  C_37
   10  A    between atoms: C_19  and  C_32
   11  A    between atoms: C_21  and  C_36
   12  A    between atoms: C_28  and  C_34
                            x       y       z     vdW  Elec       q    Type
                         _______ _______ _______ _____ _____    ______ ____

>  <TORSDO>
F 12

$$$$
