=
 OpenBabel11072412133D

 31 34  0  0  1  0  0  0  0  0999 V2000
  158.3100  213.6530  149.1400 C   0  0  0  0  0  0  0  0  0  0  0  0
  160.4080  211.3420  150.9840 C   0  0  0  0  0  2  0  0  0  0  0  0
  160.1950  210.8660  155.2380 C   0  0  0  0  0  3  0  0  0  0  0  0
  160.6610  212.7910  150.5750 C   0  0  1  0  0  3  0  0  0  0  0  0
  159.4900  213.4860  152.7020 C   0  0  0  0  0  0  0  0  0  0  0  0
  160.6750  212.8730  149.0330 C   0  0  1  0  0  3  0  0  0  0  0  0
  156.8870  213.6810  148.3460 S   0  0  0  0  0  0  0  0  0  0  0  0
  159.9040  212.1990  153.2950 C   0  0  0  0  0  0  0  0  0  0  0  0
  158.9980  214.3870  153.4320 O   0  0  0  0  0  0  0  0  0  0  0  0
  160.8350  209.9550  153.0830 C   0  0  0  0  0  0  0  0  0  0  0  0
  160.7100  209.8220  154.4730 C   0  0  0  0  0  3  0  0  0  0  0  0
  159.6000  213.7690  148.3950 C   0  0  0  0  0  2  0  0  0  0  0  0
  159.8100  212.0210  154.6400 N   0  0  0  0  0  0  0  0  0  0  0  0
  158.3410  213.6260  150.5650 N   0  0  0  0  0  2  0  0  0  0  0  0
  159.6330  213.7370  151.2300 C   0  0  2  0  0  3  0  0  0  0  0  0
  160.4230  211.1700  152.4800 C   0  0  0  0  0  0  0  0  0  0  0  0
  162.6430  207.6660  150.8180 C   0  0  0  0  0  3  0  0  0  0  0  0
  161.8720  206.6650  151.6210 C   0  0  1  0  0  3  0  0  0  0  0  0
  161.1100  207.5390  152.5590 C   0  0  0  0  0  3  0  0  0  0  0  0
  162.3660  208.8930  151.2310 C   0  0  0  0  0  3  0  0  0  0  0  0
  161.4000  208.8110  152.3170 C   0  0  0  0  0  0  0  0  0  0  0  0
  160.3720  206.5810  149.2390 Cl  0  0  0  0  0  0  0  0  0  0  0  0
  160.9070  205.8230  150.7770 C   0  0  1  0  0  3  0  0  0  0  0  0
  161.0210  203.6880  151.8200 O   0  0  0  0  0  1  0  0  0  0  0  0
  161.3220  204.3540  150.6290 C   0  0  1  0  0  3  0  0  0  0  0  0
  160.5290  202.1610  149.6430 C   0  0  0  0  0  1  0  0  0  0  0  0
  161.4970  203.8720  148.1760 C   0  0  0  0  0  1  0  0  0  0  0  0
  160.6640  203.6590  149.4260 C   0  0  0  0  0  3  0  0  0  0  0  0
  162.8800  212.2910  148.0080 O   0  0  0  0  0  0  0  0  0  0  0  0
  162.0300  213.2530  148.5410 C   0  0  0  0  0  0  0  0  0  0  0  0
  162.4030  214.4530  148.6040 O   0  0  0  0  0  1  0  0  0  0  0  0
  1 14  1  0  0  0  0
  2 16  1  0  0  0  0
  4  2  1  6  0  0  0
  4 15  1  0  0  0  0
  5  8  1  0  0  0  0
  5  9  2  0  0  0  0
  6 30  1  1  0  0  0
  6  4  1  0  0  0  0
  7  1  2  0  0  0  0
  8 13  2  0  0  0  0
 10 11  1  0  0  0  0
 11  3  2  0  0  0  0
 12  6  1  0  0  0  0
 12  1  1  0  0  0  0
 13  3  1  0  0  0  0
 15 14  1  6  0  0  0
 15  5  1  0  0  0  0
 16 10  2  0  0  0  0
 16  8  1  0  0  0  0
 17 20  2  0  0  0  0
 17 18  1  0  0  0  0
 18 23  1  6  0  0  0
 18 19  1  0  0  0  0
 20 21  1  0  0  0  0
 21 19  2  0  0  0  0
 21 10  1  0  0  0  0
 23 22  1  6  0  0  0
 25 23  1  0  0  0  0
 25 24  1  1  0  0  0
 27 28  1  0  0  0  0
 28 26  1  0  0  0  0
 28 25  1  0  0  0  0
 29 30  2  0  0  0  0
 30 31  1  0  0  0  0
M  END
>  <MODEL>
1

>  <REMARK>
 VINA RESULT:      -7.3      0.000      0.000
  Name = 
  5 active torsions:
  status: ('A' for Active; 'I' for Inactive)
    1  A    between atoms: C_8  and  C_31
    2  A    between atoms: C_9  and  C_19
    3  A    between atoms: C_17  and  C_30
    4  A    between atoms: C_24  and  C_25
    5  A    between atoms: C_25  and  C_31
                            x       y       z     vdW  Elec       q    Type
                         _______ _______ _______ _____ _____    ______ ____

>  <TORSDO>
F 5

$$$$
=
 OpenBabel11072412133D

 31 34  0  0  1  0  0  0  0  0999 V2000
  156.5770  213.7320  153.7040 C   0  0  0  0  0  0  0  0  0  0  0  0
  159.3430  211.3910  153.7740 C   0  0  0  0  0  2  0  0  0  0  0  0
  161.8190  210.7900  157.2200 C   0  0  0  0  0  3  0  0  0  0  0  0
  159.3010  212.8540  153.3380 C   0  0  1  0  0  3  0  0  0  0  0  0
  159.7150  213.4750  155.7510 C   0  0  0  0  0  0  0  0  0  0  0  0
  158.3530  212.9810  152.1260 C   0  0  1  0  0  3  0  0  0  0  0  0
  154.9680  213.7680  153.9690 S   0  0  0  0  0  0  0  0  0  0  0  0
  160.3950  212.1760  155.9190 C   0  0  0  0  0  0  0  0  0  0  0  0
  159.7930  214.3490  156.6550 O   0  0  0  0  0  0  0  0  0  0  0  0
  160.9700  209.9490  155.1090 C   0  0  0  0  0  0  0  0  0  0  0  0
  161.7360  209.7750  156.2710 C   0  0  0  0  0  3  0  0  0  0  0  0
  157.1240  213.8830  152.3220 C   0  0  0  0  0  2  0  0  0  0  0  0
  161.1570  211.9580  157.0250 N   0  0  0  0  0  0  0  0  0  0  0  0
  157.4870  213.6650  154.7990 N   0  0  0  0  0  2  0  0  0  0  0  0
  158.9130  213.7700  154.5180 C   0  0  2  0  0  3  0  0  0  0  0  0
  160.2840  211.1760  154.9290 C   0  0  0  0  0  0  0  0  0  0  0  0
  160.8670  206.7330  153.2970 C   0  0  0  0  0  3  0  0  0  0  0  0
  160.7780  207.6760  152.1380 C   0  0  1  0  0  3  0  0  0  0  0  0
  160.8210  209.0040  152.8140 C   0  0  0  0  0  3  0  0  0  0  0  0
  160.9460  207.4100  154.4310 C   0  0  0  0  0  3  0  0  0  0  0  0
  160.9240  208.8340  154.1250 C   0  0  0  0  0  0  0  0  0  0  0  0
  163.0950  206.2050  151.5060 Cl  0  0  0  0  0  0  0  0  0  0  0  0
  161.9470  207.5400  151.1550 C   0  0  1  0  0  3  0  0  0  0  0  0
  162.2480  208.6800  149.0880 O   0  0  0  0  0  1  0  0  0  0  0  0
  161.5400  207.6310  149.6790 C   0  0  1  0  0  3  0  0  0  0  0  0
  161.8350  206.5460  147.4100 C   0  0  0  0  0  1  0  0  0  0  0  0
  160.6070  205.3610  149.1720 C   0  0  0  0  0  1  0  0  0  0  0  0
  161.7550  206.3170  148.9110 C   0  0  0  0  0  3  0  0  0  0  0  0
  158.5430  214.2600  149.9860 O   0  0  0  0  0  0  0  0  0  0  0  0
  159.1100  213.3890  150.9090 C   0  0  0  0  0  0  0  0  0  0  0  0
  160.2720  212.9460  150.7180 O   0  0  0  0  0  1  0  0  0  0  0  0
  1  7  2  0  0  0  0
  1 14  1  0  0  0  0
  2 16  1  0  0  0  0
  4  2  1  1  0  0  0
  4 15  1  0  0  0  0
  5  8  1  0  0  0  0
  5  9  2  0  0  0  0
  6 30  1  6  0  0  0
  6 12  1  0  0  0  0
  6  4  1  0  0  0  0
  8 13  2  0  0  0  0
 10 11  1  0  0  0  0
 11  3  2  0  0  0  0
 12  1  1  0  0  0  0
 13  3  1  0  0  0  0
 15 14  1  1  0  0  0
 15  5  1  0  0  0  0
 16 10  2  0  0  0  0
 16  8  1  0  0  0  0
 17 20  2  0  0  0  0
 18 23  1  6  0  0  0
 18 19  1  0  0  0  0
 18 17  1  0  0  0  0
 19 21  2  0  0  0  0
 21 20  1  0  0  0  0
 21 10  1  0  0  0  0
 23 22  1  6  0  0  0
 25 24  1  6  0  0  0
 25 23  1  0  0  0  0
 26 28  1  0  0  0  0
 28 27  1  0  0  0  0
 28 25  1  0  0  0  0
 29 30  2  0  0  0  0
 31 30  1  0  0  0  0
M  END
>  <MODEL>
2

>  <REMARK>
 VINA RESULT:      -7.2      2.663      3.528
  Name = 
  5 active torsions:
  status: ('A' for Active; 'I' for Inactive)
    1  A    between atoms: C_8  and  C_31
    2  A    between atoms: C_9  and  C_19
    3  A    between atoms: C_17  and  C_30
    4  A    between atoms: C_24  and  C_25
    5  A    between atoms: C_25  and  C_31
                            x       y       z     vdW  Elec       q    Type
                         _______ _______ _______ _____ _____    ______ ____

>  <TORSDO>
F 5

$$$$
=
 OpenBabel11072412133D

 31 34  0  0  1  0  0  0  0  0999 V2000
  158.9410  212.7910  151.6520 C   0  0  0  0  0  0  0  0  0  0  0  0
  160.5660  209.5510  151.6080 C   0  0  0  0  0  2  0  0  0  0  0  0
  161.4780  207.3370  155.1630 C   0  0  0  0  0  3  0  0  0  0  0  0
  161.1670  210.9540  151.6280 C   0  0  1  0  0  3  0  0  0  0  0  0
  160.9940  210.8770  154.1470 C   0  0  0  0  0  0  0  0  0  0  0  0
  160.7490  211.6890  150.3360 C   0  0  1  0  0  3  0  0  0  0  0  0
  157.4460  213.4360  151.5680 S   0  0  0  0  0  0  0  0  0  0  0  0
  161.0980  209.4070  154.0620 C   0  0  0  0  0  0  0  0  0  0  0  0
  161.0830  211.4510  155.2650 O   0  0  0  0  0  0  0  0  0  0  0  0
  161.0950  207.3400  152.7670 C   0  0  0  0  0  0  0  0  0  0  0  0
  161.3520  206.6480  153.9590 C   0  0  0  0  0  3  0  0  0  0  0  0
  159.9080  212.9630  150.5260 C   0  0  0  0  0  2  0  0  0  0  0  0
  161.3540  208.6880  155.1870 N   0  0  0  0  0  0  0  0  0  0  0  0
  159.3830  212.1470  152.8440 N   0  0  0  0  0  2  0  0  0  0  0  0
  160.7700  211.7050  152.9170 C   0  0  2  0  0  3  0  0  0  0  0  0
  160.9650  208.7510  152.8190 C   0  0  0  0  0  0  0  0  0  0  0  0
  161.1940  204.8490  150.0430 C   0  0  0  0  0  3  0  0  0  0  0  0
  160.3840  205.9170  149.3760 C   0  0  1  0  0  3  0  0  0  0  0  0
  160.3150  206.9630  150.4360 C   0  0  0  0  0  3  0  0  0  0  0  0
  161.5240  205.2250  151.2680 C   0  0  0  0  0  3  0  0  0  0  0  0
  160.9780  206.5530  151.5100 C   0  0  0  0  0  0  0  0  0  0  0  0
  162.6720  207.2100  148.3610 Cl  0  0  0  0  0  0  0  0  0  0  0  0
  161.0490  206.4810  148.1140 C   0  0  1  0  0  3  0  0  0  0  0  0
  160.9650  206.3430  145.7400 O   0  0  0  0  0  1  0  0  0  0  0  0
  160.9670  205.5550  146.8940 C   0  0  1  0  0  3  0  0  0  0  0  0
  163.0570  204.7670  145.6990 C   0  0  0  0  0  1  0  0  0  0  0  0
  161.5210  203.1210  146.6730 C   0  0  0  0  0  1  0  0  0  0  0  0
  162.0970  204.5130  146.8500 C   0  0  0  0  0  3  0  0  0  0  0  0
  162.0720  213.2000  148.8480 O   0  0  0  0  0  0  0  0  0  0  0  0
  161.9390  211.9730  149.4860 C   0  0  0  0  0  0  0  0  0  0  0  0
  162.8310  211.0960  149.3480 O   0  0  0  0  0  1  0  0  0  0  0  0
  1 14  1  0  0  0  0
  2 16  1  0  0  0  0
  3 13  1  0  0  0  0
  4  2  1  1  0  0  0
  4 15  1  0  0  0  0
  5  9  2  0  0  0  0
  6 30  1  1  0  0  0
  6 12  1  0  0  0  0
  6  4  1  0  0  0  0
  7  1  2  0  0  0  0
  8  5  1  0  0  0  0
  8 13  2  0  0  0  0
 10 16  2  0  0  0  0
 10 11  1  0  0  0  0
 11  3  2  0  0  0  0
 12  1  1  0  0  0  0
 15 14  1  6  0  0  0
 15  5  1  0  0  0  0
 16  8  1  0  0  0  0
 17 20  2  0  0  0  0
 18 23  1  6  0  0  0
 18 17  1  0  0  0  0
 18 19  1  0  0  0  0
 19 21  2  0  0  0  0
 20 21  1  0  0  0  0
 21 10  1  0  0  0  0
 23 22  1  1  0  0  0
 25 24  1  6  0  0  0
 25 23  1  0  0  0  0
 26 28  1  0  0  0  0
 27 28  1  0  0  0  0
 28 25  1  0  0  0  0
 29 30  2  0  0  0  0
 31 30  1  0  0  0  0
M  END
>  <MODEL>
3

>  <REMARK>
 VINA RESULT:      -6.5      2.226      3.193
  Name = 
  5 active torsions:
  status: ('A' for Active; 'I' for Inactive)
    1  A    between atoms: C_8  and  C_31
    2  A    between atoms: C_9  and  C_19
    3  A    between atoms: C_17  and  C_30
    4  A    between atoms: C_24  and  C_25
    5  A    between atoms: C_25  and  C_31
                            x       y       z     vdW  Elec       q    Type
                         _______ _______ _______ _____ _____    ______ ____

>  <TORSDO>
F 5

$$$$
=
 OpenBabel11072412133D

 31 34  0  0  1  0  0  0  0  0999 V2000
  161.7990  210.5970  155.6150 C   0  0  0  0  0  0  0  0  0  0  0  0
  159.6460  211.8390  152.9770 C   0  0  0  0  0  2  0  0  0  0  0  0
  155.9580  213.8890  153.7310 C   0  0  0  0  0  3  0  0  0  0  0  0
  159.6940  210.4680  153.6460 C   0  0  1  0  0  3  0  0  0  0  0  0
  158.1340  211.3880  155.4060 C   0  0  0  0  0  0  0  0  0  0  0  0
  161.0690  209.8260  153.3600 C   0  0  1  0  0  3  0  0  0  0  0  0
  163.0820  211.0720  156.5030 S   0  0  0  0  0  0  0  0  0  0  0  0
  157.6280  212.3370  154.3940 C   0  0  0  0  0  0  0  0  0  0  0  0
  157.5330  211.2600  156.5060 O   0  0  0  0  0  0  0  0  0  0  0  0
  157.7890  213.4140  152.2120 C   0  0  0  0  0  0  0  0  0  0  0  0
  156.6030  214.0970  152.5140 C   0  0  0  0  0  3  0  0  0  0  0  0
  161.9390  209.5190  154.5900 C   0  0  0  0  0  2  0  0  0  0  0  0
  156.4770  213.0200  154.6340 N   0  0  0  0  0  0  0  0  0  0  0  0
  160.5030  211.1290  155.8790 N   0  0  0  0  0  2  0  0  0  0  0  0
  159.3690  210.5760  155.1510 C   0  0  2  0  0  3  0  0  0  0  0  0
  158.3140  212.5130  153.1730 C   0  0  0  0  0  0  0  0  0  0  0  0
  158.7310  213.7320  148.6560 C   0  0  0  0  0  3  0  0  0  0  0  0
  159.9190  214.3880  149.2880 C   0  0  1  0  0  3  0  0  0  0  0  0
  159.5950  214.2830  150.7400 C   0  0  0  0  0  3  0  0  0  0  0  0
  157.8820  213.3280  149.5870 C   0  0  0  0  0  3  0  0  0  0  0  0
  158.4300  213.6680  150.8930 C   0  0  0  0  0  0  0  0  0  0  0  0
  161.2370  211.8990  149.2740 Cl  0  0  0  0  0  0  0  0  0  0  0  0
  161.2400  213.6720  148.9840 C   0  0  1  0  0  3  0  0  0  0  0  0
  163.2050  214.4530  147.8950 O   0  0  0  0  0  1  0  0  0  0  0  0
  161.8820  214.0770  147.6520 C   0  0  1  0  0  3  0  0  0  0  0  0
  162.7200  213.2670  145.4040 C   0  0  0  0  0  1  0  0  0  0  0  0
  160.3920  212.8490  146.0550 C   0  0  0  0  0  1  0  0  0  0  0  0
  161.8080  212.9740  146.5840 C   0  0  0  0  0  3  0  0  0  0  0  0
  160.8190  207.3530  153.0990 O   0  0  0  0  0  1  0  0  0  0  0  0
  160.9150  208.6100  152.5140 C   0  0  0  0  0  0  0  0  0  0  0  0
  160.8670  208.7220  151.2610 O   0  0  0  0  0  0  0  0  0  0  0  0
  1 14  1  0  0  0  0
  1  7  2  0  0  0  0
  2 16  1  0  0  0  0
  3 13  1  0  0  0  0
  4  2  1  1  0  0  0
  4 15  1  0  0  0  0
  5  9  2  0  0  0  0
  6 30  1  1  0  0  0
  6  4  1  0  0  0  0
  6 12  1  0  0  0  0
  8 13  2  0  0  0  0
  8  5  1  0  0  0  0
 10 11  1  0  0  0  0
 10 16  2  0  0  0  0
 11  3  2  0  0  0  0
 12  1  1  0  0  0  0
 15  5  1  6  0  0  0
 15 14  1  0  0  0  0
 16  8  1  0  0  0  0
 17 18  1  0  0  0  0
 17 20  2  0  0  0  0
 18 23  1  1  0  0  0
 18 19  1  0  0  0  0
 19 21  2  0  0  0  0
 20 21  1  0  0  0  0
 21 10  1  0  0  0  0
 23 22  1  6  0  0  0
 25 24  1  1  0  0  0
 25 23  1  0  0  0  0
 26 28  1  0  0  0  0
 27 28  1  0  0  0  0
 28 25  1  0  0  0  0
 30 29  1  0  0  0  0
 31 30  2  0  0  0  0
M  END
>  <MODEL>
4

>  <REMARK>
 VINA RESULT:      -5.6      3.595      7.076
  Name = 
  5 active torsions:
  status: ('A' for Active; 'I' for Inactive)
    1  A    between atoms: C_8  and  C_31
    2  A    between atoms: C_9  and  C_19
    3  A    between atoms: C_17  and  C_30
    4  A    between atoms: C_24  and  C_25
    5  A    between atoms: C_25  and  C_31
                            x       y       z     vdW  Elec       q    Type
                         _______ _______ _______ _____ _____    ______ ____

>  <TORSDO>
F 5

$$$$
=
 OpenBabel11072412133D

 31 34  0  0  1  0  0  0  0  0999 V2000
  158.3960  213.0030  151.1440 C   0  0  0  0  0  0  0  0  0  0  0  0
  160.4040  210.0260  151.6390 C   0  0  0  0  0  2  0  0  0  0  0  0
  161.1960  208.3480  155.5020 C   0  0  0  0  0  3  0  0  0  0  0  0
  160.8210  211.4910  151.5460 C   0  0  1  0  0  3  0  0  0  0  0  0
  160.3910  211.6610  154.0290 C   0  0  0  0  0  0  0  0  0  0  0  0
  160.4570  212.0210  150.1420 C   0  0  1  0  0  3  0  0  0  0  0  0
  156.8500  213.4280  150.8460 S   0  0  0  0  0  0  0  0  0  0  0  0
  160.6840  210.2180  154.1310 C   0  0  0  0  0  0  0  0  0  0  0  0
  160.2870  212.3580  155.0730 O   0  0  0  0  0  0  0  0  0  0  0  0
  161.0740  208.0430  153.0980 C   0  0  0  0  0  0  0  0  0  0  0  0
  161.2850  207.5230  154.3830 C   0  0  0  0  0  3  0  0  0  0  0  0
  159.4500  213.1830  150.1000 C   0  0  0  0  0  2  0  0  0  0  0  0
  160.9040  209.6640  155.3530 N   0  0  0  0  0  0  0  0  0  0  0  0
  158.7840  212.5550  152.4400 N   0  0  0  0  0  2  0  0  0  0  0  0
  160.1990  212.3150  152.6930 C   0  0  2  0  0  3  0  0  0  0  0  0
  160.7670  209.4210  152.9690 C   0  0  0  0  0  0  0  0  0  0  0  0
  160.8530  206.2260  149.8910 C   0  0  0  0  0  3  0  0  0  0  0  0
  161.8900  205.3940  150.5780 C   0  0  1  0  0  3  0  0  0  0  0  0
  162.0190  206.0830  151.8950 C   0  0  0  0  0  3  0  0  0  0  0  0
  160.4640  207.2140  150.6800 C   0  0  0  0  0  3  0  0  0  0  0  0
  161.1900  207.1180  151.9390 C   0  0  0  0  0  0  0  0  0  0  0  0
  160.6640  203.5800  152.3500 Cl  0  0  0  0  0  0  0  0  0  0  0  0
  161.4610  203.9360  150.7800 C   0  0  1  0  0  3  0  0  0  0  0  0
  161.5710  203.4550  148.4530 O   0  0  0  0  0  1  0  0  0  0  0  0
  160.7450  203.3190  149.5720 C   0  0  1  0  0  3  0  0  0  0  0  0
  161.5570  200.9320  149.8060 C   0  0  0  0  0  1  0  0  0  0  0  0
  159.4270  201.3850  148.6780 C   0  0  0  0  0  1  0  0  0  0  0  0
  160.3460  201.8510  149.7910 C   0  0  0  0  0  3  0  0  0  0  0  0
  161.8690  213.6570  148.8860 O   0  0  0  0  0  0  0  0  0  0  0  0
  161.6870  212.3700  149.3780 C   0  0  0  0  0  0  0  0  0  0  0  0
  162.5690  211.4940  149.1800 O   0  0  0  0  0  1  0  0  0  0  0  0
  1 14  1  0  0  0  0
  2 16  1  0  0  0  0
  4  2  1  6  0  0  0
  4 15  1  0  0  0  0
  5  8  1  0  0  0  0
  5  9  2  0  0  0  0
  6 30  1  1  0  0  0
  6  4  1  0  0  0  0
  7  1  2  0  0  0  0
  8 13  2  0  0  0  0
 10 11  1  0  0  0  0
 11  3  2  0  0  0  0
 12  6  1  0  0  0  0
 12  1  1  0  0  0  0
 13  3  1  0  0  0  0
 15 14  1  6  0  0  0
 15  5  1  0  0  0  0
 16 10  2  0  0  0  0
 16  8  1  0  0  0  0
 17 18  1  0  0  0  0
 17 20  2  0  0  0  0
 18 23  1  1  0  0  0
 18 19  1  0  0  0  0
 19 21  2  0  0  0  0
 20 21  1  0  0  0  0
 21 10  1  0  0  0  0
 23 22  1  1  0  0  0
 25 24  1  6  0  0  0
 25 28  1  0  0  0  0
 25 23  1  0  0  0  0
 27 28  1  0  0  0  0
 28 26  1  0  0  0  0
 29 30  2  0  0  0  0
 31 30  1  0  0  0  0
M  END
>  <MODEL>
5

>  <REMARK>
 VINA RESULT:      -5.6      1.724      2.323
  Name = 
  5 active torsions:
  status: ('A' for Active; 'I' for Inactive)
    1  A    between atoms: C_8  and  C_31
    2  A    between atoms: C_9  and  C_19
    3  A    between atoms: C_17  and  C_30
    4  A    between atoms: C_24  and  C_25
    5  A    between atoms: C_25  and  C_31
                            x       y       z     vdW  Elec       q    Type
                         _______ _______ _______ _____ _____    ______ ____

>  <TORSDO>
F 5

$$$$
=
 OpenBabel11072412133D

 31 34  0  0  1  0  0  0  0  0999 V2000
  162.2260  210.3430  155.5230 C   0  0  0  0  0  0  0  0  0  0  0  0
  161.2670  207.9910  152.9370 C   0  0  0  0  0  2  0  0  0  0  0  0
  161.7140  208.7970  148.7520 C   0  0  0  0  0  3  0  0  0  0  0  0
  160.4440  209.0610  153.6500 C   0  0  1  0  0  3  0  0  0  0  0  0
  161.2640  210.6990  151.9110 C   0  0  0  0  0  0  0  0  0  0  0  0
  160.3760  208.7140  155.1530 C   0  0  1  0  0  3  0  0  0  0  0  0
  163.5050  210.7030  156.4680 S   0  0  0  0  0  0  0  0  0  0  0  0
  161.4140  209.5630  150.9800 C   0  0  0  0  0  0  0  0  0  0  0  0
  161.3600  211.8800  151.4840 O   0  0  0  0  0  0  0  0  0  0  0  0
  161.4670  207.1660  150.5310 C   0  0  0  0  0  0  0  0  0  0  0  0
  161.6540  207.4720  149.1750 C   0  0  0  0  0  3  0  0  0  0  0  0
  160.9890  209.7470  156.1120 C   0  0  0  0  0  2  0  0  0  0  0  0
  161.5900  209.8040  149.6530 N   0  0  0  0  0  0  0  0  0  0  0  0
  162.2290  210.6910  154.1410 N   0  0  0  0  0  2  0  0  0  0  0  0
  161.0120  210.4690  153.3710 C   0  0  2  0  0  3  0  0  0  0  0  0
  161.3440  208.2350  151.4540 C   0  0  0  0  0  0  0  0  0  0  0  0
  161.8590  203.8060  152.0120 C   0  0  0  0  0  3  0  0  0  0  0  0
  160.7360  203.5300  151.0600 C   0  0  1  0  0  3  0  0  0  0  0  0
  160.5350  204.8630  150.4220 C   0  0  0  0  0  3  0  0  0  0  0  0
  162.2270  205.0740  151.9280 C   0  0  0  0  0  3  0  0  0  0  0  0
  161.4010  205.7330  150.9250 C   0  0  0  0  0  0  0  0  0  0  0  0
  160.4740  200.8240  150.3260 Cl  0  0  0  0  0  0  0  0  0  0  0  0
  161.0860  202.4800  149.9990 C   0  0  1  0  0  3  0  0  0  0  0  0
  161.9560  203.7200  148.1650 O   0  0  0  0  0  1  0  0  0  0  0  0
  160.8600  202.9460  148.5560 C   0  0  1  0  0  3  0  0  0  0  0  0
  161.5800  200.6300  147.8260 C   0  0  0  0  0  1  0  0  0  0  0  0
  160.8310  202.2540  146.1470 C   0  0  0  0  0  1  0  0  0  0  0  0
  160.6250  201.7860  147.5750 C   0  0  0  0  0  3  0  0  0  0  0  0
  158.0370  209.4080  155.6960 O   0  0  0  0  0  0  0  0  0  0  0  0
  158.9770  208.3940  155.5540 C   0  0  0  0  0  0  0  0  0  0  0  0
  158.6450  207.1980  155.7620 O   0  0  0  0  0  1  0  0  0  0  0  0
  1 12  1  0  0  0  0
  1  7  2  0  0  0  0
  3 11  2  0  0  0  0
  3 13  1  0  0  0  0
  4  2  1  6  0  0  0
  4  6  1  0  0  0  0
  6 30  1  1  0  0  0
  6 12  1  0  0  0  0
  8 16  1  0  0  0  0
  8  5  1  0  0  0  0
  9  5  2  0  0  0  0
 10 21  1  0  0  0  0
 10 16  2  0  0  0  0
 11 10  1  0  0  0  0
 13  8  2  0  0  0  0
 14  1  1  0  0  0  0
 15  5  1  6  0  0  0
 15  4  1  0  0  0  0
 15 14  1  0  0  0  0
 16  2  1  0  0  0  0
 18 23  1  6  0  0  0
 18 17  1  0  0  0  0
 19 21  2  0  0  0  0
 19 18  1  0  0  0  0
 20 17  2  0  0  0  0
 21 20  1  0  0  0  0
 23 22  1  1  0  0  0
 25 24  1  6  0  0  0
 25 23  1  0  0  0  0
 27 28  1  0  0  0  0
 28 26  1  0  0  0  0
 28 25  1  0  0  0  0
 30 29  2  0  0  0  0
 30 31  1  0  0  0  0
M  END
>  <MODEL>
6

>  <REMARK>
 VINA RESULT:      -5.4      3.509      5.791
  Name = 
  5 active torsions:
  status: ('A' for Active; 'I' for Inactive)
    1  A    between atoms: C_8  and  C_31
    2  A    between atoms: C_9  and  C_19
    3  A    between atoms: C_17  and  C_30
    4  A    between atoms: C_24  and  C_25
    5  A    between atoms: C_25  and  C_31
                            x       y       z     vdW  Elec       q    Type
                         _______ _______ _______ _____ _____    ______ ____

>  <TORSDO>
F 5

$$$$
=
 OpenBabel11072412133D

 31 34  0  0  1  0  0  0  0  0999 V2000
  162.4670  210.4170  156.4060 C   0  0  0  0  0  0  0  0  0  0  0  0
  161.4200  209.9000  152.9740 C   0  0  0  0  0  2  0  0  0  0  0  0
  159.9330  213.0490  150.4770 C   0  0  0  0  0  3  0  0  0  0  0  0
  160.6320  209.7700  154.2750 C   0  0  1  0  0  3  0  0  0  0  0  0
  160.1330  212.2390  154.0960 C   0  0  0  0  0  0  0  0  0  0  0  0
  161.2650  208.6480  155.1270 C   0  0  1  0  0  3  0  0  0  0  0  0
  163.8160  210.7500  157.2600 S   0  0  0  0  0  0  0  0  0  0  0  0
  160.2780  212.1140  152.6330 C   0  0  0  0  0  0  0  0  0  0  0  0
  159.6630  213.2970  154.5950 O   0  0  0  0  0  0  0  0  0  0  0  0
  160.9390  210.8490  150.6550 C   0  0  0  0  0  0  0  0  0  0  0  0
  160.4790  211.9190  149.8740 C   0  0  0  0  0  3  0  0  0  0  0  0
  161.8220  209.0730  156.4960 C   0  0  0  0  0  2  0  0  0  0  0  0
  159.8420  213.1210  151.8290 N   0  0  0  0  0  0  0  0  0  0  0  0
  161.8240  211.4370  155.6460 N   0  0  0  0  0  2  0  0  0  0  0  0
  160.5510  211.1250  155.0090 C   0  0  2  0  0  3  0  0  0  0  0  0
  160.8360  210.9480  152.0650 C   0  0  0  0  0  0  0  0  0  0  0  0
  162.5420  208.4210  148.3820 C   0  0  0  0  0  3  0  0  0  0  0  0
  162.1850  207.5060  149.5120 C   0  0  1  0  0  3  0  0  0  0  0  0
  161.5220  208.4390  150.4680 C   0  0  0  0  0  3  0  0  0  0  0  0
  162.1510  209.6560  148.6520 C   0  0  0  0  0  3  0  0  0  0  0  0
  161.5050  209.6630  149.9580 C   0  0  0  0  0  0  0  0  0  0  0  0
  160.6630  206.4370  147.3960 Cl  0  0  0  0  0  0  0  0  0  0  0  0
  161.2190  206.3880  149.1030 C   0  0  1  0  0  3  0  0  0  0  0  0
  161.4580  204.9160  150.9570 O   0  0  0  0  0  1  0  0  0  0  0  0
  161.6420  204.9910  149.5740 C   0  0  1  0  0  3  0  0  0  0  0  0
  160.6780  202.6560  149.7610 C   0  0  0  0  0  1  0  0  0  0  0  0
  161.6810  203.3900  147.6470 C   0  0  0  0  0  1  0  0  0  0  0  0
  160.8920  203.8580  148.8550 C   0  0  0  0  0  3  0  0  0  0  0  0
  160.4420  206.3770  154.4820 O   0  0  0  0  0  0  0  0  0  0  0  0
  160.3170  207.5080  155.2800 C   0  0  0  0  0  0  0  0  0  0  0  0
  159.4010  207.5690  156.1410 O   0  0  0  0  0  1  0  0  0  0  0  0
  1 12  1  0  0  0  0
  1  7  2  0  0  0  0
  3 13  1  0  0  0  0
  4  2  1  6  0  0  0
  4 15  1  0  0  0  0
  4  6  1  0  0  0  0
  5  9  2  0  0  0  0
  6 30  1  1  0  0  0
  6 12  1  0  0  0  0
  8  5  1  0  0  0  0
 10 16  2  0  0  0  0
 11  3  2  0  0  0  0
 11 10  1  0  0  0  0
 13  8  2  0  0  0  0
 14  1  1  0  0  0  0
 15  5  1  6  0  0  0
 15 14  1  0  0  0  0
 16  8  1  0  0  0  0
 16  2  1  0  0  0  0
 17 20  2  0  0  0  0
 17 18  1  0  0  0  0
 18 23  1  6  0  0  0
 18 19  1  0  0  0  0
 20 21  1  0  0  0  0
 21 19  2  0  0  0  0
 21 10  1  0  0  0  0
 23 22  1  6  0  0  0
 23 25  1  0  0  0  0
 25 24  1  1  0  0  0
 27 28  1  0  0  0  0
 28 25  1  0  0  0  0
 28 26  1  0  0  0  0
 29 30  2  0  0  0  0
 30 31  1  0  0  0  0
M  END
>  <MODEL>
7

>  <REMARK>
 VINA RESULT:      -5.1      3.103      5.255
  Name = 
  5 active torsions:
  status: ('A' for Active; 'I' for Inactive)
    1  A    between atoms: C_8  and  C_31
    2  A    between atoms: C_9  and  C_19
    3  A    between atoms: C_17  and  C_30
    4  A    between atoms: C_24  and  C_25
    5  A    between atoms: C_25  and  C_31
                            x       y       z     vdW  Elec       q    Type
                         _______ _______ _______ _____ _____    ______ ____

>  <TORSDO>
F 5

$$$$
=
 OpenBabel11072412133D

 31 34  0  0  1  0  0  0  0  0999 V2000
  159.5650  210.3530  153.3070 C   0  0  0  0  0  0  0  0  0  0  0  0
  160.8910  207.7510  151.1590 C   0  0  0  0  0  2  0  0  0  0  0  0
  161.2000  203.6500  152.3620 C   0  0  0  0  0  3  0  0  0  0  0  0
  161.6070  208.6940  152.1220 C   0  0  1  0  0  3  0  0  0  0  0  0
  161.1490  207.0090  153.9460 C   0  0  0  0  0  0  0  0  0  0  0  0
  161.4030  210.1460  151.6360 C   0  0  1  0  0  3  0  0  0  0  0  0
  158.1520  211.0970  153.6360 S   0  0  0  0  0  0  0  0  0  0  0  0
  161.1310  205.9600  152.9080 C   0  0  0  0  0  0  0  0  0  0  0  0
  161.1630  206.6890  155.1650 O   0  0  0  0  0  0  0  0  0  0  0  0
  161.0880  205.2770  150.5670 C   0  0  0  0  0  0  0  0  0  0  0  0
  161.1480  203.9460  151.0030 C   0  0  0  0  0  3  0  0  0  0  0  0
  160.6630  211.0830  152.6050 C   0  0  0  0  0  2  0  0  0  0  0  0
  161.1940  204.6520  153.2760 N   0  0  0  0  0  0  0  0  0  0  0  0
  159.8120  209.0310  153.7790 N   0  0  0  0  0  2  0  0  0  0  0  0
  161.1380  208.4610  153.5740 C   0  0  2  0  0  3  0  0  0  0  0  0
  161.0800  206.3070  151.5400 C   0  0  0  0  0  0  0  0  0  0  0  0
  160.6310  206.5770  147.1410 C   0  0  0  0  0  3  0  0  0  0  0  0
  161.3690  205.3120  146.8310 C   0  0  1  0  0  3  0  0  0  0  0  0
  161.5790  204.7350  148.1900 C   0  0  0  0  0  3  0  0  0  0  0  0
  160.4540  206.6950  148.4470 C   0  0  0  0  0  3  0  0  0  0  0  0
  161.0430  205.5350  149.1020 C   0  0  0  0  0  0  0  0  0  0  0  0
  159.3440  205.1010  144.8860 Cl  0  0  0  0  0  0  0  0  0  0  0  0
  160.5670  204.3400  145.9580 C   0  0  1  0  0  3  0  0  0  0  0  0
  162.7650  203.5330  145.5370 O   0  0  0  0  0  1  0  0  0  0  0  0
  161.4200  203.2740  145.2600 C   0  0  1  0  0  3  0  0  0  0  0  0
  159.7570  201.3850  144.9810 C   0  0  0  0  0  1  0  0  0  0  0  0
  160.8270  201.7490  147.1580 C   0  0  0  0  0  1  0  0  0  0  0  0
  161.0400  201.8390  145.6590 C   0  0  0  0  0  3  0  0  0  0  0  0
  162.8230  211.3700  149.9830 O   0  0  0  0  0  0  0  0  0  0  0  0
  162.7020  210.7460  151.2190 C   0  0  0  0  0  0  0  0  0  0  0  0
  163.6920  210.6930  151.9930 O   0  0  0  0  0  1  0  0  0  0  0  0
  1  7  2  0  0  0  0
  1 14  1  0  0  0  0
  2 16  1  0  0  0  0
  3 13  1  0  0  0  0
  4  2  1  6  0  0  0
  4 15  1  0  0  0  0
  5  9  2  0  0  0  0
  6 30  1  1  0  0  0
  6  4  1  0  0  0  0
  6 12  1  0  0  0  0
  8 13  2  0  0  0  0
  8  5  1  0  0  0  0
 10 11  1  0  0  0  0
 10 16  2  0  0  0  0
 11  3  2  0  0  0  0
 12  1  1  0  0  0  0
 15 14  1  6  0  0  0
 15  5  1  0  0  0  0
 16  8  1  0  0  0  0
 17 20  2  0  0  0  0
 18 23  1  6  0  0  0
 18 17  1  0  0  0  0
 18 19  1  0  0  0  0
 19 21  2  0  0  0  0
 20 21  1  0  0  0  0
 21 10  1  0  0  0  0
 23 22  1  6  0  0  0
 25 24  1  1  0  0  0
 25 28  1  0  0  0  0
 25 23  1  0  0  0  0
 26 28  1  0  0  0  0
 28 27  1  0  0  0  0
 29 30  2  0  0  0  0
 30 31  1  0  0  0  0
M  END
>  <MODEL>
8

>  <REMARK>
 VINA RESULT:      -4.6      3.154      5.399
  Name = 
  5 active torsions:
  status: ('A' for Active; 'I' for Inactive)
    1  A    between atoms: C_8  and  C_31
    2  A    between atoms: C_9  and  C_19
    3  A    between atoms: C_17  and  C_30
    4  A    between atoms: C_24  and  C_25
    5  A    between atoms: C_25  and  C_31
                            x       y       z     vdW  Elec       q    Type
                         _______ _______ _______ _____ _____    ______ ____

>  <TORSDO>
F 5

$$$$
