=
 OpenBabel11072410203D

 33 37  0  0  1  0  0  0  0  0999 V2000
  161.2760  208.7010  149.4020 C   0  0  0  0  0  2  0  0  0  0  0  0
  161.1810  207.1930  149.6760 C   0  0  1  0  0  3  0  0  0  0  0  0
  161.5390  209.5230  151.6570 O   0  0  0  0  0  0  0  0  0  0  0  0
  161.9210  208.4750  152.5290 C   0  0  1  0  0  3  0  0  0  0  0  0
  161.7350  206.2570  152.9170 C   0  0  0  0  0  0  0  0  0  0  0  0
  162.1960  209.3930  150.4170 C   0  0  2  0  0  3  0  0  0  0  0  0
  161.1860  206.1430  154.0660 N   0  0  0  0  0  0  0  0  0  0  0  0
  162.6700  206.0030  151.7920 O   0  0  0  0  0  0  0  0  0  0  0  0
  160.6540  207.4230  154.4700 C   0  0  0  0  0  3  0  0  0  0  0  0
  160.6970  206.9220  150.9700 O   0  0  0  0  0  0  0  0  0  0  0  0
  160.9940  208.5710  153.7950 C   0  0  0  0  0  0  0  0  0  0  0  0
  161.8030  207.0720  151.8200 C   0  0  2  0  0  0  0  0  0  0  0  0
  159.4490  211.9610  156.1830 C   0  0  0  0  0  3  0  0  0  0  0  0
  158.7550  211.4880  153.8420 C   0  0  0  0  0  3  0  0  0  0  0  0
  161.2690  210.4810  155.3380 C   0  0  0  0  0  3  0  0  0  0  0  0
  158.5370  211.9640  155.2120 C   0  0  0  0  0  0  0  0  0  0  0  0
  159.6250  210.5690  153.4330 C   0  0  0  0  0  3  0  0  0  0  0  0
  160.8160  211.4230  156.1650 C   0  0  0  0  0  0  0  0  0  0  0  0
  160.5390  209.8530  154.2720 N   0  0  0  0  0  0  0  0  0  0  0  0
  161.6880  211.8900  157.1390 O   0  0  0  0  0  1  0  0  0  0  0  0
  156.1990  211.9530  154.8850 O   0  0  0  0  0  1  0  0  0  0  0  0
  157.2450  212.6490  155.4910 C   0  0  0  0  0  2  0  0  0  0  0  0
  162.6750  210.6360  149.9470 O   0  0  0  0  0  0  0  0  0  0  0  0
  162.0720  210.9200  148.7110 C   0  0  0  0  0  1  0  0  0  0  0  0
  160.2790  206.5250  148.6520 C   0  0  0  0  0  2  0  0  0  0  0  0
  161.8730  204.0420  146.5900 C   0  0  0  0  0  0  0  0  0  0  0  0
  160.9600  205.3500  148.0380 C   0  0  0  0  0  0  0  0  0  0  0  0
  162.3620  203.6710  145.4910 O   0  0  0  0  0  0  0  0  0  0  0  0
  161.8140  203.2080  147.8170 C   0  0  1  0  0  3  0  0  0  0  0  0
  161.3230  205.3310  146.7990 N   0  0  0  0  0  0  0  0  0  0  0  0
  161.1960  204.1370  148.7540 N   0  0  0  0  0  2  0  0  0  0  0  0
  160.8980  202.0170  147.5930 C   0  0  0  0  0  2  0  0  0  0  0  0
  161.2250  200.9100  148.5770 C   0  0  0  0  0  1  0  0  0  0  0  0
  1  2  1  0  0  0  0
  1  6  1  0  0  0  0
  2 25  1  6  0  0  0
  2 10  1  0  0  0  0
  4  3  1  6  0  0  0
  4 11  1  0  0  0  0
  5  7  2  0  0  0  0
  6 23  1  6  0  0  0
  6  3  1  0  0  0  0
  7  9  1  0  0  0  0
  8 12  1  0  0  0  0
  8  5  1  0  0  0  0
 11 19  1  0  0  0  0
 11  9  2  0  0  0  0
 12 10  1  6  0  0  0
 12  4  1  0  0  0  0
 12  5  1  0  0  0  0
 14 16  1  0  0  0  0
 15 18  2  0  0  0  0
 16 22  1  0  0  0  0
 16 13  2  0  0  0  0
 17 14  2  0  0  0  0
 17 19  1  0  0  0  0
 18 13  1  0  0  0  0
 18 20  1  0  0  0  0
 19 15  1  0  0  0  0
 21 22  1  0  0  0  0
 24 23  1  0  0  0  0
 26 30  1  0  0  0  0
 26 29  1  0  0  0  0
 27 25  1  0  0  0  0
 27 31  1  0  0  0  0
 28 26  2  0  0  0  0
 29 32  1  6  0  0  0
 29 31  1  0  0  0  0
 30 27  2  0  0  0  0
 32 33  1  0  0  0  0
M  END
>  <MODEL>
1

>  <REMARK>
 VINA RESULT:      -7.6      0.000      0.000
  Name = 
  6 active torsions:
  status: ('A' for Active; 'I' for Inactive)
    1  A    between atoms: C_4  and  C_31
    2  A    between atoms: C_8  and  C_31
    3  A    between atoms: C_12  and  O_24
    4  A    between atoms: C_13  and  C_20
    5  A    between atoms: C_15  and  C_17
    6  A    between atoms: N_27  and  C_29
                            x       y       z     vdW  Elec       q    Type
                         _______ _______ _______ _____ _____    ______ ____

>  <TORSDO>
F 6

$$$$
=
 OpenBabel11072410203D

 33 37  0  0  1  0  0  0  0  0999 V2000
  160.8420  207.7010  153.5830 C   0  0  0  0  0  2  0  0  0  0  0  0
  160.9170  209.2140  153.3330 C   0  0  1  0  0  3  0  0  0  0  0  0
  161.6410  206.8820  151.4570 O   0  0  0  0  0  0  0  0  0  0  0  0
  162.3050  207.9110  150.7440 C   0  0  1  0  0  3  0  0  0  0  0  0
  162.3660  210.1390  150.3790 C   0  0  0  0  0  0  0  0  0  0  0  0
  161.9540  206.9570  152.8290 C   0  0  2  0  0  3  0  0  0  0  0  0
  162.1500  210.3000  149.1290 N   0  0  0  0  0  0  0  0  0  0  0  0
  162.9840  210.3200  151.7170 O   0  0  0  0  0  0  0  0  0  0  0  0
  161.6650  209.0610  148.5660 C   0  0  0  0  0  3  0  0  0  0  0  0
  160.8110  209.5280  151.9650 O   0  0  0  0  0  0  0  0  0  0  0  0
  161.7420  207.8880  149.2770 C   0  0  0  0  0  0  0  0  0  0  0  0
  162.0910  209.3120  151.4330 C   0  0  2  0  0  0  0  0  0  0  0  0
  161.4860  203.7240  147.8010 C   0  0  0  0  0  3  0  0  0  0  0  0
  160.8900  205.7140  146.4350 C   0  0  0  0  0  3  0  0  0  0  0  0
  161.1370  205.5030  149.5110 C   0  0  0  0  0  3  0  0  0  0  0  0
  161.4130  204.3580  146.6330 C   0  0  0  0  0  0  0  0  0  0  0  0
  160.8650  206.7080  147.3180 C   0  0  0  0  0  3  0  0  0  0  0  0
  161.1650  204.2230  149.1450 C   0  0  0  0  0  0  0  0  0  0  0  0
  161.3520  206.6430  148.6630 N   0  0  0  0  0  0  0  0  0  0  0  0
  160.9400  203.2720  150.1320 O   0  0  0  0  0  1  0  0  0  0  0  0
  160.8660  202.4910  145.2960 O   0  0  0  0  0  1  0  0  0  0  0  0
  161.7370  203.5750  145.4090 C   0  0  0  0  0  2  0  0  0  0  0  0
  162.2130  205.6820  153.3760 O   0  0  0  0  0  0  0  0  0  0  0  0
  161.1340  204.8310  153.0840 C   0  0  0  0  0  1  0  0  0  0  0  0
  159.8190  209.9310  154.1000 C   0  0  0  0  0  2  0  0  0  0  0  0
  158.2510  212.7460  152.4950 C   0  0  0  0  0  0  0  0  0  0  0  0
  159.4330  211.1940  153.4090 C   0  0  0  0  0  0  0  0  0  0  0  0
  157.2240  213.3910  152.1580 O   0  0  0  0  0  0  0  0  0  0  0  0
  159.6460  213.1580  152.1990 C   0  0  1  0  0  3  0  0  0  0  0  0
  158.2010  211.5320  153.2260 N   0  0  0  0  0  0  0  0  0  0  0  0
  160.3940  212.0830  152.8370 N   0  0  0  0  0  2  0  0  0  0  0  0
  159.8880  213.1330  150.6980 C   0  0  0  0  0  2  0  0  0  0  0  0
  160.4860  214.4500  150.2420 C   0  0  0  0  0  1  0  0  0  0  0  0
  2  1  1  0  0  0  0
  2 25  1  1  0  0  0
  3  6  1  0  0  0  0
  4 11  1  6  0  0  0
  4 12  1  0  0  0  0
  4  3  1  0  0  0  0
  5  8  1  0  0  0  0
  6 23  1  1  0  0  0
  6  1  1  0  0  0  0
  7  5  2  0  0  0  0
  9  7  1  0  0  0  0
  9 11  2  0  0  0  0
 10  2  1  0  0  0  0
 12  5  1  6  0  0  0
 12  8  1  0  0  0  0
 12 10  1  0  0  0  0
 13 18  1  0  0  0  0
 14 16  1  0  0  0  0
 14 17  2  0  0  0  0
 16 13  2  0  0  0  0
 17 19  1  0  0  0  0
 18 15  2  0  0  0  0
 18 20  1  0  0  0  0
 19 11  1  0  0  0  0
 19 15  1  0  0  0  0
 21 22  1  0  0  0  0
 22 16  1  0  0  0  0
 24 23  1  0  0  0  0
 26 30  1  0  0  0  0
 27 25  1  0  0  0  0
 28 26  2  0  0  0  0
 29 32  1  6  0  0  0
 29 26  1  0  0  0  0
 29 31  1  0  0  0  0
 30 27  2  0  0  0  0
 31 27  1  0  0  0  0
 33 32  1  0  0  0  0
M  END
>  <MODEL>
2

>  <REMARK>
 VINA RESULT:      -7.5      2.242      8.670
  Name = 
  6 active torsions:
  status: ('A' for Active; 'I' for Inactive)
    1  A    between atoms: C_4  and  C_31
    2  A    between atoms: C_8  and  C_31
    3  A    between atoms: C_12  and  O_24
    4  A    between atoms: C_13  and  C_20
    5  A    between atoms: C_15  and  C_17
    6  A    between atoms: N_27  and  C_29
                            x       y       z     vdW  Elec       q    Type
                         _______ _______ _______ _____ _____    ______ ____

>  <TORSDO>
F 6

$$$$
=
 OpenBabel11072410203D

 33 37  0  0  1  0  0  0  0  0999 V2000
  161.1530  207.8050  149.3710 C   0  0  0  0  0  2  0  0  0  0  0  0
  161.1870  206.4210  150.0350 C   0  0  1  0  0  3  0  0  0  0  0  0
  161.3680  209.2140  151.3200 O   0  0  0  0  0  0  0  0  0  0  0  0
  161.8440  208.4670  152.4250 C   0  0  1  0  0  3  0  0  0  0  0  0
  161.8460  206.4240  153.3890 C   0  0  0  0  0  0  0  0  0  0  0  0
  162.0220  208.8110  150.1380 C   0  0  2  0  0  3  0  0  0  0  0  0
  161.3190  206.5770  154.5440 N   0  0  0  0  0  0  0  0  0  0  0  0
  162.7890  205.9540  152.3430 O   0  0  0  0  0  0  0  0  0  0  0  0
  160.6860  207.8730  154.6120 C   0  0  0  0  0  3  0  0  0  0  0  0
  160.7390  206.4660  151.3690 O   0  0  0  0  0  0  0  0  0  0  0  0
  160.9230  208.8230  153.6490 C   0  0  0  0  0  0  0  0  0  0  0  0
  161.8360  206.9220  152.1150 C   0  0  2  0  0  0  0  0  0  0  0  0
  158.8620  212.4940  155.0110 C   0  0  0  0  0  3  0  0  0  0  0  0
  158.7280  211.6140  152.6890 C   0  0  0  0  0  3  0  0  0  0  0  0
  160.8310  210.9720  154.8660 C   0  0  0  0  0  3  0  0  0  0  0  0
  158.1990  212.2990  153.8720 C   0  0  0  0  0  0  0  0  0  0  0  0
  159.6710  210.6760  152.6510 C   0  0  0  0  0  3  0  0  0  0  0  0
  160.1980  212.0180  155.3960 C   0  0  0  0  0  0  0  0  0  0  0  0
  160.3680  210.1460  153.7850 N   0  0  0  0  0  0  0  0  0  0  0  0
  160.8210  212.6750  156.4480 O   0  0  0  0  0  1  0  0  0  0  0  0
  156.9960  214.3250  154.0290 O   0  0  0  0  0  1  0  0  0  0  0  0
  156.8760  212.9670  153.7300 C   0  0  0  0  0  2  0  0  0  0  0  0
  162.3920  209.9180  149.3430 O   0  0  0  0  0  0  0  0  0  0  0  0
  161.9680  211.0980  149.9770 C   0  0  0  0  0  1  0  0  0  0  0  0
  160.3340  205.4380  149.2510 C   0  0  0  0  0  2  0  0  0  0  0  0
  161.1310  205.5740  145.7430 C   0  0  0  0  0  0  0  0  0  0  0  0
  160.8480  205.2890  147.8600 C   0  0  0  0  0  0  0  0  0  0  0  0
  161.0250  206.1100  144.6090 O   0  0  0  0  0  0  0  0  0  0  0  0
  161.9570  204.3770  146.0420 C   0  0  1  0  0  3  0  0  0  0  0  0
  160.4750  206.0670  146.8990 N   0  0  0  0  0  0  0  0  0  0  0  0
  161.7310  204.2350  147.4740 N   0  0  0  0  0  2  0  0  0  0  0  0
  161.4010  203.1660  145.3100 C   0  0  0  0  0  2  0  0  0  0  0  0
  160.9630  202.1080  146.3040 C   0  0  0  0  0  1  0  0  0  0  0  0
  1  2  1  0  0  0  0
  1  6  1  0  0  0  0
  2 25  1  6  0  0  0
  2 10  1  0  0  0  0
  4  3  1  6  0  0  0
  4 11  1  0  0  0  0
  5  7  2  0  0  0  0
  6 23  1  6  0  0  0
  6  3  1  0  0  0  0
  7  9  1  0  0  0  0
  8  5  1  0  0  0  0
 11 19  1  0  0  0  0
 11  9  2  0  0  0  0
 12 10  1  6  0  0  0
 12  8  1  0  0  0  0
 12  4  1  0  0  0  0
 12  5  1  0  0  0  0
 13 18  1  0  0  0  0
 14 16  1  0  0  0  0
 15 18  2  0  0  0  0
 16 13  2  0  0  0  0
 17 14  2  0  0  0  0
 17 19  1  0  0  0  0
 18 20  1  0  0  0  0
 19 15  1  0  0  0  0
 22 16  1  0  0  0  0
 22 21  1  0  0  0  0
 23 24  1  0  0  0  0
 26 29  1  0  0  0  0
 26 30  1  0  0  0  0
 27 25  1  0  0  0  0
 28 26  2  0  0  0  0
 29 32  1  6  0  0  0
 29 31  1  0  0  0  0
 30 27  2  0  0  0  0
 31 27  1  0  0  0  0
 32 33  1  0  0  0  0
M  END
>  <MODEL>
3

>  <REMARK>
 VINA RESULT:      -7.1      1.230      1.372
  Name = 
  6 active torsions:
  status: ('A' for Active; 'I' for Inactive)
    1  A    between atoms: C_4  and  C_31
    2  A    between atoms: C_8  and  C_31
    3  A    between atoms: C_12  and  O_24
    4  A    between atoms: C_13  and  C_20
    5  A    between atoms: C_15  and  C_17
    6  A    between atoms: N_27  and  C_29
                            x       y       z     vdW  Elec       q    Type
                         _______ _______ _______ _____ _____    ______ ____

>  <TORSDO>
F 6

$$$$
=
 OpenBabel11072410203D

 33 37  0  0  1  0  0  0  0  0999 V2000
  161.5340  209.0760  148.8280 C   0  0  0  0  0  2  0  0  0  0  0  0
  161.6220  207.5510  148.9840 C   0  0  1  0  0  3  0  0  0  0  0  0
  161.5150  209.7380  151.1500 O   0  0  0  0  0  0  0  0  0  0  0  0
  161.9690  208.6790  151.9740 C   0  0  1  0  0  3  0  0  0  0  0  0
  162.0550  206.4320  152.1850 C   0  0  0  0  0  0  0  0  0  0  0  0
  162.2750  209.7960  149.9640 C   0  0  2  0  0  3  0  0  0  0  0  0
  161.4420  206.1540  153.2730 N   0  0  0  0  0  0  0  0  0  0  0  0
  163.0970  206.3930  151.1280 O   0  0  0  0  0  0  0  0  0  0  0  0
  160.7140  207.3180  153.7210 C   0  0  0  0  0  3  0  0  0  0  0  0
  161.0850  207.1150  150.2100 O   0  0  0  0  0  0  0  0  0  0  0  0
  160.9460  208.5510  153.1600 C   0  0  0  0  0  0  0  0  0  0  0  0
  162.0940  207.3360  151.1590 C   0  0  2  0  0  0  0  0  0  0  0  0
  159.6560  212.6630  154.1690 C   0  0  0  0  0  3  0  0  0  0  0  0
  159.8890  210.8370  155.8410 C   0  0  0  0  0  3  0  0  0  0  0  0
  159.6220  210.6010  152.7680 C   0  0  0  0  0  3  0  0  0  0  0  0
  159.9440  212.2330  155.3960 C   0  0  0  0  0  0  0  0  0  0  0  0
  160.0400  209.7440  155.0980 C   0  0  0  0  0  3  0  0  0  0  0  0
  159.3140  211.8810  152.9730 C   0  0  0  0  0  0  0  0  0  0  0  0
  160.2890  209.7210  153.6880 N   0  0  0  0  0  0  0  0  0  0  0  0
  158.6740  212.5560  151.9420 O   0  0  0  0  0  1  0  0  0  0  0  0
  159.5430  214.4530  156.0920 O   0  0  0  0  0  1  0  0  0  0  0  0
  160.1870  213.2650  156.4410 C   0  0  0  0  0  2  0  0  0  0  0  0
  162.6160  211.1230  149.6260 O   0  0  0  0  0  0  0  0  0  0  0  0
  161.4410  211.8370  149.3320 C   0  0  0  0  0  1  0  0  0  0  0  0
  160.8980  206.8590  147.8430 C   0  0  0  0  0  2  0  0  0  0  0  0
  161.4530  203.3610  147.2030 C   0  0  0  0  0  0  0  0  0  0  0  0
  161.1730  205.3950  147.8550 C   0  0  0  0  0  0  0  0  0  0  0  0
  161.5960  202.3950  146.4080 O   0  0  0  0  0  0  0  0  0  0  0  0
  161.5090  203.2570  148.6820 C   0  0  1  0  0  3  0  0  0  0  0  0
  161.2340  204.6940  146.7730 N   0  0  0  0  0  0  0  0  0  0  0  0
  161.3180  204.6490  149.0650 N   0  0  0  0  0  2  0  0  0  0  0  0
  160.3460  202.4190  149.1890 C   0  0  0  0  0  2  0  0  0  0  0  0
  160.8580  201.2600  150.0220 C   0  0  0  0  0  1  0  0  0  0  0  0
  1  2  1  0  0  0  0
  1  6  1  0  0  0  0
  2 25  1  6  0  0  0
  2 10  1  0  0  0  0
  4  3  1  6  0  0  0
  4 11  1  0  0  0  0
  5  7  2  0  0  0  0
  6 23  1  6  0  0  0
  6  3  1  0  0  0  0
  7  9  1  0  0  0  0
  8 12  1  0  0  0  0
  8  5  1  0  0  0  0
 11 19  1  0  0  0  0
 11  9  2  0  0  0  0
 12 10  1  6  0  0  0
 12  4  1  0  0  0  0
 12  5  1  0  0  0  0
 13 16  2  0  0  0  0
 15 18  2  0  0  0  0
 15 19  1  0  0  0  0
 16 14  1  0  0  0  0
 16 22  1  0  0  0  0
 17 14  2  0  0  0  0
 18 13  1  0  0  0  0
 19 17  1  0  0  0  0
 20 18  1  0  0  0  0
 21 22  1  0  0  0  0
 24 23  1  0  0  0  0
 25 27  1  0  0  0  0
 26 29  1  0  0  0  0
 27 31  1  0  0  0  0
 28 26  2  0  0  0  0
 29 31  1  0  0  0  0
 29 32  1  1  0  0  0
 30 26  1  0  0  0  0
 30 27  2  0  0  0  0
 32 33  1  0  0  0  0
M  END
>  <MODEL>
4

>  <REMARK>
 VINA RESULT:      -6.8      1.387      1.945
  Name = 
  6 active torsions:
  status: ('A' for Active; 'I' for Inactive)
    1  A    between atoms: C_4  and  C_31
    2  A    between atoms: C_8  and  C_31
    3  A    between atoms: C_12  and  O_24
    4  A    between atoms: C_13  and  C_20
    5  A    between atoms: C_15  and  C_17
    6  A    between atoms: N_27  and  C_29
                            x       y       z     vdW  Elec       q    Type
                         _______ _______ _______ _____ _____    ______ ____

>  <TORSDO>
F 6

$$$$
=
 OpenBabel11072410203D

 33 37  0  0  1  0  0  0  0  0999 V2000
  161.4530  208.2210  149.9890 C   0  0  0  0  0  2  0  0  0  0  0  0
  161.3410  206.8350  150.6400 C   0  0  1  0  0  3  0  0  0  0  0  0
  161.3230  209.6210  151.9520 O   0  0  0  0  0  0  0  0  0  0  0  0
  161.5740  208.8630  153.1220 C   0  0  1  0  0  3  0  0  0  0  0  0
  161.3660  206.8180  154.0580 C   0  0  0  0  0  0  0  0  0  0  0  0
  162.1800  209.2110  150.9100 C   0  0  2  0  0  3  0  0  0  0  0  0
  160.6350  206.9760  155.0960 N   0  0  0  0  0  0  0  0  0  0  0  0
  162.4790  206.3360  153.2030 O   0  0  0  0  0  0  0  0  0  0  0  0
  160.0200  208.2810  155.0530 C   0  0  0  0  0  3  0  0  0  0  0  0
  160.6540  206.8830  151.8680 O   0  0  0  0  0  0  0  0  0  0  0  0
  160.4470  209.2310  154.1550 C   0  0  0  0  0  0  0  0  0  0  0  0
  161.6000  207.3200  152.8070 C   0  0  2  0  0  0  0  0  0  0  0  0
  158.4390  213.0150  155.2620 C   0  0  0  0  0  3  0  0  0  0  0  0
  158.2120  211.9290  153.0360 C   0  0  0  0  0  3  0  0  0  0  0  0
  160.4020  211.4810  155.1760 C   0  0  0  0  0  3  0  0  0  0  0  0
  157.7310  212.7200  154.1730 C   0  0  0  0  0  0  0  0  0  0  0  0
  159.1540  210.9890  153.0450 C   0  0  0  0  0  3  0  0  0  0  0  0
  159.7900  212.5720  155.6340 C   0  0  0  0  0  0  0  0  0  0  0  0
  159.8970  210.5620  154.1930 N   0  0  0  0  0  0  0  0  0  0  0  0
  160.4540  213.3200  156.5960 O   0  0  0  0  0  1  0  0  0  0  0  0
  155.4860  212.7930  154.9000 O   0  0  0  0  0  1  0  0  0  0  0  0
  156.4020  213.3760  154.0240 C   0  0  0  0  0  2  0  0  0  0  0  0
  162.7070  210.3130  150.2040 O   0  0  0  0  0  0  0  0  0  0  0  0
  162.1200  210.3640  148.9280 C   0  0  0  0  0  1  0  0  0  0  0  0
  160.6340  205.8670  149.7060 C   0  0  0  0  0  2  0  0  0  0  0  0
  161.5710  202.7270  151.1950 C   0  0  0  0  0  0  0  0  0  0  0  0
  160.8050  204.4630  150.1750 C   0  0  0  0  0  0  0  0  0  0  0  0
  162.2580  202.0540  152.0070 O   0  0  0  0  0  0  0  0  0  0  0  0
  160.5480  202.1630  150.2790 C   0  0  1  0  0  3  0  0  0  0  0  0
  161.6790  204.1340  151.0670 N   0  0  0  0  0  0  0  0  0  0  0  0
  160.0670  203.3720  149.6230 N   0  0  0  0  0  2  0  0  0  0  0  0
  161.2100  201.2520  149.2580 C   0  0  0  0  0  2  0  0  0  0  0  0
  160.8330  201.6780  147.8520 C   0  0  0  0  0  1  0  0  0  0  0  0
  1  2  1  0  0  0  0
  1  6  1  0  0  0  0
  2 25  1  6  0  0  0
  2 10  1  0  0  0  0
  4  3  1  6  0  0  0
  4 11  1  0  0  0  0
  5  7  2  0  0  0  0
  6 23  1  6  0  0  0
  6  3  1  0  0  0  0
  8  5  1  0  0  0  0
  9  7  1  0  0  0  0
 11 19  1  0  0  0  0
 11  9  2  0  0  0  0
 12 10  1  6  0  0  0
 12  4  1  0  0  0  0
 12  8  1  0  0  0  0
 12  5  1  0  0  0  0
 13 18  1  0  0  0  0
 14 17  2  0  0  0  0
 14 16  1  0  0  0  0
 15 18  2  0  0  0  0
 16 13  2  0  0  0  0
 17 19  1  0  0  0  0
 18 20  1  0  0  0  0
 19 15  1  0  0  0  0
 22 16  1  0  0  0  0
 22 21  1  0  0  0  0
 24 23  1  0  0  0  0
 25 27  1  0  0  0  0
 26 28  2  0  0  0  0
 27 30  2  0  0  0  0
 29 32  1  6  0  0  0
 29 26  1  0  0  0  0
 30 26  1  0  0  0  0
 31 27  1  0  0  0  0
 31 29  1  0  0  0  0
 33 32  1  0  0  0  0
M  END
>  <MODEL>
5

>  <REMARK>
 VINA RESULT:      -6.6      1.781      2.098
  Name = 
  6 active torsions:
  status: ('A' for Active; 'I' for Inactive)
    1  A    between atoms: C_4  and  C_31
    2  A    between atoms: C_8  and  C_31
    3  A    between atoms: C_12  and  O_24
    4  A    between atoms: C_13  and  C_20
    5  A    between atoms: C_15  and  C_17
    6  A    between atoms: N_27  and  C_29
                            x       y       z     vdW  Elec       q    Type
                         _______ _______ _______ _____ _____    ______ ____

>  <TORSDO>
F 6

$$$$
=
 OpenBabel11072410203D

 33 37  0  0  1  0  0  0  0  0999 V2000
  161.0810  207.3440  149.2780 C   0  0  0  0  0  2  0  0  0  0  0  0
  161.2430  206.0480  150.0850 C   0  0  1  0  0  3  0  0  0  0  0  0
  161.2260  208.9700  151.0580 O   0  0  0  0  0  0  0  0  0  0  0  0
  161.7870  208.3870  152.2210 C   0  0  1  0  0  3  0  0  0  0  0  0
  161.9780  206.4680  153.3970 C   0  0  0  0  0  0  0  0  0  0  0  0
  161.8830  208.4930  149.9060 C   0  0  2  0  0  3  0  0  0  0  0  0
  161.4670  206.7030  154.5450 N   0  0  0  0  0  0  0  0  0  0  0  0
  162.9310  205.9620  152.3770 O   0  0  0  0  0  0  0  0  0  0  0  0
  160.7320  207.9450  154.4950 C   0  0  0  0  0  3  0  0  0  0  0  0
  160.8240  206.2020  151.4200 O   0  0  0  0  0  0  0  0  0  0  0  0
  160.8690  208.8010  153.4280 C   0  0  0  0  0  0  0  0  0  0  0  0
  161.8980  206.8220  152.0780 C   0  0  2  0  0  0  0  0  0  0  0  0
  157.9560  212.1310  153.3810 C   0  0  0  0  0  3  0  0  0  0  0  0
  160.0880  212.1400  152.0990 C   0  0  0  0  0  3  0  0  0  0  0  0
  159.3120  210.3780  154.5210 C   0  0  0  0  0  3  0  0  0  0  0  0
  158.6770  212.4760  152.3150 C   0  0  0  0  0  0  0  0  0  0  0  0
  160.7550  211.0980  152.5880 C   0  0  0  0  0  3  0  0  0  0  0  0
  158.3390  211.2880  154.5210 C   0  0  0  0  0  0  0  0  0  0  0  0
  160.2110  210.0830  153.4400 N   0  0  0  0  0  0  0  0  0  0  0  0
  157.5750  211.4060  155.6740 O   0  0  0  0  0  1  0  0  0  0  0  0
  156.9580  214.0490  151.9300 O   0  0  0  0  0  1  0  0  0  0  0  0
  158.0490  213.4100  151.3400 C   0  0  0  0  0  2  0  0  0  0  0  0
  162.1430  209.5320  148.9860 O   0  0  0  0  0  0  0  0  0  0  0  0
  161.9750  210.7680  149.6330 C   0  0  0  0  0  1  0  0  0  0  0  0
  160.4550  204.9210  149.4380 C   0  0  0  0  0  2  0  0  0  0  0  0
  162.3970  204.3280  146.4660 C   0  0  0  0  0  0  0  0  0  0  0  0
  161.1620  204.4120  148.2290 C   0  0  0  0  0  0  0  0  0  0  0  0
  163.2350  204.7030  145.6040 O   0  0  0  0  0  0  0  0  0  0  0  0
  161.7360  203.0000  146.4850 C   0  0  1  0  0  3  0  0  0  0  0  0
  161.9880  205.1390  147.5550 N   0  0  0  0  0  0  0  0  0  0  0  0
  160.9230  203.1120  147.6880 N   0  0  0  0  0  2  0  0  0  0  0  0
  160.8370  202.8490  145.2680 C   0  0  0  0  0  2  0  0  0  0  0  0
  160.4660  204.2120  144.7180 C   0  0  0  0  0  1  0  0  0  0  0  0
  1  6  1  0  0  0  0
  1  2  1  0  0  0  0
  2 25  1  6  0  0  0
  2 10  1  0  0  0  0
  4  3  1  6  0  0  0
  4 11  1  0  0  0  0
  5  7  2  0  0  0  0
  6 23  1  6  0  0  0
  6  3  1  0  0  0  0
  8  5  1  0  0  0  0
  9  7  1  0  0  0  0
 11 19  1  0  0  0  0
 11  9  2  0  0  0  0
 12 10  1  6  0  0  0
 12  4  1  0  0  0  0
 12  8  1  0  0  0  0
 12  5  1  0  0  0  0
 13 18  1  0  0  0  0
 14 16  1  0  0  0  0
 14 17  2  0  0  0  0
 16 13  2  0  0  0  0
 17 19  1  0  0  0  0
 18 15  2  0  0  0  0
 18 20  1  0  0  0  0
 19 15  1  0  0  0  0
 22 21  1  0  0  0  0
 22 16  1  0  0  0  0
 23 24  1  0  0  0  0
 26 29  1  0  0  0  0
 26 30  1  0  0  0  0
 27 25  1  0  0  0  0
 28 26  2  0  0  0  0
 29 32  1  6  0  0  0
 29 31  1  0  0  0  0
 30 27  2  0  0  0  0
 31 27  1  0  0  0  0
 33 32  1  0  0  0  0
M  END
>  <MODEL>
6

>  <REMARK>
 VINA RESULT:      -6.5      1.515      2.114
  Name = 
  6 active torsions:
  status: ('A' for Active; 'I' for Inactive)
    1  A    between atoms: C_4  and  C_31
    2  A    between atoms: C_8  and  C_31
    3  A    between atoms: C_12  and  O_24
    4  A    between atoms: C_13  and  C_20
    5  A    between atoms: C_15  and  C_17
    6  A    between atoms: N_27  and  C_29
                            x       y       z     vdW  Elec       q    Type
                         _______ _______ _______ _____ _____    ______ ____

>  <TORSDO>
F 6

$$$$
=
 OpenBabel11072410203D

 33 37  0  0  1  0  0  0  0  0999 V2000
  160.7190  207.1200  153.7730 C   0  0  0  0  0  2  0  0  0  0  0  0
  160.7170  208.6540  153.7270 C   0  0  1  0  0  3  0  0  0  0  0  0
  161.5990  206.6330  151.5780 O   0  0  0  0  0  0  0  0  0  0  0  0
  162.2200  207.7790  151.0250 C   0  0  1  0  0  3  0  0  0  0  0  0
  162.1690  210.0370  150.9580 C   0  0  0  0  0  0  0  0  0  0  0  0
  161.8820  206.5400  152.9560 C   0  0  2  0  0  3  0  0  0  0  0  0
  161.9670  210.3510  149.7360 N   0  0  0  0  0  0  0  0  0  0  0  0
  162.7520  210.0690  152.3240 O   0  0  0  0  0  0  0  0  0  0  0  0
  161.5590  209.1760  149.0020 C   0  0  0  0  0  3  0  0  0  0  0  0
  160.6200  209.1430  152.4100 O   0  0  0  0  0  0  0  0  0  0  0  0
  161.6860  207.9240  149.5530 C   0  0  0  0  0  0  0  0  0  0  0  0
  161.9190  209.0630  151.8870 C   0  0  2  0  0  0  0  0  0  0  0  0
  161.4930  203.8790  147.7690 C   0  0  0  0  0  3  0  0  0  0  0  0
  161.4530  205.9810  146.4390 C   0  0  0  0  0  3  0  0  0  0  0  0
  160.8440  205.6030  149.4490 C   0  0  0  0  0  3  0  0  0  0  0  0
  161.7890  204.5720  146.6710 C   0  0  0  0  0  0  0  0  0  0  0  0
  161.2740  206.9300  147.3530 C   0  0  0  0  0  3  0  0  0  0  0  0
  160.8640  204.3440  149.0130 C   0  0  0  0  0  0  0  0  0  0  0  0
  161.3730  206.7540  148.7710 N   0  0  0  0  0  0  0  0  0  0  0  0
  160.3030  203.3750  149.8340 O   0  0  0  0  0  1  0  0  0  0  0  0
  163.5910  204.3750  145.1580 O   0  0  0  0  0  1  0  0  0  0  0  0
  162.3650  203.8180  145.5230 C   0  0  0  0  0  2  0  0  0  0  0  0
  162.1990  205.2180  153.3360 O   0  0  0  0  0  0  0  0  0  0  0  0
  161.1820  204.3570  152.8880 C   0  0  0  0  0  1  0  0  0  0  0  0
  159.5690  209.2070  154.5550 C   0  0  0  0  0  2  0  0  0  0  0  0
  160.0810  212.5740  155.7200 C   0  0  0  0  0  0  0  0  0  0  0  0
  159.7330  210.6730  154.7690 C   0  0  0  0  0  0  0  0  0  0  0  0
  160.4120  213.3910  156.6200 O   0  0  0  0  0  0  0  0  0  0  0  0
  159.6490  212.9500  154.3510 C   0  0  1  0  0  3  0  0  0  0  0  0
  160.0960  211.1690  155.9040 N   0  0  0  0  0  0  0  0  0  0  0  0
  159.4330  211.6370  153.7590 N   0  0  0  0  0  2  0  0  0  0  0  0
  158.3350  213.7110  154.4100 C   0  0  0  0  0  2  0  0  0  0  0  0
  157.9540  214.2080  153.0290 C   0  0  0  0  0  1  0  0  0  0  0  0
  2  1  1  0  0  0  0
  2 25  1  1  0  0  0
  3  6  1  0  0  0  0
  4 11  1  6  0  0  0
  4  3  1  0  0  0  0
  4 12  1  0  0  0  0
  5  8  1  0  0  0  0
  6 23  1  1  0  0  0
  6  1  1  0  0  0  0
  7  5  2  0  0  0  0
  9 11  2  0  0  0  0
  9  7  1  0  0  0  0
 10  2  1  0  0  0  0
 12  5  1  6  0  0  0
 12  8  1  0  0  0  0
 12 10  1  0  0  0  0
 13 18  1  0  0  0  0
 14 16  1  0  0  0  0
 14 17  2  0  0  0  0
 16 13  2  0  0  0  0
 17 19  1  0  0  0  0
 18 15  2  0  0  0  0
 18 20  1  0  0  0  0
 19 15  1  0  0  0  0
 19 11  1  0  0  0  0
 21 22  1  0  0  0  0
 22 16  1  0  0  0  0
 24 23  1  0  0  0  0
 25 27  1  0  0  0  0
 26 30  1  0  0  0  0
 26 28  2  0  0  0  0
 27 30  2  0  0  0  0
 29 32  1  1  0  0  0
 29 26  1  0  0  0  0
 31 29  1  0  0  0  0
 31 27  1  0  0  0  0
 33 32  1  0  0  0  0
M  END
>  <MODEL>
7

>  <REMARK>
 VINA RESULT:      -6.4      1.970      9.060
  Name = 
  6 active torsions:
  status: ('A' for Active; 'I' for Inactive)
    1  A    between atoms: C_4  and  C_31
    2  A    between atoms: C_8  and  C_31
    3  A    between atoms: C_12  and  O_24
    4  A    between atoms: C_13  and  C_20
    5  A    between atoms: C_15  and  C_17
    6  A    between atoms: N_27  and  C_29
                            x       y       z     vdW  Elec       q    Type
                         _______ _______ _______ _____ _____    ______ ____

>  <TORSDO>
F 6

$$$$
=
 OpenBabel11072410203D

 33 37  0  0  1  0  0  0  0  0999 V2000
  161.2230  207.4720  151.4560 C   0  0  0  0  0  2  0  0  0  0  0  0
  161.0630  206.6240  152.7260 C   0  0  1  0  0  3  0  0  0  0  0  0
  160.8990  209.6790  152.3790 O   0  0  0  0  0  0  0  0  0  0  0  0
  161.0470  209.6570  153.7880 C   0  0  1  0  0  3  0  0  0  0  0  0
  160.7700  208.3910  155.6380 C   0  0  0  0  0  0  0  0  0  0  0  0
  161.8520  208.8350  151.7740 C   0  0  2  0  0  3  0  0  0  0  0  0
  159.9460  209.0240  156.3810 N   0  0  0  0  0  0  0  0  0  0  0  0
  161.9630  207.5970  155.2470 O   0  0  0  0  0  0  0  0  0  0  0  0
  159.3260  210.0800  155.6150 C   0  0  0  0  0  3  0  0  0  0  0  0
  160.2640  207.2660  153.6910 O   0  0  0  0  0  0  0  0  0  0  0  0
  159.8260  210.4450  154.3890 C   0  0  0  0  0  0  0  0  0  0  0  0
  161.1160  208.1790  154.3310 C   0  0  2  0  0  0  0  0  0  0  0  0
  157.2470  213.2310  152.1160 C   0  0  0  0  0  3  0  0  0  0  0  0
  159.6720  212.9110  151.6640 C   0  0  0  0  0  3  0  0  0  0  0  0
  158.0850  212.1900  154.2200 C   0  0  0  0  0  3  0  0  0  0  0  0
  158.2830  213.1860  151.2800 C   0  0  0  0  0  0  0  0  0  0  0  0
  160.0970  212.2060  152.7080 C   0  0  0  0  0  3  0  0  0  0  0  0
  157.2080  212.9420  153.5560 C   0  0  0  0  0  0  0  0  0  0  0  0
  159.2630  211.5680  153.6830 N   0  0  0  0  0  0  0  0  0  0  0  0
  156.1260  213.4400  154.2680 O   0  0  0  0  0  1  0  0  0  0  0  0
  156.9050  212.9650  149.3760 O   0  0  0  0  0  1  0  0  0  0  0  0
  158.0430  213.6030  149.8710 C   0  0  0  0  0  2  0  0  0  0  0  0
  162.4340  209.4370  150.6360 O   0  0  0  0  0  0  0  0  0  0  0  0
  161.9560  208.7910  149.4830 C   0  0  0  0  0  1  0  0  0  0  0  0
  160.4540  205.2740  152.3870 C   0  0  0  0  0  2  0  0  0  0  0  0
  160.9130  204.9210  148.8340 C   0  0  0  0  0  0  0  0  0  0  0  0
  160.7770  204.8890  150.9840 C   0  0  0  0  0  0  0  0  0  0  0  0
  160.8300  205.3720  147.6620 O   0  0  0  0  0  0  0  0  0  0  0  0
  161.4470  203.5830  149.1910 C   0  0  1  0  0  3  0  0  0  0  0  0
  160.5130  205.6550  149.9790 N   0  0  0  0  0  0  0  0  0  0  0  0
  161.3350  203.6180  150.6430 N   0  0  0  0  0  2  0  0  0  0  0  0
  160.5450  202.4950  148.6310 C   0  0  0  0  0  2  0  0  0  0  0  0
  161.2070  201.1390  148.7740 C   0  0  0  0  0  1  0  0  0  0  0  0
  1  6  1  0  0  0  0
  1  2  1  0  0  0  0
  2 25  1  6  0  0  0
  2 10  1  0  0  0  0
  4  3  1  6  0  0  0
  4 12  1  0  0  0  0
  4 11  1  0  0  0  0
  5  7  2  0  0  0  0
  6 23  1  6  0  0  0
  6  3  1  0  0  0  0
  8  5  1  0  0  0  0
  9  7  1  0  0  0  0
 11  9  2  0  0  0  0
 12 10  1  6  0  0  0
 12  8  1  0  0  0  0
 12  5  1  0  0  0  0
 13 18  1  0  0  0  0
 14 17  2  0  0  0  0
 16 14  1  0  0  0  0
 16 13  2  0  0  0  0
 17 19  1  0  0  0  0
 18 15  2  0  0  0  0
 18 20  1  0  0  0  0
 19 15  1  0  0  0  0
 19 11  1  0  0  0  0
 21 22  1  0  0  0  0
 22 16  1  0  0  0  0
 24 23  1  0  0  0  0
 26 29  1  0  0  0  0
 26 30  1  0  0  0  0
 27 25  1  0  0  0  0
 28 26  2  0  0  0  0
 29 32  1  6  0  0  0
 29 31  1  0  0  0  0
 30 27  2  0  0  0  0
 31 27  1  0  0  0  0
 32 33  1  0  0  0  0
M  END
>  <MODEL>
8

>  <REMARK>
 VINA RESULT:      -6.1      2.258      3.313
  Name = 
  6 active torsions:
  status: ('A' for Active; 'I' for Inactive)
    1  A    between atoms: C_4  and  C_31
    2  A    between atoms: C_8  and  C_31
    3  A    between atoms: C_12  and  O_24
    4  A    between atoms: C_13  and  C_20
    5  A    between atoms: C_15  and  C_17
    6  A    between atoms: N_27  and  C_29
                            x       y       z     vdW  Elec       q    Type
                         _______ _______ _______ _____ _____    ______ ____

>  <TORSDO>
F 6

$$$$
=
 OpenBabel11072410203D

 33 37  0  0  1  0  0  0  0  0999 V2000
  161.1440  207.4340  149.5150 C   0  0  0  0  0  2  0  0  0  0  0  0
  161.2760  206.0610  150.1890 C   0  0  1  0  0  3  0  0  0  0  0  0
  161.2610  208.8680  151.4540 O   0  0  0  0  0  0  0  0  0  0  0  0
  161.7900  208.1640  152.5640 C   0  0  1  0  0  3  0  0  0  0  0  0
  161.9390  206.1340  153.5420 C   0  0  0  0  0  0  0  0  0  0  0  0
  161.9400  208.5050  150.2740 C   0  0  2  0  0  3  0  0  0  0  0  0
  161.4040  206.2560  154.6960 N   0  0  0  0  0  0  0  0  0  0  0  0
  162.9110  205.7250  152.4960 O   0  0  0  0  0  0  0  0  0  0  0  0
  160.6800  207.5040  154.7570 C   0  0  0  0  0  3  0  0  0  0  0  0
  160.8280  206.0830  151.5230 O   0  0  0  0  0  0  0  0  0  0  0  0
  160.8490  208.4630  153.7870 C   0  0  0  0  0  0  0  0  0  0  0  0
  161.8920  206.6210  152.2640 C   0  0  2  0  0  0  0  0  0  0  0  0
  159.8230  212.7670  153.8460 C   0  0  0  0  0  3  0  0  0  0  0  0
  159.1880  211.1690  155.6430 C   0  0  0  0  0  3  0  0  0  0  0  0
  160.0370  210.5460  152.7340 C   0  0  0  0  0  3  0  0  0  0  0  0
  159.5830  212.4830  155.1250 C   0  0  0  0  0  0  0  0  0  0  0  0
  159.4590  209.9780  155.1170 C   0  0  0  0  0  3  0  0  0  0  0  0
  159.8440  211.8630  152.6880 C   0  0  0  0  0  0  0  0  0  0  0  0
  160.2010  209.7440  153.9150 N   0  0  0  0  0  0  0  0  0  0  0  0
  159.7190  212.4460  151.4340 O   0  0  0  0  0  1  0  0  0  0  0  0
  160.2170  213.2650  157.2610 O   0  0  0  0  0  1  0  0  0  0  0  0
  159.5570  213.6220  156.0840 C   0  0  0  0  0  2  0  0  0  0  0  0
  162.2300  209.6290  149.4710 O   0  0  0  0  0  0  0  0  0  0  0  0
  161.6600  209.4420  148.2000 C   0  0  0  0  0  1  0  0  0  0  0  0
  160.4940  205.0140  149.4130 C   0  0  0  0  0  2  0  0  0  0  0  0
  162.5750  204.7030  146.4920 C   0  0  0  0  0  0  0  0  0  0  0  0
  161.2060  204.6520  148.1550 C   0  0  0  0  0  0  0  0  0  0  0  0
  163.5550  205.0710  145.7930 O   0  0  0  0  0  0  0  0  0  0  0  0
  161.6620  203.5830  146.1510 C   0  0  1  0  0  3  0  0  0  0  0  0
  162.2270  205.3140  147.7230 N   0  0  0  0  0  0  0  0  0  0  0  0
  160.7680  203.5940  147.3010 N   0  0  0  0  0  2  0  0  0  0  0  0
  160.8830  203.9140  144.8890 C   0  0  0  0  0  2  0  0  0  0  0  0
  160.4760  205.3750  144.8910 C   0  0  0  0  0  1  0  0  0  0  0  0
  1  2  1  0  0  0  0
  1  6  1  0  0  0  0
  2 25  1  6  0  0  0
  2 10  1  0  0  0  0
  4  3  1  6  0  0  0
  4 11  1  0  0  0  0
  5  7  2  0  0  0  0
  6 23  1  6  0  0  0
  6  3  1  0  0  0  0
  7  9  1  0  0  0  0
  8  5  1  0  0  0  0
 11 19  1  0  0  0  0
 11  9  2  0  0  0  0
 12 10  1  6  0  0  0
 12  8  1  0  0  0  0
 12  4  1  0  0  0  0
 12  5  1  0  0  0  0
 13 16  2  0  0  0  0
 15 19  1  0  0  0  0
 16 14  1  0  0  0  0
 16 22  1  0  0  0  0
 17 14  2  0  0  0  0
 18 15  2  0  0  0  0
 18 13  1  0  0  0  0
 19 17  1  0  0  0  0
 20 18  1  0  0  0  0
 22 21  1  0  0  0  0
 24 23  1  0  0  0  0
 26 30  1  0  0  0  0
 27 25  1  0  0  0  0
 28 26  2  0  0  0  0
 29 32  1  6  0  0  0
 29 26  1  0  0  0  0
 29 31  1  0  0  0  0
 30 27  2  0  0  0  0
 31 27  1  0  0  0  0
 32 33  1  0  0  0  0
M  END
>  <MODEL>
9

>  <REMARK>
 VINA RESULT:      -5.6      1.629      2.303
  Name = 
  6 active torsions:
  status: ('A' for Active; 'I' for Inactive)
    1  A    between atoms: C_4  and  C_31
    2  A    between atoms: C_8  and  C_31
    3  A    between atoms: C_12  and  O_24
    4  A    between atoms: C_13  and  C_20
    5  A    between atoms: C_15  and  C_17
    6  A    between atoms: N_27  and  C_29
                            x       y       z     vdW  Elec       q    Type
                         _______ _______ _______ _____ _____    ______ ____

>  <TORSDO>
F 6

$$$$
