=
 OpenBabel11072413003D

 48 53  0  0  1  0  0  0  0  0999 V2000
  160.9670  209.6490  153.4170 C   0  0  2  0  0  3  0  0  0  0  0  0
  162.2840  208.7370  149.2610 C   0  0  0  0  0  3  0  0  0  0  0  0
  161.5650  208.1570  151.4410 N   0  0  0  0  0  0  0  0  0  0  0  0
  162.2890  207.2180  149.3880 C   0  0  1  0  0  3  0  0  0  0  0  0
  163.0910  206.2560  151.5220 C   0  0  0  0  0  1  0  0  0  0  0  0
  161.7150  209.2900  150.5520 C   0  0  0  0  0  3  0  0  0  0  0  0
  161.8980  206.8870  150.8190 C   0  0  1  0  0  3  0  0  0  0  0  0
  160.8550  207.2570  153.4740 O   0  0  0  0  0  0  0  0  0  0  0  0
  161.0950  208.2880  152.7910 C   0  0  0  0  0  0  0  0  0  0  0  0
  161.2870  206.6220  148.4150 C   0  0  0  0  0  2  0  0  0  0  0  0
  161.9100  205.4330  147.6910 C   0  0  2  0  0  3  0  0  0  0  0  0
  162.6150  205.2060  145.2270 C   0  0  0  0  0  3  0  0  0  0  0  0
  161.7010  205.5150  146.2110 C   0  0  2  0  0  3  0  0  0  0  0  0
  160.5410  205.9480  145.6080 C   0  0  0  0  0  3  0  0  0  0  0  0
  160.7980  205.8730  144.2510 C   0  0  0  0  0  3  0  0  0  0  0  0
  162.0480  205.4260  144.0260 N   0  0  0  0  0  0  0  0  0  0  0  0
  161.7050  203.9160  149.5960 O   0  0  0  0  0  0  0  0  0  0  0  0
  161.4370  204.0970  148.2600 C   0  0  0  0  0  0  0  0  0  0  0  0
  160.4510  204.2130  149.2090 O   0  0  0  0  0  0  0  0  0  0  0  0
  161.3600  202.8350  147.4540 C   0  0  0  0  0  0  0  0  0  0  0  0
  161.1060  202.8920  146.2620 O   0  0  0  0  0  0  0  0  0  0  0  0
  161.5840  201.5060  148.0980 C   0  0  0  0  0  2  0  0  0  0  0  0
  160.2640  200.9070  148.5380 C   0  0  0  0  0  2  0  0  0  0  0  0
  161.1410  200.8800  150.8050 N   0  0  0  0  0  1  0  0  0  0  0  0
  159.9930  201.2400  149.9930 C   0  0  0  0  0  2  0  0  0  0  0  0
  160.5520  209.5420  154.8840 C   0  0  0  0  0  2  0  0  0  0  0  0
  161.6240  210.0560  155.8320 C   0  0  0  0  0  2  0  0  0  0  0  0
  162.6840  210.5760  155.0880 O   0  0  0  0  0  1  0  0  0  0  0  0
  160.0430  210.5020  152.6840 N   0  0  0  0  0  2  0  0  0  0  0  0
  158.4760  212.3630  152.8320 C   0  0  0  0  0  0  0  0  0  0  0  0
  159.0250  211.2530  153.3460 C   0  0  0  0  0  3  0  0  0  0  0  0
  157.8900  213.4630  150.5970 C   0  0  0  0  0  3  0  0  0  0  0  0
  159.8030  213.6090  149.2890 C   0  0  0  0  0  0  0  0  0  0  0  0
  158.8140  212.8980  151.4790 C   0  0  0  0  0  0  0  0  0  0  0  0
  160.3170  212.8810  150.7090 S   0  0  0  0  0  0  0  0  0  0  0  0
  158.4420  213.8560  149.3680 C   0  0  0  0  0  3  0  0  0  0  0  0
  160.6540  213.8480  148.0920 C   0  0  0  0  0  2  0  0  0  0  0  0
  160.2940  212.9140  147.0410 N   0  0  0  0  0  2  0  0  0  0  0  0
  161.2850  213.0610  145.9930 C   0  0  0  0  0  1  0  0  0  0  0  0
  157.8800  214.1160  154.3350 O   0  0  0  0  0  0  0  0  0  0  0  0
  157.6430  212.9500  155.0900 C   0  0  2  0  0  3  0  0  0  0  0  0
  157.3750  213.0080  153.6250 C   0  0  2  0  0  3  0  0  0  0  0  0
  155.8570  211.9390  156.5190 C   0  0  0  0  0  3  0  0  0  0  0  0
  153.9420  213.2200  157.2600 C   0  0  0  0  0  3  0  0  0  0  0  0
  154.4390  214.3480  156.5970 C   0  0  0  0  0  3  0  0  0  0  0  0
  156.3530  213.0600  155.8420 C   0  0  0  0  0  0  0  0  0  0  0  0
  155.6430  214.2700  155.8950 C   0  0  0  0  0  3  0  0  0  0  0  0
  154.6530  212.0190  157.2240 C   0  0  0  0  0  3  0  0  0  0  0  0
  1 26  1  1  0  0  0
  2  4  1  0  0  0  0
  2  6  2  0  0  0  0
  3  9  1  0  0  0  0
  4 10  1  6  0  0  0
  4  7  1  0  0  0  0
  6  3  1  0  0  0  0
  7  3  1  0  0  0  0
  7  5  1  1  0  0  0
  9  1  1  0  0  0  0
  9  8  2  0  0  0  0
 11 18  1  0  0  0  0
 11 10  1  1  0  0  0
 12 13  1  0  0  0  0
 13 11  1  1  0  0  0
 14 13  1  0  0  0  0
 15 14  2  0  0  0  0
 16 15  1  0  0  0  0
 16 12  2  0  0  0  0
 18 19  1  0  0  0  0
 18 17  1  0  0  0  0
 19 17  1  0  0  0  0
 20 22  1  0  0  0  0
 20 18  1  0  0  0  0
 21 20  2  0  0  0  0
 22 23  1  0  0  0  0
 23 25  1  0  0  0  0
 25 24  1  0  0  0  0
 26 27  1  0  0  0  0
 28 27  1  0  0  0  0
 29 31  1  0  0  0  0
 29  1  1  0  0  0  0
 30 31  2  0  0  0  0
 32 34  2  0  0  0  0
 33 36  2  0  0  0  0
 33 35  1  0  0  0  0
 34 30  1  0  0  0  0
 35 34  1  0  0  0  0
 36 32  1  0  0  0  0
 37 33  1  0  0  0  0
 38 37  1  0  0  0  0
 39 38  1  0  0  0  0
 40 41  1  0  0  0  0
 41 46  1  1  0  0  0
 42 30  1  6  0  0  0
 42 40  1  0  0  0  0
 42 41  1  0  0  0  0
 43 48  1  0  0  0  0
 45 44  1  0  0  0  0
 46 47  1  0  0  0  0
 46 43  2  0  0  0  0
 47 45  2  0  0  0  0
 48 44  2  0  0  0  0
M  END
>  <MODEL>
1

>  <REMARK>
 VINA RESULT:      -5.9      0.000      0.000
  Name = 
  18 active torsions:
  status: ('A' for Active; 'I' for Inactive)
    1  A    between atoms: C_1  and  C_2
    2  A    between atoms: C_1  and  C_15
    3  A    between atoms: C_2  and  C_38
    4  A    between atoms: C_2  and  N_40
    5  A    between atoms: C_5  and  C_19
    6  A    between atoms: C_5  and  C_43
    7  A    between atoms: N_6  and  C_41
    8  A    between atoms: C_7  and  C_39
    9  A    between atoms: C_7  and  C_47
   10  A    between atoms: C_10  and  C_20
   11  A    between atoms: C_11  and  C_41
   12  A    between atoms: C_16  and  C_24
   13  A    between atoms: C_20  and  C_24
   14  A    between atoms: C_20  and  C_39
   15  A    between atoms: C_30  and  C_34
   16  A    between atoms: C_36  and  N_40
   17  A    between atoms: C_37  and  C_45
   18  A    between atoms: C_37  and  C_47
                            x       y       z     vdW  Elec       q    Type
                         _______ _______ _______ _____ _____    ______ ____

>  <TORSDO>
F 18

$$$$
=
 OpenBabel11072413003D

 48 53  0  0  1  0  0  0  0  0999 V2000
  161.3100  210.3240  150.4520 C   0  0  2  0  0  3  0  0  0  0  0  0
  161.3790  214.4530  148.7840 C   0  0  0  0  0  3  0  0  0  0  0  0
  161.8140  212.1260  148.7240 N   0  0  0  0  0  0  0  0  0  0  0  0
  162.1360  214.1310  147.5010 C   0  0  1  0  0  3  0  0  0  0  0  0
  163.9740  212.4790  147.6460 C   0  0  0  0  0  1  0  0  0  0  0  0
  161.1010  213.1350  149.4800 C   0  0  0  0  0  3  0  0  0  0  0  0
  162.4650  212.6470  147.5350 C   0  0  1  0  0  3  0  0  0  0  0  0
  162.3560  209.8880  148.3420 O   0  0  0  0  0  0  0  0  0  0  0  0
  161.8340  210.7420  149.1070 C   0  0  0  0  0  0  0  0  0  0  0  0
  161.2640  214.4520  146.3010 C   0  0  0  0  0  2  0  0  0  0  0  0
  161.3540  213.3260  145.2760 C   0  0  2  0  0  3  0  0  0  0  0  0
  161.6010  213.9030  142.7810 C   0  0  0  0  0  3  0  0  0  0  0  0
  162.1070  213.7500  144.0540 C   0  0  2  0  0  3  0  0  0  0  0  0
  163.4550  214.0320  144.0240 C   0  0  0  0  0  3  0  0  0  0  0  0
  163.7190  214.3620  142.7070 C   0  0  0  0  0  3  0  0  0  0  0  0
  162.6000  214.2820  141.9620 N   0  0  0  0  0  0  0  0  0  0  0  0
  159.9300  212.0890  143.7250 O   0  0  0  0  0  0  0  0  0  0  0  0
  159.9840  212.7470  144.9300 C   0  0  0  0  0  0  0  0  0  0  0  0
  159.9600  211.3750  144.8660 O   0  0  0  0  0  0  0  0  0  0  0  0
  158.6910  213.3580  145.3770 C   0  0  0  0  0  0  0  0  0  0  0  0
  158.2790  214.3710  144.8340 O   0  0  0  0  0  0  0  0  0  0  0  0
  157.9040  212.7440  146.4880 C   0  0  0  0  0  2  0  0  0  0  0  0
  157.9110  213.6520  147.7010 C   0  0  0  0  0  2  0  0  0  0  0  0
  156.5040  213.8540  149.6720 N   0  0  0  0  0  1  0  0  0  0  0  0
  156.5000  213.8490  148.2210 C   0  0  0  0  0  2  0  0  0  0  0  0
  161.1710  211.5250  151.3860 C   0  0  0  0  0  2  0  0  0  0  0  0
  159.8080  211.5880  152.0580 C   0  0  0  0  0  2  0  0  0  0  0  0
  159.9570  211.3400  153.4220 O   0  0  0  0  0  1  0  0  0  0  0  0
  162.1360  209.2920  151.0630 N   0  0  0  0  0  2  0  0  0  0  0  0
  162.0230  206.8610  151.1940 C   0  0  0  0  0  0  0  0  0  0  0  0
  162.2500  207.9860  150.4990 C   0  0  0  0  0  3  0  0  0  0  0  0
  161.8670  205.8530  153.5410 C   0  0  0  0  0  3  0  0  0  0  0  0
  160.5110  207.1960  154.8640 C   0  0  0  0  0  0  0  0  0  0  0  0
  161.5570  206.8500  152.6130 C   0  0  0  0  0  0  0  0  0  0  0  0
  160.5320  207.9580  153.3710 S   0  0  0  0  0  0  0  0  0  0  0  0
  161.2770  206.0430  154.8000 C   0  0  0  0  0  3  0  0  0  0  0  0
  159.7050  207.6310  156.0370 C   0  0  0  0  0  2  0  0  0  0  0  0
  160.0690  208.9860  156.4060 N   0  0  0  0  0  2  0  0  0  0  0  0
  161.3080  208.8970  157.1550 C   0  0  0  0  0  1  0  0  0  0  0  0
  161.9300  205.7890  149.0660 O   0  0  0  0  0  0  0  0  0  0  0  0
  160.8490  205.2140  149.7640 C   0  0  2  0  0  3  0  0  0  0  0  0
  162.1280  205.5640  150.4430 C   0  0  2  0  0  3  0  0  0  0  0  0
  161.0190  203.2400  148.2380 C   0  0  0  0  0  3  0  0  0  0  0  0
  160.6950  200.9800  149.0410 C   0  0  0  0  0  3  0  0  0  0  0  0
  160.4820  201.4680  150.3340 C   0  0  0  0  0  3  0  0  0  0  0  0
  160.7930  203.7370  149.5280 C   0  0  0  0  0  0  0  0  0  0  0  0
  160.5360  202.8410  150.5780 C   0  0  0  0  0  3  0  0  0  0  0  0
  160.9670  201.8650  147.9950 C   0  0  0  0  0  3  0  0  0  0  0  0
  1 29  1  0  0  0  0
  1 26  1  1  0  0  0
  2  6  2  0  0  0  0
  3  9  1  0  0  0  0
  3  6  1  0  0  0  0
  4 10  1  6  0  0  0
  4  7  1  0  0  0  0
  4  2  1  0  0  0  0
  7  5  1  1  0  0  0
  7  3  1  0  0  0  0
  8  9  2  0  0  0  0
  9  1  1  0  0  0  0
 11 10  1  1  0  0  0
 12 13  1  0  0  0  0
 13 11  1  6  0  0  0
 14 13  1  0  0  0  0
 15 14  2  0  0  0  0
 16 15  1  0  0  0  0
 16 12  2  0  0  0  0
 17 19  1  0  0  0  0
 17 18  1  0  0  0  0
 18 11  1  0  0  0  0
 18 20  1  0  0  0  0
 19 18  1  0  0  0  0
 20 22  1  0  0  0  0
 21 20  2  0  0  0  0
 22 23  1  0  0  0  0
 23 25  1  0  0  0  0
 25 24  1  0  0  0  0
 26 27  1  0  0  0  0
 27 28  1  0  0  0  0
 30 34  1  0  0  0  0
 31 29  1  0  0  0  0
 31 30  2  0  0  0  0
 32 36  1  0  0  0  0
 33 37  1  0  0  0  0
 34 35  1  0  0  0  0
 34 32  2  0  0  0  0
 35 33  1  0  0  0  0
 36 33  2  0  0  0  0
 37 38  1  0  0  0  0
 38 39  1  0  0  0  0
 40 41  1  0  0  0  0
 40 42  1  0  0  0  0
 41 46  1  6  0  0  0
 41 42  1  0  0  0  0
 42 30  1  1  0  0  0
 43 46  1  0  0  0  0
 44 45  2  0  0  0  0
 45 47  1  0  0  0  0
 46 47  2  0  0  0  0
 48 43  2  0  0  0  0
 48 44  1  0  0  0  0
M  END
>  <MODEL>
2

>  <REMARK>
 VINA RESULT:      -5.8      3.731      9.537
  Name = 
  18 active torsions:
  status: ('A' for Active; 'I' for Inactive)
    1  A    between atoms: C_1  and  C_2
    2  A    between atoms: C_1  and  C_15
    3  A    between atoms: C_2  and  C_38
    4  A    between atoms: C_2  and  N_40
    5  A    between atoms: C_5  and  C_19
    6  A    between atoms: C_5  and  C_43
    7  A    between atoms: N_6  and  C_41
    8  A    between atoms: C_7  and  C_39
    9  A    between atoms: C_7  and  C_47
   10  A    between atoms: C_10  and  C_20
   11  A    between atoms: C_11  and  C_41
   12  A    between atoms: C_16  and  C_24
   13  A    between atoms: C_20  and  C_24
   14  A    between atoms: C_20  and  C_39
   15  A    between atoms: C_30  and  C_34
   16  A    between atoms: C_36  and  N_40
   17  A    between atoms: C_37  and  C_45
   18  A    between atoms: C_37  and  C_47
                            x       y       z     vdW  Elec       q    Type
                         _______ _______ _______ _____ _____    ______ ____

>  <TORSDO>
F 18

$$$$
=
 OpenBabel11072413003D

 48 53  0  0  1  0  0  0  0  0999 V2000
  162.4690  207.4600  148.4890 C   0  0  2  0  0  3  0  0  0  0  0  0
  162.0890  209.8820  152.2070 C   0  0  0  0  0  3  0  0  0  0  0  0
  161.7160  209.4340  149.9120 N   0  0  0  0  0  0  0  0  0  0  0  0
  161.3360  211.0580  151.5970 C   0  0  1  0  0  3  0  0  0  0  0  0
  162.0040  211.7840  149.3270 C   0  0  0  0  0  1  0  0  0  0  0  0
  162.2150  208.8250  151.1280 C   0  0  0  0  0  3  0  0  0  0  0  0
  161.1840  210.7700  150.1110 C   0  0  1  0  0  3  0  0  0  0  0  0
  161.1510  209.2770  147.6530 O   0  0  0  0  0  0  0  0  0  0  0  0
  161.7200  208.7530  148.6480 C   0  0  0  0  0  0  0  0  0  0  0  0
  159.9720  211.1860  152.2530 C   0  0  0  0  0  2  0  0  0  0  0  0
  159.9290  212.4380  153.1210 C   0  0  2  0  0  3  0  0  0  0  0  0
  160.2470  212.6340  155.6670 C   0  0  0  0  0  3  0  0  0  0  0  0
  159.6320  212.1090  154.5510 C   0  0  0  0  0  0  0  0  0  0  0  0
  158.6920  211.1910  154.9630 C   0  0  0  0  0  3  0  0  0  0  0  0
  158.7670  211.2020  156.3440 C   0  0  0  0  0  3  0  0  0  0  0  0
  159.7060  212.0710  156.7640 N   0  0  0  0  0  2  0  0  0  0  0  0
  157.7250  213.4920  153.1420 O   0  0  0  0  0  0  0  0  0  0  0  0
  158.9730  213.4940  152.5690 C   0  0  0  0  0  0  0  0  0  0  0  0
  158.6080  214.4480  153.4860 O   0  0  0  0  0  0  0  0  0  0  0  0
  159.0210  213.9940  151.1560 C   0  0  0  0  0  0  0  0  0  0  0  0
  160.0600  214.4510  150.7090 O   0  0  0  0  0  0  0  0  0  0  0  0
  157.8030  213.9460  150.2920 C   0  0  0  0  0  2  0  0  0  0  0  0
  158.1520  214.3420  148.8720 C   0  0  0  0  0  2  0  0  0  0  0  0
  157.4800  212.5180  147.4140 N   0  0  0  0  0  1  0  0  0  0  0  0
  157.0990  213.8280  147.9080 C   0  0  0  0  0  2  0  0  0  0  0  0
  162.4530  206.9910  147.0340 C   0  0  0  0  0  2  0  0  0  0  0  0
  162.5880  205.4820  146.9060 C   0  0  0  0  0  2  0  0  0  0  0  0
  161.8670  205.0500  145.7930 O   0  0  0  0  0  1  0  0  0  0  0  0
  161.9560  206.4200  149.3680 N   0  0  0  0  0  2  0  0  0  0  0  0
  161.6570  205.5700  151.6330 C   0  0  0  0  0  0  0  0  0  0  0  0
  161.9470  206.5700  150.7870 C   0  0  0  0  0  3  0  0  0  0  0  0
  161.3120  203.0690  152.0440 C   0  0  0  0  0  3  0  0  0  0  0  0
  160.9610  201.9990  150.0120 C   0  0  0  0  0  0  0  0  0  0  0  0
  161.3810  204.1710  151.1890 C   0  0  0  0  0  0  0  0  0  0  0  0
  161.1680  203.6130  149.6090 S   0  0  0  0  0  0  0  0  0  0  0  0
  161.0820  201.8500  151.3850 C   0  0  0  0  0  3  0  0  0  0  0  0
  160.7860  200.8880  149.0380 C   0  0  0  0  0  2  0  0  0  0  0  0
  161.1770  201.3330  147.7140 N   0  0  0  0  0  2  0  0  0  0  0  0
  161.4130  200.1390  146.9240 C   0  0  0  0  0  1  0  0  0  0  0  0
  160.8700  205.0340  153.8200 O   0  0  0  0  0  0  0  0  0  0  0  0
  160.4490  206.3670  153.6440 C   0  0  2  0  0  3  0  0  0  0  0  0
  161.7460  205.8740  153.1020 C   0  0  2  0  0  3  0  0  0  0  0  0
  161.5000  208.3110  154.8150 C   0  0  0  0  0  3  0  0  0  0  0  0
  161.1800  208.6940  157.1830 C   0  0  0  0  0  3  0  0  0  0  0  0
  160.3630  207.5610  157.2570 C   0  0  0  0  0  3  0  0  0  0  0  0
  160.6930  207.1680  154.8840 C   0  0  0  0  0  0  0  0  0  0  0  0
  160.1160  206.8030  156.1110 C   0  0  0  0  0  3  0  0  0  0  0  0
  161.7440  209.0710  155.9620 C   0  0  0  0  0  3  0  0  0  0  0  0
  1 26  1  6  0  0  0
  1  9  1  0  0  0  0
  1 29  1  0  0  0  0
  3  7  1  0  0  0  0
  3  6  1  0  0  0  0
  4  2  1  0  0  0  0
  4 10  1  1  0  0  0
  6  2  2  0  0  0  0
  7  5  1  6  0  0  0
  7  4  1  0  0  0  0
  8  9  2  0  0  0  0
  9  3  1  0  0  0  0
 11 10  1  6  0  0  0
 11 13  1  0  0  0  0
 12 16  1  0  0  0  0
 13 14  1  0  0  0  0
 13 12  2  0  0  0  0
 14 15  2  0  0  0  0
 15 16  1  0  0  0  0
 17 19  1  0  0  0  0
 18 11  1  0  0  0  0
 18 17  1  0  0  0  0
 18 19  1  0  0  0  0
 20 18  1  0  0  0  0
 21 20  2  0  0  0  0
 22 20  1  0  0  0  0
 23 22  1  0  0  0  0
 24 25  1  0  0  0  0
 25 23  1  0  0  0  0
 27 26  1  0  0  0  0
 28 27  1  0  0  0  0
 29 31  1  0  0  0  0
 31 30  2  0  0  0  0
 33 36  2  0  0  0  0
 34 30  1  0  0  0  0
 34 32  2  0  0  0  0
 35 33  1  0  0  0  0
 35 34  1  0  0  0  0
 36 32  1  0  0  0  0
 37 33  1  0  0  0  0
 38 37  1  0  0  0  0
 39 38  1  0  0  0  0
 41 40  1  0  0  0  0
 41 46  1  1  0  0  0
 42 30  1  6  0  0  0
 42 41  1  0  0  0  0
 42 40  1  0  0  0  0
 43 46  2  0  0  0  0
 43 48  1  0  0  0  0
 44 45  1  0  0  0  0
 46 47  1  0  0  0  0
 47 45  2  0  0  0  0
 48 44  2  0  0  0  0
M  END
>  <MODEL>
3

>  <REMARK>
 VINA RESULT:      -4.8      3.001      9.705
  Name = 
  18 active torsions:
  status: ('A' for Active; 'I' for Inactive)
    1  A    between atoms: C_1  and  C_2
    2  A    between atoms: C_1  and  C_15
    3  A    between atoms: C_2  and  C_38
    4  A    between atoms: C_2  and  N_40
    5  A    between atoms: C_5  and  C_19
    6  A    between atoms: C_5  and  C_43
    7  A    between atoms: N_6  and  C_41
    8  A    between atoms: C_7  and  C_39
    9  A    between atoms: C_7  and  C_47
   10  A    between atoms: C_10  and  C_20
   11  A    between atoms: C_11  and  C_41
   12  A    between atoms: C_16  and  C_24
   13  A    between atoms: C_20  and  C_24
   14  A    between atoms: C_20  and  C_39
   15  A    between atoms: C_30  and  C_34
   16  A    between atoms: C_36  and  N_40
   17  A    between atoms: C_37  and  C_45
   18  A    between atoms: C_37  and  C_47
                            x       y       z     vdW  Elec       q    Type
                         _______ _______ _______ _____ _____    ______ ____

>  <TORSDO>
F 18

$$$$
=
 OpenBabel11072413003D

 48 53  0  0  1  0  0  0  0  0999 V2000
  162.4040  207.4440  148.3990 C   0  0  2  0  0  3  0  0  0  0  0  0
  162.2490  209.6900  152.2420 C   0  0  0  0  0  3  0  0  0  0  0  0
  161.7090  209.3290  149.9640 N   0  0  0  0  0  0  0  0  0  0  0  0
  161.4170  210.8660  151.7460 C   0  0  1  0  0  3  0  0  0  0  0  0
  161.8830  211.7100  149.4660 C   0  0  0  0  0  1  0  0  0  0  0  0
  162.3200  208.6850  151.1090 C   0  0  0  0  0  3  0  0  0  0  0  0
  161.1560  210.6380  150.2650 C   0  0  1  0  0  3  0  0  0  0  0  0
  160.9730  209.2510  147.7520 O   0  0  0  0  0  0  0  0  0  0  0  0
  161.6330  208.7040  148.6750 C   0  0  0  0  0  0  0  0  0  0  0  0
  160.1060  210.9220  152.5100 C   0  0  0  0  0  2  0  0  0  0  0  0
  160.0630  212.1770  153.3760 C   0  0  2  0  0  3  0  0  0  0  0  0
  159.1140  210.8320  155.3530 C   0  0  0  0  0  3  0  0  0  0  0  0
  159.8860  211.8430  154.8240 C   0  0  0  0  0  0  0  0  0  0  0  0
  160.4690  212.5350  155.8630 C   0  0  0  0  0  3  0  0  0  0  0  0
  160.0260  211.8960  157.0070 C   0  0  0  0  0  3  0  0  0  0  0  0
  159.2090  210.8720  156.6950 N   0  0  0  0  0  2  0  0  0  0  0  0
  159.5320  214.2640  152.2230 O   0  0  0  0  0  0  0  0  0  0  0  0
  159.0170  213.1790  152.8900 C   0  0  0  0  0  0  0  0  0  0  0  0
  158.9360  213.2800  151.5230 O   0  0  0  0  0  0  0  0  0  0  0  0
  157.7190  213.4280  153.5980 C   0  0  0  0  0  0  0  0  0  0  0  0
  156.7210  212.8070  153.2700 O   0  0  0  0  0  0  0  0  0  0  0  0
  157.6330  214.4360  154.6960 C   0  0  0  0  0  2  0  0  0  0  0  0
  156.3480  214.2540  155.4770 C   0  0  0  0  0  2  0  0  0  0  0  0
  155.8960  212.1440  156.5950 N   0  0  0  0  0  1  0  0  0  0  0  0
  156.5970  213.4090  156.7120 C   0  0  0  0  0  2  0  0  0  0  0  0
  162.3370  207.0710  146.9180 C   0  0  0  0  0  2  0  0  0  0  0  0
  161.2710  206.0260  146.6270 C   0  0  0  0  0  2  0  0  0  0  0  0
  160.4610  206.4750  145.5840 O   0  0  0  0  0  1  0  0  0  0  0  0
  161.9520  206.3350  149.2270 N   0  0  0  0  0  2  0  0  0  0  0  0
  161.6380  205.3840  151.4490 C   0  0  0  0  0  0  0  0  0  0  0  0
  161.9110  206.4260  150.6510 C   0  0  0  0  0  3  0  0  0  0  0  0
  161.2040  202.8810  151.7570 C   0  0  0  0  0  3  0  0  0  0  0  0
  161.1570  201.8490  149.6770 C   0  0  0  0  0  0  0  0  0  0  0  0
  161.4170  203.9960  150.9440 C   0  0  0  0  0  0  0  0  0  0  0  0
  161.4440  203.4660  149.3400 S   0  0  0  0  0  0  0  0  0  0  0  0
  161.0640  201.6770  151.0490 C   0  0  0  0  0  3  0  0  0  0  0  0
  161.1220  200.7560  148.6680 C   0  0  0  0  0  2  0  0  0  0  0  0
  160.1280  201.0570  147.6560 N   0  0  0  0  0  2  0  0  0  0  0  0
  160.8400  201.2100  146.4010 C   0  0  0  0  0  1  0  0  0  0  0  0
  160.6870  204.8760  153.5770 O   0  0  0  0  0  0  0  0  0  0  0  0
  160.4320  206.2540  153.4300 C   0  0  2  0  0  3  0  0  0  0  0  0
  161.6880  205.6290  152.9300 C   0  0  2  0  0  3  0  0  0  0  0  0
  159.9460  206.6810  155.8460 C   0  0  0  0  0  3  0  0  0  0  0  0
  161.1840  208.3220  157.1230 C   0  0  0  0  0  3  0  0  0  0  0  0
  161.9560  208.6190  155.9950 C   0  0  0  0  0  3  0  0  0  0  0  0
  160.7060  206.9820  154.7090 C   0  0  0  0  0  0  0  0  0  0  0  0
  161.7220  207.9480  154.7930 C   0  0  0  0  0  3  0  0  0  0  0  0
  160.1830  207.3510  157.0490 C   0  0  0  0  0  3  0  0  0  0  0  0
  1 26  1  6  0  0  0
  1  9  1  0  0  0  0
  1 29  1  0  0  0  0
  3  7  1  0  0  0  0
  3  6  1  0  0  0  0
  4  2  1  0  0  0  0
  4 10  1  1  0  0  0
  6  2  2  0  0  0  0
  7  5  1  6  0  0  0
  7  4  1  0  0  0  0
  8  9  2  0  0  0  0
  9  3  1  0  0  0  0
 11 10  1  6  0  0  0
 11 13  1  0  0  0  0
 12 16  1  0  0  0  0
 13 12  2  0  0  0  0
 13 14  1  0  0  0  0
 14 15  2  0  0  0  0
 16 15  1  0  0  0  0
 17 18  1  0  0  0  0
 18 11  1  0  0  0  0
 18 20  1  0  0  0  0
 19 17  1  0  0  0  0
 19 18  1  0  0  0  0
 20 22  1  0  0  0  0
 21 20  2  0  0  0  0
 22 23  1  0  0  0  0
 23 25  1  0  0  0  0
 24 25  1  0  0  0  0
 27 26  1  0  0  0  0
 28 27  1  0  0  0  0
 29 31  1  0  0  0  0
 31 30  2  0  0  0  0
 33 36  2  0  0  0  0
 34 30  1  0  0  0  0
 34 32  2  0  0  0  0
 35 33  1  0  0  0  0
 35 34  1  0  0  0  0
 36 32  1  0  0  0  0
 37 33  1  0  0  0  0
 38 37  1  0  0  0  0
 39 38  1  0  0  0  0
 41 40  1  0  0  0  0
 41 46  1  1  0  0  0
 42 30  1  6  0  0  0
 42 41  1  0  0  0  0
 42 40  1  0  0  0  0
 43 48  1  0  0  0  0
 45 44  1  0  0  0  0
 46 47  1  0  0  0  0
 46 43  2  0  0  0  0
 47 45  2  0  0  0  0
 48 44  2  0  0  0  0
M  END
>  <MODEL>
4

>  <REMARK>
 VINA RESULT:      -4.5      2.848      9.897
  Name = 
  18 active torsions:
  status: ('A' for Active; 'I' for Inactive)
    1  A    between atoms: C_1  and  C_2
    2  A    between atoms: C_1  and  C_15
    3  A    between atoms: C_2  and  C_38
    4  A    between atoms: C_2  and  N_40
    5  A    between atoms: C_5  and  C_19
    6  A    between atoms: C_5  and  C_43
    7  A    between atoms: N_6  and  C_41
    8  A    between atoms: C_7  and  C_39
    9  A    between atoms: C_7  and  C_47
   10  A    between atoms: C_10  and  C_20
   11  A    between atoms: C_11  and  C_41
   12  A    between atoms: C_16  and  C_24
   13  A    between atoms: C_20  and  C_24
   14  A    between atoms: C_20  and  C_39
   15  A    between atoms: C_30  and  C_34
   16  A    between atoms: C_36  and  N_40
   17  A    between atoms: C_37  and  C_45
   18  A    between atoms: C_37  and  C_47
                            x       y       z     vdW  Elec       q    Type
                         _______ _______ _______ _____ _____    ______ ____

>  <TORSDO>
F 18

$$$$
=
 OpenBabel11072413003D

 48 53  0  0  1  0  0  0  0  0999 V2000
  161.4070  210.3290  150.2620 C   0  0  2  0  0  3  0  0  0  0  0  0
  160.9840  214.4340  148.5840 C   0  0  0  0  0  3  0  0  0  0  0  0
  161.7470  212.1920  148.5580 N   0  0  0  0  0  0  0  0  0  0  0  0
  161.8500  214.2280  147.3470 C   0  0  1  0  0  3  0  0  0  0  0  0
  163.8920  212.8520  147.6020 C   0  0  0  0  0  1  0  0  0  0  0  0
  160.8570  213.0870  149.2680 C   0  0  0  0  0  3  0  0  0  0  0  0
  162.3830  212.8050  147.4050 C   0  0  1  0  0  3  0  0  0  0  0  0
  162.6200  210.0550  148.2160 O   0  0  0  0  0  0  0  0  0  0  0  0
  161.9410  210.8240  148.9470 C   0  0  0  0  0  0  0  0  0  0  0  0
  161.0100  214.4270  146.0980 C   0  0  0  0  0  2  0  0  0  0  0  0
  161.1230  213.2030  145.1960 C   0  0  2  0  0  3  0  0  0  0  0  0
  161.7530  214.3340  142.9720 C   0  0  0  0  0  3  0  0  0  0  0  0
  162.0040  213.4680  144.0150 C   0  0  2  0  0  3  0  0  0  0  0  0
  163.2110  212.8470  143.7850 C   0  0  0  0  0  3  0  0  0  0  0  0
  163.6620  213.3800  142.5900 C   0  0  0  0  0  3  0  0  0  0  0  0
  162.7810  214.2740  142.1040 N   0  0  0  0  0  0  0  0  0  0  0  0
  159.4720  211.4030  145.2460 O   0  0  0  0  0  0  0  0  0  0  0  0
  159.7560  212.6630  144.7780 C   0  0  0  0  0  0  0  0  0  0  0  0
  158.8900  212.4700  145.8260 O   0  0  0  0  0  0  0  0  0  0  0  0
  159.0820  213.0270  143.4900 C   0  0  0  0  0  0  0  0  0  0  0  0
  158.3390  213.9950  143.4460 O   0  0  0  0  0  0  0  0  0  0  0  0
  159.3030  212.2110  142.2580 C   0  0  0  0  0  2  0  0  0  0  0  0
  158.8620  212.9810  141.0310 C   0  0  0  0  0  2  0  0  0  0  0  0
  159.3710  213.3880  138.6900 N   0  0  0  0  0  1  0  0  0  0  0  0
  159.9060  212.8720  139.9370 C   0  0  0  0  0  2  0  0  0  0  0  0
  161.5950  211.3750  151.3600 C   0  0  0  0  0  2  0  0  0  0  0  0
  160.7620  211.0790  152.5980 C   0  0  0  0  0  2  0  0  0  0  0  0
  159.4110  211.2280  152.2870 O   0  0  0  0  0  1  0  0  0  0  0  0
  162.0060  209.0620  150.6530 N   0  0  0  0  0  2  0  0  0  0  0  0
  161.8040  206.6740  150.2090 C   0  0  0  0  0  0  0  0  0  0  0  0
  162.0080  207.9300  149.7840 C   0  0  0  0  0  3  0  0  0  0  0  0
  161.0790  205.0610  152.0580 C   0  0  0  0  0  3  0  0  0  0  0  0
  160.9760  206.2040  154.0770 C   0  0  0  0  0  0  0  0  0  0  0  0
  161.4810  206.3260  151.6250 C   0  0  0  0  0  0  0  0  0  0  0  0
  161.4590  207.3590  152.9620 S   0  0  0  0  0  0  0  0  0  0  0  0
  160.7910  204.9930  153.4300 C   0  0  0  0  0  3  0  0  0  0  0  0
  160.6850  206.4680  155.5120 C   0  0  0  0  0  2  0  0  0  0  0  0
  160.7770  207.8910  155.7770 N   0  0  0  0  0  2  0  0  0  0  0  0
  159.4560  208.4460  155.5470 C   0  0  0  0  0  1  0  0  0  0  0  0
  160.6720  205.7780  148.3110 O   0  0  0  0  0  0  0  0  0  0  0  0
  160.5590  204.7500  149.2680 C   0  0  2  0  0  3  0  0  0  0  0  0
  161.7800  205.5960  149.1620 C   0  0  2  0  0  3  0  0  0  0  0  0
  160.8480  202.2730  149.4540 C   0  0  0  0  0  3  0  0  0  0  0  0
  161.2960  200.8960  147.5150 C   0  0  0  0  0  3  0  0  0  0  0  0
  161.2520  202.0300  146.6970 C   0  0  0  0  0  3  0  0  0  0  0  0
  160.8160  203.4150  148.6430 C   0  0  0  0  0  0  0  0  0  0  0  0
  161.0080  203.2850  147.2580 C   0  0  0  0  0  3  0  0  0  0  0  0
  161.0900  201.0170  148.8910 C   0  0  0  0  0  3  0  0  0  0  0  0
  1 29  1  0  0  0  0
  1 26  1  1  0  0  0
  2  6  2  0  0  0  0
  3  9  1  0  0  0  0
  3  6  1  0  0  0  0
  4 10  1  6  0  0  0
  4  7  1  0  0  0  0
  4  2  1  0  0  0  0
  7  5  1  1  0  0  0
  7  3  1  0  0  0  0
  8  9  2  0  0  0  0
  9  1  1  0  0  0  0
 11 10  1  6  0  0  0
 12 13  1  0  0  0  0
 13 11  1  6  0  0  0
 14 13  1  0  0  0  0
 15 14  2  0  0  0  0
 16 15  1  0  0  0  0
 16 12  2  0  0  0  0
 17 19  1  0  0  0  0
 18 11  1  0  0  0  0
 18 17  1  0  0  0  0
 18 19  1  0  0  0  0
 20 18  1  0  0  0  0
 21 20  2  0  0  0  0
 22 20  1  0  0  0  0
 23 22  1  0  0  0  0
 24 25  1  0  0  0  0
 25 23  1  0  0  0  0
 26 27  1  0  0  0  0
 28 27  1  0  0  0  0
 30 34  1  0  0  0  0
 31 30  2  0  0  0  0
 31 29  1  0  0  0  0
 32 36  1  0  0  0  0
 33 37  1  0  0  0  0
 34 32  2  0  0  0  0
 34 35  1  0  0  0  0
 35 33  1  0  0  0  0
 36 33  2  0  0  0  0
 37 38  1  0  0  0  0
 39 38  1  0  0  0  0
 40 42  1  0  0  0  0
 40 41  1  0  0  0  0
 41 46  1  6  0  0  0
 42 41  1  0  0  0  0
 42 30  1  1  0  0  0
 44 48  2  0  0  0  0
 45 47  2  0  0  0  0
 45 44  1  0  0  0  0
 46 43  2  0  0  0  0
 47 46  1  0  0  0  0
 48 43  1  0  0  0  0
M  END
>  <MODEL>
5

>  <REMARK>
 VINA RESULT:      -4.3      3.842      9.940
  Name = 
  18 active torsions:
  status: ('A' for Active; 'I' for Inactive)
    1  A    between atoms: C_1  and  C_2
    2  A    between atoms: C_1  and  C_15
    3  A    between atoms: C_2  and  C_38
    4  A    between atoms: C_2  and  N_40
    5  A    between atoms: C_5  and  C_19
    6  A    between atoms: C_5  and  C_43
    7  A    between atoms: N_6  and  C_41
    8  A    between atoms: C_7  and  C_39
    9  A    between atoms: C_7  and  C_47
   10  A    between atoms: C_10  and  C_20
   11  A    between atoms: C_11  and  C_41
   12  A    between atoms: C_16  and  C_24
   13  A    between atoms: C_20  and  C_24
   14  A    between atoms: C_20  and  C_39
   15  A    between atoms: C_30  and  C_34
   16  A    between atoms: C_36  and  N_40
   17  A    between atoms: C_37  and  C_45
   18  A    between atoms: C_37  and  C_47
                            x       y       z     vdW  Elec       q    Type
                         _______ _______ _______ _____ _____    ______ ____

>  <TORSDO>
F 18

$$$$
=
 OpenBabel11072413003D

 48 53  0  0  1  0  0  0  0  0999 V2000
  161.5400  209.1110  152.0050 C   0  0  2  0  0  3  0  0  0  0  0  0
  159.9160  205.8380  149.4580 C   0  0  0  0  0  3  0  0  0  0  0  0
  161.5050  207.4960  150.0370 N   0  0  0  0  0  0  0  0  0  0  0  0
  160.9860  205.8870  148.3740 C   0  0  1  0  0  3  0  0  0  0  0  0
  161.8230  208.1170  147.6990 C   0  0  0  0  0  1  0  0  0  0  0  0
  160.3420  206.8010  150.5480 C   0  0  0  0  0  3  0  0  0  0  0  0
  161.9430  207.0120  148.7390 C   0  0  1  0  0  3  0  0  0  0  0  0
  163.2560  209.0090  150.3380 O   0  0  0  0  0  0  0  0  0  0  0  0
  162.1720  208.5340  150.7700 C   0  0  0  0  0  0  0  0  0  0  0  0
  161.7230  204.5610  148.3250 C   0  0  0  0  0  2  0  0  0  0  0  0
  160.7820  203.4280  148.7220 C   0  0  2  0  0  3  0  0  0  0  0  0
  160.0290  202.3170  150.9170 C   0  0  0  0  0  3  0  0  0  0  0  0
  160.8800  203.1150  150.1820 C   0  0  0  0  0  0  0  0  0  0  0  0
  161.8480  203.6130  151.0260 C   0  0  0  0  0  3  0  0  0  0  0  0
  161.5470  203.0780  152.2660 C   0  0  0  0  0  3  0  0  0  0  0  0
  160.4510  202.2990  152.1950 N   0  0  0  0  0  2  0  0  0  0  0  0
  161.7990  201.2300  148.4040 O   0  0  0  0  0  0  0  0  0  0  0  0
  160.9750  202.1840  147.8570 C   0  0  0  0  0  0  0  0  0  0  0  0
  160.4670  201.0360  148.4120 O   0  0  0  0  0  0  0  0  0  0  0  0
  160.9370  202.2050  146.3590 C   0  0  0  0  0  0  0  0  0  0  0  0
  160.2490  201.3950  145.7580 O   0  0  0  0  0  0  0  0  0  0  0  0
  161.7410  203.2030  145.5910 C   0  0  0  0  0  2  0  0  0  0  0  0
  160.8270  204.1720  144.8710 C   0  0  0  0  0  2  0  0  0  0  0  0
  161.4850  205.7080  143.1070 N   0  0  0  0  0  1  0  0  0  0  0  0
  161.5730  205.4480  144.5320 C   0  0  0  0  0  2  0  0  0  0  0  0
  160.5560  208.1230  152.6330 C   0  0  0  0  0  2  0  0  0  0  0  0
  161.0520  207.5670  153.9580 C   0  0  0  0  0  2  0  0  0  0  0  0
  161.7940  206.4100  153.7210 O   0  0  0  0  0  1  0  0  0  0  0  0
  160.8880  210.3850  151.7410 N   0  0  0  0  0  2  0  0  0  0  0  0
  159.5440  212.2550  152.5400 C   0  0  0  0  0  0  0  0  0  0  0  0
  160.1600  211.0820  152.7520 C   0  0  0  0  0  3  0  0  0  0  0  0
  158.3260  213.4430  150.6280 C   0  0  0  0  0  3  0  0  0  0  0  0
  159.8380  213.9110  148.9290 C   0  0  0  0  0  0  0  0  0  0  0  0
  159.4870  212.9260  151.2070 C   0  0  0  0  0  0  0  0  0  0  0  0
  160.7520  213.1440  150.1080 S   0  0  0  0  0  0  0  0  0  0  0  0
  158.5200  213.9890  149.3500 C   0  0  0  0  0  3  0  0  0  0  0  0
  160.3440  214.3380  147.5960 C   0  0  0  0  0  2  0  0  0  0  0  0
  161.7890  214.4530  147.6350 N   0  0  0  0  0  2  0  0  0  0  0  0
  162.3220  213.1390  147.3310 C   0  0  0  0  0  1  0  0  0  0  0  0
  159.1470  212.2000  154.8910 O   0  0  0  0  0  0  0  0  0  0  0  0
  157.9060  211.8130  154.3460 C   0  0  2  0  0  3  0  0  0  0  0  0
  158.7700  212.8350  153.6900 C   0  0  2  0  0  3  0  0  0  0  0  0
  156.3700  212.0070  156.3100 C   0  0  0  0  0  3  0  0  0  0  0  0
  154.6740  213.7290  156.4330 C   0  0  0  0  0  3  0  0  0  0  0  0
  155.0860  214.2260  155.1930 C   0  0  0  0  0  3  0  0  0  0  0  0
  156.7800  212.4910  155.0610 C   0  0  0  0  0  0  0  0  0  0  0  0
  156.1390  213.6130  154.5110 C   0  0  0  0  0  3  0  0  0  0  0  0
  155.3190  212.6230  156.9930 C   0  0  0  0  0  3  0  0  0  0  0  0
  1 26  1  6  0  0  0
  2  6  2  0  0  0  0
  3  6  1  0  0  0  0
  3  9  1  0  0  0  0
  4 10  1  1  0  0  0
  4  7  1  0  0  0  0
  4  2  1  0  0  0  0
  7  5  1  6  0  0  0
  7  3  1  0  0  0  0
  8  9  2  0  0  0  0
  9  1  1  0  0  0  0
 11 10  1  6  0  0  0
 11 13  1  0  0  0  0
 12 16  1  0  0  0  0
 13 12  2  0  0  0  0
 13 14  1  0  0  0  0
 14 15  2  0  0  0  0
 16 15  1  0  0  0  0
 17 19  1  0  0  0  0
 18 17  1  0  0  0  0
 18 19  1  0  0  0  0
 18 11  1  0  0  0  0
 20 18  1  0  0  0  0
 21 20  2  0  0  0  0
 22 20  1  0  0  0  0
 23 22  1  0  0  0  0
 24 25  1  0  0  0  0
 25 23  1  0  0  0  0
 26 27  1  0  0  0  0
 28 27  1  0  0  0  0
 29  1  1  0  0  0  0
 29 31  1  0  0  0  0
 30 31  2  0  0  0  0
 32 34  2  0  0  0  0
 33 36  2  0  0  0  0
 33 35  1  0  0  0  0
 34 30  1  0  0  0  0
 35 34  1  0  0  0  0
 36 32  1  0  0  0  0
 37 38  1  0  0  0  0
 37 33  1  0  0  0  0
 39 38  1  0  0  0  0
 41 40  1  0  0  0  0
 41 46  1  1  0  0  0
 42 30  1  6  0  0  0
 42 41  1  0  0  0  0
 42 40  1  0  0  0  0
 43 48  1  0  0  0  0
 44 48  2  0  0  0  0
 45 44  1  0  0  0  0
 46 43  2  0  0  0  0
 47 46  1  0  0  0  0
 47 45  2  0  0  0  0
M  END
>  <MODEL>
6

>  <REMARK>
 VINA RESULT:      -4.1      1.637      3.573
  Name = 
  18 active torsions:
  status: ('A' for Active; 'I' for Inactive)
    1  A    between atoms: C_1  and  C_2
    2  A    between atoms: C_1  and  C_15
    3  A    between atoms: C_2  and  C_38
    4  A    between atoms: C_2  and  N_40
    5  A    between atoms: C_5  and  C_19
    6  A    between atoms: C_5  and  C_43
    7  A    between atoms: N_6  and  C_41
    8  A    between atoms: C_7  and  C_39
    9  A    between atoms: C_7  and  C_47
   10  A    between atoms: C_10  and  C_20
   11  A    between atoms: C_11  and  C_41
   12  A    between atoms: C_16  and  C_24
   13  A    between atoms: C_20  and  C_24
   14  A    between atoms: C_20  and  C_39
   15  A    between atoms: C_30  and  C_34
   16  A    between atoms: C_36  and  N_40
   17  A    between atoms: C_37  and  C_45
   18  A    between atoms: C_37  and  C_47
                            x       y       z     vdW  Elec       q    Type
                         _______ _______ _______ _____ _____    ______ ____

>  <TORSDO>
F 18

$$$$
=
 OpenBabel11072413003D

 48 53  0  0  1  0  0  0  0  0999 V2000
  161.5040  207.0020  153.2540 C   0  0  2  0  0  3  0  0  0  0  0  0
  161.5760  203.0950  151.1150 C   0  0  0  0  0  3  0  0  0  0  0  0
  161.1140  205.4110  151.3040 N   0  0  0  0  0  0  0  0  0  0  0  0
  160.8820  203.5600  149.8400 C   0  0  1  0  0  3  0  0  0  0  0  0
  159.0180  205.1710  150.0780 C   0  0  0  0  0  1  0  0  0  0  0  0
  161.8000  204.3250  151.9730 C   0  0  0  0  0  3  0  0  0  0  0  0
  160.5320  205.0280  150.0290 C   0  0  1  0  0  3  0  0  0  0  0  0
  160.5640  207.6730  151.1560 O   0  0  0  0  0  0  0  0  0  0  0  0
  161.0560  206.7390  151.8430 C   0  0  0  0  0  0  0  0  0  0  0  0
  161.8200  203.3870  148.6590 C   0  0  0  0  0  2  0  0  0  0  0  0
  161.0190  203.0570  147.4040 C   0  0  2  0  0  3  0  0  0  0  0  0
  160.6870  201.0080  145.8840 C   0  0  0  0  0  3  0  0  0  0  0  0
  161.1300  201.6090  147.0420 C   0  0  2  0  0  3  0  0  0  0  0  0
  161.6850  200.6410  147.8510 C   0  0  0  0  0  3  0  0  0  0  0  0
  161.5640  199.4660  147.1310 C   0  0  0  0  0  3  0  0  0  0  0  0
  160.9620  199.6920  145.9470 N   0  0  0  0  0  0  0  0  0  0  0  0
  161.2140  203.3960  144.9920 O   0  0  0  0  0  0  0  0  0  0  0  0
  161.3800  203.9670  146.2310 C   0  0  0  0  0  0  0  0  0  0  0  0
  160.3120  204.2940  145.4310 O   0  0  0  0  0  0  0  0  0  0  0  0
  162.4340  205.0290  146.3020 C   0  0  0  0  0  0  0  0  0  0  0  0
  163.6100  204.7130  146.3850 O   0  0  0  0  0  0  0  0  0  0  0  0
  162.0590  206.4760  146.2820 C   0  0  0  0  0  2  0  0  0  0  0  0
  161.2640  206.8290  147.5210 C   0  0  0  0  0  2  0  0  0  0  0  0
  163.0870  207.4810  148.9900 N   0  0  0  0  0  1  0  0  0  0  0  0
  161.9280  207.9710  148.2670 C   0  0  0  0  0  2  0  0  0  0  0  0
  160.4350  206.5730  154.2590 C   0  0  0  0  0  2  0  0  0  0  0  0
  160.6940  207.1200  155.6540 C   0  0  0  0  0  2  0  0  0  0  0  0
  159.5500  206.9450  156.4340 O   0  0  0  0  0  1  0  0  0  0  0  0
  161.8710  208.3960  153.4600 N   0  0  0  0  0  2  0  0  0  0  0  0
  160.6060  210.4670  153.6820 C   0  0  0  0  0  0  0  0  0  0  0  0
  161.0310  209.2970  154.1810 C   0  0  0  0  0  3  0  0  0  0  0  0
  161.8630  210.3520  151.4560 C   0  0  0  0  0  3  0  0  0  0  0  0
  161.1110  212.0510  150.0620 C   0  0  0  0  0  0  0  0  0  0  0  0
  160.9020  210.9250  152.2910 C   0  0  0  0  0  0  0  0  0  0  0  0
  160.2180  212.2330  151.4690 S   0  0  0  0  0  0  0  0  0  0  0  0
  161.9850  210.9860  150.2090 C   0  0  0  0  0  3  0  0  0  0  0  0
  161.0520  212.9600  148.8860 C   0  0  0  0  0  2  0  0  0  0  0  0
  162.3430  212.9900  148.2250 N   0  0  0  0  0  2  0  0  0  0  0  0
  162.3320  214.1380  147.3380 C   0  0  0  0  0  1  0  0  0  0  0  0
  159.0950  210.4550  155.5280 O   0  0  0  0  0  0  0  0  0  0  0  0
  158.2710  210.8040  154.4390 C   0  0  2  0  0  3  0  0  0  0  0  0
  159.6800  211.2780  154.5430 C   0  0  2  0  0  3  0  0  0  0  0  0
  157.1680  212.9920  153.9400 C   0  0  0  0  0  3  0  0  0  0  0  0
  155.6040  214.0090  155.4820 C   0  0  0  0  0  3  0  0  0  0  0  0
  155.7590  212.9270  156.3550 C   0  0  0  0  0  3  0  0  0  0  0  0
  157.3380  211.9120  154.8160 C   0  0  0  0  0  0  0  0  0  0  0  0
  156.6190  211.8800  156.0210 C   0  0  0  0  0  3  0  0  0  0  0  0
  156.3040  214.0390  154.2740 C   0  0  0  0  0  3  0  0  0  0  0  0
  1 29  1  0  0  0  0
  1 26  1  1  0  0  0
  2  6  2  0  0  0  0
  3  9  1  0  0  0  0
  3  6  1  0  0  0  0
  4 10  1  6  0  0  0
  4  7  1  0  0  0  0
  4  2  1  0  0  0  0
  7  5  1  1  0  0  0
  7  3  1  0  0  0  0
  8  9  2  0  0  0  0
  9  1  1  0  0  0  0
 11 10  1  1  0  0  0
 12 16  2  0  0  0  0
 12 13  1  0  0  0  0
 13 11  1  1  0  0  0
 13 14  1  0  0  0  0
 15 14  2  0  0  0  0
 16 15  1  0  0  0  0
 17 19  1  0  0  0  0
 17 18  1  0  0  0  0
 18 20  1  0  0  0  0
 18 11  1  0  0  0  0
 19 18  1  0  0  0  0
 20 21  2  0  0  0  0
 22 20  1  0  0  0  0
 22 23  1  0  0  0  0
 23 25  1  0  0  0  0
 25 24  1  0  0  0  0
 26 27  1  0  0  0  0
 27 28  1  0  0  0  0
 29 31  1  0  0  0  0
 30 31  2  0  0  0  0
 32 34  2  0  0  0  0
 33 36  2  0  0  0  0
 33 35  1  0  0  0  0
 34 30  1  0  0  0  0
 35 34  1  0  0  0  0
 36 32  1  0  0  0  0
 37 33  1  0  0  0  0
 38 37  1  0  0  0  0
 39 38  1  0  0  0  0
 41 42  1  0  0  0  0
 41 46  1  1  0  0  0
 41 40  1  0  0  0  0
 42 30  1  6  0  0  0
 42 40  1  0  0  0  0
 43 48  2  0  0  0  0
 43 46  1  0  0  0  0
 44 45  2  0  0  0  0
 46 47  2  0  0  0  0
 47 45  1  0  0  0  0
 48 44  1  0  0  0  0
M  END
>  <MODEL>
7

>  <REMARK>
 VINA RESULT:      -4.0      2.204      3.952
  Name = 
  18 active torsions:
  status: ('A' for Active; 'I' for Inactive)
    1  A    between atoms: C_1  and  C_2
    2  A    between atoms: C_1  and  C_15
    3  A    between atoms: C_2  and  C_38
    4  A    between atoms: C_2  and  N_40
    5  A    between atoms: C_5  and  C_19
    6  A    between atoms: C_5  and  C_43
    7  A    between atoms: N_6  and  C_41
    8  A    between atoms: C_7  and  C_39
    9  A    between atoms: C_7  and  C_47
   10  A    between atoms: C_10  and  C_20
   11  A    between atoms: C_11  and  C_41
   12  A    between atoms: C_16  and  C_24
   13  A    between atoms: C_20  and  C_24
   14  A    between atoms: C_20  and  C_39
   15  A    between atoms: C_30  and  C_34
   16  A    between atoms: C_36  and  N_40
   17  A    between atoms: C_37  and  C_45
   18  A    between atoms: C_37  and  C_47
                            x       y       z     vdW  Elec       q    Type
                         _______ _______ _______ _____ _____    ______ ____

>  <TORSDO>
F 18

$$$$
=
 OpenBabel11072413003D

 48 53  0  0  1  0  0  0  0  0999 V2000
  161.7500  207.5580  152.8890 C   0  0  2  0  0  3  0  0  0  0  0  0
  160.0330  206.5030  148.9170 C   0  0  0  0  0  3  0  0  0  0  0  0
  161.6730  206.3990  150.6220 N   0  0  0  0  0  0  0  0  0  0  0  0
  161.1890  205.6370  148.4300 C   0  0  1  0  0  3  0  0  0  0  0  0
  163.4830  206.3810  148.9870 C   0  0  0  0  0  1  0  0  0  0  0  0
  160.3320  206.8780  150.3550 C   0  0  0  0  0  3  0  0  0  0  0  0
  162.2530  205.6580  149.5160 C   0  0  1  0  0  3  0  0  0  0  0  0
  163.4440  206.0600  152.1030 O   0  0  0  0  0  0  0  0  0  0  0  0
  162.3350  206.6130  151.8780 C   0  0  0  0  0  0  0  0  0  0  0  0
  160.7000  204.2190  148.1950 C   0  0  0  0  0  2  0  0  0  0  0  0
  161.5740  203.5340  147.1500 C   0  0  2  0  0  3  0  0  0  0  0  0
  160.6630  204.8410  145.1300 C   0  0  0  0  0  3  0  0  0  0  0  0
  161.6940  204.3580  145.9060 C   0  0  2  0  0  3  0  0  0  0  0  0
  162.8870  204.7370  145.3310 C   0  0  0  0  0  3  0  0  0  0  0  0
  162.5260  205.4620  144.2090 C   0  0  0  0  0  3  0  0  0  0  0  0
  161.1850  205.5210  144.0920 N   0  0  0  0  0  0  0  0  0  0  0  0
  159.9040  202.0280  146.1960 O   0  0  0  0  0  0  0  0  0  0  0  0
  161.1100  202.1110  146.8490 C   0  0  0  0  0  0  0  0  0  0  0  0
  161.0430  201.8190  145.5090 O   0  0  0  0  0  0  0  0  0  0  0  0
  161.4440  200.9320  147.7130 C   0  0  0  0  0  0  0  0  0  0  0  0
  161.4900  199.8150  147.2240 O   0  0  0  0  0  0  0  0  0  0  0  0
  161.7140  201.1110  149.1720 C   0  0  0  0  0  2  0  0  0  0  0  0
  160.4200  201.3570  149.9190 C   0  0  0  0  0  2  0  0  0  0  0  0
  160.7930  203.2050  151.4520 N   0  0  0  0  0  1  0  0  0  0  0  0
  160.7070  201.7590  151.3520 C   0  0  0  0  0  2  0  0  0  0  0  0
  160.6000  206.9030  153.6540 C   0  0  0  0  0  2  0  0  0  0  0  0
  160.4950  207.3990  155.0870 C   0  0  0  0  0  2  0  0  0  0  0  0
  161.7760  207.6400  155.5840 O   0  0  0  0  0  1  0  0  0  0  0  0
  161.3130  208.8070  152.2810 N   0  0  0  0  0  2  0  0  0  0  0  0
  160.5110  211.0870  152.5880 C   0  0  0  0  0  0  0  0  0  0  0  0
  160.6910  209.8390  153.0450 C   0  0  0  0  0  3  0  0  0  0  0  0
  161.7880  210.8570  150.3830 C   0  0  0  0  0  3  0  0  0  0  0  0
  161.2310  212.6260  148.9860 C   0  0  0  0  0  0  0  0  0  0  0  0
  160.8740  211.5190  151.2060 C   0  0  0  0  0  0  0  0  0  0  0  0
  160.3370  212.8910  150.3780 S   0  0  0  0  0  0  0  0  0  0  0  0
  161.9930  211.4790  149.1420 C   0  0  0  0  0  3  0  0  0  0  0  0
  161.2820  213.5410  147.8130 C   0  0  0  0  0  2  0  0  0  0  0  0
  162.0150  212.9100  146.7320 N   0  0  0  0  0  2  0  0  0  0  0  0
  161.0680  212.6930  145.6550 C   0  0  0  0  0  1  0  0  0  0  0  0
  160.3110  211.9620  154.7980 O   0  0  0  0  0  0  0  0  0  0  0  0
  159.0670  211.3350  154.5870 C   0  0  2  0  0  3  0  0  0  0  0  0
  159.7870  212.0450  153.4930 C   0  0  2  0  0  3  0  0  0  0  0  0
  156.6430  211.9440  154.6550 C   0  0  0  0  0  3  0  0  0  0  0  0
  155.8290  213.7730  156.0130 C   0  0  0  0  0  3  0  0  0  0  0  0
  157.1290  214.0180  156.4660 C   0  0  0  0  0  3  0  0  0  0  0  0
  157.9500  212.1920  155.0930 C   0  0  0  0  0  0  0  0  0  0  0  0
  158.1860  213.2270  156.0120 C   0  0  0  0  0  3  0  0  0  0  0  0
  155.5850  212.7350  155.1120 C   0  0  0  0  0  3  0  0  0  0  0  0
  1 26  1  6  0  0  0
  2  6  2  0  0  0  0
  3  9  1  0  0  0  0
  4 10  1  1  0  0  0
  4  2  1  0  0  0  0
  4  7  1  0  0  0  0
  6  3  1  0  0  0  0
  7  5  1  6  0  0  0
  7  3  1  0  0  0  0
  9  8  2  0  0  0  0
  9  1  1  0  0  0  0
 11 10  1  1  0  0  0
 12 13  1  0  0  0  0
 13 11  1  6  0  0  0
 14 13  1  0  0  0  0
 15 14  2  0  0  0  0
 16 15  1  0  0  0  0
 16 12  2  0  0  0  0
 17 18  1  0  0  0  0
 18 11  1  0  0  0  0
 18 20  1  0  0  0  0
 19 17  1  0  0  0  0
 19 18  1  0  0  0  0
 20 22  1  0  0  0  0
 21 20  2  0  0  0  0
 22 23  1  0  0  0  0
 23 25  1  0  0  0  0
 25 24  1  0  0  0  0
 26 27  1  0  0  0  0
 27 28  1  0  0  0  0
 29  1  1  0  0  0  0
 29 31  1  0  0  0  0
 30 31  2  0  0  0  0
 32 34  2  0  0  0  0
 33 36  2  0  0  0  0
 33 35  1  0  0  0  0
 34 30  1  0  0  0  0
 35 34  1  0  0  0  0
 36 32  1  0  0  0  0
 37 33  1  0  0  0  0
 38 37  1  0  0  0  0
 39 38  1  0  0  0  0
 41 40  1  0  0  0  0
 41 46  1  1  0  0  0
 42 30  1  6  0  0  0
 42 41  1  0  0  0  0
 42 40  1  0  0  0  0
 43 46  2  0  0  0  0
 43 48  1  0  0  0  0
 44 45  1  0  0  0  0
 46 47  1  0  0  0  0
 47 45  2  0  0  0  0
 48 44  2  0  0  0  0
M  END
>  <MODEL>
8

>  <REMARK>
 VINA RESULT:      -3.9      1.846      2.526
  Name = 
  18 active torsions:
  status: ('A' for Active; 'I' for Inactive)
    1  A    between atoms: C_1  and  C_2
    2  A    between atoms: C_1  and  C_15
    3  A    between atoms: C_2  and  C_38
    4  A    between atoms: C_2  and  N_40
    5  A    between atoms: C_5  and  C_19
    6  A    between atoms: C_5  and  C_43
    7  A    between atoms: N_6  and  C_41
    8  A    between atoms: C_7  and  C_39
    9  A    between atoms: C_7  and  C_47
   10  A    between atoms: C_10  and  C_20
   11  A    between atoms: C_11  and  C_41
   12  A    between atoms: C_16  and  C_24
   13  A    between atoms: C_20  and  C_24
   14  A    between atoms: C_20  and  C_39
   15  A    between atoms: C_30  and  C_34
   16  A    between atoms: C_36  and  N_40
   17  A    between atoms: C_37  and  C_45
   18  A    between atoms: C_37  and  C_47
                            x       y       z     vdW  Elec       q    Type
                         _______ _______ _______ _____ _____    ______ ____

>  <TORSDO>
F 18

$$$$
=
 OpenBabel11072413003D

 48 53  0  0  1  0  0  0  0  0999 V2000
  162.5670  210.7050  149.2370 C   0  0  2  0  0  3  0  0  0  0  0  0
  159.2480  212.2660  146.7090 C   0  0  0  0  0  3  0  0  0  0  0  0
  161.1450  212.4920  148.1080 N   0  0  0  0  0  0  0  0  0  0  0  0
  159.5070  213.7490  146.9430 C   0  0  1  0  0  3  0  0  0  0  0  0
  160.1890  214.4410  149.2200 C   0  0  0  0  0  1  0  0  0  0  0  0
  160.3760  211.5050  147.3790 C   0  0  0  0  0  3  0  0  0  0  0  0
  160.6810  213.8530  147.9050 C   0  0  1  0  0  3  0  0  0  0  0  0
  162.9910  213.0540  149.4210 O   0  0  0  0  0  0  0  0  0  0  0  0
  162.2780  212.1450  148.9190 C   0  0  0  0  0  0  0  0  0  0  0  0
  159.8440  214.4220  145.6240 C   0  0  0  0  0  2  0  0  0  0  0  0
  160.3660  213.3890  144.6320 C   0  0  2  0  0  3  0  0  0  0  0  0
  162.1510  214.2240  142.9790 C   0  0  0  0  0  3  0  0  0  0  0  0
  161.7630  213.7010  144.1930 C   0  0  2  0  0  3  0  0  0  0  0  0
  162.8900  213.4800  144.9530 C   0  0  0  0  0  3  0  0  0  0  0  0
  163.9420  213.8970  144.1570 C   0  0  0  0  0  3  0  0  0  0  0  0
  163.4920  214.3440  142.9690 N   0  0  0  0  0  0  0  0  0  0  0  0
  158.1000  213.0570  143.7820 O   0  0  0  0  0  0  0  0  0  0  0  0
  159.4240  213.1980  143.4450 C   0  0  0  0  0  0  0  0  0  0  0  0
  158.5310  214.2270  143.2720 O   0  0  0  0  0  0  0  0  0  0  0  0
  159.8290  212.5220  142.1690 C   0  0  0  0  0  0  0  0  0  0  0  0
  160.3700  211.4290  142.2070 O   0  0  0  0  0  0  0  0  0  0  0  0
  159.5830  213.1780  140.8500 C   0  0  0  0  0  2  0  0  0  0  0  0
  158.7200  212.2930  139.9760 C   0  0  0  0  0  2  0  0  0  0  0  0
  158.3400  211.6400  137.6660 N   0  0  0  0  0  1  0  0  0  0  0  0
  158.8610  212.6920  138.5190 C   0  0  0  0  0  2  0  0  0  0  0  0
  162.3020  209.8100  148.0260 C   0  0  0  0  0  2  0  0  0  0  0  0
  162.5540  208.3400  148.3200 C   0  0  0  0  0  2  0  0  0  0  0  0
  161.5330  207.5770  147.7520 O   0  0  0  0  0  1  0  0  0  0  0  0
  161.8130  210.2390  150.3920 N   0  0  0  0  0  2  0  0  0  0  0  0
  161.1180  208.3690  151.7920 C   0  0  0  0  0  0  0  0  0  0  0  0
  161.5790  208.8510  150.6280 C   0  0  0  0  0  3  0  0  0  0  0  0
  160.6380  208.7970  154.2680 C   0  0  0  0  0  3  0  0  0  0  0  0
  159.9780  211.0060  154.5510 C   0  0  0  0  0  0  0  0  0  0  0  0
  160.7290  209.2340  152.9450 C   0  0  0  0  0  0  0  0  0  0  0  0
  160.2610  210.8570  152.9050 S   0  0  0  0  0  0  0  0  0  0  0  0
  160.2120  209.7870  155.1680 C   0  0  0  0  0  3  0  0  0  0  0  0
  159.4510  212.2240  155.2230 C   0  0  0  0  0  2  0  0  0  0  0  0
  158.0030  212.1630  155.2830 N   0  0  0  0  0  2  0  0  0  0  0  0
  157.5360  213.5150  155.5190 C   0  0  0  0  0  1  0  0  0  0  0  0
  161.9020  206.2630  152.5910 O   0  0  0  0  0  0  0  0  0  0  0  0
  161.9480  206.1140  151.1910 C   0  0  2  0  0  3  0  0  0  0  0  0
  160.8690  206.8890  151.8640 C   0  0  2  0  0  3  0  0  0  0  0  0
  161.3610  203.7440  151.7350 C   0  0  0  0  0  3  0  0  0  0  0  0
  160.4560  202.2430  150.0660 C   0  0  0  0  0  3  0  0  0  0  0  0
  160.5050  203.2670  149.1150 C   0  0  0  0  0  3  0  0  0  0  0  0
  161.4250  204.7710  150.7840 C   0  0  0  0  0  0  0  0  0  0  0  0
  160.9830  204.5290  149.4740 C   0  0  0  0  0  3  0  0  0  0  0  0
  160.8800  202.4820  151.3750 C   0  0  0  0  0  3  0  0  0  0  0  0
  1 26  1  6  0  0  0
  1 29  1  0  0  0  0
  2  4  1  0  0  0  0
  2  6  2  0  0  0  0
  3  9  1  0  0  0  0
  4 10  1  6  0  0  0
  4  7  1  0  0  0  0
  6  3  1  0  0  0  0
  7  3  1  0  0  0  0
  7  5  1  1  0  0  0
  9  1  1  0  0  0  0
  9  8  2  0  0  0  0
 11 10  1  1  0  0  0
 12 13  1  0  0  0  0
 13 11  1  6  0  0  0
 13 14  1  0  0  0  0
 15 14  2  0  0  0  0
 16 12  2  0  0  0  0
 16 15  1  0  0  0  0
 18 17  1  0  0  0  0
 18 11  1  0  0  0  0
 19 18  1  0  0  0  0
 19 17  1  0  0  0  0
 20 21  2  0  0  0  0
 20 18  1  0  0  0  0
 22 20  1  0  0  0  0
 23 22  1  0  0  0  0
 24 25  1  0  0  0  0
 25 23  1  0  0  0  0
 26 27  1  0  0  0  0
 28 27  1  0  0  0  0
 29 31  1  0  0  0  0
 30 34  1  0  0  0  0
 31 30  2  0  0  0  0
 32 36  1  0  0  0  0
 33 36  2  0  0  0  0
 33 37  1  0  0  0  0
 34 32  2  0  0  0  0
 35 34  1  0  0  0  0
 35 33  1  0  0  0  0
 37 38  1  0  0  0  0
 38 39  1  0  0  0  0
 41 46  1  1  0  0  0
 41 42  1  0  0  0  0
 41 40  1  0  0  0  0
 42 30  1  6  0  0  0
 42 40  1  0  0  0  0
 44 48  2  0  0  0  0
 45 47  2  0  0  0  0
 45 44  1  0  0  0  0
 46 43  2  0  0  0  0
 47 46  1  0  0  0  0
 48 43  1  0  0  0  0
M  END
>  <MODEL>
9

>  <REMARK>
 VINA RESULT:      -3.8      4.071      9.449
  Name = 
  18 active torsions:
  status: ('A' for Active; 'I' for Inactive)
    1  A    between atoms: C_1  and  C_2
    2  A    between atoms: C_1  and  C_15
    3  A    between atoms: C_2  and  C_38
    4  A    between atoms: C_2  and  N_40
    5  A    between atoms: C_5  and  C_19
    6  A    between atoms: C_5  and  C_43
    7  A    between atoms: N_6  and  C_41
    8  A    between atoms: C_7  and  C_39
    9  A    between atoms: C_7  and  C_47
   10  A    between atoms: C_10  and  C_20
   11  A    between atoms: C_11  and  C_41
   12  A    between atoms: C_16  and  C_24
   13  A    between atoms: C_20  and  C_24
   14  A    between atoms: C_20  and  C_39
   15  A    between atoms: C_30  and  C_34
   16  A    between atoms: C_36  and  N_40
   17  A    between atoms: C_37  and  C_45
   18  A    between atoms: C_37  and  C_47
                            x       y       z     vdW  Elec       q    Type
                         _______ _______ _______ _____ _____    ______ ____

>  <TORSDO>
F 18

$$$$
