=
 OpenBabel11072413503D

 29 34  0  0  1  0  0  0  0  0999 V2000
  161.1080  202.0430  147.8240 C   0  0  0  0  0  0  0  0  0  0  0  0
  161.5430  204.8780  144.4700 N   0  0  0  0  0  0  0  0  0  0  0  0
  160.8670  207.2050  153.2560 C   0  0  0  0  0  2  0  0  0  0  0  0
  161.2090  204.5570  147.9850 C   0  0  2  0  0  3  0  0  0  0  0  0
  162.2050  206.7770  148.5140 C   0  0  1  0  0  3  0  0  0  0  0  0
  161.9110  206.8650  150.9510 C   0  0  2  0  0  3  0  0  0  0  0  0
  160.9100  202.8310  145.4430 C   0  0  0  0  0  2  0  0  0  0  0  0
  161.2320  204.9100  146.6780 C   0  0  0  0  0  0  0  0  0  0  0  0
  161.6930  206.1350  144.9530 C   0  0  0  0  0  3  0  0  0  0  0  0
  162.1640  208.9940  149.7030 C   0  0  0  0  0  3  0  0  0  0  0  0
  162.1820  207.6540  149.6990 C   0  0  0  0  0  0  0  0  0  0  0  0
  161.4410  205.4940  150.4450 C   0  0  0  0  0  2  0  0  0  0  0  0
  161.4910  206.1780  146.2840 N   0  0  0  0  0  0  0  0  0  0  0  0
  161.8370  209.6720  150.9290 N   0  0  0  0  0  0  0  0  0  0  0  0
  160.3000  202.0490  146.5610 C   0  0  0  0  0  2  0  0  0  0  0  0
  161.1440  209.4800  153.2030 N   0  0  0  0  0  2  0  0  0  0  0  0
  160.7710  208.4360  154.0640 N   0  0  0  0  0  2  0  0  0  0  0  0
  161.2260  205.7110  148.9520 C   0  0  2  0  0  3  0  0  0  0  0  0
  160.8510  207.5970  151.7800 C   0  0  2  0  0  3  0  0  0  0  0  0
  161.4040  203.1760  148.4740 C   0  0  0  0  0  3  0  0  0  0  0  0
  161.2240  209.0230  151.8790 C   0  0  0  0  0  0  0  0  0  0  0  0
  161.7060  207.3250  147.1760 C   0  0  0  0  0  2  0  0  0  0  0  0
  161.2420  204.1170  145.5450 C   0  0  0  0  0  0  0  0  0  0  0  0
  162.8030  200.6450  148.7020 F   0  0  0  0  0  0  0  0  0  0  0  0
  161.0970  199.6770  147.6230 F   0  0  0  0  0  0  0  0  0  0  0  0
  161.4400  200.7190  148.4690 C   0  0  0  0  0  0  0  0  0  0  0  0
  160.6940  200.5300  149.7910 C   0  0  0  0  0  3  0  0  0  0  0  0
  161.3680  201.1330  150.8380 F   0  0  0  0  0  0  0  0  0  0  0  0
  159.4080  201.0330  149.7090 F   0  0  0  0  0  0  0  0  0  0  0  0
  1 26  1  0  0  0  0
  1 20  2  0  0  0  0
  2  9  2  0  0  0  0
  2 23  1  0  0  0  0
  3 17  1  0  0  0  0
  4 20  1  1  0  0  0
  4 18  1  0  0  0  0
  5 22  1  6  0  0  0
  5 18  1  0  0  0  0
  5 11  1  0  0  0  0
  6 12  1  6  0  0  0
  6 19  1  0  0  0  0
  7 23  1  0  0  0  0
  7 15  1  0  0  0  0
  8  4  1  0  0  0  0
  9 13  1  0  0  0  0
 10 14  1  0  0  0  0
 11 10  2  0  0  0  0
 11  6  1  0  0  0  0
 13  8  1  0  0  0  0
 13 22  1  0  0  0  0
 14 21  2  0  0  0  0
 15  1  1  0  0  0  0
 16 17  1  0  0  0  0
 18 12  1  1  0  0  0
 19 21  1  0  0  0  0
 19  3  1  1  0  0  0
 21 16  1  0  0  0  0
 23  8  2  0  0  0  0
 25 26  1  0  0  0  0
 26 24  1  0  0  0  0
 26 27  1  0  0  0  0
 27 28  1  0  0  0  0
 29 27  1  0  0  0  0
M  END
>  <MODEL>
1

>  <REMARK>
 VINA RESULT:      -9.8      0.000      0.000
  Name = 
  2 active torsions:
  status: ('A' for Active; 'I' for Inactive)
    1  A    between atoms: C_2  and  C_14
    2  A    between atoms: C_6  and  C_14
                            x       y       z     vdW  Elec       q    Type
                         _______ _______ _______ _____ _____    ______ ____

>  <TORSDO>
F 2

$$$$
=
 OpenBabel11072413503D

 29 34  0  0  1  0  0  0  0  0999 V2000
  161.0330  204.3010  146.1570 C   0  0  0  0  0  0  0  0  0  0  0  0
  160.7810  200.9240  148.9880 N   0  0  0  0  0  0  0  0  0  0  0  0
  162.0200  209.6470  151.3210 C   0  0  0  0  0  2  0  0  0  0  0  0
  161.2070  204.4290  148.6700 C   0  0  2  0  0  3  0  0  0  0  0  0
  160.4720  204.9610  150.9890 C   0  0  1  0  0  3  0  0  0  0  0  0
  160.8630  207.3850  151.0710 C   0  0  2  0  0  3  0  0  0  0  0  0
  161.2270  201.9030  146.8950 C   0  0  0  0  0  2  0  0  0  0  0  0
  161.1740  203.1180  149.0090 C   0  0  0  0  0  0  0  0  0  0  0  0
  160.7840  201.3930  150.2580 C   0  0  0  0  0  3  0  0  0  0  0  0
  160.7930  206.1150  153.2010 C   0  0  0  0  0  3  0  0  0  0  0  0
  160.6320  206.1310  151.8710 C   0  0  0  0  0  0  0  0  0  0  0  0
  161.1650  206.8820  149.6530 C   0  0  0  0  0  2  0  0  0  0  0  0
  161.0370  202.7160  150.2930 N   0  0  0  0  0  0  0  0  0  0  0  0
  161.2340  207.3200  153.8540 N   0  0  0  0  0  0  0  0  0  0  0  0
  161.7910  203.0110  146.0640 C   0  0  0  0  0  2  0  0  0  0  0  0
  161.9850  209.5700  153.6130 N   0  0  0  0  0  2  0  0  0  0  0  0
  162.2750  210.4320  152.5450 N   0  0  0  0  0  2  0  0  0  0  0  0
  161.3480  205.3800  149.8290 C   0  0  2  0  0  3  0  0  0  0  0  0
  162.0240  208.1650  151.6940 C   0  0  2  0  0  3  0  0  0  0  0  0
  160.8840  204.9440  147.3220 C   0  0  0  0  0  3  0  0  0  0  0  0
  161.8090  208.2570  153.1530 C   0  0  0  0  0  0  0  0  0  0  0  0
  160.9770  203.5980  151.4660 C   0  0  0  0  0  2  0  0  0  0  0  0
  161.0380  201.9980  148.2100 C   0  0  0  0  0  0  0  0  0  0  0  0
  159.8180  206.0870  145.1920 F   0  0  0  0  0  0  0  0  0  0  0  0
  159.8020  204.1120  144.1370 F   0  0  0  0  0  0  0  0  0  0  0  0
  160.5860  204.9770  144.8840 C   0  0  0  0  0  0  0  0  0  0  0  0
  161.7750  205.4110  144.0250 C   0  0  0  0  0  3  0  0  0  0  0  0
  161.3670  206.2120  142.9720 F   0  0  0  0  0  0  0  0  0  0  0  0
  162.7160  206.0800  144.7860 F   0  0  0  0  0  0  0  0  0  0  0  0
  1 20  2  0  0  0  0
  2  9  2  0  0  0  0
  3 17  1  0  0  0  0
  4 20  1  1  0  0  0
  4  8  1  0  0  0  0
  4 18  1  0  0  0  0
  5 22  1  1  0  0  0
  5 11  1  0  0  0  0
  6 12  1  6  0  0  0
  6 19  1  0  0  0  0
  6 11  1  0  0  0  0
  7 23  1  0  0  0  0
  8 13  1  0  0  0  0
  9 13  1  0  0  0  0
 10 14  1  0  0  0  0
 11 10  2  0  0  0  0
 13 22  1  0  0  0  0
 15  1  1  0  0  0  0
 15  7  1  0  0  0  0
 17 16  1  0  0  0  0
 18 12  1  6  0  0  0
 18  5  1  0  0  0  0
 19  3  1  6  0  0  0
 19 21  1  0  0  0  0
 21 16  1  0  0  0  0
 21 14  2  0  0  0  0
 23  2  1  0  0  0  0
 23  8  2  0  0  0  0
 25 26  1  0  0  0  0
 26 24  1  0  0  0  0
 26  1  1  0  0  0  0
 27 29  1  0  0  0  0
 27 26  1  0  0  0  0
 28 27  1  0  0  0  0
M  END
>  <MODEL>
2

>  <REMARK>
 VINA RESULT:      -9.8      3.122      4.549
  Name = 
  2 active torsions:
  status: ('A' for Active; 'I' for Inactive)
    1  A    between atoms: C_2  and  C_14
    2  A    between atoms: C_6  and  C_14
                            x       y       z     vdW  Elec       q    Type
                         _______ _______ _______ _____ _____    ______ ____

>  <TORSDO>
F 2

$$$$
=
 OpenBabel11072413503D

 29 34  0  0  1  0  0  0  0  0999 V2000
  161.0290  208.3250  153.9150 C   0  0  0  0  0  0  0  0  0  0  0  0
  162.0830  210.8470  150.4500 N   0  0  0  0  0  0  0  0  0  0  0  0
  160.9650  201.8050  150.2120 C   0  0  0  0  0  2  0  0  0  0  0  0
  161.4290  207.5410  151.5510 C   0  0  2  0  0  3  0  0  0  0  0  0
  160.8270  206.6640  149.3000 C   0  0  1  0  0  3  0  0  0  0  0  0
  160.4990  204.2790  149.7880 C   0  0  2  0  0  3  0  0  0  0  0  0
  161.9940  210.3320  152.7450 C   0  0  0  0  0  2  0  0  0  0  0  0
  161.8170  208.6910  150.9490 C   0  0  0  0  0  0  0  0  0  0  0  0
  162.0860  210.0960  149.3240 C   0  0  0  0  0  3  0  0  0  0  0  0
  161.0340  204.9590  147.4620 C   0  0  0  0  0  3  0  0  0  0  0  0
  160.7330  205.3130  148.7190 C   0  0  0  0  0  0  0  0  0  0  0  0
  160.7790  205.0190  151.1020 C   0  0  0  0  0  2  0  0  0  0  0  0
  161.9440  208.7860  149.6060 N   0  0  0  0  0  0  0  0  0  0  0  0
  161.1720  203.5590  147.1580 N   0  0  0  0  0  0  0  0  0  0  0  0
  162.1160  209.3570  153.8710 C   0  0  0  0  0  2  0  0  0  0  0  0
  161.2030  201.3220  147.9830 N   0  0  0  0  0  2  0  0  0  0  0  0
  161.1110  200.7040  149.2400 N   0  0  0  0  0  2  0  0  0  0  0  0
  161.4110  206.3320  150.6550 C   0  0  2  0  0  3  0  0  0  0  0  0
  161.4420  203.0960  149.5490 C   0  0  2  0  0  3  0  0  0  0  0  0
  160.8260  207.4760  152.8990 C   0  0  0  0  0  3  0  0  0  0  0  0
  161.3690  202.7070  148.1250 C   0  0  0  0  0  0  0  0  0  0  0  0
  161.7570  207.6890  148.6480 C   0  0  0  0  0  2  0  0  0  0  0  0
  161.9290  209.9690  151.4650 C   0  0  0  0  0  0  0  0  0  0  0  0
  159.5370  206.9490  155.1320 F   0  0  0  0  0  0  0  0  0  0  0  0
  159.3790  209.1670  155.3990 F   0  0  0  0  0  0  0  0  0  0  0  0
  160.2690  208.1230  155.2030 C   0  0  0  0  0  0  0  0  0  0  0  0
  161.2060  208.0580  156.4100 C   0  0  0  0  0  3  0  0  0  0  0  0
  161.1960  209.2470  157.1180 F   0  0  0  0  0  0  0  0  0  0  0  0
  160.8620  207.0110  157.2460 F   0  0  0  0  0  0  0  0  0  0  0  0
  1 26  1  0  0  0  0
  2 23  1  0  0  0  0
  4 20  1  6  0  0  0
  5 22  1  6  0  0  0
  5 18  1  0  0  0  0
  6 12  1  1  0  0  0
  7 15  1  0  0  0  0
  8 23  2  0  0  0  0
  8  4  1  0  0  0  0
  9 13  1  0  0  0  0
  9  2  2  0  0  0  0
 10 11  2  0  0  0  0
 11  5  1  0  0  0  0
 11  6  1  0  0  0  0
 13  8  1  0  0  0  0
 14 10  1  0  0  0  0
 14 21  2  0  0  0  0
 15  1  1  0  0  0  0
 16 21  1  0  0  0  0
 16 17  1  0  0  0  0
 17  3  1  0  0  0  0
 18 12  1  1  0  0  0
 18  4  1  0  0  0  0
 19  6  1  0  0  0  0
 19  3  1  1  0  0  0
 20  1  2  0  0  0  0
 21 19  1  0  0  0  0
 22 13  1  0  0  0  0
 23  7  1  0  0  0  0
 24 26  1  0  0  0  0
 26 25  1  0  0  0  0
 26 27  1  0  0  0  0
 27 28  1  0  0  0  0
 27 29  1  0  0  0  0
M  END
>  <MODEL>
3

>  <REMARK>
 VINA RESULT:      -9.7      3.910      7.497
  Name = 
  2 active torsions:
  status: ('A' for Active; 'I' for Inactive)
    1  A    between atoms: C_2  and  C_14
    2  A    between atoms: C_6  and  C_14
                            x       y       z     vdW  Elec       q    Type
                         _______ _______ _______ _____ _____    ______ ____

>  <TORSDO>
F 2

$$$$
=
 OpenBabel11072413503D

 29 34  0  0  1  0  0  0  0  0999 V2000
  161.0450  203.7410  150.6660 C   0  0  0  0  0  0  0  0  0  0  0  0
  162.1130  206.7920  147.6610 N   0  0  0  0  0  0  0  0  0  0  0  0
  159.8630  208.5180  156.3230 C   0  0  0  0  0  2  0  0  0  0  0  0
  161.1390  206.2350  151.0240 C   0  0  2  0  0  3  0  0  0  0  0  0
  162.0430  208.3900  151.8850 C   0  0  1  0  0  3  0  0  0  0  0  0
  161.3080  208.3150  154.2280 C   0  0  2  0  0  3  0  0  0  0  0  0
  161.2940  204.6970  148.3520 C   0  0  0  0  0  2  0  0  0  0  0  0
  161.4040  206.6780  149.7720 C   0  0  0  0  0  0  0  0  0  0  0  0
  162.1840  208.0080  148.2530 C   0  0  0  0  0  3  0  0  0  0  0  0
  161.8050  210.5200  153.2030 C   0  0  0  0  0  3  0  0  0  0  0  0
  161.8110  209.1830  153.1060 C   0  0  0  0  0  0  0  0  0  0  0  0
  160.9260  206.9940  153.5470 C   0  0  0  0  0  2  0  0  0  0  0  0
  161.7420  207.9630  149.5240 N   0  0  0  0  0  0  0  0  0  0  0  0
  161.2660  211.1180  154.3960 N   0  0  0  0  0  0  0  0  0  0  0  0
  160.4820  203.8530  149.2810 C   0  0  0  0  0  2  0  0  0  0  0  0
  160.1660  210.7850  156.4860 N   0  0  0  0  0  2  0  0  0  0  0  0
  159.6330  209.6920  157.1860 N   0  0  0  0  0  2  0  0  0  0  0  0
  160.9890  207.3180  152.0590 C   0  0  2  0  0  3  0  0  0  0  0  0
  160.1210  209.0120  154.9010 C   0  0  2  0  0  3  0  0  0  0  0  0
  161.2280  204.8190  151.4390 C   0  0  0  0  0  3  0  0  0  0  0  0
  160.4830  210.4190  155.1690 C   0  0  0  0  0  0  0  0  0  0  0  0
  161.8020  209.0400  150.5210 C   0  0  0  0  0  2  0  0  0  0  0  0
  161.6140  205.9650  148.6050 C   0  0  0  0  0  0  0  0  0  0  0  0
  160.4610  202.2410  152.4000 F   0  0  0  0  0  0  0  0  0  0  0  0
  162.5650  202.1960  151.6350 F   0  0  0  0  0  0  0  0  0  0  0  0
  161.2410  202.3690  151.2640 C   0  0  0  0  0  0  0  0  0  0  0  0
  160.8720  201.2620  150.2740 C   0  0  0  0  0  3  0  0  0  0  0  0
  159.5970  201.4460  149.7690 F   0  0  0  0  0  0  0  0  0  0  0  0
  161.7840  201.2020  149.2370 F   0  0  0  0  0  0  0  0  0  0  0  0
  1 26  1  0  0  0  0
  1 20  2  0  0  0  0
  2  9  2  0  0  0  0
  2 23  1  0  0  0  0
  3 17  1  0  0  0  0
  4 20  1  1  0  0  0
  4 18  1  0  0  0  0
  5 22  1  6  0  0  0
  5 18  1  0  0  0  0
  5 11  1  0  0  0  0
  6 12  1  6  0  0  0
  6 19  1  0  0  0  0
  7 23  1  0  0  0  0
  7 15  1  0  0  0  0
  8  4  1  0  0  0  0
  9 13  1  0  0  0  0
 10 14  1  0  0  0  0
 11 10  2  0  0  0  0
 11  6  1  0  0  0  0
 13  8  1  0  0  0  0
 13 22  1  0  0  0  0
 14 21  2  0  0  0  0
 15  1  1  0  0  0  0
 16 17  1  0  0  0  0
 18 12  1  1  0  0  0
 19 21  1  0  0  0  0
 19  3  1  1  0  0  0
 21 16  1  0  0  0  0
 23  8  2  0  0  0  0
 26 25  1  0  0  0  0
 26 24  1  0  0  0  0
 27 26  1  0  0  0  0
 28 27  1  0  0  0  0
 29 27  1  0  0  0  0
M  END
>  <MODEL>
4

>  <REMARK>
 VINA RESULT:      -9.6      1.966      3.554
  Name = 
  2 active torsions:
  status: ('A' for Active; 'I' for Inactive)
    1  A    between atoms: C_2  and  C_14
    2  A    between atoms: C_6  and  C_14
                            x       y       z     vdW  Elec       q    Type
                         _______ _______ _______ _____ _____    ______ ____

>  <TORSDO>
F 2

$$$$
=
 OpenBabel11072413503D

 29 34  0  0  1  0  0  0  0  0999 V2000
  160.8170  202.6060  149.4000 C   0  0  0  0  0  0  0  0  0  0  0  0
  162.0620  204.7220  145.7320 N   0  0  0  0  0  0  0  0  0  0  0  0
  160.3180  208.6940  153.7470 C   0  0  0  0  0  2  0  0  0  0  0  0
  161.1660  205.0900  149.1420 C   0  0  2  0  0  3  0  0  0  0  0  0
  162.3060  207.2830  149.4440 C   0  0  1  0  0  3  0  0  0  0  0  0
  161.6570  207.8480  151.7450 C   0  0  2  0  0  3  0  0  0  0  0  0
  161.0700  202.9490  146.9200 C   0  0  0  0  0  2  0  0  0  0  0  0
  161.4250  205.1900  147.8170 C   0  0  0  0  0  0  0  0  0  0  0  0
  162.2720  206.0300  146.0100 C   0  0  0  0  0  3  0  0  0  0  0  0
  162.3260  209.6790  150.2110 C   0  0  0  0  0  3  0  0  0  0  0  0
  162.1990  208.3650  150.4390 C   0  0  0  0  0  0  0  0  0  0  0  0
  161.1230  206.4490  151.4090 C   0  0  0  0  0  2  0  0  0  0  0  0
  161.8770  206.3370  147.2610 N   0  0  0  0  0  0  0  0  0  0  0  0
  161.8930  210.5980  151.2300 N   0  0  0  0  0  0  0  0  0  0  0  0
  160.2150  202.4400  148.0360 C   0  0  0  0  0  2  0  0  0  0  0  0
  160.8460  210.8900  153.3520 N   0  0  0  0  0  2  0  0  0  0  0  0
  160.2360  210.0590  154.3040 N   0  0  0  0  0  2  0  0  0  0  0  0
  161.1610  206.3990  149.8860 C   0  0  2  0  0  3  0  0  0  0  0  0
  160.5700  208.8040  152.2440 C   0  0  2  0  0  3  0  0  0  0  0  0
  161.1320  203.8130  149.8860 C   0  0  0  0  0  3  0  0  0  0  0  0
  161.0760  210.1890  152.1590 C   0  0  0  0  0  0  0  0  0  0  0  0
  162.0780  207.6090  147.9660 C   0  0  0  0  0  2  0  0  0  0  0  0
  161.5200  204.2010  146.8550 C   0  0  0  0  0  0  0  0  0  0  0  0
  161.8180  200.5000  149.8000 F   0  0  0  0  0  0  0  0  0  0  0  0
  159.6710  200.7700  150.3750 F   0  0  0  0  0  0  0  0  0  0  0  0
  160.9010  201.4040  150.3090 C   0  0  0  0  0  0  0  0  0  0  0  0
  161.3170  201.7950  151.7280 C   0  0  0  0  0  3  0  0  0  0  0  0
  162.6800  202.0200  151.8080 F   0  0  0  0  0  0  0  0  0  0  0  0
  160.6300  202.9180  152.1520 F   0  0  0  0  0  0  0  0  0  0  0  0
  1 20  2  0  0  0  0
  1 26  1  0  0  0  0
  2  9  2  0  0  0  0
  2 23  1  0  0  0  0
  3 17  1  0  0  0  0
  4 18  1  0  0  0  0
  4 20  1  1  0  0  0
  5 22  1  6  0  0  0
  5 18  1  0  0  0  0
  5 11  1  0  0  0  0
  6 12  1  6  0  0  0
  6 19  1  0  0  0  0
  7 15  1  0  0  0  0
  8  4  1  0  0  0  0
  9 13  1  0  0  0  0
 10 11  2  0  0  0  0
 10 14  1  0  0  0  0
 11  6  1  0  0  0  0
 13  8  1  0  0  0  0
 13 22  1  0  0  0  0
 14 21  2  0  0  0  0
 15  1  1  0  0  0  0
 16 17  1  0  0  0  0
 18 12  1  1  0  0  0
 19  3  1  1  0  0  0
 21 19  1  0  0  0  0
 21 16  1  0  0  0  0
 23  7  1  0  0  0  0
 23  8  2  0  0  0  0
 24 26  1  0  0  0  0
 26 25  1  0  0  0  0
 26 27  1  0  0  0  0
 27 28  1  0  0  0  0
 27 29  1  0  0  0  0
M  END
>  <MODEL>
5

>  <REMARK>
 VINA RESULT:      -9.3      1.265      1.633
  Name = 
  2 active torsions:
  status: ('A' for Active; 'I' for Inactive)
    1  A    between atoms: C_2  and  C_14
    2  A    between atoms: C_6  and  C_14
                            x       y       z     vdW  Elec       q    Type
                         _______ _______ _______ _____ _____    ______ ____

>  <TORSDO>
F 2

$$$$
=
 OpenBabel11072413503D

 29 34  0  0  1  0  0  0  0  0999 V2000
  160.8240  202.5650  148.9270 C   0  0  0  0  0  0  0  0  0  0  0  0
  162.1050  205.4150  145.8100 N   0  0  0  0  0  0  0  0  0  0  0  0
  160.3870  207.5630  154.4990 C   0  0  0  0  0  2  0  0  0  0  0  0
  161.2040  205.0410  149.2190 C   0  0  2  0  0  3  0  0  0  0  0  0
  162.3700  207.1010  149.9920 C   0  0  1  0  0  3  0  0  0  0  0  0
  161.7210  207.1580  152.3600 C   0  0  2  0  0  3  0  0  0  0  0  0
  161.0880  203.4380  146.5820 C   0  0  0  0  0  2  0  0  0  0  0  0
  161.4680  205.4250  147.9470 C   0  0  0  0  0  0  0  0  0  0  0  0
  162.3310  206.6280  146.3680 C   0  0  0  0  0  3  0  0  0  0  0  0
  162.4170  209.2710  151.2630 C   0  0  0  0  0  3  0  0  0  0  0  0
  162.2730  207.9410  151.1990 C   0  0  0  0  0  0  0  0  0  0  0  0
  161.1710  205.8730  151.7270 C   0  0  0  0  0  2  0  0  0  0  0  0
  161.9350  206.6590  147.6550 N   0  0  0  0  0  0  0  0  0  0  0  0
  161.9920  209.9510  152.4580 N   0  0  0  0  0  0  0  0  0  0  0  0
  160.2250  202.7090  147.5610 C   0  0  0  0  0  2  0  0  0  0  0  0
  160.9430  209.7860  154.5930 N   0  0  0  0  0  2  0  0  0  0  0  0
  160.3200  208.7740  155.3400 N   0  0  0  0  0  2  0  0  0  0  0  0
  161.2130  206.1560  150.2300 C   0  0  2  0  0  3  0  0  0  0  0  0
  160.6440  207.9950  153.0570 C   0  0  2  0  0  3  0  0  0  0  0  0
  161.1530  203.6330  149.6660 C   0  0  0  0  0  3  0  0  0  0  0  0
  161.1670  209.3590  153.2760 C   0  0  0  0  0  0  0  0  0  0  0  0
  162.1500  207.7450  148.6210 C   0  0  0  0  0  2  0  0  0  0  0  0
  161.5550  204.6680  146.7920 C   0  0  0  0  0  0  0  0  0  0  0  0
  159.6110  200.7480  149.8350 F   0  0  0  0  0  0  0  0  0  0  0  0
  161.5960  201.2460  150.7440 F   0  0  0  0  0  0  0  0  0  0  0  0
  160.8920  201.1930  149.5520 C   0  0  0  0  0  0  0  0  0  0  0  0
  161.5810  200.1840  148.6320 C   0  0  0  0  0  3  0  0  0  0  0  0
  160.8650  200.0010  147.4620 F   0  0  0  0  0  0  0  0  0  0  0  0
  162.8700  200.5870  148.3350 F   0  0  0  0  0  0  0  0  0  0  0  0
  1 26  1  0  0  0  0
  1 20  2  0  0  0  0
  2  9  2  0  0  0  0
  2 23  1  0  0  0  0
  3 17  1  0  0  0  0
  4 20  1  1  0  0  0
  4 18  1  0  0  0  0
  5 22  1  6  0  0  0
  5 18  1  0  0  0  0
  5 11  1  0  0  0  0
  6 12  1  6  0  0  0
  6 19  1  0  0  0  0
  7 23  1  0  0  0  0
  7 15  1  0  0  0  0
  8  4  1  0  0  0  0
  9 13  1  0  0  0  0
 10 14  1  0  0  0  0
 11 10  2  0  0  0  0
 11  6  1  0  0  0  0
 13  8  1  0  0  0  0
 13 22  1  0  0  0  0
 14 21  2  0  0  0  0
 15  1  1  0  0  0  0
 16 17  1  0  0  0  0
 18 12  1  1  0  0  0
 19 21  1  0  0  0  0
 19  3  1  1  0  0  0
 21 16  1  0  0  0  0
 23  8  2  0  0  0  0
 26 24  1  0  0  0  0
 26 25  1  0  0  0  0
 27 26  1  0  0  0  0
 28 27  1  0  0  0  0
 29 27  1  0  0  0  0
M  END
>  <MODEL>
6

>  <REMARK>
 VINA RESULT:      -8.7      1.067      1.876
  Name = 
  2 active torsions:
  status: ('A' for Active; 'I' for Inactive)
    1  A    between atoms: C_2  and  C_14
    2  A    between atoms: C_6  and  C_14
                            x       y       z     vdW  Elec       q    Type
                         _______ _______ _______ _____ _____    ______ ____

>  <TORSDO>
F 2

$$$$
=
 OpenBabel11072413503D

 29 34  0  0  1  0  0  0  0  0999 V2000
  161.5820  210.2470  150.4680 C   0  0  0  0  0  0  0  0  0  0  0  0
  161.2410  209.2280  154.7490 N   0  0  0  0  0  0  0  0  0  0  0  0
  160.8740  203.2440  147.8850 C   0  0  0  0  0  2  0  0  0  0  0  0
  161.2520  207.9450  151.4440 C   0  0  2  0  0  3  0  0  0  0  0  0
  161.8820  205.6270  152.1000 C   0  0  1  0  0  3  0  0  0  0  0  0
  161.7730  204.4710  149.9350 C   0  0  2  0  0  3  0  0  0  0  0  0
  161.0580  210.6640  152.8940 C   0  0  0  0  0  2  0  0  0  0  0  0
  161.1070  208.2290  152.7610 C   0  0  0  0  0  0  0  0  0  0  0  0
  161.2060  207.8820  154.8950 C   0  0  0  0  0  3  0  0  0  0  0  0
  161.5470  203.1350  152.0130 C   0  0  0  0  0  3  0  0  0  0  0  0
  161.8000  204.3150  151.4320 C   0  0  0  0  0  0  0  0  0  0  0  0
  161.5130  205.9670  149.7110 C   0  0  0  0  0  2  0  0  0  0  0  0
  161.1070  207.2610  153.7050 N   0  0  0  0  0  0  0  0  0  0  0  0
  161.2060  202.0160  151.1750 N   0  0  0  0  0  0  0  0  0  0  0  0
  160.6870  210.9160  151.4680 C   0  0  0  0  0  2  0  0  0  0  0  0
  160.7410  201.2300  148.9720 N   0  0  0  0  0  2  0  0  0  0  0  0
  160.6280  201.8010  147.6960 N   0  0  0  0  0  2  0  0  0  0  0  0
  161.1430  206.4840  151.0960 C   0  0  2  0  0  3  0  0  0  0  0  0
  160.6710  203.5750  149.3620 C   0  0  2  0  0  3  0  0  0  0  0  0
  161.7250  208.9160  150.4350 C   0  0  0  0  0  3  0  0  0  0  0  0
  160.7940  202.2280  149.9570 C   0  0  0  0  0  0  0  0  0  0  0  0
  161.1890  205.8160  153.4510 C   0  0  0  0  0  2  0  0  0  0  0  0
  161.1660  209.4440  153.4180 C   0  0  0  0  0  0  0  0  0  0  0  0
  162.4320  210.2800  148.2600 F   0  0  0  0  0  0  0  0  0  0  0  0
  163.4050  211.6040  149.7820 F   0  0  0  0  0  0  0  0  0  0  0  0
  162.1920  211.0780  149.3660 C   0  0  0  0  0  0  0  0  0  0  0  0
  161.2800  212.2380  148.9600 C   0  0  0  0  0  3  0  0  0  0  0  0
  161.9530  213.4460  149.0110 F   0  0  0  0  0  0  0  0  0  0  0  0
  160.7650  212.0390  147.6910 F   0  0  0  0  0  0  0  0  0  0  0  0
  1 15  1  0  0  0  0
  2  9  2  0  0  0  0
  4 20  1  1  0  0  0
  4  8  1  0  0  0  0
  5 22  1  1  0  0  0
  6 12  1  1  0  0  0
  6 11  1  0  0  0  0
  7 23  1  0  0  0  0
  8 23  2  0  0  0  0
  8 13  1  0  0  0  0
 11 10  2  0  0  0  0
 11  5  1  0  0  0  0
 13  9  1  0  0  0  0
 14 10  1  0  0  0  0
 15  7  1  0  0  0  0
 16 21  1  0  0  0  0
 17  3  1  0  0  0  0
 17 16  1  0  0  0  0
 18 12  1  6  0  0  0
 18  4  1  0  0  0  0
 18  5  1  0  0  0  0
 19  3  1  6  0  0  0
 19  6  1  0  0  0  0
 19 21  1  0  0  0  0
 20  1  2  0  0  0  0
 21 14  2  0  0  0  0
 22 13  1  0  0  0  0
 23  2  1  0  0  0  0
 24 26  1  0  0  0  0
 26 25  1  0  0  0  0
 26  1  1  0  0  0  0
 27 28  1  0  0  0  0
 27 26  1  0  0  0  0
 29 27  1  0  0  0  0
M  END
>  <MODEL>
7

>  <REMARK>
 VINA RESULT:      -8.1      4.713      8.347
  Name = 
  2 active torsions:
  status: ('A' for Active; 'I' for Inactive)
    1  A    between atoms: C_2  and  C_14
    2  A    between atoms: C_6  and  C_14
                            x       y       z     vdW  Elec       q    Type
                         _______ _______ _______ _____ _____    ______ ____

>  <TORSDO>
F 2

$$$$
=
 OpenBabel11072413503D

 29 34  0  0  1  0  0  0  0  0999 V2000
  160.8280  202.3790  146.7510 C   0  0  0  0  0  0  0  0  0  0  0  0
  160.9530  200.8550  150.8910 N   0  0  0  0  0  0  0  0  0  0  0  0
  161.9910  209.5820  148.4780 C   0  0  0  0  0  2  0  0  0  0  0  0
  161.1970  203.7380  148.8430 C   0  0  2  0  0  3  0  0  0  0  0  0
  160.6290  205.3530  150.6510 C   0  0  1  0  0  3  0  0  0  0  0  0
  160.9180  207.4970  149.4860 C   0  0  2  0  0  3  0  0  0  0  0  0
  161.1860  200.6640  148.5570 C   0  0  0  0  0  2  0  0  0  0  0  0
  161.2490  202.7690  149.7880 C   0  0  0  0  0  0  0  0  0  0  0  0
  161.0370  201.8930  151.7560 C   0  0  0  0  0  3  0  0  0  0  0  0
  161.0750  207.4530  151.9620 C   0  0  0  0  0  3  0  0  0  0  0  0
  160.8080  206.8070  150.8200 C   0  0  0  0  0  0  0  0  0  0  0  0
  161.1270  206.3550  148.4820 C   0  0  0  0  0  2  0  0  0  0  0  0
  161.2340  203.0580  151.1090 N   0  0  0  0  0  0  0  0  0  0  0  0
  161.5140  208.8220  151.8890 N   0  0  0  0  0  0  0  0  0  0  0  0
  161.6310  201.2110  147.2390 C   0  0  0  0  0  2  0  0  0  0  0  0
  162.1440  210.6540  150.4990 N   0  0  0  0  0  2  0  0  0  0  0  0
  162.3090  210.8710  149.1220 N   0  0  0  0  0  2  0  0  0  0  0  0
  161.3890  205.1390  149.3610 C   0  0  2  0  0  3  0  0  0  0  0  0
  162.0900  208.4810  149.5330 C   0  0  2  0  0  3  0  0  0  0  0  0
  160.7450  203.5160  147.4530 C   0  0  0  0  0  3  0  0  0  0  0  0
  161.9890  209.2860  150.7680 C   0  0  0  0  0  0  0  0  0  0  0  0
  161.2300  204.4060  151.6910 C   0  0  0  0  0  2  0  0  0  0  0  0
  161.0990  201.4000  149.6640 C   0  0  0  0  0  0  0  0  0  0  0  0
  158.8680  202.2820  145.4290 F   0  0  0  0  0  0  0  0  0  0  0  0
  160.6840  201.1940  144.6990 F   0  0  0  0  0  0  0  0  0  0  0  0
  160.2500  202.3340  145.3570 C   0  0  0  0  0  0  0  0  0  0  0  0
  160.6650  203.5530  144.5320 C   0  0  0  0  0  3  0  0  0  0  0  0
  159.7450  204.5790  144.6560 F   0  0  0  0  0  0  0  0  0  0  0  0
  161.9200  203.9980  144.9050 F   0  0  0  0  0  0  0  0  0  0  0  0
  1 15  1  0  0  0  0
  1 20  2  0  0  0  0
  2  9  2  0  0  0  0
  3 17  1  0  0  0  0
  4 20  1  1  0  0  0
  4 18  1  0  0  0  0
  4  8  1  0  0  0  0
  5 11  1  0  0  0  0
  5 22  1  1  0  0  0
  6 12  1  6  0  0  0
  6 19  1  0  0  0  0
  6 11  1  0  0  0  0
  7 23  1  0  0  0  0
  8 13  1  0  0  0  0
 11 10  2  0  0  0  0
 13 22  1  0  0  0  0
 13  9  1  0  0  0  0
 14 10  1  0  0  0  0
 15  7  1  0  0  0  0
 16 21  1  0  0  0  0
 17 16  1  0  0  0  0
 18 12  1  6  0  0  0
 18  5  1  0  0  0  0
 19  3  1  6  0  0  0
 19 21  1  0  0  0  0
 21 14  2  0  0  0  0
 23  8  2  0  0  0  0
 23  2  1  0  0  0  0
 25 26  1  0  0  0  0
 26 24  1  0  0  0  0
 26  1  1  0  0  0  0
 27 28  1  0  0  0  0
 27 29  1  0  0  0  0
 27 26  1  0  0  0  0
M  END
>  <MODEL>
8

>  <REMARK>
 VINA RESULT:      -7.8      2.661      4.315
  Name = 
  2 active torsions:
  status: ('A' for Active; 'I' for Inactive)
    1  A    between atoms: C_2  and  C_14
    2  A    between atoms: C_6  and  C_14
                            x       y       z     vdW  Elec       q    Type
                         _______ _______ _______ _____ _____    ______ ____

>  <TORSDO>
F 2

$$$$
=
 OpenBabel11072413503D

 29 34  0  0  1  0  0  0  0  0999 V2000
  161.1130  211.8800  150.1040 C   0  0  0  0  0  0  0  0  0  0  0  0
  160.3850  211.7260  154.4540 N   0  0  0  0  0  0  0  0  0  0  0  0
  161.0690  204.4660  148.9870 C   0  0  0  0  0  2  0  0  0  0  0  0
  160.8120  209.8050  151.5050 C   0  0  2  0  0  3  0  0  0  0  0  0
  161.4980  207.7220  152.6850 C   0  0  1  0  0  3  0  0  0  0  0  0
  161.6790  206.1470  150.8090 C   0  0  2  0  0  3  0  0  0  0  0  0
  160.3170  212.7380  152.3310 C   0  0  0  0  0  2  0  0  0  0  0  0
  160.5150  210.3380  152.7150 C   0  0  0  0  0  0  0  0  0  0  0  0
  160.4090  210.4390  154.8750 C   0  0  0  0  0  3  0  0  0  0  0  0
  161.3120  205.2460  153.0910 C   0  0  0  0  0  3  0  0  0  0  0  0
  161.5580  206.3000  152.3010 C   0  0  0  0  0  0  0  0  0  0  0  0
  161.3610  207.5420  150.2550 C   0  0  0  0  0  2  0  0  0  0  0  0
  160.4700  209.5830  153.8360 N   0  0  0  0  0  0  0  0  0  0  0  0
  161.1230  203.9580  152.4780 N   0  0  0  0  0  0  0  0  0  0  0  0
  160.0830  212.6680  150.8560 C   0  0  0  0  0  2  0  0  0  0  0  0
  160.9350  202.7090  150.4550 N   0  0  0  0  0  2  0  0  0  0  0  0
  160.9250  203.0000  149.0820 N   0  0  0  0  0  2  0  0  0  0  0  0
  160.8210  208.3000  151.4620 C   0  0  2  0  0  3  0  0  0  0  0  0
  160.6950  205.0730  150.3380 C   0  0  2  0  0  3  0  0  0  0  0  0
  161.3330  210.5840  150.3620 C   0  0  0  0  0  3  0  0  0  0  0  0
  160.8300  203.8870  151.2100 C   0  0  0  0  0  0  0  0  0  0  0  0
  160.6570  208.1280  153.8980 C   0  0  0  0  0  2  0  0  0  0  0  0
  160.4370  211.6620  153.1060 C   0  0  0  0  0  0  0  0  0  0  0  0
  163.1110  212.1090  148.8570 F   0  0  0  0  0  0  0  0  0  0  0  0
  161.7720  213.8950  149.0360 F   0  0  0  0  0  0  0  0  0  0  0  0
  161.7880  212.5150  148.9130 C   0  0  0  0  0  0  0  0  0  0  0  0
  161.0940  212.1410  147.6020 C   0  0  0  0  0  3  0  0  0  0  0  0
  159.8140  212.6640  147.5460 F   0  0  0  0  0  0  0  0  0  0  0  0
  161.8270  212.5770  146.5130 F   0  0  0  0  0  0  0  0  0  0  0  0
  1 20  2  0  0  0  0
  1 15  1  0  0  0  0
  2  9  2  0  0  0  0
  3 17  1  0  0  0  0
  4 20  1  1  0  0  0
  4  8  1  0  0  0  0
  5 22  1  1  0  0  0
  6 12  1  6  0  0  0
  6 11  1  0  0  0  0
  7 23  1  0  0  0  0
  8 23  2  0  0  0  0
  8 13  1  0  0  0  0
 11  5  1  0  0  0  0
 11 10  2  0  0  0  0
 13 22  1  0  0  0  0
 13  9  1  0  0  0  0
 14 10  1  0  0  0  0
 15  7  1  0  0  0  0
 16 21  1  0  0  0  0
 17 16  1  0  0  0  0
 18 12  1  6  0  0  0
 18  4  1  0  0  0  0
 18  5  1  0  0  0  0
 19  3  1  6  0  0  0
 19  6  1  0  0  0  0
 19 21  1  0  0  0  0
 21 14  2  0  0  0  0
 23  2  1  0  0  0  0
 24 26  1  0  0  0  0
 26 25  1  0  0  0  0
 26  1  1  0  0  0  0
 27 26  1  0  0  0  0
 28 27  1  0  0  0  0
 29 27  1  0  0  0  0
M  END
>  <MODEL>
9

>  <REMARK>
 VINA RESULT:      -7.6      5.165      8.768
  Name = 
  2 active torsions:
  status: ('A' for Active; 'I' for Inactive)
    1  A    between atoms: C_2  and  C_14
    2  A    between atoms: C_6  and  C_14
                            x       y       z     vdW  Elec       q    Type
                         _______ _______ _______ _____ _____    ______ ____

>  <TORSDO>
F 2

$$$$
