=
 OpenBabel11072413183D

 27 30  0  0  1  0  0  0  0  0999 V2000
  161.0000  202.8020  149.1970 C   0  0  0  0  0  2  0  0  0  0  0  0
  160.8040  204.3200  149.0440 C   0  0  1  0  0  3  0  0  0  0  0  0
  162.5310  204.1780  147.3790 O   0  0  0  0  0  1  0  0  0  0  0  0
  161.4680  208.8040  148.0880 C   0  0  0  0  0  3  0  0  0  0  0  0
  160.4230  204.3660  151.4770 N   0  0  0  0  0  0  0  0  0  0  0  0
  162.4090  209.3800  150.9420 C   0  0  0  0  0  3  0  0  0  0  0  0
  161.8580  209.9780  148.5800 C   0  0  0  0  0  3  0  0  0  0  0  0
  162.5790  210.1390  149.8530 C   0  0  0  0  0  3  0  0  0  0  0  0
  161.1250  207.4060  150.0980 C   0  0  0  0  0  0  0  0  0  0  0  0
  161.6350  202.4570  150.5330 C   0  0  0  0  0  2  0  0  0  0  0  0
  160.6900  202.9370  151.6200 C   0  0  0  0  0  2  0  0  0  0  0  0
  162.1930  206.5810  146.5710 O   0  0  0  0  0  1  0  0  0  0  0  0
  160.4300  205.0070  150.3420 C   0  0  0  0  0  0  0  0  0  0  0  0
  160.1330  206.4010  150.3490 N   0  0  0  0  0  2  0  0  0  0  0  0
  161.8080  207.5040  148.7500 C   0  0  1  0  0  3  0  0  0  0  0  0
  161.4520  208.2530  151.0960 C   0  0  0  0  0  0  0  0  0  0  0  0
  162.0040  205.0010  148.3820 C   0  0  1  0  0  3  0  0  0  0  0  0
  161.5440  206.3390  147.7880 C   0  0  2  0  0  3  0  0  0  0  0  0
  160.8830  208.0180  152.4720 C   0  0  2  0  0  3  0  0  0  0  0  0
  161.0060  207.0070  155.6440 C   0  0  0  0  0  2  0  0  0  0  0  0
  160.9000  206.3120  154.2850 C   0  0  0  0  0  2  0  0  0  0  0  0
  160.6820  209.3390  153.2400 C   0  0  2  0  0  3  0  0  0  0  0  0
  160.0560  209.1330  154.6300 C   0  0  1  0  0  3  0  0  0  0  0  0
  161.0850  208.5320  155.5760 C   0  0  0  0  0  2  0  0  0  0  0  0
  161.7370  206.9910  153.2140 C   0  0  0  0  0  2  0  0  0  0  0  0
  159.6060  210.4580  155.2200 C   0  0  0  0  0  1  0  0  0  0  0  0
  159.8740  210.1890  152.4760 O   0  0  0  0  0  1  0  0  0  0  0  0
  1 10  1  0  0  0  0
  2  1  1  1  0  0  0
  2 13  1  0  0  0  0
  4  7  2  0  0  0  0
  5 11  1  0  0  0  0
  6 16  1  0  0  0  0
  7  8  1  0  0  0  0
  8  6  2  0  0  0  0
  9 14  1  0  0  0  0
  9 16  2  0  0  0  0
 10 11  1  0  0  0  0
 13 14  1  0  0  0  0
 13  5  2  0  0  0  0
 15  4  1  6  0  0  0
 15  9  1  0  0  0  0
 17  3  1  6  0  0  0
 17  2  1  0  0  0  0
 18 12  1  6  0  0  0
 18 17  1  0  0  0  0
 18 15  1  0  0  0  0
 19 16  1  6  0  0  0
 19 25  1  0  0  0  0
 19 22  1  0  0  0  0
 21 20  1  0  0  0  0
 22 27  1  6  0  0  0
 22 23  1  0  0  0  0
 23 26  1  1  0  0  0
 23 24  1  0  0  0  0
 24 20  1  0  0  0  0
 25 21  1  0  0  0  0
M  END
>  <MODEL>
1

>  <REMARK>
 VINA RESULT:      -7.1      0.000      0.000
  Name = 
  1 active torsions:
  status: ('A' for Active; 'I' for Inactive)
    1  A    between atoms: C_2  and  C_23
                            x       y       z     vdW  Elec       q    Type
                         _______ _______ _______ _____ _____    ______ ____

>  <TORSDO>
F 1

$$$$
=
 OpenBabel11072413183D

 27 30  0  0  1  0  0  0  0  0999 V2000
  161.2250  208.3120  154.6460 C   0  0  0  0  0  2  0  0  0  0  0  0
  161.7360  208.1660  153.2040 C   0  0  1  0  0  3  0  0  0  0  0  0
  160.6050  210.2460  152.7970 O   0  0  0  0  0  1  0  0  0  0  0  0
  162.2410  208.5540  148.6150 C   0  0  0  0  0  3  0  0  0  0  0  0
  161.3590  205.7460  153.4740 N   0  0  0  0  0  0  0  0  0  0  0  0
  160.5990  206.0200  148.1160 C   0  0  0  0  0  3  0  0  0  0  0  0
  161.9450  208.0130  147.4360 C   0  0  0  0  0  3  0  0  0  0  0  0
  160.9140  206.9820  147.2390 C   0  0  0  0  0  3  0  0  0  0  0  0
  161.6890  206.7730  150.2380 C   0  0  0  0  0  0  0  0  0  0  0  0
  160.1600  207.2770  154.9650 C   0  0  0  0  0  2  0  0  0  0  0  0
  160.8010  205.9090  154.8140 C   0  0  0  0  0  2  0  0  0  0  0  0
  161.6130  210.5410  150.4660 O   0  0  0  0  0  1  0  0  0  0  0  0
  161.8180  206.7240  152.7440 C   0  0  0  0  0  0  0  0  0  0  0  0
  162.3530  206.4160  151.4590 N   0  0  0  0  0  2  0  0  0  0  0  0
  161.4800  208.2250  149.8620 C   0  0  1  0  0  3  0  0  0  0  0  0
  161.2370  205.7850  149.4380 C   0  0  0  0  0  0  0  0  0  0  0  0
  160.9440  209.0200  152.2120 C   0  0  1  0  0  3  0  0  0  0  0  0
  161.8030  209.2450  150.9610 C   0  0  2  0  0  3  0  0  0  0  0  0
  161.3050  204.3600  149.9230 C   0  0  2  0  0  3  0  0  0  0  0  0
  160.1500  201.6610  151.4980 C   0  0  0  0  0  2  0  0  0  0  0  0
  160.7650  202.9930  151.9330 C   0  0  0  0  0  2  0  0  0  0  0  0
  161.1440  203.3540  148.7660 C   0  0  2  0  0  3  0  0  0  0  0  0
  161.2590  201.8910  149.2260 C   0  0  1  0  0  3  0  0  0  0  0  0
  160.0050  201.4880  149.9860 C   0  0  0  0  0  2  0  0  0  0  0  0
  160.3120  204.1560  151.0660 C   0  0  0  0  0  2  0  0  0  0  0  0
  161.3930  200.9600  148.0320 C   0  0  0  0  0  1  0  0  0  0  0  0
  162.1130  203.6250  147.7930 O   0  0  0  0  0  1  0  0  0  0  0  0
  1 10  1  0  0  0  0
  2  1  1  1  0  0  0
  5 11  1  0  0  0  0
  6 16  1  0  0  0  0
  7  4  2  0  0  0  0
  8  7  1  0  0  0  0
  8  6  2  0  0  0  0
  9 14  1  0  0  0  0
 11 10  1  0  0  0  0
 13  2  1  0  0  0  0
 13  5  2  0  0  0  0
 14 13  1  0  0  0  0
 15  4  1  6  0  0  0
 15  9  1  0  0  0  0
 15 18  1  0  0  0  0
 16  9  2  0  0  0  0
 17  3  1  1  0  0  0
 17  2  1  0  0  0  0
 18 12  1  6  0  0  0
 18 17  1  0  0  0  0
 19 16  1  6  0  0  0
 19 25  1  0  0  0  0
 20 21  1  0  0  0  0
 22 27  1  6  0  0  0
 22 23  1  0  0  0  0
 22 19  1  0  0  0  0
 23 26  1  6  0  0  0
 23 24  1  0  0  0  0
 24 20  1  0  0  0  0
 25 21  1  0  0  0  0
M  END
>  <MODEL>
2

>  <REMARK>
 VINA RESULT:      -6.7      1.454      5.857
  Name = 
  1 active torsions:
  status: ('A' for Active; 'I' for Inactive)
    1  A    between atoms: C_2  and  C_23
                            x       y       z     vdW  Elec       q    Type
                         _______ _______ _______ _____ _____    ______ ____

>  <TORSDO>
F 1

$$$$
=
 OpenBabel11072413183D

 27 30  0  0  1  0  0  0  0  0999 V2000
  161.1470  204.8300  144.0730 C   0  0  0  0  0  2  0  0  0  0  0  0
  161.4920  203.9450  145.2810 C   0  0  1  0  0  3  0  0  0  0  0  0
  159.9390  202.3770  144.3320 O   0  0  0  0  0  1  0  0  0  0  0  0
  161.3340  200.7380  148.6210 C   0  0  0  0  0  3  0  0  0  0  0  0
  161.6250  206.0320  146.5830 N   0  0  0  0  0  0  0  0  0  0  0  0
  160.1620  202.7320  150.6240 C   0  0  0  0  0  3  0  0  0  0  0  0
  161.0030  200.4970  149.8870 C   0  0  0  0  0  3  0  0  0  0  0  0
  160.1730  201.3960  150.7060 C   0  0  0  0  0  3  0  0  0  0  0  0
  161.3430  203.2050  148.4700 C   0  0  0  0  0  0  0  0  0  0  0  0
  160.3500  206.0540  144.4910 C   0  0  0  0  0  2  0  0  0  0  0  0
  161.2180  206.8540  145.4450 C   0  0  0  0  0  2  0  0  0  0  0  0
  160.5720  200.5010  145.9500 O   0  0  0  0  0  1  0  0  0  0  0  0
  161.7910  204.7410  146.5360 C   0  0  0  0  0  0  0  0  0  0  0  0
  162.2110  204.0690  147.7220 N   0  0  0  0  0  2  0  0  0  0  0  0
  160.8130  201.9220  147.8660 C   0  0  1  0  0  3  0  0  0  0  0  0
  160.9930  203.5710  149.7220 C   0  0  0  0  0  0  0  0  0  0  0  0
  160.4330  202.8730  145.5440 C   0  0  1  0  0  3  0  0  0  0  0  0
  161.0690  201.7430  146.3640 C   0  0  2  0  0  3  0  0  0  0  0  0
  161.3940  204.9330  150.2260 C   0  0  2  0  0  3  0  0  0  0  0  0
  160.9360  208.1820  150.8000 C   0  0  0  0  0  2  0  0  0  0  0  0
  161.2670  207.3320  149.5720 C   0  0  0  0  0  2  0  0  0  0  0  0
  161.3990  204.9930  151.7660 C   0  0  2  0  0  3  0  0  0  0  0  0
  161.8530  206.3580  152.3100 C   0  0  1  0  0  3  0  0  0  0  0  0
  160.7560  207.3910  152.0950 C   0  0  0  0  0  2  0  0  0  0  0  0
  160.5290  206.0040  149.5650 C   0  0  0  0  0  2  0  0  0  0  0  0
  162.1260  206.2800  153.8030 C   0  0  0  0  0  1  0  0  0  0  0  0
  162.2350  203.9830  152.2570 O   0  0  0  0  0  1  0  0  0  0  0  0
  1 10  1  0  0  0  0
  2  1  1  6  0  0  0
  2 17  1  0  0  0  0
  2 13  1  0  0  0  0
  4  7  2  0  0  0  0
  6  8  2  0  0  0  0
  7  8  1  0  0  0  0
  9 16  2  0  0  0  0
 10 11  1  0  0  0  0
 11  5  1  0  0  0  0
 13  5  2  0  0  0  0
 13 14  1  0  0  0  0
 14  9  1  0  0  0  0
 15  9  1  0  0  0  0
 15  4  1  1  0  0  0
 16  6  1  0  0  0  0
 17  3  1  6  0  0  0
 17 18  1  0  0  0  0
 18 12  1  6  0  0  0
 18 15  1  0  0  0  0
 19 16  1  1  0  0  0
 19 22  1  0  0  0  0
 20 24  1  0  0  0  0
 21 20  1  0  0  0  0
 22 27  1  1  0  0  0
 22 23  1  0  0  0  0
 23 26  1  1  0  0  0
 24 23  1  0  0  0  0
 25 21  1  0  0  0  0
 25 19  1  0  0  0  0
M  END
>  <MODEL>
3

>  <REMARK>
 VINA RESULT:      -6.6      2.841      5.697
  Name = 
  1 active torsions:
  status: ('A' for Active; 'I' for Inactive)
    1  A    between atoms: C_2  and  C_23
                            x       y       z     vdW  Elec       q    Type
                         _______ _______ _______ _____ _____    ______ ____

>  <TORSDO>
F 1

$$$$
=
 OpenBabel11072413183D

 27 30  0  0  1  0  0  0  0  0999 V2000
  161.5400  209.8600  151.0990 C   0  0  0  0  0  2  0  0  0  0  0  0
  160.9930  208.4340  151.2750 C   0  0  1  0  0  3  0  0  0  0  0  0
  162.1820  208.4450  153.3630 O   0  0  0  0  0  1  0  0  0  0  0  0
  160.4050  204.0460  152.6420 C   0  0  0  0  0  3  0  0  0  0  0  0
  161.2980  208.1750  148.8440 N   0  0  0  0  0  0  0  0  0  0  0  0
  161.9540  202.9780  150.2280 C   0  0  0  0  0  3  0  0  0  0  0  0
  160.6580  202.7710  152.3550 C   0  0  0  0  0  3  0  0  0  0  0  0
  161.6520  202.3320  151.3620 C   0  0  0  0  0  3  0  0  0  0  0  0
  160.9340  205.2400  150.5430 C   0  0  0  0  0  0  0  0  0  0  0  0
  162.5770  209.9230  149.9910 C   0  0  0  0  0  2  0  0  0  0  0  0
  161.8900  209.5040  148.7040 C   0  0  0  0  0  2  0  0  0  0  0  0
  161.1350  206.2570  154.1730 O   0  0  0  0  0  1  0  0  0  0  0  0
  160.8560  207.6820  149.9670 C   0  0  0  0  0  0  0  0  0  0  0  0
  160.2850  206.3750  149.9530 N   0  0  0  0  0  2  0  0  0  0  0  0
  161.1810  205.1740  152.0350 C   0  0  1  0  0  3  0  0  0  0  0  0
  161.3370  204.2370  149.7350 C   0  0  0  0  0  0  0  0  0  0  0  0
  161.7910  207.6230  152.2990 C   0  0  1  0  0  3  0  0  0  0  0  0
  160.9140  206.4720  152.8080 C   0  0  2  0  0  3  0  0  0  0  0  0
  161.2340  204.4120  148.2410 C   0  0  2  0  0  3  0  0  0  0  0  0
  162.4040  205.1590  145.2140 C   0  0  0  0  0  2  0  0  0  0  0  0
  161.9690  205.9640  146.4400 C   0  0  0  0  0  2  0  0  0  0  0  0
  161.1340  203.0570  147.5140 C   0  0  2  0  0  3  0  0  0  0  0  0
  160.9780  203.2070  145.9910 C   0  0  1  0  0  3  0  0  0  0  0  0
  162.3000  203.6420  145.3760 C   0  0  0  0  0  2  0  0  0  0  0  0
  162.3720  205.3020  147.7470 C   0  0  0  0  0  2  0  0  0  0  0  0
  160.5890  201.8820  145.3560 C   0  0  0  0  0  1  0  0  0  0  0  0
  160.0510  202.3400  148.0350 O   0  0  0  0  0  1  0  0  0  0  0  0
  2  1  1  6  0  0  0
  2 17  1  0  0  0  0
  5 13  2  0  0  0  0
  6  8  2  0  0  0  0
  7  4  2  0  0  0  0
  8  7  1  0  0  0  0
  9 15  1  0  0  0  0
 10  1  1  0  0  0  0
 11  5  1  0  0  0  0
 11 10  1  0  0  0  0
 13  2  1  0  0  0  0
 14 13  1  0  0  0  0
 14  9  1  0  0  0  0
 15  4  1  1  0  0  0
 15 18  1  0  0  0  0
 16  6  1  0  0  0  0
 16  9  2  0  0  0  0
 17 18  1  0  0  0  0
 17  3  1  1  0  0  0
 18 12  1  1  0  0  0
 19 16  1  1  0  0  0
 20 24  1  0  0  0  0
 20 21  1  0  0  0  0
 21 25  1  0  0  0  0
 22 27  1  1  0  0  0
 22 19  1  0  0  0  0
 23 26  1  6  0  0  0
 23 22  1  0  0  0  0
 24 23  1  0  0  0  0
 25 19  1  0  0  0  0
M  END
>  <MODEL>
4

>  <REMARK>
 VINA RESULT:      -6.4      2.137      7.305
  Name = 
  1 active torsions:
  status: ('A' for Active; 'I' for Inactive)
    1  A    between atoms: C_2  and  C_23
                            x       y       z     vdW  Elec       q    Type
                         _______ _______ _______ _____ _____    ______ ____

>  <TORSDO>
F 1

$$$$
=
 OpenBabel11072413183D

 27 30  0  0  1  0  0  0  0  0999 V2000
  162.5860  207.8340  149.3600 C   0  0  0  0  0  2  0  0  0  0  0  0
  162.4510  207.8340  150.8920 C   0  0  1  0  0  3  0  0  0  0  0  0
  161.6140  205.5970  150.6240 O   0  0  0  0  0  1  0  0  0  0  0  0
  161.1490  206.8600  155.2300 C   0  0  0  0  0  3  0  0  0  0  0  0
  161.8140  210.2050  150.6870 N   0  0  0  0  0  0  0  0  0  0  0  0
  159.0460  209.0830  155.2090 C   0  0  0  0  0  3  0  0  0  0  0  0
  160.3230  207.1890  156.2210 C   0  0  0  0  0  3  0  0  0  0  0  0
  159.1420  208.0510  156.0560 C   0  0  0  0  0  3  0  0  0  0  0  0
  160.9980  208.7750  153.6740 C   0  0  0  0  0  0  0  0  0  0  0  0
  161.5790  208.7700  148.7150 C   0  0  0  0  0  2  0  0  0  0  0  0
  161.8700  210.1690  149.2280 C   0  0  0  0  0  2  0  0  0  0  0  0
  161.6480  205.0960  153.1310 O   0  0  0  0  0  1  0  0  0  0  0  0
  162.1010  209.1950  151.4590 C   0  0  0  0  0  0  0  0  0  0  0  0
  162.0220  209.3790  152.8710 N   0  0  0  0  0  2  0  0  0  0  0  0
  160.9020  207.2700  153.8110 C   0  0  1  0  0  3  0  0  0  0  0  0
  160.1070  209.5790  154.2930 C   0  0  0  0  0  0  0  0  0  0  0  0
  161.4840  206.7590  151.3940 C   0  0  1  0  0  3  0  0  0  0  0  0
  161.8000  206.4620  152.8660 C   0  0  2  0  0  3  0  0  0  0  0  0
  160.1240  211.0560  153.9960 C   0  0  2  0  0  3  0  0  0  0  0  0
  158.9510  213.8650  152.6420 C   0  0  0  0  0  2  0  0  0  0  0  0
  159.7030  212.6380  152.1210 C   0  0  0  0  0  2  0  0  0  0  0  0
  159.7700  211.8920  155.2420 C   0  0  2  0  0  3  0  0  0  0  0  0
  159.8280  213.4070  154.9810 C   0  0  1  0  0  3  0  0  0  0  0  0
  158.6350  213.8320  154.1370 C   0  0  0  0  0  2  0  0  0  0  0  0
  159.2460  211.3480  152.7820 C   0  0  0  0  0  2  0  0  0  0  0  0
  159.7680  214.1820  156.2870 C   0  0  0  0  0  1  0  0  0  0  0  0
  160.6480  211.5540  156.2790 O   0  0  0  0  0  1  0  0  0  0  0  0
  2  1  1  6  0  0  0
  2 17  1  0  0  0  0
  2 13  1  0  0  0  0
  4  7  2  0  0  0  0
  5 13  2  0  0  0  0
  6  8  2  0  0  0  0
  8  7  1  0  0  0  0
  9 15  1  0  0  0  0
  9 16  2  0  0  0  0
 10 11  1  0  0  0  0
 10  1  1  0  0  0  0
 11  5  1  0  0  0  0
 13 14  1  0  0  0  0
 14  9  1  0  0  0  0
 15  4  1  1  0  0  0
 16  6  1  0  0  0  0
 17  3  1  6  0  0  0
 17 18  1  0  0  0  0
 18 12  1  6  0  0  0
 18 15  1  0  0  0  0
 19 16  1  1  0  0  0
 19 22  1  0  0  0  0
 20 24  1  0  0  0  0
 21 20  1  0  0  0  0
 21 25  1  0  0  0  0
 22 27  1  1  0  0  0
 23 22  1  0  0  0  0
 23 26  1  1  0  0  0
 24 23  1  0  0  0  0
 25 19  1  0  0  0  0
M  END
>  <MODEL>
5

>  <REMARK>
 VINA RESULT:      -5.9      2.713      5.536
  Name = 
  1 active torsions:
  status: ('A' for Active; 'I' for Inactive)
    1  A    between atoms: C_2  and  C_23
                            x       y       z     vdW  Elec       q    Type
                         _______ _______ _______ _____ _____    ______ ____

>  <TORSDO>
F 1

$$$$
=
 OpenBabel11072413183D

 27 30  0  0  1  0  0  0  0  0999 V2000
  161.9710  210.8470  147.6420 C   0  0  0  0  0  2  0  0  0  0  0  0
  162.2830  210.0000  148.8860 C   0  0  1  0  0  3  0  0  0  0  0  0
  161.5640  208.1320  147.5550 O   0  0  0  0  0  1  0  0  0  0  0  0
  162.3590  206.6000  152.0330 C   0  0  0  0  0  3  0  0  0  0  0  0
  161.4500  211.9030  150.2090 N   0  0  0  0  0  0  0  0  0  0  0  0
  160.1890  207.9620  153.7070 C   0  0  0  0  0  3  0  0  0  0  0  0
  161.8330  206.1580  153.1730 C   0  0  0  0  0  3  0  0  0  0  0  0
  160.5970  206.6890  153.7700 C   0  0  0  0  0  3  0  0  0  0  0  0
  161.6320  208.9610  151.9250 C   0  0  0  0  0  0  0  0  0  0  0  0
  160.7580  211.7330  147.8640 C   0  0  0  0  0  2  0  0  0  0  0  0
  161.0850  212.6650  149.0170 C   0  0  0  0  0  2  0  0  0  0  0  0
  162.3540  206.3920  149.2540 O   0  0  0  0  0  1  0  0  0  0  0  0
  162.0170  210.7300  150.1870 C   0  0  0  0  0  0  0  0  0  0  0  0
  162.3360  210.1090  151.4300 N   0  0  0  0  0  2  0  0  0  0  0  0
  161.6850  207.6390  151.1890 C   0  0  1  0  0  3  0  0  0  0  0  0
  160.9030  209.0900  153.0540 C   0  0  0  0  0  0  0  0  0  0  0  0
  161.5810  208.6400  148.8600 C   0  0  1  0  0  3  0  0  0  0  0  0
  162.3270  207.6820  149.7970 C   0  0  2  0  0  3  0  0  0  0  0  0
  160.7300  210.4580  153.6620 C   0  0  2  0  0  3  0  0  0  0  0  0
  158.9690  213.1020  154.6630 C   0  0  0  0  0  2  0  0  0  0  0  0
  159.4430  212.5600  153.3130 C   0  0  0  0  0  2  0  0  0  0  0  0
  160.9540  210.4370  155.1870 C   0  0  2  0  0  3  0  0  0  0  0  0
  160.8320  211.8290  155.8280 C   0  0  1  0  0  3  0  0  0  0  0  0
  159.3720  212.2530  155.8690 C   0  0  0  0  0  2  0  0  0  0  0  0
  159.3840  211.0430  153.2390 C   0  0  0  0  0  2  0  0  0  0  0  0
  161.3470  211.8120  157.2570 C   0  0  0  0  0  1  0  0  0  0  0  0
  162.2200  209.9000  155.4520 O   0  0  0  0  0  1  0  0  0  0  0  0
  1 10  1  0  0  0  0
  2  1  1  6  0  0  0
  2 13  1  0  0  0  0
  4  7  2  0  0  0  0
  6  8  2  0  0  0  0
  7  8  1  0  0  0  0
  9 16  2  0  0  0  0
 10 11  1  0  0  0  0
 11  5  1  0  0  0  0
 13  5  2  0  0  0  0
 13 14  1  0  0  0  0
 14  9  1  0  0  0  0
 15  9  1  0  0  0  0
 15  4  1  1  0  0  0
 16  6  1  0  0  0  0
 17  3  1  6  0  0  0
 17  2  1  0  0  0  0
 17 18  1  0  0  0  0
 18 12  1  6  0  0  0
 18 15  1  0  0  0  0
 19 16  1  1  0  0  0
 19 22  1  0  0  0  0
 20 24  1  0  0  0  0
 21 20  1  0  0  0  0
 22 27  1  6  0  0  0
 22 23  1  0  0  0  0
 23 24  1  0  0  0  0
 23 26  1  1  0  0  0
 25 21  1  0  0  0  0
 25 19  1  0  0  0  0
M  END
>  <MODEL>
6

>  <REMARK>
 VINA RESULT:      -5.1      2.733      5.251
  Name = 
  1 active torsions:
  status: ('A' for Active; 'I' for Inactive)
    1  A    between atoms: C_2  and  C_23
                            x       y       z     vdW  Elec       q    Type
                         _______ _______ _______ _____ _____    ______ ____

>  <TORSDO>
F 1

$$$$
=
 OpenBabel11072413183D

 27 30  0  0  1  0  0  0  0  0999 V2000
  160.6490  200.8420  150.6110 C   0  0  0  0  0  2  0  0  0  0  0  0
  160.4260  201.8010  149.4300 C   0  0  1  0  0  3  0  0  0  0  0  0
  161.6760  200.2000  148.1460 O   0  0  0  0  0  1  0  0  0  0  0  0
  160.8410  204.0460  145.3990 C   0  0  0  0  0  3  0  0  0  0  0  0
  160.6710  203.6300  151.0620 N   0  0  0  0  0  0  0  0  0  0  0  0
  162.4740  206.2860  146.6960 C   0  0  0  0  0  3  0  0  0  0  0  0
  161.3460  205.1190  144.7950 C   0  0  0  0  0  3  0  0  0  0  0  0
  162.3660  205.9970  145.3930 C   0  0  0  0  0  3  0  0  0  0  0  0
  161.0120  204.5850  147.8050 C   0  0  0  0  0  0  0  0  0  0  0  0
  161.6000  201.4360  151.6360 C   0  0  0  0  0  2  0  0  0  0  0  0
  160.9610  202.7100  152.1590 C   0  0  0  0  0  2  0  0  0  0  0  0
  161.1530  201.3240  145.9090 O   0  0  0  0  0  1  0  0  0  0  0  0
  160.3940  203.2590  149.8440 C   0  0  0  0  0  0  0  0  0  0  0  0
  160.1120  204.2670  148.8760 N   0  0  0  0  0  2  0  0  0  0  0  0
  161.3330  203.5690  146.7310 C   0  0  1  0  0  3  0  0  0  0  0  0
  161.5830  205.8080  147.7860 C   0  0  0  0  0  0  0  0  0  0  0  0
  161.4210  201.5700  148.2920 C   0  0  1  0  0  3  0  0  0  0  0  0
  160.8310  202.1440  146.9970 C   0  0  2  0  0  3  0  0  0  0  0  0
  161.3800  206.7310  148.9600 C   0  0  2  0  0  3  0  0  0  0  0  0
  161.9950  207.8740  152.0280 C   0  0  0  0  0  2  0  0  0  0  0  0
  161.2550  206.6680  151.4460 C   0  0  0  0  0  2  0  0  0  0  0  0
  161.9210  208.1460  148.6750 C   0  0  2  0  0  3  0  0  0  0  0  0
  161.6820  209.1220  149.8390 C   0  0  1  0  0  3  0  0  0  0  0  0
  162.6260  208.7990  150.9870 C   0  0  0  0  0  2  0  0  0  0  0  0
  161.9490  206.0900  150.2240 C   0  0  0  0  0  2  0  0  0  0  0  0
  161.9560  210.5530  149.4060 C   0  0  0  0  0  1  0  0  0  0  0  0
  161.3180  208.6360  147.5110 O   0  0  0  0  0  1  0  0  0  0  0  0
  1 10  1  0  0  0  0
  2 13  1  0  0  0  0
  2  1  1  1  0  0  0
  5 11  1  0  0  0  0
  6 16  1  0  0  0  0
  7  8  1  0  0  0  0
  7  4  2  0  0  0  0
  8  6  2  0  0  0  0
  9 14  1  0  0  0  0
 10 11  1  0  0  0  0
 13  5  2  0  0  0  0
 14 13  1  0  0  0  0
 15  4  1  6  0  0  0
 15 18  1  0  0  0  0
 15  9  1  0  0  0  0
 16  9  2  0  0  0  0
 17  3  1  6  0  0  0
 17  2  1  0  0  0  0
 18 12  1  6  0  0  0
 18 17  1  0  0  0  0
 19 16  1  6  0  0  0
 19 25  1  0  0  0  0
 21 20  1  0  0  0  0
 22 27  1  6  0  0  0
 22 19  1  0  0  0  0
 22 23  1  0  0  0  0
 23 26  1  6  0  0  0
 23 24  1  0  0  0  0
 24 20  1  0  0  0  0
 25 21  1  0  0  0  0
M  END
>  <MODEL>
7

>  <REMARK>
 VINA RESULT:      -4.6      2.374      4.194
  Name = 
  1 active torsions:
  status: ('A' for Active; 'I' for Inactive)
    1  A    between atoms: C_2  and  C_23
                            x       y       z     vdW  Elec       q    Type
                         _______ _______ _______ _____ _____    ______ ____

>  <TORSDO>
F 1

$$$$
