=
 OpenBabel11072411143D

 28 30  0  0  1  0  0  0  0  0999 V2000
  161.5040  205.6420  150.5220 N   0  0  0  0  0  0  0  0  0  0  0  0
  161.7220  208.0340  150.6140 C   0  0  0  0  0  0  0  0  0  0  0  0
  160.8350  206.9570  154.0040 C   0  0  0  0  0  3  0  0  0  0  0  0
  161.1410  206.7640  152.5730 C   0  0  0  0  0  0  0  0  0  0  0  0
  161.9890  209.3770  150.0200 C   0  0  0  0  0  1  0  0  0  0  0  0
  160.1540  209.9230  152.5930 N   0  0  0  0  0  1  0  0  0  0  0  0
  161.1960  205.5790  151.8460 C   0  0  0  0  0  0  0  0  0  0  0  0
  160.9510  208.4020  154.2500 N   0  0  0  0  0  0  0  0  0  0  0  0
  161.3870  207.9540  151.9730 C   0  0  0  0  0  0  0  0  0  0  0  0
  161.2550  209.0490  152.9630 C   0  0  1  0  0  3  0  0  0  0  0  0
  161.7870  206.8170  149.8720 C   0  0  0  0  0  0  0  0  0  0  0  0
  161.6130  204.4300  145.5620 C   0  0  0  0  0  2  0  0  0  0  0  0
  162.6450  205.3460  148.0270 C   0  0  0  0  0  2  0  0  0  0  0  0
  160.0510  206.1560  146.7910 C   0  0  0  0  0  2  0  0  0  0  0  0
  160.8850  207.2170  147.5160 C   0  0  0  0  0  2  0  0  0  0  0  0
  161.5640  203.5600  146.8350 C   0  0  0  0  0  2  0  0  0  0  0  0
  160.6540  206.3110  144.5320 O   0  0  0  0  0  0  0  0  0  0  0  0
  163.1140  207.6390  148.0950 O   0  0  0  0  0  1  0  0  0  0  0  0
  161.6250  204.3070  148.0950 N   0  0  0  0  0  2  0  0  0  0  0  0
  162.0840  206.7370  148.3760 C   0  0  1  0  0  0  0  0  0  0  0  0
  160.7530  205.6670  145.5630 C   0  0  0  0  0  0  0  0  0  0  0  0
  160.8830  204.2630  152.4780 C   0  0  0  0  0  2  0  0  0  0  0  0
  162.2870  202.6470  151.4470 O   0  0  0  0  0  0  0  0  0  0  0  0
  161.4180  200.9420  149.3930 C   0  0  0  0  0  1  0  0  0  0  0  0
  160.1570  201.6900  149.6590 C   0  0  0  0  0  0  0  0  0  0  0  0
  160.0750  202.7140  150.6580 N   0  0  0  0  0  2  0  0  0  0  0  0
  161.1360  203.1560  151.5150 C   0  0  0  0  0  0  0  0  0  0  0  0
  159.1340  201.4130  148.9820 O   0  0  0  0  0  0  0  0  0  0  0  0
  1  7  1  0  0  0  0
  2  9  2  0  0  0  0
  3  8  2  0  0  0  0
  4  3  1  0  0  0  0
  5  2  1  0  0  0  0
  7 22  1  0  0  0  0
  7  4  2  0  0  0  0
  9  4  1  0  0  0  0
  9 10  1  0  0  0  0
 10  6  1  6  0  0  0
 10  8  1  0  0  0  0
 11  1  2  0  0  0  0
 11  2  1  0  0  0  0
 12 21  1  0  0  0  0
 12 16  1  0  0  0  0
 13 19  1  0  0  0  0
 13 20  1  0  0  0  0
 14 15  1  0  0  0  0
 15 20  1  0  0  0  0
 16 19  1  0  0  0  0
 17 21  2  0  0  0  0
 20 18  1  6  0  0  0
 20 11  1  0  0  0  0
 21 14  1  0  0  0  0
 23 27  2  0  0  0  0
 24 25  1  0  0  0  0
 25 26  1  0  0  0  0
 26 27  1  0  0  0  0
 27 22  1  0  0  0  0
 28 25  2  0  0  0  0
M  END
>  <MODEL>
1

>  <REMARK>
 VINA RESULT:      -7.8      0.000      0.000
  Name = 
  3 active torsions:
  status: ('A' for Active; 'I' for Inactive)
    1  A    between atoms: C_11  and  C_17
    2  A    between atoms: C_17  and  C_25
    3  A    between atoms: C_22  and  C_27
                            x       y       z     vdW  Elec       q    Type
                         _______ _______ _______ _____ _____    ______ ____

>  <TORSDO>
F 3

$$$$
=
 OpenBabel11072411143D

 28 30  0  0  1  0  0  0  0  0999 V2000
  161.0760  208.9310  151.6180 N   0  0  0  0  0  0  0  0  0  0  0  0
  161.1660  207.2960  153.3780 C   0  0  0  0  0  0  0  0  0  0  0  0
  159.7760  210.3370  154.8800 C   0  0  0  0  0  3  0  0  0  0  0  0
  160.3310  209.5150  153.7880 C   0  0  0  0  0  0  0  0  0  0  0  0
  161.4740  205.9460  153.9340 C   0  0  0  0  0  1  0  0  0  0  0  0
  161.5360  207.9460  156.4410 N   0  0  0  0  0  1  0  0  0  0  0  0
  160.5490  209.8640  152.4580 C   0  0  0  0  0  0  0  0  0  0  0  0
  159.7340  209.4620  156.0610 N   0  0  0  0  0  0  0  0  0  0  0  0
  160.6400  208.2730  154.2340 C   0  0  0  0  0  0  0  0  0  0  0  0
  160.3190  208.1680  155.6770 C   0  0  1  0  0  3  0  0  0  0  0  0
  161.3800  207.6530  152.0130 C   0  0  0  0  0  0  0  0  0  0  0  0
  161.0950  203.7620  148.9980 C   0  0  0  0  0  2  0  0  0  0  0  0
  161.6860  205.2590  151.3210 C   0  0  0  0  0  2  0  0  0  0  0  0
  160.5980  206.3360  148.7580 C   0  0  0  0  0  2  0  0  0  0  0  0
  161.6410  207.1600  149.5200 C   0  0  0  0  0  2  0  0  0  0  0  0
  160.1640  203.7520  150.2280 C   0  0  0  0  0  2  0  0  0  0  0  0
  161.8060  205.0820  147.1890 O   0  0  0  0  0  0  0  0  0  0  0  0
  163.3840  206.8470  151.0500 O   0  0  0  0  0  1  0  0  0  0  0  0
  160.2840  204.9220  151.1030 N   0  0  0  0  0  2  0  0  0  0  0  0
  161.9950  206.7250  150.9670 C   0  0  1  0  0  0  0  0  0  0  0  0
  161.1920  205.0620  148.2430 C   0  0  0  0  0  0  0  0  0  0  0  0
  160.2600  211.2410  151.9580 C   0  0  0  0  0  2  0  0  0  0  0  0
  162.0900  210.8310  150.4980 O   0  0  0  0  0  0  0  0  0  0  0  0
  162.6010  212.3670  148.2040 C   0  0  0  0  0  1  0  0  0  0  0  0
  161.3620  213.0370  148.6940 C   0  0  0  0  0  0  0  0  0  0  0  0
  160.6830  212.6080  149.8810 N   0  0  0  0  0  2  0  0  0  0  0  0
  161.0670  211.5260  150.7390 C   0  0  0  0  0  0  0  0  0  0  0  0
  160.9010  214.0090  148.0430 O   0  0  0  0  0  0  0  0  0  0  0  0
  1 11  2  0  0  0  0
  1  7  1  0  0  0  0
  2  5  1  0  0  0  0
  2  9  2  0  0  0  0
  3  8  2  0  0  0  0
  4  9  1  0  0  0  0
  4  3  1  0  0  0  0
  7  4  2  0  0  0  0
  9 10  1  0  0  0  0
 10  8  1  0  0  0  0
 10  6  1  1  0  0  0
 11  2  1  0  0  0  0
 12 16  1  0  0  0  0
 14 15  1  0  0  0  0
 15 20  1  0  0  0  0
 16 19  1  0  0  0  0
 17 21  2  0  0  0  0
 19 13  1  0  0  0  0
 20 18  1  1  0  0  0
 20 13  1  0  0  0  0
 20 11  1  0  0  0  0
 21 14  1  0  0  0  0
 21 12  1  0  0  0  0
 22  7  1  0  0  0  0
 23 27  2  0  0  0  0
 24 25  1  0  0  0  0
 25 26  1  0  0  0  0
 26 27  1  0  0  0  0
 27 22  1  0  0  0  0
 28 25  2  0  0  0  0
M  END
>  <MODEL>
2

>  <REMARK>
 VINA RESULT:      -6.3      2.584      5.802
  Name = 
  3 active torsions:
  status: ('A' for Active; 'I' for Inactive)
    1  A    between atoms: C_11  and  C_17
    2  A    between atoms: C_17  and  C_25
    3  A    between atoms: C_22  and  C_27
                            x       y       z     vdW  Elec       q    Type
                         _______ _______ _______ _____ _____    ______ ____

>  <TORSDO>
F 3

$$$$
=
 OpenBabel11072411143D

 28 30  0  0  1  0  0  0  0  0999 V2000
  161.2270  208.2780  150.5890 N   0  0  0  0  0  0  0  0  0  0  0  0
  161.5750  206.9150  152.5380 C   0  0  0  0  0  0  0  0  0  0  0  0
  160.9510  204.5970  149.7680 C   0  0  0  0  0  3  0  0  0  0  0  0
  161.1130  205.9230  150.3960 C   0  0  0  0  0  0  0  0  0  0  0  0
  161.8540  206.7020  153.9890 C   0  0  0  0  0  1  0  0  0  0  0  0
  160.2950  204.0730  153.0160 N   0  0  0  0  0  1  0  0  0  0  0  0
  161.0400  207.1810  149.8060 C   0  0  0  0  0  0  0  0  0  0  0  0
  161.1630  203.6140  150.8410 N   0  0  0  0  0  0  0  0  0  0  0  0
  161.3630  205.7960  151.7220 C   0  0  0  0  0  0  0  0  0  0  0  0
  161.3800  204.3600  152.0910 C   0  0  1  0  0  3  0  0  0  0  0  0
  161.5090  208.2040  151.9300 C   0  0  0  0  0  0  0  0  0  0  0  0
  159.5670  212.1520  154.1550 C   0  0  0  0  0  2  0  0  0  0  0  0
  160.7050  210.5770  152.1040 C   0  0  0  0  0  2  0  0  0  0  0  0
  160.3140  209.7550  154.9480 C   0  0  0  0  0  2  0  0  0  0  0  0
  161.5930  209.3230  154.2250 C   0  0  0  0  0  2  0  0  0  0  0  0
  158.6960  211.4680  153.0820 C   0  0  0  0  0  2  0  0  0  0  0  0
  160.8610  211.7380  156.0720 O   0  0  0  0  0  0  0  0  0  0  0  0
  162.9500  210.0080  152.4450 O   0  0  0  0  0  1  0  0  0  0  0  0
  159.3120  210.3030  152.4390 N   0  0  0  0  0  2  0  0  0  0  0  0
  161.6620  209.5220  152.6880 C   0  0  1  0  0  0  0  0  0  0  0  0
  160.2730  211.2410  155.1260 C   0  0  0  0  0  0  0  0  0  0  0  0
  160.7200  207.3440  148.3570 C   0  0  0  0  0  2  0  0  0  0  0  0
  162.8680  206.6100  147.6540 O   0  0  0  0  0  0  0  0  0  0  0  0
  163.2560  204.6750  145.6570 C   0  0  0  0  0  1  0  0  0  0  0  0
  161.7660  204.7120  145.6960 C   0  0  0  0  0  0  0  0  0  0  0  0
  161.0490  205.5770  146.5870 N   0  0  0  0  0  2  0  0  0  0  0  0
  161.6200  206.4920  147.5310 C   0  0  0  0  0  0  0  0  0  0  0  0
  161.1200  203.9620  144.9200 O   0  0  0  0  0  0  0  0  0  0  0  0
  1 11  1  0  0  0  0
  2  5  1  0  0  0  0
  3  4  1  0  0  0  0
  3  8  2  0  0  0  0
  4  9  2  0  0  0  0
  7  4  1  0  0  0  0
  7  1  2  0  0  0  0
  8 10  1  0  0  0  0
  9 10  1  0  0  0  0
  9  2  1  0  0  0  0
 10  6  1  1  0  0  0
 11  2  2  0  0  0  0
 11 20  1  0  0  0  0
 12 21  1  0  0  0  0
 13 19  1  0  0  0  0
 13 20  1  0  0  0  0
 14 21  1  0  0  0  0
 15 14  1  0  0  0  0
 16 12  1  0  0  0  0
 19 16  1  0  0  0  0
 20 18  1  6  0  0  0
 20 15  1  0  0  0  0
 21 17  2  0  0  0  0
 22  7  1  0  0  0  0
 24 25  1  0  0  0  0
 25 26  1  0  0  0  0
 26 27  1  0  0  0  0
 27 23  2  0  0  0  0
 27 22  1  0  0  0  0
 28 25  2  0  0  0  0
M  END
>  <MODEL>
3

>  <REMARK>
 VINA RESULT:      -6.3      2.676      6.520
  Name = 
  3 active torsions:
  status: ('A' for Active; 'I' for Inactive)
    1  A    between atoms: C_11  and  C_17
    2  A    between atoms: C_17  and  C_25
    3  A    between atoms: C_22  and  C_27
                            x       y       z     vdW  Elec       q    Type
                         _______ _______ _______ _____ _____    ______ ____

>  <TORSDO>
F 3

$$$$
=
 OpenBabel11072411143D

 28 30  0  0  1  0  0  0  0  0999 V2000
  162.0010  210.4540  151.0440 N   0  0  0  0  0  0  0  0  0  0  0  0
  161.5320  208.1980  151.7280 C   0  0  0  0  0  0  0  0  0  0  0  0
  162.1380  208.0660  148.1150 C   0  0  0  0  0  3  0  0  0  0  0  0
  162.0080  208.7240  149.4290 C   0  0  0  0  0  0  0  0  0  0  0  0
  161.1920  207.1490  152.7330 C   0  0  0  0  0  1  0  0  0  0  0  0
  160.2080  205.9890  149.9090 N   0  0  0  0  0  1  0  0  0  0  0  0
  162.1680  210.0690  149.7490 C   0  0  0  0  0  0  0  0  0  0  0  0
  161.9010  206.6340  148.3570 N   0  0  0  0  0  0  0  0  0  0  0  0
  161.6910  207.8200  150.3880 C   0  0  0  0  0  0  0  0  0  0  0  0
  161.5730  206.4720  149.7830 C   0  0  1  0  0  3  0  0  0  0  0  0
  161.7060  209.5760  152.0560 C   0  0  0  0  0  0  0  0  0  0  0  0
  158.8310  211.4630  155.5900 C   0  0  0  0  0  2  0  0  0  0  0  0
  160.6020  211.3960  153.3900 C   0  0  0  0  0  2  0  0  0  0  0  0
  159.6540  209.0420  154.9620 C   0  0  0  0  0  2  0  0  0  0  0  0
  161.1100  209.0730  154.4890 C   0  0  0  0  0  2  0  0  0  0  0  0
  158.3280  211.6100  154.1390 C   0  0  0  0  0  2  0  0  0  0  0  0
  159.6760  209.9110  157.1380 O   0  0  0  0  0  0  0  0  0  0  0  0
  162.7550  210.6290  153.8950 O   0  0  0  0  0  1  0  0  0  0  0  0
  159.2140  211.0430  153.1180 N   0  0  0  0  0  2  0  0  0  0  0  0
  161.5160  210.1580  153.4560 C   0  0  1  0  0  0  0  0  0  0  0  0
  159.3930  210.1170  155.9700 C   0  0  0  0  0  0  0  0  0  0  0  0
  162.4710  211.0880  148.7010 C   0  0  0  0  0  2  0  0  0  0  0  0
  160.9570  212.7730  149.4190 O   0  0  0  0  0  0  0  0  0  0  0  0
  158.8010  213.6680  147.8610 C   0  0  0  0  0  1  0  0  0  0  0  0
  159.3950  212.6680  146.9300 C   0  0  0  0  0  0  0  0  0  0  0  0
  160.5610  211.9070  147.2720 N   0  0  0  0  0  2  0  0  0  0  0  0
  161.2990  211.9840  148.4990 C   0  0  0  0  0  0  0  0  0  0  0  0
  158.8540  212.4870  145.8090 O   0  0  0  0  0  0  0  0  0  0  0  0
  1 11  1  0  0  0  0
  2 11  2  0  0  0  0
  2  5  1  0  0  0  0
  3  8  2  0  0  0  0
  3  4  1  0  0  0  0
  4  7  1  0  0  0  0
  4  9  2  0  0  0  0
  7  1  2  0  0  0  0
  8 10  1  0  0  0  0
  9  2  1  0  0  0  0
 10  6  1  6  0  0  0
 10  9  1  0  0  0  0
 11 20  1  0  0  0  0
 12 21  1  0  0  0  0
 13 20  1  0  0  0  0
 14 21  1  0  0  0  0
 15 14  1  0  0  0  0
 16 12  1  0  0  0  0
 19 13  1  0  0  0  0
 19 16  1  0  0  0  0
 20 18  1  1  0  0  0
 20 15  1  0  0  0  0
 21 17  2  0  0  0  0
 22  7  1  0  0  0  0
 25 26  1  0  0  0  0
 25 24  1  0  0  0  0
 26 27  1  0  0  0  0
 27 22  1  0  0  0  0
 27 23  2  0  0  0  0
 28 25  2  0  0  0  0
M  END
>  <MODEL>
4

>  <REMARK>
 VINA RESULT:      -6.3      4.042      8.323
  Name = 
  3 active torsions:
  status: ('A' for Active; 'I' for Inactive)
    1  A    between atoms: C_11  and  C_17
    2  A    between atoms: C_17  and  C_25
    3  A    between atoms: C_22  and  C_27
                            x       y       z     vdW  Elec       q    Type
                         _______ _______ _______ _____ _____    ______ ____

>  <TORSDO>
F 3

$$$$
=
 OpenBabel11072411143D

 28 30  0  0  1  0  0  0  0  0999 V2000
  161.6550  208.2440  148.2570 N   0  0  0  0  0  0  0  0  0  0  0  0
  161.0040  206.7710  150.0410 C   0  0  0  0  0  0  0  0  0  0  0  0
  162.2850  209.8100  151.6410 C   0  0  0  0  0  3  0  0  0  0  0  0
  161.9310  208.9420  150.5010 C   0  0  0  0  0  0  0  0  0  0  0  0
  160.4560  205.4960  150.5900 C   0  0  0  0  0  1  0  0  0  0  0  0
  162.3150  206.7030  152.9080 N   0  0  0  0  0  1  0  0  0  0  0  0
  162.0510  209.2020  149.1390 C   0  0  0  0  0  0  0  0  0  0  0  0
  161.9190  209.0550  152.8500 N   0  0  0  0  0  0  0  0  0  0  0  0
  161.4320  207.7600  150.9370 C   0  0  0  0  0  0  0  0  0  0  0  0
  161.4200  207.7400  152.4190 C   0  0  1  0  0  3  0  0  0  0  0  0
  161.1190  207.0420  148.6450 C   0  0  0  0  0  0  0  0  0  0  0  0
  162.3780  203.6810  145.2640 C   0  0  0  0  0  2  0  0  0  0  0  0
  161.7170  206.2020  146.3550 C   0  0  0  0  0  2  0  0  0  0  0  0
  161.6730  203.5900  147.8000 C   0  0  0  0  0  2  0  0  0  0  0  0
  160.5690  204.6100  148.0890 C   0  0  0  0  0  2  0  0  0  0  0  0
  163.4630  204.7030  145.6580 C   0  0  0  0  0  2  0  0  0  0  0  0
  160.8080  202.1710  146.1460 O   0  0  0  0  0  0  0  0  0  0  0  0
  159.4910  206.4100  147.0500 O   0  0  0  0  0  1  0  0  0  0  0  0
  163.0480  205.6900  146.6600 N   0  0  0  0  0  2  0  0  0  0  0  0
  160.7490  206.0510  147.5420 C   0  0  1  0  0  0  0  0  0  0  0  0
  161.5810  203.0820  146.3940 C   0  0  0  0  0  0  0  0  0  0  0  0
  162.6420  210.4780  148.6390 C   0  0  0  0  0  2  0  0  0  0  0  0
  161.2080  212.2150  149.3980 O   0  0  0  0  0  0  0  0  0  0  0  0
  159.2960  213.4570  147.7600 C   0  0  0  0  0  1  0  0  0  0  0  0
  159.8960  212.5050  146.7820 C   0  0  0  0  0  0  0  0  0  0  0  0
  160.9550  211.6090  147.1430 N   0  0  0  0  0  2  0  0  0  0  0  0
  161.5730  211.4940  148.4310 C   0  0  0  0  0  0  0  0  0  0  0  0
  159.4550  212.4880  145.6050 O   0  0  0  0  0  0  0  0  0  0  0  0
  1 11  2  0  0  0  0
  1  7  1  0  0  0  0
  2  5  1  0  0  0  0
  2  9  2  0  0  0  0
  3  8  2  0  0  0  0
  4  9  1  0  0  0  0
  4  3  1  0  0  0  0
  7  4  2  0  0  0  0
  9 10  1  0  0  0  0
 10  8  1  0  0  0  0
 10  6  1  1  0  0  0
 11  2  1  0  0  0  0
 12 16  1  0  0  0  0
 12 21  1  0  0  0  0
 13 19  1  0  0  0  0
 13 20  1  0  0  0  0
 14 15  1  0  0  0  0
 16 19  1  0  0  0  0
 17 21  2  0  0  0  0
 20 18  1  6  0  0  0
 20 15  1  0  0  0  0
 20 11  1  0  0  0  0
 21 14  1  0  0  0  0
 22  7  1  0  0  0  0
 25 26  1  0  0  0  0
 25 24  1  0  0  0  0
 26 27  1  0  0  0  0
 27 22  1  0  0  0  0
 27 23  2  0  0  0  0
 28 25  2  0  0  0  0
M  END
>  <MODEL>
5

>  <REMARK>
 VINA RESULT:      -6.2      2.883      5.771
  Name = 
  3 active torsions:
  status: ('A' for Active; 'I' for Inactive)
    1  A    between atoms: C_11  and  C_17
    2  A    between atoms: C_17  and  C_25
    3  A    between atoms: C_22  and  C_27
                            x       y       z     vdW  Elec       q    Type
                         _______ _______ _______ _____ _____    ______ ____

>  <TORSDO>
F 3

$$$$
=
 OpenBabel11072411143D

 28 30  0  0  1  0  0  0  0  0999 V2000
  161.0480  205.4000  150.1490 N   0  0  0  0  0  0  0  0  0  0  0  0
  161.5130  207.7150  149.7010 C   0  0  0  0  0  0  0  0  0  0  0  0
  161.6310  207.3370  153.3460 C   0  0  0  0  0  3  0  0  0  0  0  0
  161.4540  206.8760  151.9550 C   0  0  0  0  0  0  0  0  0  0  0  0
  161.7080  208.8900  148.8020 C   0  0  0  0  0  1  0  0  0  0  0  0
  160.8310  210.1100  151.6360 N   0  0  0  0  0  1  0  0  0  0  0  0
  161.1650  205.5950  151.4920 C   0  0  0  0  0  0  0  0  0  0  0  0
  161.9560  208.7680  153.2570 N   0  0  0  0  0  0  0  0  0  0  0  0
  161.6130  207.9040  151.0860 C   0  0  0  0  0  0  0  0  0  0  0  0
  161.9040  209.1490  151.8360 C   0  0  1  0  0  3  0  0  0  0  0  0
  161.2250  206.4000  149.2270 C   0  0  0  0  0  0  0  0  0  0  0  0
  162.7940  204.2760  145.0640 C   0  0  0  0  0  2  0  0  0  0  0  0
  162.3310  206.3050  146.9750 C   0  0  0  0  0  2  0  0  0  0  0  0
  161.3310  203.4950  147.1090 C   0  0  0  0  0  2  0  0  0  0  0  0
  160.4130  204.6270  147.5780 C   0  0  0  0  0  2  0  0  0  0  0  0
  163.8810  204.7030  146.0730 C   0  0  0  0  0  2  0  0  0  0  0  0
  160.7650  203.1080  144.8680 O   0  0  0  0  0  0  0  0  0  0  0  0
  160.0850  206.9170  147.2210 O   0  0  0  0  0  1  0  0  0  0  0  0
  163.3740  205.3370  147.2940 N   0  0  0  0  0  2  0  0  0  0  0  0
  161.0310  206.0390  147.7560 C   0  0  1  0  0  0  0  0  0  0  0  0
  161.5850  203.5840  145.6360 C   0  0  0  0  0  0  0  0  0  0  0  0
  160.9400  204.4590  152.4340 C   0  0  0  0  0  2  0  0  0  0  0  0
  162.0470  202.3990  152.0090 O   0  0  0  0  0  0  0  0  0  0  0  0
  161.2060  200.5780  150.0450 C   0  0  0  0  0  1  0  0  0  0  0  0
  160.1620  201.6310  149.8860 C   0  0  0  0  0  0  0  0  0  0  0  0
  160.1490  202.8180  150.6900 N   0  0  0  0  0  2  0  0  0  0  0  0
  161.0860  203.1610  151.7190 C   0  0  0  0  0  0  0  0  0  0  0  0
  159.2680  201.4700  149.0170 O   0  0  0  0  0  0  0  0  0  0  0  0
  1  7  1  0  0  0  0
  2  9  2  0  0  0  0
  4  3  1  0  0  0  0
  5  2  1  0  0  0  0
  7  4  2  0  0  0  0
  7 22  1  0  0  0  0
  8  3  2  0  0  0  0
  9 10  1  0  0  0  0
  9  4  1  0  0  0  0
 10  6  1  1  0  0  0
 10  8  1  0  0  0  0
 11  2  1  0  0  0  0
 11  1  2  0  0  0  0
 12 21  1  0  0  0  0
 12 16  1  0  0  0  0
 13 19  1  0  0  0  0
 13 20  1  0  0  0  0
 14 15  1  0  0  0  0
 15 20  1  0  0  0  0
 16 19  1  0  0  0  0
 17 21  2  0  0  0  0
 20 18  1  6  0  0  0
 20 11  1  0  0  0  0
 21 14  1  0  0  0  0
 25 24  1  0  0  0  0
 25 26  1  0  0  0  0
 26 27  1  0  0  0  0
 27 23  2  0  0  0  0
 27 22  1  0  0  0  0
 28 25  2  0  0  0  0
M  END
>  <MODEL>
6

>  <REMARK>
 VINA RESULT:      -6.0      1.339      1.611
  Name = 
  3 active torsions:
  status: ('A' for Active; 'I' for Inactive)
    1  A    between atoms: C_11  and  C_17
    2  A    between atoms: C_17  and  C_25
    3  A    between atoms: C_22  and  C_27
                            x       y       z     vdW  Elec       q    Type
                         _______ _______ _______ _____ _____    ______ ____

>  <TORSDO>
F 3

$$$$
=
 OpenBabel11072411143D

 28 30  0  0  1  0  0  0  0  0999 V2000
  161.1940  209.1360  151.8090 N   0  0  0  0  0  0  0  0  0  0  0  0
  161.2060  207.3280  153.3930 C   0  0  0  0  0  0  0  0  0  0  0  0
  159.9320  210.2560  155.1940 C   0  0  0  0  0  3  0  0  0  0  0  0
  160.4600  209.5260  154.0250 C   0  0  0  0  0  0  0  0  0  0  0  0
  161.4550  205.9170  153.8090 C   0  0  0  0  0  1  0  0  0  0  0  0
  161.5830  207.6470  156.5070 N   0  0  0  0  0  1  0  0  0  0  0  0
  160.7000  210.0000  152.7390 C   0  0  0  0  0  0  0  0  0  0  0  0
  159.8460  209.2680  156.2800 N   0  0  0  0  0  0  0  0  0  0  0  0
  160.7150  208.2340  154.3430 C   0  0  0  0  0  0  0  0  0  0  0  0
  160.3810  207.9960  155.7670 C   0  0  1  0  0  3  0  0  0  0  0  0
  161.4440  207.8130  152.0720 C   0  0  0  0  0  0  0  0  0  0  0  0
  161.1860  203.9980  148.9600 C   0  0  0  0  0  2  0  0  0  0  0  0
  161.8790  205.4750  151.2670 C   0  0  0  0  0  2  0  0  0  0  0  0
  160.4540  206.5250  148.8620 C   0  0  0  0  0  2  0  0  0  0  0  0
  161.4940  207.4150  149.5490 C   0  0  0  0  0  2  0  0  0  0  0  0
  160.3870  203.8720  150.2730 C   0  0  0  0  0  2  0  0  0  0  0  0
  161.6000  205.4250  147.1390 O   0  0  0  0  0  0  0  0  0  0  0  0
  163.4020  207.2120  150.8900 O   0  0  0  0  0  1  0  0  0  0  0  0
  160.4950  205.0240  151.1740 N   0  0  0  0  0  2  0  0  0  0  0  0
  162.0270  206.9720  150.9380 C   0  0  1  0  0  0  0  0  0  0  0  0
  161.0980  205.3220  148.2460 C   0  0  0  0  0  0  0  0  0  0  0  0
  160.4710  211.4310  152.3810 C   0  0  0  0  0  2  0  0  0  0  0  0
  158.0980  211.3150  152.3850 O   0  0  0  0  0  0  0  0  0  0  0  0
  156.4770  213.0160  153.9220 C   0  0  0  0  0  1  0  0  0  0  0  0
  157.8260  213.5090  154.3250 C   0  0  0  0  0  0  0  0  0  0  0  0
  159.0320  212.9430  153.7970 N   0  0  0  0  0  2  0  0  0  0  0  0
  159.1280  211.8710  152.8500 C   0  0  0  0  0  0  0  0  0  0  0  0
  157.9030  214.4520  155.1530 O   0  0  0  0  0  0  0  0  0  0  0  0
  1 11  2  0  0  0  0
  1  7  1  0  0  0  0
  2  5  1  0  0  0  0
  2  9  2  0  0  0  0
  3  8  2  0  0  0  0
  4  9  1  0  0  0  0
  4  3  1  0  0  0  0
  7  4  2  0  0  0  0
  9 10  1  0  0  0  0
 10  8  1  0  0  0  0
 10  6  1  1  0  0  0
 11  2  1  0  0  0  0
 12 16  1  0  0  0  0
 14 15  1  0  0  0  0
 15 20  1  0  0  0  0
 16 19  1  0  0  0  0
 17 21  2  0  0  0  0
 19 13  1  0  0  0  0
 20 18  1  6  0  0  0
 20 13  1  0  0  0  0
 20 11  1  0  0  0  0
 21 14  1  0  0  0  0
 21 12  1  0  0  0  0
 22  7  1  0  0  0  0
 22 27  1  0  0  0  0
 23 27  2  0  0  0  0
 24 25  1  0  0  0  0
 25 28  2  0  0  0  0
 26 25  1  0  0  0  0
 27 26  1  0  0  0  0
M  END
>  <MODEL>
7

>  <REMARK>
 VINA RESULT:      -6.0      3.544      6.382
  Name = 
  3 active torsions:
  status: ('A' for Active; 'I' for Inactive)
    1  A    between atoms: C_11  and  C_17
    2  A    between atoms: C_17  and  C_25
    3  A    between atoms: C_22  and  C_27
                            x       y       z     vdW  Elec       q    Type
                         _______ _______ _______ _____ _____    ______ ____

>  <TORSDO>
F 3

$$$$
=
 OpenBabel11072411143D

 28 30  0  0  1  0  0  0  0  0999 V2000
  161.6980  209.2820  151.0550 N   0  0  0  0  0  0  0  0  0  0  0  0
  161.4110  207.4050  152.5290 C   0  0  0  0  0  0  0  0  0  0  0  0
  161.7510  206.0120  149.1540 C   0  0  0  0  0  3  0  0  0  0  0  0
  161.6830  207.0920  150.1590 C   0  0  0  0  0  0  0  0  0  0  0  0
  161.2060  206.7740  153.8650 C   0  0  0  0  0  1  0  0  0  0  0  0
  160.0810  204.6600  151.7310 N   0  0  0  0  0  1  0  0  0  0  0  0
  161.7900  208.4660  149.9690 C   0  0  0  0  0  0  0  0  0  0  0  0
  161.6150  204.7550  149.9060 N   0  0  0  0  0  0  0  0  0  0  0  0
  161.4900  206.5800  151.3990 C   0  0  0  0  0  0  0  0  0  0  0  0
  161.4040  205.1020  151.3200 C   0  0  1  0  0  3  0  0  0  0  0  0
  161.5300  208.8140  152.3330 C   0  0  0  0  0  0  0  0  0  0  0  0
  158.8880  212.0430  154.9610 C   0  0  0  0  0  2  0  0  0  0  0  0
  160.6180  211.0710  152.9500 C   0  0  0  0  0  2  0  0  0  0  0  0
  159.4720  209.4870  155.2060 C   0  0  0  0  0  2  0  0  0  0  0  0
  160.9190  209.2210  154.7800 C   0  0  0  0  0  2  0  0  0  0  0  0
  158.3830  211.7360  153.5360 C   0  0  0  0  0  2  0  0  0  0  0  0
  159.6020  211.0360  156.9600 O   0  0  0  0  0  0  0  0  0  0  0  0
  162.6960  210.3250  153.7290 O   0  0  0  0  0  1  0  0  0  0  0  0
  159.2000  210.7770  152.7850 N   0  0  0  0  0  2  0  0  0  0  0  0
  161.4120  209.8500  153.4490 C   0  0  1  0  0  0  0  0  0  0  0  0
  159.3260  210.8600  155.7850 C   0  0  0  0  0  0  0  0  0  0  0  0
  161.9560  209.0530  148.6060 C   0  0  0  0  0  2  0  0  0  0  0  0
  162.4900  211.1270  149.6350 O   0  0  0  0  0  0  0  0  0  0  0  0
  161.6310  213.6060  148.6350 C   0  0  0  0  0  1  0  0  0  0  0  0
  161.0450  212.6960  147.6100 C   0  0  0  0  0  0  0  0  0  0  0  0
  161.2060  211.2730  147.6730 N   0  0  0  0  0  2  0  0  0  0  0  0
  161.9200  210.5400  148.6770 C   0  0  0  0  0  0  0  0  0  0  0  0
  160.3870  213.1950  146.6620 O   0  0  0  0  0  0  0  0  0  0  0  0
  1 11  1  0  0  0  0
  2  5  1  0  0  0  0
  3  8  2  0  0  0  0
  3  4  1  0  0  0  0
  4  9  2  0  0  0  0
  7  4  1  0  0  0  0
  7  1  2  0  0  0  0
  8 10  1  0  0  0  0
  9  2  1  0  0  0  0
 10  9  1  0  0  0  0
 10  6  1  6  0  0  0
 11  2  2  0  0  0  0
 11 20  1  0  0  0  0
 12 21  1  0  0  0  0
 13 20  1  0  0  0  0
 14 21  1  0  0  0  0
 15 14  1  0  0  0  0
 16 12  1  0  0  0  0
 19 13  1  0  0  0  0
 19 16  1  0  0  0  0
 20 18  1  1  0  0  0
 20 15  1  0  0  0  0
 21 17  2  0  0  0  0
 22 27  1  0  0  0  0
 22  7  1  0  0  0  0
 25 26  1  0  0  0  0
 25 24  1  0  0  0  0
 26 27  1  0  0  0  0
 27 23  2  0  0  0  0
 28 25  2  0  0  0  0
M  END
>  <MODEL>
8

>  <REMARK>
 VINA RESULT:      -5.8      3.609      8.020
  Name = 
  3 active torsions:
  status: ('A' for Active; 'I' for Inactive)
    1  A    between atoms: C_11  and  C_17
    2  A    between atoms: C_17  and  C_25
    3  A    between atoms: C_22  and  C_27
                            x       y       z     vdW  Elec       q    Type
                         _______ _______ _______ _____ _____    ______ ____

>  <TORSDO>
F 3

$$$$
=
 OpenBabel11072411143D

 28 30  0  0  1  0  0  0  0  0999 V2000
  161.4160  206.7300  153.2310 N   0  0  0  0  0  0  0  0  0  0  0  0
  160.8590  208.8560  152.2570 C   0  0  0  0  0  0  0  0  0  0  0  0
  162.2470  206.8190  149.5430 C   0  0  0  0  0  3  0  0  0  0  0  0
  161.8240  207.0970  150.9290 C   0  0  0  0  0  0  0  0  0  0  0  0
  160.3360  210.2520  152.3040 C   0  0  0  0  0  1  0  0  0  0  0  0
  162.3310  210.1640  149.7940 N   0  0  0  0  0  1  0  0  0  0  0  0
  161.8680  206.2560  152.0380 C   0  0  0  0  0  0  0  0  0  0  0  0
  161.9460  208.0390  148.7780 N   0  0  0  0  0  0  0  0  0  0  0  0
  161.3440  208.3590  151.0390 C   0  0  0  0  0  0  0  0  0  0  0  0
  161.4160  209.0360  149.7220 C   0  0  1  0  0  3  0  0  0  0  0  0
  160.8960  207.9900  153.3900 C   0  0  0  0  0  0  0  0  0  0  0  0
  161.0880  211.0420  157.2580 C   0  0  0  0  0  2  0  0  0  0  0  0
  161.6840  208.8120  155.6290 C   0  0  0  0  0  2  0  0  0  0  0  0
  159.5870  210.8710  155.1010 C   0  0  0  0  0  2  0  0  0  0  0  0
  159.2810  209.4070  154.7720 C   0  0  0  0  0  2  0  0  0  0  0  0
  162.3240  211.0200  156.3350 C   0  0  0  0  0  2  0  0  0  0  0  0
  158.7450  211.2250  157.2600 O   0  0  0  0  0  0  0  0  0  0  0  0
  159.9430  207.2590  155.4280 O   0  0  0  0  0  1  0  0  0  0  0  0
  162.2300  210.0940  155.2010 N   0  0  0  0  0  2  0  0  0  0  0  0
  160.4580  208.3950  154.7970 C   0  0  1  0  0  0  0  0  0  0  0  0
  159.7440  211.0690  156.5770 C   0  0  0  0  0  0  0  0  0  0  0  0
  162.4370  204.8790  151.9490 C   0  0  0  0  0  2  0  0  0  0  0  0
  160.5480  203.4370  151.9410 O   0  0  0  0  0  0  0  0  0  0  0  0
  159.6710  202.0640  149.6540 C   0  0  0  0  0  1  0  0  0  0  0  0
  160.8300  202.8070  149.0820 C   0  0  0  0  0  0  0  0  0  0  0  0
  161.6410  203.6820  149.8760 N   0  0  0  0  0  2  0  0  0  0  0  0
  161.4740  203.9670  151.2710 C   0  0  0  0  0  0  0  0  0  0  0  0
  161.1030  202.6570  147.8640 O   0  0  0  0  0  0  0  0  0  0  0  0
  1 11  1  0  0  0  0
  2  5  1  0  0  0  0
  2 11  2  0  0  0  0
  3  4  1  0  0  0  0
  4  9  2  0  0  0  0
  4  7  1  0  0  0  0
  7  1  2  0  0  0  0
  8  3  2  0  0  0  0
  8 10  1  0  0  0  0
  9  2  1  0  0  0  0
 10  6  1  1  0  0  0
 10  9  1  0  0  0  0
 11 20  1  0  0  0  0
 14 21  1  0  0  0  0
 15 20  1  0  0  0  0
 15 14  1  0  0  0  0
 16 12  1  0  0  0  0
 19 13  1  0  0  0  0
 19 16  1  0  0  0  0
 20 18  1  1  0  0  0
 20 13  1  0  0  0  0
 21 12  1  0  0  0  0
 21 17  2  0  0  0  0
 22  7  1  0  0  0  0
 25 24  1  0  0  0  0
 25 26  1  0  0  0  0
 26 27  1  0  0  0  0
 27 23  2  0  0  0  0
 27 22  1  0  0  0  0
 28 25  2  0  0  0  0
M  END
>  <MODEL>
9

>  <REMARK>
 VINA RESULT:      -5.8      3.289      6.622
  Name = 
  3 active torsions:
  status: ('A' for Active; 'I' for Inactive)
    1  A    between atoms: C_11  and  C_17
    2  A    between atoms: C_17  and  C_25
    3  A    between atoms: C_22  and  C_27
                            x       y       z     vdW  Elec       q    Type
                         _______ _______ _______ _____ _____    ______ ____

>  <TORSDO>
F 3

$$$$
