=
 OpenBabel11072413323D

 36 37  0  0  1  0  0  0  0  0999 V2000
  161.7770  207.5140  150.9110 C   0  0  1  0  0  0  0  0  0  0  0  0
  163.0960  207.0450  150.8840 O   0  0  0  0  0  1  0  0  0  0  0  0
  161.2860  207.7050  149.4680 C   0  0  1  0  0  3  0  0  0  0  0  0
  162.0930  208.7710  148.7380 C   0  0  0  0  0  1  0  0  0  0  0  0
  161.3440  206.4760  148.7570 O   0  0  0  0  0  0  0  0  0  0  0  0
  159.9550  205.7480  145.3750 C   0  0  0  0  0  1  0  0  0  0  0  0
  160.9340  205.9910  146.4750 C   0  0  0  0  0  0  0  0  0  0  0  0
  160.4710  206.2260  147.6990 C   0  0  0  0  0  3  0  0  0  0  0  0
  162.6270  205.9980  144.8160 O   0  0  0  0  0  1  0  0  0  0  0  0
  162.4030  206.0010  146.1920 C   0  0  2  0  0  3  0  0  0  0  0  0
  163.0860  204.8050  146.8300 C   0  0  0  0  0  1  0  0  0  0  0  0
  160.9080  206.5500  151.6010 N   0  0  0  0  0  2  0  0  0  0  0  0
  161.6940  205.5660  152.3380 C   0  0  0  0  0  2  0  0  0  0  0  0
  160.8730  204.4580  152.6890 O   0  0  0  0  0  0  0  0  0  0  0  0
  160.8050  203.3250  151.9000 N   0  0  0  0  0  0  0  0  0  0  0  0
  160.8270  203.3990  150.6310 N   0  0  0  0  0  0  0  0  0  0  0  0
  159.4340  201.9020  149.5390 F   0  0  0  0  0  0  0  0  0  0  0  0
  160.7570  202.1980  149.8110 C   0  0  0  0  0  0  0  0  0  0  0  0
  161.3300  201.1310  150.4850 F   0  0  0  0  0  0  0  0  0  0  0  0
  161.4370  202.4170  148.5780 O   0  0  0  0  0  0  0  0  0  0  0  0
  161.2090  201.6650  147.4200 C   0  0  0  0  0  0  0  0  0  0  0  0
  160.9480  199.8920  145.9390 N   0  0  0  0  0  0  0  0  0  0  0  0
  161.3640  200.2030  147.3050 C   0  0  0  0  0  3  0  0  0  0  0  0
  160.8190  202.2100  146.3310 N   0  0  0  0  0  0  0  0  0  0  0  0
  159.3150  201.2040  144.7940 N   0  0  0  0  0  1  0  0  0  0  0  0
  160.6720  201.1890  145.3100 C   0  0  2  0  0  3  0  0  0  0  0  0
  161.7370  208.8640  151.6350 C   0  0  0  0  0  2  0  0  0  0  0  0
  160.4730  209.0960  152.1840 O   0  0  0  0  0  0  0  0  0  0  0  0
  161.1880  210.9410  153.3330 O   0  0  0  0  0  0  0  0  0  0  0  0
  159.8580  210.7750  153.7560 C   0  0  1  0  0  0  0  0  0  0  0  0
  160.7300  209.6110  153.4540 C   0  0  1  0  0  3  0  0  0  0  0  0
  160.3790  212.2340  155.7150 O   0  0  0  0  0  0  0  0  0  0  0  0
  159.6880  211.1500  155.1900 C   0  0  0  0  0  0  0  0  0  0  0  0
  158.8840  210.5100  155.9180 O   0  0  0  0  0  1  0  0  0  0  0  0
  158.0870  212.3080  153.2790 O   0  0  0  0  0  1  0  0  0  0  0  0
  158.8690  211.2970  152.7190 C   0  0  0  0  0  2  0  0  0  0  0  0
  1  2  1  6  0  0  0
  1 12  1  0  0  0  0
  1 27  1  0  0  0  0
  3  4  1  6  0  0  0
  3  1  1  0  0  0  0
  5  3  1  0  0  0  0
  6  7  1  0  0  0  0
  7  8  2  0  0  0  0
  8  5  1  0  0  0  0
  9 10  1  0  0  0  0
 10  7  1  0  0  0  0
 10 11  1  1  0  0  0
 12 13  1  0  0  0  0
 13 14  1  0  0  0  0
 15 14  1  0  0  0  0
 16 15  2  0  0  0  0
 17 18  1  0  0  0  0
 18 19  1  0  0  0  0
 18 16  1  0  0  0  0
 20 18  1  0  0  0  0
 21 20  1  0  0  0  0
 22 23  2  0  0  0  0
 23 21  1  0  0  0  0
 24 21  2  0  0  0  0
 26 25  1  1  0  0  0
 26 22  1  0  0  0  0
 26 24  1  0  0  0  0
 27 28  1  0  0  0  0
 29 31  1  0  0  0  0
 29 30  1  0  0  0  0
 30 36  1  6  0  0  0
 30 33  1  0  0  0  0
 31 28  1  6  0  0  0
 31 30  1  0  0  0  0
 33 32  2  0  0  0  0
 33 34  1  0  0  0  0
 36 35  1  0  0  0  0
M  END
>  <MODEL>
1

>  <REMARK>
 VINA RESULT:      -6.4      0.000      0.000
  Name = 
  16 active torsions:
  status: ('A' for Active; 'I' for Inactive)
    1  A    between atoms: C_5  and  C_25
    2  A    between atoms: C_6  and  C_22
    3  A    between atoms: C_7  and  O_9
    4  A    between atoms: O_9  and  C_20
    5  A    between atoms: O_10  and  C_23
    6  A    between atoms: O_10  and  C_33
    7  A    between atoms: C_11  and  N_15
    8  A    between atoms: C_11  and  O_17
    9  A    between atoms: O_13  and  C_14
   10  A    between atoms: O_13  and  C_36
   11  A    between atoms: C_14  and  C_27
   12  A    between atoms: N_15  and  C_27
   13  A    between atoms: O_17  and  N_21
   14  A    between atoms: C_20  and  N_35
   15  A    between atoms: C_23  and  C_27
   16  A    between atoms: C_24  and  C_25
                            x       y       z     vdW  Elec       q    Type
                         _______ _______ _______ _____ _____    ______ ____

>  <TORSDO>
F 16

$$$$
=
 OpenBabel11072413323D

 36 37  0  0  1  0  0  0  0  0999 V2000
  161.3550  206.3690  150.9550 C   0  0  1  0  0  0  0  0  0  0  0  0
  160.2240  206.8380  150.2740 O   0  0  0  0  0  1  0  0  0  0  0  0
  161.6240  204.9170  150.5330 C   0  0  1  0  0  3  0  0  0  0  0  0
  160.9180  203.9260  151.4490 C   0  0  0  0  0  1  0  0  0  0  0  0
  161.2210  204.7080  149.1860 O   0  0  0  0  0  0  0  0  0  0  0  0
  161.0950  201.7940  146.8650 C   0  0  0  0  0  1  0  0  0  0  0  0
  161.2420  203.1910  147.3670 C   0  0  0  0  0  0  0  0  0  0  0  0
  161.1100  203.4170  148.6700 C   0  0  0  0  0  3  0  0  0  0  0  0
  161.0290  203.9850  145.1430 O   0  0  0  0  0  1  0  0  0  0  0  0
  161.5020  204.3140  146.4140 C   0  0  2  0  0  3  0  0  0  0  0  0
  162.9830  204.6380  146.3460 C   0  0  0  0  0  1  0  0  0  0  0  0
  162.5240  207.1980  150.6310 N   0  0  0  0  0  2  0  0  0  0  0  0
  162.2920  207.9890  149.4260 C   0  0  0  0  0  2  0  0  0  0  0  0
  162.1080  209.3570  149.7760 O   0  0  0  0  0  0  0  0  0  0  0  0
  162.1820  210.3640  148.8330 N   0  0  0  0  0  0  0  0  0  0  0  0
  162.0610  211.5870  149.1580 N   0  0  0  0  0  0  0  0  0  0  0  0
  161.5430  212.2080  146.9860 F   0  0  0  0  0  0  0  0  0  0  0  0
  162.1430  212.6390  148.1560 C   0  0  0  0  0  0  0  0  0  0  0  0
  163.4700  212.9450  147.8980 F   0  0  0  0  0  0  0  0  0  0  0  0
  161.4570  213.7990  148.6180 O   0  0  0  0  0  0  0  0  0  0  0  0
  160.2050  213.7660  149.2420 C   0  0  0  0  0  0  0  0  0  0  0  0
  157.9290  213.5090  149.6420 N   0  0  0  0  0  0  0  0  0  0  0  0
  158.9200  213.5070  148.5670 C   0  0  0  0  0  3  0  0  0  0  0  0
  160.0770  213.9530  150.5010 N   0  0  0  0  0  0  0  0  0  0  0  0
  158.4870  212.8360  151.8630 N   0  0  0  0  0  1  0  0  0  0  0  0
  158.6720  213.8650  150.8560 C   0  0  2  0  0  3  0  0  0  0  0  0
  161.0870  206.4100  152.4620 C   0  0  0  0  0  2  0  0  0  0  0  0
  161.3670  207.6760  152.9830 O   0  0  0  0  0  0  0  0  0  0  0  0
  161.6890  207.9400  155.2330 O   0  0  0  0  0  0  0  0  0  0  0  0
  160.8630  209.0210  154.8810 C   0  0  1  0  0  0  0  0  0  0  0  0
  160.7330  207.6950  154.2240 C   0  0  1  0  0  3  0  0  0  0  0  0
  158.7770  210.1260  155.6960 O   0  0  0  0  0  0  0  0  0  0  0  0
  159.8920  209.3450  155.9680 C   0  0  0  0  0  0  0  0  0  0  0  0
  160.0600  208.8760  157.1240 O   0  0  0  0  0  1  0  0  0  0  0  0
  162.4090  210.8200  155.1800 O   0  0  0  0  0  1  0  0  0  0  0  0
  161.6540  210.1440  154.2200 C   0  0  0  0  0  2  0  0  0  0  0  0
  1  2  1  6  0  0  0
  1 27  1  0  0  0  0
  3  1  1  0  0  0  0
  3  4  1  1  0  0  0
  5  3  1  0  0  0  0
  6  7  1  0  0  0  0
  7  8  2  0  0  0  0
  8  5  1  0  0  0  0
  9 10  1  0  0  0  0
 10 11  1  6  0  0  0
 10  7  1  0  0  0  0
 12  1  1  0  0  0  0
 13 14  1  0  0  0  0
 13 12  1  0  0  0  0
 15 16  2  0  0  0  0
 15 14  1  0  0  0  0
 17 18  1  0  0  0  0
 18 20  1  0  0  0  0
 18 16  1  0  0  0  0
 19 18  1  0  0  0  0
 20 21  1  0  0  0  0
 21 24  2  0  0  0  0
 22 26  1  0  0  0  0
 23 21  1  0  0  0  0
 23 22  2  0  0  0  0
 24 26  1  0  0  0  0
 26 25  1  1  0  0  0
 27 28  1  0  0  0  0
 30 36  1  6  0  0  0
 30 29  1  0  0  0  0
 30 33  1  0  0  0  0
 31 28  1  6  0  0  0
 31 30  1  0  0  0  0
 31 29  1  0  0  0  0
 32 33  2  0  0  0  0
 33 34  1  0  0  0  0
 36 35  1  0  0  0  0
M  END
>  <MODEL>
2

>  <REMARK>
 VINA RESULT:      -6.4      4.281      7.387
  Name = 
  16 active torsions:
  status: ('A' for Active; 'I' for Inactive)
    1  A    between atoms: C_5  and  C_25
    2  A    between atoms: C_6  and  C_22
    3  A    between atoms: C_7  and  O_9
    4  A    between atoms: O_9  and  C_20
    5  A    between atoms: O_10  and  C_23
    6  A    between atoms: O_10  and  C_33
    7  A    between atoms: C_11  and  N_15
    8  A    between atoms: C_11  and  O_17
    9  A    between atoms: O_13  and  C_14
   10  A    between atoms: O_13  and  C_36
   11  A    between atoms: C_14  and  C_27
   12  A    between atoms: N_15  and  C_27
   13  A    between atoms: O_17  and  N_21
   14  A    between atoms: C_20  and  N_35
   15  A    between atoms: C_23  and  C_27
   16  A    between atoms: C_24  and  C_25
                            x       y       z     vdW  Elec       q    Type
                         _______ _______ _______ _____ _____    ______ ____

>  <TORSDO>
F 16

$$$$
=
 OpenBabel11072413323D

 36 37  0  0  1  0  0  0  0  0999 V2000
  161.3640  206.5100  150.5030 C   0  0  1  0  0  0  0  0  0  0  0  0
  160.1950  206.9080  149.8430 O   0  0  0  0  0  1  0  0  0  0  0  0
  161.6360  205.0320  150.1860 C   0  0  1  0  0  3  0  0  0  0  0  0
  160.7110  204.1100  150.9700 C   0  0  0  0  0  1  0  0  0  0  0  0
  161.4990  204.7890  148.7920 O   0  0  0  0  0  0  0  0  0  0  0  0
  160.9980  201.8520  146.5520 C   0  0  0  0  0  1  0  0  0  0  0  0
  161.2650  203.2470  147.0100 C   0  0  0  0  0  0  0  0  0  0  0  0
  161.2720  203.4990  148.3150 C   0  0  0  0  0  3  0  0  0  0  0  0
  160.8420  204.0370  144.8150 O   0  0  0  0  0  1  0  0  0  0  0  0
  161.4870  204.3410  146.0140 C   0  0  2  0  0  3  0  0  0  0  0  0
  162.9690  204.5560  145.7650 C   0  0  0  0  0  1  0  0  0  0  0  0
  162.5030  207.3240  150.0570 N   0  0  0  0  0  2  0  0  0  0  0  0
  162.0630  208.4250  149.2050 C   0  0  0  0  0  2  0  0  0  0  0  0
  161.9100  209.6060  149.9840 O   0  0  0  0  0  0  0  0  0  0  0  0
  162.3040  210.8430  149.5130 N   0  0  0  0  0  0  0  0  0  0  0  0
  161.9390  211.2660  148.3710 N   0  0  0  0  0  0  0  0  0  0  0  0
  163.7400  212.6130  147.8140 F   0  0  0  0  0  0  0  0  0  0  0  0
  162.3600  212.5720  147.8870 C   0  0  0  0  0  0  0  0  0  0  0  0
  161.9240  213.5610  148.7550 F   0  0  0  0  0  0  0  0  0  0  0  0
  161.8280  212.7980  146.5850 O   0  0  0  0  0  0  0  0  0  0  0  0
  160.4590  212.8300  146.2980 C   0  0  0  0  0  0  0  0  0  0  0  0
  158.3920  212.4840  145.2910 N   0  0  0  0  0  0  0  0  0  0  0  0
  159.8230  212.2590  145.0970 C   0  0  0  0  0  3  0  0  0  0  0  0
  159.6180  213.3700  147.0970 N   0  0  0  0  0  0  0  0  0  0  0  0
  157.4180  212.5590  147.4700 N   0  0  0  0  0  1  0  0  0  0  0  0
  158.2840  213.2550  146.5350 C   0  0  2  0  0  3  0  0  0  0  0  0
  161.1680  206.6690  152.0140 C   0  0  0  0  0  2  0  0  0  0  0  0
  160.4900  207.8550  152.3050 O   0  0  0  0  0  0  0  0  0  0  0  0
  161.9410  209.4140  153.1400 O   0  0  0  0  0  0  0  0  0  0  0  0
  160.7140  209.7410  153.7410 C   0  0  1  0  0  0  0  0  0  0  0  0
  161.0960  208.3320  153.4660 C   0  0  1  0  0  3  0  0  0  0  0  0
  160.0170  209.8670  156.1350 O   0  0  0  0  0  1  0  0  0  0  0  0
  160.9020  210.2430  155.1330 C   0  0  0  0  0  0  0  0  0  0  0  0
  161.8870  210.9740  155.4130 O   0  0  0  0  0  0  0  0  0  0  0  0
  158.9480  211.3350  153.5060 O   0  0  0  0  0  1  0  0  0  0  0  0
  159.8030  210.5020  152.7830 C   0  0  0  0  0  2  0  0  0  0  0  0
  1  2  1  6  0  0  0
  1 27  1  0  0  0  0
  3  1  1  0  0  0  0
  3  4  1  1  0  0  0
  5  3  1  0  0  0  0
  6  7  1  0  0  0  0
  7  8  2  0  0  0  0
  8  5  1  0  0  0  0
  9 10  1  0  0  0  0
 10 11  1  6  0  0  0
 10  7  1  0  0  0  0
 12  1  1  0  0  0  0
 13 14  1  0  0  0  0
 13 12  1  0  0  0  0
 15 14  1  0  0  0  0
 16 15  2  0  0  0  0
 17 18  1  0  0  0  0
 18 16  1  0  0  0  0
 18 19  1  0  0  0  0
 20 18  1  0  0  0  0
 21 20  1  0  0  0  0
 21 24  2  0  0  0  0
 22 26  1  0  0  0  0
 23 22  2  0  0  0  0
 23 21  1  0  0  0  0
 26 24  1  0  0  0  0
 26 25  1  1  0  0  0
 27 28  1  0  0  0  0
 29 31  1  0  0  0  0
 29 30  1  0  0  0  0
 30 36  1  6  0  0  0
 30 33  1  0  0  0  0
 31 28  1  6  0  0  0
 31 30  1  0  0  0  0
 33 34  2  0  0  0  0
 33 32  1  0  0  0  0
 36 35  1  0  0  0  0
M  END
>  <MODEL>
3

>  <REMARK>
 VINA RESULT:      -6.4      4.642      6.882
  Name = 
  16 active torsions:
  status: ('A' for Active; 'I' for Inactive)
    1  A    between atoms: C_5  and  C_25
    2  A    between atoms: C_6  and  C_22
    3  A    between atoms: C_7  and  O_9
    4  A    between atoms: O_9  and  C_20
    5  A    between atoms: O_10  and  C_23
    6  A    between atoms: O_10  and  C_33
    7  A    between atoms: C_11  and  N_15
    8  A    between atoms: C_11  and  O_17
    9  A    between atoms: O_13  and  C_14
   10  A    between atoms: O_13  and  C_36
   11  A    between atoms: C_14  and  C_27
   12  A    between atoms: N_15  and  C_27
   13  A    between atoms: O_17  and  N_21
   14  A    between atoms: C_20  and  N_35
   15  A    between atoms: C_23  and  C_27
   16  A    between atoms: C_24  and  C_25
                            x       y       z     vdW  Elec       q    Type
                         _______ _______ _______ _____ _____    ______ ____

>  <TORSDO>
F 16

$$$$
=
 OpenBabel11072413323D

 36 37  0  0  1  0  0  0  0  0999 V2000
  161.3490  206.7100  150.9440 C   0  0  1  0  0  0  0  0  0  0  0  0
  162.7330  206.5320  150.8200 O   0  0  0  0  0  1  0  0  0  0  0  0
  160.8820  206.0760  152.2620 C   0  0  1  0  0  3  0  0  0  0  0  0
  161.1960  204.5860  152.3100 C   0  0  0  0  0  1  0  0  0  0  0  0
  161.4760  206.7360  153.3710 O   0  0  0  0  0  0  0  0  0  0  0  0
  159.9570  208.1050  156.4870 C   0  0  0  0  0  1  0  0  0  0  0  0
  160.6870  208.0340  155.1880 C   0  0  0  0  0  0  0  0  0  0  0  0
  160.7890  206.8580  154.5780 C   0  0  0  0  0  3  0  0  0  0  0  0
  161.9630  209.9880  155.6030 O   0  0  0  0  0  1  0  0  0  0  0  0
  161.3160  209.2600  154.6050 C   0  0  2  0  0  3  0  0  0  0  0  0
  160.2780  210.1300  153.9210 C   0  0  0  0  0  1  0  0  0  0  0  0
  161.0180  208.1420  150.9450 N   0  0  0  0  0  2  0  0  0  0  0  0
  162.1890  208.9540  150.6270 C   0  0  0  0  0  2  0  0  0  0  0  0
  162.3200  209.0780  149.2150 O   0  0  0  0  0  0  0  0  0  0  0  0
  161.7250  210.1120  148.5190 N   0  0  0  0  0  0  0  0  0  0  0  0
  162.2370  211.2760  148.4930 N   0  0  0  0  0  0  0  0  0  0  0  0
  160.3560  211.9450  147.3160 F   0  0  0  0  0  0  0  0  0  0  0  0
  161.6020  212.3570  147.7530 C   0  0  0  0  0  0  0  0  0  0  0  0
  162.3760  212.6980  146.6560 F   0  0  0  0  0  0  0  0  0  0  0  0
  161.4350  213.4890  148.6020 O   0  0  0  0  0  0  0  0  0  0  0  0
  160.2980  213.7130  149.3850 C   0  0  0  0  0  0  0  0  0  0  0  0
  158.1400  214.2510  150.0650 N   0  0  0  0  0  0  0  0  0  0  0  0
  159.0260  214.2820  148.9030 C   0  0  0  0  0  3  0  0  0  0  0  0
  160.2690  213.4160  150.6290 N   0  0  0  0  0  0  0  0  0  0  0  0
  158.3550  212.5870  151.7630 N   0  0  0  0  0  1  0  0  0  0  0  0
  158.9680  213.7630  151.1730 C   0  0  2  0  0  3  0  0  0  0  0  0
  160.6460  206.0120  149.7760 C   0  0  0  0  0  2  0  0  0  0  0  0
  161.5780  205.4630  148.8920 O   0  0  0  0  0  0  0  0  0  0  0  0
  162.5200  206.0280  146.8840 O   0  0  0  0  0  0  0  0  0  0  0  0
  161.4290  205.2190  146.5280 C   0  0  1  0  0  0  0  0  0  0  0  0
  161.3680  206.1400  147.6910 C   0  0  1  0  0  3  0  0  0  0  0  0
  161.5290  205.6810  144.0760 O   0  0  0  0  0  0  0  0  0  0  0  0
  160.7970  205.6780  145.2560 C   0  0  0  0  0  0  0  0  0  0  0  0
  159.5870  206.0240  145.2420 O   0  0  0  0  0  1  0  0  0  0  0  0
  161.1500  202.9940  145.6980 O   0  0  0  0  0  1  0  0  0  0  0  0
  161.7380  203.7380  146.7220 C   0  0  0  0  0  2  0  0  0  0  0  0
  1  2  1  6  0  0  0
  1 12  1  0  0  0  0
  1  3  1  0  0  0  0
  3  4  1  6  0  0  0
  3  5  1  0  0  0  0
  5  8  1  0  0  0  0
  7  6  1  0  0  0  0
  8  7  2  0  0  0  0
 10 11  1  1  0  0  0
 10  7  1  0  0  0  0
 10  9  1  0  0  0  0
 13 12  1  0  0  0  0
 14 13  1  0  0  0  0
 15 14  1  0  0  0  0
 16 15  2  0  0  0  0
 17 18  1  0  0  0  0
 18 16  1  0  0  0  0
 18 20  1  0  0  0  0
 19 18  1  0  0  0  0
 20 21  1  0  0  0  0
 21 24  2  0  0  0  0
 22 26  1  0  0  0  0
 23 21  1  0  0  0  0
 23 22  2  0  0  0  0
 24 26  1  0  0  0  0
 26 25  1  6  0  0  0
 27  1  1  0  0  0  0
 28 27  1  0  0  0  0
 29 31  1  0  0  0  0
 30 36  1  1  0  0  0
 30 29  1  0  0  0  0
 30 31  1  0  0  0  0
 31 28  1  1  0  0  0
 32 33  2  0  0  0  0
 33 30  1  0  0  0  0
 34 33  1  0  0  0  0
 35 36  1  0  0  0  0
M  END
>  <MODEL>
4

>  <REMARK>
 VINA RESULT:      -6.4      4.296      9.621
  Name = 
  16 active torsions:
  status: ('A' for Active; 'I' for Inactive)
    1  A    between atoms: C_5  and  C_25
    2  A    between atoms: C_6  and  C_22
    3  A    between atoms: C_7  and  O_9
    4  A    between atoms: O_9  and  C_20
    5  A    between atoms: O_10  and  C_23
    6  A    between atoms: O_10  and  C_33
    7  A    between atoms: C_11  and  N_15
    8  A    between atoms: C_11  and  O_17
    9  A    between atoms: O_13  and  C_14
   10  A    between atoms: O_13  and  C_36
   11  A    between atoms: C_14  and  C_27
   12  A    between atoms: N_15  and  C_27
   13  A    between atoms: O_17  and  N_21
   14  A    between atoms: C_20  and  N_35
   15  A    between atoms: C_23  and  C_27
   16  A    between atoms: C_24  and  C_25
                            x       y       z     vdW  Elec       q    Type
                         _______ _______ _______ _____ _____    ______ ____

>  <TORSDO>
F 16

$$$$
=
 OpenBabel11072413323D

 36 37  0  0  1  0  0  0  0  0999 V2000
  161.5230  207.5240  150.9620 C   0  0  1  0  0  0  0  0  0  0  0  0
  162.9090  207.3400  150.8890 O   0  0  0  0  0  1  0  0  0  0  0  0
  160.9750  206.7120  152.1450 C   0  0  1  0  0  3  0  0  0  0  0  0
  161.7180  205.3930  152.3130 C   0  0  0  0  0  1  0  0  0  0  0  0
  161.0500  207.4690  153.3450 O   0  0  0  0  0  0  0  0  0  0  0  0
  160.1880  207.0020  156.9420 C   0  0  0  0  0  1  0  0  0  0  0  0
  160.7290  207.6030  155.6880 C   0  0  0  0  0  0  0  0  0  0  0  0
  160.5470  206.9570  154.5410 C   0  0  0  0  0  3  0  0  0  0  0  0
  162.3070  208.9280  156.8620 O   0  0  0  0  0  1  0  0  0  0  0  0
  161.4880  208.8920  155.7340 C   0  0  2  0  0  3  0  0  0  0  0  0
  160.5430  210.0790  155.7430 C   0  0  0  0  0  1  0  0  0  0  0  0
  161.2060  208.9460  151.1550 N   0  0  0  0  0  2  0  0  0  0  0  0
  162.2550  209.7990  150.6040 C   0  0  0  0  0  2  0  0  0  0  0  0
  161.9090  210.1940  149.2810 O   0  0  0  0  0  0  0  0  0  0  0  0
  162.4360  211.3310  148.7020 N   0  0  0  0  0  0  0  0  0  0  0  0
  161.7860  211.9970  147.8350 N   0  0  0  0  0  0  0  0  0  0  0  0
  163.1210  212.8420  146.1390 F   0  0  0  0  0  0  0  0  0  0  0  0
  162.3520  213.1950  147.2330 C   0  0  0  0  0  0  0  0  0  0  0  0
  163.1510  213.8550  148.1530 F   0  0  0  0  0  0  0  0  0  0  0  0
  161.3040  214.0550  146.7940 O   0  0  0  0  0  0  0  0  0  0  0  0
  160.1930  213.6170  146.0650 C   0  0  0  0  0  0  0  0  0  0  0  0
  158.8460  212.5910  144.4710 N   0  0  0  0  0  0  0  0  0  0  0  0
  160.2440  212.8740  144.7930 C   0  0  0  0  0  3  0  0  0  0  0  0
  158.9980  213.8270  146.4710 N   0  0  0  0  0  0  0  0  0  0  0  0
  157.2000  212.3060  146.1770 N   0  0  0  0  0  1  0  0  0  0  0  0
  158.0620  213.2660  145.5130 C   0  0  2  0  0  3  0  0  0  0  0  0
  160.8790  207.0170  149.6680 C   0  0  0  0  0  2  0  0  0  0  0  0
  161.7930  206.2720  148.9180 O   0  0  0  0  0  0  0  0  0  0  0  0
  160.5650  205.3570  147.2170 O   0  0  0  0  0  0  0  0  0  0  0  0
  161.6880  204.5170  147.3120 C   0  0  1  0  0  0  0  0  0  0  0  0
  161.0810  205.1430  148.5140 C   0  0  1  0  0  3  0  0  0  0  0  0
  161.0980  202.6830  145.7230 O   0  0  0  0  0  0  0  0  0  0  0  0
  161.3350  203.0960  147.0270 C   0  0  0  0  0  0  0  0  0  0  0  0
  161.2930  202.2570  147.9640 O   0  0  0  0  0  1  0  0  0  0  0  0
  162.5340  205.7800  145.4660 O   0  0  0  0  0  1  0  0  0  0  0  0
  162.9120  205.1360  146.6450 C   0  0  0  0  0  2  0  0  0  0  0  0
  1  2  1  6  0  0  0
  1 12  1  0  0  0  0
  1  3  1  0  0  0  0
  3  4  1  1  0  0  0
  3  5  1  0  0  0  0
  5  8  1  0  0  0  0
  7 10  1  0  0  0  0
  7  6  1  0  0  0  0
  8  7  2  0  0  0  0
 10 11  1  1  0  0  0
 10  9  1  0  0  0  0
 13 12  1  0  0  0  0
 14 13  1  0  0  0  0
 15 14  1  0  0  0  0
 16 15  2  0  0  0  0
 17 18  1  0  0  0  0
 18 16  1  0  0  0  0
 18 19  1  0  0  0  0
 20 18  1  0  0  0  0
 21 24  2  0  0  0  0
 21 20  1  0  0  0  0
 22 23  2  0  0  0  0
 22 26  1  0  0  0  0
 23 21  1  0  0  0  0
 26 25  1  1  0  0  0
 26 24  1  0  0  0  0
 27  1  1  0  0  0  0
 28 27  1  0  0  0  0
 29 30  1  0  0  0  0
 29 31  1  0  0  0  0
 30 36  1  6  0  0  0
 30 31  1  0  0  0  0
 31 28  1  6  0  0  0
 32 33  2  0  0  0  0
 33 30  1  0  0  0  0
 33 34  1  0  0  0  0
 35 36  1  0  0  0  0
M  END
>  <MODEL>
5

>  <REMARK>
 VINA RESULT:      -6.4      5.086      9.597
  Name = 
  16 active torsions:
  status: ('A' for Active; 'I' for Inactive)
    1  A    between atoms: C_5  and  C_25
    2  A    between atoms: C_6  and  C_22
    3  A    between atoms: C_7  and  O_9
    4  A    between atoms: O_9  and  C_20
    5  A    between atoms: O_10  and  C_23
    6  A    between atoms: O_10  and  C_33
    7  A    between atoms: C_11  and  N_15
    8  A    between atoms: C_11  and  O_17
    9  A    between atoms: O_13  and  C_14
   10  A    between atoms: O_13  and  C_36
   11  A    between atoms: C_14  and  C_27
   12  A    between atoms: N_15  and  C_27
   13  A    between atoms: O_17  and  N_21
   14  A    between atoms: C_20  and  N_35
   15  A    between atoms: C_23  and  C_27
   16  A    between atoms: C_24  and  C_25
                            x       y       z     vdW  Elec       q    Type
                         _______ _______ _______ _____ _____    ______ ____

>  <TORSDO>
F 16

$$$$
=
 OpenBabel11072413323D

 36 37  0  0  1  0  0  0  0  0999 V2000
  161.3430  210.0440  152.2240 C   0  0  1  0  0  0  0  0  0  0  0  0
  162.2520  210.2430  153.2710 O   0  0  0  0  0  1  0  0  0  0  0  0
  162.1020  210.0940  150.8900 C   0  0  1  0  0  3  0  0  0  0  0  0
  162.0760  208.7480  150.1780 C   0  0  0  0  0  1  0  0  0  0  0  0
  161.5600  211.1020  150.0470 O   0  0  0  0  0  0  0  0  0  0  0  0
  162.5860  212.9790  146.9940 C   0  0  0  0  0  1  0  0  0  0  0  0
  161.8020  212.5510  148.1890 C   0  0  0  0  0  0  0  0  0  0  0  0
  162.2650  211.5500  148.9300 C   0  0  0  0  0  3  0  0  0  0  0  0
  159.8960  213.6920  147.3610 O   0  0  0  0  0  1  0  0  0  0  0  0
  160.5070  213.2210  148.5230 C   0  0  2  0  0  3  0  0  0  0  0  0
  160.7210  214.3660  149.4950 C   0  0  0  0  0  1  0  0  0  0  0  0
  160.6840  208.7370  152.3630 N   0  0  0  0  0  2  0  0  0  0  0  0
  160.9810  208.1330  153.6590 C   0  0  0  0  0  2  0  0  0  0  0  0
  161.9020  207.0620  153.4910 O   0  0  0  0  0  0  0  0  0  0  0  0
  161.4800  205.7820  153.1880 N   0  0  0  0  0  0  0  0  0  0  0  0
  161.5680  205.3160  152.0080 N   0  0  0  0  0  0  0  0  0  0  0  0
  160.3060  203.5080  152.7210 F   0  0  0  0  0  0  0  0  0  0  0  0
  161.1220  203.9650  151.7020 C   0  0  0  0  0  0  0  0  0  0  0  0
  162.2150  203.1210  151.5850 F   0  0  0  0  0  0  0  0  0  0  0  0
  160.3770  203.9670  150.4880 O   0  0  0  0  0  0  0  0  0  0  0  0
  160.9240  204.2840  149.2400 C   0  0  0  0  0  0  0  0  0  0  0  0
  161.8290  204.1160  147.1050 N   0  0  0  0  0  0  0  0  0  0  0  0
  161.4340  203.3100  148.2580 C   0  0  0  0  0  3  0  0  0  0  0  0
  161.0150  205.4930  148.8330 N   0  0  0  0  0  0  0  0  0  0  0  0
  160.7330  206.1700  146.5760 N   0  0  0  0  0  1  0  0  0  0  0  0
  161.6220  205.5100  147.5150 C   0  0  2  0  0  3  0  0  0  0  0  0
  160.2960  211.1620  152.2460 C   0  0  0  0  0  2  0  0  0  0  0  0
  160.5000  212.0120  153.3360 O   0  0  0  0  0  0  0  0  0  0  0  0
  158.7080  211.0090  154.3440 O   0  0  0  0  0  0  0  0  0  0  0  0
  159.1710  211.9180  155.3090 C   0  0  1  0  0  0  0  0  0  0  0  0
  159.2260  212.2280  153.8580 C   0  0  1  0  0  3  0  0  0  0  0  0
  157.0380  211.6890  156.5870 O   0  0  0  0  0  1  0  0  0  0  0  0
  158.0460  212.5060  156.0940 C   0  0  0  0  0  0  0  0  0  0  0  0
  158.0300  213.7390  156.3460 O   0  0  0  0  0  0  0  0  0  0  0  0
  160.0470  210.2900  156.8250 O   0  0  0  0  0  1  0  0  0  0  0  0
  160.4000  211.3880  156.0390 C   0  0  0  0  0  2  0  0  0  0  0  0
  1 27  1  0  0  0  0
  1 12  1  0  0  0  0
  1  2  1  1  0  0  0
  3  4  1  6  0  0  0
  3  1  1  0  0  0  0
  5  3  1  0  0  0  0
  6  7  1  0  0  0  0
  7 10  1  0  0  0  0
  7  8  2  0  0  0  0
  8  5  1  0  0  0  0
  9 10  1  0  0  0  0
 10 11  1  1  0  0  0
 12 13  1  0  0  0  0
 14 13  1  0  0  0  0
 15 14  1  0  0  0  0
 16 15  2  0  0  0  0
 18 16  1  0  0  0  0
 18 17  1  0  0  0  0
 19 18  1  0  0  0  0
 20 18  1  0  0  0  0
 21 20  1  0  0  0  0
 22 26  1  0  0  0  0
 22 23  2  0  0  0  0
 23 21  1  0  0  0  0
 24 21  2  0  0  0  0
 26 25  1  6  0  0  0
 26 24  1  0  0  0  0
 27 28  1  0  0  0  0
 29 30  1  0  0  0  0
 30 36  1  1  0  0  0
 30 33  1  0  0  0  0
 31 28  1  6  0  0  0
 31 29  1  0  0  0  0
 31 30  1  0  0  0  0
 33 34  2  0  0  0  0
 33 32  1  0  0  0  0
 36 35  1  0  0  0  0
M  END
>  <MODEL>
6

>  <REMARK>
 VINA RESULT:      -6.3      2.713      4.479
  Name = 
  16 active torsions:
  status: ('A' for Active; 'I' for Inactive)
    1  A    between atoms: C_5  and  C_25
    2  A    between atoms: C_6  and  C_22
    3  A    between atoms: C_7  and  O_9
    4  A    between atoms: O_9  and  C_20
    5  A    between atoms: O_10  and  C_23
    6  A    between atoms: O_10  and  C_33
    7  A    between atoms: C_11  and  N_15
    8  A    between atoms: C_11  and  O_17
    9  A    between atoms: O_13  and  C_14
   10  A    between atoms: O_13  and  C_36
   11  A    between atoms: C_14  and  C_27
   12  A    between atoms: N_15  and  C_27
   13  A    between atoms: O_17  and  N_21
   14  A    between atoms: C_20  and  N_35
   15  A    between atoms: C_23  and  C_27
   16  A    between atoms: C_24  and  C_25
                            x       y       z     vdW  Elec       q    Type
                         _______ _______ _______ _____ _____    ______ ____

>  <TORSDO>
F 16

$$$$
=
 OpenBabel11072413323D

 36 37  0  0  1  0  0  0  0  0999 V2000
  161.8890  207.8800  150.6160 C   0  0  1  0  0  0  0  0  0  0  0  0
  163.0920  207.3290  151.0760 O   0  0  0  0  0  1  0  0  0  0  0  0
  162.1240  208.5000  149.2310 C   0  0  1  0  0  3  0  0  0  0  0  0
  161.2820  207.8170  148.1610 C   0  0  0  0  0  1  0  0  0  0  0  0
  161.8440  209.8930  149.2550 O   0  0  0  0  0  0  0  0  0  0  0  0
  163.1240  212.8870  147.4400 C   0  0  0  0  0  1  0  0  0  0  0  0
  162.2020  211.9670  148.1680 C   0  0  0  0  0  0  0  0  0  0  0  0
  162.6710  210.7950  148.5870 C   0  0  0  0  0  3  0  0  0  0  0  0
  160.1120  212.4660  147.1680 O   0  0  0  0  0  1  0  0  0  0  0  0
  160.7730  212.3480  148.3910 C   0  0  2  0  0  3  0  0  0  0  0  0
  160.6720  213.6510  149.1620 C   0  0  0  0  0  1  0  0  0  0  0  0
  160.8560  206.8390  150.5190 N   0  0  0  0  0  2  0  0  0  0  0  0
  161.4240  205.5120  150.7350 C   0  0  0  0  0  2  0  0  0  0  0  0
  160.3790  204.5500  150.8260 O   0  0  0  0  0  0  0  0  0  0  0  0
  160.4070  203.3770  150.0970 N   0  0  0  0  0  0  0  0  0  0  0  0
  160.8430  203.3470  148.9030 N   0  0  0  0  0  0  0  0  0  0  0  0
  159.5820  201.6160  148.0190 F   0  0  0  0  0  0  0  0  0  0  0  0
  160.8690  202.1040  148.1470 C   0  0  0  0  0  0  0  0  0  0  0  0
  161.6460  201.1650  148.8060 F   0  0  0  0  0  0  0  0  0  0  0  0
  161.3960  202.3430  146.8450 O   0  0  0  0  0  0  0  0  0  0  0  0
  161.5560  203.6190  146.2920 C   0  0  0  0  0  0  0  0  0  0  0  0
  162.4100  205.7120  145.7480 N   0  0  0  0  0  0  0  0  0  0  0  0
  162.6370  204.5650  146.6250 C   0  0  0  0  0  3  0  0  0  0  0  0
  160.7510  204.0750  145.4100 N   0  0  0  0  0  0  0  0  0  0  0  0
  161.3990  205.4670  143.5990 N   0  0  0  0  0  1  0  0  0  0  0  0
  161.1650  205.4140  145.0310 C   0  0  2  0  0  3  0  0  0  0  0  0
  161.4360  208.9770  151.5840 C   0  0  0  0  0  2  0  0  0  0  0  0
  161.4700  208.5200  152.9040 O   0  0  0  0  0  0  0  0  0  0  0  0
  160.2150  209.7410  154.3780 O   0  0  0  0  0  0  0  0  0  0  0  0
  161.3420  209.3630  155.1270 C   0  0  1  0  0  0  0  0  0  0  0  0
  161.4400  209.6790  153.6790 C   0  0  1  0  0  3  0  0  0  0  0  0
  163.0760  210.5800  156.4490 O   0  0  0  0  0  0  0  0  0  0  0  0
  161.7440  210.4300  156.0900 C   0  0  0  0  0  0  0  0  0  0  0  0
  160.8810  211.2250  156.5460 O   0  0  0  0  0  1  0  0  0  0  0  0
  159.9650  207.6730  156.1080 O   0  0  0  0  0  1  0  0  0  0  0  0
  161.2430  207.9180  155.6050 C   0  0  0  0  0  2  0  0  0  0  0  0
  1  2  1  1  0  0  0
  1 27  1  0  0  0  0
  3  4  1  6  0  0  0
  3  5  1  0  0  0  0
  3  1  1  0  0  0  0
  6  7  1  0  0  0  0
  7 10  1  0  0  0  0
  7  8  2  0  0  0  0
  8  5  1  0  0  0  0
  9 10  1  0  0  0  0
 10 11  1  6  0  0  0
 12  1  1  0  0  0  0
 12 13  1  0  0  0  0
 13 14  1  0  0  0  0
 15 14  1  0  0  0  0
 16 15  2  0  0  0  0
 17 18  1  0  0  0  0
 18 19  1  0  0  0  0
 18 16  1  0  0  0  0
 20 18  1  0  0  0  0
 21 23  1  0  0  0  0
 21 20  1  0  0  0  0
 22 23  2  0  0  0  0
 24 21  2  0  0  0  0
 26 25  1  6  0  0  0
 26 24  1  0  0  0  0
 26 22  1  0  0  0  0
 27 28  1  0  0  0  0
 29 30  1  0  0  0  0
 30 36  1  1  0  0  0
 30 33  1  0  0  0  0
 31 28  1  6  0  0  0
 31 29  1  0  0  0  0
 31 30  1  0  0  0  0
 33 32  2  0  0  0  0
 33 34  1  0  0  0  0
 36 35  1  0  0  0  0
M  END
>  <MODEL>
7

>  <REMARK>
 VINA RESULT:      -6.1      2.524      3.959
  Name = 
  16 active torsions:
  status: ('A' for Active; 'I' for Inactive)
    1  A    between atoms: C_5  and  C_25
    2  A    between atoms: C_6  and  C_22
    3  A    between atoms: C_7  and  O_9
    4  A    between atoms: O_9  and  C_20
    5  A    between atoms: O_10  and  C_23
    6  A    between atoms: O_10  and  C_33
    7  A    between atoms: C_11  and  N_15
    8  A    between atoms: C_11  and  O_17
    9  A    between atoms: O_13  and  C_14
   10  A    between atoms: O_13  and  C_36
   11  A    between atoms: C_14  and  C_27
   12  A    between atoms: N_15  and  C_27
   13  A    between atoms: O_17  and  N_21
   14  A    between atoms: C_20  and  N_35
   15  A    between atoms: C_23  and  C_27
   16  A    between atoms: C_24  and  C_25
                            x       y       z     vdW  Elec       q    Type
                         _______ _______ _______ _____ _____    ______ ____

>  <TORSDO>
F 16

$$$$
=
 OpenBabel11072413323D

 36 37  0  0  1  0  0  0  0  0999 V2000
  161.5910  208.8620  152.3400 C   0  0  1  0  0  0  0  0  0  0  0  0
  160.2380  208.8520  151.9780 O   0  0  0  0  0  1  0  0  0  0  0  0
  161.8830  207.6280  153.2070 C   0  0  1  0  0  3  0  0  0  0  0  0
  160.7650  207.3690  154.2090 C   0  0  0  0  0  1  0  0  0  0  0  0
  162.0810  206.4820  152.3900 O   0  0  0  0  0  0  0  0  0  0  0  0
  160.6820  203.0270  152.3840 C   0  0  0  0  0  1  0  0  0  0  0  0
  161.1940  204.3410  151.8990 C   0  0  0  0  0  0  0  0  0  0  0  0
  161.6100  205.2330  152.7920 C   0  0  0  0  0  3  0  0  0  0  0  0
  160.3270  205.7020  150.1620 O   0  0  0  0  0  1  0  0  0  0  0  0
  161.2070  204.6550  150.4360 C   0  0  2  0  0  3  0  0  0  0  0  0
  160.8310  203.4350  149.6150 C   0  0  0  0  0  1  0  0  0  0  0  0
  162.4390  208.8300  151.1400 N   0  0  0  0  0  2  0  0  0  0  0  0
  161.6360  208.9220  149.9250 C   0  0  0  0  0  2  0  0  0  0  0  0
  162.3530  208.3620  148.8300 O   0  0  0  0  0  0  0  0  0  0  0  0
  161.7380  207.5510  147.8970 N   0  0  0  0  0  0  0  0  0  0  0  0
  162.3470  206.5680  147.3660 N   0  0  0  0  0  0  0  0  0  0  0  0
  162.0090  206.1510  145.1130 F   0  0  0  0  0  0  0  0  0  0  0  0
  161.6870  205.7200  146.3860 C   0  0  0  0  0  0  0  0  0  0  0  0
  160.3120  205.7860  146.5520 F   0  0  0  0  0  0  0  0  0  0  0  0
  162.1310  204.3740  146.5370 O   0  0  0  0  0  0  0  0  0  0  0  0
  161.3830  203.2590  146.1430 C   0  0  0  0  0  0  0  0  0  0  0  0
  160.0770  201.7850  144.9070 N   0  0  0  0  0  0  0  0  0  0  0  0
  160.6210  203.1410  144.8860 C   0  0  0  0  0  3  0  0  0  0  0  0
  161.3090  202.2090  146.8690 N   0  0  0  0  0  0  0  0  0  0  0  0
  161.2080  199.9970  146.0140 N   0  0  0  0  0  1  0  0  0  0  0  0
  160.4650  201.2290  146.2090 C   0  0  2  0  0  3  0  0  0  0  0  0
  161.8850  210.1260  153.1540 C   0  0  0  0  0  2  0  0  0  0  0  0
  160.7960  211.0000  153.1250 O   0  0  0  0  0  0  0  0  0  0  0  0
  160.2120  212.1760  154.9990 O   0  0  0  0  0  0  0  0  0  0  0  0
  158.9860  211.7060  154.5010 C   0  0  1  0  0  0  0  0  0  0  0  0
  160.2290  210.9010  154.3940 C   0  0  1  0  0  3  0  0  0  0  0  0
  156.8470  210.7130  155.3220 O   0  0  0  0  0  0  0  0  0  0  0  0
  158.0400  211.3650  155.6040 C   0  0  0  0  0  0  0  0  0  0  0  0
  158.3410  211.6290  156.7970 O   0  0  0  0  0  1  0  0  0  0  0  0
  157.7650  213.6360  153.7920 O   0  0  0  0  0  1  0  0  0  0  0  0
  158.4970  212.5440  153.3240 C   0  0  0  0  0  2  0  0  0  0  0  0
  1  2  1  6  0  0  0
  1 27  1  0  0  0  0
  1  3  1  0  0  0  0
  3  4  1  1  0  0  0
  5  8  1  0  0  0  0
  5  3  1  0  0  0  0
  7  6  1  0  0  0  0
  7  8  2  0  0  0  0
  9 10  1  0  0  0  0
 10 11  1  6  0  0  0
 10  7  1  0  0  0  0
 12  1  1  0  0  0  0
 13 12  1  0  0  0  0
 14 13  1  0  0  0  0
 15 14  1  0  0  0  0
 16 15  2  0  0  0  0
 17 18  1  0  0  0  0
 18 20  1  0  0  0  0
 18 19  1  0  0  0  0
 18 16  1  0  0  0  0
 21 20  1  0  0  0  0
 21 24  2  0  0  0  0
 22 26  1  0  0  0  0
 23 22  2  0  0  0  0
 23 21  1  0  0  0  0
 26 25  1  6  0  0  0
 26 24  1  0  0  0  0
 28 27  1  0  0  0  0
 30 36  1  6  0  0  0
 30 29  1  0  0  0  0
 30 33  1  0  0  0  0
 31 28  1  6  0  0  0
 31 30  1  0  0  0  0
 31 29  1  0  0  0  0
 32 33  2  0  0  0  0
 33 34  1  0  0  0  0
 36 35  1  0  0  0  0
M  END
>  <MODEL>
8

>  <REMARK>
 VINA RESULT:      -6.0      2.280      3.987
  Name = 
  16 active torsions:
  status: ('A' for Active; 'I' for Inactive)
    1  A    between atoms: C_5  and  C_25
    2  A    between atoms: C_6  and  C_22
    3  A    between atoms: C_7  and  O_9
    4  A    between atoms: O_9  and  C_20
    5  A    between atoms: O_10  and  C_23
    6  A    between atoms: O_10  and  C_33
    7  A    between atoms: C_11  and  N_15
    8  A    between atoms: C_11  and  O_17
    9  A    between atoms: O_13  and  C_14
   10  A    between atoms: O_13  and  C_36
   11  A    between atoms: C_14  and  C_27
   12  A    between atoms: N_15  and  C_27
   13  A    between atoms: O_17  and  N_21
   14  A    between atoms: C_20  and  N_35
   15  A    between atoms: C_23  and  C_27
   16  A    between atoms: C_24  and  C_25
                            x       y       z     vdW  Elec       q    Type
                         _______ _______ _______ _____ _____    ______ ____

>  <TORSDO>
F 16

$$$$
=
 OpenBabel11072413323D

 36 37  0  0  1  0  0  0  0  0999 V2000
  161.6960  207.2970  149.4760 C   0  0  1  0  0  0  0  0  0  0  0  0
  162.9690  207.3760  148.8970 O   0  0  0  0  0  1  0  0  0  0  0  0
  161.7850  206.4590  150.7600 C   0  0  1  0  0  3  0  0  0  0  0  0
  161.2800  207.2330  151.9720 C   0  0  0  0  0  1  0  0  0  0  0  0
  161.0540  205.2490  150.6160 O   0  0  0  0  0  0  0  0  0  0  0  0
  161.5900  201.6950  151.6070 C   0  0  0  0  0  1  0  0  0  0  0  0
  161.1720  202.8920  150.8200 C   0  0  0  0  0  0  0  0  0  0  0  0
  161.4390  204.1000  151.3060 C   0  0  0  0  0  3  0  0  0  0  0  0
  159.7190  201.5350  149.5290 O   0  0  0  0  0  1  0  0  0  0  0  0
  160.4410  202.7280  149.5250 C   0  0  2  0  0  3  0  0  0  0  0  0
  161.4040  202.7460  148.3510 C   0  0  0  0  0  1  0  0  0  0  0  0
  161.1990  208.6420  149.8020 N   0  0  0  0  0  2  0  0  0  0  0  0
  162.0680  209.6730  149.2420 C   0  0  0  0  0  2  0  0  0  0  0  0
  162.1290  210.7840  150.1290 O   0  0  0  0  0  0  0  0  0  0  0  0
  161.5790  210.7340  151.3950 N   0  0  0  0  0  0  0  0  0  0  0  0
  160.7340  211.6010  151.7870 N   0  0  0  0  0  0  0  0  0  0  0  0
  159.1210  210.6220  153.1330 F   0  0  0  0  0  0  0  0  0  0  0  0
  160.1600  211.5350  153.1230 C   0  0  0  0  0  0  0  0  0  0  0  0
  159.6740  212.7790  153.4910 F   0  0  0  0  0  0  0  0  0  0  0  0
  161.1520  211.1060  154.0520 O   0  0  0  0  0  0  0  0  0  0  0  0
  160.9150  210.1720  155.0660 C   0  0  0  0  0  0  0  0  0  0  0  0
  160.1120  209.1320  156.9860 N   0  0  0  0  0  0  0  0  0  0  0  0
  160.1230  210.4160  156.2860 C   0  0  0  0  0  3  0  0  0  0  0  0
  161.3750  208.9800  155.0030 N   0  0  0  0  0  0  0  0  0  0  0  0
  160.2330  207.0600  155.8060 N   0  0  0  0  0  1  0  0  0  0  0  0
  160.9730  208.2480  156.1910 C   0  0  2  0  0  3  0  0  0  0  0  0
  160.7390  206.6100  148.4970 C   0  0  0  0  0  2  0  0  0  0  0  0
  161.2080  206.7210  147.1850 O   0  0  0  0  0  0  0  0  0  0  0  0
  160.4140  206.2230  145.0970 O   0  0  0  0  0  0  0  0  0  0  0  0
  161.2180  205.1190  145.4240 C   0  0  1  0  0  0  0  0  0  0  0  0
  160.4200  205.8320  146.4530 C   0  0  1  0  0  3  0  0  0  0  0  0
  161.1990  202.6280  145.2500 O   0  0  0  0  0  1  0  0  0  0  0  0
  160.6540  203.8500  144.8780 C   0  0  0  0  0  0  0  0  0  0  0  0
  159.6560  203.8810  144.1120 O   0  0  0  0  0  0  0  0  0  0  0  0
  163.4530  204.7150  146.1710 O   0  0  0  0  0  1  0  0  0  0  0  0
  162.7000  205.4250  145.2350 C   0  0  0  0  0  2  0  0  0  0  0  0
  1  2  1  6  0  0  0
  1 12  1  0  0  0  0
  1  3  1  0  0  0  0
  3  4  1  1  0  0  0
  5  3  1  0  0  0  0
  5  8  1  0  0  0  0
  7  8  2  0  0  0  0
  7  6  1  0  0  0  0
 10 11  1  6  0  0  0
 10  9  1  0  0  0  0
 10  7  1  0  0  0  0
 13 12  1  0  0  0  0
 13 14  1  0  0  0  0
 14 15  1  0  0  0  0
 15 16  2  0  0  0  0
 16 18  1  0  0  0  0
 18 17  1  0  0  0  0
 18 19  1  0  0  0  0
 18 20  1  0  0  0  0
 20 21  1  0  0  0  0
 21 23  1  0  0  0  0
 23 22  2  0  0  0  0
 24 21  2  0  0  0  0
 24 26  1  0  0  0  0
 26 25  1  6  0  0  0
 26 22  1  0  0  0  0
 27  1  1  0  0  0  0
 28 27  1  0  0  0  0
 29 30  1  0  0  0  0
 29 31  1  0  0  0  0
 30 36  1  1  0  0  0
 30 31  1  0  0  0  0
 31 28  1  1  0  0  0
 33 32  1  0  0  0  0
 33 30  1  0  0  0  0
 34 33  2  0  0  0  0
 36 35  1  0  0  0  0
M  END
>  <MODEL>
9

>  <REMARK>
 VINA RESULT:      -6.0      4.015      9.023
  Name = 
  16 active torsions:
  status: ('A' for Active; 'I' for Inactive)
    1  A    between atoms: C_5  and  C_25
    2  A    between atoms: C_6  and  C_22
    3  A    between atoms: C_7  and  O_9
    4  A    between atoms: O_9  and  C_20
    5  A    between atoms: O_10  and  C_23
    6  A    between atoms: O_10  and  C_33
    7  A    between atoms: C_11  and  N_15
    8  A    between atoms: C_11  and  O_17
    9  A    between atoms: O_13  and  C_14
   10  A    between atoms: O_13  and  C_36
   11  A    between atoms: C_14  and  C_27
   12  A    between atoms: N_15  and  C_27
   13  A    between atoms: O_17  and  N_21
   14  A    between atoms: C_20  and  N_35
   15  A    between atoms: C_23  and  C_27
   16  A    between atoms: C_24  and  C_25
                            x       y       z     vdW  Elec       q    Type
                         _______ _______ _______ _____ _____    ______ ____

>  <TORSDO>
F 16

$$$$
