=
 OpenBabel11072414583D

 65 68  0  0  1  0  0  0  0  0999 V2000
  162.6590  204.0270  144.4730 O   0  0  0  0  0  0  0  0  0  0  0  0
  161.9990  206.0860  143.3550 C   0  0  2  0  0  3  0  0  0  0  0  0
  159.5970  205.7770  146.7430 C   0  0  1  0  0  3  0  0  0  0  0  0
  161.8750  203.9770  145.6370 C   0  0  1  0  0  3  0  0  0  0  0  0
  159.8620  205.0870  144.4320 C   0  0  2  0  0  3  0  0  0  0  0  0
  159.6190  206.3060  145.3130 C   0  0  0  0  0  2  0  0  0  0  0  0
  160.3590  203.9340  145.3170 C   0  0  2  0  0  3  0  0  0  0  0  0
  159.5930  204.2550  146.6010 C   0  0  0  0  0  2  0  0  0  0  0  0
  162.9490  205.3840  144.3400 C   0  0  0  0  0  2  0  0  0  0  0  0
  160.6750  205.3440  143.1660 C   0  0  0  0  0  2  0  0  0  0  0  0
  163.9790  205.2250  148.7380 C   0  0  0  0  0  2  0  0  0  0  0  0
  162.9150  207.2510  147.8160 C   0  0  0  0  0  2  0  0  0  0  0  0
  161.7220  207.3320  146.8790 C   0  0  1  0  0  3  0  0  0  0  0  0
  161.8390  205.1040  147.6790 N   0  0  0  0  0  2  0  0  0  0  0  0
  163.0530  205.7800  147.9690 C   0  0  0  0  0  0  0  0  0  0  0  0
  160.8900  206.1790  147.4390 C   0  0  2  0  0  3  0  0  0  0  0  0
  161.0740  208.5630  146.9790 O   0  0  0  0  0  0  0  0  0  0  0  0
  161.0130  208.9470  148.3520 C   0  0  2  0  0  3  0  0  0  0  0  0
  160.8980  211.4010  148.0660 O   0  0  0  0  0  0  0  0  0  0  0  0
  162.5000  210.5480  149.4430 O   0  0  0  0  0  1  0  0  0  0  0  0
  161.5290  210.3320  148.6640 C   0  0  0  0  0  0  0  0  0  0  0  0
  161.4710  207.6490  149.5620 S   0  0  2  0  0  0  0  0  0  0  0  0
  160.1630  206.9120  149.8060 O   0  0  0  0  0  0  0  0  0  0  0  0
  160.7890  209.3530  151.4830 F   0  0  0  0  0  0  0  0  0  0  0  0
  161.8280  208.4920  151.1530 C   0  0  1  0  0  3  0  0  0  0  0  0
  162.0670  207.4520  152.2390 C   0  0  0  0  0  2  0  0  0  0  0  0
  161.3150  207.7200  153.5450 C   0  0  0  0  0  2  0  0  0  0  0  0
  162.1400  207.4330  154.7210 N   0  0  0  0  0  2  0  0  0  0  0  0
  161.4290  207.9970  155.8560 C   0  0  0  0  0  2  0  0  0  0  0  0
  159.9320  207.8570  155.6490 C   0  0  0  0  0  2  0  0  0  0  0  0
  159.1340  208.9170  156.3980 C   0  0  0  0  0  2  0  0  0  0  0  0
  158.5790  211.3160  155.9110 C   0  0  0  0  0  0  0  0  0  0  0  0
  159.4340  210.2830  155.8690 C   0  0  0  0  0  3  0  0  0  0  0  0
  157.6430  213.6250  154.5090 O   0  0  0  0  0  1  0  0  0  0  0  0
  159.0350  212.7670  154.9620 P   0  0  0  0  0  0  0  0  0  0  0  0
  159.9900  213.7710  155.9420 O   0  0  0  0  0  1  0  0  0  0  0  0
  159.8200  212.3810  153.7170 O   0  0  0  0  0  0  0  0  0  0  0  0
  157.1600  211.1780  156.3670 C   0  0  0  0  0  2  0  0  0  0  0  0
  155.4680  210.7670  154.8120 O   0  0  0  0  0  0  0  0  0  0  0  0
  156.2200  211.5970  155.2990 C   0  0  0  0  0  3  0  0  0  0  0  0
  163.0250  209.3820  140.4950 C   0  0  0  0  0  1  0  0  0  0  0  0
  162.6640  206.1700  142.0360 C   0  0  0  0  0  3  0  0  0  0  0  0
  162.4280  207.1600  141.2190 C   0  0  0  0  0  0  0  0  0  0  0  0
  162.2490  208.1130  140.3440 C   0  0  0  0  0  0  0  0  0  0  0  0
  161.7180  207.7700  138.9860 C   0  0  1  0  0  3  0  0  0  0  0  0
  162.1570  206.4990  138.5840 O   0  0  0  0  0  1  0  0  0  0  0  0
  160.3180  207.8360  138.9790 O   0  0  0  0  0  0  0  0  0  0  0  0
  159.9740  208.7900  137.9870 C   0  0  0  0  0  2  0  0  0  0  0  0
  158.7990  209.6840  138.4540 C   0  0  1  0  0  3  0  0  0  0  0  0
  158.7390  211.8020  137.2970 O   0  0  0  0  0  1  0  0  0  0  0  0
  159.2000  211.1720  138.4500 C   0  0  2  0  0  3  0  0  0  0  0  0
  160.7120  211.3850  138.5540 C   0  0  0  0  0  2  0  0  0  0  0  0
  161.2860  211.4690  137.2850 O   0  0  0  0  0  1  0  0  0  0  0  0
  157.5540  209.3900  137.6110 C   0  0  0  0  0  2  0  0  0  0  0  0
  155.5850  210.0320  137.0110 O   0  0  0  0  0  1  0  0  0  0  0  0
  156.5350  210.3180  137.8820 O   0  0  0  0  0  0  0  0  0  0  0  0
  162.3070  202.8590  146.6000 C   0  0  0  0  0  2  0  0  0  0  0  0
  161.1550  202.2150  147.3750 C   0  0  0  0  0  2  0  0  0  0  0  0
  161.6910  200.6960  148.2600 S   0  0  0  0  0  0  0  0  0  0  0  0
  160.2440  202.5460  149.5960 C   0  0  2  0  0  3  0  0  0  0  0  0
  159.5700  201.3150  149.7830 O   0  0  0  0  0  0  0  0  0  0  0  0
  160.9820  201.2810  149.8490 C   0  0  1  0  0  3  0  0  0  0  0  0
  160.1210  203.3350  150.7570 O   0  0  0  0  0  0  0  0  0  0  0  0
  161.3340  203.2780  151.4710 C   0  0  0  0  0  2  0  0  0  0  0  0
  161.3790  204.2650  152.5590 N   0  0  0  0  0  1  0  0  0  0  0  0
  1  4  1  0  0  0  0
  2 42  1  6  0  0  0
  2  9  1  0  0  0  0
  3  6  1  6  0  0  0
  3 16  1  0  0  0  0
  4 57  1  6  0  0  0
  5 10  1  6  0  0  0
  5  6  1  0  0  0  0
  5  7  1  0  0  0  0
  7  4  1  0  0  0  0
  7  8  1  1  0  0  0
  8  3  1  0  0  0  0
  9  1  1  0  0  0  0
 10  2  1  0  0  0  0
 12 15  1  0  0  0  0
 13 17  1  1  0  0  0
 13 16  1  0  0  0  0
 13 12  1  0  0  0  0
 14 15  1  0  0  0  0
 15 11  2  0  0  0  0
 16 14  1  6  0  0  0
 18 17  1  6  0  0  0
 18 21  1  0  0  0  0
 18 22  1  0  0  0  0
 19 21  2  0  0  0  0
 21 20  1  0  0  0  0
 22 23  2  1  0  0  0
 22 25  1  0  0  0  0
 25 24  1  1  0  0  0
 25 26  1  0  0  0  0
 26 27  1  0  0  0  0
 27 28  1  0  0  0  0
 28 29  1  0  0  0  0
 30 29  1  0  0  0  0
 30 31  1  0  0  0  0
 32 38  1  0  0  0  0
 33 32  2  0  0  0  0
 33 31  1  0  0  0  0
 34 35  1  0  0  0  0
 35 32  1  0  0  0  0
 35 36  1  0  0  0  0
 37 35  2  0  0  0  0
 39 40  2  0  0  0  0
 40 38  1  0  0  0  0
 43 42  2  0  0  0  0
 44 41  1  0  0  0  0
 44 43  2  0  0  0  0
 45 46  1  1  0  0  0
 45 44  1  0  0  0  0
 47 45  1  0  0  0  0
 48 49  1  0  0  0  0
 48 47  1  0  0  0  0
 49 54  1  6  0  0  0
 51 50  1  6  0  0  0
 51 49  1  0  0  0  0
 51 52  1  0  0  0  0
 53 52  1  0  0  0  0
 54 56  1  0  0  0  0
 55 56  1  0  0  0  0
 57 58  1  0  0  0  0
 58 59  1  0  0  0  0
 60 61  1  0  0  0  0
 60 62  1  0  0  0  0
 60 63  1  1  0  0  0
 61 62  1  0  0  0  0
 62 59  1  6  0  0  0
 63 64  1  0  0  0  0
 64 65  1  0  0  0  0
M  END
>  <MODEL>
1

>  <REMARK>
 VINA RESULT:       5.5      0.000      0.000
  Name = 
  31 active torsions:
  status: ('A' for Active; 'I' for Inactive)
    1  A    between atoms: C_2  and  O_28
    2  A    between atoms: C_2  and  C_57
    3  A    between atoms: O_3  and  C_24
    4  A    between atoms: O_3  and  C_34
    5  A    between atoms: C_8  and  C_26
    6  A    between atoms: O_9  and  C_30
    7  A    between atoms: O_9  and  C_53
    8  A    between atoms: N_10  and  C_38
    9  A    between atoms: N_10  and  C_55
   10  A    between atoms: C_12  and  C_60
   11  A    between atoms: C_14  and  C_38
   12  A    between atoms: C_14  and  C_44
   13  A    between atoms: C_15  and  C_39
   14  A    between atoms: C_18  and  C_52
   15  A    between atoms: S_21  and  C_61
   16  A    between atoms: S_21  and  C_65
   17  A    between atoms: C_23  and  C_29
   18  A    between atoms: C_23  and  C_33
   19  A    between atoms: O_28  and  C_59
   20  A    between atoms: C_31  and  C_42
   21  A    between atoms: C_31  and  C_52
   22  A    between atoms: C_31  and  C_59
   23  A    between atoms: C_33  and  P_35
   24  A    between atoms: C_39  and  C_61
   25  A    between atoms: S_40  and  C_53
   26  A    between atoms: S_40  and  C_56
   27  A    between atoms: C_42  and  O_62
   28  A    between atoms: C_44  and  C_45
   29  A    between atoms: C_53  and  C_58
   30  A    between atoms: C_55  and  C_63
   31  A    between atoms: C_56  and  C_63
                            x       y       z     vdW  Elec       q    Type
                         _______ _______ _______ _____ _____    ______ ____

>  <TORSDO>
F 31

$$$$
=
 OpenBabel11072414583D

 65 68  0  0  1  0  0  0  0  0999 V2000
  162.7380  204.1390  144.6490 O   0  0  0  0  0  0  0  0  0  0  0  0
  162.3060  206.2590  143.5340 C   0  0  2  0  0  3  0  0  0  0  0  0
  159.9340  206.2350  146.9580 C   0  0  1  0  0  3  0  0  0  0  0  0
  161.9710  204.1810  145.8250 C   0  0  1  0  0  3  0  0  0  0  0  0
  160.0830  205.5170  144.6450 C   0  0  2  0  0  3  0  0  0  0  0  0
  159.9970  206.7570  145.5260 C   0  0  0  0  0  2  0  0  0  0  0  0
  160.4550  204.3140  145.5270 C   0  0  2  0  0  3  0  0  0  0  0  0
  159.7510  204.7240  146.8200 C   0  0  0  0  0  2  0  0  0  0  0  0
  163.1820  205.4530  144.5080 C   0  0  0  0  0  2  0  0  0  0  0  0
  160.9020  205.6760  143.3670 C   0  0  0  0  0  2  0  0  0  0  0  0
  164.5650  205.4680  148.1610 C   0  0  0  0  0  2  0  0  0  0  0  0
  163.2510  207.5560  148.2150 C   0  0  0  0  0  2  0  0  0  0  0  0
  161.9450  207.8530  147.5010 C   0  0  1  0  0  3  0  0  0  0  0  0
  162.3190  205.5180  147.3420 N   0  0  0  0  0  2  0  0  0  0  0  0
  163.5110  206.1650  147.7620 C   0  0  0  0  0  0  0  0  0  0  0  0
  161.2750  206.4860  147.6340 C   0  0  2  0  0  3  0  0  0  0  0  0
  161.2310  208.8670  148.1370 O   0  0  0  0  0  0  0  0  0  0  0  0
  161.1690  208.5870  149.5350 C   0  0  2  0  0  3  0  0  0  0  0  0
  162.6700  210.5070  149.9610 O   0  0  0  0  0  0  0  0  0  0  0  0
  161.2260  209.8780  151.6070 O   0  0  0  0  0  1  0  0  0  0  0  0
  161.6750  209.6840  150.4420 C   0  0  0  0  0  0  0  0  0  0  0  0
  161.6390  206.8850  150.0270 S   0  0  2  0  0  0  0  0  0  0  0  0
  160.3030  206.2110  150.2990 O   0  0  0  0  0  0  0  0  0  0  0  0
  162.7140  208.3240  151.9840 F   0  0  0  0  0  0  0  0  0  0  0  0
  162.4420  206.9980  151.6730 C   0  0  1  0  0  3  0  0  0  0  0  0
  161.5520  206.3420  152.7210 C   0  0  0  0  0  2  0  0  0  0  0  0
  160.8070  207.3300  153.6230 C   0  0  0  0  0  2  0  0  0  0  0  0
  161.5990  207.7020  154.7980 N   0  0  0  0  0  2  0  0  0  0  0  0
  161.2780  209.0930  155.0720 C   0  0  0  0  0  2  0  0  0  0  0  0
  159.7730  209.2740  155.1300 C   0  0  0  0  0  2  0  0  0  0  0  0
  159.3660  210.6580  155.6200 C   0  0  0  0  0  2  0  0  0  0  0  0
  158.2640  212.5000  154.3190 C   0  0  0  0  0  0  0  0  0  0  0  0
  159.2630  211.6190  154.4790 C   0  0  0  0  0  3  0  0  0  0  0  0
  159.7040  214.0070  152.3630 O   0  0  0  0  0  1  0  0  0  0  0  0
  158.1890  213.3420  152.7390 P   0  0  0  0  0  0  0  0  0  0  0  0
  157.7910  212.2050  151.5430 O   0  0  0  0  0  0  0  0  0  0  0  0
  157.1410  214.4460  152.7560 O   0  0  0  0  0  1  0  0  0  0  0  0
  157.0520  212.5220  155.1980 C   0  0  0  0  0  2  0  0  0  0  0  0
  155.3000  211.1190  154.5580 O   0  0  0  0  0  0  0  0  0  0  0  0
  156.3540  211.2130  155.1660 C   0  0  0  0  0  3  0  0  0  0  0  0
  163.1100  209.3390  140.3780 C   0  0  0  0  0  1  0  0  0  0  0  0
  162.9570  206.2640  142.2060 C   0  0  0  0  0  3  0  0  0  0  0  0
  162.6550  207.1600  141.3060 C   0  0  0  0  0  0  0  0  0  0  0  0
  162.4130  208.0160  140.3500 C   0  0  0  0  0  0  0  0  0  0  0  0
  161.8960  207.5200  139.0350 C   0  0  1  0  0  3  0  0  0  0  0  0
  161.8910  206.1170  138.9980 O   0  0  0  0  0  1  0  0  0  0  0  0
  160.6120  208.0270  138.7920 O   0  0  0  0  0  0  0  0  0  0  0  0
  160.6410  208.5590  137.4770 C   0  0  0  0  0  2  0  0  0  0  0  0
  160.1770  210.0350  137.4600 C   0  0  1  0  0  3  0  0  0  0  0  0
  158.6260  209.1220  139.0690 O   0  0  0  0  0  1  0  0  0  0  0  0
  158.8510  210.2070  138.2260 C   0  0  2  0  0  3  0  0  0  0  0  0
  157.6420  210.3690  137.3010 C   0  0  0  0  0  2  0  0  0  0  0  0
  156.4620  210.4420  138.0420 O   0  0  0  0  0  1  0  0  0  0  0  0
  161.2990  210.9390  137.9820 C   0  0  0  0  0  2  0  0  0  0  0  0
  161.3040  213.0500  137.5370 O   0  0  0  0  0  1  0  0  0  0  0  0
  161.6650  211.8910  137.0170 O   0  0  0  0  0  0  0  0  0  0  0  0
  162.2840  203.0220  146.7840 C   0  0  0  0  0  2  0  0  0  0  0  0
  161.1100  202.0720  147.0280 C   0  0  0  0  0  2  0  0  0  0  0  0
  160.9290  201.6500  148.8080 S   0  0  0  0  0  0  0  0  0  0  0  0
  161.3210  199.6370  147.0490 C   0  0  2  0  0  3  0  0  0  0  0  0
  162.5450  199.7920  147.7450 O   0  0  0  0  0  0  0  0  0  0  0  0
  161.3630  199.8910  148.5140 C   0  0  1  0  0  3  0  0  0  0  0  0
  161.1150  198.2760  146.7490 O   0  0  0  0  0  0  0  0  0  0  0  0
  161.2710  198.0910  145.3610 C   0  0  0  0  0  2  0  0  0  0  0  0
  160.8570  199.2770  144.5980 N   0  0  0  0  0  1  0  0  0  0  0  0
  1  4  1  0  0  0  0
  2 42  1  6  0  0  0
  2  9  1  0  0  0  0
  3  6  1  6  0  0  0
  3 16  1  0  0  0  0
  4 57  1  6  0  0  0
  5 10  1  6  0  0  0
  5  6  1  0  0  0  0
  5  7  1  0  0  0  0
  7  4  1  0  0  0  0
  7  8  1  1  0  0  0
  8  3  1  0  0  0  0
  9  1  1  0  0  0  0
 10  2  1  0  0  0  0
 13 16  1  0  0  0  0
 13 17  1  1  0  0  0
 13 12  1  0  0  0  0
 14 15  1  0  0  0  0
 15 11  2  0  0  0  0
 15 12  1  0  0  0  0
 16 14  1  6  0  0  0
 18 17  1  6  0  0  0
 18 22  1  0  0  0  0
 18 21  1  0  0  0  0
 19 21  2  0  0  0  0
 21 20  1  0  0  0  0
 22 23  2  1  0  0  0
 22 25  1  0  0  0  0
 25 24  1  1  0  0  0
 25 26  1  0  0  0  0
 26 27  1  0  0  0  0
 27 28  1  0  0  0  0
 28 29  1  0  0  0  0
 29 30  1  0  0  0  0
 30 31  1  0  0  0  0
 32 33  2  0  0  0  0
 32 38  1  0  0  0  0
 33 31  1  0  0  0  0
 34 35  1  0  0  0  0
 35 37  1  0  0  0  0
 35 32  1  0  0  0  0
 36 35  2  0  0  0  0
 39 40  2  0  0  0  0
 40 38  1  0  0  0  0
 43 42  2  0  0  0  0
 44 41  1  0  0  0  0
 44 43  2  0  0  0  0
 45 46  1  1  0  0  0
 45 44  1  0  0  0  0
 47 45  1  0  0  0  0
 48 47  1  0  0  0  0
 49 48  1  1  0  0  0
 49 54  1  0  0  0  0
 49 51  1  0  0  0  0
 51 50  1  6  0  0  0
 52 53  1  0  0  0  0
 52 51  1  0  0  0  0
 56 55  1  0  0  0  0
 56 54  1  0  0  0  0
 57 58  1  0  0  0  0
 58 59  1  0  0  0  0
 60 63  1  1  0  0  0
 60 61  1  0  0  0  0
 60 62  1  0  0  0  0
 61 62  1  0  0  0  0
 62 59  1  6  0  0  0
 64 63  1  0  0  0  0
 65 64  1  0  0  0  0
M  END
>  <MODEL>
2

>  <REMARK>
 VINA RESULT:       6.0      1.710      2.732
  Name = 
  31 active torsions:
  status: ('A' for Active; 'I' for Inactive)
    1  A    between atoms: C_2  and  O_28
    2  A    between atoms: C_2  and  C_57
    3  A    between atoms: O_3  and  C_24
    4  A    between atoms: O_3  and  C_34
    5  A    between atoms: C_8  and  C_26
    6  A    between atoms: O_9  and  C_30
    7  A    between atoms: O_9  and  C_53
    8  A    between atoms: N_10  and  C_38
    9  A    between atoms: N_10  and  C_55
   10  A    between atoms: C_12  and  C_60
   11  A    between atoms: C_14  and  C_38
   12  A    between atoms: C_14  and  C_44
   13  A    between atoms: C_15  and  C_39
   14  A    between atoms: C_18  and  C_52
   15  A    between atoms: S_21  and  C_61
   16  A    between atoms: S_21  and  C_65
   17  A    between atoms: C_23  and  C_29
   18  A    between atoms: C_23  and  C_33
   19  A    between atoms: O_28  and  C_59
   20  A    between atoms: C_31  and  C_42
   21  A    between atoms: C_31  and  C_52
   22  A    between atoms: C_31  and  C_59
   23  A    between atoms: C_33  and  P_35
   24  A    between atoms: C_39  and  C_61
   25  A    between atoms: S_40  and  C_53
   26  A    between atoms: S_40  and  C_56
   27  A    between atoms: C_42  and  O_62
   28  A    between atoms: C_44  and  C_45
   29  A    between atoms: C_53  and  C_58
   30  A    between atoms: C_55  and  C_63
   31  A    between atoms: C_56  and  C_63
                            x       y       z     vdW  Elec       q    Type
                         _______ _______ _______ _____ _____    ______ ____

>  <TORSDO>
F 31

$$$$
=
 OpenBabel11072414583D

 65 68  0  0  1  0  0  0  0  0999 V2000
  160.7080  210.7440  151.2580 O   0  0  0  0  0  0  0  0  0  0  0  0
  159.8300  212.9850  150.9030 C   0  0  2  0  0  3  0  0  0  0  0  0
  157.8670  211.4810  154.2530 C   0  0  1  0  0  3  0  0  0  0  0  0
  160.0720  210.2830  152.4220 C   0  0  1  0  0  3  0  0  0  0  0  0
  157.8830  211.5440  151.8280 C   0  0  2  0  0  3  0  0  0  0  0  0
  157.6940  212.4170  153.0620 C   0  0  0  0  0  2  0  0  0  0  0  0
  158.5320  210.2200  152.2590 C   0  0  2  0  0  3  0  0  0  0  0  0
  157.9120  210.0770  153.6490 C   0  0  0  0  0  2  0  0  0  0  0  0
  160.9210  212.0960  151.5220 C   0  0  0  0  0  2  0  0  0  0  0  0
  158.5270  212.2340  150.6290 C   0  0  0  0  0  2  0  0  0  0  0  0
  161.4950  214.0840  156.1360 C   0  0  0  0  0  2  0  0  0  0  0  0
  160.9150  211.7120  156.4870 C   0  0  0  0  0  2  0  0  0  0  0  0
  159.5940  211.0230  156.1930 C   0  0  1  0  0  3  0  0  0  0  0  0
  159.5230  213.1530  155.1560 N   0  0  0  0  0  2  0  0  0  0  0  0
  160.6040  213.1040  156.0750 C   0  0  0  0  0  0  0  0  0  0  0  0
  159.2150  211.7540  154.9060 C   0  0  2  0  0  3  0  0  0  0  0  0
  159.7610  209.6510  156.0050 O   0  0  0  0  0  0  0  0  0  0  0  0
  161.0270  209.2600  156.5330 C   0  0  2  0  0  3  0  0  0  0  0  0
  163.2690  210.3030  156.6040 O   0  0  0  0  0  1  0  0  0  0  0  0
  162.3280  209.9020  154.5680 O   0  0  0  0  0  0  0  0  0  0  0  0
  162.2330  209.8360  155.8260 C   0  0  0  0  0  0  0  0  0  0  0  0
  161.1750  207.5020  157.0280 S   0  0  2  0  0  0  0  0  0  0  0  0
  162.6660  207.2230  156.9150 O   0  0  0  0  0  0  0  0  0  0  0  0
  159.0330  206.6240  155.7240 F   0  0  0  0  0  0  0  0  0  0  0  0
  160.4160  206.4970  155.6940 C   0  0  1  0  0  3  0  0  0  0  0  0
  160.9920  206.9160  154.3480 C   0  0  0  0  0  2  0  0  0  0  0  0
  161.9340  205.8870  153.7180 C   0  0  0  0  0  2  0  0  0  0  0  0
  161.2720  205.1080  152.6690 N   0  0  0  0  0  2  0  0  0  0  0  0
  162.3240  204.3590  152.0020 C   0  0  0  0  0  2  0  0  0  0  0  0
  162.1990  202.8840  152.3350 C   0  0  0  0  0  2  0  0  0  0  0  0
  160.9240  202.2620  151.7780 C   0  0  0  0  0  2  0  0  0  0  0  0
  160.2040  201.7840  149.4210 C   0  0  0  0  0  0  0  0  0  0  0  0
  160.7520  202.6030  150.3320 C   0  0  0  0  0  3  0  0  0  0  0  0
  158.9130  201.9940  146.8790 O   0  0  0  0  0  0  0  0  0  0  0  0
  160.3670  202.2780  147.7050 P   0  0  0  0  0  0  0  0  0  0  0  0
  160.6960  203.9420  147.6560 O   0  0  0  0  0  1  0  0  0  0  0  0
  161.4950  201.5190  147.0230 O   0  0  0  0  0  1  0  0  0  0  0  0
  159.8310  200.3670  149.7230 C   0  0  0  0  0  2  0  0  0  0  0  0
  157.5130  200.5600  149.5340 O   0  0  0  0  0  0  0  0  0  0  0  0
  158.4520  200.2890  150.2650 C   0  0  0  0  0  3  0  0  0  0  0  0
  158.1380  213.4830  146.7810 C   0  0  0  0  0  1  0  0  0  0  0  0
  160.3280  213.5160  149.6140 C   0  0  0  0  0  3  0  0  0  0  0  0
  159.8150  213.1290  148.4780 C   0  0  0  0  0  0  0  0  0  0  0  0
  159.3610  212.7960  147.2990 C   0  0  0  0  0  0  0  0  0  0  0  0
  160.2910  212.1690  146.3060 C   0  0  1  0  0  3  0  0  0  0  0  0
  159.9700  210.8170  146.1070 O   0  0  0  0  0  1  0  0  0  0  0  0
  160.2550  212.8710  145.0930 O   0  0  0  0  0  0  0  0  0  0  0  0
  161.5940  212.9150  144.6250 C   0  0  0  0  0  2  0  0  0  0  0  0
  161.6460  213.2200  143.1080 C   0  0  1  0  0  3  0  0  0  0  0  0
  163.9070  212.4410  143.4370 O   0  0  0  0  0  1  0  0  0  0  0  0
  162.9250  212.6440  142.4710 C   0  0  2  0  0  3  0  0  0  0  0  0
  163.5000  213.5370  141.3690 C   0  0  0  0  0  2  0  0  0  0  0  0
  164.4980  212.8660  140.6620 O   0  0  0  0  0  1  0  0  0  0  0  0
  160.3610  212.7270  142.4350 C   0  0  0  0  0  2  0  0  0  0  0  0
  160.0300  211.5850  140.6350 O   0  0  0  0  0  1  0  0  0  0  0  0
  160.5570  211.4700  141.8410 O   0  0  0  0  0  0  0  0  0  0  0  0
  160.6650  208.9640  152.9440 C   0  0  0  0  0  2  0  0  0  0  0  0
  162.1820  208.8460  152.7800 C   0  0  0  0  0  2  0  0  0  0  0  0
  162.8000  209.8600  151.3780 S   0  0  0  0  0  0  0  0  0  0  0  0
  161.6710  208.4490  149.3690 C   0  0  2  0  0  3  0  0  0  0  0  0
  162.9570  208.8240  148.9080 O   0  0  0  0  0  0  0  0  0  0  0  0
  162.8630  208.4080  150.2560 C   0  0  1  0  0  3  0  0  0  0  0  0
  161.3380  207.1780  148.8630 O   0  0  0  0  0  0  0  0  0  0  0  0
  161.3690  207.2300  147.4550 C   0  0  0  0  0  2  0  0  0  0  0  0
  162.3870  206.3300  146.8930 N   0  0  0  0  0  1  0  0  0  0  0  0
  1  9  1  0  0  0  0
  1  4  1  0  0  0  0
  2 42  1  6  0  0  0
  2  9  1  0  0  0  0
  3  6  1  6  0  0  0
  3 16  1  0  0  0  0
  4 57  1  6  0  0  0
  5 10  1  6  0  0  0
  5  7  1  0  0  0  0
  5  6  1  0  0  0  0
  7  4  1  0  0  0  0
  7  8  1  1  0  0  0
  8  3  1  0  0  0  0
 10  2  1  0  0  0  0
 13 17  1  6  0  0  0
 13 12  1  0  0  0  0
 14 15  1  0  0  0  0
 15 11  2  0  0  0  0
 15 12  1  0  0  0  0
 16 14  1  1  0  0  0
 16 13  1  0  0  0  0
 17 18  1  0  0  0  0
 18 21  1  6  0  0  0
 18 22  1  0  0  0  0
 20 21  2  0  0  0  0
 21 19  1  0  0  0  0
 22 23  2  6  0  0  0
 25 24  1  6  0  0  0
 25 22  1  0  0  0  0
 26 25  1  0  0  0  0
 27 26  1  0  0  0  0
 28 27  1  0  0  0  0
 29 30  1  0  0  0  0
 29 28  1  0  0  0  0
 31 30  1  0  0  0  0
 32 38  1  0  0  0  0
 32 33  2  0  0  0  0
 33 31  1  0  0  0  0
 34 35  2  0  0  0  0
 35 32  1  0  0  0  0
 36 35  1  0  0  0  0
 37 35  1  0  0  0  0
 38 40  1  0  0  0  0
 39 40  2  0  0  0  0
 41 44  1  0  0  0  0
 43 42  2  0  0  0  0
 44 43  2  0  0  0  0
 45 46  1  6  0  0  0
 45 44  1  0  0  0  0
 47 45  1  0  0  0  0
 48 47  1  0  0  0  0
 49 54  1  6  0  0  0
 49 48  1  0  0  0  0
 51 49  1  0  0  0  0
 51 50  1  1  0  0  0
 52 51  1  0  0  0  0
 53 52  1  0  0  0  0
 55 56  1  0  0  0  0
 56 54  1  0  0  0  0
 58 57  1  0  0  0  0
 59 58  1  0  0  0  0
 60 63  1  6  0  0  0
 60 62  1  0  0  0  0
 61 60  1  0  0  0  0
 61 62  1  0  0  0  0
 62 59  1  1  0  0  0
 64 63  1  0  0  0  0
 65 64  1  0  0  0  0
M  END
>  <MODEL>
3

>  <REMARK>
 VINA RESULT:       6.4      4.016      8.874
  Name = 
  31 active torsions:
  status: ('A' for Active; 'I' for Inactive)
    1  A    between atoms: C_2  and  O_28
    2  A    between atoms: C_2  and  C_57
    3  A    between atoms: O_3  and  C_24
    4  A    between atoms: O_3  and  C_34
    5  A    between atoms: C_8  and  C_26
    6  A    between atoms: O_9  and  C_30
    7  A    between atoms: O_9  and  C_53
    8  A    between atoms: N_10  and  C_38
    9  A    between atoms: N_10  and  C_55
   10  A    between atoms: C_12  and  C_60
   11  A    between atoms: C_14  and  C_38
   12  A    between atoms: C_14  and  C_44
   13  A    between atoms: C_15  and  C_39
   14  A    between atoms: C_18  and  C_52
   15  A    between atoms: S_21  and  C_61
   16  A    between atoms: S_21  and  C_65
   17  A    between atoms: C_23  and  C_29
   18  A    between atoms: C_23  and  C_33
   19  A    between atoms: O_28  and  C_59
   20  A    between atoms: C_31  and  C_42
   21  A    between atoms: C_31  and  C_52
   22  A    between atoms: C_31  and  C_59
   23  A    between atoms: C_33  and  P_35
   24  A    between atoms: C_39  and  C_61
   25  A    between atoms: S_40  and  C_53
   26  A    between atoms: S_40  and  C_56
   27  A    between atoms: C_42  and  O_62
   28  A    between atoms: C_44  and  C_45
   29  A    between atoms: C_53  and  C_58
   30  A    between atoms: C_55  and  C_63
   31  A    between atoms: C_56  and  C_63
                            x       y       z     vdW  Elec       q    Type
                         _______ _______ _______ _____ _____    ______ ____

>  <TORSDO>
F 31

$$$$
=
 OpenBabel11072414583D

 65 68  0  0  1  0  0  0  0  0999 V2000
  162.9280  203.9880  144.7320 O   0  0  0  0  0  0  0  0  0  0  0  0
  162.4960  206.1080  143.6170 C   0  0  2  0  0  3  0  0  0  0  0  0
  160.1240  206.0840  147.0410 C   0  0  1  0  0  3  0  0  0  0  0  0
  162.1610  204.0300  145.9070 C   0  0  1  0  0  3  0  0  0  0  0  0
  160.2730  205.3660  144.7280 C   0  0  2  0  0  3  0  0  0  0  0  0
  160.1870  206.6060  145.6090 C   0  0  0  0  0  2  0  0  0  0  0  0
  160.6450  204.1630  145.6100 C   0  0  2  0  0  3  0  0  0  0  0  0
  159.9410  204.5730  146.9030 C   0  0  0  0  0  2  0  0  0  0  0  0
  163.3720  205.3020  144.5910 C   0  0  0  0  0  2  0  0  0  0  0  0
  161.0920  205.5250  143.4500 C   0  0  0  0  0  2  0  0  0  0  0  0
  164.7550  205.3170  148.2440 C   0  0  0  0  0  2  0  0  0  0  0  0
  163.4410  207.4050  148.2980 C   0  0  0  0  0  2  0  0  0  0  0  0
  162.1350  207.7020  147.5840 C   0  0  1  0  0  3  0  0  0  0  0  0
  162.5090  205.3670  147.4250 N   0  0  0  0  0  2  0  0  0  0  0  0
  163.7010  206.0140  147.8450 C   0  0  0  0  0  0  0  0  0  0  0  0
  161.4650  206.3350  147.7170 C   0  0  2  0  0  3  0  0  0  0  0  0
  161.4210  208.7160  148.2200 O   0  0  0  0  0  0  0  0  0  0  0  0
  161.3050  208.4040  149.6080 C   0  0  2  0  0  3  0  0  0  0  0  0
  160.9800  209.7320  151.6690 O   0  0  0  0  0  1  0  0  0  0  0  0
  162.8080  210.1660  150.3810 O   0  0  0  0  0  0  0  0  0  0  0  0
  161.7580  209.4870  150.5590 C   0  0  0  0  0  0  0  0  0  0  0  0
  161.7750  206.6980  150.0810 S   0  0  2  0  0  0  0  0  0  0  0  0
  160.4400  206.0210  150.3510 O   0  0  0  0  0  0  0  0  0  0  0  0
  162.8800  208.1150  152.0380 F   0  0  0  0  0  0  0  0  0  0  0  0
  162.5840  206.7940  151.7260 C   0  0  1  0  0  3  0  0  0  0  0  0
  161.6860  206.1530  152.7750 C   0  0  0  0  0  2  0  0  0  0  0  0
  160.9600  207.1510  153.6800 C   0  0  0  0  0  2  0  0  0  0  0  0
  161.3950  207.0430  155.0740 N   0  0  0  0  0  2  0  0  0  0  0  0
  161.4360  208.4020  155.5880 C   0  0  0  0  0  2  0  0  0  0  0  0
  160.0410  209.0000  155.5780 C   0  0  0  0  0  2  0  0  0  0  0  0
  159.7700  209.8790  156.7930 C   0  0  0  0  0  2  0  0  0  0  0  0
  158.7700  211.4700  155.1280 C   0  0  0  0  0  0  0  0  0  0  0  0
  159.0810  211.1440  156.3920 C   0  0  0  0  0  3  0  0  0  0  0  0
  158.3360  214.0460  156.2900 O   0  0  0  0  0  1  0  0  0  0  0  0
  158.2170  213.1530  154.8530 P   0  0  0  0  0  0  0  0  0  0  0  0
  159.2280  213.8660  153.6910 O   0  0  0  0  0  0  0  0  0  0  0  0
  156.7790  213.1800  154.3570 O   0  0  0  0  0  1  0  0  0  0  0  0
  159.2130  210.6620  153.9490 C   0  0  0  0  0  2  0  0  0  0  0  0
  158.4070  210.6850  151.7590 O   0  0  0  0  0  0  0  0  0  0  0  0
  158.1290  210.5620  152.9420 C   0  0  0  0  0  3  0  0  0  0  0  0
  163.3450  209.1990  140.4840 C   0  0  0  0  0  1  0  0  0  0  0  0
  163.1470  206.1130  142.2890 C   0  0  0  0  0  3  0  0  0  0  0  0
  162.8590  207.0200  141.3950 C   0  0  0  0  0  0  0  0  0  0  0  0
  162.6290  207.8870  140.4460 C   0  0  0  0  0  0  0  0  0  0  0  0
  162.1050  207.4080  139.1270 C   0  0  1  0  0  3  0  0  0  0  0  0
  161.9290  206.0150  139.1360 O   0  0  0  0  0  1  0  0  0  0  0  0
  160.9030  208.0570  138.8140 O   0  0  0  0  0  0  0  0  0  0  0  0
  161.1630  208.8280  137.6520 C   0  0  0  0  0  2  0  0  0  0  0  0
  160.5420  210.2410  137.7680 C   0  0  1  0  0  3  0  0  0  0  0  0
  158.7800  209.3550  139.1600 O   0  0  0  0  0  1  0  0  0  0  0  0
  159.7170  210.3790  139.0620 C   0  0  2  0  0  3  0  0  0  0  0  0
  158.9900  211.7220  139.1690 C   0  0  0  0  0  2  0  0  0  0  0  0
  158.9030  212.1300  140.5000 O   0  0  0  0  0  1  0  0  0  0  0  0
  161.6380  211.3030  137.6330 C   0  0  0  0  0  2  0  0  0  0  0  0
  163.7310  211.7840  137.8300 O   0  0  0  0  0  1  0  0  0  0  0  0
  162.8940  210.7720  137.9660 O   0  0  0  0  0  0  0  0  0  0  0  0
  162.4740  202.8720  146.8670 C   0  0  0  0  0  2  0  0  0  0  0  0
  161.2370  202.1770  147.4410 C   0  0  0  0  0  2  0  0  0  0  0  0
  161.4620  200.3560  147.5500 S   0  0  0  0  0  0  0  0  0  0  0  0
  160.3380  201.5160  149.7160 C   0  0  2  0  0  3  0  0  0  0  0  0
  159.8290  200.1940  149.6730 O   0  0  0  0  0  0  0  0  0  0  0  0
  161.2000  200.3560  149.3670 C   0  0  1  0  0  3  0  0  0  0  0  0
  160.5000  201.9170  151.0570 O   0  0  0  0  0  0  0  0  0  0  0  0
  160.8240  203.2880  151.0810 C   0  0  0  0  0  2  0  0  0  0  0  0
  161.8960  203.5840  152.0420 N   0  0  0  0  0  1  0  0  0  0  0  0
  1  4  1  0  0  0  0
  2 42  1  6  0  0  0
  2  9  1  0  0  0  0
  3  6  1  6  0  0  0
  3 16  1  0  0  0  0
  4 57  1  6  0  0  0
  5 10  1  6  0  0  0
  5  6  1  0  0  0  0
  5  7  1  0  0  0  0
  7  4  1  0  0  0  0
  7  8  1  1  0  0  0
  8  3  1  0  0  0  0
  9  1  1  0  0  0  0
 10  2  1  0  0  0  0
 13 16  1  0  0  0  0
 13 17  1  1  0  0  0
 13 12  1  0  0  0  0
 14 15  1  0  0  0  0
 15 11  2  0  0  0  0
 15 12  1  0  0  0  0
 16 14  1  6  0  0  0
 18 17  1  6  0  0  0
 18 22  1  0  0  0  0
 18 21  1  0  0  0  0
 20 21  2  0  0  0  0
 21 19  1  0  0  0  0
 22 23  2  1  0  0  0
 22 25  1  0  0  0  0
 25 24  1  1  0  0  0
 25 26  1  0  0  0  0
 26 27  1  0  0  0  0
 27 28  1  0  0  0  0
 28 29  1  0  0  0  0
 30 29  1  0  0  0  0
 30 31  1  0  0  0  0
 32 33  2  0  0  0  0
 33 31  1  0  0  0  0
 35 32  1  0  0  0  0
 35 34  1  0  0  0  0
 36 35  2  0  0  0  0
 37 35  1  0  0  0  0
 38 32  1  0  0  0  0
 39 40  2  0  0  0  0
 40 38  1  0  0  0  0
 43 42  2  0  0  0  0
 44 41  1  0  0  0  0
 44 43  2  0  0  0  0
 45 46  1  1  0  0  0
 45 44  1  0  0  0  0
 47 45  1  0  0  0  0
 48 49  1  0  0  0  0
 48 47  1  0  0  0  0
 49 54  1  1  0  0  0
 49 51  1  0  0  0  0
 51 50  1  6  0  0  0
 51 52  1  0  0  0  0
 52 53  1  0  0  0  0
 54 56  1  0  0  0  0
 55 56  1  0  0  0  0
 57 58  1  0  0  0  0
 58 59  1  0  0  0  0
 60 63  1  1  0  0  0
 61 60  1  0  0  0  0
 62 59  1  6  0  0  0
 62 61  1  0  0  0  0
 62 60  1  0  0  0  0
 63 64  1  0  0  0  0
 64 65  1  0  0  0  0
M  END
>  <MODEL>
4

>  <REMARK>
 VINA RESULT:       7.2      1.384      2.108
  Name = 
  31 active torsions:
  status: ('A' for Active; 'I' for Inactive)
    1  A    between atoms: C_2  and  O_28
    2  A    between atoms: C_2  and  C_57
    3  A    between atoms: O_3  and  C_24
    4  A    between atoms: O_3  and  C_34
    5  A    between atoms: C_8  and  C_26
    6  A    between atoms: O_9  and  C_30
    7  A    between atoms: O_9  and  C_53
    8  A    between atoms: N_10  and  C_38
    9  A    between atoms: N_10  and  C_55
   10  A    between atoms: C_12  and  C_60
   11  A    between atoms: C_14  and  C_38
   12  A    between atoms: C_14  and  C_44
   13  A    between atoms: C_15  and  C_39
   14  A    between atoms: C_18  and  C_52
   15  A    between atoms: S_21  and  C_61
   16  A    between atoms: S_21  and  C_65
   17  A    between atoms: C_23  and  C_29
   18  A    between atoms: C_23  and  C_33
   19  A    between atoms: O_28  and  C_59
   20  A    between atoms: C_31  and  C_42
   21  A    between atoms: C_31  and  C_52
   22  A    between atoms: C_31  and  C_59
   23  A    between atoms: C_33  and  P_35
   24  A    between atoms: C_39  and  C_61
   25  A    between atoms: S_40  and  C_53
   26  A    between atoms: S_40  and  C_56
   27  A    between atoms: C_42  and  O_62
   28  A    between atoms: C_44  and  C_45
   29  A    between atoms: C_53  and  C_58
   30  A    between atoms: C_55  and  C_63
   31  A    between atoms: C_56  and  C_63
                            x       y       z     vdW  Elec       q    Type
                         _______ _______ _______ _____ _____    ______ ____

>  <TORSDO>
F 31

$$$$
=
 OpenBabel11072414583D

 65 68  0  0  1  0  0  0  0  0999 V2000
  162.3600  203.9190  145.4470 O   0  0  0  0  0  0  0  0  0  0  0  0
  162.0920  205.9070  144.0690 C   0  0  2  0  0  3  0  0  0  0  0  0
  159.9010  206.5920  147.5440 C   0  0  1  0  0  3  0  0  0  0  0  0
  161.6600  204.1990  146.6320 C   0  0  1  0  0  3  0  0  0  0  0  0
  159.8620  205.5620  145.3470 C   0  0  2  0  0  3  0  0  0  0  0  0
  159.9460  206.9090  146.0530 C   0  0  0  0  0  2  0  0  0  0  0  0
  160.1530  204.4540  146.3720 C   0  0  2  0  0  3  0  0  0  0  0  0
  159.5580  205.1040  147.6210 C   0  0  0  0  0  2  0  0  0  0  0  0
  162.9280  205.1470  145.1120 C   0  0  0  0  0  2  0  0  0  0  0  0
  160.6300  205.4610  144.0320 C   0  0  0  0  0  2  0  0  0  0  0  0
  164.0750  205.3750  149.6840 C   0  0  0  0  0  2  0  0  0  0  0  0
  163.5490  207.3130  148.2510 C   0  0  0  0  0  2  0  0  0  0  0  0
  162.3720  207.4800  147.3060 C   0  0  1  0  0  3  0  0  0  0  0  0
  161.9250  205.5860  148.6590 N   0  0  0  0  0  2  0  0  0  0  0  0
  163.2920  205.9500  148.7830 C   0  0  0  0  0  0  0  0  0  0  0  0
  161.2920  206.7840  148.1320 C   0  0  2  0  0  3  0  0  0  0  0  0
  162.0890  208.8260  147.0720 O   0  0  0  0  0  0  0  0  0  0  0  0
  161.5300  209.3960  148.2550 C   0  0  2  0  0  3  0  0  0  0  0  0
  160.5540  211.4950  147.3830 O   0  0  0  0  0  0  0  0  0  0  0  0
  162.1060  211.6340  149.0450 O   0  0  0  0  0  1  0  0  0  0  0  0
  161.4300  210.9030  148.2660 C   0  0  0  0  0  0  0  0  0  0  0  0
  162.0610  208.6340  149.8340 S   0  0  2  0  0  0  0  0  0  0  0  0
  160.9630  207.6250  150.1310 O   0  0  0  0  0  0  0  0  0  0  0  0
  160.5440  210.2570  151.2900 F   0  0  0  0  0  0  0  0  0  0  0  0
  161.8800  209.9090  151.1400 C   0  0  1  0  0  3  0  0  0  0  0  0
  162.4800  209.3960  152.4430 C   0  0  0  0  0  2  0  0  0  0  0  0
  161.5110  209.3980  153.6270 C   0  0  0  0  0  2  0  0  0  0  0  0
  162.1440  209.8960  154.8510 N   0  0  0  0  0  2  0  0  0  0  0  0
  161.1910  210.8200  155.4450 C   0  0  0  0  0  2  0  0  0  0  0  0
  160.0790  210.0460  156.1290 C   0  0  0  0  0  2  0  0  0  0  0  0
  158.6950  210.5870  155.7930 C   0  0  0  0  0  2  0  0  0  0  0  0
  157.7630  212.4090  154.3390 C   0  0  0  0  0  0  0  0  0  0  0  0
  158.7700  211.5940  154.6900 C   0  0  0  0  0  3  0  0  0  0  0  0
  159.2820  214.3910  152.9470 O   0  0  0  0  0  1  0  0  0  0  0  0
  157.9730  213.3220  152.8100 P   0  0  0  0  0  0  0  0  0  0  0  0
  158.3100  212.2160  151.5680 O   0  0  0  0  0  0  0  0  0  0  0  0
  156.7140  214.1030  152.4640 O   0  0  0  0  0  1  0  0  0  0  0  0
  156.3900  212.3010  154.9230 C   0  0  0  0  0  2  0  0  0  0  0  0
  154.9270  210.5270  154.5220 O   0  0  0  0  0  0  0  0  0  0  0  0
  155.9760  210.8810  155.0370 C   0  0  0  0  0  3  0  0  0  0  0  0
  163.9020  208.4620  140.8610 C   0  0  0  0  0  1  0  0  0  0  0  0
  162.6740  205.6660  142.7300 C   0  0  0  0  0  3  0  0  0  0  0  0
  162.7030  206.6040  141.8240 C   0  0  0  0  0  0  0  0  0  0  0  0
  162.7710  207.4850  140.8610 C   0  0  0  0  0  0  0  0  0  0  0  0
  162.0830  207.2020  139.5600 C   0  0  1  0  0  3  0  0  0  0  0  0
  161.6530  205.8680  139.5020 O   0  0  0  0  0  1  0  0  0  0  0  0
  161.0050  208.0790  139.3780 O   0  0  0  0  0  0  0  0  0  0  0  0
  161.3040  209.2350  140.1440 C   0  0  0  0  0  2  0  0  0  0  0  0
  160.8200  210.5200  139.4290 C   0  0  1  0  0  3  0  0  0  0  0  0
  160.3950  211.3650  141.6500 O   0  0  0  0  0  1  0  0  0  0  0  0
  160.8460  211.7290  140.3840 C   0  0  2  0  0  3  0  0  0  0  0  0
  160.0040  212.9060  139.8840 C   0  0  0  0  0  2  0  0  0  0  0  0
  160.6080  214.1190  140.2170 O   0  0  0  0  0  1  0  0  0  0  0  0
  161.6340  210.7420  138.1500 C   0  0  0  0  0  2  0  0  0  0  0  0
  159.6230  210.4160  137.4410 O   0  0  0  0  0  1  0  0  0  0  0  0
  160.8720  210.4350  137.0110 O   0  0  0  0  0  0  0  0  0  0  0  0
  161.9000  203.1510  147.7300 C   0  0  0  0  0  2  0  0  0  0  0  0
  160.8720  202.0180  147.7550 C   0  0  0  0  0  2  0  0  0  0  0  0
  159.7320  202.1590  149.1900 S   0  0  0  0  0  0  0  0  0  0  0  0
  160.7340  202.3400  151.6940 C   0  0  2  0  0  3  0  0  0  0  0  0
  161.6970  201.6270  150.9380 O   0  0  0  0  0  0  0  0  0  0  0  0
  161.0800  202.7270  150.3000 C   0  0  1  0  0  3  0  0  0  0  0  0
  161.3830  203.1460  152.6490 O   0  0  0  0  0  0  0  0  0  0  0  0
  161.1730  204.4990  152.3150 C   0  0  0  0  0  2  0  0  0  0  0  0
  159.8210  204.7320  151.7850 N   0  0  0  0  0  1  0  0  0  0  0  0
  1  4  1  0  0  0  0
  2 42  1  6  0  0  0
  2  9  1  0  0  0  0
  3  6  1  6  0  0  0
  3  8  1  0  0  0  0
  3 16  1  0  0  0  0
  4 57  1  1  0  0  0
  5 10  1  6  0  0  0
  5  6  1  0  0  0  0
  5  7  1  0  0  0  0
  7  4  1  0  0  0  0
  7  8  1  1  0  0  0
  9  1  1  0  0  0  0
 10  2  1  0  0  0  0
 12 15  1  0  0  0  0
 13 17  1  1  0  0  0
 13 16  1  0  0  0  0
 13 12  1  0  0  0  0
 14 15  1  0  0  0  0
 15 11  2  0  0  0  0
 16 14  1  6  0  0  0
 18 17  1  6  0  0  0
 18 21  1  0  0  0  0
 18 22  1  0  0  0  0
 19 21  2  0  0  0  0
 21 20  1  0  0  0  0
 22 23  2  1  0  0  0
 22 25  1  0  0  0  0
 25 24  1  1  0  0  0
 25 26  1  0  0  0  0
 26 27  1  0  0  0  0
 27 28  1  0  0  0  0
 28 29  1  0  0  0  0
 29 30  1  0  0  0  0
 31 30  1  0  0  0  0
 32 33  2  0  0  0  0
 32 38  1  0  0  0  0
 33 31  1  0  0  0  0
 35 34  1  0  0  0  0
 35 32  1  0  0  0  0
 36 35  2  0  0  0  0
 37 35  1  0  0  0  0
 38 40  1  0  0  0  0
 39 40  2  0  0  0  0
 43 42  2  0  0  0  0
 44 41  1  0  0  0  0
 44 43  2  0  0  0  0
 45 46  1  1  0  0  0
 45 44  1  0  0  0  0
 47 45  1  0  0  0  0
 47 48  1  0  0  0  0
 49 54  1  6  0  0  0
 49 48  1  0  0  0  0
 49 51  1  0  0  0  0
 51 50  1  1  0  0  0
 52 53  1  0  0  0  0
 52 51  1  0  0  0  0
 56 55  1  0  0  0  0
 56 54  1  0  0  0  0
 57 58  1  0  0  0  0
 58 59  1  0  0  0  0
 60 63  1  1  0  0  0
 61 60  1  0  0  0  0
 62 59  1  6  0  0  0
 62 61  1  0  0  0  0
 62 60  1  0  0  0  0
 64 63  1  0  0  0  0
 65 64  1  0  0  0  0
M  END
>  <MODEL>
5

>  <REMARK>
 VINA RESULT:       7.4      1.654      2.055
  Name = 
  31 active torsions:
  status: ('A' for Active; 'I' for Inactive)
    1  A    between atoms: C_2  and  O_28
    2  A    between atoms: C_2  and  C_57
    3  A    between atoms: O_3  and  C_24
    4  A    between atoms: O_3  and  C_34
    5  A    between atoms: C_8  and  C_26
    6  A    between atoms: O_9  and  C_30
    7  A    between atoms: O_9  and  C_53
    8  A    between atoms: N_10  and  C_38
    9  A    between atoms: N_10  and  C_55
   10  A    between atoms: C_12  and  C_60
   11  A    between atoms: C_14  and  C_38
   12  A    between atoms: C_14  and  C_44
   13  A    between atoms: C_15  and  C_39
   14  A    between atoms: C_18  and  C_52
   15  A    between atoms: S_21  and  C_61
   16  A    between atoms: S_21  and  C_65
   17  A    between atoms: C_23  and  C_29
   18  A    between atoms: C_23  and  C_33
   19  A    between atoms: O_28  and  C_59
   20  A    between atoms: C_31  and  C_42
   21  A    between atoms: C_31  and  C_52
   22  A    between atoms: C_31  and  C_59
   23  A    between atoms: C_33  and  P_35
   24  A    between atoms: C_39  and  C_61
   25  A    between atoms: S_40  and  C_53
   26  A    between atoms: S_40  and  C_56
   27  A    between atoms: C_42  and  O_62
   28  A    between atoms: C_44  and  C_45
   29  A    between atoms: C_53  and  C_58
   30  A    between atoms: C_55  and  C_63
   31  A    between atoms: C_56  and  C_63
                            x       y       z     vdW  Elec       q    Type
                         _______ _______ _______ _____ _____    ______ ____

>  <TORSDO>
F 31

$$$$
