=
 OpenBabel11072411533D

 32 33  0  0  1  0  0  0  0  0999 V2000
  159.8340  210.3720  155.0390 C   0  0  1  0  0  3  0  0  0  0  0  0
  159.7990  211.5310  156.0040 C   0  0  0  0  0  0  0  0  0  0  0  0
  158.2810  213.5710  154.2160 C   0  0  1  0  0  3  0  0  0  0  0  0
  159.8750  211.8600  153.1470 C   0  0  2  0  0  3  0  0  0  0  0  0
  159.0660  210.7830  153.7730 C   0  0  1  0  0  3  0  0  0  0  0  0
  160.0050  212.8350  155.5270 O   0  0  0  0  0  0  0  0  0  0  0  0
  159.5690  211.3260  157.2580 N   0  0  0  0  0  2  0  0  0  0  0  0
  159.0070  213.7380  155.4360 O   0  0  0  0  0  0  0  0  0  0  0  0
  158.8900  212.9870  152.9000 C   0  0  2  0  0  3  0  0  0  0  0  0
  159.6580  210.6280  152.5040 O   0  0  0  0  0  0  0  0  0  0  0  0
  162.3270  210.7270  154.0350 O   0  0  0  0  0  0  0  0  0  0  0  0
  161.4960  209.7320  154.7960 S   0  0  0  0  0  0  0  0  0  0  0  0
  162.1400  209.4840  156.1310 O   0  0  0  0  0  0  0  0  0  0  0  0
  161.8940  206.6470  151.7420 O   0  0  0  0  0  0  0  0  0  0  0  0
  161.2970  205.7350  152.3760 C   0  0  0  0  0  0  0  0  0  0  0  0
  160.7750  205.9750  153.6890 N   0  0  0  0  0  2  0  0  0  0  0  0
  160.8480  207.2130  154.4070 C   0  0  0  0  0  3  0  0  0  0  0  0
  161.4350  208.2510  153.9080 N   0  0  0  0  0  0  0  0  0  0  0  0
  160.3280  204.4430  150.6690 F   0  0  0  0  0  0  0  0  0  0  0  0
  161.1730  204.3770  151.7600 C   0  0  0  0  0  0  0  0  0  0  0  0
  160.6530  203.4920  152.6870 F   0  0  0  0  0  0  0  0  0  0  0  0
  162.4120  203.9190  151.3480 F   0  0  0  0  0  0  0  0  0  0  0  0
  156.7740  213.4220  154.3880 C   0  0  0  0  0  2  0  0  0  0  0  0
  156.4080  212.3400  155.3940 C   0  0  2  0  0  3  0  0  0  0  0  0
  155.1880  210.2730  155.6120 O   0  0  0  0  0  1  0  0  0  0  0  0
  155.7160  211.1790  154.6880 C   0  0  0  0  0  2  0  0  0  0  0  0
  154.7350  214.4470  155.9440 S   0  0  0  0  0  1  0  0  0  0  0  0
  155.5370  212.9140  156.5000 C   0  0  0  0  0  2  0  0  0  0  0  0
  159.5270  214.0150  152.1810 O   0  0  0  0  0  0  0  0  0  0  0  0
  160.1470  213.4850  149.8640 C   0  0  0  0  0  1  0  0  0  0  0  0
  157.7520  213.2850  150.6480 C   0  0  0  0  0  1  0  0  0  0  0  0
  159.0890  213.9910  150.8360 C   0  0  0  0  0  3  0  0  0  0  0  0
  1 12  1  6  0  0  0
  1  2  1  0  0  0  0
  2  7  2  0  0  0  0
  3 23  1  1  0  0  0
  3  8  1  0  0  0  0
  4 10  1  6  0  0  0
  4  5  1  0  0  0  0
  5 10  1  6  0  0  0
  5  1  1  0  0  0  0
  6  2  1  0  0  0  0
  8  6  1  0  0  0  0
  9 29  1  1  0  0  0
  9  4  1  0  0  0  0
  9  3  1  0  0  0  0
 11 12  2  0  0  0  0
 12 13  2  0  0  0  0
 14 15  2  0  0  0  0
 15 16  1  0  0  0  0
 16 17  1  0  0  0  0
 18 17  2  0  0  0  0
 18 12  1  0  0  0  0
 19 20  1  0  0  0  0
 20 15  1  0  0  0  0
 20 21  1  0  0  0  0
 22 20  1  0  0  0  0
 24 23  1  6  0  0  0
 24 28  1  0  0  0  0
 26 24  1  0  0  0  0
 26 25  1  0  0  0  0
 27 28  1  0  0  0  0
 30 32  1  0  0  0  0
 31 32  1  0  0  0  0
 32 29  1  0  0  0  0
M  END
>  <MODEL>
1

>  <REMARK>
 VINA RESULT:      -5.5      0.000      0.000
  Name = 
  9 active torsions:
  status: ('A' for Active; 'I' for Inactive)
    1  A    between atoms: C_1  and  S_3
    2  A    between atoms: S_3  and  N_31
    3  A    between atoms: C_8  and  C_16
    4  A    between atoms: C_9  and  C_21
    5  A    between atoms: C_13  and  C_20
    6  A    between atoms: C_15  and  O_27
    7  A    between atoms: C_16  and  C_21
    8  A    between atoms: C_16  and  C_30
    9  A    between atoms: C_24  and  O_27
                            x       y       z     vdW  Elec       q    Type
                         _______ _______ _______ _____ _____    ______ ____

>  <TORSDO>
F 9

$$$$
=
 OpenBabel11072411533D

 32 33  0  0  1  0  0  0  0  0999 V2000
  162.3060  207.8920  150.9810 C   0  0  1  0  0  3  0  0  0  0  0  0
  161.0230  207.2030  151.3760 C   0  0  0  0  0  0  0  0  0  0  0  0
  160.7940  205.2450  148.9740 C   0  0  1  0  0  3  0  0  0  0  0  0
  161.8370  207.5710  148.6420 C   0  0  2  0  0  3  0  0  0  0  0  0
  162.8260  207.2290  149.6970 C   0  0  1  0  0  3  0  0  0  0  0  0
  160.0740  206.8890  150.3910 O   0  0  0  0  0  0  0  0  0  0  0  0
  160.8040  206.8940  152.6110 N   0  0  0  0  0  2  0  0  0  0  0  0
  159.8510  205.6250  149.9780 O   0  0  0  0  0  0  0  0  0  0  0  0
  161.4910  206.2450  147.9940 C   0  0  2  0  0  3  0  0  0  0  0  0
  163.1700  208.0180  148.5820 O   0  0  0  0  0  0  0  0  0  0  0  0
  163.4500  210.3250  151.3190 O   0  0  0  0  0  0  0  0  0  0  0  0
  162.1430  209.6810  150.9500 S   0  0  0  0  0  0  0  0  0  0  0  0
  161.7560  210.1270  149.5680 O   0  0  0  0  0  0  0  0  0  0  0  0
  158.4530  211.0910  152.7940 O   0  0  0  0  0  0  0  0  0  0  0  0
  158.8690  211.0770  153.9840 C   0  0  0  0  0  0  0  0  0  0  0  0
  160.2060  210.6590  154.2900 N   0  0  0  0  0  2  0  0  0  0  0  0
  161.1900  210.2390  153.3380 C   0  0  0  0  0  3  0  0  0  0  0  0
  160.9300  210.1830  152.0730 N   0  0  0  0  0  0  0  0  0  0  0  0
  157.7660  212.8340  155.0870 F   0  0  0  0  0  0  0  0  0  0  0  0
  157.9370  211.4630  155.0890 C   0  0  0  0  0  0  0  0  0  0  0  0
  158.4680  211.0720  156.3040 F   0  0  0  0  0  0  0  0  0  0  0  0
  156.7070  210.8520  154.9200 F   0  0  0  0  0  0  0  0  0  0  0  0
  161.5420  203.9480  149.2620 C   0  0  0  0  0  2  0  0  0  0  0  0
  160.7890  203.0450  150.2260 C   0  0  2  0  0  3  0  0  0  0  0  0
  160.5920  203.5590  152.5730 O   0  0  0  0  0  1  0  0  0  0  0  0
  161.4590  203.0620  151.5960 C   0  0  0  0  0  2  0  0  0  0  0  0
  160.9000  201.6450  147.8660 S   0  0  0  0  0  1  0  0  0  0  0  0
  160.6990  201.6310  149.6730 C   0  0  0  0  0  2  0  0  0  0  0  0
  160.6570  206.4700  146.8830 O   0  0  0  0  0  0  0  0  0  0  0  0
  162.6420  205.3390  145.9800 C   0  0  0  0  0  1  0  0  0  0  0  0
  160.3890  205.1080  144.8570 C   0  0  0  0  0  1  0  0  0  0  0  0
  161.2890  205.9890  145.7130 C   0  0  0  0  0  3  0  0  0  0  0  0
  1 12  1  6  0  0  0
  1  2  1  0  0  0  0
  2  7  2  0  0  0  0
  3 23  1  1  0  0  0
  3  8  1  0  0  0  0
  4 10  1  6  0  0  0
  4  5  1  0  0  0  0
  5 10  1  6  0  0  0
  5  1  1  0  0  0  0
  6  2  1  0  0  0  0
  8  6  1  0  0  0  0
  9 29  1  6  0  0  0
  9  4  1  0  0  0  0
  9  3  1  0  0  0  0
 12 11  2  0  0  0  0
 12 18  1  0  0  0  0
 13 12  2  0  0  0  0
 14 15  2  0  0  0  0
 15 16  1  0  0  0  0
 15 20  1  0  0  0  0
 17 16  1  0  0  0  0
 18 17  2  0  0  0  0
 19 20  1  0  0  0  0
 20 21  1  0  0  0  0
 22 20  1  0  0  0  0
 24 23  1  6  0  0  0
 24 26  1  0  0  0  0
 26 25  1  0  0  0  0
 27 28  1  0  0  0  0
 28 24  1  0  0  0  0
 31 32  1  0  0  0  0
 32 30  1  0  0  0  0
 32 29  1  0  0  0  0
M  END
>  <MODEL>
2

>  <REMARK>
 VINA RESULT:      -5.4      4.682      8.647
  Name = 
  9 active torsions:
  status: ('A' for Active; 'I' for Inactive)
    1  A    between atoms: C_1  and  S_3
    2  A    between atoms: S_3  and  N_31
    3  A    between atoms: C_8  and  C_16
    4  A    between atoms: C_9  and  C_21
    5  A    between atoms: C_13  and  C_20
    6  A    between atoms: C_15  and  O_27
    7  A    between atoms: C_16  and  C_21
    8  A    between atoms: C_16  and  C_30
    9  A    between atoms: C_24  and  O_27
                            x       y       z     vdW  Elec       q    Type
                         _______ _______ _______ _____ _____    ______ ____

>  <TORSDO>
F 9

$$$$
=
 OpenBabel11072411533D

 32 33  0  0  1  0  0  0  0  0999 V2000
  162.0920  206.4120  151.4440 C   0  0  1  0  0  3  0  0  0  0  0  0
  161.4600  207.6960  150.9680 C   0  0  0  0  0  0  0  0  0  0  0  0
  161.0970  209.0810  153.7250 C   0  0  1  0  0  3  0  0  0  0  0  0
  160.9070  206.5250  153.5360 C   0  0  2  0  0  3  0  0  0  0  0  0
  162.2790  206.5100  152.9660 C   0  0  1  0  0  3  0  0  0  0  0  0
  160.4090  208.2640  151.7030 O   0  0  0  0  0  0  0  0  0  0  0  0
  161.8890  208.2730  149.8960 N   0  0  0  0  0  2  0  0  0  0  0  0
  160.5620  209.3870  152.4360 O   0  0  0  0  0  0  0  0  0  0  0  0
  160.8900  207.7210  154.4680 C   0  0  2  0  0  3  0  0  0  0  0  0
  161.8100  205.4790  153.8050 O   0  0  0  0  0  0  0  0  0  0  0  0
  161.9440  203.7110  151.2890 O   0  0  0  0  0  0  0  0  0  0  0  0
  161.2350  204.9560  150.8330 S   0  0  0  0  0  0  0  0  0  0  0  0
  159.8310  204.9370  151.3680 O   0  0  0  0  0  0  0  0  0  0  0  0
  160.6730  206.0940  146.6630 O   0  0  0  0  0  0  0  0  0  0  0  0
  161.0700  205.0080  146.1600 C   0  0  0  0  0  0  0  0  0  0  0  0
  161.5140  203.9310  146.9950 N   0  0  0  0  0  2  0  0  0  0  0  0
  161.5510  203.9410  148.4270 C   0  0  0  0  0  3  0  0  0  0  0  0
  161.1880  204.9790  149.1070 N   0  0  0  0  0  0  0  0  0  0  0  0
  160.9580  206.1070  144.0860 F   0  0  0  0  0  0  0  0  0  0  0  0
  161.1150  204.8650  144.6710 C   0  0  0  0  0  0  0  0  0  0  0  0
  160.0940  204.0310  144.2530 F   0  0  0  0  0  0  0  0  0  0  0  0
  162.3250  204.3250  144.2740 F   0  0  0  0  0  0  0  0  0  0  0  0
  162.3460  209.8720  154.1000 C   0  0  0  0  0  2  0  0  0  0  0  0
  162.0340  211.0570  155.0010 C   0  0  2  0  0  3  0  0  0  0  0  0
  163.7820  211.0570  156.6600 O   0  0  0  0  0  1  0  0  0  0  0  0
  162.4380  210.7450  156.4390 C   0  0  0  0  0  2  0  0  0  0  0  0
  160.1270  212.6270  156.2020 S   0  0  0  0  0  1  0  0  0  0  0  0
  160.5610  211.4250  154.9080 C   0  0  0  0  0  2  0  0  0  0  0  0
  159.6710  207.7500  155.1690 O   0  0  0  0  0  0  0  0  0  0  0  0
  161.2490  207.0220  156.9050 C   0  0  0  0  0  1  0  0  0  0  0  0
  159.7610  209.0350  157.2610 C   0  0  0  0  0  1  0  0  0  0  0  0
  159.9250  207.6930  156.5590 C   0  0  0  0  0  3  0  0  0  0  0  0
  1 12  1  1  0  0  0
  1  5  1  0  0  0  0
  2  1  1  0  0  0  0
  2  6  1  0  0  0  0
  3 23  1  6  0  0  0
  3  9  1  0  0  0  0
  4 10  1  1  0  0  0
  4  9  1  0  0  0  0
  5  4  1  0  0  0  0
  5 10  1  1  0  0  0
  6  8  1  0  0  0  0
  7  2  2  0  0  0  0
  8  3  1  0  0  0  0
  9 29  1  6  0  0  0
 12 11  2  0  0  0  0
 12 13  2  0  0  0  0
 15 14  2  0  0  0  0
 15 16  1  0  0  0  0
 16 17  1  0  0  0  0
 17 18  2  0  0  0  0
 18 12  1  0  0  0  0
 19 20  1  0  0  0  0
 20 15  1  0  0  0  0
 21 20  1  0  0  0  0
 22 20  1  0  0  0  0
 24 23  1  6  0  0  0
 24 26  1  0  0  0  0
 26 25  1  0  0  0  0
 28 24  1  0  0  0  0
 28 27  1  0  0  0  0
 29 32  1  0  0  0  0
 32 30  1  0  0  0  0
 32 31  1  0  0  0  0
M  END
>  <MODEL>
3

>  <REMARK>
 VINA RESULT:      -5.2      4.492      6.776
  Name = 
  9 active torsions:
  status: ('A' for Active; 'I' for Inactive)
    1  A    between atoms: C_1  and  S_3
    2  A    between atoms: S_3  and  N_31
    3  A    between atoms: C_8  and  C_16
    4  A    between atoms: C_9  and  C_21
    5  A    between atoms: C_13  and  C_20
    6  A    between atoms: C_15  and  O_27
    7  A    between atoms: C_16  and  C_21
    8  A    between atoms: C_16  and  C_30
    9  A    between atoms: C_24  and  O_27
                            x       y       z     vdW  Elec       q    Type
                         _______ _______ _______ _____ _____    ______ ____

>  <TORSDO>
F 9

$$$$
=
 OpenBabel11072411533D

 32 33  0  0  1  0  0  0  0  0999 V2000
  160.8180  206.8010  152.1040 C   0  0  1  0  0  3  0  0  0  0  0  0
  161.2660  207.5690  153.3220 C   0  0  0  0  0  0  0  0  0  0  0  0
  161.0550  210.4430  152.1580 C   0  0  1  0  0  3  0  0  0  0  0  0
  161.7120  208.4820  150.6310 C   0  0  2  0  0  3  0  0  0  0  0  0
  160.4410  207.8160  151.0140 C   0  0  1  0  0  3  0  0  0  0  0  0
  162.1080  208.6810  153.1680 O   0  0  0  0  0  0  0  0  0  0  0  0
  160.8700  207.2120  154.4980 N   0  0  0  0  0  2  0  0  0  0  0  0
  161.6750  209.9470  153.3460 O   0  0  0  0  0  0  0  0  0  0  0  0
  161.4100  209.9660  150.7120 C   0  0  2  0  0  3  0  0  0  0  0  0
  160.9830  207.6980  149.7190 O   0  0  0  0  0  0  0  0  0  0  0  0
  163.3870  205.9540  151.9450 O   0  0  0  0  0  0  0  0  0  0  0  0
  161.9830  205.5160  151.6340 S   0  0  0  0  0  0  0  0  0  0  0  0
  161.6860  204.2610  152.4060 O   0  0  0  0  0  0  0  0  0  0  0  0
  162.2380  205.7170  147.2880 O   0  0  0  0  0  0  0  0  0  0  0  0
  161.6000  204.6550  147.0540 C   0  0  0  0  0  0  0  0  0  0  0  0
  161.0910  203.8530  148.1280 N   0  0  0  0  0  2  0  0  0  0  0  0
  161.2200  204.1430  149.5240 C   0  0  0  0  0  3  0  0  0  0  0  0
  161.8540  205.1900  149.9430 N   0  0  0  0  0  0  0  0  0  0  0  0
  162.6180  204.2980  144.9670 F   0  0  0  0  0  0  0  0  0  0  0  0
  161.4140  204.2100  145.6380 C   0  0  0  0  0  0  0  0  0  0  0  0
  160.4840  205.0220  145.0130 F   0  0  0  0  0  0  0  0  0  0  0  0
  160.9660  202.9020  145.5970 F   0  0  0  0  0  0  0  0  0  0  0  0
  159.6520  211.0040  152.3590 C   0  0  0  0  0  2  0  0  0  0  0  0
  159.5310  211.8220  153.6360 C   0  0  2  0  0  3  0  0  0  0  0  0
  159.2930  210.2380  155.4380 O   0  0  0  0  0  1  0  0  0  0  0  0
  158.5920  211.1270  154.6180 C   0  0  0  0  0  2  0  0  0  0  0  0
  158.2900  213.2920  151.6770 S   0  0  0  0  0  1  0  0  0  0  0  0
  159.0590  213.2330  153.3240 C   0  0  0  0  0  2  0  0  0  0  0  0
  162.5150  210.6950  150.2350 O   0  0  0  0  0  0  0  0  0  0  0  0
  161.1630  212.5130  149.2860 C   0  0  0  0  0  1  0  0  0  0  0  0
  163.3490  211.8240  148.2210 C   0  0  0  0  0  1  0  0  0  0  0  0
  162.1530  211.3790  149.0520 C   0  0  0  0  0  3  0  0  0  0  0  0
  1 12  1  6  0  0  0
  1  2  1  0  0  0  0
  2  7  2  0  0  0  0
  3 23  1  1  0  0  0
  3  8  1  0  0  0  0
  4 10  1  6  0  0  0
  4  9  1  0  0  0  0
  4  5  1  0  0  0  0
  5 10  1  6  0  0  0
  5  1  1  0  0  0  0
  6  2  1  0  0  0  0
  6  8  1  0  0  0  0
  9 29  1  1  0  0  0
  9  3  1  0  0  0  0
 12 11  2  0  0  0  0
 12 13  2  0  0  0  0
 15 14  2  0  0  0  0
 15 16  1  0  0  0  0
 16 17  1  0  0  0  0
 17 18  2  0  0  0  0
 18 12  1  0  0  0  0
 19 20  1  0  0  0  0
 20 15  1  0  0  0  0
 21 20  1  0  0  0  0
 22 20  1  0  0  0  0
 24 23  1  6  0  0  0
 24 26  1  0  0  0  0
 26 25  1  0  0  0  0
 27 28  1  0  0  0  0
 28 24  1  0  0  0  0
 31 32  1  0  0  0  0
 32 30  1  0  0  0  0
 32 29  1  0  0  0  0
M  END
>  <MODEL>
4

>  <REMARK>
 VINA RESULT:      -5.1      3.566      5.115
  Name = 
  9 active torsions:
  status: ('A' for Active; 'I' for Inactive)
    1  A    between atoms: C_1  and  S_3
    2  A    between atoms: S_3  and  N_31
    3  A    between atoms: C_8  and  C_16
    4  A    between atoms: C_9  and  C_21
    5  A    between atoms: C_13  and  C_20
    6  A    between atoms: C_15  and  O_27
    7  A    between atoms: C_16  and  C_21
    8  A    between atoms: C_16  and  C_30
    9  A    between atoms: C_24  and  O_27
                            x       y       z     vdW  Elec       q    Type
                         _______ _______ _______ _____ _____    ______ ____

>  <TORSDO>
F 9

$$$$
=
 OpenBabel11072411533D

 32 33  0  0  1  0  0  0  0  0999 V2000
  160.9390  206.7550  150.0620 C   0  0  1  0  0  3  0  0  0  0  0  0
  162.0020  207.0590  149.0360 C   0  0  0  0  0  0  0  0  0  0  0  0
  161.5780  204.5940  147.1920 C   0  0  1  0  0  3  0  0  0  0  0  0
  161.1930  204.3860  149.7250 C   0  0  2  0  0  3  0  0  0  0  0  0
  160.1990  205.4840  149.6200 C   0  0  1  0  0  3  0  0  0  0  0  0
  162.7830  206.0140  148.5190 O   0  0  0  0  0  0  0  0  0  0  0  0
  162.1850  208.2700  148.6290 N   0  0  0  0  0  2  0  0  0  0  0  0
  162.6350  205.5540  147.2600 O   0  0  0  0  0  0  0  0  0  0  0  0
  161.1360  203.6830  148.3830 C   0  0  2  0  0  3  0  0  0  0  0  0
  160.0320  204.4120  150.5180 O   0  0  0  0  0  0  0  0  0  0  0  0
  161.1030  205.5500  152.4840 O   0  0  0  0  0  0  0  0  0  0  0  0
  161.5810  206.7660  151.7410 S   0  0  0  0  0  0  0  0  0  0  0  0
  163.0840  206.7510  151.7040 O   0  0  0  0  0  0  0  0  0  0  0  0
  160.2380  209.6080  154.7600 O   0  0  0  0  0  0  0  0  0  0  0  0
  160.0910  210.5900  153.9820 C   0  0  0  0  0  0  0  0  0  0  0  0
  160.3780  210.4670  152.5830 N   0  0  0  0  0  2  0  0  0  0  0  0
  160.8310  209.2800  151.9220 C   0  0  0  0  0  3  0  0  0  0  0  0
  161.0440  208.1820  152.5700 N   0  0  0  0  0  0  0  0  0  0  0  0
  158.3480  211.8030  154.9880 F   0  0  0  0  0  0  0  0  0  0  0  0
  159.6510  211.9060  154.5410 C   0  0  0  0  0  0  0  0  0  0  0  0
  159.7200  212.8760  153.5570 F   0  0  0  0  0  0  0  0  0  0  0  0
  160.4640  212.2790  155.5960 F   0  0  0  0  0  0  0  0  0  0  0  0
  160.5190  204.8870  146.1360 C   0  0  0  0  0  2  0  0  0  0  0  0
  160.8390  204.2390  144.7970 C   0  0  2  0  0  3  0  0  0  0  0  0
  160.8310  206.5770  144.2130 O   0  0  0  0  0  1  0  0  0  0  0  0
  161.2060  205.3060  143.7700 C   0  0  0  0  0  2  0  0  0  0  0  0
  159.8580  201.6760  144.8870 S   0  0  0  0  0  1  0  0  0  0  0  0
  159.6680  203.3930  144.3210 C   0  0  0  0  0  2  0  0  0  0  0  0
  161.9470  202.5340  148.4220 O   0  0  0  0  0  0  0  0  0  0  0  0
  161.5820  200.2160  147.6940 C   0  0  0  0  0  1  0  0  0  0  0  0
  160.9120  200.9730  150.0110 C   0  0  0  0  0  1  0  0  0  0  0  0
  161.1330  201.3860  148.5610 C   0  0  0  0  0  3  0  0  0  0  0  0
  1 12  1  1  0  0  0
  2  1  1  0  0  0  0
  3 23  1  1  0  0  0
  3  8  1  0  0  0  0
  3  9  1  0  0  0  0
  4 10  1  1  0  0  0
  5  4  1  0  0  0  0
  5  1  1  0  0  0  0
  5 10  1  1  0  0  0
  6  2  1  0  0  0  0
  7  2  2  0  0  0  0
  8  6  1  0  0  0  0
  9 29  1  1  0  0  0
  9  4  1  0  0  0  0
 12 11  2  0  0  0  0
 12 18  1  0  0  0  0
 13 12  2  0  0  0  0
 15 20  1  0  0  0  0
 15 14  2  0  0  0  0
 16 15  1  0  0  0  0
 17 18  2  0  0  0  0
 17 16  1  0  0  0  0
 20 19  1  0  0  0  0
 20 22  1  0  0  0  0
 21 20  1  0  0  0  0
 24 26  1  6  0  0  0
 24 23  1  0  0  0  0
 26 25  1  0  0  0  0
 28 24  1  0  0  0  0
 28 27  1  0  0  0  0
 29 32  1  0  0  0  0
 30 32  1  0  0  0  0
 32 31  1  0  0  0  0
M  END
>  <MODEL>
5

>  <REMARK>
 VINA RESULT:      -5.1      5.451     10.144
  Name = 
  9 active torsions:
  status: ('A' for Active; 'I' for Inactive)
    1  A    between atoms: C_1  and  S_3
    2  A    between atoms: S_3  and  N_31
    3  A    between atoms: C_8  and  C_16
    4  A    between atoms: C_9  and  C_21
    5  A    between atoms: C_13  and  C_20
    6  A    between atoms: C_15  and  O_27
    7  A    between atoms: C_16  and  C_21
    8  A    between atoms: C_16  and  C_30
    9  A    between atoms: C_24  and  O_27
                            x       y       z     vdW  Elec       q    Type
                         _______ _______ _______ _____ _____    ______ ____

>  <TORSDO>
F 9

$$$$
=
 OpenBabel11072411533D

 32 33  0  0  1  0  0  0  0  0999 V2000
  160.8960  206.7680  150.5140 C   0  0  1  0  0  3  0  0  0  0  0  0
  161.9220  207.2930  149.5420 C   0  0  0  0  0  0  0  0  0  0  0  0
  161.4290  205.2820  147.2240 C   0  0  1  0  0  3  0  0  0  0  0  0
  161.1350  204.5290  149.6650 C   0  0  2  0  0  3  0  0  0  0  0  0
  160.1390  205.6180  149.8340 C   0  0  1  0  0  3  0  0  0  0  0  0
  162.6830  206.3900  148.7840 O   0  0  0  0  0  0  0  0  0  0  0  0
  162.0920  208.5650  149.3990 N   0  0  0  0  0  2  0  0  0  0  0  0
  162.4880  206.2120  147.4610 O   0  0  0  0  0  0  0  0  0  0  0  0
  161.0280  204.1320  148.2050 C   0  0  2  0  0  3  0  0  0  0  0  0
  160.0030  204.3760  150.4850 O   0  0  0  0  0  0  0  0  0  0  0  0
  160.9810  205.1760  152.7060 O   0  0  0  0  0  0  0  0  0  0  0  0
  161.5990  206.4190  152.1320 S   0  0  0  0  0  0  0  0  0  0  0  0
  163.0810  206.2080  152.0010 O   0  0  0  0  0  0  0  0  0  0  0  0
  161.2120  208.9770  155.6400 O   0  0  0  0  0  0  0  0  0  0  0  0
  160.7640  209.9890  155.0360 C   0  0  0  0  0  0  0  0  0  0  0  0
  160.5700  209.9690  153.6150 N   0  0  0  0  0  2  0  0  0  0  0  0
  160.8320  208.8590  152.7490 C   0  0  0  0  0  3  0  0  0  0  0  0
  161.3040  207.7430  153.2020 N   0  0  0  0  0  0  0  0  0  0  0  0
  160.4570  212.3170  154.9510 F   0  0  0  0  0  0  0  0  0  0  0  0
  160.4740  211.2350  155.8110 C   0  0  0  0  0  0  0  0  0  0  0  0
  161.4540  211.4280  156.7670 F   0  0  0  0  0  0  0  0  0  0  0  0
  159.2460  211.1370  156.4410 F   0  0  0  0  0  0  0  0  0  0  0  0
  160.3330  205.7890  146.2940 C   0  0  0  0  0  2  0  0  0  0  0  0
  160.4780  205.2530  144.8780 C   0  0  2  0  0  3  0  0  0  0  0  0
  159.3500  203.2560  144.1370 O   0  0  0  0  0  1  0  0  0  0  0  0
  160.4320  203.7280  144.8860 C   0  0  0  0  0  2  0  0  0  0  0  0
  161.5810  205.8580  142.4370 S   0  0  0  0  0  1  0  0  0  0  0  0
  161.7630  205.7640  144.2440 C   0  0  0  0  0  2  0  0  0  0  0  0
  161.8390  203.0070  147.9650 O   0  0  0  0  0  0  0  0  0  0  0  0
  161.2050  200.9420  146.7960 C   0  0  0  0  0  1  0  0  0  0  0  0
  161.2060  201.0600  149.3220 C   0  0  0  0  0  1  0  0  0  0  0  0
  161.0480  201.8360  148.0210 C   0  0  0  0  0  3  0  0  0  0  0  0
  1 12  1  1  0  0  0
  2  1  1  0  0  0  0
  3 23  1  1  0  0  0
  3  8  1  0  0  0  0
  3  9  1  0  0  0  0
  4  5  1  0  0  0  0
  4 10  1  1  0  0  0
  5 10  1  1  0  0  0
  5  1  1  0  0  0  0
  6  2  1  0  0  0  0
  7  2  2  0  0  0  0
  8  6  1  0  0  0  0
  9 29  1  1  0  0  0
  9  4  1  0  0  0  0
 12 11  2  0  0  0  0
 12 18  1  0  0  0  0
 13 12  2  0  0  0  0
 15 14  2  0  0  0  0
 15 20  1  0  0  0  0
 16 15  1  0  0  0  0
 17 18  2  0  0  0  0
 17 16  1  0  0  0  0
 19 20  1  0  0  0  0
 20 22  1  0  0  0  0
 20 21  1  0  0  0  0
 24 28  1  1  0  0  0
 24 26  1  0  0  0  0
 24 23  1  0  0  0  0
 25 26  1  0  0  0  0
 27 28  1  0  0  0  0
 29 32  1  0  0  0  0
 30 32  1  0  0  0  0
 32 31  1  0  0  0  0
M  END
>  <MODEL>
6

>  <REMARK>
 VINA RESULT:      -5.0      5.376      9.865
  Name = 
  9 active torsions:
  status: ('A' for Active; 'I' for Inactive)
    1  A    between atoms: C_1  and  S_3
    2  A    between atoms: S_3  and  N_31
    3  A    between atoms: C_8  and  C_16
    4  A    between atoms: C_9  and  C_21
    5  A    between atoms: C_13  and  C_20
    6  A    between atoms: C_15  and  O_27
    7  A    between atoms: C_16  and  C_21
    8  A    between atoms: C_16  and  C_30
    9  A    between atoms: C_24  and  O_27
                            x       y       z     vdW  Elec       q    Type
                         _______ _______ _______ _____ _____    ______ ____

>  <TORSDO>
F 9

$$$$
=
 OpenBabel11072411533D

 32 33  0  0  1  0  0  0  0  0999 V2000
  161.1580  206.7520  147.7510 C   0  0  1  0  0  3  0  0  0  0  0  0
  162.1140  205.9730  146.8820 C   0  0  0  0  0  0  0  0  0  0  0  0
  161.5200  203.1280  147.9820 C   0  0  1  0  0  3  0  0  0  0  0  0
  161.3880  205.1640  149.5450 C   0  0  2  0  0  3  0  0  0  0  0  0
  160.3830  205.7520  148.6220 C   0  0  1  0  0  3  0  0  0  0  0  0
  162.8440  204.9120  147.4370 O   0  0  0  0  0  0  0  0  0  0  0  0
  162.2510  206.2750  145.6340 N   0  0  0  0  0  2  0  0  0  0  0  0
  162.5750  203.6210  147.1520 O   0  0  0  0  0  0  0  0  0  0  0  0
  161.2010  203.6650  149.4150 C   0  0  2  0  0  3  0  0  0  0  0  0
  160.3090  205.9350  150.0170 O   0  0  0  0  0  0  0  0  0  0  0  0
  163.4490  208.0430  148.4040 O   0  0  0  0  0  0  0  0  0  0  0  0
  161.9620  208.1100  148.6120 S   0  0  0  0  0  0  0  0  0  0  0  0
  161.4560  209.4180  148.0720 O   0  0  0  0  0  0  0  0  0  0  0  0
  160.9890  206.7360  152.6320 O   0  0  0  0  0  0  0  0  0  0  0  0
  161.0050  207.8700  153.1830 C   0  0  0  0  0  0  0  0  0  0  0  0
  161.3020  209.0500  152.4240 N   0  0  0  0  0  2  0  0  0  0  0  0
  161.5890  209.0950  151.0220 C   0  0  0  0  0  3  0  0  0  0  0  0
  161.6230  208.0200  150.3030 N   0  0  0  0  0  0  0  0  0  0  0  0
  160.1090  209.1640  154.9270 F   0  0  0  0  0  0  0  0  0  0  0  0
  160.7530  207.9730  154.6540 C   0  0  0  0  0  0  0  0  0  0  0  0
  161.9560  207.9380  155.3360 F   0  0  0  0  0  0  0  0  0  0  0  0
  159.9640  206.9210  155.0830 F   0  0  0  0  0  0  0  0  0  0  0  0
  160.3620  202.4890  147.2260 C   0  0  0  0  0  2  0  0  0  0  0  0
  160.8310  201.4850  146.1840 C   0  0  2  0  0  3  0  0  0  0  0  0
  159.4310  202.5040  144.5070 O   0  0  0  0  0  1  0  0  0  0  0  0
  159.7560  201.2900  145.1190 C   0  0  0  0  0  2  0  0  0  0  0  0
  161.2340  198.8300  145.6100 S   0  0  0  0  0  1  0  0  0  0  0  0
  161.2020  200.1650  146.8430 C   0  0  0  0  0  2  0  0  0  0  0  0
  162.0170  203.0090  150.3550 O   0  0  0  0  0  0  0  0  0  0  0  0
  160.4720  203.2040  152.2550 C   0  0  0  0  0  1  0  0  0  0  0  0
  160.2680  201.3020  150.6030 C   0  0  0  0  0  1  0  0  0  0  0  0
  161.2050  202.3000  151.2710 C   0  0  0  0  0  3  0  0  0  0  0  0
  1 12  1  1  0  0  0
  1  5  1  0  0  0  0
  2  6  1  0  0  0  0
  2  1  1  0  0  0  0
  3 23  1  6  0  0  0
  3  9  1  0  0  0  0
  4 10  1  1  0  0  0
  5  4  1  0  0  0  0
  5 10  1  1  0  0  0
  7  2  2  0  0  0  0
  8  6  1  0  0  0  0
  8  3  1  0  0  0  0
  9  4  1  0  0  0  0
  9 29  1  1  0  0  0
 11 12  2  0  0  0  0
 12 18  1  0  0  0  0
 13 12  2  0  0  0  0
 14 15  2  0  0  0  0
 15 20  1  0  0  0  0
 16 15  1  0  0  0  0
 17 16  1  0  0  0  0
 18 17  2  0  0  0  0
 20 19  1  0  0  0  0
 20 22  1  0  0  0  0
 20 21  1  0  0  0  0
 24 26  1  6  0  0  0
 24 28  1  0  0  0  0
 24 23  1  0  0  0  0
 25 26  1  0  0  0  0
 27 28  1  0  0  0  0
 29 32  1  0  0  0  0
 31 32  1  0  0  0  0
 32 30  1  0  0  0  0
M  END
>  <MODEL>
7

>  <REMARK>
 VINA RESULT:      -4.5      5.448     10.339
  Name = 
  9 active torsions:
  status: ('A' for Active; 'I' for Inactive)
    1  A    between atoms: C_1  and  S_3
    2  A    between atoms: S_3  and  N_31
    3  A    between atoms: C_8  and  C_16
    4  A    between atoms: C_9  and  C_21
    5  A    between atoms: C_13  and  C_20
    6  A    between atoms: C_15  and  O_27
    7  A    between atoms: C_16  and  C_21
    8  A    between atoms: C_16  and  C_30
    9  A    between atoms: C_24  and  O_27
                            x       y       z     vdW  Elec       q    Type
                         _______ _______ _______ _____ _____    ______ ____

>  <TORSDO>
F 9

$$$$
=
 OpenBabel11072411533D

 32 33  0  0  1  0  0  0  0  0999 V2000
  160.9180  207.5490  152.3930 C   0  0  1  0  0  3  0  0  0  0  0  0
  161.2030  208.5080  153.5210 C   0  0  0  0  0  0  0  0  0  0  0  0
  160.8150  211.1720  151.9690 C   0  0  1  0  0  3  0  0  0  0  0  0
  161.7600  209.1080  150.7640 C   0  0  2  0  0  3  0  0  0  0  0  0
  160.5310  208.3720  151.1550 C   0  0  1  0  0  3  0  0  0  0  0  0
  161.9480  209.6710  153.2700 O   0  0  0  0  0  0  0  0  0  0  0  0
  160.7560  208.2670  154.7080 N   0  0  0  0  0  2  0  0  0  0  0  0
  161.3880  210.8980  153.2490 O   0  0  0  0  0  0  0  0  0  0  0  0
  161.3180  210.5520  150.6250 C   0  0  2  0  0  3  0  0  0  0  0  0
  161.1750  208.1440  149.9230 O   0  0  0  0  0  0  0  0  0  0  0  0
  163.3510  206.9330  151.3710 O   0  0  0  0  0  0  0  0  0  0  0  0
  162.2280  206.3380  152.1730 S   0  0  0  0  0  0  0  0  0  0  0  0
  162.7580  205.9230  153.5160 O   0  0  0  0  0  0  0  0  0  0  0  0
  160.7790  203.5510  149.1520 O   0  0  0  0  0  0  0  0  0  0  0  0
  160.5370  202.5950  149.9380 C   0  0  0  0  0  0  0  0  0  0  0  0
  160.7890  202.7190  151.3440 N   0  0  0  0  0  2  0  0  0  0  0  0
  161.3050  203.8810  152.0030 C   0  0  0  0  0  3  0  0  0  0  0  0
  161.6170  204.9500  151.3460 N   0  0  0  0  0  0  0  0  0  0  0  0
  160.0360  200.3410  150.3740 F   0  0  0  0  0  0  0  0  0  0  0  0
  160.0220  201.3040  149.3830 C   0  0  0  0  0  0  0  0  0  0  0  0
  160.8250  200.8930  148.3350 F   0  0  0  0  0  0  0  0  0  0  0  0
  158.7270  201.4600  148.9210 F   0  0  0  0  0  0  0  0  0  0  0  0
  159.3550  211.6110  152.0070 C   0  0  0  0  0  2  0  0  0  0  0  0
  159.1720  212.9640  152.6760 C   0  0  2  0  0  3  0  0  0  0  0  0
  158.2030  213.6470  154.7750 O   0  0  0  0  0  1  0  0  0  0  0  0
  157.9570  212.9360  153.5980 C   0  0  0  0  0  2  0  0  0  0  0  0
  157.6070  213.7640  150.5670 S   0  0  0  0  0  1  0  0  0  0  0  0
  159.0490  214.0640  151.6320 C   0  0  0  0  0  2  0  0  0  0  0  0
  162.3830  211.3210  150.1220 O   0  0  0  0  0  0  0  0  0  0  0  0
  160.8520  212.6370  148.7230 C   0  0  0  0  0  1  0  0  0  0  0  0
  163.2760  212.3350  148.0710 C   0  0  0  0  0  1  0  0  0  0  0  0
  162.0810  211.7410  148.8060 C   0  0  0  0  0  3  0  0  0  0  0  0
  1 12  1  6  0  0  0
  1  2  1  0  0  0  0
  2  7  2  0  0  0  0
  3 23  1  1  0  0  0
  3  8  1  0  0  0  0
  4 10  1  6  0  0  0
  4  5  1  0  0  0  0
  5 10  1  6  0  0  0
  5  1  1  0  0  0  0
  6  2  1  0  0  0  0
  8  6  1  0  0  0  0
  9 29  1  1  0  0  0
  9  4  1  0  0  0  0
  9  3  1  0  0  0  0
 11 12  2  0  0  0  0
 12 13  2  0  0  0  0
 14 15  2  0  0  0  0
 15 16  1  0  0  0  0
 16 17  1  0  0  0  0
 18 17  2  0  0  0  0
 18 12  1  0  0  0  0
 20 15  1  0  0  0  0
 20 19  1  0  0  0  0
 21 20  1  0  0  0  0
 22 20  1  0  0  0  0
 23 24  1  0  0  0  0
 24 28  1  6  0  0  0
 24 26  1  0  0  0  0
 26 25  1  0  0  0  0
 27 28  1  0  0  0  0
 30 32  1  0  0  0  0
 31 32  1  0  0  0  0
 32 29  1  0  0  0  0
M  END
>  <MODEL>
8

>  <REMARK>
 VINA RESULT:      -4.2      2.914      4.382
  Name = 
  9 active torsions:
  status: ('A' for Active; 'I' for Inactive)
    1  A    between atoms: C_1  and  S_3
    2  A    between atoms: S_3  and  N_31
    3  A    between atoms: C_8  and  C_16
    4  A    between atoms: C_9  and  C_21
    5  A    between atoms: C_13  and  C_20
    6  A    between atoms: C_15  and  O_27
    7  A    between atoms: C_16  and  C_21
    8  A    between atoms: C_16  and  C_30
    9  A    between atoms: C_24  and  O_27
                            x       y       z     vdW  Elec       q    Type
                         _______ _______ _______ _____ _____    ______ ____

>  <TORSDO>
F 9

$$$$
=
 OpenBabel11072411533D

 32 33  0  0  1  0  0  0  0  0999 V2000
  160.8880  204.9930  151.7380 C   0  0  1  0  0  3  0  0  0  0  0  0
  162.0790  205.7860  152.2150 C   0  0  0  0  0  0  0  0  0  0  0  0
  162.1140  207.9490  149.9850 C   0  0  1  0  0  3  0  0  0  0  0  0
  161.3450  205.5570  149.4440 C   0  0  2  0  0  3  0  0  0  0  0  0
  160.3120  205.6970  150.5010 C   0  0  1  0  0  3  0  0  0  0  0  0
  162.9980  206.2840  151.2800 O   0  0  0  0  0  0  0  0  0  0  0  0
  162.2460  206.0130  153.4750 N   0  0  0  0  0  2  0  0  0  0  0  0
  163.0820  207.5960  150.9750 O   0  0  0  0  0  0  0  0  0  0  0  0
  161.5470  206.9630  148.9120 C   0  0  2  0  0  3  0  0  0  0  0  0
  160.0730  204.9700  149.3180 O   0  0  0  0  0  0  0  0  0  0  0  0
  162.6750  202.9690  151.9690 O   0  0  0  0  0  0  0  0  0  0  0  0
  161.2530  203.2410  151.5660 S   0  0  0  0  0  0  0  0  0  0  0  0
  160.3370  202.4470  152.4540 O   0  0  0  0  0  0  0  0  0  0  0  0
  161.3900  202.9190  147.2210 O   0  0  0  0  0  0  0  0  0  0  0  0
  160.6110  201.9340  147.1220 C   0  0  0  0  0  0  0  0  0  0  0  0
  160.0350  201.3330  148.2900 N   0  0  0  0  0  2  0  0  0  0  0  0
  160.2470  201.7570  149.6410 C   0  0  0  0  0  3  0  0  0  0  0  0
  161.0260  202.7490  149.9260 N   0  0  0  0  0  0  0  0  0  0  0  0
  160.8320  202.2020  144.7990 F   0  0  0  0  0  0  0  0  0  0  0  0
  160.3210  201.3630  145.7700 C   0  0  0  0  0  0  0  0  0  0  0  0
  158.9540  201.2440  145.5980 F   0  0  0  0  0  0  0  0  0  0  0  0
  160.8990  200.1130  145.6400 F   0  0  0  0  0  0  0  0  0  0  0  0
  161.2190  209.1250  150.3610 C   0  0  0  0  0  2  0  0  0  0  0  0
  161.4210  209.5720  151.8010 C   0  0  2  0  0  3  0  0  0  0  0  0
  160.8380  208.9470  154.0550 O   0  0  0  0  0  1  0  0  0  0  0  0
  160.4420  208.8450  152.7180 C   0  0  0  0  0  2  0  0  0  0  0  0
  159.6040  211.5080  152.5010 S   0  0  0  0  0  1  0  0  0  0  0  0
  161.2720  211.0810  151.9180 C   0  0  0  0  0  2  0  0  0  0  0  0
  162.4150  206.9250  147.8050 O   0  0  0  0  0  0  0  0  0  0  0  0
  160.7680  206.3910  146.0630 C   0  0  0  0  0  1  0  0  0  0  0  0
  163.0820  205.3740  146.0220 C   0  0  0  0  0  1  0  0  0  0  0  0
  161.9680  205.9440  146.8890 C   0  0  0  0  0  3  0  0  0  0  0  0
  1 12  1  6  0  0  0
  1  2  1  0  0  0  0
  2  7  2  0  0  0  0
  3 23  1  1  0  0  0
  3  8  1  0  0  0  0
  4 10  1  6  0  0  0
  4  5  1  0  0  0  0
  5 10  1  6  0  0  0
  5  1  1  0  0  0  0
  6  2  1  0  0  0  0
  8  6  1  0  0  0  0
  9 29  1  6  0  0  0
  9  4  1  0  0  0  0
  9  3  1  0  0  0  0
 12 11  2  0  0  0  0
 12 13  2  0  0  0  0
 15 14  2  0  0  0  0
 15 16  1  0  0  0  0
 16 17  1  0  0  0  0
 17 18  2  0  0  0  0
 18 12  1  0  0  0  0
 19 20  1  0  0  0  0
 20 15  1  0  0  0  0
 21 20  1  0  0  0  0
 22 20  1  0  0  0  0
 24 23  1  6  0  0  0
 24 28  1  0  0  0  0
 24 26  1  0  0  0  0
 26 25  1  0  0  0  0
 28 27  1  0  0  0  0
 30 32  1  0  0  0  0
 31 32  1  0  0  0  0
 32 29  1  0  0  0  0
M  END
>  <MODEL>
9

>  <REMARK>
 VINA RESULT:      -4.2      4.558      7.425
  Name = 
  9 active torsions:
  status: ('A' for Active; 'I' for Inactive)
    1  A    between atoms: C_1  and  S_3
    2  A    between atoms: S_3  and  N_31
    3  A    between atoms: C_8  and  C_16
    4  A    between atoms: C_9  and  C_21
    5  A    between atoms: C_13  and  C_20
    6  A    between atoms: C_15  and  O_27
    7  A    between atoms: C_16  and  C_21
    8  A    between atoms: C_16  and  C_30
    9  A    between atoms: C_24  and  O_27
                            x       y       z     vdW  Elec       q    Type
                         _______ _______ _______ _____ _____    ______ ____

>  <TORSDO>
F 9

$$$$
