=
 OpenBabel11072415203D

 63 70  0  0  1  0  0  0  0  0999 V2000
  161.3490  206.1910  152.5790 N   0  0  0  0  0  0  0  0  0  0  0  0
  162.1250  209.7990  150.0970 C   0  0  2  0  0  3  0  0  0  0  0  0
  160.0850  210.0040  155.1580 C   0  0  0  0  0  0  0  0  0  0  0  0
  161.7750  208.4340  149.5770 C   0  0  0  0  0  3  0  0  0  0  0  0
  162.3910  205.0120  150.7380 C   0  0  0  0  0  2  0  0  0  0  0  0
  162.0590  208.9350  152.3920 N   0  0  0  0  0  2  0  0  0  0  0  0
  162.4830  207.3870  149.9810 C   0  0  0  0  0  3  0  0  0  0  0  0
  162.1080  206.0260  149.7090 N   0  0  0  0  0  0  0  0  0  0  0  0
  161.4580  205.6410  148.4820 C   0  0  0  0  0  0  0  0  0  0  0  0
  160.6950  209.2010  154.3200 C   0  0  0  0  0  0  0  0  0  0  0  0
  161.5650  209.9880  151.5140 C   0  0  0  0  0  2  0  0  0  0  0  0
  161.4020  206.9400  153.8080 C   0  0  0  0  0  2  0  0  0  0  0  0
  161.3210  208.4050  153.4980 C   0  0  0  0  0  0  0  0  0  0  0  0
  161.3200  206.4700  147.5420 O   0  0  0  0  0  0  0  0  0  0  0  0
  162.3990  205.6130  152.1200 C   0  0  0  0  0  3  0  0  0  0  0  0
  157.6600  210.6530  155.2620 C   0  0  1  0  0  3  0  0  0  0  0  0
  159.0420  210.9670  154.6720 C   0  0  2  0  0  3  0  0  0  0  0  0
  159.0080  211.0460  153.1410 C   0  0  0  0  0  2  0  0  0  0  0  0
  157.1990  211.8040  156.0540 N   0  0  0  0  0  2  0  0  0  0  0  0
  157.8640  211.9250  152.6150 C   0  0  0  0  0  2  0  0  0  0  0  0
  157.0580  212.5800  153.7360 C   0  0  2  0  0  3  0  0  0  0  0  0
  156.5840  211.5310  154.7480 C   0  0  1  0  0  3  0  0  0  0  0  0
  155.6710  213.4830  153.0740 S   0  0  0  0  0  0  0  0  0  0  0  0
  155.1310  214.4150  154.1200 O   0  0  0  0  0  0  0  0  0  0  0  0
  154.5940  212.5220  152.6630 O   0  0  0  0  0  0  0  0  0  0  0  0
  156.1710  214.4210  151.6520 C   0  0  0  0  0  1  0  0  0  0  0  0
  161.8360  210.0450  156.7330 F   0  0  0  0  0  0  0  0  0  0  0  0
  159.9710  208.8780  157.2220 F   0  0  0  0  0  0  0  0  0  0  0  0
  160.4580  210.0210  156.6130 C   0  0  0  0  0  0  0  0  0  0  0  0
  159.9340  211.1270  157.2610 F   0  0  0  0  0  0  0  0  0  0  0  0
  161.3780  212.1990  149.6770 N   0  0  0  0  0  0  0  0  0  0  0  0
  161.6300  210.8780  149.1750 C   0  0  0  0  0  0  0  0  0  0  0  0
  161.4580  210.6340  147.9520 O   0  0  0  0  0  0  0  0  0  0  0  0
  161.2480  212.4090  151.0130 O   0  0  0  0  0  0  0  0  0  0  0  0
  160.4860  213.5750  151.1390 C   0  0  0  0  0  1  0  0  0  0  0  0
  161.6140  213.3440  148.8040 C   0  0  0  0  0  2  0  0  0  0  0  0
  160.3160  214.0900  148.4660 C   0  0  0  0  0  2  0  0  0  0  0  0
  159.9070  214.0020  147.0580 N   0  0  0  0  0  0  0  0  0  0  0  0
  159.0130  212.8610  143.1910 O   0  0  0  0  0  1  0  0  0  0  0  0
  158.9780  212.8860  146.9010 C   0  0  0  0  0  2  0  0  0  0  0  0
  158.4040  212.9070  145.4910 C   0  0  0  0  0  2  0  0  0  0  0  0
  160.6500  213.7620  144.7040 C   0  0  1  0  0  3  0  0  0  0  0  0
  159.5290  212.7320  144.4800 C   0  0  2  0  0  3  0  0  0  0  0  0
  161.0680  213.8110  146.1810 C   0  0  0  0  0  2  0  0  0  0  0  0
  162.7800  212.6690  144.4820 O   0  0  0  0  0  1  0  0  0  0  0  0
  161.8570  213.4700  143.8000 C   0  0  1  0  0  3  0  0  0  0  0  0
  162.6330  212.1960  141.7740 C   0  0  1  0  0  3  0  0  0  0  0  0
  162.0890  213.5200  141.3210 C   0  0  2  0  0  3  0  0  0  0  0  0
  161.4370  212.8010  142.4880 C   0  0  2  0  0  3  0  0  0  0  0  0
  162.4880  212.4830  140.2890 C   0  0  0  0  0  2  0  0  0  0  0  0
  160.9460  204.2500  148.2810 C   0  0  0  0  0  2  0  0  0  0  0  0
  160.6950  203.6160  149.5640 N   0  0  0  0  0  2  0  0  0  0  0  0
  159.8590  202.4520  149.3110 C   0  0  0  0  0  2  0  0  0  0  0  0
  160.4850  201.6040  148.2560 C   0  0  0  0  0  0  0  0  0  0  0  0
  161.6940  201.4230  148.2610 O   0  0  0  0  0  0  0  0  0  0  0  0
  159.6240  200.9810  147.1940 C   0  0  2  0  0  3  0  0  0  0  0  0
  159.5130  202.1340  145.0480 C   0  0  0  0  0  2  0  0  0  0  0  0
  159.6840  199.6870  145.0360 N   0  0  0  0  0  2  0  0  0  0  0  0
  160.4560  200.2430  146.1540 C   0  0  1  0  0  0  0  0  0  0  0  0
  160.4490  200.9430  144.8840 C   0  0  2  0  0  3  0  0  0  0  0  0
  158.8830  202.0670  146.4330 C   0  0  0  0  0  2  0  0  0  0  0  0
  161.6940  198.2450  145.7510 O   0  0  0  0  0  1  0  0  0  0  0  0
  161.6950  199.4290  146.4890 C   0  0  0  0  0  2  0  0  0  0  0  0
  1 12  1  0  0  0  0
  2 32  1  6  0  0  0
  2 11  1  0  0  0  0
  3 29  1  0  0  0  0
  4  7  2  0  0  0  0
  4  2  1  0  0  0  0
  5 15  1  0  0  0  0
  6 13  1  0  0  0  0
  8  7  1  0  0  0  0
  8  5  1  0  0  0  0
  9  8  1  0  0  0  0
 10  3  2  0  0  0  0
 11  6  1  0  0  0  0
 13 12  1  0  0  0  0
 13 10  2  0  0  0  0
 14  9  2  0  0  0  0
 15  1  2  0  0  0  0
 16 19  1  1  0  0  0
 17  3  1  6  0  0  0
 17 16  1  0  0  0  0
 18 17  1  0  0  0  0
 20 18  1  0  0  0  0
 20 21  1  0  0  0  0
 21 23  1  6  0  0  0
 21 22  1  0  0  0  0
 22 16  1  0  0  0  0
 22 19  1  1  0  0  0
 23 24  2  0  0  0  0
 25 23  2  0  0  0  0
 26 23  1  0  0  0  0
 29 27  1  0  0  0  0
 29 28  1  0  0  0  0
 29 30  1  0  0  0  0
 31 34  1  0  0  0  0
 32 31  1  0  0  0  0
 33 32  2  0  0  0  0
 34 35  1  0  0  0  0
 36 31  1  0  0  0  0
 37 36  1  0  0  0  0
 38 37  1  0  0  0  0
 40 38  1  0  0  0  0
 41 40  1  0  0  0  0
 42 46  1  6  0  0  0
 42 44  1  0  0  0  0
 43 39  1  6  0  0  0
 43 42  1  0  0  0  0
 43 41  1  0  0  0  0
 44 38  1  0  0  0  0
 46 45  1  1  0  0  0
 47 50  1  6  0  0  0
 47 49  1  0  0  0  0
 48 50  1  6  0  0  0
 48 47  1  0  0  0  0
 48 49  1  0  0  0  0
 49 46  1  1  0  0  0
 51  9  1  0  0  0  0
 51 52  1  0  0  0  0
 53 52  1  0  0  0  0
 54 55  2  0  0  0  0
 54 53  1  0  0  0  0
 56 54  1  1  0  0  0
 57 61  1  0  0  0  0
 58 59  1  0  0  0  0
 59 63  1  1  0  0  0
 59 56  1  0  0  0  0
 60 58  1  0  0  0  0
 60 57  1  1  0  0  0
 60 59  1  0  0  0  0
 61 56  1  0  0  0  0
 62 63  1  0  0  0  0
M  END
>  <MODEL>
1

>  <REMARK>
 VINA RESULT:      -2.1      0.000      0.000
  Name = 
  16 active torsions:
  status: ('A' for Active; 'I' for Inactive)
    1  A    between atoms: C_1  and  N_25
    2  A    between atoms: C_1  and  C_41
    3  A    between atoms: S_2  and  C_50
    4  A    between atoms: O_3  and  N_19
    5  A    between atoms: C_6  and  C_11
    6  A    between atoms: C_7  and  C_23
    7  A    between atoms: C_9  and  C_21
    8  A    between atoms: C_9  and  C_24
    9  A    between atoms: C_10  and  C_11
   10  A    between atoms: C_10  and  N_25
   11  A    between atoms: N_13  and  C_47
   12  A    between atoms: N_19  and  C_54
   13  A    between atoms: C_32  and  C_40
   14  A    between atoms: C_32  and  C_45
   15  A    between atoms: C_43  and  C_57
   16  A    between atoms: C_47  and  C_54
                            x       y       z     vdW  Elec       q    Type
                         _______ _______ _______ _____ _____    ______ ____

>  <TORSDO>
F 16

$$$$
=
 OpenBabel11072415203D

 63 70  0  0  1  0  0  0  0  0999 V2000
  160.5280  204.2900  153.0940 N   0  0  0  0  0  0  0  0  0  0  0  0
  162.4070  207.1510  150.2550 C   0  0  2  0  0  3  0  0  0  0  0  0
  160.3910  208.6130  155.1130 C   0  0  0  0  0  0  0  0  0  0  0  0
  161.6810  205.8910  149.8800 C   0  0  0  0  0  3  0  0  0  0  0  0
  161.2200  202.6250  151.4770 C   0  0  0  0  0  2  0  0  0  0  0  0
  162.0280  206.6560  152.6270 N   0  0  0  0  0  2  0  0  0  0  0  0
  162.0340  204.7470  150.4500 C   0  0  0  0  0  3  0  0  0  0  0  0
  161.2780  203.5310  150.3190 N   0  0  0  0  0  0  0  0  0  0  0  0
  160.5740  203.1930  149.1070 C   0  0  0  0  0  0  0  0  0  0  0  0
  160.7550  207.5630  154.4190 C   0  0  0  0  0  0  0  0  0  0  0  0
  161.8930  207.6820  151.6000 C   0  0  0  0  0  2  0  0  0  0  0  0
  160.7710  205.1470  154.2260 C   0  0  0  0  0  2  0  0  0  0  0  0
  161.1370  206.5170  153.7380 C   0  0  0  0  0  0  0  0  0  0  0  0
  160.7140  203.8930  148.0680 O   0  0  0  0  0  0  0  0  0  0  0  0
  161.3700  203.3750  152.7750 C   0  0  0  0  0  3  0  0  0  0  0  0
  160.4670  211.0790  154.6360 C   0  0  1  0  0  3  0  0  0  0  0  0
  159.6940  209.7650  154.4500 C   0  0  2  0  0  3  0  0  0  0  0  0
  158.2360  209.8890  154.9060 C   0  0  0  0  0  2  0  0  0  0  0  0
  160.8580  211.6020  153.3160 N   0  0  0  0  0  2  0  0  0  0  0  0
  157.5390  211.1350  154.3430 C   0  0  0  0  0  2  0  0  0  0  0  0
  158.4340  211.9370  153.3990 C   0  0  2  0  0  3  0  0  0  0  0  0
  159.7760  212.2580  154.0640 C   0  0  1  0  0  3  0  0  0  0  0  0
  157.6200  213.4340  152.8760 S   0  0  0  0  0  0  0  0  0  0  0  0
  156.3590  213.0900  152.1360 O   0  0  0  0  0  0  0  0  0  0  0  0
  158.5290  214.2120  151.9700 O   0  0  0  0  0  0  0  0  0  0  0  0
  157.2200  214.4400  154.2830 C   0  0  0  0  0  1  0  0  0  0  0  0
  160.0000  209.7600  157.1320 F   0  0  0  0  0  0  0  0  0  0  0  0
  162.0660  208.9570  156.7310 F   0  0  0  0  0  0  0  0  0  0  0  0
  160.7130  208.7130  156.5770 C   0  0  0  0  0  0  0  0  0  0  0  0
  160.3920  207.5470  157.2510 F   0  0  0  0  0  0  0  0  0  0  0  0
  161.8670  209.5290  149.5140 N   0  0  0  0  0  0  0  0  0  0  0  0
  162.2800  208.1950  149.1800 C   0  0  0  0  0  0  0  0  0  0  0  0
  162.5590  207.9100  147.9860 O   0  0  0  0  0  0  0  0  0  0  0  0
  161.2650  209.7810  150.7060 O   0  0  0  0  0  0  0  0  0  0  0  0
  161.4360  211.1500  150.9320 C   0  0  0  0  0  1  0  0  0  0  0  0
  162.4050  210.6480  148.7470 C   0  0  0  0  0  2  0  0  0  0  0  0
  161.3060  211.6230  148.3030 C   0  0  0  0  0  2  0  0  0  0  0  0
  161.3840  212.0340  146.8940 N   0  0  0  0  0  0  0  0  0  0  0  0
  161.5390  214.0510  143.2930 O   0  0  0  0  0  1  0  0  0  0  0  0
  162.4360  213.0360  146.7480 C   0  0  0  0  0  2  0  0  0  0  0  0
  162.6510  213.3250  145.2690 C   0  0  0  0  0  2  0  0  0  0  0  0
  160.1670  212.9760  144.9500 C   0  0  1  0  0  3  0  0  0  0  0  0
  161.3710  213.8920  144.6680 C   0  0  2  0  0  3  0  0  0  0  0  0
  160.1040  212.5850  146.4330 C   0  0  0  0  0  2  0  0  0  0  0  0
  158.3520  214.4450  145.5230 O   0  0  0  0  0  1  0  0  0  0  0  0
  158.8560  213.6360  144.4990 C   0  0  1  0  0  3  0  0  0  0  0  0
  157.8230  214.3400  142.3140 C   0  0  1  0  0  3  0  0  0  0  0  0
  159.0450  213.5210  142.0180 C   0  0  2  0  0  3  0  0  0  0  0  0
  159.0400  214.4530  143.2160 C   0  0  2  0  0  3  0  0  0  0  0  0
  158.3110  214.2060  140.8820 C   0  0  0  0  0  2  0  0  0  0  0  0
  159.6780  201.9980  149.0410 C   0  0  0  0  0  2  0  0  0  0  0  0
  159.7610  201.3770  147.7310 N   0  0  0  0  0  2  0  0  0  0  0  0
  159.6110  202.4350  146.7440 C   0  0  0  0  0  2  0  0  0  0  0  0
  160.4620  202.1370  145.5560 C   0  0  0  0  0  0  0  0  0  0  0  0
  160.8280  200.9900  145.3430 O   0  0  0  0  0  0  0  0  0  0  0  0
  160.8650  203.2520  144.6310 C   0  0  2  0  0  3  0  0  0  0  0  0
  159.7520  205.3990  144.9430 C   0  0  0  0  0  2  0  0  0  0  0  0
  162.1630  205.4040  144.4970 N   0  0  0  0  0  2  0  0  0  0  0  0
  161.8020  204.2390  145.3140 C   0  0  1  0  0  0  0  0  0  0  0  0
  161.1410  205.5060  145.5590 C   0  0  2  0  0  3  0  0  0  0  0  0
  159.6390  204.0560  144.2340 C   0  0  0  0  0  2  0  0  0  0  0  0
  163.8660  204.8270  146.3520 O   0  0  0  0  0  1  0  0  0  0  0  0
  162.8940  203.8280  146.2870 C   0  0  0  0  0  2  0  0  0  0  0  0
  1 12  1  0  0  0  0
  2 32  1  6  0  0  0
  2 11  1  0  0  0  0
  3 29  1  0  0  0  0
  4  2  1  0  0  0  0
  4  7  2  0  0  0  0
  5 15  1  0  0  0  0
  6 13  1  0  0  0  0
  8  7  1  0  0  0  0
  8  5  1  0  0  0  0
  9  8  1  0  0  0  0
 10  3  2  0  0  0  0
 11  6  1  0  0  0  0
 13 12  1  0  0  0  0
 13 10  2  0  0  0  0
 14  9  2  0  0  0  0
 15  1  2  0  0  0  0
 16 19  1  6  0  0  0
 17 16  1  0  0  0  0
 17 18  1  0  0  0  0
 17  3  1  1  0  0  0
 20 18  1  0  0  0  0
 21 23  1  1  0  0  0
 21 22  1  0  0  0  0
 21 20  1  0  0  0  0
 22 19  1  6  0  0  0
 22 16  1  0  0  0  0
 23 26  1  0  0  0  0
 24 23  2  0  0  0  0
 25 23  2  0  0  0  0
 29 28  1  0  0  0  0
 29 27  1  0  0  0  0
 29 30  1  0  0  0  0
 31 34  1  0  0  0  0
 32 31  1  0  0  0  0
 33 32  2  0  0  0  0
 34 35  1  0  0  0  0
 36 31  1  0  0  0  0
 37 36  1  0  0  0  0
 38 37  1  0  0  0  0
 40 38  1  0  0  0  0
 41 40  1  0  0  0  0
 42 46  1  1  0  0  0
 42 44  1  0  0  0  0
 43 39  1  6  0  0  0
 43 42  1  0  0  0  0
 43 41  1  0  0  0  0
 44 38  1  0  0  0  0
 46 45  1  1  0  0  0
 47 50  1  6  0  0  0
 47 49  1  0  0  0  0
 48 50  1  6  0  0  0
 48 47  1  0  0  0  0
 48 49  1  0  0  0  0
 49 46  1  1  0  0  0
 51  9  1  0  0  0  0
 52 51  1  0  0  0  0
 53 52  1  0  0  0  0
 54 53  1  0  0  0  0
 55 54  2  0  0  0  0
 56 59  1  0  0  0  0
 56 54  1  1  0  0  0
 58 59  1  0  0  0  0
 58 60  1  0  0  0  0
 59 60  1  0  0  0  0
 59 63  1  1  0  0  0
 60 57  1  6  0  0  0
 61 56  1  0  0  0  0
 61 57  1  0  0  0  0
 63 62  1  0  0  0  0
M  END
>  <MODEL>
2

>  <REMARK>
 VINA RESULT:      -2.0      2.090      3.154
  Name = 
  16 active torsions:
  status: ('A' for Active; 'I' for Inactive)
    1  A    between atoms: C_1  and  N_25
    2  A    between atoms: C_1  and  C_41
    3  A    between atoms: S_2  and  C_50
    4  A    between atoms: O_3  and  N_19
    5  A    between atoms: C_6  and  C_11
    6  A    between atoms: C_7  and  C_23
    7  A    between atoms: C_9  and  C_21
    8  A    between atoms: C_9  and  C_24
    9  A    between atoms: C_10  and  C_11
   10  A    between atoms: C_10  and  N_25
   11  A    between atoms: N_13  and  C_47
   12  A    between atoms: N_19  and  C_54
   13  A    between atoms: C_32  and  C_40
   14  A    between atoms: C_32  and  C_45
   15  A    between atoms: C_43  and  C_57
   16  A    between atoms: C_47  and  C_54
                            x       y       z     vdW  Elec       q    Type
                         _______ _______ _______ _____ _____    ______ ____

>  <TORSDO>
F 16

$$$$
=
 OpenBabel11072415203D

 63 70  0  0  1  0  0  0  0  0999 V2000
  160.7730  205.0340  153.4020 N   0  0  0  0  0  0  0  0  0  0  0  0
  162.3190  207.8130  150.2930 C   0  0  2  0  0  3  0  0  0  0  0  0
  160.5170  209.4580  155.1770 C   0  0  0  0  0  0  0  0  0  0  0  0
  161.6430  206.4970  150.0360 C   0  0  0  0  0  3  0  0  0  0  0  0
  161.4580  203.3130  151.8420 C   0  0  0  0  0  2  0  0  0  0  0  0
  162.1090  207.4430  152.7090 N   0  0  0  0  0  2  0  0  0  0  0  0
  162.0920  205.4090  150.6470 C   0  0  0  0  0  3  0  0  0  0  0  0
  161.3980  204.1500  150.6330 N   0  0  0  0  0  0  0  0  0  0  0  0
  160.6430  203.7030  149.4890 C   0  0  0  0  0  0  0  0  0  0  0  0
  160.8970  208.3880  154.5220 C   0  0  0  0  0  0  0  0  0  0  0  0
  161.8570  208.3970  151.6360 C   0  0  0  0  0  2  0  0  0  0  0  0
  161.0350  205.9690  154.4660 C   0  0  0  0  0  2  0  0  0  0  0  0
  161.2950  207.3240  153.8800 C   0  0  0  0  0  0  0  0  0  0  0  0
  160.6820  204.3470  148.4050 O   0  0  0  0  0  0  0  0  0  0  0  0
  161.6440  204.1460  153.0840 C   0  0  0  0  0  3  0  0  0  0  0  0
  158.6280  211.0980  155.4120 C   0  0  1  0  0  3  0  0  0  0  0  0
  159.7200  210.5310  154.4950 C   0  0  2  0  0  3  0  0  0  0  0  0
  159.1510  210.0530  153.1540 C   0  0  0  0  0  2  0  0  0  0  0  0
  158.8690  212.5340  155.6230 N   0  0  0  0  0  2  0  0  0  0  0  0
  158.2260  211.0860  152.4970 C   0  0  0  0  0  2  0  0  0  0  0  0
  158.1330  212.3870  153.2930 C   0  0  2  0  0  3  0  0  0  0  0  0
  157.7650  212.1050  154.7530 C   0  0  1  0  0  3  0  0  0  0  0  0
  156.9510  213.4970  152.5530 S   0  0  0  0  0  0  0  0  0  0  0  0
  157.6130  214.2790  151.4540 O   0  0  0  0  0  0  0  0  0  0  0  0
  156.4330  214.4480  153.5920 O   0  0  0  0  0  0  0  0  0  0  0  0
  155.5840  212.5840  151.8830 C   0  0  0  0  0  1  0  0  0  0  0  0
  161.0490  208.4320  157.2290 F   0  0  0  0  0  0  0  0  0  0  0  0
  159.9430  210.3950  157.2590 F   0  0  0  0  0  0  0  0  0  0  0  0
  160.9200  209.6630  156.6100 C   0  0  0  0  0  0  0  0  0  0  0  0
  162.1240  210.3410  156.7090 F   0  0  0  0  0  0  0  0  0  0  0  0
  162.1160  210.1970  149.4140 N   0  0  0  0  0  0  0  0  0  0  0  0
  162.0710  208.7830  149.1710 C   0  0  0  0  0  0  0  0  0  0  0  0
  161.8460  208.3580  148.0070 O   0  0  0  0  0  0  0  0  0  0  0  0
  162.0390  210.6750  150.6840 O   0  0  0  0  0  0  0  0  0  0  0  0
  161.1230  211.7310  150.6340 C   0  0  0  0  0  1  0  0  0  0  0  0
  162.5960  211.0810  148.3580 C   0  0  0  0  0  2  0  0  0  0  0  0
  161.7140  212.3270  148.2030 C   0  0  0  0  0  2  0  0  0  0  0  0
  160.9670  212.3970  146.9400 N   0  0  0  0  0  0  0  0  0  0  0  0
  159.0330  213.5110  143.4650 O   0  0  0  0  0  1  0  0  0  0  0  0
  161.7520  213.1480  145.9630 C   0  0  0  0  0  2  0  0  0  0  0  0
  161.0740  213.0610  144.6030 C   0  0  0  0  0  2  0  0  0  0  0  0
  158.8600  213.0780  145.8240 C   0  0  1  0  0  3  0  0  0  0  0  0
  159.6900  213.6910  144.6820 C   0  0  2  0  0  3  0  0  0  0  0  0
  159.6620  213.0410  147.1320 C   0  0  0  0  0  2  0  0  0  0  0  0
  156.4580  212.9880  145.7340 O   0  0  0  0  0  1  0  0  0  0  0  0
  157.5370  213.8360  146.0110 C   0  0  1  0  0  3  0  0  0  0  0  0
  156.8860  213.3810  148.3990 C   0  0  1  0  0  3  0  0  0  0  0  0
  155.9500  214.4130  147.8420 C   0  0  2  0  0  3  0  0  0  0  0  0
  157.4080  214.4190  147.4220 C   0  0  2  0  0  3  0  0  0  0  0  0
  155.8820  214.0610  149.3150 C   0  0  0  0  0  2  0  0  0  0  0  0
  159.8110  202.4630  149.5470 C   0  0  0  0  0  2  0  0  0  0  0  0
  159.9450  201.7070  148.3140 N   0  0  0  0  0  2  0  0  0  0  0  0
  159.6550  202.6200  147.2180 C   0  0  0  0  0  2  0  0  0  0  0  0
  160.4040  202.1970  146.0000 C   0  0  0  0  0  0  0  0  0  0  0  0
  160.7440  201.0300  145.8710 O   0  0  0  0  0  0  0  0  0  0  0  0
  160.7410  203.2120  144.9440 C   0  0  2  0  0  3  0  0  0  0  0  0
  159.6420  205.3830  145.1130 C   0  0  0  0  0  2  0  0  0  0  0  0
  162.0190  205.3370  144.5080 N   0  0  0  0  0  2  0  0  0  0  0  0
  161.7170  204.2600  145.4610 C   0  0  1  0  0  0  0  0  0  0  0  0
  161.0690  205.5470  145.6210 C   0  0  2  0  0  3  0  0  0  0  0  0
  159.4880  203.9760  144.5500 C   0  0  0  0  0  2  0  0  0  0  0  0
  163.4430  205.1350  146.8540 O   0  0  0  0  0  1  0  0  0  0  0  0
  162.8730  203.9470  146.3950 C   0  0  0  0  0  2  0  0  0  0  0  0
  1 12  1  0  0  0  0
  2 32  1  6  0  0  0
  2 11  1  0  0  0  0
  3 29  1  0  0  0  0
  4  2  1  0  0  0  0
  4  7  2  0  0  0  0
  5 15  1  0  0  0  0
  6 13  1  0  0  0  0
  8  7  1  0  0  0  0
  8  5  1  0  0  0  0
  9 51  1  0  0  0  0
  9  8  1  0  0  0  0
 10  3  2  0  0  0  0
 11  6  1  0  0  0  0
 13 12  1  0  0  0  0
 13 10  2  0  0  0  0
 14  9  2  0  0  0  0
 15  1  2  0  0  0  0
 16 19  1  1  0  0  0
 17  3  1  1  0  0  0
 17 16  1  0  0  0  0
 18 17  1  0  0  0  0
 20 18  1  0  0  0  0
 20 21  1  0  0  0  0
 21 23  1  6  0  0  0
 21 22  1  0  0  0  0
 22 16  1  0  0  0  0
 22 19  1  1  0  0  0
 23 25  2  0  0  0  0
 24 23  2  0  0  0  0
 26 23  1  0  0  0  0
 29 30  1  0  0  0  0
 29 27  1  0  0  0  0
 29 28  1  0  0  0  0
 31 34  1  0  0  0  0
 32 31  1  0  0  0  0
 33 32  2  0  0  0  0
 35 34  1  0  0  0  0
 36 31  1  0  0  0  0
 37 36  1  0  0  0  0
 38 44  1  0  0  0  0
 38 37  1  0  0  0  0
 40 38  1  0  0  0  0
 41 43  1  0  0  0  0
 41 40  1  0  0  0  0
 42 46  1  1  0  0  0
 42 44  1  0  0  0  0
 43 39  1  6  0  0  0
 43 42  1  0  0  0  0
 46 45  1  1  0  0  0
 47 50  1  1  0  0  0
 48 47  1  0  0  0  0
 48 50  1  1  0  0  0
 49 46  1  6  0  0  0
 49 48  1  0  0  0  0
 49 47  1  0  0  0  0
 52 51  1  0  0  0  0
 53 52  1  0  0  0  0
 54 53  1  0  0  0  0
 55 54  2  0  0  0  0
 56 59  1  0  0  0  0
 56 54  1  1  0  0  0
 58 59  1  0  0  0  0
 58 60  1  0  0  0  0
 59 60  1  0  0  0  0
 59 63  1  1  0  0  0
 60 57  1  6  0  0  0
 61 56  1  0  0  0  0
 61 57  1  0  0  0  0
 63 62  1  0  0  0  0
M  END
>  <MODEL>
3

>  <REMARK>
 VINA RESULT:      -1.6      1.892      3.488
  Name = 
  16 active torsions:
  status: ('A' for Active; 'I' for Inactive)
    1  A    between atoms: C_1  and  N_25
    2  A    between atoms: C_1  and  C_41
    3  A    between atoms: S_2  and  C_50
    4  A    between atoms: O_3  and  N_19
    5  A    between atoms: C_6  and  C_11
    6  A    between atoms: C_7  and  C_23
    7  A    between atoms: C_9  and  C_21
    8  A    between atoms: C_9  and  C_24
    9  A    between atoms: C_10  and  C_11
   10  A    between atoms: C_10  and  N_25
   11  A    between atoms: N_13  and  C_47
   12  A    between atoms: N_19  and  C_54
   13  A    between atoms: C_32  and  C_40
   14  A    between atoms: C_32  and  C_45
   15  A    between atoms: C_43  and  C_57
   16  A    between atoms: C_47  and  C_54
                            x       y       z     vdW  Elec       q    Type
                         _______ _______ _______ _____ _____    ______ ____

>  <TORSDO>
F 16

$$$$
