=
 OpenBabel11072414553D

 57 60  0  0  1  0  0  0  0  0999 V2000
  161.2690  205.7160  142.9960 C   0  0  0  0  0  0  0  0  0  0  0  0
  159.4100  212.7970  143.0970 C   0  0  0  0  0  2  0  0  0  0  0  0
  162.1100  205.9000  145.9870 C   0  0  1  0  0  3  0  0  0  0  0  0
  162.0160  210.6500  139.5320 C   0  0  2  0  0  3  0  0  0  0  0  0
  160.0810  212.8780  141.7660 C   0  0  0  0  0  0  0  0  0  0  0  0
  160.9670  211.7570  139.7610 C   0  0  2  0  0  3  0  0  0  0  0  0
  161.4360  212.3080  144.2700 O   0  0  0  0  0  1  0  0  0  0  0  0
  161.1720  208.9810  147.2720 C   0  0  0  0  0  2  0  0  0  0  0  0
  162.5490  208.1610  139.7140 C   0  0  0  0  0  2  0  0  0  0  0  0
  160.7390  205.5120  145.4020 C   0  0  2  0  0  3  0  0  0  0  0  0
  161.0110  210.3070  146.5590 C   0  0  0  0  0  2  0  0  0  0  0  0
  162.9830  207.1280  141.9980 C   0  0  0  0  0  0  0  0  0  0  0  0
  163.3940  207.9220  140.8790 N   0  0  0  0  0  2  0  0  0  0  0  0
  161.6710  206.4540  141.9960 C   0  0  0  0  0  3  0  0  0  0  0  0
  160.2270  208.8590  139.3330 C   0  0  0  0  0  1  0  0  0  0  0  0
  159.5890  210.4400  146.0490 C   0  0  0  0  0  2  0  0  0  0  0  0
  163.7670  206.9940  142.9790 O   0  0  0  0  0  0  0  0  0  0  0  0
  162.6470  204.7770  147.9310 C   0  0  2  0  0  3  0  0  0  0  0  0
  161.6860  204.0360  148.8400 C   0  0  0  0  0  1  0  0  0  0  0  0
  160.2940  214.0080  141.2600 O   0  0  0  0  0  0  0  0  0  0  0  0
  159.3770  211.7770  145.3510 C   0  0  0  0  0  2  0  0  0  0  0  0
  162.0270  206.0670  147.4810 C   0  0  1  0  0  3  0  0  0  0  0  0
  160.4430  211.7160  141.0860 O   0  0  0  0  0  0  0  0  0  0  0  0
  160.1360  211.8440  144.0350 C   0  0  1  0  0  3  0  0  0  0  0  0
  160.8470  204.9810  143.9890 C   0  0  0  0  0  3  0  0  0  0  0  0
  162.8940  207.2430  147.9700 C   0  0  1  0  0  3  0  0  0  0  0  0
  163.0460  204.8760  145.7790 O   0  0  0  0  0  0  0  0  0  0  0  0
  161.5310  209.2590  140.0080 C   0  0  2  0  0  3  0  0  0  0  0  0
  162.8850  204.0130  146.7770 O   0  0  0  0  0  0  0  0  0  0  0  0
  162.6370  208.5810  147.2630 C   0  0  0  0  0  2  0  0  0  0  0  0
  163.2060  211.7450  141.3620 O   0  0  0  0  0  1  0  0  0  0  0  0
  164.1800  211.8760  139.2120 C   0  0  0  0  0  1  0  0  0  0  0  0
  163.3680  211.0280  140.1740 C   0  0  2  0  0  3  0  0  0  0  0  0
  158.8650  206.4140  146.8750 C   0  0  0  0  0  2  0  0  0  0  0  0
  158.3730  206.0920  145.5920 O   0  0  0  0  0  0  0  0  0  0  0  0
  159.6790  206.6160  145.6510 C   0  0  2  0  0  3  0  0  0  0  0  0
  162.9080  207.3810  149.4960 C   0  0  0  0  0  2  0  0  0  0  0  0
  161.5110  207.4630  150.0910 C   0  0  0  0  0  2  0  0  0  0  0  0
  162.2240  209.5290  151.0270 O   0  0  0  0  0  1  0  0  0  0  0  0
  161.5110  208.3660  151.3100 C   0  0  2  0  0  3  0  0  0  0  0  0
  162.1400  207.6770  152.4230 N   0  0  0  0  0  2  0  0  0  0  0  0
  161.0770  207.1010  153.2280 C   0  0  1  0  0  3  0  0  0  0  0  0
  161.0930  205.5930  153.0790 C   0  0  0  0  0  1  0  0  0  0  0  0
  161.2840  207.4570  154.6890 C   0  0  0  0  0  2  0  0  0  0  0  0
  160.1860  208.8320  155.1690 S   0  0  0  0  0  0  0  0  0  0  0  0
  161.5800  209.9430  155.5530 C   0  0  0  0  0  2  0  0  0  0  0  0
  161.3370  211.2570  154.9890 N   0  0  0  0  0  2  0  0  0  0  0  0
  160.9300  211.0670  153.6630 N   0  0  0  0  0  2  0  0  0  0  0  0
  160.1720  212.8420  152.3710 F   0  0  0  0  0  0  0  0  0  0  0  0
  159.8360  211.9870  153.4110 C   0  0  0  0  0  2  0  0  0  0  0  0
  159.9270  211.6700  138.8270 O   0  0  0  0  0  0  0  0  0  0  0  0
  155.6370  213.0430  139.7250 C   0  0  0  0  0  1  0  0  0  0  0  0
  158.7810  213.6920  138.3500 C   0  0  0  0  0  2  0  0  0  0  0  0
  158.9410  212.5380  139.2970 C   0  0  1  0  0  3  0  0  0  0  0  0
  156.6100  212.7410  138.6950 N   0  0  0  0  0  0  0  0  0  0  0  0
  157.3020  213.9880  138.3900 C   0  0  0  0  0  2  0  0  0  0  0  0
  157.5940  211.8430  139.2880 C   0  0  0  0  0  2  0  0  0  0  0  0
  1 25  2  0  0  0  0
  2 24  1  0  0  0  0
  3 27  1  1  0  0  0
  3 22  1  0  0  0  0
  4  6  1  0  0  0  0
  4 28  1  0  0  0  0
  4 33  1  1  0  0  0
  5  2  1  0  0  0  0
  6 51  1  6  0  0  0
  6 23  1  0  0  0  0
  9 28  1  0  0  0  0
  9 13  1  0  0  0  0
 10 25  1  6  0  0  0
 10 36  1  0  0  0  0
 10  3  1  0  0  0  0
 11  8  1  0  0  0  0
 12 17  2  0  0  0  0
 13 12  1  0  0  0  0
 14 12  1  0  0  0  0
 14  1  2  0  0  0  0
 15 28  1  0  0  0  0
 16 11  1  0  0  0  0
 18 19  1  1  0  0  0
 20  5  2  0  0  0  0
 21 16  1  0  0  0  0
 22 18  1  0  0  0  0
 22 26  1  0  0  0  0
 23  5  1  0  0  0  0
 24  7  1  0  0  0  0
 24 21  1  0  0  0  0
 26 37  1  0  0  0  0
 27 29  1  0  0  0  0
 29 18  1  0  0  0  0
 30  8  1  0  0  0  0
 30 26  1  0  0  0  0
 32 33  1  0  0  0  0
 33 31  1  0  0  0  0
 35 36  1  0  0  0  0
 35 34  1  0  0  0  0
 36 34  1  0  0  0  0
 37 38  1  0  0  0  0
 38 40  1  0  0  0  0
 39 40  1  0  0  0  0
 40 41  1  0  0  0  0
 41 42  1  0  0  0  0
 42 44  1  0  0  0  0
 43 42  1  0  0  0  0
 44 45  1  0  0  0  0
 45 46  1  0  0  0  0
 47 46  1  0  0  0  0
 48 47  1  0  0  0  0
 49 50  1  0  0  0  0
 50 48  1  0  0  0  0
 51 54  1  0  0  0  0
 53 56  1  0  0  0  0
 53 54  1  0  0  0  0
 55 57  1  0  0  0  0
 55 52  1  0  0  0  0
 56 55  1  0  0  0  0
 57 54  1  0  0  0  0
M  END
>  <MODEL>
1

>  <REMARK>
 VINA RESULT:      12.6      0.000      0.000
  Name = 
  15 active torsions:
  status: ('A' for Active; 'I' for Inactive)
    1  A    between atoms: C_4  and  N_5
    2  A    between atoms: C_4  and  S_10
    3  A    between atoms: N_5  and  N_35
    4  A    between atoms: C_8  and  C_43
    5  A    between atoms: S_10  and  C_34
    6  A    between atoms: C_13  and  O_56
    7  A    between atoms: C_17  and  N_18
    8  A    between atoms: C_17  and  C_34
    9  A    between atoms: N_18  and  C_36
   10  A    between atoms: C_19  and  C_31
   11  A    between atoms: C_27  and  N_35
   12  A    between atoms: C_30  and  C_36
   13  A    between atoms: C_30  and  C_39
   14  A    between atoms: C_39  and  C_50
   15  A    between atoms: C_40  and  O_56
                            x       y       z     vdW  Elec       q    Type
                         _______ _______ _______ _____ _____    ______ ____

>  <TORSDO>
F 15

$$$$
=
 OpenBabel11072414553D

 57 60  0  0  1  0  0  0  0  0999 V2000
  161.2800  205.7610  142.9020 C   0  0  0  0  0  0  0  0  0  0  0  0
  159.3290  212.8170  143.0030 C   0  0  0  0  0  2  0  0  0  0  0  0
  162.1360  205.9610  145.8880 C   0  0  1  0  0  3  0  0  0  0  0  0
  161.9430  210.6980  139.4260 C   0  0  2  0  0  3  0  0  0  0  0  0
  159.9920  212.9050  141.6680 C   0  0  0  0  0  0  0  0  0  0  0  0
  160.8810  211.7920  139.6600 C   0  0  2  0  0  3  0  0  0  0  0  0
  161.3680  212.3570  144.1650 O   0  0  0  0  0  1  0  0  0  0  0  0
  161.1650  209.0320  147.1740 C   0  0  0  0  0  2  0  0  0  0  0  0
  162.5100  208.2170  139.6090 C   0  0  0  0  0  2  0  0  0  0  0  0
  160.7670  205.5540  145.3110 C   0  0  2  0  0  3  0  0  0  0  0  0
  160.9820  210.3540  146.4600 C   0  0  0  0  0  2  0  0  0  0  0  0
  162.9700  207.1930  141.8920 C   0  0  0  0  0  0  0  0  0  0  0  0
  163.3640  207.9910  140.7690 N   0  0  0  0  0  2  0  0  0  0  0  0
  161.6670  206.5030  141.8980 C   0  0  0  0  0  3  0  0  0  0  0  0
  160.1760  208.8850  139.2400 C   0  0  0  0  0  1  0  0  0  0  0  0
  159.5560  210.4680  145.9570 C   0  0  0  0  0  2  0  0  0  0  0  0
  163.7610  207.0710  142.8690 O   0  0  0  0  0  0  0  0  0  0  0  0
  162.6990  204.8480  147.8310 C   0  0  2  0  0  3  0  0  0  0  0  0
  161.7530  204.0960  148.7470 C   0  0  0  0  0  1  0  0  0  0  0  0
  160.1870  214.0370  141.1580 O   0  0  0  0  0  0  0  0  0  0  0  0
  159.3230  211.8000  145.2590 C   0  0  0  0  0  2  0  0  0  0  0  0
  162.0590  206.1290  147.3820 C   0  0  1  0  0  3  0  0  0  0  0  0
  160.3660  211.7470  140.9870 O   0  0  0  0  0  0  0  0  0  0  0  0
  160.0740  211.8750  143.9370 C   0  0  1  0  0  3  0  0  0  0  0  0
  160.8730  205.0230  143.8990 C   0  0  0  0  0  3  0  0  0  0  0  0
  162.9140  207.3170  147.8640 C   0  0  1  0  0  3  0  0  0  0  0  0
  163.0840  204.9490  145.6760 O   0  0  0  0  0  0  0  0  0  0  0  0
  161.4790  209.3020  139.9070 C   0  0  2  0  0  3  0  0  0  0  0  0
  162.9400  204.0850  146.6760 O   0  0  0  0  0  0  0  0  0  0  0  0
  162.6350  208.6500  147.1560 C   0  0  0  0  0  2  0  0  0  0  0  0
  163.1310  211.7420  141.2870 O   0  0  0  0  0  1  0  0  0  0  0  0
  164.0510  212.0240  139.1270 C   0  0  0  0  0  1  0  0  0  0  0  0
  163.2940  211.0950  140.0600 C   0  0  2  0  0  3  0  0  0  0  0  0
  158.9150  206.4540  146.8120 C   0  0  0  0  0  2  0  0  0  0  0  0
  158.3960  206.0970  145.5500 O   0  0  0  0  0  0  0  0  0  0  0  0
  159.6940  206.6440  145.5650 C   0  0  2  0  0  3  0  0  0  0  0  0
  162.9350  207.4580  149.3900 C   0  0  0  0  0  2  0  0  0  0  0  0
  161.5500  207.6820  149.9780 C   0  0  0  0  0  2  0  0  0  0  0  0
  162.2250  209.9490  150.2300 O   0  0  0  0  0  1  0  0  0  0  0  0
  161.5500  208.9110  150.8680 C   0  0  2  0  0  3  0  0  0  0  0  0
  162.2190  208.6010  152.1200 N   0  0  0  0  0  2  0  0  0  0  0  0
  161.2710  208.8560  153.1900 C   0  0  1  0  0  3  0  0  0  0  0  0
  160.2580  209.8850  152.7300 C   0  0  0  0  0  1  0  0  0  0  0  0
  160.5470  207.5740  153.5550 C   0  0  0  0  0  2  0  0  0  0  0  0
  161.7240  206.1850  153.6540 S   0  0  0  0  0  0  0  0  0  0  0  0
  160.8660  205.2340  152.3570 C   0  0  0  0  0  2  0  0  0  0  0  0
  161.6420  204.0600  152.0070 N   0  0  0  0  0  2  0  0  0  0  0  0
  160.8190  202.9470  152.2090 N   0  0  0  0  0  2  0  0  0  0  0  0
  160.3470  201.6300  150.3550 F   0  0  0  0  0  0  0  0  0  0  0  0
  161.2950  201.8910  151.3320 C   0  0  0  0  0  2  0  0  0  0  0  0
  159.8370  211.6900  138.7310 O   0  0  0  0  0  0  0  0  0  0  0  0
  155.5870  213.1820  139.6340 C   0  0  0  0  0  1  0  0  0  0  0  0
  158.7050  213.6920  138.1450 C   0  0  0  0  0  2  0  0  0  0  0  0
  158.8730  212.6030  139.1640 C   0  0  1  0  0  3  0  0  0  0  0  0
  156.5320  212.7980  138.6040 N   0  0  0  0  0  0  0  0  0  0  0  0
  157.2320  214.0110  138.1990 C   0  0  0  0  0  2  0  0  0  0  0  0
  157.5180  211.9280  139.2340 C   0  0  0  0  0  2  0  0  0  0  0  0
  1 25  2  0  0  0  0
  2 24  1  0  0  0  0
  3 27  1  1  0  0  0
  3 22  1  0  0  0  0
  4  6  1  0  0  0  0
  4 28  1  0  0  0  0
  4 33  1  1  0  0  0
  5  2  1  0  0  0  0
  6 51  1  6  0  0  0
  6 23  1  0  0  0  0
  9 28  1  0  0  0  0
  9 13  1  0  0  0  0
 10 25  1  6  0  0  0
 10 36  1  0  0  0  0
 10  3  1  0  0  0  0
 11  8  1  0  0  0  0
 12 14  1  0  0  0  0
 12 17  2  0  0  0  0
 13 12  1  0  0  0  0
 14  1  2  0  0  0  0
 15 28  1  0  0  0  0
 16 11  1  0  0  0  0
 18 19  1  1  0  0  0
 20  5  2  0  0  0  0
 21 16  1  0  0  0  0
 22 18  1  0  0  0  0
 22 26  1  0  0  0  0
 23  5  1  0  0  0  0
 24  7  1  0  0  0  0
 24 21  1  0  0  0  0
 26 37  1  0  0  0  0
 27 29  1  0  0  0  0
 29 18  1  0  0  0  0
 30  8  1  0  0  0  0
 30 26  1  0  0  0  0
 32 33  1  0  0  0  0
 33 31  1  0  0  0  0
 35 36  1  0  0  0  0
 35 34  1  0  0  0  0
 36 34  1  0  0  0  0
 37 38  1  0  0  0  0
 38 40  1  0  0  0  0
 39 40  1  0  0  0  0
 40 41  1  0  0  0  0
 41 42  1  0  0  0  0
 42 44  1  0  0  0  0
 43 42  1  0  0  0  0
 44 45  1  0  0  0  0
 46 45  1  0  0  0  0
 47 48  1  0  0  0  0
 47 46  1  0  0  0  0
 49 50  1  0  0  0  0
 50 48  1  0  0  0  0
 51 54  1  0  0  0  0
 53 56  1  0  0  0  0
 53 54  1  0  0  0  0
 54 57  1  0  0  0  0
 55 57  1  0  0  0  0
 55 52  1  0  0  0  0
 56 55  1  0  0  0  0
M  END
>  <MODEL>
2

>  <REMARK>
 VINA RESULT:      13.0      1.886      2.775
  Name = 
  15 active torsions:
  status: ('A' for Active; 'I' for Inactive)
    1  A    between atoms: C_4  and  N_5
    2  A    between atoms: C_4  and  S_10
    3  A    between atoms: N_5  and  N_35
    4  A    between atoms: C_8  and  C_43
    5  A    between atoms: S_10  and  C_34
    6  A    between atoms: C_13  and  O_56
    7  A    between atoms: C_17  and  N_18
    8  A    between atoms: C_17  and  C_34
    9  A    between atoms: N_18  and  C_36
   10  A    between atoms: C_19  and  C_31
   11  A    between atoms: C_27  and  N_35
   12  A    between atoms: C_30  and  C_36
   13  A    between atoms: C_30  and  C_39
   14  A    between atoms: C_39  and  C_50
   15  A    between atoms: C_40  and  O_56
                            x       y       z     vdW  Elec       q    Type
                         _______ _______ _______ _____ _____    ______ ____

>  <TORSDO>
F 15

$$$$
