=
 OpenBabel11072414133D

 28 30  0  0  0  0  0  0  0  0999 V2000
  161.1870  202.6730  148.2370 C   0  0  0  0  0  0  0  0  0  0  0  0
  161.6790  207.0030  149.5290 C   0  0  0  0  0  0  0  0  0  0  0  0
  160.9910  204.7990  148.7890 N   0  0  0  0  0  0  0  0  0  0  0  0
  162.1870  206.9800  147.0980 N   0  0  0  0  0  0  0  0  0  0  0  0
  161.6400  203.3790  147.1760 N   0  0  0  0  0  0  0  0  0  0  0  0
  161.8400  205.7970  146.6780 C   0  0  0  0  0  3  0  0  0  0  0  0
  160.5430  206.0380  149.3980 C   0  0  0  0  0  2  0  0  0  0  0  0
  162.3560  207.4350  148.4540 C   0  0  0  0  0  3  0  0  0  0  0  0
  161.5090  204.6680  147.5560 C   0  0  0  0  0  0  0  0  0  0  0  0
  160.7710  203.5490  149.2260 C   0  0  0  0  0  0  0  0  0  0  0  0
  161.1650  200.4460  147.0550 N   0  0  0  0  0  1  0  0  0  0  0  0
  161.1380  201.2010  148.2610 C   0  0  0  0  0  0  0  0  0  0  0  0
  161.0760  200.5970  149.3640 O   0  0  0  0  0  0  0  0  0  0  0  0
  162.8010  206.8270  151.6080 O   0  0  0  0  0  0  0  0  0  0  0  0
  162.0590  207.5290  150.8670 C   0  0  0  0  0  0  0  0  0  0  0  0
  162.1970  209.9600  151.0540 C   0  0  0  0  0  2  0  0  0  0  0  0
  161.5830  208.8290  151.3940 C   0  0  0  0  0  0  0  0  0  0  0  0
  160.5970  208.8180  152.4410 N   0  0  0  0  0  2  0  0  0  0  0  0
  161.3820  209.4790  156.0560 C   0  0  0  0  0  3  0  0  0  0  0  0
  161.1470  208.2150  156.6030 C   0  0  0  0  0  3  0  0  0  0  0  0
  160.5680  207.3740  154.4070 C   0  0  0  0  0  3  0  0  0  0  0  0
  161.2120  209.6890  154.6840 C   0  0  0  0  0  3  0  0  0  0  0  0
  160.7390  207.1630  155.7780 C   0  0  0  0  0  3  0  0  0  0  0  0
  160.8110  208.6340  153.8480 C   0  0  0  0  0  0  0  0  0  0  0  0
  160.1880  203.2060  150.5620 C   0  0  0  0  0  2  0  0  0  0  0  0
  161.2110  203.3700  151.6320 C   0  0  0  0  0  0  0  0  0  0  0  0
  161.0900  204.3940  152.5620 O   0  0  0  0  0  1  0  0  0  0  0  0
  162.1780  202.5680  151.7040 O   0  0  0  0  0  0  0  0  0  0  0  0
  1 12  1  0  0  0  0
  1 10  2  0  0  0  0
  2 15  1  0  0  0  0
  3 10  1  0  0  0  0
  3  7  1  0  0  0  0
  4  8  1  0  0  0  0
  5  9  2  0  0  0  0
  5  1  1  0  0  0  0
  6  4  2  0  0  0  0
  6  9  1  0  0  0  0
  7  2  1  0  0  0  0
  8  2  2  0  0  0  0
  9  3  1  0  0  0  0
 10 25  1  0  0  0  0
 11 12  1  0  0  0  0
 12 13  2  0  0  0  0
 15 17  1  0  0  0  0
 15 14  2  0  0  0  0
 16 17  2  0  0  0  0
 17 18  1  0  0  0  0
 18 24  1  0  0  0  0
 19 20  1  0  0  0  0
 21 23  1  0  0  0  0
 22 19  2  0  0  0  0
 23 20  2  0  0  0  0
 24 21  2  0  0  0  0
 24 22  1  0  0  0  0
 25 26  1  0  0  0  0
 26 28  2  0  0  0  0
 26 27  1  0  0  0  0
M  END
>  <MODEL>
1

>  <REMARK>
 VINA RESULT:      -8.1      0.000      0.000
  Name = 
  7 active torsions:
  status: ('A' for Active; 'I' for Inactive)
    1  A    between atoms: C_2  and  C_25
    2  A    between atoms: C_7  and  C_16
    3  A    between atoms: C_8  and  C_10
    4  A    between atoms: C_10  and  C_22
    5  A    between atoms: N_13  and  C_20
    6  A    between atoms: N_13  and  C_22
    7  A    between atoms: C_25  and  C_28
                            x       y       z     vdW  Elec       q    Type
                         _______ _______ _______ _____ _____    ______ ____

>  <TORSDO>
F 7

$$$$
=
 OpenBabel11072414133D

 28 30  0  0  0  0  0  0  0  0999 V2000
  161.2240  202.8830  147.8760 C   0  0  0  0  0  0  0  0  0  0  0  0
  161.6810  206.6700  150.3490 C   0  0  0  0  0  0  0  0  0  0  0  0
  161.0120  204.7670  149.0040 N   0  0  0  0  0  0  0  0  0  0  0  0
  162.2280  207.3350  148.0190 N   0  0  0  0  0  0  0  0  0  0  0  0
  161.6910  203.8600  147.0660 N   0  0  0  0  0  0  0  0  0  0  0  0
  161.8920  206.3190  147.2760 C   0  0  0  0  0  3  0  0  0  0  0  0
  160.5500  205.7830  149.9320 C   0  0  0  0  0  2  0  0  0  0  0  0
  162.3740  207.3880  149.4510 C   0  0  0  0  0  3  0  0  0  0  0  0
  161.5500  204.9890  147.7930 C   0  0  0  0  0  0  0  0  0  0  0  0
  160.7890  203.4440  149.0660 C   0  0  0  0  0  0  0  0  0  0  0  0
  160.7980  201.0800  146.1660 N   0  0  0  0  0  1  0  0  0  0  0  0
  161.1790  201.4650  147.4820 C   0  0  0  0  0  0  0  0  0  0  0  0
  161.4870  200.5750  148.3180 O   0  0  0  0  0  0  0  0  0  0  0  0
  162.9840  206.0970  152.2410 O   0  0  0  0  0  0  0  0  0  0  0  0
  162.0370  206.7950  151.7870 C   0  0  0  0  0  0  0  0  0  0  0  0
  160.7100  207.1730  153.8020 C   0  0  0  0  0  2  0  0  0  0  0  0
  161.3130  207.6800  152.7290 C   0  0  0  0  0  0  0  0  0  0  0  0
  161.0910  209.0470  152.3430 N   0  0  0  0  0  2  0  0  0  0  0  0
  160.7690  211.6170  155.0650 C   0  0  0  0  0  3  0  0  0  0  0  0
  159.6020  212.2710  154.6610 C   0  0  0  0  0  3  0  0  0  0  0  0
  159.4330  210.7890  152.7540 C   0  0  0  0  0  3  0  0  0  0  0  0
  161.2660  210.5480  154.3140 C   0  0  0  0  0  3  0  0  0  0  0  0
  158.9360  211.8570  153.5050 C   0  0  0  0  0  3  0  0  0  0  0  0
  160.5960  210.1200  153.1560 C   0  0  0  0  0  0  0  0  0  0  0  0
  160.1850  202.7380  150.2400 C   0  0  0  0  0  2  0  0  0  0  0  0
  161.0770  202.8530  151.4290 C   0  0  0  0  0  0  0  0  0  0  0  0
  160.7170  203.6650  152.4950 O   0  0  0  0  0  1  0  0  0  0  0  0
  162.1500  202.1970  151.4730 O   0  0  0  0  0  0  0  0  0  0  0  0
  1 10  2  0  0  0  0
  2 15  1  0  0  0  0
  3 10  1  0  0  0  0
  3  7  1  0  0  0  0
  4  8  1  0  0  0  0
  5  9  2  0  0  0  0
  5  1  1  0  0  0  0
  6  9  1  0  0  0  0
  6  4  2  0  0  0  0
  7  2  1  0  0  0  0
  8  2  2  0  0  0  0
  9  3  1  0  0  0  0
 10 25  1  0  0  0  0
 11 12  1  0  0  0  0
 12  1  1  0  0  0  0
 12 13  2  0  0  0  0
 15 14  2  0  0  0  0
 15 17  1  0  0  0  0
 17 16  2  0  0  0  0
 18 17  1  0  0  0  0
 18 24  1  0  0  0  0
 20 19  1  0  0  0  0
 21 24  2  0  0  0  0
 21 23  1  0  0  0  0
 22 19  2  0  0  0  0
 23 20  2  0  0  0  0
 24 22  1  0  0  0  0
 25 26  1  0  0  0  0
 26 28  2  0  0  0  0
 26 27  1  0  0  0  0
M  END
>  <MODEL>
2

>  <REMARK>
 VINA RESULT:      -7.8      1.340      1.990
  Name = 
  7 active torsions:
  status: ('A' for Active; 'I' for Inactive)
    1  A    between atoms: C_2  and  C_25
    2  A    between atoms: C_7  and  C_16
    3  A    between atoms: C_8  and  C_10
    4  A    between atoms: C_10  and  C_22
    5  A    between atoms: N_13  and  C_20
    6  A    between atoms: N_13  and  C_22
    7  A    between atoms: C_25  and  C_28
                            x       y       z     vdW  Elec       q    Type
                         _______ _______ _______ _____ _____    ______ ____

>  <TORSDO>
F 7

$$$$
=
 OpenBabel11072414133D

 28 30  0  0  0  0  0  0  0  0999 V2000
  160.7950  201.5180  146.7710 C   0  0  0  0  0  0  0  0  0  0  0  0
  161.1470  205.2420  149.3540 C   0  0  0  0  0  0  0  0  0  0  0  0
  161.3950  203.2200  148.0400 N   0  0  0  0  0  0  0  0  0  0  0  0
  160.5470  203.4090  150.9200 N   0  0  0  0  0  0  0  0  0  0  0  0
  160.4360  201.1900  148.0320 N   0  0  0  0  0  0  0  0  0  0  0  0
  160.6570  202.3090  150.2310 C   0  0  0  0  0  3  0  0  0  0  0  0
  162.0840  204.3870  148.5610 C   0  0  0  0  0  2  0  0  0  0  0  0
  160.5180  204.7670  150.4400 C   0  0  0  0  0  3  0  0  0  0  0  0
  160.8130  202.2550  148.7720 C   0  0  0  0  0  0  0  0  0  0  0  0
  161.4020  202.7640  146.7770 C   0  0  0  0  0  0  0  0  0  0  0  0
  161.1630  199.3350  145.5660 N   0  0  0  0  0  1  0  0  0  0  0  0
  160.5770  200.6310  145.6160 C   0  0  0  0  0  0  0  0  0  0  0  0
  159.8590  201.0190  144.6580 O   0  0  0  0  0  0  0  0  0  0  0  0
  160.0470  206.9200  148.0960 O   0  0  0  0  0  0  0  0  0  0  0  0
  160.9240  206.6590  148.9660 C   0  0  0  0  0  0  0  0  0  0  0  0
  161.9870  208.8490  148.7730 C   0  0  0  0  0  2  0  0  0  0  0  0
  161.7020  207.7880  149.5250 C   0  0  0  0  0  0  0  0  0  0  0  0
  162.3240  207.6140  150.8100 N   0  0  0  0  0  2  0  0  0  0  0  0
  160.9930  206.9830  154.2670 C   0  0  0  0  0  3  0  0  0  0  0  0
  160.6420  208.2800  154.6460 C   0  0  0  0  0  3  0  0  0  0  0  0
  161.3920  209.1090  152.4980 C   0  0  0  0  0  3  0  0  0  0  0  0
  161.5410  206.7480  153.0020 C   0  0  0  0  0  3  0  0  0  0  0  0
  160.8430  209.3440  153.7620 C   0  0  0  0  0  3  0  0  0  0  0  0
  161.7360  207.8110  152.1040 C   0  0  0  0  0  0  0  0  0  0  0  0
  161.9660  203.5100  145.6080 C   0  0  0  0  0  2  0  0  0  0  0  0
  160.9730  204.4920  145.0910 C   0  0  0  0  0  0  0  0  0  0  0  0
  161.1050  205.8410  145.3900 O   0  0  0  0  0  1  0  0  0  0  0  0
  160.0220  204.1010  144.3660 O   0  0  0  0  0  0  0  0  0  0  0  0
  1 10  2  0  0  0  0
  1  5  1  0  0  0  0
  2  8  2  0  0  0  0
  3  7  1  0  0  0  0
  3  9  1  0  0  0  0
  5  9  2  0  0  0  0
  6  4  2  0  0  0  0
  7  2  1  0  0  0  0
  8  4  1  0  0  0  0
  9  6  1  0  0  0  0
 10  3  1  0  0  0  0
 11 12  1  0  0  0  0
 12  1  1  0  0  0  0
 13 12  2  0  0  0  0
 14 15  2  0  0  0  0
 15  2  1  0  0  0  0
 15 17  1  0  0  0  0
 16 17  2  0  0  0  0
 17 18  1  0  0  0  0
 18 24  1  0  0  0  0
 19 20  1  0  0  0  0
 21 23  1  0  0  0  0
 22 19  2  0  0  0  0
 23 20  2  0  0  0  0
 24 21  2  0  0  0  0
 24 22  1  0  0  0  0
 25 10  1  0  0  0  0
 26 27  1  0  0  0  0
 26 25  1  0  0  0  0
 28 26  2  0  0  0  0
M  END
>  <MODEL>
3

>  <REMARK>
 VINA RESULT:      -7.5      2.573      3.870
  Name = 
  7 active torsions:
  status: ('A' for Active; 'I' for Inactive)
    1  A    between atoms: C_2  and  C_25
    2  A    between atoms: C_7  and  C_16
    3  A    between atoms: C_8  and  C_10
    4  A    between atoms: C_10  and  C_22
    5  A    between atoms: N_13  and  C_20
    6  A    between atoms: N_13  and  C_22
    7  A    between atoms: C_25  and  C_28
                            x       y       z     vdW  Elec       q    Type
                         _______ _______ _______ _____ _____    ______ ____

>  <TORSDO>
F 7

$$$$
=
 OpenBabel11072414133D

 28 30  0  0  0  0  0  0  0  0999 V2000
  161.4050  210.0340  155.6330 C   0  0  0  0  0  0  0  0  0  0  0  0
  161.3060  207.7490  151.7050 C   0  0  0  0  0  0  0  0  0  0  0  0
  160.9190  208.9740  153.7610 N   0  0  0  0  0  0  0  0  0  0  0  0
  161.3390  206.0090  153.4770 N   0  0  0  0  0  0  0  0  0  0  0  0
  161.5070  208.7150  155.9120 N   0  0  0  0  0  0  0  0  0  0  0  0
  161.1490  206.6460  154.5980 C   0  0  0  0  0  3  0  0  0  0  0  0
  160.3680  208.6370  152.4610 C   0  0  0  0  0  2  0  0  0  0  0  0
  161.6730  206.5510  152.1850 C   0  0  0  0  0  3  0  0  0  0  0  0
  161.2090  208.1050  154.7440 C   0  0  0  0  0  0  0  0  0  0  0  0
  161.0260  210.1940  154.3100 C   0  0  0  0  0  0  0  0  0  0  0  0
  160.5590  211.8260  157.1910 N   0  0  0  0  0  1  0  0  0  0  0  0
  161.6410  211.0870  156.6350 C   0  0  0  0  0  0  0  0  0  0  0  0
  162.8150  211.3390  157.0110 O   0  0  0  0  0  0  0  0  0  0  0  0
  162.2740  209.3450  150.2470 O   0  0  0  0  0  0  0  0  0  0  0  0
  161.8250  208.1730  150.3780 C   0  0  0  0  0  0  0  0  0  0  0  0
  162.6410  207.5320  148.1670 C   0  0  0  0  0  2  0  0  0  0  0  0
  161.8140  207.2970  149.1830 C   0  0  0  0  0  0  0  0  0  0  0  0
  160.7500  206.3380  149.0540 N   0  0  0  0  0  2  0  0  0  0  0  0
  160.6680  202.7200  150.0630 C   0  0  0  0  0  3  0  0  0  0  0  0
  161.0210  202.1110  148.8560 C   0  0  0  0  0  3  0  0  0  0  0  0
  161.1990  204.2870  147.8110 C   0  0  0  0  0  3  0  0  0  0  0  0
  160.5820  204.1130  150.1430 C   0  0  0  0  0  3  0  0  0  0  0  0
  161.2850  202.8950  147.7300 C   0  0  0  0  0  3  0  0  0  0  0  0
  160.8560  204.9080  149.0180 C   0  0  0  0  0  0  0  0  0  0  0  0
  160.7820  211.4790  153.5810 C   0  0  0  0  0  2  0  0  0  0  0  0
  159.4100  211.9850  153.8690 C   0  0  0  0  0  0  0  0  0  0  0  0
  158.3020  211.2000  153.5810 O   0  0  0  0  0  0  0  0  0  0  0  0
  159.2570  213.1190  154.3910 O   0  0  0  0  0  1  0  0  0  0  0  0
  1  5  1  0  0  0  0
  1 12  1  0  0  0  0
  2  8  2  0  0  0  0
  2  7  1  0  0  0  0
  3 10  1  0  0  0  0
  3  9  1  0  0  0  0
  4  6  2  0  0  0  0
  6  9  1  0  0  0  0
  7  3  1  0  0  0  0
  8  4  1  0  0  0  0
  9  5  2  0  0  0  0
 10  1  2  0  0  0  0
 12 13  2  0  0  0  0
 12 11  1  0  0  0  0
 14 15  2  0  0  0  0
 15  2  1  0  0  0  0
 16 17  2  0  0  0  0
 17 15  1  0  0  0  0
 18 17  1  0  0  0  0
 19 22  1  0  0  0  0
 20 19  2  0  0  0  0
 21 24  1  0  0  0  0
 23 21  2  0  0  0  0
 23 20  1  0  0  0  0
 24 18  1  0  0  0  0
 24 22  2  0  0  0  0
 25 26  1  0  0  0  0
 25 10  1  0  0  0  0
 26 28  1  0  0  0  0
 27 26  2  0  0  0  0
M  END
>  <MODEL>
4

>  <REMARK>
 VINA RESULT:      -7.5      3.024      8.252
  Name = 
  7 active torsions:
  status: ('A' for Active; 'I' for Inactive)
    1  A    between atoms: C_2  and  C_25
    2  A    between atoms: C_7  and  C_16
    3  A    between atoms: C_8  and  C_10
    4  A    between atoms: C_10  and  C_22
    5  A    between atoms: N_13  and  C_20
    6  A    between atoms: N_13  and  C_22
    7  A    between atoms: C_25  and  C_28
                            x       y       z     vdW  Elec       q    Type
                         _______ _______ _______ _____ _____    ______ ____

>  <TORSDO>
F 7

$$$$
=
 OpenBabel11072414133D

 28 30  0  0  0  0  0  0  0  0999 V2000
  161.2150  202.6590  148.2540 C   0  0  0  0  0  0  0  0  0  0  0  0
  161.6560  206.9890  149.5650 C   0  0  0  0  0  0  0  0  0  0  0  0
  160.9950  204.7810  148.8150 N   0  0  0  0  0  0  0  0  0  0  0  0
  162.1660  206.9830  147.1350 N   0  0  0  0  0  0  0  0  0  0  0  0
  161.6610  203.3750  147.1970 N   0  0  0  0  0  0  0  0  0  0  0  0
  161.8330  205.7970  146.7090 C   0  0  0  0  0  3  0  0  0  0  0  0
  160.5310  206.0120  149.4300 C   0  0  0  0  0  2  0  0  0  0  0  0
  162.3290  207.4340  148.4930 C   0  0  0  0  0  3  0  0  0  0  0  0
  161.5140  204.6610  147.5830 C   0  0  0  0  0  0  0  0  0  0  0  0
  160.7890  203.5260  149.2470 C   0  0  0  0  0  0  0  0  0  0  0  0
  161.2050  200.4380  147.0620 N   0  0  0  0  0  1  0  0  0  0  0  0
  161.1830  201.1870  148.2720 C   0  0  0  0  0  0  0  0  0  0  0  0
  161.1410  200.5780  149.3730 O   0  0  0  0  0  0  0  0  0  0  0  0
  162.7050  206.7810  151.6790 O   0  0  0  0  0  0  0  0  0  0  0  0
  162.0280  207.5140  150.9060 C   0  0  0  0  0  0  0  0  0  0  0  0
  160.4950  208.9920  152.1000 C   0  0  0  0  0  2  0  0  0  0  0  0
  161.6170  208.8490  151.3990 C   0  0  0  0  0  0  0  0  0  0  0  0
  162.3320  210.0010  150.9190 N   0  0  0  0  0  2  0  0  0  0  0  0
  160.5600  213.0490  149.6200 C   0  0  0  0  0  3  0  0  0  0  0  0
  161.0030  213.0560  148.2960 C   0  0  0  0  0  3  0  0  0  0  0  0
  162.2980  211.0540  148.7190 C   0  0  0  0  0  3  0  0  0  0  0  0
  160.9840  212.0430  150.4930 C   0  0  0  0  0  3  0  0  0  0  0  0
  161.8730  212.0590  147.8450 C   0  0  0  0  0  3  0  0  0  0  0  0
  161.8510  211.0320  150.0450 C   0  0  0  0  0  0  0  0  0  0  0  0
  160.2080  203.1710  150.5810 C   0  0  0  0  0  2  0  0  0  0  0  0
  161.2360  203.3190  151.6490 C   0  0  0  0  0  0  0  0  0  0  0  0
  161.1020  204.3080  152.6140 O   0  0  0  0  0  1  0  0  0  0  0  0
  162.2180  202.5330  151.6890 O   0  0  0  0  0  0  0  0  0  0  0  0
  1 12  1  0  0  0  0
  1 10  2  0  0  0  0
  2 15  1  0  0  0  0
  3 10  1  0  0  0  0
  3  7  1  0  0  0  0
  4  8  1  0  0  0  0
  5  9  2  0  0  0  0
  5  1  1  0  0  0  0
  6  4  2  0  0  0  0
  6  9  1  0  0  0  0
  7  2  1  0  0  0  0
  8  2  2  0  0  0  0
  9  3  1  0  0  0  0
 10 25  1  0  0  0  0
 11 12  1  0  0  0  0
 12 13  2  0  0  0  0
 15 17  1  0  0  0  0
 15 14  2  0  0  0  0
 17 16  2  0  0  0  0
 18 17  1  0  0  0  0
 19 22  1  0  0  0  0
 20 19  2  0  0  0  0
 21 24  1  0  0  0  0
 23 20  1  0  0  0  0
 23 21  2  0  0  0  0
 24 22  2  0  0  0  0
 24 18  1  0  0  0  0
 25 26  1  0  0  0  0
 26 28  2  0  0  0  0
 26 27  1  0  0  0  0
M  END
>  <MODEL>
5

>  <REMARK>
 VINA RESULT:      -7.2      1.714      3.487
  Name = 
  7 active torsions:
  status: ('A' for Active; 'I' for Inactive)
    1  A    between atoms: C_2  and  C_25
    2  A    between atoms: C_7  and  C_16
    3  A    between atoms: C_8  and  C_10
    4  A    between atoms: C_10  and  C_22
    5  A    between atoms: N_13  and  C_20
    6  A    between atoms: N_13  and  C_22
    7  A    between atoms: C_25  and  C_28
                            x       y       z     vdW  Elec       q    Type
                         _______ _______ _______ _____ _____    ______ ____

>  <TORSDO>
F 7

$$$$
=
 OpenBabel11072414133D

 28 30  0  0  0  0  0  0  0  0999 V2000
  161.2470  208.5630  154.2550 C   0  0  0  0  0  0  0  0  0  0  0  0
  161.4710  206.3670  150.2820 C   0  0  0  0  0  0  0  0  0  0  0  0
  160.9150  207.5260  152.3370 N   0  0  0  0  0  0  0  0  0  0  0  0
  161.4830  204.5900  152.0170 N   0  0  0  0  0  0  0  0  0  0  0  0
  161.3930  207.2430  154.5120 N   0  0  0  0  0  0  0  0  0  0  0  0
  161.2020  205.1920  153.1380 C   0  0  0  0  0  3  0  0  0  0  0  0
  160.4530  207.1950  151.0000 C   0  0  0  0  0  2  0  0  0  0  0  0
  161.8640  205.1750  150.7570 C   0  0  0  0  0  3  0  0  0  0  0  0
  161.1880  206.6480  153.3170 C   0  0  0  0  0  0  0  0  0  0  0  0
  160.9360  208.7370  152.9160 C   0  0  0  0  0  0  0  0  0  0  0  0
  160.2700  209.9740  156.1020 N   0  0  0  0  0  1  0  0  0  0  0  0
  161.3790  209.6030  155.2900 C   0  0  0  0  0  0  0  0  0  0  0  0
  162.4880  210.1710  155.4650 O   0  0  0  0  0  0  0  0  0  0  0  0
  162.8280  207.8310  149.0080 O   0  0  0  0  0  0  0  0  0  0  0  0
  162.0440  206.8430  148.9950 C   0  0  0  0  0  0  0  0  0  0  0  0
  160.7070  206.7070  146.9560 C   0  0  0  0  0  2  0  0  0  0  0  0
  161.7160  206.2350  147.6850 C   0  0  0  0  0  0  0  0  0  0  0  0
  162.3620  205.0010  147.3270 N   0  0  0  0  0  2  0  0  0  0  0  0
  160.8060  201.6480  148.0010 C   0  0  0  0  0  3  0  0  0  0  0  0
  160.5110  201.2380  146.6990 C   0  0  0  0  0  3  0  0  0  0  0  0
  161.4460  203.2990  145.8390 C   0  0  0  0  0  3  0  0  0  0  0  0
  161.4230  202.8830  148.2220 C   0  0  0  0  0  3  0  0  0  0  0  0
  160.8300  202.0640  145.6180 C   0  0  0  0  0  3  0  0  0  0  0  0
  161.7560  203.7140  147.1400 C   0  0  0  0  0  0  0  0  0  0  0  0
  160.6750  210.0260  152.2010 C   0  0  0  0  0  2  0  0  0  0  0  0
  161.8380  210.3870  151.3420 C   0  0  0  0  0  0  0  0  0  0  0  0
  161.6330  210.8750  150.0590 O   0  0  0  0  0  0  0  0  0  0  0  0
  163.0080  210.2650  151.7870 O   0  0  0  0  0  1  0  0  0  0  0  0
  1  5  1  0  0  0  0
  1 12  1  0  0  0  0
  2  8  2  0  0  0  0
  2  7  1  0  0  0  0
  3 10  1  0  0  0  0
  3  9  1  0  0  0  0
  4  6  2  0  0  0  0
  6  9  1  0  0  0  0
  7  3  1  0  0  0  0
  8  4  1  0  0  0  0
  9  5  2  0  0  0  0
 10  1  2  0  0  0  0
 12 13  2  0  0  0  0
 12 11  1  0  0  0  0
 15 14  2  0  0  0  0
 15  2  1  0  0  0  0
 16 17  2  0  0  0  0
 17 15  1  0  0  0  0
 18 17  1  0  0  0  0
 19 22  1  0  0  0  0
 20 19  2  0  0  0  0
 21 24  1  0  0  0  0
 23 21  2  0  0  0  0
 23 20  1  0  0  0  0
 24 18  1  0  0  0  0
 24 22  2  0  0  0  0
 25 10  1  0  0  0  0
 26 28  1  0  0  0  0
 26 25  1  0  0  0  0
 27 26  2  0  0  0  0
M  END
>  <MODEL>
6

>  <REMARK>
 VINA RESULT:      -7.0      2.650      7.828
  Name = 
  7 active torsions:
  status: ('A' for Active; 'I' for Inactive)
    1  A    between atoms: C_2  and  C_25
    2  A    between atoms: C_7  and  C_16
    3  A    between atoms: C_8  and  C_10
    4  A    between atoms: C_10  and  C_22
    5  A    between atoms: N_13  and  C_20
    6  A    between atoms: N_13  and  C_22
    7  A    between atoms: C_25  and  C_28
                            x       y       z     vdW  Elec       q    Type
                         _______ _______ _______ _____ _____    ______ ____

>  <TORSDO>
F 7

$$$$
=
 OpenBabel11072414133D

 28 30  0  0  0  0  0  0  0  0999 V2000
  159.6610  211.4840  152.9230 C   0  0  0  0  0  0  0  0  0  0  0  0
  162.1630  209.2980  149.8210 C   0  0  0  0  0  0  0  0  0  0  0  0
  161.2170  210.5650  151.6590 N   0  0  0  0  0  0  0  0  0  0  0  0
  161.7770  211.5620  148.8770 N   0  0  0  0  0  0  0  0  0  0  0  0
  159.7950  212.2910  151.8470 N   0  0  0  0  0  0  0  0  0  0  0  0
  161.2520  212.2610  149.8440 C   0  0  0  0  0  3  0  0  0  0  0  0
  162.3730  209.8080  151.2110 C   0  0  0  0  0  2  0  0  0  0  0  0
  161.9480  210.1350  148.7940 C   0  0  0  0  0  3  0  0  0  0  0  0
  160.7480  211.6920  151.0990 C   0  0  0  0  0  0  0  0  0  0  0  0
  160.5500  210.4260  152.8160 C   0  0  0  0  0  0  0  0  0  0  0  0
  159.1710  212.3230  155.2490 N   0  0  0  0  0  1  0  0  0  0  0  0
  158.7210  211.7590  154.0230 C   0  0  0  0  0  0  0  0  0  0  0  0
  157.4980  211.4960  153.8780 O   0  0  0  0  0  0  0  0  0  0  0  0
  162.6910  207.4470  148.4410 O   0  0  0  0  0  0  0  0  0  0  0  0
  162.2250  207.8380  149.5470 C   0  0  0  0  0  0  0  0  0  0  0  0
  162.3750  206.5940  151.6420 C   0  0  0  0  0  2  0  0  0  0  0  0
  161.7360  206.8110  150.4960 C   0  0  0  0  0  0  0  0  0  0  0  0
  160.7010  205.9150  150.0540 N   0  0  0  0  0  2  0  0  0  0  0  0
  161.3650  202.9320  147.8680 C   0  0  0  0  0  3  0  0  0  0  0  0
  161.1770  201.8960  148.7870 C   0  0  0  0  0  3  0  0  0  0  0  0
  160.6710  203.5190  150.5110 C   0  0  0  0  0  3  0  0  0  0  0  0
  161.2040  204.2610  148.2710 C   0  0  0  0  0  3  0  0  0  0  0  0
  160.8310  202.1900  150.1080 C   0  0  0  0  0  3  0  0  0  0  0  0
  160.8460  204.5640  149.5950 C   0  0  0  0  0  0  0  0  0  0  0  0
  160.7550  209.3050  153.7860 C   0  0  0  0  0  2  0  0  0  0  0  0
  161.4710  209.7920  154.9980 C   0  0  0  0  0  0  0  0  0  0  0  0
  162.5110  210.7030  154.8750 O   0  0  0  0  0  0  0  0  0  0  0  0
  161.1200  209.3900  156.1380 O   0  0  0  0  0  1  0  0  0  0  0  0
  1 12  1  0  0  0  0
  2  7  1  0  0  0  0
  3 10  1  0  0  0  0
  4  6  2  0  0  0  0
  5  1  1  0  0  0  0
  6  9  1  0  0  0  0
  7  3  1  0  0  0  0
  8  4  1  0  0  0  0
  8  2  2  0  0  0  0
  9  3  1  0  0  0  0
  9  5  2  0  0  0  0
 10  1  2  0  0  0  0
 10 25  1  0  0  0  0
 12 11  1  0  0  0  0
 13 12  2  0  0  0  0
 14 15  2  0  0  0  0
 15  2  1  0  0  0  0
 15 17  1  0  0  0  0
 17 16  2  0  0  0  0
 18 17  1  0  0  0  0
 19 22  2  0  0  0  0
 19 20  1  0  0  0  0
 20 23  2  0  0  0  0
 22 24  1  0  0  0  0
 23 21  1  0  0  0  0
 24 18  1  0  0  0  0
 24 21  2  0  0  0  0
 25 26  1  0  0  0  0
 26 28  1  0  0  0  0
 27 26  2  0  0  0  0
M  END
>  <MODEL>
7

>  <REMARK>
 VINA RESULT:      -6.9      2.915      7.693
  Name = 
  7 active torsions:
  status: ('A' for Active; 'I' for Inactive)
    1  A    between atoms: C_2  and  C_25
    2  A    between atoms: C_7  and  C_16
    3  A    between atoms: C_8  and  C_10
    4  A    between atoms: C_10  and  C_22
    5  A    between atoms: N_13  and  C_20
    6  A    between atoms: N_13  and  C_22
    7  A    between atoms: C_25  and  C_28
                            x       y       z     vdW  Elec       q    Type
                         _______ _______ _______ _____ _____    ______ ____

>  <TORSDO>
F 7

$$$$
=
 OpenBabel11072414133D

 28 30  0  0  0  0  0  0  0  0999 V2000
  161.5220  205.0140  147.9100 C   0  0  0  0  0  0  0  0  0  0  0  0
  161.4840  207.6090  151.6420 C   0  0  0  0  0  0  0  0  0  0  0  0
  161.0810  206.3450  149.6130 N   0  0  0  0  0  0  0  0  0  0  0  0
  162.2950  209.0890  149.8200 N   0  0  0  0  0  0  0  0  0  0  0  0
  162.0450  206.2190  147.5900 N   0  0  0  0  0  0  0  0  0  0  0  0
  162.1040  208.4240  148.7160 C   0  0  0  0  0  3  0  0  0  0  0  0
  160.4570  206.9470  150.7780 C   0  0  0  0  0  2  0  0  0  0  0  0
  162.2530  208.6050  151.1760 C   0  0  0  0  0  3  0  0  0  0  0  0
  161.7590  206.9980  148.6550 C   0  0  0  0  0  0  0  0  0  0  0  0
  160.9130  205.0950  149.1520 C   0  0  0  0  0  0  0  0  0  0  0  0
  161.6740  204.0010  145.6070 N   0  0  0  0  0  1  0  0  0  0  0  0
  161.5930  203.8440  147.0190 C   0  0  0  0  0  0  0  0  0  0  0  0
  161.5870  202.6850  147.5100 O   0  0  0  0  0  0  0  0  0  0  0  0
  162.2640  206.1180  153.3090 O   0  0  0  0  0  0  0  0  0  0  0  0
  161.6450  207.1900  153.0600 C   0  0  0  0  0  0  0  0  0  0  0  0
  160.3490  207.3380  155.1230 C   0  0  0  0  0  2  0  0  0  0  0  0
  161.0870  207.9500  154.2010 C   0  0  0  0  0  0  0  0  0  0  0  0
  161.1740  209.3860  154.1690 N   0  0  0  0  0  2  0  0  0  0  0  0
  158.5780  211.7120  152.7670 C   0  0  0  0  0  3  0  0  0  0  0  0
  157.9430  212.1230  153.9420 C   0  0  0  0  0  3  0  0  0  0  0  0
  159.4490  210.7380  155.2380 C   0  0  0  0  0  3  0  0  0  0  0  0
  159.6490  210.8160  152.8290 C   0  0  0  0  0  3  0  0  0  0  0  0
  158.3780  211.6350  155.1770 C   0  0  0  0  0  3  0  0  0  0  0  0
  160.0980  210.3290  154.0670 C   0  0  0  0  0  0  0  0  0  0  0  0
  160.1950  204.0080  149.8890 C   0  0  0  0  0  2  0  0  0  0  0  0
  161.1540  203.2230  150.7180 C   0  0  0  0  0  0  0  0  0  0  0  0
  161.1810  201.8380  150.6300 O   0  0  0  0  0  0  0  0  0  0  0  0
  161.9530  203.8190  151.4850 O   0  0  0  0  0  1  0  0  0  0  0  0
  1 10  2  0  0  0  0
  2 15  1  0  0  0  0
  3  7  1  0  0  0  0
  4  8  1  0  0  0  0
  5  1  1  0  0  0  0
  5  9  2  0  0  0  0
  6  4  2  0  0  0  0
  7  2  1  0  0  0  0
  8  2  2  0  0  0  0
  9  6  1  0  0  0  0
  9  3  1  0  0  0  0
 10  3  1  0  0  0  0
 10 25  1  0  0  0  0
 11 12  1  0  0  0  0
 12 13  2  0  0  0  0
 12  1  1  0  0  0  0
 15 14  2  0  0  0  0
 15 17  1  0  0  0  0
 17 16  2  0  0  0  0
 18 17  1  0  0  0  0
 19 22  2  0  0  0  0
 19 20  1  0  0  0  0
 20 23  2  0  0  0  0
 22 24  1  0  0  0  0
 23 21  1  0  0  0  0
 24 18  1  0  0  0  0
 24 21  2  0  0  0  0
 25 26  1  0  0  0  0
 26 28  1  0  0  0  0
 27 26  2  0  0  0  0
M  END
>  <MODEL>
8

>  <REMARK>
 VINA RESULT:      -6.9      1.966      3.080
  Name = 
  7 active torsions:
  status: ('A' for Active; 'I' for Inactive)
    1  A    between atoms: C_2  and  C_25
    2  A    between atoms: C_7  and  C_16
    3  A    between atoms: C_8  and  C_10
    4  A    between atoms: C_10  and  C_22
    5  A    between atoms: N_13  and  C_20
    6  A    between atoms: N_13  and  C_22
    7  A    between atoms: C_25  and  C_28
                            x       y       z     vdW  Elec       q    Type
                         _______ _______ _______ _____ _____    ______ ____

>  <TORSDO>
F 7

$$$$
=
 OpenBabel11072414133D

 28 30  0  0  0  0  0  0  0  0999 V2000
  160.1890  211.2050  155.9090 C   0  0  0  0  0  0  0  0  0  0  0  0
  161.1390  208.4140  152.4500 C   0  0  0  0  0  0  0  0  0  0  0  0
  160.2130  209.8510  154.1680 N   0  0  0  0  0  0  0  0  0  0  0  0
  160.9420  206.9470  154.4430 N   0  0  0  0  0  0  0  0  0  0  0  0
  160.3440  209.9570  156.4070 N   0  0  0  0  0  0  0  0  0  0  0  0
  160.4600  207.7020  155.3890 C   0  0  0  0  0  3  0  0  0  0  0  0
  159.9860  209.2790  152.8530 C   0  0  0  0  0  2  0  0  0  0  0  0
  161.4970  207.3440  153.1750 C   0  0  0  0  0  3  0  0  0  0  0  0
  160.3590  209.1640  155.3130 C   0  0  0  0  0  0  0  0  0  0  0  0
  160.0920  211.1390  154.5290 C   0  0  0  0  0  0  0  0  0  0  0  0
  158.8620  213.0320  157.0290 N   0  0  0  0  0  1  0  0  0  0  0  0
  160.1100  212.4050  156.7600 C   0  0  0  0  0  0  0  0  0  0  0  0
  161.1610  212.8840  157.2610 O   0  0  0  0  0  0  0  0  0  0  0  0
  162.7100  209.6730  151.2030 O   0  0  0  0  0  0  0  0  0  0  0  0
  161.8920  208.7120  151.2030 C   0  0  0  0  0  0  0  0  0  0  0  0
  162.3390  208.3360  148.8330 C   0  0  0  0  0  2  0  0  0  0  0  0
  161.7100  207.9570  149.9420 C   0  0  0  0  0  0  0  0  0  0  0  0
  160.6780  206.9560  149.8930 N   0  0  0  0  0  2  0  0  0  0  0  0
  161.2510  203.6650  148.1730 C   0  0  0  0  0  3  0  0  0  0  0  0
  161.1790  202.7930  149.2620 C   0  0  0  0  0  3  0  0  0  0  0  0
  160.7700  204.6690  150.7370 C   0  0  0  0  0  3  0  0  0  0  0  0
  161.0800  205.0390  148.3660 C   0  0  0  0  0  3  0  0  0  0  0  0
  160.9400  203.2960  150.5440 C   0  0  0  0  0  3  0  0  0  0  0  0
  160.8290  205.5510  149.6500 C   0  0  0  0  0  0  0  0  0  0  0  0
  159.8980  212.2740  153.5730 C   0  0  0  0  0  2  0  0  0  0  0  0
  158.4570  212.4160  153.2210 C   0  0  0  0  0  0  0  0  0  0  0  0
  158.0870  212.9730  152.0050 O   0  0  0  0  0  0  0  0  0  0  0  0
  157.5740  212.0140  154.0220 O   0  0  0  0  0  1  0  0  0  0  0  0
  1  5  1  0  0  0  0
  1 12  1  0  0  0  0
  2  7  1  0  0  0  0
  2  8  2  0  0  0  0
  3 10  1  0  0  0  0
  3  9  1  0  0  0  0
  4  6  2  0  0  0  0
  7  3  1  0  0  0  0
  8  4  1  0  0  0  0
  9  6  1  0  0  0  0
  9  5  2  0  0  0  0
 10  1  2  0  0  0  0
 12 11  1  0  0  0  0
 12 13  2  0  0  0  0
 15 14  2  0  0  0  0
 15  2  1  0  0  0  0
 16 17  2  0  0  0  0
 17 15  1  0  0  0  0
 18 17  1  0  0  0  0
 19 22  2  0  0  0  0
 19 20  1  0  0  0  0
 20 23  2  0  0  0  0
 22 24  1  0  0  0  0
 23 21  1  0  0  0  0
 24 18  1  0  0  0  0
 24 21  2  0  0  0  0
 25 10  1  0  0  0  0
 26 25  1  0  0  0  0
 26 28  1  0  0  0  0
 27 26  2  0  0  0  0
M  END
>  <MODEL>
9

>  <REMARK>
 VINA RESULT:      -6.9      3.474      8.656
  Name = 
  7 active torsions:
  status: ('A' for Active; 'I' for Inactive)
    1  A    between atoms: C_2  and  C_25
    2  A    between atoms: C_7  and  C_16
    3  A    between atoms: C_8  and  C_10
    4  A    between atoms: C_10  and  C_22
    5  A    between atoms: N_13  and  C_20
    6  A    between atoms: N_13  and  C_22
    7  A    between atoms: C_25  and  C_28
                            x       y       z     vdW  Elec       q    Type
                         _______ _______ _______ _____ _____    ______ ____

>  <TORSDO>
F 7

$$$$
