=
 OpenBabel11072413143D

 34 34  0  0  1  0  0  0  0  0999 V2000
  161.2120  204.8010  152.8660 C   0  0  0  0  0  2  0  0  0  0  0  0
  160.8210  206.0140  152.0460 C   0  0  1  0  0  3  0  0  0  0  0  0
  161.6210  206.1850  153.3210 C   0  0  1  0  0  3  0  0  0  0  0  0
  160.6900  206.6550  154.4250 C   0  0  0  0  0  2  0  0  0  0  0  0
  161.4700  210.0410  153.4590 C   0  0  0  0  0  3  0  0  0  0  0  0
  161.3160  208.9960  154.2310 C   0  0  0  0  0  0  0  0  0  0  0  0
  161.1590  207.9540  155.0030 C   0  0  0  0  0  0  0  0  0  0  0  0
  160.3360  210.8070  152.9210 C   0  0  0  0  0  3  0  0  0  0  0  0
  160.0650  212.0550  153.2930 C   0  0  0  0  0  3  0  0  0  0  0  0
  158.3520  212.0440  151.6940 F   0  0  0  0  0  0  0  0  0  0  0  0
  158.9000  212.7940  152.7200 C   0  0  1  0  0  3  0  0  0  0  0  0
  157.8320  213.0880  153.7750 C   0  0  0  0  0  0  0  0  0  0  0  0
  158.4240  213.2840  155.0110 F   0  0  0  0  0  0  0  0  0  0  0  0
  157.1370  214.2440  153.4220 O   0  0  0  0  0  1  0  0  0  0  0  0
  156.9410  212.0330  153.8610 F   0  0  0  0  0  0  0  0  0  0  0  0
  160.5430  207.2170  157.1660 O   0  0  0  0  0  1  0  0  0  0  0  0
  161.3750  208.0990  156.4750 C   0  0  2  0  0  3  0  0  0  0  0  0
  161.1050  209.5240  156.9360 C   0  0  0  0  0  2  0  0  0  0  0  0
  159.7570  209.6730  157.2610 O   0  0  0  0  0  1  0  0  0  0  0  0
  161.7650  206.1490  150.8640 C   0  0  0  0  0  2  0  0  0  0  0  0
  161.1140  206.9420  149.7410 C   0  0  0  0  0  2  0  0  0  0  0  0
  162.1500  207.6400  148.8680 C   0  0  2  0  0  3  0  0  0  0  0  0
  161.6900  208.9160  148.5340 O   0  0  0  0  0  0  0  0  0  0  0  0
  162.0500  209.7210  149.6150 C   0  0  0  0  0  1  0  0  0  0  0  0
  162.3930  206.8340  147.5990 C   0  0  0  0  0  2  0  0  0  0  0  0
  161.2530  205.8560  147.3370 C   0  0  1  0  0  3  0  0  0  0  0  0
  160.5100  206.2380  146.0670 C   0  0  0  0  0  2  0  0  0  0  0  0
  161.1750  205.7280  144.9520 O   0  0  0  0  0  1  0  0  0  0  0  0
  161.8100  204.4510  147.1730 C   0  0  0  0  0  2  0  0  0  0  0  0
  160.9450  203.4330  147.9010 C   0  0  1  0  0  3  0  0  0  0  0  0
  161.2090  202.4980  145.7160 O   0  0  0  0  0  1  0  0  0  0  0  0
  160.7920  202.2070  147.0160 C   0  0  0  0  0  2  0  0  0  0  0  0
  161.5950  203.0490  149.2230 C   0  0  0  0  0  2  0  0  0  0  0  0
  160.6670  202.1670  150.0350 C   0  0  0  0  0  1  0  0  0  0  0  0
  1  3  1  0  0  0  0
  2 20  1  6  0  0  0
  2  1  1  0  0  0  0
  2  3  1  0  0  0  0
  3  4  1  1  0  0  0
  4  7  1  0  0  0  0
  5  6  2  0  0  0  0
  6  7  2  0  0  0  0
  7 17  1  0  0  0  0
  8  9  2  0  0  0  0
  8  5  1  0  0  0  0
 11 10  1  6  0  0  0
 11  9  1  0  0  0  0
 11 12  1  0  0  0  0
 12 15  1  0  0  0  0
 12 13  1  0  0  0  0
 14 12  1  0  0  0  0
 17 18  1  0  0  0  0
 17 16  1  1  0  0  0
 18 19  1  0  0  0  0
 21 20  1  0  0  0  0
 22 25  1  6  0  0  0
 22 21  1  0  0  0  0
 23 22  1  0  0  0  0
 23 24  1  0  0  0  0
 26 27  1  6  0  0  0
 26 25  1  0  0  0  0
 28 27  1  0  0  0  0
 29 26  1  0  0  0  0
 29 30  1  0  0  0  0
 30 32  1  6  0  0  0
 30 33  1  0  0  0  0
 31 32  1  0  0  0  0
 33 34  1  0  0  0  0
M  END
>  <MODEL>
1

>  <REMARK>
 VINA RESULT:      -6.3      0.000      0.000
  Name = 
  18 active torsions:
  status: ('A' for Active; 'I' for Inactive)
    1  A    between atoms: C_1  and  C_13
    2  A    between atoms: C_2  and  C_15
    3  A    between atoms: C_2  and  C_24
    4  A    between atoms: O_4  and  C_25
    5  A    between atoms: C_5  and  C_7
    6  A    between atoms: C_5  and  C_33
    7  A    between atoms: C_6  and  C_7
    8  A    between atoms: C_7  and  C_32
    9  A    between atoms: C_8  and  C_18
   10  A    between atoms: C_17  and  C_27
   11  A    between atoms: C_18  and  C_23
   12  A    between atoms: C_19  and  C_33
   13  A    between atoms: C_21  and  C_31
   14  A    between atoms: C_24  and  C_25
   15  A    between atoms: C_25  and  C_32
   16  A    between atoms: C_27  and  C_34
   17  A    between atoms: C_29  and  C_33
   18  A    between atoms: C_31  and  C_34
                            x       y       z     vdW  Elec       q    Type
                         _______ _______ _______ _____ _____    ______ ____

>  <TORSDO>
F 18

$$$$
=
 OpenBabel11072413143D

 34 34  0  0  1  0  0  0  0  0999 V2000
  162.4630  206.3690  151.9870 C   0  0  0  0  0  2  0  0  0  0  0  0
  161.1020  205.7040  151.9680 C   0  0  1  0  0  3  0  0  0  0  0  0
  161.2150  207.2080  151.8180 C   0  0  1  0  0  3  0  0  0  0  0  0
  160.8570  207.8610  153.1410 C   0  0  0  0  0  2  0  0  0  0  0  0
  162.5790  210.3110  151.1310 C   0  0  0  0  0  3  0  0  0  0  0  0
  161.9290  209.8040  152.1460 C   0  0  0  0  0  0  0  0  0  0  0  0
  161.2760  209.2990  153.1590 C   0  0  0  0  0  0  0  0  0  0  0  0
  161.9320  210.6200  149.8470 C   0  0  0  0  0  3  0  0  0  0  0  0
  162.3240  211.6220  149.0630 C   0  0  0  0  0  3  0  0  0  0  0  0
  160.8200  210.8280  147.4510 F   0  0  0  0  0  0  0  0  0  0  0  0
  161.6360  211.9000  147.7670 C   0  0  1  0  0  3  0  0  0  0  0  0
  160.8060  213.1850  147.8220 C   0  0  0  0  0  0  0  0  0  0  0  0
  159.5470  212.9180  148.3300 F   0  0  0  0  0  0  0  0  0  0  0  0
  161.4390  214.1100  148.6520 O   0  0  0  0  0  1  0  0  0  0  0  0
  160.6800  213.7260  146.5550 F   0  0  0  0  0  0  0  0  0  0  0  0
  160.3630  211.3870  153.7970 O   0  0  0  0  0  1  0  0  0  0  0  0
  160.8850  210.1920  154.2920 C   0  0  2  0  0  3  0  0  0  0  0  0
  162.0730  210.4890  155.1960 C   0  0  0  0  0  2  0  0  0  0  0  0
  162.2000  209.4890  156.1610 O   0  0  0  0  0  1  0  0  0  0  0  0
  160.8540  205.1020  150.5970 C   0  0  0  0  0  2  0  0  0  0  0  0
  160.5170  203.6220  150.7100 C   0  0  0  0  0  2  0  0  0  0  0  0
  160.3890  202.9650  149.3410 C   0  0  2  0  0  3  0  0  0  0  0  0
  159.8290  201.6940  149.4880 O   0  0  0  0  0  0  0  0  0  0  0  0
  160.8190  200.9370  150.1170 C   0  0  0  0  0  1  0  0  0  0  0  0
  161.7600  202.8490  148.6870 C   0  0  0  0  0  2  0  0  0  0  0  0
  161.7050  203.2380  147.2140 C   0  0  1  0  0  3  0  0  0  0  0  0
  160.9720  202.1740  146.4140 C   0  0  0  0  0  2  0  0  0  0  0  0
  160.7290  202.6310  145.1190 O   0  0  0  0  0  1  0  0  0  0  0  0
  160.9700  204.5590  147.0600 C   0  0  0  0  0  2  0  0  0  0  0  0
  161.9410  205.6930  146.7650 C   0  0  1  0  0  3  0  0  0  0  0  0
  160.7180  205.8820  144.7180 O   0  0  0  0  0  1  0  0  0  0  0  0
  162.0040  205.8970  145.2600 C   0  0  0  0  0  2  0  0  0  0  0  0
  161.4720  206.9690  147.4500 C   0  0  0  0  0  2  0  0  0  0  0  0
  162.5670  207.5270  148.3370 C   0  0  0  0  0  1  0  0  0  0  0  0
  2 20  1  6  0  0  0
  2  1  1  0  0  0  0
  3  2  1  0  0  0  0
  3  1  1  0  0  0  0
  3  4  1  1  0  0  0
  4  7  1  0  0  0  0
  5  6  2  0  0  0  0
  6  7  2  0  0  0  0
  7 17  1  0  0  0  0
  8  5  1  0  0  0  0
  9  8  2  0  0  0  0
 11 10  1  1  0  0  0
 11 12  1  0  0  0  0
 11  9  1  0  0  0  0
 12 13  1  0  0  0  0
 12 14  1  0  0  0  0
 15 12  1  0  0  0  0
 17 16  1  6  0  0  0
 17 18  1  0  0  0  0
 18 19  1  0  0  0  0
 20 21  1  0  0  0  0
 22 25  1  1  0  0  0
 22 23  1  0  0  0  0
 22 21  1  0  0  0  0
 23 24  1  0  0  0  0
 26 27  1  6  0  0  0
 26 25  1  0  0  0  0
 28 27  1  0  0  0  0
 29 26  1  0  0  0  0
 30 32  1  6  0  0  0
 30 29  1  0  0  0  0
 30 33  1  0  0  0  0
 31 32  1  0  0  0  0
 33 34  1  0  0  0  0
M  END
>  <MODEL>
2

>  <REMARK>
 VINA RESULT:      -6.3      2.647      4.516
  Name = 
  18 active torsions:
  status: ('A' for Active; 'I' for Inactive)
    1  A    between atoms: C_1  and  C_13
    2  A    between atoms: C_2  and  C_15
    3  A    between atoms: C_2  and  C_24
    4  A    between atoms: O_4  and  C_25
    5  A    between atoms: C_5  and  C_7
    6  A    between atoms: C_5  and  C_33
    7  A    between atoms: C_6  and  C_7
    8  A    between atoms: C_7  and  C_32
    9  A    between atoms: C_8  and  C_18
   10  A    between atoms: C_17  and  C_27
   11  A    between atoms: C_18  and  C_23
   12  A    between atoms: C_19  and  C_33
   13  A    between atoms: C_21  and  C_31
   14  A    between atoms: C_24  and  C_25
   15  A    between atoms: C_25  and  C_32
   16  A    between atoms: C_27  and  C_34
   17  A    between atoms: C_29  and  C_33
   18  A    between atoms: C_31  and  C_34
                            x       y       z     vdW  Elec       q    Type
                         _______ _______ _______ _____ _____    ______ ____

>  <TORSDO>
F 18

$$$$
=
 OpenBabel11072413143D

 34 34  0  0  1  0  0  0  0  0999 V2000
  161.8910  205.8610  153.3960 C   0  0  0  0  0  2  0  0  0  0  0  0
  161.0450  205.2300  152.3090 C   0  0  1  0  0  3  0  0  0  0  0  0
  161.7080  206.5720  152.0740 C   0  0  1  0  0  3  0  0  0  0  0  0
  160.6660  207.6670  152.2230 C   0  0  0  0  0  2  0  0  0  0  0  0
  162.4740  210.4480  150.8080 C   0  0  0  0  0  3  0  0  0  0  0  0
  161.8910  209.7040  151.7110 C   0  0  0  0  0  0  0  0  0  0  0  0
  161.3060  208.9630  152.6140 C   0  0  0  0  0  0  0  0  0  0  0  0
  161.7220  211.2350  149.8190 C   0  0  0  0  0  3  0  0  0  0  0  0
  162.1120  211.3680  148.5530 C   0  0  0  0  0  3  0  0  0  0  0  0
  160.2120  212.7020  148.2330 F   0  0  0  0  0  0  0  0  0  0  0  0
  161.3150  212.1780  147.5840 C   0  0  1  0  0  3  0  0  0  0  0  0
  162.1410  213.3100  146.9680 C   0  0  0  0  0  0  0  0  0  0  0  0
  161.3230  214.1480  146.2300 F   0  0  0  0  0  0  0  0  0  0  0  0
  162.7420  214.0510  147.9850 O   0  0  0  0  0  1  0  0  0  0  0  0
  163.1230  212.7910  146.1440 F   0  0  0  0  0  0  0  0  0  0  0  0
  160.3720  208.6370  154.7640 O   0  0  0  0  0  1  0  0  0  0  0  0
  161.2130  209.4640  154.0200 C   0  0  2  0  0  3  0  0  0  0  0  0
  160.6940  210.8930  154.0640 C   0  0  0  0  0  2  0  0  0  0  0  0
  161.2210  211.5580  155.1720 O   0  0  0  0  0  1  0  0  0  0  0  0
  161.8540  204.1620  151.5970 C   0  0  0  0  0  2  0  0  0  0  0  0
  160.9440  203.0790  151.0340 C   0  0  0  0  0  2  0  0  0  0  0  0
  160.5790  203.3470  149.5800 C   0  0  2  0  0  3  0  0  0  0  0  0
  160.7100  202.1670  148.8450 O   0  0  0  0  0  0  0  0  0  0  0  0
  159.7650  201.2970  149.3920 C   0  0  0  0  0  1  0  0  0  0  0  0
  161.4950  204.4170  148.9990 C   0  0  0  0  0  2  0  0  0  0  0  0
  161.0650  204.8090  147.5900 C   0  0  1  0  0  3  0  0  0  0  0  0
  160.6540  206.2720  147.5520 C   0  0  0  0  0  2  0  0  0  0  0  0
  160.8490  206.8570  148.8040 O   0  0  0  0  0  1  0  0  0  0  0  0
  162.2200  204.6010  146.6250 C   0  0  0  0  0  2  0  0  0  0  0  0
  161.7780  203.8000  145.4100 C   0  0  1  0  0  3  0  0  0  0  0  0
  160.2350  202.0210  144.9900 O   0  0  0  0  0  1  0  0  0  0  0  0
  161.2050  202.4740  145.8850 C   0  0  0  0  0  2  0  0  0  0  0  0
  160.7270  204.5770  144.6290 C   0  0  0  0  0  2  0  0  0  0  0  0
  161.3800  205.6640  143.7980 C   0  0  0  0  0  1  0  0  0  0  0  0
  2 20  1  6  0  0  0
  2  1  1  0  0  0  0
  3  4  1  1  0  0  0
  3  2  1  0  0  0  0
  3  1  1  0  0  0  0
  4  7  1  0  0  0  0
  5  6  2  0  0  0  0
  6  7  2  0  0  0  0
  7 17  1  0  0  0  0
  8  5  1  0  0  0  0
  9  8  2  0  0  0  0
 11 10  1  1  0  0  0
 11  9  1  0  0  0  0
 12 11  1  0  0  0  0
 12 14  1  0  0  0  0
 13 12  1  0  0  0  0
 15 12  1  0  0  0  0
 17 18  1  0  0  0  0
 17 16  1  1  0  0  0
 18 19  1  0  0  0  0
 21 20  1  0  0  0  0
 22 25  1  6  0  0  0
 22 21  1  0  0  0  0
 23 24  1  0  0  0  0
 23 22  1  0  0  0  0
 26 29  1  6  0  0  0
 26 25  1  0  0  0  0
 27 26  1  0  0  0  0
 27 28  1  0  0  0  0
 30 33  1  1  0  0  0
 30 32  1  0  0  0  0
 30 29  1  0  0  0  0
 31 32  1  0  0  0  0
 34 33  1  0  0  0  0
M  END
>  <MODEL>
3

>  <REMARK>
 VINA RESULT:      -6.2      2.731      4.686
  Name = 
  18 active torsions:
  status: ('A' for Active; 'I' for Inactive)
    1  A    between atoms: C_1  and  C_13
    2  A    between atoms: C_2  and  C_15
    3  A    between atoms: C_2  and  C_24
    4  A    between atoms: O_4  and  C_25
    5  A    between atoms: C_5  and  C_7
    6  A    between atoms: C_5  and  C_33
    7  A    between atoms: C_6  and  C_7
    8  A    between atoms: C_7  and  C_32
    9  A    between atoms: C_8  and  C_18
   10  A    between atoms: C_17  and  C_27
   11  A    between atoms: C_18  and  C_23
   12  A    between atoms: C_19  and  C_33
   13  A    between atoms: C_21  and  C_31
   14  A    between atoms: C_24  and  C_25
   15  A    between atoms: C_25  and  C_32
   16  A    between atoms: C_27  and  C_34
   17  A    between atoms: C_29  and  C_33
   18  A    between atoms: C_31  and  C_34
                            x       y       z     vdW  Elec       q    Type
                         _______ _______ _______ _____ _____    ______ ____

>  <TORSDO>
F 18

$$$$
=
 OpenBabel11072413143D

 34 34  0  0  1  0  0  0  0  0999 V2000
  160.4760  203.6070  152.6510 C   0  0  0  0  0  2  0  0  0  0  0  0
  161.4750  204.6130  152.1160 C   0  0  1  0  0  3  0  0  0  0  0  0
  160.4370  204.0080  151.1930 C   0  0  1  0  0  3  0  0  0  0  0  0
  161.0970  202.9320  150.3490 C   0  0  0  0  0  2  0  0  0  0  0  0
  160.6460  205.8120  148.2250 C   0  0  0  0  0  3  0  0  0  0  0  0
  160.8980  204.5750  148.5680 C   0  0  0  0  0  0  0  0  0  0  0  0
  161.1530  203.3400  148.9090 C   0  0  0  0  0  0  0  0  0  0  0  0
  161.5900  206.9130  148.4690 C   0  0  0  0  0  3  0  0  0  0  0  0
  161.3420  207.9020  149.3230 C   0  0  0  0  0  3  0  0  0  0  0  0
  162.4590  209.7270  148.3660 F   0  0  0  0  0  0  0  0  0  0  0  0
  162.3310  209.0010  149.5370 C   0  0  1  0  0  3  0  0  0  0  0  0
  161.9180  209.9300  150.6810 C   0  0  0  0  0  0  0  0  0  0  0  0
  162.8980  209.9470  151.6580 F   0  0  0  0  0  0  0  0  0  0  0  0
  161.7510  211.2240  150.1890 O   0  0  0  0  0  1  0  0  0  0  0  0
  160.7270  209.5000  151.2380 F   0  0  0  0  0  0  0  0  0  0  0  0
  160.9310  202.6530  146.6560 O   0  0  0  0  0  1  0  0  0  0  0  0
  161.5780  202.3660  147.8580 C   0  0  2  0  0  3  0  0  0  0  0  0
  161.2730  200.9350  148.2750 C   0  0  0  0  0  2  0  0  0  0  0  0
  161.4190  200.0780  147.1840 O   0  0  0  0  0  1  0  0  0  0  0  0
  161.0290  206.0140  152.4900 C   0  0  0  0  0  2  0  0  0  0  0  0
  161.9530  206.6140  153.5410 C   0  0  0  0  0  2  0  0  0  0  0  0
  161.1890  207.4680  154.5440 C   0  0  2  0  0  3  0  0  0  0  0  0
  160.0760  206.7590  155.0030 O   0  0  0  0  0  0  0  0  0  0  0  0
  160.0740  206.9520  156.3860 C   0  0  0  0  0  1  0  0  0  0  0  0
  160.7360  208.7660  153.8890 C   0  0  0  0  0  2  0  0  0  0  0  0
  160.7400  209.9200  154.8840 C   0  0  1  0  0  3  0  0  0  0  0  0
  162.1100  210.0550  155.5290 C   0  0  0  0  0  2  0  0  0  0  0  0
  162.0560  210.9710  156.5800 O   0  0  0  0  0  1  0  0  0  0  0  0
  160.4080  211.2180  154.1670 C   0  0  0  0  0  2  0  0  0  0  0  0
  158.9610  211.2270  153.6980 C   0  0  1  0  0  3  0  0  0  0  0  0
  157.4500  210.9720  155.5340 O   0  0  0  0  0  1  0  0  0  0  0  0
  158.1140  211.9190  154.7540 C   0  0  0  0  0  2  0  0  0  0  0  0
  158.8490  211.9620  152.3690 C   0  0  0  0  0  2  0  0  0  0  0  0
  158.0190  213.2210  152.5270 C   0  0  0  0  0  1  0  0  0  0  0  0
  2 20  1  1  0  0  0
  2  1  1  0  0  0  0
  3  4  1  6  0  0  0
  3  2  1  0  0  0  0
  3  1  1  0  0  0  0
  5  8  1  0  0  0  0
  5  6  2  0  0  0  0
  6  7  2  0  0  0  0
  7  4  1  0  0  0  0
  8  9  2  0  0  0  0
  9 11  1  0  0  0  0
 11 10  1  6  0  0  0
 11 12  1  0  0  0  0
 12 15  1  0  0  0  0
 12 13  1  0  0  0  0
 14 12  1  0  0  0  0
 17 16  1  6  0  0  0
 17 18  1  0  0  0  0
 17  7  1  0  0  0  0
 19 18  1  0  0  0  0
 20 21  1  0  0  0  0
 22 21  1  6  0  0  0
 22 23  1  0  0  0  0
 23 24  1  0  0  0  0
 25 22  1  0  0  0  0
 26 25  1  6  0  0  0
 26 27  1  0  0  0  0
 27 28  1  0  0  0  0
 29 26  1  0  0  0  0
 30 33  1  6  0  0  0
 30 29  1  0  0  0  0
 30 32  1  0  0  0  0
 32 31  1  0  0  0  0
 33 34  1  0  0  0  0
M  END
>  <MODEL>
4

>  <REMARK>
 VINA RESULT:      -6.2      2.172      8.389
  Name = 
  18 active torsions:
  status: ('A' for Active; 'I' for Inactive)
    1  A    between atoms: C_1  and  C_13
    2  A    between atoms: C_2  and  C_15
    3  A    between atoms: C_2  and  C_24
    4  A    between atoms: O_4  and  C_25
    5  A    between atoms: C_5  and  C_7
    6  A    between atoms: C_5  and  C_33
    7  A    between atoms: C_6  and  C_7
    8  A    between atoms: C_7  and  C_32
    9  A    between atoms: C_8  and  C_18
   10  A    between atoms: C_17  and  C_27
   11  A    between atoms: C_18  and  C_23
   12  A    between atoms: C_19  and  C_33
   13  A    between atoms: C_21  and  C_31
   14  A    between atoms: C_24  and  C_25
   15  A    between atoms: C_25  and  C_32
   16  A    between atoms: C_27  and  C_34
   17  A    between atoms: C_29  and  C_33
   18  A    between atoms: C_31  and  C_34
                            x       y       z     vdW  Elec       q    Type
                         _______ _______ _______ _____ _____    ______ ____

>  <TORSDO>
F 18

$$$$
=
 OpenBabel11072413143D

 34 34  0  0  1  0  0  0  0  0999 V2000
  161.0160  206.5300  148.9800 C   0  0  0  0  0  2  0  0  0  0  0  0
  162.1930  207.4250  149.3090 C   0  0  1  0  0  3  0  0  0  0  0  0
  161.5890  207.4430  147.9190 C   0  0  1  0  0  3  0  0  0  0  0  0
  162.4820  206.6440  146.9860 C   0  0  0  0  0  2  0  0  0  0  0  0
  161.8710  203.0950  146.7960 C   0  0  0  0  0  3  0  0  0  0  0  0
  161.7800  204.3670  146.5050 C   0  0  0  0  0  0  0  0  0  0  0  0
  161.6850  205.6370  146.2160 C   0  0  0  0  0  0  0  0  0  0  0  0
  161.2600  202.5090  147.9980 C   0  0  0  0  0  3  0  0  0  0  0  0
  161.1170  203.1810  149.1380 C   0  0  0  0  0  3  0  0  0  0  0  0
  160.4170  201.1770  150.1300 F   0  0  0  0  0  0  0  0  0  0  0  0
  160.4920  202.5440  150.3350 C   0  0  1  0  0  3  0  0  0  0  0  0
  161.2760  202.8340  151.6160 C   0  0  0  0  0  0  0  0  0  0  0  0
  162.1270  203.9080  151.4200 F   0  0  0  0  0  0  0  0  0  0  0  0
  160.3870  203.1480  152.6430 O   0  0  0  0  0  1  0  0  0  0  0  0
  162.0190  201.7270  151.9820 F   0  0  0  0  0  0  0  0  0  0  0  0
  159.4160  206.0340  145.6730 O   0  0  0  0  0  1  0  0  0  0  0  0
  160.7150  206.0760  145.1660 C   0  0  2  0  0  3  0  0  0  0  0  0
  160.8090  205.1990  143.9260 C   0  0  0  0  0  2  0  0  0  0  0  0
  161.5990  205.8220  142.9600 O   0  0  0  0  0  1  0  0  0  0  0  0
  161.7010  208.6480  150.0630 C   0  0  0  0  0  2  0  0  0  0  0  0
  162.3650  208.7430  151.4290 C   0  0  0  0  0  2  0  0  0  0  0  0
  161.3520  208.6130  152.5600 C   0  0  2  0  0  3  0  0  0  0  0  0
  160.7220  207.3690  152.4760 O   0  0  0  0  0  0  0  0  0  0  0  0
  161.5400  206.5030  153.2040 C   0  0  0  0  0  1  0  0  0  0  0  0
  160.3130  209.7220  152.4620 C   0  0  0  0  0  2  0  0  0  0  0  0
  160.5690  210.8140  153.4950 C   0  0  1  0  0  3  0  0  0  0  0  0
  159.9580  212.1280  153.0360 C   0  0  0  0  0  2  0  0  0  0  0  0
  159.4360  212.8210  154.1280 O   0  0  0  0  0  1  0  0  0  0  0  0
  159.9430  210.4210  154.8220 C   0  0  0  0  0  2  0  0  0  0  0  0
  160.9610  209.7420  155.7260 C   0  0  1  0  0  3  0  0  0  0  0  0
  163.1340  210.7290  155.8730 O   0  0  0  0  0  1  0  0  0  0  0  0
  161.8310  210.8130  156.3650 C   0  0  0  0  0  2  0  0  0  0  0  0
  160.2450  208.9350  156.8000 C   0  0  0  0  0  2  0  0  0  0  0  0
  160.0520  207.5010  156.3460 C   0  0  0  0  0  1  0  0  0  0  0  0
  1  2  1  0  0  0  0
  2 20  1  1  0  0  0
  3  4  1  6  0  0  0
  3  1  1  0  0  0  0
  3  2  1  0  0  0  0
  5  8  1  0  0  0  0
  6  5  2  0  0  0  0
  7  6  2  0  0  0  0
  7  4  1  0  0  0  0
  8  9  2  0  0  0  0
  9 11  1  0  0  0  0
 11 10  1  6  0  0  0
 11 12  1  0  0  0  0
 12 15  1  0  0  0  0
 12 14  1  0  0  0  0
 13 12  1  0  0  0  0
 17 16  1  1  0  0  0
 17  7  1  0  0  0  0
 18 17  1  0  0  0  0
 19 18  1  0  0  0  0
 20 21  1  0  0  0  0
 22 21  1  6  0  0  0
 23 22  1  0  0  0  0
 23 24  1  0  0  0  0
 25 22  1  0  0  0  0
 26 25  1  6  0  0  0
 26 29  1  0  0  0  0
 27 26  1  0  0  0  0
 27 28  1  0  0  0  0
 30 29  1  6  0  0  0
 30 32  1  0  0  0  0
 30 33  1  0  0  0  0
 31 32  1  0  0  0  0
 34 33  1  0  0  0  0
M  END
>  <MODEL>
5

>  <REMARK>
 VINA RESULT:      -6.2      3.643      9.518
  Name = 
  18 active torsions:
  status: ('A' for Active; 'I' for Inactive)
    1  A    between atoms: C_1  and  C_13
    2  A    between atoms: C_2  and  C_15
    3  A    between atoms: C_2  and  C_24
    4  A    between atoms: O_4  and  C_25
    5  A    between atoms: C_5  and  C_7
    6  A    between atoms: C_5  and  C_33
    7  A    between atoms: C_6  and  C_7
    8  A    between atoms: C_7  and  C_32
    9  A    between atoms: C_8  and  C_18
   10  A    between atoms: C_17  and  C_27
   11  A    between atoms: C_18  and  C_23
   12  A    between atoms: C_19  and  C_33
   13  A    between atoms: C_21  and  C_31
   14  A    between atoms: C_24  and  C_25
   15  A    between atoms: C_25  and  C_32
   16  A    between atoms: C_27  and  C_34
   17  A    between atoms: C_29  and  C_33
   18  A    between atoms: C_31  and  C_34
                            x       y       z     vdW  Elec       q    Type
                         _______ _______ _______ _____ _____    ______ ____

>  <TORSDO>
F 18

$$$$
=
 OpenBabel11072413143D

 34 34  0  0  1  0  0  0  0  0999 V2000
  160.8960  206.6820  148.9950 C   0  0  0  0  0  2  0  0  0  0  0  0
  162.1070  207.4690  149.4550 C   0  0  1  0  0  3  0  0  0  0  0  0
  161.6500  207.5520  148.0130 C   0  0  1  0  0  3  0  0  0  0  0  0
  162.5600  206.6860  147.1590 C   0  0  0  0  0  2  0  0  0  0  0  0
  161.9060  203.1430  146.9960 C   0  0  0  0  0  3  0  0  0  0  0  0
  161.8390  204.4130  146.6880 C   0  0  0  0  0  0  0  0  0  0  0  0
  161.7680  205.6810  146.3820 C   0  0  0  0  0  0  0  0  0  0  0  0
  161.2600  202.5790  148.1910 C   0  0  0  0  0  3  0  0  0  0  0  0
  161.0750  203.2760  149.3100 C   0  0  0  0  0  3  0  0  0  0  0  0
  160.3400  201.2920  150.3160 F   0  0  0  0  0  0  0  0  0  0  0  0
  160.4150  202.6610  150.5000 C   0  0  1  0  0  3  0  0  0  0  0  0
  161.1660  202.9700  151.7960 C   0  0  0  0  0  0  0  0  0  0  0  0
  162.1580  202.0290  152.0080 F   0  0  0  0  0  0  0  0  0  0  0  0
  161.7560  204.2300  151.7010 O   0  0  0  0  0  1  0  0  0  0  0  0
  160.2920  202.9600  152.8680 F   0  0  0  0  0  0  0  0  0  0  0  0
  159.5120  206.0430  145.7630 O   0  0  0  0  0  1  0  0  0  0  0  0
  160.8280  206.1190  145.3050 C   0  0  2  0  0  3  0  0  0  0  0  0
  160.9840  205.2670  144.0550 C   0  0  0  0  0  2  0  0  0  0  0  0
  160.1100  204.1810  144.1050 O   0  0  0  0  0  1  0  0  0  0  0  0
  161.6480  208.7220  150.1780 C   0  0  0  0  0  2  0  0  0  0  0  0
  162.3530  208.8600  151.5200 C   0  0  0  0  0  2  0  0  0  0  0  0
  161.3870  208.6910  152.6850 C   0  0  2  0  0  3  0  0  0  0  0  0
  160.8250  207.4130  152.6400 O   0  0  0  0  0  0  0  0  0  0  0  0
  160.9420  206.9240  153.9420 C   0  0  0  0  0  1  0  0  0  0  0  0
  160.2840  209.7380  152.6070 C   0  0  0  0  0  2  0  0  0  0  0  0
  160.2730  210.6260  153.8460 C   0  0  1  0  0  3  0  0  0  0  0  0
  161.6240  210.5770  154.5410 C   0  0  0  0  0  2  0  0  0  0  0  0
  161.4650  210.1830  155.8700 O   0  0  0  0  0  1  0  0  0  0  0  0
  159.9830  212.0630  153.4450 C   0  0  0  0  0  2  0  0  0  0  0  0
  158.6360  212.1730  152.7460 C   0  0  1  0  0  3  0  0  0  0  0  0
  156.9590  213.6060  153.6700 O   0  0  0  0  0  1  0  0  0  0  0  0
  157.5560  212.3510  153.8010 C   0  0  0  0  0  2  0  0  0  0  0  0
  158.6410  213.3590  151.7920 C   0  0  0  0  0  2  0  0  0  0  0  0
  159.8240  213.2760  150.8480 C   0  0  0  0  0  1  0  0  0  0  0  0
  1  2  1  0  0  0  0
  2 20  1  1  0  0  0
  3  4  1  6  0  0  0
  3  1  1  0  0  0  0
  3  2  1  0  0  0  0
  5  8  1  0  0  0  0
  6  5  2  0  0  0  0
  7  6  2  0  0  0  0
  7  4  1  0  0  0  0
  8  9  2  0  0  0  0
  9 11  1  0  0  0  0
 11 10  1  6  0  0  0
 11 12  1  0  0  0  0
 12 13  1  0  0  0  0
 12 15  1  0  0  0  0
 14 12  1  0  0  0  0
 17 16  1  1  0  0  0
 17  7  1  0  0  0  0
 18 19  1  0  0  0  0
 18 17  1  0  0  0  0
 20 21  1  0  0  0  0
 22 21  1  6  0  0  0
 23 22  1  0  0  0  0
 23 24  1  0  0  0  0
 25 22  1  0  0  0  0
 26 25  1  6  0  0  0
 26 27  1  0  0  0  0
 27 28  1  0  0  0  0
 29 26  1  0  0  0  0
 30 33  1  6  0  0  0
 30 29  1  0  0  0  0
 30 32  1  0  0  0  0
 31 32  1  0  0  0  0
 34 33  1  0  0  0  0
M  END
>  <MODEL>
6

>  <REMARK>
 VINA RESULT:      -6.1      3.539      9.618
  Name = 
  18 active torsions:
  status: ('A' for Active; 'I' for Inactive)
    1  A    between atoms: C_1  and  C_13
    2  A    between atoms: C_2  and  C_15
    3  A    between atoms: C_2  and  C_24
    4  A    between atoms: O_4  and  C_25
    5  A    between atoms: C_5  and  C_7
    6  A    between atoms: C_5  and  C_33
    7  A    between atoms: C_6  and  C_7
    8  A    between atoms: C_7  and  C_32
    9  A    between atoms: C_8  and  C_18
   10  A    between atoms: C_17  and  C_27
   11  A    between atoms: C_18  and  C_23
   12  A    between atoms: C_19  and  C_33
   13  A    between atoms: C_21  and  C_31
   14  A    between atoms: C_24  and  C_25
   15  A    between atoms: C_25  and  C_32
   16  A    between atoms: C_27  and  C_34
   17  A    between atoms: C_29  and  C_33
   18  A    between atoms: C_31  and  C_34
                            x       y       z     vdW  Elec       q    Type
                         _______ _______ _______ _____ _____    ______ ____

>  <TORSDO>
F 18

$$$$
=
 OpenBabel11072413143D

 34 34  0  0  1  0  0  0  0  0999 V2000
  161.0240  206.3060  147.9690 C   0  0  0  0  0  2  0  0  0  0  0  0
  162.3980  206.7480  148.4290 C   0  0  1  0  0  3  0  0  0  0  0  0
  162.1250  206.5290  146.9550 C   0  0  1  0  0  3  0  0  0  0  0  0
  162.7140  205.1920  146.5400 C   0  0  0  0  0  2  0  0  0  0  0  0
  161.3870  202.4430  148.4610 C   0  0  0  0  0  3  0  0  0  0  0  0
  161.5220  203.2880  147.4720 C   0  0  0  0  0  0  0  0  0  0  0  0
  161.6550  204.1340  146.4860 C   0  0  0  0  0  0  0  0  0  0  0  0
  160.8000  202.8210  149.7550 C   0  0  0  0  0  3  0  0  0  0  0  0
  161.2520  203.8380  150.4840 C   0  0  0  0  0  3  0  0  0  0  0  0
  160.8190  203.1380  152.6780 F   0  0  0  0  0  0  0  0  0  0  0  0
  160.6250  204.1850  151.7950 C   0  0  1  0  0  3  0  0  0  0  0  0
  161.2010  205.4740  152.3830 C   0  0  0  0  0  0  0  0  0  0  0  0
  160.4940  206.5690  151.9170 F   0  0  0  0  0  0  0  0  0  0  0  0
  161.1020  205.4340  153.7740 O   0  0  0  0  0  1  0  0  0  0  0  0
  162.5320  205.6080  152.0280 F   0  0  0  0  0  0  0  0  0  0  0  0
  160.4480  202.7570  144.9860 O   0  0  0  0  0  1  0  0  0  0  0  0
  160.6880  204.0830  145.3470 C   0  0  2  0  0  3  0  0  0  0  0  0
  161.2110  204.8530  144.1430 C   0  0  0  0  0  2  0  0  0  0  0  0
  160.7160  206.1580  144.1600 O   0  0  0  0  0  1  0  0  0  0  0  0
  162.3820  208.2410  148.7050 C   0  0  0  0  0  2  0  0  0  0  0  0
  161.9510  208.5210  150.1370 C   0  0  0  0  0  2  0  0  0  0  0  0
  161.7770  210.0130  150.3930 C   0  0  2  0  0  3  0  0  0  0  0  0
  162.7000  210.7250  149.6230 O   0  0  0  0  0  0  0  0  0  0  0  0
  161.9540  211.7360  149.0140 C   0  0  0  0  0  1  0  0  0  0  0  0
  161.9960  210.3190  151.8690 C   0  0  0  0  0  2  0  0  0  0  0  0
  160.7470  210.0160  152.6890 C   0  0  1  0  0  3  0  0  0  0  0  0
  161.0970  209.1310  153.8740 C   0  0  0  0  0  2  0  0  0  0  0  0
  161.7170  209.8860  154.8690 O   0  0  0  0  0  1  0  0  0  0  0  0
  160.1460  211.3120  153.2060 C   0  0  0  0  0  2  0  0  0  0  0  0
  158.6970  211.4550  152.7680 C   0  0  1  0  0  3  0  0  0  0  0  0
  158.3980  211.1080  155.1150 O   0  0  0  0  0  1  0  0  0  0  0  0
  157.8440  211.7310  153.9960 C   0  0  0  0  0  2  0  0  0  0  0  0
  158.5660  212.5960  151.7690 C   0  0  0  0  0  2  0  0  0  0  0  0
  158.9550  213.9120  152.4130 C   0  0  0  0  0  1  0  0  0  0  0  0
  1  2  1  0  0  0  0
  2 20  1  6  0  0  0
  3  4  1  1  0  0  0
  3  1  1  0  0  0  0
  3  2  1  0  0  0  0
  5  8  1  0  0  0  0
  6  5  2  0  0  0  0
  7  4  1  0  0  0  0
  7  6  2  0  0  0  0
  8  9  2  0  0  0  0
  9 11  1  0  0  0  0
 11 12  1  0  0  0  0
 11 10  1  1  0  0  0
 12 14  1  0  0  0  0
 13 12  1  0  0  0  0
 15 12  1  0  0  0  0
 17 16  1  6  0  0  0
 17  7  1  0  0  0  0
 18 19  1  0  0  0  0
 18 17  1  0  0  0  0
 20 21  1  0  0  0  0
 22 21  1  1  0  0  0
 22 25  1  0  0  0  0
 23 22  1  0  0  0  0
 24 23  1  0  0  0  0
 26 25  1  1  0  0  0
 26 29  1  0  0  0  0
 26 27  1  0  0  0  0
 27 28  1  0  0  0  0
 30 33  1  6  0  0  0
 30 29  1  0  0  0  0
 30 32  1  0  0  0  0
 32 31  1  0  0  0  0
 33 34  1  0  0  0  0
M  END
>  <MODEL>
7

>  <REMARK>
 VINA RESULT:      -6.0      2.768      8.974
  Name = 
  18 active torsions:
  status: ('A' for Active; 'I' for Inactive)
    1  A    between atoms: C_1  and  C_13
    2  A    between atoms: C_2  and  C_15
    3  A    between atoms: C_2  and  C_24
    4  A    between atoms: O_4  and  C_25
    5  A    between atoms: C_5  and  C_7
    6  A    between atoms: C_5  and  C_33
    7  A    between atoms: C_6  and  C_7
    8  A    between atoms: C_7  and  C_32
    9  A    between atoms: C_8  and  C_18
   10  A    between atoms: C_17  and  C_27
   11  A    between atoms: C_18  and  C_23
   12  A    between atoms: C_19  and  C_33
   13  A    between atoms: C_21  and  C_31
   14  A    between atoms: C_24  and  C_25
   15  A    between atoms: C_25  and  C_32
   16  A    between atoms: C_27  and  C_34
   17  A    between atoms: C_29  and  C_33
   18  A    between atoms: C_31  and  C_34
                            x       y       z     vdW  Elec       q    Type
                         _______ _______ _______ _____ _____    ______ ____

>  <TORSDO>
F 18

$$$$
=
 OpenBabel11072413143D

 34 34  0  0  1  0  0  0  0  0999 V2000
  161.6480  210.3690  150.9980 C   0  0  0  0  0  2  0  0  0  0  0  0
  160.8460  209.9230  152.2030 C   0  0  1  0  0  3  0  0  0  0  0  0
  161.8280  208.9720  151.5500 C   0  0  1  0  0  3  0  0  0  0  0  0
  161.0570  207.9810  150.6950 C   0  0  0  0  0  2  0  0  0  0  0  0
  160.6110  204.5810  149.5780 C   0  0  0  0  0  3  0  0  0  0  0  0
  160.9910  205.5770  150.3350 C   0  0  0  0  0  0  0  0  0  0  0  0
  161.3740  206.5720  151.0900 C   0  0  0  0  0  0  0  0  0  0  0  0
  161.2610  204.2610  148.2990 C   0  0  0  0  0  3  0  0  0  0  0  0
  161.2160  205.0700  147.2430 C   0  0  0  0  0  3  0  0  0  0  0  0
  161.9990  203.3250  145.8890 F   0  0  0  0  0  0  0  0  0  0  0  0
  161.8910  204.7030  145.9620 C   0  0  1  0  0  3  0  0  0  0  0  0
  161.1330  205.2300  144.7420 C   0  0  0  0  0  0  0  0  0  0  0  0
  160.4120  204.2060  144.1510 F   0  0  0  0  0  0  0  0  0  0  0  0
  160.2470  206.2290  145.1440 O   0  0  0  0  0  1  0  0  0  0  0  0
  162.0190  205.7540  143.8190 F   0  0  0  0  0  0  0  0  0  0  0  0
  163.2320  205.4090  151.9830 O   0  0  0  0  0  1  0  0  0  0  0  0
  162.2000  206.2900  152.3050 C   0  0  2  0  0  3  0  0  0  0  0  0
  161.3530  205.6990  153.4220 C   0  0  0  0  0  2  0  0  0  0  0  0
  160.5920  206.7010  154.0250 O   0  0  0  0  0  1  0  0  0  0  0  0
  161.4810  210.4790  153.4650 C   0  0  0  0  0  2  0  0  0  0  0  0
  160.5520  210.3090  154.6580 C   0  0  0  0  0  2  0  0  0  0  0  0
  161.1420  210.9160  155.9250 C   0  0  2  0  0  3  0  0  0  0  0  0
  161.0350  209.9970  156.9720 O   0  0  0  0  0  0  0  0  0  0  0  0
  162.2000  209.2310  156.8960 C   0  0  0  0  0  1  0  0  0  0  0  0
  160.3980  212.1950  156.2870 C   0  0  0  0  0  2  0  0  0  0  0  0
  158.9380  212.1280  155.8550 C   0  0  1  0  0  3  0  0  0  0  0  0
  158.0510  211.7990  157.0450 C   0  0  0  0  0  2  0  0  0  0  0  0
  156.7170  212.0650  156.7360 O   0  0  0  0  0  1  0  0  0  0  0  0
  158.5100  213.4690  155.2830 C   0  0  0  0  0  2  0  0  0  0  0  0
  157.9560  213.3100  153.8750 C   0  0  1  0  0  3  0  0  0  0  0  0
  155.6780  213.9760  153.5810 O   0  0  0  0  0  1  0  0  0  0  0  0
  156.9900  214.4510  153.6030 C   0  0  0  0  0  2  0  0  0  0  0  0
  159.0940  213.3300  152.8640 C   0  0  0  0  0  2  0  0  0  0  0  0
  158.6510  212.7090  151.5540 C   0  0  0  0  0  1  0  0  0  0  0  0
  1  3  1  0  0  0  0
  1  2  1  0  0  0  0
  2 20  1  1  0  0  0
  3  4  1  6  0  0  0
  3  2  1  0  0  0  0
  4  7  1  0  0  0  0
  5  6  2  0  0  0  0
  6  7  2  0  0  0  0
  7 17  1  0  0  0  0
  8  5  1  0  0  0  0
  9  8  2  0  0  0  0
 11 10  1  6  0  0  0
 11  9  1  0  0  0  0
 12 14  1  0  0  0  0
 12 11  1  0  0  0  0
 13 12  1  0  0  0  0
 15 12  1  0  0  0  0
 17 16  1  6  0  0  0
 17 18  1  0  0  0  0
 18 19  1  0  0  0  0
 20 21  1  0  0  0  0
 22 21  1  6  0  0  0
 22 25  1  0  0  0  0
 22 23  1  0  0  0  0
 24 23  1  0  0  0  0
 26 29  1  1  0  0  0
 26 25  1  0  0  0  0
 26 27  1  0  0  0  0
 28 27  1  0  0  0  0
 30 33  1  6  0  0  0
 30 29  1  0  0  0  0
 31 32  1  0  0  0  0
 32 30  1  0  0  0  0
 34 33  1  0  0  0  0
M  END
>  <MODEL>
8

>  <REMARK>
 VINA RESULT:      -5.6      4.132      9.610
  Name = 
  18 active torsions:
  status: ('A' for Active; 'I' for Inactive)
    1  A    between atoms: C_1  and  C_13
    2  A    between atoms: C_2  and  C_15
    3  A    between atoms: C_2  and  C_24
    4  A    between atoms: O_4  and  C_25
    5  A    between atoms: C_5  and  C_7
    6  A    between atoms: C_5  and  C_33
    7  A    between atoms: C_6  and  C_7
    8  A    between atoms: C_7  and  C_32
    9  A    between atoms: C_8  and  C_18
   10  A    between atoms: C_17  and  C_27
   11  A    between atoms: C_18  and  C_23
   12  A    between atoms: C_19  and  C_33
   13  A    between atoms: C_21  and  C_31
   14  A    between atoms: C_24  and  C_25
   15  A    between atoms: C_25  and  C_32
   16  A    between atoms: C_27  and  C_34
   17  A    between atoms: C_29  and  C_33
   18  A    between atoms: C_31  and  C_34
                            x       y       z     vdW  Elec       q    Type
                         _______ _______ _______ _____ _____    ______ ____

>  <TORSDO>
F 18

$$$$
=
 OpenBabel11072413143D

 34 34  0  0  1  0  0  0  0  0999 V2000
  161.9420  209.8110  152.8290 C   0  0  0  0  0  2  0  0  0  0  0  0
  161.3660  210.5760  151.6550 C   0  0  1  0  0  3  0  0  0  0  0  0
  161.0950  209.0930  151.8010 C   0  0  1  0  0  3  0  0  0  0  0  0
  161.9930  208.3330  150.8410 C   0  0  0  0  0  2  0  0  0  0  0  0
  160.5560  205.5400  149.0690 C   0  0  0  0  0  3  0  0  0  0  0  0
  161.1670  206.1990  150.0190 C   0  0  0  0  0  0  0  0  0  0  0  0
  161.7810  206.8560  150.9660 C   0  0  0  0  0  0  0  0  0  0  0  0
  161.1890  205.2370  147.7770 C   0  0  0  0  0  3  0  0  0  0  0  0
  161.6400  206.1800  146.9540 C   0  0  0  0  0  3  0  0  0  0  0  0
  163.2050  204.8220  145.8600 F   0  0  0  0  0  0  0  0  0  0  0  0
  162.2760  205.8250  145.6500 C   0  0  1  0  0  3  0  0  0  0  0  0
  161.2450  205.3690  144.6140 C   0  0  0  0  0  0  0  0  0  0  0  0
  161.1310  203.9900  144.6320 F   0  0  0  0  0  0  0  0  0  0  0  0
  160.0040  205.9270  144.9190 O   0  0  0  0  0  1  0  0  0  0  0  0
  161.6270  205.7780  143.3490 F   0  0  0  0  0  0  0  0  0  0  0  0
  162.4250  204.7460  151.8240 O   0  0  0  0  0  1  0  0  0  0  0  0
  162.3370  206.1030  152.1330 C   0  0  2  0  0  3  0  0  0  0  0  0
  161.4750  206.2910  153.3720 C   0  0  0  0  0  2  0  0  0  0  0  0
  160.9270  205.0680  153.7630 O   0  0  0  0  0  1  0  0  0  0  0  0
  160.1330  211.3380  152.1060 C   0  0  0  0  0  2  0  0  0  0  0  0
  160.0920  211.4510  153.6240 C   0  0  0  0  0  2  0  0  0  0  0  0
  158.6640  211.4520  154.1520 C   0  0  2  0  0  3  0  0  0  0  0  0
  158.0160  212.6170  153.7340 O   0  0  0  0  0  0  0  0  0  0  0  0
  156.7310  212.5250  154.2710 C   0  0  0  0  0  1  0  0  0  0  0  0
  158.6690  211.3870  155.6740 C   0  0  0  0  0  2  0  0  0  0  0  0
  160.0640  211.6380  156.2340 C   0  0  1  0  0  3  0  0  0  0  0  0
  160.1040  212.9670  156.9730 C   0  0  0  0  0  2  0  0  0  0  0  0
  159.5820  213.9790  156.1670 O   0  0  0  0  0  1  0  0  0  0  0  0
  160.4350  210.5290  157.2040 C   0  0  0  0  0  2  0  0  0  0  0  0
  161.2530  209.4490  156.5120 C   0  0  1  0  0  3  0  0  0  0  0  0
  163.2610  210.6980  156.1610 O   0  0  0  0  0  1  0  0  0  0  0  0
  162.7150  209.6370  156.8830 C   0  0  0  0  0  2  0  0  0  0  0  0
  160.7710  208.0720  156.9480 C   0  0  0  0  0  2  0  0  0  0  0  0
  159.6290  207.6060  156.0670 C   0  0  0  0  0  1  0  0  0  0  0  0
  2  3  1  0  0  0  0
  2 20  1  1  0  0  0
  2  1  1  0  0  0  0
  3  4  1  6  0  0  0
  3  1  1  0  0  0  0
  4  7  1  0  0  0  0
  5  6  2  0  0  0  0
  6  7  2  0  0  0  0
  7 17  1  0  0  0  0
  8  5  1  0  0  0  0
  9  8  2  0  0  0  0
 11 10  1  1  0  0  0
 11  9  1  0  0  0  0
 12 13  1  0  0  0  0
 12 14  1  0  0  0  0
 12 11  1  0  0  0  0
 15 12  1  0  0  0  0
 17 16  1  6  0  0  0
 17 18  1  0  0  0  0
 18 19  1  0  0  0  0
 20 21  1  0  0  0  0
 22 21  1  1  0  0  0
 22 25  1  0  0  0  0
 23 22  1  0  0  0  0
 23 24  1  0  0  0  0
 26 25  1  1  0  0  0
 26 27  1  0  0  0  0
 26 29  1  0  0  0  0
 28 27  1  0  0  0  0
 30 32  1  1  0  0  0
 30 33  1  0  0  0  0
 30 29  1  0  0  0  0
 31 32  1  0  0  0  0
 34 33  1  0  0  0  0
M  END
>  <MODEL>
9

>  <REMARK>
 VINA RESULT:      -5.6      4.153      9.172
  Name = 
  18 active torsions:
  status: ('A' for Active; 'I' for Inactive)
    1  A    between atoms: C_1  and  C_13
    2  A    between atoms: C_2  and  C_15
    3  A    between atoms: C_2  and  C_24
    4  A    between atoms: O_4  and  C_25
    5  A    between atoms: C_5  and  C_7
    6  A    between atoms: C_5  and  C_33
    7  A    between atoms: C_6  and  C_7
    8  A    between atoms: C_7  and  C_32
    9  A    between atoms: C_8  and  C_18
   10  A    between atoms: C_17  and  C_27
   11  A    between atoms: C_18  and  C_23
   12  A    between atoms: C_19  and  C_33
   13  A    between atoms: C_21  and  C_31
   14  A    between atoms: C_24  and  C_25
   15  A    between atoms: C_25  and  C_32
   16  A    between atoms: C_27  and  C_34
   17  A    between atoms: C_29  and  C_33
   18  A    between atoms: C_31  and  C_34
                            x       y       z     vdW  Elec       q    Type
                         _______ _______ _______ _____ _____    ______ ____

>  <TORSDO>
F 18

$$$$
