=
 OpenBabel11072410233D

 51 59  0  0  1  0  0  0  0  0999 V2000
  152.6980  209.5430  138.7730 N   0  0  0  0  0  0  0  0  0  0  0  0
  159.5180  211.2180  139.1330 C   0  0  2  0  0  3  0  0  0  0  0  0
  159.7380  214.1710  138.8760 C   0  0  0  0  0  2  0  0  0  0  0  0
  162.3690  206.4310  138.4760 C   0  0  2  0  0  0  0  0  0  0  0  0
  153.7740  213.9410  138.4620 C   0  0  0  0  0  2  0  0  0  0  0  0
  158.2720  212.1170  139.2330 C   0  0  0  0  0  2  0  0  0  0  0  0
  165.5540  211.9470  140.0650 C   0  0  0  0  0  1  0  0  0  0  0  0
  155.3390  213.9680  141.8090 C   0  0  0  0  0  0  0  0  0  0  0  0
  161.4550  207.5560  138.9220 C   0  0  1  0  0  3  0  0  0  0  0  0
  157.7710  214.4520  141.2690 C   0  0  1  0  0  3  0  0  0  0  0  0
  164.1960  212.2220  139.4630 C   0  0  2  0  0  3  0  0  0  0  0  0
  163.4100  206.8400  139.3200 O   0  0  0  0  0  0  0  0  0  0  0  0
  152.6990  210.4070  139.7440 C   0  0  0  0  0  3  0  0  0  0  0  0
  158.2170  209.8640  137.5590 O   0  0  0  0  0  0  0  0  0  0  0  0
  157.6650  208.0440  138.9970 C   0  0  1  0  0  3  0  0  0  0  0  0
  162.3890  210.4490  139.4390 C   0  0  2  0  0  3  0  0  0  0  0  0
  160.6250  211.8920  138.2800 C   0  0  1  0  0  3  0  0  0  0  0  0
  160.3280  207.0770  139.8290 C   0  0  0  0  0  2  0  0  0  0  0  0
  162.7610  206.5430  137.0120 C   0  0  0  0  0  1  0  0  0  0  0  0
  152.9420  212.6500  138.4890 C   0  0  0  0  0  2  0  0  0  0  0  0
  160.9600  213.2730  138.8630 C   0  0  0  0  0  2  0  0  0  0  0  0
  154.1090  212.1520  140.6280 C   0  0  0  0  0  3  0  0  0  0  0  0
  161.9260  211.0670  138.0760 C   0  0  1  0  0  0  0  0  0  0  0  0
  158.6260  213.5330  139.6990 C   0  0  1  0  0  0  0  0  0  0  0  0
  154.8210  213.4640  140.5000 C   0  0  1  0  0  3  0  0  0  0  0  0
  158.8740  213.5910  141.0810 O   0  0  0  0  0  0  0  0  0  0  0  0
  153.9820  214.4470  139.8200 N   0  0  0  0  0  2  0  0  0  0  0  0
  163.1170  211.4970  140.2760 C   0  0  0  0  0  2  0  0  0  0  0  0
  156.5830  207.4470  139.8890 C   0  0  0  0  0  1  0  0  0  0  0  0
  157.4340  214.4330  139.7920 C   0  0  0  0  0  2  0  0  0  0  0  0
  161.9260  205.1410  138.7950 O   0  0  0  0  0  1  0  0  0  0  0  0
  155.6630  210.0140  139.3610 F   0  0  0  0  0  0  0  0  0  0  0  0
  154.5110  207.6690  137.9670 F   0  0  0  0  0  0  0  0  0  0  0  0
  157.1990  208.9210  137.8310 C   0  0  1  0  0  3  0  0  0  0  0  0
  164.1810  211.8160  137.9930 C   0  0  0  0  0  2  0  0  0  0  0  0
  154.6790  208.9300  137.4260 C   0  0  2  0  0  3  0  0  0  0  0  0
  163.2960  209.2270  139.2530 C   0  0  0  0  0  2  0  0  0  0  0  0
  154.5000  214.3660  142.7170 N   0  0  0  0  0  2  0  0  0  0  0  0
  162.8810  211.9330  137.4500 O   0  0  0  0  0  0  0  0  0  0  0  0
  159.6460  208.2370  140.5610 C   0  0  0  0  0  2  0  0  0  0  0  0
  158.5740  208.9630  139.7420 C   0  0  1  0  0  3  0  0  0  0  0  0
  161.6360  210.0320  137.1790 O   0  0  0  0  0  1  0  0  0  0  0  0
  153.3120  211.7360  139.6400 C   0  0  0  0  0  0  0  0  0  0  0  0
  156.7480  213.8140  142.1260 N   0  0  0  0  0  0  0  0  0  0  0  0
  159.1420  209.8160  138.6300 C   0  0  2  0  0  3  0  0  0  0  0  0
  155.8690  209.6700  138.0380 C   0  0  1  0  0  3  0  0  0  0  0  0
  162.6500  207.9450  139.7640 C   0  0  1  0  0  3  0  0  0  0  0  0
  153.3770  209.7350  137.4900 C   0  0  0  0  0  2  0  0  0  0  0  0
  157.0950  213.5590  143.5290 C   0  0  0  0  0  3  0  0  0  0  0  0
  158.2380  214.4460  143.9980 C   0  0  0  0  0  2  0  0  0  0  0  0
  158.5110  213.0150  143.6090 C   0  0  0  0  0  2  0  0  0  0  0  0
  1 13  2  0  0  0  0
  2  6  1  6  0  0  0
  4 19  1  6  0  0  0
  4 31  1  0  0  0  0
  4  9  1  0  0  0  0
  4 12  1  0  0  0  0
  5 20  1  0  0  0  0
  5 27  1  0  0  0  0
  6 24  1  0  0  0  0
  8 44  1  0  0  0  0
  8 38  2  0  0  0  0
  9 47  1  0  0  0  0
  9 18  1  1  0  0  0
 10 30  1  6  0  0  0
 10 44  1  0  0  0  0
 11  7  1  1  0  0  0
 11 28  1  0  0  0  0
 12 47  1  0  0  0  0
 15 41  1  0  0  0  0
 15 29  1  1  0  0  0
 16 37  1  6  0  0  0
 16 28  1  0  0  0  0
 17 21  1  1  0  0  0
 17  2  1  0  0  0  0
 18 40  1  0  0  0  0
 20 43  1  0  0  0  0
 21  3  1  0  0  0  0
 23 42  1  6  0  0  0
 23 17  1  0  0  0  0
 23 16  1  0  0  0  0
 24  3  1  6  0  0  0
 24 30  1  0  0  0  0
 24 26  1  0  0  0  0
 25 22  1  1  0  0  0
 25  8  1  0  0  0  0
 26 10  1  0  0  0  0
 27 25  1  0  0  0  0
 34 14  1  1  0  0  0
 34 46  1  0  0  0  0
 34 15  1  0  0  0  0
 35 11  1  0  0  0  0
 36 48  1  0  0  0  0
 36 33  1  1  0  0  0
 36 46  1  0  0  0  0
 39 35  1  0  0  0  0
 39 23  1  0  0  0  0
 41 40  1  6  0  0  0
 43 13  1  0  0  0  0
 43 22  2  0  0  0  0
 44 49  1  0  0  0  0
 45 14  1  6  0  0  0
 45  2  1  0  0  0  0
 45 41  1  0  0  0  0
 46 32  1  1  0  0  0
 47 37  1  6  0  0  0
 48  1  1  0  0  0  0
 49 51  1  0  0  0  0
 49 50  1  0  0  0  0
 51 50  1  0  0  0  0
M  END
>  <MODEL>
1

>  <REMARK>
 VINA RESULT:      30.6      0.000      0.000
  Name = 
  1 active torsions:
  status: ('A' for Active; 'I' for Inactive)
    1  A    between atoms: C_38  and  N_47
                            x       y       z     vdW  Elec       q    Type
                         _______ _______ _______ _____ _____    ______ ____

>  <TORSDO>
F 1

$$$$
