=
 OpenBabel11072411133D

 30 35  0  0  1  0  0  0  0  0999 V2000
  161.8910  211.4300  147.9680 N   0  0  0  0  0  0  0  0  0  0  0  0
  160.3450  209.7950  152.9010 C   0  0  1  0  0  3  0  0  0  0  0  0
  160.6940  211.3410  151.1450 C   0  0  1  0  0  3  0  0  0  0  0  0
  161.9510  209.5480  149.5160 C   0  0  0  0  0  3  0  0  0  0  0  0
  161.0500  209.0980  153.9610 N   0  0  0  0  0  1  0  0  0  0  0  0
  160.2560  212.1770  152.3340 C   0  0  2  0  0  3  0  0  0  0  0  0
  159.8840  211.1630  153.4000 C   0  0  1  0  0  3  0  0  0  0  0  0
  158.4330  211.1800  153.5180 N   0  0  0  0  0  2  0  0  0  0  0  0
  158.0040  212.4370  153.0530 N   0  0  0  0  0  2  0  0  0  0  0  0
  160.6390  213.1790  146.9130 N   0  0  0  0  0  2  0  0  0  0  0  0
  162.2920  211.0200  149.2980 C   0  0  2  0  0  3  0  0  0  0  0  0
  161.1870  212.4980  148.0500 C   0  0  0  0  0  0  0  0  0  0  0  0
  160.9780  212.9570  149.4350 C   0  0  0  0  0  2  0  0  0  0  0  0
  161.6860  211.9860  150.2730 N   0  0  1  0  0  0  0  0  0  0  0  0
  161.4830  209.1050  150.6970 C   0  0  0  0  0  0  0  0  0  0  0  0
  161.2990  210.1230  151.7790 C   0  0  2  0  0  3  0  0  0  0  0  0
  158.9480  212.8540  152.0280 C   0  0  0  0  0  2  0  0  0  0  0  0
  158.9600  212.9140  143.9340 C   0  0  0  0  0  2  0  0  0  0  0  0
  161.0840  212.7250  142.5580 C   0  0  0  0  0  2  0  0  0  0  0  0
  162.0420  213.0590  144.8630 C   0  0  0  0  0  3  0  0  0  0  0  0
  160.8090  212.8060  145.5650 N   0  0  0  0  0  0  0  0  0  0  0  0
  162.1840  213.0240  143.5320 C   0  0  0  0  0  3  0  0  0  0  0  0
  159.7280  212.0540  144.9390 C   0  0  0  0  0  2  0  0  0  0  0  0
  159.8510  213.5660  142.8700 C   0  0  0  0  0  2  0  0  0  0  0  0
  161.1510  207.6550  150.9120 C   0  0  1  0  0  3  0  0  0  0  0  0
  160.6570  205.4710  149.8650 C   0  0  0  0  0  2  0  0  0  0  0  0
  161.8870  205.5650  151.7520 C   0  0  0  0  0  2  0  0  0  0  0  0
  160.8330  206.9620  149.5880 C   0  0  0  0  0  2  0  0  0  0  0  0
  162.2490  206.9740  151.6020 N   0  0  0  0  0  2  0  0  0  0  0  0
  161.8100  204.9570  150.4870 O   0  0  0  0  0  0  0  0  0  0  0  0
  1 12  2  0  0  0  0
  1 11  1  0  0  0  0
  2  7  1  0  0  0  0
  2  5  1  1  0  0  0
  3 16  1  0  0  0  0
  3  6  1  0  0  0  0
  4 15  2  0  0  0  0
  6  7  1  0  0  0  0
  7  8  1  0  0  0  0
  9  8  1  0  0  0  0
 10 12  1  0  0  0  0
 11  4  1  0  0  0  0
 11 14  1  0  0  0  0
 12 13  1  0  0  0  0
 13 14  1  0  0  0  0
 14  3  1  0  0  0  0
 15 25  1  0  0  0  0
 15 16  1  0  0  0  0
 16  2  1  0  0  0  0
 17  6  1  0  0  0  0
 17  9  1  0  0  0  0
 18 23  1  0  0  0  0
 19 24  1  0  0  0  0
 19 22  1  0  0  0  0
 20 21  1  0  0  0  0
 21 10  1  0  0  0  0
 22 20  2  0  0  0  0
 23 21  1  0  0  0  0
 24 18  1  0  0  0  0
 25 29  1  0  0  0  0
 26 30  1  0  0  0  0
 28 26  1  0  0  0  0
 28 25  1  0  0  0  0
 29 27  1  0  0  0  0
 30 27  1  0  0  0  0
M  END
>  <MODEL>
1

>  <REMARK>
 VINA RESULT:      -6.3      0.000      0.000
  Name = 
  2 active torsions:
  status: ('A' for Active; 'I' for Inactive)
    1  A    between atoms: C_2  and  C_27
    2  A    between atoms: N_14  and  N_21
                            x       y       z     vdW  Elec       q    Type
                         _______ _______ _______ _____ _____    ______ ____

>  <TORSDO>
F 2

$$$$
=
 OpenBabel11072411133D

 30 35  0  0  1  0  0  0  0  0999 V2000
  161.9850  207.7170  150.3940 N   0  0  0  0  0  0  0  0  0  0  0  0
  160.3050  211.4240  153.9760 C   0  0  1  0  0  3  0  0  0  0  0  0
  160.9640  210.6070  151.8560 C   0  0  1  0  0  3  0  0  0  0  0  0
  161.6210  208.1210  152.7690 C   0  0  0  0  0  3  0  0  0  0  0  0
  160.8500  211.8700  155.2440 N   0  0  0  0  0  1  0  0  0  0  0  0
  160.8200  212.1080  151.6800 C   0  0  2  0  0  3  0  0  0  0  0  0
  160.2460  212.5960  152.9980 C   0  0  1  0  0  3  0  0  0  0  0  0
  158.8590  212.9610  152.7500 N   0  0  0  0  0  2  0  0  0  0  0  0
  158.7550  213.2480  151.3760 N   0  0  0  0  0  2  0  0  0  0  0  0
  161.1900  207.8820  148.1390 N   0  0  0  0  0  2  0  0  0  0  0  0
  162.3280  208.5880  151.4990 C   0  0  2  0  0  3  0  0  0  0  0  0
  161.5940  208.4300  149.4020 C   0  0  0  0  0  0  0  0  0  0  0  0
  161.5800  209.8760  149.6880 C   0  0  0  0  0  2  0  0  0  0  0  0
  162.0470  209.9980  151.0720 N   0  0  1  0  0  0  0  0  0  0  0  0
  161.1110  209.0000  153.6500 C   0  0  0  0  0  0  0  0  0  0  0  0
  161.2560  210.4540  153.3190 C   0  0  2  0  0  3  0  0  0  0  0  0
  159.7250  212.4050  150.6940 C   0  0  0  0  0  2  0  0  0  0  0  0
  162.3090  205.6810  145.7580 C   0  0  0  0  0  2  0  0  0  0  0  0
  161.9020  203.6390  147.2100 C   0  0  0  0  0  2  0  0  0  0  0  0
  161.2540  205.4850  148.7970 C   0  0  0  0  0  3  0  0  0  0  0  0
  161.1890  206.5160  147.7920 N   0  0  0  0  0  0  0  0  0  0  0  0
  161.5640  204.2040  148.5570 C   0  0  0  0  0  3  0  0  0  0  0  0
  161.0080  206.1850  146.3840 C   0  0  0  0  0  2  0  0  0  0  0  0
  162.9440  204.5070  146.5120 C   0  0  0  0  0  2  0  0  0  0  0  0
  160.4180  208.5400  154.9030 C   0  0  1  0  0  3  0  0  0  0  0  0
  159.5370  206.6240  156.1910 C   0  0  0  0  0  2  0  0  0  0  0  0
  160.5300  208.3420  157.2610 C   0  0  0  0  0  2  0  0  0  0  0  0
  160.0950  207.0480  154.8350 C   0  0  0  0  0  2  0  0  0  0  0  0
  161.2340  208.8420  156.0800 N   0  0  0  0  0  2  0  0  0  0  0  0
  160.4540  206.9390  157.2110 O   0  0  0  0  0  0  0  0  0  0  0  0
  1 11  1  0  0  0  0
  2  5  1  1  0  0  0
  3 16  1  0  0  0  0
  4 15  2  0  0  0  0
  6  3  1  0  0  0  0
  6  7  1  0  0  0  0
  7  2  1  0  0  0  0
  8  7  1  0  0  0  0
  9  8  1  0  0  0  0
 10 12  1  0  0  0  0
 11  4  1  0  0  0  0
 12 13  1  0  0  0  0
 12  1  2  0  0  0  0
 13 14  1  0  0  0  0
 14 11  1  0  0  0  0
 14  3  1  0  0  0  0
 15 25  1  0  0  0  0
 16 15  1  0  0  0  0
 16  2  1  0  0  0  0
 17  9  1  0  0  0  0
 17  6  1  0  0  0  0
 18 23  1  0  0  0  0
 18 24  1  0  0  0  0
 19 22  1  0  0  0  0
 21 10  1  0  0  0  0
 21 20  1  0  0  0  0
 22 20  2  0  0  0  0
 23 21  1  0  0  0  0
 24 19  1  0  0  0  0
 25 29  1  0  0  0  0
 26 30  1  0  0  0  0
 28 25  1  0  0  0  0
 28 26  1  0  0  0  0
 29 27  1  0  0  0  0
 30 27  1  0  0  0  0
M  END
>  <MODEL>
2

>  <REMARK>
 VINA RESULT:      -5.9      3.874      5.432
  Name = 
  2 active torsions:
  status: ('A' for Active; 'I' for Inactive)
    1  A    between atoms: C_2  and  C_27
    2  A    between atoms: N_14  and  N_21
                            x       y       z     vdW  Elec       q    Type
                         _______ _______ _______ _____ _____    ______ ____

>  <TORSDO>
F 2

$$$$
=
 OpenBabel11072411133D

 30 35  0  0  1  0  0  0  0  0999 V2000
  161.3560  208.7410  152.6670 N   0  0  0  0  0  0  0  0  0  0  0  0
  158.5240  213.2910  153.4820 C   0  0  1  0  0  3  0  0  0  0  0  0
  160.0090  211.8420  152.3470 C   0  0  1  0  0  3  0  0  0  0  0  0
  159.9840  209.9290  154.2930 C   0  0  0  0  0  3  0  0  0  0  0  0
  158.4660  214.2150  154.6000 N   0  0  0  0  0  1  0  0  0  0  0  0
  160.0770  213.1570  151.5930 C   0  0  2  0  0  3  0  0  0  0  0  0
  159.0070  214.0230  152.2320 C   0  0  1  0  0  3  0  0  0  0  0  0
  157.9170  214.1310  151.2730 N   0  0  0  0  0  2  0  0  0  0  0  0
  158.4710  213.8940  150.0010 N   0  0  0  0  0  2  0  0  0  0  0  0
  161.6890  208.0050  150.4100 N   0  0  0  0  0  2  0  0  0  0  0  0
  161.2250  209.9800  153.4050 C   0  0  2  0  0  3  0  0  0  0  0  0
  161.5150  209.0070  151.4230 C   0  0  0  0  0  0  0  0  0  0  0  0
  161.4850  210.4500  151.1230 C   0  0  0  0  0  2  0  0  0  0  0  0
  161.2790  211.1070  152.4170 N   0  0  1  0  0  0  0  0  0  0  0  0
  159.1990  211.0080  154.4620 C   0  0  0  0  0  0  0  0  0  0  0  0
  159.5910  212.2530  153.7280 C   0  0  2  0  0  3  0  0  0  0  0  0
  159.5770  212.9670  150.1880 C   0  0  0  0  0  2  0  0  0  0  0  0
  161.8560  205.6410  152.8900 C   0  0  0  0  0  2  0  0  0  0  0  0
  161.1760  203.7370  151.3550 C   0  0  0  0  0  2  0  0  0  0  0  0
  161.0220  205.6950  149.7770 C   0  0  0  0  0  3  0  0  0  0  0  0
  161.7400  206.6140  150.6250 N   0  0  0  0  0  0  0  0  0  0  0  0
  160.7660  204.4160  150.0820 C   0  0  0  0  0  3  0  0  0  0  0  0
  162.6360  206.1310  151.6690 C   0  0  0  0  0  2  0  0  0  0  0  0
  160.7920  204.5880  152.5620 C   0  0  0  0  0  2  0  0  0  0  0  0
  157.9800  210.9580  155.3400 C   0  0  1  0  0  3  0  0  0  0  0  0
  156.7750  211.9430  157.2600 C   0  0  0  0  0  2  0  0  0  0  0  0
  155.6270  211.2040  155.4660 C   0  0  0  0  0  2  0  0  0  0  0  0
  158.1030  211.9390  156.5050 C   0  0  0  0  0  2  0  0  0  0  0  0
  156.7730  211.2300  154.5580 N   0  0  0  0  0  2  0  0  0  0  0  0
  155.7230  212.2660  156.3830 O   0  0  0  0  0  0  0  0  0  0  0  0
  1 11  1  0  0  0  0
  2 16  1  0  0  0  0
  2  5  1  1  0  0  0
  3 14  1  0  0  0  0
  3 16  1  0  0  0  0
  4 15  2  0  0  0  0
  6  7  1  0  0  0  0
  6  3  1  0  0  0  0
  7  2  1  0  0  0  0
  8  7  1  0  0  0  0
  9 17  1  0  0  0  0
  9  8  1  0  0  0  0
 10 21  1  0  0  0  0
 10 12  1  0  0  0  0
 11  4  1  0  0  0  0
 12  1  2  0  0  0  0
 13 12  1  0  0  0  0
 13 14  1  0  0  0  0
 14 11  1  0  0  0  0
 15 25  1  0  0  0  0
 16 15  1  0  0  0  0
 17  6  1  0  0  0  0
 19 24  1  0  0  0  0
 20 22  2  0  0  0  0
 20 21  1  0  0  0  0
 21 23  1  0  0  0  0
 22 19  1  0  0  0  0
 23 18  1  0  0  0  0
 24 18  1  0  0  0  0
 25 28  1  0  0  0  0
 27 30  1  0  0  0  0
 28 26  1  0  0  0  0
 29 25  1  0  0  0  0
 29 27  1  0  0  0  0
 30 26  1  0  0  0  0
M  END
>  <MODEL>
3

>  <REMARK>
 VINA RESULT:      -5.7      4.079      7.320
  Name = 
  2 active torsions:
  status: ('A' for Active; 'I' for Inactive)
    1  A    between atoms: C_2  and  C_27
    2  A    between atoms: N_14  and  N_21
                            x       y       z     vdW  Elec       q    Type
                         _______ _______ _______ _____ _____    ______ ____

>  <TORSDO>
F 2

$$$$
=
 OpenBabel11072411133D

 30 35  0  0  1  0  0  0  0  0999 V2000
  161.9560  210.3100  148.5680 N   0  0  0  0  0  0  0  0  0  0  0  0
  161.0550  207.6730  153.2190 C   0  0  1  0  0  3  0  0  0  0  0  0
  161.4080  209.5590  151.8340 C   0  0  1  0  0  3  0  0  0  0  0  0
  161.8750  208.0940  149.5790 C   0  0  0  0  0  3  0  0  0  0  0  0
  161.7700  206.5980  153.8830 N   0  0  0  0  0  1  0  0  0  0  0  0
  161.4130  210.0970  153.2530 C   0  0  2  0  0  3  0  0  0  0  0  0
  161.0300  208.9090  154.1160 C   0  0  1  0  0  3  0  0  0  0  0  0
  159.6730  209.1460  154.5890 N   0  0  0  0  0  2  0  0  0  0  0  0
  159.4660  210.5360  154.5460 N   0  0  0  0  0  2  0  0  0  0  0  0
  160.9650  212.4740  148.2840 N   0  0  0  0  0  2  0  0  0  0  0  0
  162.5000  209.4860  149.6280 C   0  0  2  0  0  3  0  0  0  0  0  0
  161.5490  211.4200  149.0640 C   0  0  0  0  0  0  0  0  0  0  0  0
  161.7230  211.5080  150.5250 C   0  0  0  0  0  2  0  0  0  0  0  0
  162.3350  210.2350  150.9160 N   0  0  1  0  0  0  0  0  0  0  0  0
  161.5540  207.4310  150.7040 C   0  0  0  0  0  0  0  0  0  0  0  0
  161.8240  208.1270  152.0020 C   0  0  2  0  0  3  0  0  0  0  0  0
  160.2660  211.0490  153.4430 C   0  0  0  0  0  2  0  0  0  0  0  0
  158.5740  212.8670  145.8560 C   0  0  0  0  0  2  0  0  0  0  0  0
  160.2720  213.1600  143.9930 C   0  0  0  0  0  2  0  0  0  0  0  0
  161.7930  212.9590  145.9910 C   0  0  0  0  0  3  0  0  0  0  0  0
  160.7800  212.4630  146.8880 N   0  0  0  0  0  0  0  0  0  0  0  0
  161.5870  213.2690  144.7040 C   0  0  0  0  0  3  0  0  0  0  0  0
  159.5690  211.8290  146.3790 C   0  0  0  0  0  2  0  0  0  0  0  0
  159.1660  213.8180  144.8110 C   0  0  0  0  0  2  0  0  0  0  0  0
  160.9420  206.0580  150.6560 C   0  0  1  0  0  3  0  0  0  0  0  0
  160.4490  204.0640  149.2820 C   0  0  0  0  0  2  0  0  0  0  0  0
  161.0350  203.8270  151.4460 C   0  0  0  0  0  2  0  0  0  0  0  0
  160.9390  205.5090  149.2300 C   0  0  0  0  0  2  0  0  0  0  0  0
  161.6480  205.1500  151.5610 N   0  0  0  0  0  2  0  0  0  0  0  0
  161.2550  203.3110  150.1560 O   0  0  0  0  0  0  0  0  0  0  0  0
  1 12  2  0  0  0  0
  1 11  1  0  0  0  0
  2  5  1  1  0  0  0
  2  7  1  0  0  0  0
  3 16  1  0  0  0  0
  3  6  1  0  0  0  0
  4 11  1  0  0  0  0
  4 15  2  0  0  0  0
  6 17  1  0  0  0  0
  6  7  1  0  0  0  0
  7  8  1  0  0  0  0
  9  8  1  0  0  0  0
 10 12  1  0  0  0  0
 11 14  1  0  0  0  0
 12 13  1  0  0  0  0
 13 14  1  0  0  0  0
 14  3  1  0  0  0  0
 15 16  1  0  0  0  0
 16  2  1  0  0  0  0
 17  9  1  0  0  0  0
 18 23  1  0  0  0  0
 19 22  1  0  0  0  0
 19 24  1  0  0  0  0
 20 21  1  0  0  0  0
 21 10  1  0  0  0  0
 22 20  2  0  0  0  0
 23 21  1  0  0  0  0
 24 18  1  0  0  0  0
 25 15  1  0  0  0  0
 25 29  1  0  0  0  0
 26 30  1  0  0  0  0
 27 29  1  0  0  0  0
 28 26  1  0  0  0  0
 28 25  1  0  0  0  0
 30 27  1  0  0  0  0
M  END
>  <MODEL>
4

>  <REMARK>
 VINA RESULT:      -5.7      1.455      1.943
  Name = 
  2 active torsions:
  status: ('A' for Active; 'I' for Inactive)
    1  A    between atoms: C_2  and  C_27
    2  A    between atoms: N_14  and  N_21
                            x       y       z     vdW  Elec       q    Type
                         _______ _______ _______ _____ _____    ______ ____

>  <TORSDO>
F 2

$$$$
=
 OpenBabel11072411133D

 30 35  0  0  1  0  0  0  0  0999 V2000
  161.2950  211.0820  150.6290 N   0  0  0  0  0  0  0  0  0  0  0  0
  160.8720  206.6580  153.7340 C   0  0  1  0  0  3  0  0  0  0  0  0
  160.9620  208.9760  153.2730 C   0  0  1  0  0  3  0  0  0  0  0  0
  161.4940  208.6540  150.6150 C   0  0  0  0  0  3  0  0  0  0  0  0
  161.7240  205.4930  153.8910 N   0  0  0  0  0  1  0  0  0  0  0  0
  160.9670  208.8680  154.7860 C   0  0  2  0  0  3  0  0  0  0  0  0
  160.7480  207.3920  155.0670 C   0  0  1  0  0  3  0  0  0  0  0  0
  159.3950  207.2520  155.5830 N   0  0  0  0  0  2  0  0  0  0  0  0
  159.0370  208.5000  156.1260 N   0  0  0  0  0  2  0  0  0  0  0  0
  160.0660  213.0360  151.2720 N   0  0  0  0  0  2  0  0  0  0  0  0
  161.9660  209.9590  151.2500 C   0  0  2  0  0  3  0  0  0  0  0  0
  160.7910  211.8280  151.5420 C   0  0  0  0  0  0  0  0  0  0  0  0
  161.0130  211.3160  152.9060 C   0  0  0  0  0  2  0  0  0  0  0  0
  161.7740  210.0760  152.7320 N   0  0  1  0  0  0  0  0  0  0  0  0
  161.2920  207.5480  151.3550 C   0  0  0  0  0  0  0  0  0  0  0  0
  161.5380  207.6630  152.8270 C   0  0  2  0  0  3  0  0  0  0  0  0
  159.7310  209.5150  155.3480 C   0  0  0  0  0  2  0  0  0  0  0  0
  161.5840  213.7050  148.2700 C   0  0  0  0  0  2  0  0  0  0  0  0
  159.3900  214.0810  147.0500 C   0  0  0  0  0  2  0  0  0  0  0  0
  158.5550  213.4360  149.3380 C   0  0  0  0  0  3  0  0  0  0  0  0
  159.8270  213.5900  149.9990 N   0  0  0  0  0  0  0  0  0  0  0  0
  158.3420  213.6530  148.0330 C   0  0  0  0  0  3  0  0  0  0  0  0
  160.8790  214.4200  149.4230 C   0  0  0  0  0  2  0  0  0  0  0  0
  160.6310  213.2050  147.1780 C   0  0  0  0  0  2  0  0  0  0  0  0
  160.8310  206.2620  150.7290 C   0  0  1  0  0  3  0  0  0  0  0  0
  160.4660  204.9960  148.6380 C   0  0  0  0  0  2  0  0  0  0  0  0
  161.2170  203.9380  150.4800 C   0  0  0  0  0  2  0  0  0  0  0  0
  160.7930  206.3750  149.2050 C   0  0  0  0  0  2  0  0  0  0  0  0
  161.6900  205.1510  151.1450 N   0  0  0  0  0  2  0  0  0  0  0  0
  161.4050  204.0520  149.0920 O   0  0  0  0  0  0  0  0  0  0  0  0
  1 11  1  0  0  0  0
  1 12  2  0  0  0  0
  2  5  1  1  0  0  0
  2  7  1  0  0  0  0
  3  6  1  0  0  0  0
  4 11  1  0  0  0  0
  4 15  2  0  0  0  0
  6  7  1  0  0  0  0
  6 17  1  0  0  0  0
  7  8  1  0  0  0  0
  8  9  1  0  0  0  0
 10 12  1  0  0  0  0
 11 14  1  0  0  0  0
 12 13  1  0  0  0  0
 14 13  1  0  0  0  0
 14  3  1  0  0  0  0
 15 16  1  0  0  0  0
 16  3  1  0  0  0  0
 16  2  1  0  0  0  0
 17  9  1  0  0  0  0
 18 23  1  0  0  0  0
 19 24  1  0  0  0  0
 19 22  1  0  0  0  0
 20 21  1  0  0  0  0
 21 10  1  0  0  0  0
 22 20  2  0  0  0  0
 23 21  1  0  0  0  0
 24 18  1  0  0  0  0
 25 29  1  0  0  0  0
 25 15  1  0  0  0  0
 26 30  1  0  0  0  0
 26 28  1  0  0  0  0
 27 29  1  0  0  0  0
 28 25  1  0  0  0  0
 30 27  1  0  0  0  0
M  END
>  <MODEL>
5

>  <REMARK>
 VINA RESULT:      -5.6      2.420      3.755
  Name = 
  2 active torsions:
  status: ('A' for Active; 'I' for Inactive)
    1  A    between atoms: C_2  and  C_27
    2  A    between atoms: N_14  and  N_21
                            x       y       z     vdW  Elec       q    Type
                         _______ _______ _______ _____ _____    ______ ____

>  <TORSDO>
F 2

$$$$
=
 OpenBabel11072411133D

 30 35  0  0  1  0  0  0  0  0999 V2000
  161.4480  208.0520  151.4810 N   0  0  0  0  0  0  0  0  0  0  0  0
  160.2270  213.2230  150.3990 C   0  0  1  0  0  3  0  0  0  0  0  0
  161.1940  211.1000  150.0050 C   0  0  1  0  0  3  0  0  0  0  0  0
  160.4870  210.0780  152.4350 C   0  0  0  0  0  3  0  0  0  0  0  0
  160.4380  214.4490  151.1460 N   0  0  0  0  0  1  0  0  0  0  0  0
  161.7110  211.9900  148.8890 C   0  0  2  0  0  3  0  0  0  0  0  0
  160.9620  213.2980  149.0620 C   0  0  1  0  0  3  0  0  0  0  0  0
  159.9970  213.3830  147.9760 N   0  0  0  0  0  2  0  0  0  0  0  0
  160.4840  212.5690  146.9370 N   0  0  0  0  0  2  0  0  0  0  0  0
  161.5930  206.5170  149.6470 N   0  0  0  0  0  2  0  0  0  0  0  0
  161.7040  209.4500  151.7610 C   0  0  2  0  0  3  0  0  0  0  0  0
  161.7230  207.8110  150.2530 C   0  0  0  0  0  0  0  0  0  0  0  0
  162.1740  209.0010  149.5090 C   0  0  0  0  0  2  0  0  0  0  0  0
  162.1530  210.0950  150.4840 N   0  0  1  0  0  0  0  0  0  0  0  0
  160.0910  211.3300  152.1400 C   0  0  0  0  0  0  0  0  0  0  0  0
  160.8900  212.0680  151.1110 C   0  0  2  0  0  3  0  0  0  0  0  0
  161.2210  211.4810  147.5620 C   0  0  0  0  0  2  0  0  0  0  0  0
  160.8180  203.2250  149.0740 C   0  0  0  0  0  2  0  0  0  0  0  0
  160.9770  202.5840  151.5250 C   0  0  0  0  0  2  0  0  0  0  0  0
  161.6340  205.0140  151.6280 C   0  0  0  0  0  3  0  0  0  0  0  0
  161.1820  205.3370  150.2980 N   0  0  0  0  0  0  0  0  0  0  0  0
  161.5480  203.8010  152.1890 C   0  0  0  0  0  3  0  0  0  0  0  0
  160.1920  204.5100  149.6180 C   0  0  0  0  0  2  0  0  0  0  0  0
  161.5710  202.4090  150.1310 C   0  0  0  0  0  2  0  0  0  0  0  0
  158.8950  211.9500  152.8070 C   0  0  1  0  0  3  0  0  0  0  0  0
  156.9630  211.6140  154.3100 C   0  0  0  0  0  2  0  0  0  0  0  0
  158.1160  213.5500  154.3700 C   0  0  0  0  0  2  0  0  0  0  0  0
  158.0660  210.8950  153.5370 C   0  0  0  0  0  2  0  0  0  0  0  0
  159.3130  213.0100  153.7260 N   0  0  0  0  0  2  0  0  0  0  0  0
  157.5260  212.5650  155.1810 O   0  0  0  0  0  0  0  0  0  0  0  0
  1 11  1  0  0  0  0
  2 16  1  0  0  0  0
  2  5  1  1  0  0  0
  3 14  1  0  0  0  0
  3 16  1  0  0  0  0
  6  7  1  0  0  0  0
  6  3  1  0  0  0  0
  7  2  1  0  0  0  0
  8  7  1  0  0  0  0
  9 17  1  0  0  0  0
  9  8  1  0  0  0  0
 10 12  1  0  0  0  0
 10 21  1  0  0  0  0
 11  4  1  0  0  0  0
 12  1  2  0  0  0  0
 13 12  1  0  0  0  0
 13 14  1  0  0  0  0
 14 11  1  0  0  0  0
 15  4  2  0  0  0  0
 15 25  1  0  0  0  0
 16 15  1  0  0  0  0
 17  6  1  0  0  0  0
 18 23  1  0  0  0  0
 18 24  1  0  0  0  0
 19 22  1  0  0  0  0
 20 22  2  0  0  0  0
 21 20  1  0  0  0  0
 23 21  1  0  0  0  0
 24 19  1  0  0  0  0
 25 28  1  0  0  0  0
 25 29  1  0  0  0  0
 26 30  1  0  0  0  0
 27 30  1  0  0  0  0
 28 26  1  0  0  0  0
 29 27  1  0  0  0  0
M  END
>  <MODEL>
6

>  <REMARK>
 VINA RESULT:      -5.3      2.908      7.409
  Name = 
  2 active torsions:
  status: ('A' for Active; 'I' for Inactive)
    1  A    between atoms: C_2  and  C_27
    2  A    between atoms: N_14  and  N_21
                            x       y       z     vdW  Elec       q    Type
                         _______ _______ _______ _____ _____    ______ ____

>  <TORSDO>
F 2

$$$$
=
 OpenBabel11072411133D

 30 35  0  0  1  0  0  0  0  0999 V2000
  161.9430  210.6830  148.6230 N   0  0  0  0  0  0  0  0  0  0  0  0
  161.5710  205.9960  151.3230 C   0  0  1  0  0  3  0  0  0  0  0  0
  161.7760  208.3400  151.0760 C   0  0  1  0  0  3  0  0  0  0  0  0
  161.9590  208.2620  148.3540 C   0  0  0  0  0  3  0  0  0  0  0  0
  162.3470  204.7720  151.2600 N   0  0  0  0  0  1  0  0  0  0  0  0
  161.9540  208.0760  152.5600 C   0  0  2  0  0  3  0  0  0  0  0  0
  161.6630  206.5960  152.7250 C   0  0  1  0  0  3  0  0  0  0  0  0
  160.3750  206.4870  153.3930 N   0  0  0  0  0  2  0  0  0  0  0  0
  160.1780  207.6910  154.0930 N   0  0  0  0  0  2  0  0  0  0  0  0
  160.9470  212.6330  149.5990 N   0  0  0  0  0  2  0  0  0  0  0  0
  162.5990  209.4630  149.0440 C   0  0  2  0  0  3  0  0  0  0  0  0
  161.6080  211.3610  149.6590 C   0  0  0  0  0  0  0  0  0  0  0  0
  161.9540  210.6980  150.9300 C   0  0  0  0  0  2  0  0  0  0  0  0
  162.5950  209.4380  150.5440 N   0  0  1  0  0  0  0  0  0  0  0  0
  161.7670  207.1000  149.0050 C   0  0  0  0  0  0  0  0  0  0  0  0
  162.1950  207.0480  150.4390 C   0  0  2  0  0  3  0  0  0  0  0  0
  160.8460  208.7360  153.3320 C   0  0  0  0  0  2  0  0  0  0  0  0
  162.1630  213.5670  146.5310 C   0  0  0  0  0  2  0  0  0  0  0  0
  159.8700  214.1490  145.6100 C   0  0  0  0  0  2  0  0  0  0  0  0
  159.2570  213.2910  147.8980 C   0  0  0  0  0  3  0  0  0  0  0  0
  160.5980  213.3280  148.4250 N   0  0  0  0  0  0  0  0  0  0  0  0
  158.9150  213.6550  146.6550 C   0  0  0  0  0  3  0  0  0  0  0  0
  161.6200  214.1780  147.8240 C   0  0  0  0  0  2  0  0  0  0  0  0
  161.0750  213.2210  145.5070 C   0  0  0  0  0  2  0  0  0  0  0  0
  161.1400  205.9160  148.3230 C   0  0  1  0  0  3  0  0  0  0  0  0
  160.4550  204.8880  146.1830 C   0  0  0  0  0  2  0  0  0  0  0  0
  161.3110  203.6060  147.8270 C   0  0  0  0  0  2  0  0  0  0  0  0
  160.9490  206.1790  146.8300 C   0  0  0  0  0  2  0  0  0  0  0  0
  161.9470  204.7130  148.5400 N   0  0  0  0  0  2  0  0  0  0  0  0
  161.3580  203.8410  146.4420 O   0  0  0  0  0  0  0  0  0  0  0  0
  1 11  1  0  0  0  0
  1 12  2  0  0  0  0
  2  5  1  1  0  0  0
  2  7  1  0  0  0  0
  3  6  1  0  0  0  0
  4 15  2  0  0  0  0
  4 11  1  0  0  0  0
  6  7  1  0  0  0  0
  6 17  1  0  0  0  0
  7  8  1  0  0  0  0
  8  9  1  0  0  0  0
 10 12  1  0  0  0  0
 11 14  1  0  0  0  0
 12 13  1  0  0  0  0
 14 13  1  0  0  0  0
 14  3  1  0  0  0  0
 15 16  1  0  0  0  0
 16  3  1  0  0  0  0
 16  2  1  0  0  0  0
 17  9  1  0  0  0  0
 18 23  1  0  0  0  0
 19 22  1  0  0  0  0
 20 21  1  0  0  0  0
 21 10  1  0  0  0  0
 22 20  2  0  0  0  0
 23 21  1  0  0  0  0
 24 19  1  0  0  0  0
 24 18  1  0  0  0  0
 25 29  1  0  0  0  0
 25 15  1  0  0  0  0
 26 30  1  0  0  0  0
 26 28  1  0  0  0  0
 27 29  1  0  0  0  0
 28 25  1  0  0  0  0
 30 27  1  0  0  0  0
M  END
>  <MODEL>
7

>  <REMARK>
 VINA RESULT:      -4.9      2.269      3.721
  Name = 
  2 active torsions:
  status: ('A' for Active; 'I' for Inactive)
    1  A    between atoms: C_2  and  C_27
    2  A    between atoms: N_14  and  N_21
                            x       y       z     vdW  Elec       q    Type
                         _______ _______ _______ _____ _____    ______ ____

>  <TORSDO>
F 2

$$$$
=
 OpenBabel11072411133D

 30 35  0  0  1  0  0  0  0  0999 V2000
  162.1300  208.1790  150.7910 N   0  0  0  0  0  0  0  0  0  0  0  0
  160.2120  213.2390  150.4590 C   0  0  1  0  0  3  0  0  0  0  0  0
  161.1930  211.2410  149.6590 C   0  0  1  0  0  3  0  0  0  0  0  0
  161.3300  210.0610  152.1160 C   0  0  0  0  0  3  0  0  0  0  0  0
  160.5310  214.4510  151.1900 N   0  0  0  0  0  1  0  0  0  0  0  0
  161.2770  212.2200  148.5020 C   0  0  2  0  0  3  0  0  0  0  0  0
  160.5050  213.4390  148.9730 C   0  0  1  0  0  3  0  0  0  0  0  0
  159.2570  213.4690  148.2250 N   0  0  0  0  0  2  0  0  0  0  0  0
  159.4790  212.7480  147.0380 N   0  0  0  0  0  2  0  0  0  0  0  0
  161.8510  206.7370  148.8960 N   0  0  0  0  0  2  0  0  0  0  0  0
  162.3390  209.5830  151.0750 C   0  0  2  0  0  3  0  0  0  0  0  0
  162.0460  208.0140  149.5220 C   0  0  0  0  0  0  0  0  0  0  0  0
  162.1530  209.2710  148.7590 C   0  0  0  0  0  2  0  0  0  0  0  0
  162.3320  210.3190  149.7680 N   0  0  1  0  0  0  0  0  0  0  0  0
  160.7600  211.2760  152.0330 C   0  0  0  0  0  0  0  0  0  0  0  0
  161.1510  212.1300  150.8670 C   0  0  2  0  0  3  0  0  0  0  0  0
  160.4580  211.7160  147.3460 C   0  0  0  0  0  2  0  0  0  0  0  0
  161.2320  205.3390  151.9670 C   0  0  0  0  0  2  0  0  0  0  0  0
  160.8300  203.0190  151.0180 C   0  0  0  0  0  2  0  0  0  0  0  0
  161.2100  204.3350  148.9040 C   0  0  0  0  0  3  0  0  0  0  0  0
  161.7530  205.4980  149.5600 N   0  0  0  0  0  0  0  0  0  0  0  0
  160.8000  203.2260  149.5330 C   0  0  0  0  0  3  0  0  0  0  0  0
  162.3240  205.4100  150.8980 C   0  0  0  0  0  2  0  0  0  0  0  0
  160.2150  204.2140  151.7370 C   0  0  0  0  0  2  0  0  0  0  0  0
  159.7690  211.7480  153.0610 C   0  0  1  0  0  3  0  0  0  0  0  0
  157.5070  211.4870  154.0220 C   0  0  0  0  0  2  0  0  0  0  0  0
  159.2580  211.9430  155.3660 C   0  0  0  0  0  2  0  0  0  0  0  0
  158.4100  211.0800  152.8600 C   0  0  0  0  0  2  0  0  0  0  0  0
  160.2750  211.5000  154.4130 N   0  0  0  0  0  2  0  0  0  0  0  0
  158.1100  211.1410  155.2450 O   0  0  0  0  0  0  0  0  0  0  0  0
  1 11  1  0  0  0  0
  2 16  1  0  0  0  0
  2  5  1  1  0  0  0
  3 14  1  0  0  0  0
  3 16  1  0  0  0  0
  6  7  1  0  0  0  0
  6  3  1  0  0  0  0
  7  2  1  0  0  0  0
  8  7  1  0  0  0  0
  9 17  1  0  0  0  0
  9  8  1  0  0  0  0
 10 12  1  0  0  0  0
 10 21  1  0  0  0  0
 11  4  1  0  0  0  0
 12  1  2  0  0  0  0
 13 12  1  0  0  0  0
 13 14  1  0  0  0  0
 14 11  1  0  0  0  0
 15  4  2  0  0  0  0
 15 25  1  0  0  0  0
 16 15  1  0  0  0  0
 17  6  1  0  0  0  0
 19 24  1  0  0  0  0
 20 22  2  0  0  0  0
 20 21  1  0  0  0  0
 21 23  1  0  0  0  0
 22 19  1  0  0  0  0
 23 18  1  0  0  0  0
 24 18  1  0  0  0  0
 25 29  1  0  0  0  0
 26 30  1  0  0  0  0
 28 25  1  0  0  0  0
 28 26  1  0  0  0  0
 29 27  1  0  0  0  0
 30 27  1  0  0  0  0
M  END
>  <MODEL>
8

>  <REMARK>
 VINA RESULT:      -4.8      2.759      6.972
  Name = 
  2 active torsions:
  status: ('A' for Active; 'I' for Inactive)
    1  A    between atoms: C_2  and  C_27
    2  A    between atoms: N_14  and  N_21
                            x       y       z     vdW  Elec       q    Type
                         _______ _______ _______ _____ _____    ______ ____

>  <TORSDO>
F 2

$$$$
=
 OpenBabel11072411133D

 30 35  0  0  1  0  0  0  0  0999 V2000
  162.1830  209.5370  148.9570 N   0  0  0  0  0  0  0  0  0  0  0  0
  161.3510  204.2370  149.7410 C   0  0  1  0  0  3  0  0  0  0  0  0
  161.8060  206.4720  150.3700 C   0  0  1  0  0  3  0  0  0  0  0  0
  161.9300  207.4030  147.8070 C   0  0  0  0  0  3  0  0  0  0  0  0
  161.9880  203.0590  149.1830 N   0  0  0  0  0  1  0  0  0  0  0  0
  161.9810  205.6550  151.6370 C   0  0  2  0  0  3  0  0  0  0  0  0
  161.5330  204.2550  151.2570 C   0  0  1  0  0  3  0  0  0  0  0  0
  160.2530  204.0260  151.9090 N   0  0  0  0  0  2  0  0  0  0  0  0
  160.2010  204.8920  153.0170 N   0  0  0  0  0  2  0  0  0  0  0  0
  161.4240  211.0620  150.6430 N   0  0  0  0  0  2  0  0  0  0  0  0
  162.7100  208.1920  148.8570 C   0  0  2  0  0  3  0  0  0  0  0  0
  161.9430  209.8040  150.1880 C   0  0  0  0  0  0  0  0  0  0  0  0
  162.2380  208.6840  151.0990 C   0  0  0  0  0  2  0  0  0  0  0  0
  162.7300  207.6060  150.2370 N   0  0  1  0  0  0  0  0  0  0  0  0
  161.6240  206.1060  147.9910 C   0  0  0  0  0  0  0  0  0  0  0  0
  162.0700  205.4790  149.2750 C   0  0  2  0  0  3  0  0  0  0  0  0
  160.9660  206.0780  152.6620 C   0  0  0  0  0  2  0  0  0  0  0  0
  161.1470  212.0460  147.3680 C   0  0  0  0  0  2  0  0  0  0  0  0
  159.9020  214.1830  147.9380 C   0  0  0  0  0  2  0  0  0  0  0  0
  160.1480  213.1550  150.2240 C   0  0  0  0  0  3  0  0  0  0  0  0
  161.1320  212.1770  149.8320 N   0  0  0  0  0  0  0  0  0  0  0  0
  159.5950  214.0540  149.4000 C   0  0  0  0  0  3  0  0  0  0  0  0
  161.9430  212.3640  148.6350 C   0  0  0  0  0  2  0  0  0  0  0  0
  159.8300  212.8210  147.2550 C   0  0  0  0  0  2  0  0  0  0  0  0
  160.8600  205.3290  146.9560 C   0  0  1  0  0  3  0  0  0  0  0  0
  159.7220  205.3740  144.7630 C   0  0  0  0  0  2  0  0  0  0  0  0
  160.9100  203.5610  145.3800 C   0  0  0  0  0  2  0  0  0  0  0  0
  160.3500  206.2470  145.8460 C   0  0  0  0  0  2  0  0  0  0  0  0
  161.6900  204.2570  146.4020 N   0  0  0  0  0  2  0  0  0  0  0  0
  160.6560  204.4280  144.3030 O   0  0  0  0  0  0  0  0  0  0  0  0
  1 12  2  0  0  0  0
  2  5  1  6  0  0  0
  2  7  1  0  0  0  0
  3  6  1  0  0  0  0
  4 15  2  0  0  0  0
  4 11  1  0  0  0  0
  6 17  1  0  0  0  0
  7  6  1  0  0  0  0
  7  8  1  0  0  0  0
  8  9  1  0  0  0  0
 11  1  1  0  0  0  0
 11 14  1  0  0  0  0
 12 10  1  0  0  0  0
 12 13  1  0  0  0  0
 14  3  1  0  0  0  0
 14 13  1  0  0  0  0
 15 16  1  0  0  0  0
 16  2  1  0  0  0  0
 16  3  1  0  0  0  0
 17  9  1  0  0  0  0
 18 23  1  0  0  0  0
 19 22  1  0  0  0  0
 21 20  1  0  0  0  0
 21 10  1  0  0  0  0
 22 20  2  0  0  0  0
 23 21  1  0  0  0  0
 24 18  1  0  0  0  0
 24 19  1  0  0  0  0
 25 15  1  0  0  0  0
 26 28  1  0  0  0  0
 27 29  1  0  0  0  0
 28 25  1  0  0  0  0
 29 25  1  0  0  0  0
 30 26  1  0  0  0  0
 30 27  1  0  0  0  0
M  END
>  <MODEL>
9

>  <REMARK>
 VINA RESULT:      -4.3      2.974      5.483
  Name = 
  2 active torsions:
  status: ('A' for Active; 'I' for Inactive)
    1  A    between atoms: C_2  and  C_27
    2  A    between atoms: N_14  and  N_21
                            x       y       z     vdW  Elec       q    Type
                         _______ _______ _______ _____ _____    ______ ____

>  <TORSDO>
F 2

$$$$
