=
 OpenBabel11072413273D

 41 45  0  0  1  0  0  0  0  0999 V2000
  161.9480  209.4990  150.7060 C   0  0  2  0  0  3  0  0  0  0  0  0
  160.1210  211.1310  151.7560 C   0  0  0  0  0  0  0  0  0  0  0  0
  162.6470  210.4370  149.8970 N   0  0  0  0  0  1  0  0  0  0  0  0
  160.9740  208.1820  153.1220 C   0  0  1  0  0  3  0  0  0  0  0  0
  161.7950  207.3360  152.1030 C   0  0  2  0  0  3  0  0  0  0  0  0
  160.8660  209.8650  151.3730 C   0  0  2  0  0  3  0  0  0  0  0  0
  160.0400  209.1220  152.3440 C   0  0  2  0  0  3  0  0  0  0  0  0
  162.6240  208.2130  151.1220 C   0  0  0  0  0  2  0  0  0  0  0  0
  160.0740  212.3150  151.3350 O   0  0  0  0  0  0  0  0  0  0  0  0
  159.5470  210.3780  152.9210 C   0  0  1  0  0  3  0  0  0  0  0  0
  161.3670  211.8800  156.4810 C   0  0  1  0  0  3  0  0  0  0  0  0
  162.1790  212.7030  157.2600 O   0  0  0  0  0  1  0  0  0  0  0  0
  161.5460  211.2010  154.0960 O   0  0  0  0  0  0  0  0  0  0  0  0
  160.2270  212.7040  155.8930 C   0  0  0  0  0  2  0  0  0  0  0  0
  160.2060  210.7810  154.2580 C   0  0  1  0  0  3  0  0  0  0  0  0
  162.1960  211.2340  155.3580 C   0  0  2  0  0  3  0  0  0  0  0  0
  159.3640  211.8490  154.9680 C   0  0  1  0  0  3  0  0  0  0  0  0
  162.7110  209.8620  155.7650 C   0  0  0  0  0  2  0  0  0  0  0  0
  162.4210  209.6320  157.1110 O   0  0  0  0  0  1  0  0  0  0  0  0
  158.3570  211.2270  155.7150 O   0  0  0  0  0  0  0  0  0  0  0  0
  156.3930  211.6650  156.4670 C   0  0  0  0  0  1  0  0  0  0  0  0
  157.2470  211.8570  155.3840 O   0  0  0  0  0  0  0  0  0  0  0  0
  160.1710  207.2790  154.0560 C   0  0  1  0  0  3  0  0  0  0  0  0
  160.1100  206.9300  156.4930 C   0  0  0  0  0  2  0  0  0  0  0  0
  161.0060  206.9150  155.2690 C   0  0  2  0  0  3  0  0  0  0  0  0
  159.9290  207.9560  155.3910 C   0  0  1  0  0  3  0  0  0  0  0  0
  160.9070  206.3700  151.3170 C   0  0  0  0  0  2  0  0  0  0  0  0
  162.1970  204.6670  152.4060 O   0  0  0  0  0  1  0  0  0  0  0  0
  161.5430  204.9910  151.2140 C   0  0  1  0  0  3  0  0  0  0  0  0
  160.4980  203.9310  150.8610 C   0  0  0  0  0  2  0  0  0  0  0  0
  161.0620  201.7050  149.8550 C   0  0  0  0  0  0  0  0  0  0  0  0
  161.4030  200.9020  148.7720 O   0  0  0  0  0  0  0  0  0  0  0  0
  161.5470  203.1760  147.4450 O   0  0  0  0  0  0  0  0  0  0  0  0
  161.0640  203.7920  148.4340 C   0  0  0  0  0  0  0  0  0  0  0  0
  160.8970  201.1660  150.9820 O   0  0  0  0  0  1  0  0  0  0  0  0
  160.8950  203.1290  149.7010 N   0  0  0  0  0  0  0  0  0  0  0  0
  160.7030  205.1380  148.3100 O   0  0  0  0  0  0  0  0  0  0  0  0
  161.3850  206.1780  147.1240 P   0  0  0  0  0  0  0  0  0  0  0  0
  160.3240  206.2890  145.8120 O   0  0  0  0  0  0  0  0  0  0  0  0
  161.6220  207.7160  147.7880 O   0  0  0  0  0  1  0  0  0  0  0  0
  162.7050  205.6230  146.6460 O   0  0  0  0  0  1  0  0  0  0  0  0
  1  3  1  1  0  0  0
  1  8  1  0  0  0  0
  1  6  1  0  0  0  0
  2 10  1  0  0  0  0
  4 23  1  1  0  0  0
  5 27  1  6  0  0  0
  5  4  1  0  0  0  0
  6  2  1  1  0  0  0
  6  7  1  0  0  0  0
  7 10  1  0  0  0  0
  7  4  1  0  0  0  0
  8  5  1  0  0  0  0
  9  2  2  0  0  0  0
 10 15  1  0  0  0  0
 11 12  1  0  0  0  0
 13 15  1  0  0  0  0
 13 16  1  0  0  0  0
 14 11  1  0  0  0  0
 15 17  1  0  0  0  0
 16 18  1  0  0  0  0
 16 11  1  0  0  0  0
 17 20  1  0  0  0  0
 17 14  1  0  0  0  0
 18 19  1  0  0  0  0
 22 20  1  0  0  0  0
 22 21  1  0  0  0  0
 23 25  1  0  0  0  0
 23 26  1  0  0  0  0
 25 26  1  0  0  0  0
 25 24  1  0  0  0  0
 26 24  1  0  0  0  0
 29 27  1  0  0  0  0
 29 28  1  0  0  0  0
 30 29  1  0  0  0  0
 31 35  1  0  0  0  0
 32 31  2  0  0  0  0
 33 34  2  0  0  0  0
 34 36  1  0  0  0  0
 36 31  1  0  0  0  0
 36 30  1  0  0  0  0
 37 34  1  0  0  0  0
 38 40  1  0  0  0  0
 38 37  1  0  0  0  0
 39 38  2  0  0  0  0
 41 38  1  0  0  0  0
M  END
>  <MODEL>
1

>  <REMARK>
 VINA RESULT:      -5.4      0.000      0.000
  Name = 
  11 active torsions:
  status: ('A' for Active; 'I' for Inactive)
    1  A    between atoms: C_4  and  C_21
    2  A    between atoms: C_13  and  O_18
    3  A    between atoms: O_14  and  C_23
    4  A    between atoms: O_14  and  O_24
    5  A    between atoms: C_15  and  C_37
    6  A    between atoms: O_18  and  P_31
    7  A    between atoms: C_20  and  C_25
    8  A    between atoms: C_26  and  C_39
    9  A    between atoms: N_29  and  C_38
   10  A    between atoms: C_38  and  C_40
   11  A    between atoms: C_39  and  C_40
                            x       y       z     vdW  Elec       q    Type
                         _______ _______ _______ _____ _____    ______ ____

>  <TORSDO>
F 11

$$$$
=
 OpenBabel11072413273D

 41 45  0  0  1  0  0  0  0  0999 V2000
  161.8240  209.1970  151.2690 C   0  0  2  0  0  3  0  0  0  0  0  0
  159.8900  210.8980  151.9570 C   0  0  0  0  0  0  0  0  0  0  0  0
  162.5380  210.0260  150.3610 N   0  0  0  0  0  1  0  0  0  0  0  0
  160.7550  208.2300  153.8060 C   0  0  1  0  0  3  0  0  0  0  0  0
  161.6580  207.2700  152.9750 C   0  0  2  0  0  3  0  0  0  0  0  0
  160.6950  209.6180  151.8140 C   0  0  2  0  0  3  0  0  0  0  0  0
  159.8380  209.0010  152.8440 C   0  0  2  0  0  3  0  0  0  0  0  0
  162.5140  208.0180  151.9140 C   0  0  0  0  0  2  0  0  0  0  0  0
  159.8310  212.0010  151.3540 O   0  0  0  0  0  0  0  0  0  0  0  0
  159.2750  210.3110  153.1930 C   0  0  1  0  0  3  0  0  0  0  0  0
  160.8180  212.4150  156.5740 C   0  0  1  0  0  3  0  0  0  0  0  0
  161.5250  213.4020  157.2610 O   0  0  0  0  0  1  0  0  0  0  0  0
  161.1470  211.4550  154.3050 O   0  0  0  0  0  0  0  0  0  0  0  0
  159.6350  213.0510  155.8520 C   0  0  0  0  0  2  0  0  0  0  0  0
  159.8430  210.9400  154.4840 C   0  0  1  0  0  3  0  0  0  0  0  0
  161.7430  211.7090  155.5690 C   0  0  2  0  0  3  0  0  0  0  0  0
  158.8850  212.0090  155.0230 C   0  0  1  0  0  3  0  0  0  0  0  0
  162.3580  210.4520  156.1660 C   0  0  0  0  0  2  0  0  0  0  0  0
  163.6640  210.7200  156.5800 O   0  0  0  0  0  1  0  0  0  0  0  0
  157.9070  211.4000  155.8180 O   0  0  0  0  0  0  0  0  0  0  0  0
  156.3170  212.7630  155.3390 C   0  0  0  0  0  1  0  0  0  0  0  0
  157.2190  212.3970  156.3360 O   0  0  0  0  0  0  0  0  0  0  0  0
  159.9290  207.4500  154.8270 C   0  0  1  0  0  3  0  0  0  0  0  0
  160.0780  207.0860  157.2570 C   0  0  0  0  0  2  0  0  0  0  0  0
  160.8240  206.9470  155.9440 C   0  0  2  0  0  3  0  0  0  0  0  0
  159.9390  208.1410  156.1770 C   0  0  1  0  0  3  0  0  0  0  0  0
  160.8470  206.1610  152.3030 C   0  0  0  0  0  2  0  0  0  0  0  0
  162.4100  204.4790  151.6110 O   0  0  0  0  0  1  0  0  0  0  0  0
  161.6150  205.5320  151.1500 C   0  0  1  0  0  3  0  0  0  0  0  0
  160.6620  205.0550  150.0520 C   0  0  0  0  0  2  0  0  0  0  0  0
  161.3140  206.5660  148.1620 C   0  0  0  0  0  0  0  0  0  0  0  0
  161.8760  206.7870  146.9090 O   0  0  0  0  0  0  0  0  0  0  0  0
  162.0720  204.1600  146.8030 O   0  0  0  0  0  0  0  0  0  0  0  0
  161.7150  204.0770  148.0110 C   0  0  0  0  0  0  0  0  0  0  0  0
  160.8800  207.5530  148.8140 O   0  0  0  0  0  1  0  0  0  0  0  0
  161.2270  205.2370  148.7130 N   0  0  0  0  0  0  0  0  0  0  0  0
  161.7770  202.8480  148.6750 O   0  0  0  0  0  0  0  0  0  0  0  0
  160.8630  201.4780  148.1820 P   0  0  0  0  0  0  0  0  0  0  0  0
  159.4030  201.4540  149.0340 O   0  0  0  0  0  1  0  0  0  0  0  0
  160.5460  201.5770  146.5230 O   0  0  0  0  0  0  0  0  0  0  0  0
  161.6290  200.2110  148.4780 O   0  0  0  0  0  1  0  0  0  0  0  0
  1  3  1  1  0  0  0
  1  6  1  0  0  0  0
  1  8  1  0  0  0  0
  2 10  1  0  0  0  0
  4 23  1  1  0  0  0
  5 27  1  6  0  0  0
  5  4  1  0  0  0  0
  6  2  1  1  0  0  0
  6  7  1  0  0  0  0
  7 10  1  0  0  0  0
  7  4  1  0  0  0  0
  8  5  1  0  0  0  0
  9  2  2  0  0  0  0
 10 15  1  0  0  0  0
 11 12  1  0  0  0  0
 13 15  1  0  0  0  0
 13 16  1  0  0  0  0
 14 11  1  0  0  0  0
 15 17  1  0  0  0  0
 16 18  1  0  0  0  0
 16 11  1  0  0  0  0
 17 20  1  0  0  0  0
 17 14  1  0  0  0  0
 18 19  1  0  0  0  0
 20 22  1  0  0  0  0
 21 22  1  0  0  0  0
 23 25  1  0  0  0  0
 23 26  1  0  0  0  0
 25 26  1  0  0  0  0
 25 24  1  0  0  0  0
 26 24  1  0  0  0  0
 29 28  1  0  0  0  0
 29 27  1  0  0  0  0
 30 29  1  0  0  0  0
 31 36  1  0  0  0  0
 31 35  1  0  0  0  0
 32 31  2  0  0  0  0
 33 34  2  0  0  0  0
 34 37  1  0  0  0  0
 34 36  1  0  0  0  0
 36 30  1  0  0  0  0
 38 41  1  0  0  0  0
 38 37  1  0  0  0  0
 38 39  1  0  0  0  0
 40 38  2  0  0  0  0
M  END
>  <MODEL>
2

>  <REMARK>
 VINA RESULT:      -5.2      1.404      2.605
  Name = 
  11 active torsions:
  status: ('A' for Active; 'I' for Inactive)
    1  A    between atoms: C_4  and  C_21
    2  A    between atoms: C_13  and  O_18
    3  A    between atoms: O_14  and  C_23
    4  A    between atoms: O_14  and  O_24
    5  A    between atoms: C_15  and  C_37
    6  A    between atoms: O_18  and  P_31
    7  A    between atoms: C_20  and  C_25
    8  A    between atoms: C_26  and  C_39
    9  A    between atoms: N_29  and  C_38
   10  A    between atoms: C_38  and  C_40
   11  A    between atoms: C_39  and  C_40
                            x       y       z     vdW  Elec       q    Type
                         _______ _______ _______ _____ _____    ______ ____

>  <TORSDO>
F 11

$$$$
=
 OpenBabel11072413273D

 41 45  0  0  1  0  0  0  0  0999 V2000
  161.2020  208.0960  155.5600 C   0  0  2  0  0  3  0  0  0  0  0  0
  161.2300  210.7380  155.9150 C   0  0  0  0  0  0  0  0  0  0  0  0
  161.1010  207.6900  156.9190 N   0  0  0  0  0  1  0  0  0  0  0  0
  160.4170  209.2680  153.0050 C   0  0  1  0  0  3  0  0  0  0  0  0
  160.8260  207.7650  153.0300 C   0  0  2  0  0  3  0  0  0  0  0  0
  161.3330  209.3760  155.2520 C   0  0  2  0  0  3  0  0  0  0  0  0
  161.3530  210.0500  153.9400 C   0  0  2  0  0  3  0  0  0  0  0  0
  160.7800  207.1520  154.4580 C   0  0  0  0  0  2  0  0  0  0  0  0
  161.2730  211.1750  157.0940 O   0  0  0  0  0  0  0  0  0  0  0  0
  160.9490  211.3170  154.5600 C   0  0  1  0  0  3  0  0  0  0  0  0
  156.9140  212.6850  154.2450 C   0  0  1  0  0  3  0  0  0  0  0  0
  155.7510  213.3530  154.6240 O   0  0  0  0  0  1  0  0  0  0  0  0
  158.7600  211.7260  155.6070 O   0  0  0  0  0  0  0  0  0  0  0  0
  158.0090  213.7030  153.9470 C   0  0  0  0  0  2  0  0  0  0  0  0
  159.4590  211.6830  154.3790 C   0  0  1  0  0  3  0  0  0  0  0  0
  157.3610  211.7300  155.3650 C   0  0  2  0  0  3  0  0  0  0  0  0
  159.3230  213.0010  153.6070 C   0  0  1  0  0  3  0  0  0  0  0  0
  156.8210  210.3250  155.1470 C   0  0  0  0  0  2  0  0  0  0  0  0
  155.4500  210.3030  155.4040 O   0  0  0  0  0  1  0  0  0  0  0  0
  159.3680  212.7430  152.2320 O   0  0  0  0  0  0  0  0  0  0  0  0
  159.7200  213.6440  150.3140 C   0  0  0  0  0  1  0  0  0  0  0  0
  159.5610  213.9190  151.6700 O   0  0  0  0  0  0  0  0  0  0  0  0
  160.4880  209.8270  151.5850 C   0  0  1  0  0  3  0  0  0  0  0  0
  162.3190  210.4770  150.0730 C   0  0  0  0  0  2  0  0  0  0  0  0
  161.7070  210.7190  151.4390 C   0  0  2  0  0  3  0  0  0  0  0  0
  161.7270  209.3290  150.8670 C   0  0  1  0  0  3  0  0  0  0  0  0
  162.2070  207.5380  152.4100 C   0  0  0  0  0  2  0  0  0  0  0  0
  163.1070  205.3350  152.1150 O   0  0  0  0  0  1  0  0  0  0  0  0
  162.2320  206.2750  151.5610 C   0  0  1  0  0  3  0  0  0  0  0  0
  160.8270  205.6880  151.4110 C   0  0  0  0  0  2  0  0  0  0  0  0
  160.8380  203.1810  151.4360 C   0  0  0  0  0  0  0  0  0  0  0  0
  160.8100  201.9510  150.7890 O   0  0  0  0  0  0  0  0  0  0  0  0
  160.9560  203.3830  148.5800 O   0  0  0  0  0  0  0  0  0  0  0  0
  160.8000  204.4420  149.2480 C   0  0  0  0  0  0  0  0  0  0  0  0
  160.8630  203.2040  152.6950 O   0  0  0  0  0  1  0  0  0  0  0  0
  160.8360  204.4140  150.6880 N   0  0  0  0  0  0  0  0  0  0  0  0
  160.6070  205.6610  148.5900 O   0  0  0  0  0  0  0  0  0  0  0  0
  161.6470  206.2170  147.3400 P   0  0  0  0  0  0  0  0  0  0  0  0
  162.5650  207.5130  147.9220 O   0  0  0  0  0  1  0  0  0  0  0  0
  162.6800  204.9650  146.8630 O   0  0  0  0  0  1  0  0  0  0  0  0
  160.8330  206.6820  146.1560 O   0  0  0  0  0  0  0  0  0  0  0  0
  1  3  1  1  0  0  0
  2  9  2  0  0  0  0
  4 23  1  6  0  0  0
  4  5  1  0  0  0  0
  4  7  1  0  0  0  0
  5 27  1  1  0  0  0
  5  8  1  0  0  0  0
  6  1  1  0  0  0  0
  6  2  1  1  0  0  0
  7 10  1  0  0  0  0
  7  6  1  0  0  0  0
  8  1  1  0  0  0  0
 10  2  1  0  0  0  0
 11 12  1  0  0  0  0
 11 16  1  0  0  0  0
 14 11  1  0  0  0  0
 15 10  1  0  0  0  0
 15 13  1  0  0  0  0
 16 13  1  0  0  0  0
 17 14  1  0  0  0  0
 17 15  1  0  0  0  0
 18 16  1  0  0  0  0
 18 19  1  0  0  0  0
 20 17  1  0  0  0  0
 21 22  1  0  0  0  0
 22 20  1  0  0  0  0
 24 26  1  0  0  0  0
 24 25  1  0  0  0  0
 25 23  1  0  0  0  0
 26 25  1  0  0  0  0
 26 23  1  0  0  0  0
 29 28  1  0  0  0  0
 29 27  1  0  0  0  0
 30 29  1  0  0  0  0
 31 35  1  0  0  0  0
 32 31  2  0  0  0  0
 33 34  2  0  0  0  0
 34 36  1  0  0  0  0
 36 30  1  0  0  0  0
 36 31  1  0  0  0  0
 37 34  1  0  0  0  0
 38 39  1  0  0  0  0
 38 37  1  0  0  0  0
 40 38  1  0  0  0  0
 41 38  2  0  0  0  0
M  END
>  <MODEL>
3

>  <REMARK>
 VINA RESULT:      -5.1      1.840      4.052
  Name = 
  11 active torsions:
  status: ('A' for Active; 'I' for Inactive)
    1  A    between atoms: C_4  and  C_21
    2  A    between atoms: C_13  and  O_18
    3  A    between atoms: O_14  and  C_23
    4  A    between atoms: O_14  and  O_24
    5  A    between atoms: C_15  and  C_37
    6  A    between atoms: O_18  and  P_31
    7  A    between atoms: C_20  and  C_25
    8  A    between atoms: C_26  and  C_39
    9  A    between atoms: N_29  and  C_38
   10  A    between atoms: C_38  and  C_40
   11  A    between atoms: C_39  and  C_40
                            x       y       z     vdW  Elec       q    Type
                         _______ _______ _______ _____ _____    ______ ____

>  <TORSDO>
F 11

$$$$
=
 OpenBabel11072413273D

 41 45  0  0  1  0  0  0  0  0999 V2000
  161.1310  207.8260  155.6080 C   0  0  2  0  0  3  0  0  0  0  0  0
  161.3750  210.4550  155.9770 C   0  0  0  0  0  0  0  0  0  0  0  0
  161.0290  207.4180  156.9660 N   0  0  0  0  0  1  0  0  0  0  0  0
  160.3850  209.0750  153.0780 C   0  0  1  0  0  3  0  0  0  0  0  0
  160.6750  207.5440  153.0850 C   0  0  2  0  0  3  0  0  0  0  0  0
  161.3560  209.0930  155.3040 C   0  0  2  0  0  3  0  0  0  0  0  0
  161.4000  209.7740  153.9960 C   0  0  2  0  0  3  0  0  0  0  0  0
  160.6120  206.9260  154.5100 C   0  0  0  0  0  2  0  0  0  0  0  0
  161.4780  210.8790  157.1570 O   0  0  0  0  0  0  0  0  0  0  0  0
  161.1090  211.0650  154.6320 C   0  0  1  0  0  3  0  0  0  0  0  0
  157.1740  212.7170  154.4690 C   0  0  1  0  0  3  0  0  0  0  0  0
  156.0460  213.3950  154.9270 O   0  0  0  0  0  1  0  0  0  0  0  0
  158.9260  211.4520  155.6980 O   0  0  0  0  0  0  0  0  0  0  0  0
  158.3350  213.6970  154.3420 C   0  0  0  0  0  2  0  0  0  0  0  0
  159.6490  211.5470  154.4870 C   0  0  1  0  0  3  0  0  0  0  0  0
  157.5360  211.5810  155.4400 C   0  0  2  0  0  3  0  0  0  0  0  0
  159.6110  212.9710  153.9190 C   0  0  1  0  0  3  0  0  0  0  0  0
  156.9170  210.2610  155.0070 C   0  0  0  0  0  2  0  0  0  0  0  0
  155.5610  210.2470  155.3390 O   0  0  0  0  0  1  0  0  0  0  0  0
  159.6730  212.9160  152.5220 O   0  0  0  0  0  0  0  0  0  0  0  0
  159.8970  214.2480  150.8500 C   0  0  0  0  0  1  0  0  0  0  0  0
  159.3320  214.1240  152.1180 O   0  0  0  0  0  0  0  0  0  0  0  0
  160.4670  209.6370  151.6600 C   0  0  1  0  0  3  0  0  0  0  0  0
  162.1760  210.8710  150.3870 C   0  0  0  0  0  2  0  0  0  0  0  0
  161.3310  210.8840  151.6470 C   0  0  2  0  0  3  0  0  0  0  0  0
  161.8900  209.5840  151.1370 C   0  0  1  0  0  3  0  0  0  0  0  0
  162.0190  207.2150  152.4320 C   0  0  0  0  0  2  0  0  0  0  0  0
  161.7110  204.8380  152.3520 O   0  0  0  0  0  1  0  0  0  0  0  0
  161.9220  205.9710  151.5610 C   0  0  1  0  0  3  0  0  0  0  0  0
  160.8140  206.1190  150.5160 C   0  0  0  0  0  2  0  0  0  0  0  0
  161.8390  206.7420  148.3160 C   0  0  0  0  0  0  0  0  0  0  0  0
  162.3130  206.4150  147.0490 O   0  0  0  0  0  0  0  0  0  0  0  0
  161.3870  204.0070  147.5920 O   0  0  0  0  0  0  0  0  0  0  0  0
  161.1530  204.3570  148.7810 C   0  0  0  0  0  0  0  0  0  0  0  0
  161.9230  207.9380  148.7040 O   0  0  0  0  0  1  0  0  0  0  0  0
  161.2640  205.7380  149.1760 N   0  0  0  0  0  0  0  0  0  0  0  0
  160.7650  203.4020  149.7270 O   0  0  0  0  0  0  0  0  0  0  0  0
  160.5550  201.7410  149.3390 P   0  0  0  0  0  0  0  0  0  0  0  0
  158.9000  201.4020  149.2500 O   0  0  0  0  0  1  0  0  0  0  0  0
  161.2780  201.4130  147.8460 O   0  0  0  0  0  0  0  0  0  0  0  0
  161.1790  200.8760  150.4070 O   0  0  0  0  0  1  0  0  0  0  0  0
  1  3  1  1  0  0  0
  2  9  2  0  0  0  0
  4 23  1  6  0  0  0
  4  5  1  0  0  0  0
  4  7  1  0  0  0  0
  5 27  1  1  0  0  0
  5  8  1  0  0  0  0
  6  1  1  0  0  0  0
  6  2  1  1  0  0  0
  7 10  1  0  0  0  0
  7  6  1  0  0  0  0
  8  1  1  0  0  0  0
 10  2  1  0  0  0  0
 11 12  1  0  0  0  0
 11 16  1  0  0  0  0
 14 11  1  0  0  0  0
 15 10  1  0  0  0  0
 15 13  1  0  0  0  0
 16 13  1  0  0  0  0
 17 14  1  0  0  0  0
 17 15  1  0  0  0  0
 18 19  1  0  0  0  0
 18 16  1  0  0  0  0
 20 17  1  0  0  0  0
 21 22  1  0  0  0  0
 22 20  1  0  0  0  0
 24 26  1  0  0  0  0
 24 25  1  0  0  0  0
 25 23  1  0  0  0  0
 26 25  1  0  0  0  0
 26 23  1  0  0  0  0
 29 28  1  0  0  0  0
 29 27  1  0  0  0  0
 30 29  1  0  0  0  0
 31 35  1  0  0  0  0
 31 36  1  0  0  0  0
 32 31  2  0  0  0  0
 33 34  2  0  0  0  0
 34 36  1  0  0  0  0
 34 37  1  0  0  0  0
 36 30  1  0  0  0  0
 38 37  1  0  0  0  0
 38 41  1  0  0  0  0
 39 38  1  0  0  0  0
 40 38  2  0  0  0  0
M  END
>  <MODEL>
4

>  <REMARK>
 VINA RESULT:      -5.1      2.131      4.618
  Name = 
  11 active torsions:
  status: ('A' for Active; 'I' for Inactive)
    1  A    between atoms: C_4  and  C_21
    2  A    between atoms: C_13  and  O_18
    3  A    between atoms: O_14  and  C_23
    4  A    between atoms: O_14  and  O_24
    5  A    between atoms: C_15  and  C_37
    6  A    between atoms: O_18  and  P_31
    7  A    between atoms: C_20  and  C_25
    8  A    between atoms: C_26  and  C_39
    9  A    between atoms: N_29  and  C_38
   10  A    between atoms: C_38  and  C_40
   11  A    between atoms: C_39  and  C_40
                            x       y       z     vdW  Elec       q    Type
                         _______ _______ _______ _____ _____    ______ ____

>  <TORSDO>
F 11

$$$$
=
 OpenBabel11072413273D

 41 45  0  0  1  0  0  0  0  0999 V2000
  161.4600  210.0600  151.4420 C   0  0  2  0  0  3  0  0  0  0  0  0
  159.2980  211.5040  152.0280 C   0  0  0  0  0  0  0  0  0  0  0  0
  162.0820  210.9510  150.5240 N   0  0  0  0  0  1  0  0  0  0  0  0
  160.4620  209.0340  153.9850 C   0  0  1  0  0  3  0  0  0  0  0  0
  161.5080  208.1800  153.2080 C   0  0  2  0  0  3  0  0  0  0  0  0
  160.2710  210.3410  151.9470 C   0  0  2  0  0  3  0  0  0  0  0  0
  159.4760  209.6450  152.9770 C   0  0  2  0  0  3  0  0  0  0  0  0
  162.2850  209.0040  152.1420 C   0  0  0  0  0  2  0  0  0  0  0  0
  159.1080  212.5700  151.3880 O   0  0  0  0  0  0  0  0  0  0  0  0
  158.7330  210.8760  153.2690 C   0  0  1  0  0  3  0  0  0  0  0  0
  159.9480  213.2660  156.5940 C   0  0  1  0  0  3  0  0  0  0  0  0
  160.5870  214.3110  157.2590 O   0  0  0  0  0  1  0  0  0  0  0  0
  160.4920  212.1210  154.4550 O   0  0  0  0  0  0  0  0  0  0  0  0
  158.8410  213.8310  155.7110 C   0  0  0  0  0  2  0  0  0  0  0  0
  159.1760  211.6150  154.5500 C   0  0  1  0  0  3  0  0  0  0  0  0
  160.9640  212.4840  155.7440 C   0  0  2  0  0  3  0  0  0  0  0  0
  158.1720  212.7190  154.9040 C   0  0  1  0  0  3  0  0  0  0  0  0
  161.5170  211.2860  156.5010 C   0  0  0  0  0  2  0  0  0  0  0  0
  162.7210  210.8810  155.9230 O   0  0  0  0  0  1  0  0  0  0  0  0
  157.1220  212.1720  155.6500 O   0  0  0  0  0  0  0  0  0  0  0  0
  155.6570  210.7110  155.0720 C   0  0  0  0  0  1  0  0  0  0  0  0
  156.1500  211.9810  154.7810 O   0  0  0  0  0  0  0  0  0  0  0  0
  159.7190  208.1800  155.0110 C   0  0  1  0  0  3  0  0  0  0  0  0
  160.2510  207.3290  157.2600 C   0  0  0  0  0  2  0  0  0  0  0  0
  160.7100  207.3570  155.8150 C   0  0  2  0  0  3  0  0  0  0  0  0
  160.0910  208.5850  156.4250 C   0  0  1  0  0  3  0  0  0  0  0  0
  160.8710  206.9520  152.5550 C   0  0  0  0  0  2  0  0  0  0  0  0
  162.6320  205.8070  151.3970 O   0  0  0  0  0  1  0  0  0  0  0  0
  161.5220  206.6360  151.2150 C   0  0  1  0  0  3  0  0  0  0  0  0
  160.5170  205.9960  150.2560 C   0  0  0  0  0  2  0  0  0  0  0  0
  160.8490  203.5590  150.7400 C   0  0  0  0  0  0  0  0  0  0  0  0
  161.2080  202.2720  150.3540 O   0  0  0  0  0  0  0  0  0  0  0  0
  161.9150  203.4130  148.0840 O   0  0  0  0  0  0  0  0  0  0  0  0
  161.4010  204.5010  148.4620 C   0  0  0  0  0  0  0  0  0  0  0  0
  160.4350  203.7460  151.9150 O   0  0  0  0  0  1  0  0  0  0  0  0
  160.9420  204.6650  149.8190 N   0  0  0  0  0  0  0  0  0  0  0  0
  161.2870  205.5690  147.5670 O   0  0  0  0  0  0  0  0  0  0  0  0
  161.2170  205.3500  145.8630 P   0  0  0  0  0  0  0  0  0  0  0  0
  162.6980  205.8060  145.1880 O   0  0  0  0  0  0  0  0  0  0  0  0
  160.9150  203.7230  145.5140 O   0  0  0  0  0  1  0  0  0  0  0  0
  160.1220  206.2070  145.2750 O   0  0  0  0  0  1  0  0  0  0  0  0
  1  3  1  1  0  0  0
  1  6  1  0  0  0  0
  1  8  1  0  0  0  0
  2 10  1  0  0  0  0
  4 23  1  1  0  0  0
  5 27  1  6  0  0  0
  5  4  1  0  0  0  0
  6  2  1  1  0  0  0
  6  7  1  0  0  0  0
  7 10  1  0  0  0  0
  7  4  1  0  0  0  0
  8  5  1  0  0  0  0
  9  2  2  0  0  0  0
 10 15  1  0  0  0  0
 11 12  1  0  0  0  0
 13 15  1  0  0  0  0
 13 16  1  0  0  0  0
 14 11  1  0  0  0  0
 15 17  1  0  0  0  0
 16 18  1  0  0  0  0
 16 11  1  0  0  0  0
 17 20  1  0  0  0  0
 17 14  1  0  0  0  0
 19 18  1  0  0  0  0
 22 21  1  0  0  0  0
 22 20  1  0  0  0  0
 23 25  1  0  0  0  0
 23 26  1  0  0  0  0
 25 26  1  0  0  0  0
 25 24  1  0  0  0  0
 26 24  1  0  0  0  0
 29 28  1  0  0  0  0
 29 27  1  0  0  0  0
 30 29  1  0  0  0  0
 31 35  1  0  0  0  0
 32 31  2  0  0  0  0
 33 34  2  0  0  0  0
 34 36  1  0  0  0  0
 36 30  1  0  0  0  0
 36 31  1  0  0  0  0
 37 34  1  0  0  0  0
 38 37  1  0  0  0  0
 39 38  2  0  0  0  0
 40 38  1  0  0  0  0
 41 38  1  0  0  0  0
M  END
>  <MODEL>
5

>  <REMARK>
 VINA RESULT:      -4.7      1.290      1.747
  Name = 
  11 active torsions:
  status: ('A' for Active; 'I' for Inactive)
    1  A    between atoms: C_4  and  C_21
    2  A    between atoms: C_13  and  O_18
    3  A    between atoms: O_14  and  C_23
    4  A    between atoms: O_14  and  O_24
    5  A    between atoms: C_15  and  C_37
    6  A    between atoms: O_18  and  P_31
    7  A    between atoms: C_20  and  C_25
    8  A    between atoms: C_26  and  C_39
    9  A    between atoms: N_29  and  C_38
   10  A    between atoms: C_38  and  C_40
   11  A    between atoms: C_39  and  C_40
                            x       y       z     vdW  Elec       q    Type
                         _______ _______ _______ _____ _____    ______ ____

>  <TORSDO>
F 11

$$$$
=
 OpenBabel11072413273D

 41 45  0  0  1  0  0  0  0  0999 V2000
  160.8050  206.0140  151.1700 C   0  0  2  0  0  3  0  0  0  0  0  0
  161.8100  207.0400  153.4160 C   0  0  0  0  0  0  0  0  0  0  0  0
  160.0390  204.9550  151.7310 N   0  0  0  0  0  1  0  0  0  0  0  0
  161.6130  208.7440  150.5280 C   0  0  1  0  0  3  0  0  0  0  0  0
  161.3070  207.7710  149.3500 C   0  0  2  0  0  3  0  0  0  0  0  0
  161.5690  206.7700  151.9420 C   0  0  2  0  0  3  0  0  0  0  0  0
  162.3630  207.9720  151.6240 C   0  0  2  0  0  3  0  0  0  0  0  0
  160.4730  206.5350  149.7910 C   0  0  0  0  0  2  0  0  0  0  0  0
  161.5860  206.4320  154.4950 O   0  0  0  0  0  0  0  0  0  0  0  0
  162.3310  208.3930  153.0290 C   0  0  1  0  0  3  0  0  0  0  0  0
  159.3360  211.2330  154.1290 C   0  0  1  0  0  3  0  0  0  0  0  0
  158.0610  211.6970  154.4460 O   0  0  0  0  0  1  0  0  0  0  0  0
  160.0710  209.3170  152.7250 O   0  0  0  0  0  0  0  0  0  0  0  0
  159.8150  210.2830  155.2210 C   0  0  0  0  0  2  0  0  0  0  0  0
  161.3240  209.5200  153.3470 C   0  0  1  0  0  3  0  0  0  0  0  0
  159.3120  210.5160  152.7680 C   0  0  2  0  0  3  0  0  0  0  0  0
  161.1780  209.6930  154.8640 C   0  0  1  0  0  3  0  0  0  0  0  0
  159.6830  211.4610  151.6350 C   0  0  0  0  0  2  0  0  0  0  0  0
  158.8260  212.5620  151.6420 O   0  0  0  0  0  1  0  0  0  0  0  0
  162.1880  210.5380  155.3360 O   0  0  0  0  0  0  0  0  0  0  0  0
  163.2400  210.9520  157.1640 C   0  0  0  0  0  1  0  0  0  0  0  0
  162.6700  209.9330  156.4030 O   0  0  0  0  0  0  0  0  0  0  0  0
  162.4400  209.9350  150.0470 C   0  0  1  0  0  3  0  0  0  0  0  0
  161.9830  211.9010  148.6370 C   0  0  0  0  0  2  0  0  0  0  0  0
  161.9560  210.3850  148.6810 C   0  0  2  0  0  3  0  0  0  0  0  0
  161.5770  211.1740  149.9040 C   0  0  1  0  0  3  0  0  0  0  0  0
  162.5830  207.3130  148.6410 C   0  0  0  0  0  2  0  0  0  0  0  0
  163.3170  205.7190  147.0060 O   0  0  0  0  0  1  0  0  0  0  0  0
  162.2650  206.5740  147.3490 C   0  0  1  0  0  3  0  0  0  0  0  0
  160.9520  205.7990  147.4710 C   0  0  0  0  0  2  0  0  0  0  0  0
  160.6090  205.0620  145.0990 C   0  0  0  0  0  0  0  0  0  0  0  0
  160.5430  204.0750  144.1210 O   0  0  0  0  0  0  0  0  0  0  0  0
  160.8180  202.4000  146.1390 O   0  0  0  0  0  0  0  0  0  0  0  0
  161.0410  203.3660  146.9200 C   0  0  0  0  0  0  0  0  0  0  0  0
  160.4560  206.2650  144.7580 O   0  0  0  0  0  1  0  0  0  0  0  0
  160.8510  204.7250  146.4800 N   0  0  0  0  0  0  0  0  0  0  0  0
  161.4600  203.1220  148.2320 O   0  0  0  0  0  0  0  0  0  0  0  0
  160.8610  201.8120  149.1710 P   0  0  0  0  0  0  0  0  0  0  0  0
  161.5810  200.3780  148.6370 O   0  0  0  0  0  0  0  0  0  0  0  0
  161.2420  202.0620  150.8000 O   0  0  0  0  0  1  0  0  0  0  0  0
  159.3640  201.7020  149.0110 O   0  0  0  0  0  1  0  0  0  0  0  0
  1  3  1  1  0  0  0
  1  6  1  0  0  0  0
  2  9  2  0  0  0  0
  4 23  1  6  0  0  0
  4  7  1  0  0  0  0
  5 27  1  1  0  0  0
  5  8  1  0  0  0  0
  5  4  1  0  0  0  0
  6  2  1  1  0  0  0
  7  6  1  0  0  0  0
  7 10  1  0  0  0  0
  8  1  1  0  0  0  0
 10 15  1  0  0  0  0
 10  2  1  0  0  0  0
 11 12  1  0  0  0  0
 11 14  1  0  0  0  0
 13 16  1  0  0  0  0
 13 15  1  0  0  0  0
 15 17  1  0  0  0  0
 16 11  1  0  0  0  0
 17 14  1  0  0  0  0
 17 20  1  0  0  0  0
 18 19  1  0  0  0  0
 18 16  1  0  0  0  0
 20 22  1  0  0  0  0
 22 21  1  0  0  0  0
 24 25  1  0  0  0  0
 24 26  1  0  0  0  0
 25 26  1  0  0  0  0
 25 23  1  0  0  0  0
 26 23  1  0  0  0  0
 28 29  1  0  0  0  0
 29 30  1  0  0  0  0
 29 27  1  0  0  0  0
 31 36  1  0  0  0  0
 32 31  2  0  0  0  0
 33 34  2  0  0  0  0
 34 37  1  0  0  0  0
 35 31  1  0  0  0  0
 36 34  1  0  0  0  0
 36 30  1  0  0  0  0
 37 38  1  0  0  0  0
 38 40  1  0  0  0  0
 39 38  2  0  0  0  0
 41 38  1  0  0  0  0
M  END
>  <MODEL>
6

>  <REMARK>
 VINA RESULT:      -3.2      2.202      4.990
  Name = 
  11 active torsions:
  status: ('A' for Active; 'I' for Inactive)
    1  A    between atoms: C_4  and  C_21
    2  A    between atoms: C_13  and  O_18
    3  A    between atoms: O_14  and  C_23
    4  A    between atoms: O_14  and  O_24
    5  A    between atoms: C_15  and  C_37
    6  A    between atoms: O_18  and  P_31
    7  A    between atoms: C_20  and  C_25
    8  A    between atoms: C_26  and  C_39
    9  A    between atoms: N_29  and  C_38
   10  A    between atoms: C_38  and  C_40
   11  A    between atoms: C_39  and  C_40
                            x       y       z     vdW  Elec       q    Type
                         _______ _______ _______ _____ _____    ______ ____

>  <TORSDO>
F 11

$$$$
=
 OpenBabel11072413273D

 41 45  0  0  1  0  0  0  0  0999 V2000
  161.1580  207.5930  155.5160 C   0  0  2  0  0  3  0  0  0  0  0  0
  161.5860  210.1690  156.0530 C   0  0  0  0  0  0  0  0  0  0  0  0
  161.0220  207.1070  156.8460 N   0  0  0  0  0  1  0  0  0  0  0  0
  160.5120  209.0510  153.0730 C   0  0  1  0  0  3  0  0  0  0  0  0
  160.6930  207.5060  152.9810 C   0  0  2  0  0  3  0  0  0  0  0  0
  161.4730  208.8580  155.2950 C   0  0  2  0  0  3  0  0  0  0  0  0
  161.5700  209.6160  154.0320 C   0  0  2  0  0  3  0  0  0  0  0  0
  160.5810  206.8040  154.3640 C   0  0  0  0  0  2  0  0  0  0  0  0
  161.7150  210.5080  157.2580 O   0  0  0  0  0  0  0  0  0  0  0  0
  161.3700  210.8810  154.7500 C   0  0  1  0  0  3  0  0  0  0  0  0
  157.2970  212.1430  154.5080 C   0  0  1  0  0  3  0  0  0  0  0  0
  155.9380  212.0480  154.2100 O   0  0  0  0  0  1  0  0  0  0  0  0
  159.2720  211.0400  153.4750 O   0  0  0  0  0  0  0  0  0  0  0  0
  157.6430  211.1500  155.6110 C   0  0  0  0  0  2  0  0  0  0  0  0
  159.9490  211.4740  154.6380 C   0  0  1  0  0  3  0  0  0  0  0  0
  158.1330  211.8560  153.2480 C   0  0  2  0  0  3  0  0  0  0  0  0
  159.1410  211.1700  155.9060 C   0  0  1  0  0  3  0  0  0  0  0  0
  158.4940  213.1400  152.5170 C   0  0  0  0  0  2  0  0  0  0  0  0
  158.0300  213.0780  151.2020 O   0  0  0  0  0  1  0  0  0  0  0  0
  159.4110  212.1430  156.8740 O   0  0  0  0  0  0  0  0  0  0  0  0
  160.0960  214.1610  156.5980 C   0  0  0  0  0  1  0  0  0  0  0  0
  159.0490  213.2840  156.3210 O   0  0  0  0  0  0  0  0  0  0  0  0
  160.6390  209.6950  151.6930 C   0  0  1  0  0  3  0  0  0  0  0  0
  162.4850  210.7290  150.4320 C   0  0  0  0  0  2  0  0  0  0  0  0
  161.6950  210.7850  151.7260 C   0  0  2  0  0  3  0  0  0  0  0  0
  162.0170  209.4530  151.1060 C   0  0  1  0  0  3  0  0  0  0  0  0
  162.0120  207.1250  152.3080 C   0  0  0  0  0  2  0  0  0  0  0  0
  161.5200  204.7820  152.1540 O   0  0  0  0  0  1  0  0  0  0  0  0
  161.8420  205.9150  151.4000 C   0  0  1  0  0  3  0  0  0  0  0  0
  160.7780  206.1770  150.3320 C   0  0  0  0  0  2  0  0  0  0  0  0
  161.8840  206.7700  148.1620 C   0  0  0  0  0  0  0  0  0  0  0  0
  162.3620  206.4350  146.9000 O   0  0  0  0  0  0  0  0  0  0  0  0
  161.2830  204.0780  147.3850 O   0  0  0  0  0  0  0  0  0  0  0  0
  161.0460  204.4240  148.5750 C   0  0  0  0  0  0  0  0  0  0  0  0
  162.0320  207.9520  148.5710 O   0  0  0  0  0  1  0  0  0  0  0  0
  161.2320  205.7900  148.9940 N   0  0  0  0  0  0  0  0  0  0  0  0
  160.5820  203.4800  149.4980 O   0  0  0  0  0  0  0  0  0  0  0  0
  160.4750  201.8030  149.1380 P   0  0  0  0  0  0  0  0  0  0  0  0
  160.9590  201.5510  147.5370 O   0  0  0  0  0  0  0  0  0  0  0  0
  161.4910  200.9350  150.1760 O   0  0  0  0  0  1  0  0  0  0  0  0
  159.0530  201.3270  149.3050 O   0  0  0  0  0  1  0  0  0  0  0  0
  1  3  1  1  0  0  0
  2  9  2  0  0  0  0
  4 23  1  6  0  0  0
  4  7  1  0  0  0  0
  5 27  1  1  0  0  0
  5  4  1  0  0  0  0
  5  8  1  0  0  0  0
  6  1  1  0  0  0  0
  6  2  1  1  0  0  0
  7 10  1  0  0  0  0
  7  6  1  0  0  0  0
  8  1  1  0  0  0  0
 10  2  1  0  0  0  0
 11 14  1  0  0  0  0
 12 11  1  0  0  0  0
 13 15  1  0  0  0  0
 14 17  1  0  0  0  0
 15 10  1  0  0  0  0
 15 17  1  0  0  0  0
 16 13  1  0  0  0  0
 16 11  1  0  0  0  0
 17 20  1  0  0  0  0
 18 16  1  0  0  0  0
 19 18  1  0  0  0  0
 22 21  1  0  0  0  0
 22 20  1  0  0  0  0
 23 25  1  0  0  0  0
 24 26  1  0  0  0  0
 24 25  1  0  0  0  0
 26 23  1  0  0  0  0
 26 25  1  0  0  0  0
 29 28  1  0  0  0  0
 29 27  1  0  0  0  0
 30 29  1  0  0  0  0
 31 35  1  0  0  0  0
 31 36  1  0  0  0  0
 32 31  2  0  0  0  0
 33 34  2  0  0  0  0
 34 36  1  0  0  0  0
 34 37  1  0  0  0  0
 36 30  1  0  0  0  0
 38 41  1  0  0  0  0
 38 37  1  0  0  0  0
 38 40  1  0  0  0  0
 39 38  2  0  0  0  0
M  END
>  <MODEL>
7

>  <REMARK>
 VINA RESULT:      -2.7      2.117      4.539
  Name = 
  11 active torsions:
  status: ('A' for Active; 'I' for Inactive)
    1  A    between atoms: C_4  and  C_21
    2  A    between atoms: C_13  and  O_18
    3  A    between atoms: O_14  and  C_23
    4  A    between atoms: O_14  and  O_24
    5  A    between atoms: C_15  and  C_37
    6  A    between atoms: O_18  and  P_31
    7  A    between atoms: C_20  and  C_25
    8  A    between atoms: C_26  and  C_39
    9  A    between atoms: N_29  and  C_38
   10  A    between atoms: C_38  and  C_40
   11  A    between atoms: C_39  and  C_40
                            x       y       z     vdW  Elec       q    Type
                         _______ _______ _______ _____ _____    ______ ____

>  <TORSDO>
F 11

$$$$
=
 OpenBabel11072413273D

 41 45  0  0  1  0  0  0  0  0999 V2000
  161.2080  207.7880  155.6060 C   0  0  2  0  0  3  0  0  0  0  0  0
  161.7410  210.3720  155.9890 C   0  0  0  0  0  0  0  0  0  0  0  0
  161.1350  207.3720  156.9640 N   0  0  0  0  0  1  0  0  0  0  0  0
  160.4650  209.1470  153.1330 C   0  0  1  0  0  3  0  0  0  0  0  0
  160.5950  207.5950  153.1090 C   0  0  2  0  0  3  0  0  0  0  0  0
  161.5470  209.0300  155.3050 C   0  0  2  0  0  3  0  0  0  0  0  0
  161.5930  209.7240  154.0030 C   0  0  2  0  0  3  0  0  0  0  0  0
  160.5420  206.9640  154.5290 C   0  0  0  0  0  2  0  0  0  0  0  0
  161.9490  210.7640  157.1660 O   0  0  0  0  0  0  0  0  0  0  0  0
  161.4710  211.0270  154.6660 C   0  0  1  0  0  3  0  0  0  0  0  0
  157.4270  212.3990  154.5630 C   0  0  1  0  0  3  0  0  0  0  0  0
  156.0580  212.3450  154.3050 O   0  0  0  0  0  1  0  0  0  0  0  0
  159.3410  211.2590  153.4580 O   0  0  0  0  0  0  0  0  0  0  0  0
  157.7790  211.3820  155.6430 C   0  0  0  0  0  2  0  0  0  0  0  0
  160.0630  211.6590  154.6050 C   0  0  1  0  0  3  0  0  0  0  0  0
  158.2170  212.1080  153.2760 C   0  0  2  0  0  3  0  0  0  0  0  0
  159.2860  211.3580  155.8930 C   0  0  1  0  0  3  0  0  0  0  0  0
  158.5910  213.3920  152.5510 C   0  0  0  0  0  2  0  0  0  0  0  0
  159.6470  213.1460  151.6720 O   0  0  0  0  0  1  0  0  0  0  0  0
  159.6100  212.3110  156.8650 O   0  0  0  0  0  0  0  0  0  0  0  0
  159.4450  214.4530  156.8200 C   0  0  0  0  0  1  0  0  0  0  0  0
  160.0340  213.3600  156.1880 O   0  0  0  0  0  0  0  0  0  0  0  0
  160.5310  209.7200  151.7190 C   0  0  1  0  0  3  0  0  0  0  0  0
  162.3330  210.0630  150.0760 C   0  0  0  0  0  2  0  0  0  0  0  0
  161.8790  210.3770  151.4890 C   0  0  2  0  0  3  0  0  0  0  0  0
  161.6000  209.0220  150.9000 C   0  0  1  0  0  3  0  0  0  0  0  0
  161.8620  207.1390  152.3820 C   0  0  0  0  0  2  0  0  0  0  0  0
  161.8410  204.9150  153.2800 O   0  0  0  0  0  1  0  0  0  0  0  0
  161.8260  205.6460  152.0880 C   0  0  1  0  0  3  0  0  0  0  0  0
  160.6030  205.2840  151.2430 C   0  0  0  0  0  2  0  0  0  0  0  0
  160.8250  202.7900  151.1120 C   0  0  0  0  0  0  0  0  0  0  0  0
  160.9910  201.6120  150.3910 O   0  0  0  0  0  0  0  0  0  0  0  0
  161.3160  203.2120  148.3200 O   0  0  0  0  0  0  0  0  0  0  0  0
  160.9800  204.2040  149.0240 C   0  0  0  0  0  0  0  0  0  0  0  0
  160.6740  202.7210  152.3600 O   0  0  0  0  0  1  0  0  0  0  0  0
  160.8200  204.0720  150.4500 N   0  0  0  0  0  0  0  0  0  0  0  0
  160.7760  205.4500  148.4240 O   0  0  0  0  0  0  0  0  0  0  0  0
  161.8260  206.0860  147.2210 P   0  0  0  0  0  0  0  0  0  0  0  0
  162.6950  207.3800  147.8760 O   0  0  0  0  0  1  0  0  0  0  0  0
  162.9030  204.8820  146.7170 O   0  0  0  0  0  1  0  0  0  0  0  0
  161.0240  206.5760  146.0400 O   0  0  0  0  0  0  0  0  0  0  0  0
  1  3  1  1  0  0  0
  2  9  2  0  0  0  0
  4 23  1  6  0  0  0
  4  7  1  0  0  0  0
  5 27  1  1  0  0  0
  5  4  1  0  0  0  0
  5  8  1  0  0  0  0
  6  1  1  0  0  0  0
  6  2  1  1  0  0  0
  7 10  1  0  0  0  0
  7  6  1  0  0  0  0
  8  1  1  0  0  0  0
 10  2  1  0  0  0  0
 11 14  1  0  0  0  0
 12 11  1  0  0  0  0
 13 15  1  0  0  0  0
 14 17  1  0  0  0  0
 15 10  1  0  0  0  0
 15 17  1  0  0  0  0
 16 13  1  0  0  0  0
 16 11  1  0  0  0  0
 17 20  1  0  0  0  0
 18 16  1  0  0  0  0
 19 18  1  0  0  0  0
 22 21  1  0  0  0  0
 22 20  1  0  0  0  0
 24 26  1  0  0  0  0
 24 25  1  0  0  0  0
 25 23  1  0  0  0  0
 26 25  1  0  0  0  0
 26 23  1  0  0  0  0
 29 27  1  0  0  0  0
 29 28  1  0  0  0  0
 30 29  1  0  0  0  0
 31 35  1  0  0  0  0
 32 31  2  0  0  0  0
 33 34  2  0  0  0  0
 34 36  1  0  0  0  0
 36 31  1  0  0  0  0
 36 30  1  0  0  0  0
 37 34  1  0  0  0  0
 38 39  1  0  0  0  0
 38 37  1  0  0  0  0
 40 38  1  0  0  0  0
 41 38  2  0  0  0  0
M  END
>  <MODEL>
8

>  <REMARK>
 VINA RESULT:      -2.7      1.824      3.790
  Name = 
  11 active torsions:
  status: ('A' for Active; 'I' for Inactive)
    1  A    between atoms: C_4  and  C_21
    2  A    between atoms: C_13  and  O_18
    3  A    between atoms: O_14  and  C_23
    4  A    between atoms: O_14  and  O_24
    5  A    between atoms: C_15  and  C_37
    6  A    between atoms: O_18  and  P_31
    7  A    between atoms: C_20  and  C_25
    8  A    between atoms: C_26  and  C_39
    9  A    between atoms: N_29  and  C_38
   10  A    between atoms: C_38  and  C_40
   11  A    between atoms: C_39  and  C_40
                            x       y       z     vdW  Elec       q    Type
                         _______ _______ _______ _____ _____    ______ ____

>  <TORSDO>
F 11

$$$$
=
 OpenBabel11072413273D

 41 45  0  0  1  0  0  0  0  0999 V2000
  161.7950  209.6040  149.9250 C   0  0  2  0  0  3  0  0  0  0  0  0
  160.3030  210.4190  151.9780 C   0  0  0  0  0  0  0  0  0  0  0  0
  161.9620  210.8500  149.2610 N   0  0  0  0  0  1  0  0  0  0  0  0
  162.0740  207.5640  151.9930 C   0  0  1  0  0  3  0  0  0  0  0  0
  162.5450  207.2160  150.5490 C   0  0  2  0  0  3  0  0  0  0  0  0
  161.0230  209.5130  150.9950 C   0  0  2  0  0  3  0  0  0  0  0  0
  160.7750  208.3790  151.9060 C   0  0  2  0  0  3  0  0  0  0  0  0
  162.7720  208.4790  149.6700 C   0  0  0  0  0  2  0  0  0  0  0  0
  159.9110  211.6140  151.9850 O   0  0  0  0  0  0  0  0  0  0  0  0
  160.3620  209.2970  152.9730 C   0  0  1  0  0  3  0  0  0  0  0  0
  163.0140  210.1830  156.2020 C   0  0  1  0  0  3  0  0  0  0  0  0
  163.5700  210.9300  157.2400 O   0  0  0  0  0  1  0  0  0  0  0  0
  161.8260  210.8950  154.1370 O   0  0  0  0  0  0  0  0  0  0  0  0
  161.5900  209.7830  156.5740 C   0  0  0  0  0  2  0  0  0  0  0  0
  161.4250  209.5420  154.0670 C   0  0  1  0  0  3  0  0  0  0  0  0
  163.0170  211.0060  154.9020 C   0  0  2  0  0  3  0  0  0  0  0  0
  160.9220  209.0320  155.4240 C   0  0  1  0  0  3  0  0  0  0  0  0
  164.2550  210.7180  154.0660 C   0  0  0  0  0  2  0  0  0  0  0  0
  165.3950  211.1210  154.7620 O   0  0  0  0  0  1  0  0  0  0  0  0
  161.1990  207.6650  155.5390 O   0  0  0  0  0  0  0  0  0  0  0  0
  160.1180  206.8790  157.2210 C   0  0  0  0  0  1  0  0  0  0  0  0
  160.0450  207.1080  155.8490 O   0  0  0  0  0  0  0  0  0  0  0  0
  161.8570  206.2940  152.8140 C   0  0  1  0  0  3  0  0  0  0  0  0
  160.9060  204.0720  152.3410 C   0  0  0  0  0  2  0  0  0  0  0  0
  160.6230  205.5620  152.3190 C   0  0  2  0  0  3  0  0  0  0  0  0
  161.9900  205.0570  151.9460 C   0  0  1  0  0  3  0  0  0  0  0  0
  161.5800  206.2580  149.8480 C   0  0  0  0  0  2  0  0  0  0  0  0
  162.6370  206.5290  147.7120 O   0  0  0  0  0  1  0  0  0  0  0  0
  161.4110  206.6180  148.3790 C   0  0  1  0  0  3  0  0  0  0  0  0
  160.3640  205.7240  147.7130 C   0  0  0  0  0  2  0  0  0  0  0  0
  160.7870  205.7510  145.2430 C   0  0  0  0  0  0  0  0  0  0  0  0
  161.2990  205.1800  144.0820 O   0  0  0  0  0  0  0  0  0  0  0  0
  161.8330  203.1110  145.6260 O   0  0  0  0  0  0  0  0  0  0  0  0
  161.5070  203.7780  146.6460 C   0  0  0  0  0  0  0  0  0  0  0  0
  160.2380  206.8820  145.1710 O   0  0  0  0  0  1  0  0  0  0  0  0
  160.8820  205.0690  146.5100 N   0  0  0  0  0  0  0  0  0  0  0  0
  161.7360  203.2580  147.9240 O   0  0  0  0  0  0  0  0  0  0  0  0
  160.8620  201.9190  148.5540 P   0  0  0  0  0  0  0  0  0  0  0  0
  161.9340  200.6390  148.8220 O   0  0  0  0  0  1  0  0  0  0  0  0
  160.1300  202.3570  150.0140 O   0  0  0  0  0  1  0  0  0  0  0  0
  159.8060  201.4810  147.5680 O   0  0  0  0  0  0  0  0  0  0  0  0
  1  3  1  1  0  0  0
  1  6  1  0  0  0  0
  2  9  2  0  0  0  0
  2 10  1  0  0  0  0
  4 23  1  1  0  0  0
  5 27  1  6  0  0  0
  5  4  1  0  0  0  0
  6  7  1  0  0  0  0
  6  2  1  1  0  0  0
  7  4  1  0  0  0  0
  7 10  1  0  0  0  0
  8  1  1  0  0  0  0
  8  5  1  0  0  0  0
 10 15  1  0  0  0  0
 11 14  1  0  0  0  0
 11 12  1  0  0  0  0
 13 16  1  0  0  0  0
 15 13  1  0  0  0  0
 15 17  1  0  0  0  0
 16 11  1  0  0  0  0
 17 20  1  0  0  0  0
 17 14  1  0  0  0  0
 18 19  1  0  0  0  0
 18 16  1  0  0  0  0
 20 22  1  0  0  0  0
 22 21  1  0  0  0  0
 25 24  1  0  0  0  0
 25 23  1  0  0  0  0
 26 25  1  0  0  0  0
 26 24  1  0  0  0  0
 26 23  1  0  0  0  0
 28 29  1  0  0  0  0
 29 27  1  0  0  0  0
 30 29  1  0  0  0  0
 31 36  1  0  0  0  0
 32 31  2  0  0  0  0
 33 34  2  0  0  0  0
 34 37  1  0  0  0  0
 35 31  1  0  0  0  0
 36 34  1  0  0  0  0
 36 30  1  0  0  0  0
 37 38  1  0  0  0  0
 38 39  1  0  0  0  0
 38 40  1  0  0  0  0
 41 38  2  0  0  0  0
M  END
>  <MODEL>
9

>  <REMARK>
 VINA RESULT:      -2.4      2.233      3.754
  Name = 
  11 active torsions:
  status: ('A' for Active; 'I' for Inactive)
    1  A    between atoms: C_4  and  C_21
    2  A    between atoms: C_13  and  O_18
    3  A    between atoms: O_14  and  C_23
    4  A    between atoms: O_14  and  O_24
    5  A    between atoms: C_15  and  C_37
    6  A    between atoms: O_18  and  P_31
    7  A    between atoms: C_20  and  C_25
    8  A    between atoms: C_26  and  C_39
    9  A    between atoms: N_29  and  C_38
   10  A    between atoms: C_38  and  C_40
   11  A    between atoms: C_39  and  C_40
                            x       y       z     vdW  Elec       q    Type
                         _______ _______ _______ _____ _____    ______ ____

>  <TORSDO>
F 11

$$$$
