=
 OpenBabel11072411073D

 46 49  0  0  1  0  0  0  0  0999 V2000
  160.5090  209.1960  153.1560 C   0  0  0  0  0  0  0  0  0  0  0  0
  159.4620  209.1820  152.4530 O   0  0  0  0  0  0  0  0  0  0  0  0
  162.6800  206.0910  152.0690 C   0  0  0  0  0  2  0  0  0  0  0  0
  162.8690  210.3070  150.2040 C   0  0  0  0  0  1  0  0  0  0  0  0
  162.1080  208.1560  149.2400 C   0  0  2  0  0  3  0  0  0  0  0  0
  161.6320  208.3240  152.7320 C   0  0  1  0  0  3  0  0  0  0  0  0
  161.9880  206.7990  153.6080 S   0  0  0  0  0  0  0  0  0  0  0  0
  162.2390  208.3700  151.5510 C   0  0  1  0  0  3  0  0  0  0  0  0
  162.9070  207.0350  149.7690 N   0  0  0  0  0  2  0  0  0  0  0  0
  162.8920  207.2010  151.1600 N   0  0  2  0  0  0  0  0  0  0  0  0
  161.8790  209.1700  150.3710 C   0  0  1  0  0  3  0  0  0  0  0  0
  160.7730  207.6250  148.7400 C   0  0  0  0  0  2  0  0  0  0  0  0
  160.9640  206.8060  147.4750 C   0  0  0  0  0  2  0  0  0  0  0  0
  161.5360  203.0300  147.3020 C   0  0  0  0  0  3  0  0  0  0  0  0
  161.4840  204.3710  146.8850 C   0  0  0  0  0  0  0  0  0  0  0  0
  160.7390  203.6340  149.5010 C   0  0  0  0  0  3  0  0  0  0  0  0
  160.6810  204.9710  149.1080 C   0  0  0  0  0  3  0  0  0  0  0  0
  161.0430  205.3520  147.8100 C   0  0  0  0  0  0  0  0  0  0  0  0
  161.1610  202.6610  148.5950 C   0  0  0  0  0  0  0  0  0  0  0  0
  161.3910  204.0440  144.5310 O   0  0  0  0  0  0  0  0  0  0  0  0
  161.8930  204.6850  145.4930 C   0  0  0  0  0  0  0  0  0  0  0  0
  162.8200  205.6810  145.2150 O   0  0  0  0  0  1  0  0  0  0  0  0
  161.2420  201.2350  149.0170 C   0  0  0  0  0  2  0  0  0  0  0  0
  160.1370  200.9190  150.0070 C   0  0  0  0  0  1  0  0  0  0  0  0
  161.9570  210.6620  154.6000 C   0  0  0  0  0  1  0  0  0  0  0  0
  158.5470  211.1290  155.3490 C   0  0  2  0  0  3  0  0  0  0  0  0
  159.2030  210.2850  156.4380 C   0  0  1  0  0  3  0  0  0  0  0  0
  160.0660  209.3360  155.6280 C   0  0  1  0  0  3  0  0  0  0  0  0
  160.0020  211.0870  157.2610 O   0  0  0  0  0  1  0  0  0  0  0  0
  159.5770  211.2460  154.2280 C   0  0  0  0  0  2  0  0  0  0  0  0
  160.5600  210.0890  154.3810 C   0  0  2  0  0  0  0  0  0  0  0  0
  160.3990  207.4370  157.1040 O   0  0  0  0  0  1  0  0  0  0  0  0
  161.0520  208.4510  156.4000 C   0  0  0  0  0  2  0  0  0  0  0  0
  158.0370  212.4990  155.8290 C   0  0  1  0  0  3  0  0  0  0  0  0
  158.5150  214.0040  154.0330 O   0  0  0  0  0  0  0  0  0  0  0  0
  158.7970  213.6350  155.2020 C   0  0  0  0  0  0  0  0  0  0  0  0
  159.8160  214.2740  155.8980 O   0  0  0  0  0  1  0  0  0  0  0  0
  156.5150  212.6370  155.6550 C   0  0  1  0  0  3  0  0  0  0  0  0
  155.7730  211.7480  156.6470 C   0  0  0  0  0  2  0  0  0  0  0  0
  155.0880  210.6240  155.9480 C   0  0  0  0  0  0  0  0  0  0  0  0
  154.1080  209.8910  156.6040 O   0  0  0  0  0  1  0  0  0  0  0  0
  155.4080  210.3300  154.7670 O   0  0  0  0  0  0  0  0  0  0  0  0
  156.0490  214.0920  155.7400 C   0  0  0  0  0  2  0  0  0  0  0  0
  155.1440  214.4530  154.5700 C   0  0  0  0  0  2  0  0  0  0  0  0
  155.3080  213.4690  153.4220 C   0  0  0  0  0  2  0  0  0  0  0  0
  154.9850  214.1150  152.1610 N   0  0  0  0  0  1  0  0  0  0  0  0
  1 31  1  0  0  0  0
  2  1  2  0  0  0  0
  3  7  1  0  0  0  0
  4 11  1  0  0  0  0
  5 12  1  1  0  0  0
  5  9  1  0  0  0  0
  5 11  1  0  0  0  0
  6  1  1  6  0  0  0
  6  7  1  0  0  0  0
  8  6  1  0  0  0  0
  9 10  1  0  0  0  0
 10  8  1  0  0  0  0
 10  3  1  0  0  0  0
 11  8  1  0  0  0  0
 13 18  1  0  0  0  0
 13 12  1  0  0  0  0
 14 19  1  0  0  0  0
 15 14  2  0  0  0  0
 15 18  1  0  0  0  0
 17 16  1  0  0  0  0
 18 17  2  0  0  0  0
 19 23  1  0  0  0  0
 19 16  2  0  0  0  0
 20 21  2  0  0  0  0
 21 15  1  0  0  0  0
 22 21  1  0  0  0  0
 23 24  1  0  0  0  0
 26 34  1  0  0  0  0
 26 27  1  0  0  0  0
 27 29  1  0  0  0  0
 28 33  1  0  0  0  0
 28 27  1  0  0  0  0
 30 31  1  0  0  0  0
 30 26  1  0  0  0  0
 31 25  1  0  0  0  0
 31 28  1  0  0  0  0
 33 32  1  0  0  0  0
 35 36  2  0  0  0  0
 36 34  1  0  0  0  0
 36 37  1  0  0  0  0
 38 43  1  0  0  0  0
 38 34  1  0  0  0  0
 38 39  1  0  0  0  0
 40 41  1  0  0  0  0
 40 39  1  0  0  0  0
 42 40  2  0  0  0  0
 44 43  1  0  0  0  0
 45 44  1  0  0  0  0
 46 45  1  0  0  0  0
M  END
>  <MODEL>
1

>  <REMARK>
 VINA RESULT:      -5.5      0.000      0.000
  Name = 
  16 active torsions:
  status: ('A' for Active; 'I' for Inactive)
    1  A    between atoms: C_2  and  C_45
    2  A    between atoms: C_5  and  C_22
    3  A    between atoms: C_5  and  C_23
    4  A    between atoms: C_7  and  C_15
    5  A    between atoms: C_8  and  C_24
    6  A    between atoms: C_8  and  C_31
    7  A    between atoms: C_9  and  C_44
    8  A    between atoms: C_11  and  C_13
    9  A    between atoms: C_11  and  C_35
   10  A    between atoms: C_13  and  C_15
   11  A    between atoms: C_13  and  C_34
   12  A    between atoms: C_14  and  C_15
   13  A    between atoms: C_16  and  C_25
   14  A    between atoms: C_19  and  C_27
   15  A    between atoms: C_23  and  C_39
   16  A    between atoms: C_25  and  C_34
                            x       y       z     vdW  Elec       q    Type
                         _______ _______ _______ _____ _____    ______ ____

>  <TORSDO>
F 16

$$$$
=
 OpenBabel11072411073D

 46 49  0  0  1  0  0  0  0  0999 V2000
  160.5490  209.1130  152.8170 C   0  0  0  0  0  0  0  0  0  0  0  0
  159.3990  208.6880  152.5180 O   0  0  0  0  0  0  0  0  0  0  0  0
  162.8740  206.1330  151.6990 C   0  0  0  0  0  2  0  0  0  0  0  0
  162.8280  210.3640  149.8580 C   0  0  0  0  0  1  0  0  0  0  0  0
  162.1770  208.1800  148.8860 C   0  0  2  0  0  3  0  0  0  0  0  0
  161.7140  208.3050  152.3810 C   0  0  1  0  0  3  0  0  0  0  0  0
  162.1550  206.7960  153.2460 S   0  0  0  0  0  0  0  0  0  0  0  0
  162.3110  208.3890  151.1970 C   0  0  1  0  0  3  0  0  0  0  0  0
  163.0380  207.1010  149.4040 N   0  0  0  0  0  2  0  0  0  0  0  0
  163.0220  207.2580  150.7960 N   0  0  2  0  0  0  0  0  0  0  0  0
  161.9010  209.1750  150.0240 C   0  0  1  0  0  3  0  0  0  0  0  0
  160.8690  207.5820  148.3900 C   0  0  0  0  0  2  0  0  0  0  0  0
  161.1200  206.6370  147.2270 C   0  0  0  0  0  2  0  0  0  0  0  0
  161.4470  202.8340  147.4280 C   0  0  0  0  0  3  0  0  0  0  0  0
  161.4890  204.1290  146.8840 C   0  0  0  0  0  0  0  0  0  0  0  0
  160.6600  203.6980  149.5420 C   0  0  0  0  0  3  0  0  0  0  0  0
  160.6950  204.9910  149.0230 C   0  0  0  0  0  3  0  0  0  0  0  0
  161.1000  205.2210  147.7020 C   0  0  0  0  0  0  0  0  0  0  0  0
  161.0310  202.6160  148.7430 C   0  0  0  0  0  0  0  0  0  0  0  0
  161.0900  204.2770  144.5440 O   0  0  0  0  0  0  0  0  0  0  0  0
  161.9370  204.2800  145.4770 C   0  0  0  0  0  0  0  0  0  0  0  0
  163.2790  204.4320  145.1540 O   0  0  0  0  0  1  0  0  0  0  0  0
  161.0120  201.2360  149.3000 C   0  0  0  0  0  2  0  0  0  0  0  0
  161.4190  200.2360  148.2340 C   0  0  0  0  0  1  0  0  0  0  0  0
  162.1290  210.7320  153.9160 C   0  0  0  0  0  1  0  0  0  0  0  0
  158.9140  212.1330  153.5930 C   0  0  2  0  0  3  0  0  0  0  0  0
  159.1500  211.7130  155.0400 C   0  0  1  0  0  3  0  0  0  0  0  0
  159.8190  210.3610  154.8740 C   0  0  1  0  0  3  0  0  0  0  0  0
  160.0170  212.6110  155.6740 O   0  0  0  0  0  1  0  0  0  0  0  0
  160.0820  211.5630  152.7920 C   0  0  0  0  0  2  0  0  0  0  0  0
  160.6730  210.4080  153.5960 C   0  0  2  0  0  0  0  0  0  0  0  0
  159.6160  209.9570  157.2600 O   0  0  0  0  0  1  0  0  0  0  0  0
  160.4020  209.7070  156.1330 C   0  0  0  0  0  2  0  0  0  0  0  0
  158.7420  213.6490  153.3920 C   0  0  1  0  0  3  0  0  0  0  0  0
  160.1380  214.3640  151.5870 O   0  0  0  0  0  1  0  0  0  0  0  0
  158.9780  214.0580  151.9650 C   0  0  0  0  0  0  0  0  0  0  0  0
  157.9230  214.1120  151.0610 O   0  0  0  0  0  0  0  0  0  0  0  0
  157.3960  214.1510  153.9390 C   0  0  1  0  0  3  0  0  0  0  0  0
  156.2720  213.1800  153.5900 C   0  0  0  0  0  2  0  0  0  0  0  0
  155.1150  213.8980  152.9870 C   0  0  0  0  0  0  0  0  0  0  0  0
  155.0520  214.0870  151.6130 O   0  0  0  0  0  0  0  0  0  0  0  0
  154.1990  214.3460  153.7240 O   0  0  0  0  0  1  0  0  0  0  0  0
  157.4480  214.4390  155.4410 C   0  0  0  0  0  2  0  0  0  0  0  0
  156.2130  213.9000  156.1520 C   0  0  0  0  0  2  0  0  0  0  0  0
  156.5000  212.5630  156.8180 C   0  0  0  0  0  2  0  0  0  0  0  0
  155.2580  211.9450  157.2520 N   0  0  0  0  0  1  0  0  0  0  0  0
  1 31  1  0  0  0  0
  2  1  2  0  0  0  0
  3  7  1  0  0  0  0
  4 11  1  0  0  0  0
  5 12  1  1  0  0  0
  5  9  1  0  0  0  0
  5 11  1  0  0  0  0
  6  1  1  6  0  0  0
  6  7  1  0  0  0  0
  8  6  1  0  0  0  0
  9 10  1  0  0  0  0
 10  8  1  0  0  0  0
 10  3  1  0  0  0  0
 11  8  1  0  0  0  0
 13 18  1  0  0  0  0
 13 12  1  0  0  0  0
 14 19  1  0  0  0  0
 15 14  2  0  0  0  0
 15 18  1  0  0  0  0
 17 16  1  0  0  0  0
 18 17  2  0  0  0  0
 19 23  1  0  0  0  0
 19 16  2  0  0  0  0
 20 21  2  0  0  0  0
 21 15  1  0  0  0  0
 22 21  1  0  0  0  0
 24 23  1  0  0  0  0
 26 27  1  0  0  0  0
 27 29  1  0  0  0  0
 28 27  1  0  0  0  0
 28 33  1  0  0  0  0
 30 26  1  0  0  0  0
 30 31  1  0  0  0  0
 31 25  1  0  0  0  0
 31 28  1  0  0  0  0
 33 32  1  0  0  0  0
 34 26  1  0  0  0  0
 34 38  1  0  0  0  0
 35 36  1  0  0  0  0
 36 34  1  0  0  0  0
 37 36  2  0  0  0  0
 38 43  1  0  0  0  0
 39 38  1  0  0  0  0
 40 39  1  0  0  0  0
 40 42  1  0  0  0  0
 41 40  2  0  0  0  0
 43 44  1  0  0  0  0
 44 45  1  0  0  0  0
 45 46  1  0  0  0  0
M  END
>  <MODEL>
2

>  <REMARK>
 VINA RESULT:      -4.6      1.658      2.289
  Name = 
  16 active torsions:
  status: ('A' for Active; 'I' for Inactive)
    1  A    between atoms: C_2  and  C_45
    2  A    between atoms: C_5  and  C_22
    3  A    between atoms: C_5  and  C_23
    4  A    between atoms: C_7  and  C_15
    5  A    between atoms: C_8  and  C_24
    6  A    between atoms: C_8  and  C_31
    7  A    between atoms: C_9  and  C_44
    8  A    between atoms: C_11  and  C_13
    9  A    between atoms: C_11  and  C_35
   10  A    between atoms: C_13  and  C_15
   11  A    between atoms: C_13  and  C_34
   12  A    between atoms: C_14  and  C_15
   13  A    between atoms: C_16  and  C_25
   14  A    between atoms: C_19  and  C_27
   15  A    between atoms: C_23  and  C_39
   16  A    between atoms: C_25  and  C_34
                            x       y       z     vdW  Elec       q    Type
                         _______ _______ _______ _____ _____    ______ ____

>  <TORSDO>
F 16

$$$$
=
 OpenBabel11072411073D

 46 49  0  0  1  0  0  0  0  0999 V2000
  161.2060  209.1360  151.5720 C   0  0  0  0  0  0  0  0  0  0  0  0
  160.9290  208.5590  150.4840 O   0  0  0  0  0  0  0  0  0  0  0  0
  160.5070  206.9280  154.7620 C   0  0  0  0  0  2  0  0  0  0  0  0
  163.6410  206.0410  151.4930 C   0  0  0  0  0  1  0  0  0  0  0  0
  161.5700  204.8280  152.1060 C   0  0  2  0  0  3  0  0  0  0  0  0
  161.3690  208.2860  152.7760 C   0  0  1  0  0  3  0  0  0  0  0  0
  160.5330  208.7020  154.3090 S   0  0  0  0  0  0  0  0  0  0  0  0
  161.8230  207.0370  152.7830 C   0  0  1  0  0  3  0  0  0  0  0  0
  161.3320  204.9020  153.5590 N   0  0  0  0  0  2  0  0  0  0  0  0
  161.4450  206.2610  153.8790 N   0  0  2  0  0  0  0  0  0  0  0  0
  162.1370  206.1760  151.6340 C   0  0  1  0  0  3  0  0  0  0  0  0
  160.2530  204.5420  151.3980 C   0  0  0  0  0  2  0  0  0  0  0  0
  160.4110  203.3870  150.4240 C   0  0  0  0  0  2  0  0  0  0  0  0
  161.6370  203.6100  146.8100 C   0  0  0  0  0  3  0  0  0  0  0  0
  161.2230  203.0340  148.0240 C   0  0  0  0  0  0  0  0  0  0  0  0
  161.3570  205.8320  147.7140 C   0  0  0  0  0  3  0  0  0  0  0  0
  160.9430  205.2820  148.9270 C   0  0  0  0  0  3  0  0  0  0  0  0
  160.8760  203.8940  149.0970 C   0  0  0  0  0  0  0  0  0  0  0  0
  161.7100  204.9950  146.6560 C   0  0  0  0  0  0  0  0  0  0  0  0
  161.1500  200.8600  147.0610 O   0  0  0  0  0  0  0  0  0  0  0  0
  161.1760  201.5530  148.1140 C   0  0  0  0  0  0  0  0  0  0  0  0
  161.1650  200.9000  149.3390 O   0  0  0  0  0  1  0  0  0  0  0  0
  162.1360  205.5790  145.3540 C   0  0  0  0  0  2  0  0  0  0  0  0
  161.1580  205.1890  144.2610 C   0  0  0  0  0  1  0  0  0  0  0  0
  162.3570  211.1010  152.6400 C   0  0  0  0  0  1  0  0  0  0  0  0
  160.7330  212.0580  149.6650 C   0  0  2  0  0  3  0  0  0  0  0  0
  159.9240  212.5300  150.8690 C   0  0  1  0  0  3  0  0  0  0  0  0
  159.9870  211.3250  151.7880 C   0  0  1  0  0  3  0  0  0  0  0  0
  160.5420  213.6330  151.4690 O   0  0  0  0  0  1  0  0  0  0  0  0
  161.8200  211.1400  150.2210 C   0  0  0  0  0  2  0  0  0  0  0  0
  161.3520  210.6450  151.5870 C   0  0  2  0  0  0  0  0  0  0  0  0
  158.0840  211.2120  153.2910 O   0  0  0  0  0  1  0  0  0  0  0  0
  159.4480  211.5000  153.2130 C   0  0  0  0  0  2  0  0  0  0  0  0
  161.3030  213.1930  148.7980 C   0  0  1  0  0  3  0  0  0  0  0  0
  163.5560  213.7130  148.1850 O   0  0  0  0  0  1  0  0  0  0  0  0
  162.6480  212.8430  148.2240 C   0  0  0  0  0  0  0  0  0  0  0  0
  162.8950  211.5690  147.7260 O   0  0  0  0  0  0  0  0  0  0  0  0
  160.3030  213.6540  147.7250 C   0  0  1  0  0  3  0  0  0  0  0  0
  159.8450  212.4780  146.8690 C   0  0  0  0  0  2  0  0  0  0  0  0
  160.0830  212.7450  145.4240 C   0  0  0  0  0  0  0  0  0  0  0  0
  159.4930  211.9390  144.4600 O   0  0  0  0  0  0  0  0  0  0  0  0
  160.8310  213.6950  145.0750 O   0  0  0  0  0  1  0  0  0  0  0  0
  159.1170  214.4140  148.3240 C   0  0  0  0  0  2  0  0  0  0  0  0
  157.8100  213.6620  148.1060 C   0  0  0  0  0  2  0  0  0  0  0  0
  156.6260  214.4460  148.6510 C   0  0  0  0  0  2  0  0  0  0  0  0
  155.9660  213.6890  149.7010 N   0  0  0  0  0  1  0  0  0  0  0  0
  1 31  1  0  0  0  0
  2  1  2  0  0  0  0
  4 11  1  0  0  0  0
  5 12  1  6  0  0  0
  5  9  1  0  0  0  0
  6  1  1  6  0  0  0
  6  8  1  0  0  0  0
  6  7  1  0  0  0  0
  7  3  1  0  0  0  0
  8 10  1  0  0  0  0
  9 10  1  0  0  0  0
 10  3  1  0  0  0  0
 11  5  1  0  0  0  0
 11  8  1  0  0  0  0
 13 12  1  0  0  0  0
 14 15  1  0  0  0  0
 15 21  1  0  0  0  0
 15 18  2  0  0  0  0
 16 17  2  0  0  0  0
 17 18  1  0  0  0  0
 18 13  1  0  0  0  0
 19 14  2  0  0  0  0
 19 16  1  0  0  0  0
 20 21  2  0  0  0  0
 21 22  1  0  0  0  0
 23 19  1  0  0  0  0
 24 23  1  0  0  0  0
 26 30  1  0  0  0  0
 26 27  1  0  0  0  0
 27 29  1  0  0  0  0
 27 28  1  0  0  0  0
 28 33  1  0  0  0  0
 30 31  1  0  0  0  0
 31 28  1  0  0  0  0
 31 25  1  0  0  0  0
 33 32  1  0  0  0  0
 34 26  1  0  0  0  0
 35 36  1  0  0  0  0
 36 34  1  0  0  0  0
 37 36  2  0  0  0  0
 38 43  1  0  0  0  0
 38 34  1  0  0  0  0
 39 38  1  0  0  0  0
 40 39  1  0  0  0  0
 41 40  2  0  0  0  0
 42 40  1  0  0  0  0
 44 43  1  0  0  0  0
 44 45  1  0  0  0  0
 45 46  1  0  0  0  0
M  END
>  <MODEL>
3

>  <REMARK>
 VINA RESULT:      -4.6      3.587      5.942
  Name = 
  16 active torsions:
  status: ('A' for Active; 'I' for Inactive)
    1  A    between atoms: C_2  and  C_45
    2  A    between atoms: C_5  and  C_22
    3  A    between atoms: C_5  and  C_23
    4  A    between atoms: C_7  and  C_15
    5  A    between atoms: C_8  and  C_24
    6  A    between atoms: C_8  and  C_31
    7  A    between atoms: C_9  and  C_44
    8  A    between atoms: C_11  and  C_13
    9  A    between atoms: C_11  and  C_35
   10  A    between atoms: C_13  and  C_15
   11  A    between atoms: C_13  and  C_34
   12  A    between atoms: C_14  and  C_15
   13  A    between atoms: C_16  and  C_25
   14  A    between atoms: C_19  and  C_27
   15  A    between atoms: C_23  and  C_39
   16  A    between atoms: C_25  and  C_34
                            x       y       z     vdW  Elec       q    Type
                         _______ _______ _______ _____ _____    ______ ____

>  <TORSDO>
F 16

$$$$
=
 OpenBabel11072411073D

 46 49  0  0  1  0  0  0  0  0999 V2000
  161.3120  209.0410  151.5060 C   0  0  0  0  0  0  0  0  0  0  0  0
  161.1580  208.4770  150.3870 O   0  0  0  0  0  0  0  0  0  0  0  0
  160.3380  206.8160  154.6100 C   0  0  0  0  0  2  0  0  0  0  0  0
  163.6750  205.8890  151.5600 C   0  0  0  0  0  1  0  0  0  0  0  0
  161.5380  204.7200  152.0100 C   0  0  2  0  0  3  0  0  0  0  0  0
  161.3700  208.1740  152.7080 C   0  0  1  0  0  3  0  0  0  0  0  0
  160.4370  208.5930  154.1830 S   0  0  0  0  0  0  0  0  0  0  0  0
  161.7940  206.9140  152.7310 C   0  0  1  0  0  3  0  0  0  0  0  0
  161.2000  204.7840  153.4430 N   0  0  0  0  0  2  0  0  0  0  0  0
  161.3210  206.1360  153.7870 N   0  0  2  0  0  0  0  0  0  0  0  0
  162.1680  206.0590  151.5960 C   0  0  1  0  0  3  0  0  0  0  0  0
  160.2690  204.4730  151.2080 C   0  0  0  0  0  2  0  0  0  0  0  0
  160.4840  204.8270  149.7450 C   0  0  0  0  0  2  0  0  0  0  0  0
  161.4090  202.3910  146.9490 C   0  0  0  0  0  3  0  0  0  0  0  0
  161.2000  203.6130  147.6100 C   0  0  0  0  0  0  0  0  0  0  0  0
  160.7020  201.1590  148.9020 C   0  0  0  0  0  3  0  0  0  0  0  0
  160.4890  202.3600  149.5780 C   0  0  0  0  0  3  0  0  0  0  0  0
  160.7270  203.5870  148.9470 C   0  0  0  0  0  0  0  0  0  0  0  0
  161.1580  201.1730  147.5840 C   0  0  0  0  0  0  0  0  0  0  0  0
  160.5420  205.4980  146.3170 O   0  0  0  0  0  0  0  0  0  0  0  0
  161.4840  204.8660  146.8670 C   0  0  0  0  0  0  0  0  0  0  0  0
  162.7730  205.3720  146.7630 O   0  0  0  0  0  1  0  0  0  0  0  0
  161.4040  199.8930  146.8660 C   0  0  0  0  0  2  0  0  0  0  0  0
  160.7390  199.9210  145.5030 C   0  0  0  0  0  1  0  0  0  0  0  0
  162.4450  211.0020  152.6000 C   0  0  0  0  0  1  0  0  0  0  0  0
  160.7330  212.0000  149.6880 C   0  0  2  0  0  3  0  0  0  0  0  0
  159.9420  212.4230  150.9220 C   0  0  1  0  0  3  0  0  0  0  0  0
  160.0520  211.1960  151.8070 C   0  0  1  0  0  3  0  0  0  0  0  0
  160.5500  213.5230  151.5370 O   0  0  0  0  0  1  0  0  0  0  0  0
  161.8520  211.0930  150.1950 C   0  0  0  0  0  2  0  0  0  0  0  0
  161.4270  210.5520  151.5570 C   0  0  2  0  0  0  0  0  0  0  0  0
  158.1620  211.5230  153.2940 O   0  0  0  0  0  1  0  0  0  0  0  0
  159.5420  211.3220  153.2480 C   0  0  0  0  0  2  0  0  0  0  0  0
  161.2590  213.1700  148.8390 C   0  0  1  0  0  3  0  0  0  0  0  0
  163.4210  213.7490  147.9950 O   0  0  0  0  0  1  0  0  0  0  0  0
  162.5680  212.8420  148.1760 C   0  0  0  0  0  0  0  0  0  0  0  0
  162.8410  211.5460  147.7510 O   0  0  0  0  0  0  0  0  0  0  0  0
  160.2020  213.6780  147.8450 C   0  0  1  0  0  3  0  0  0  0  0  0
  159.6590  212.5330  146.9970 C   0  0  0  0  0  2  0  0  0  0  0  0
  159.7520  212.8520  145.5460 C   0  0  0  0  0  0  0  0  0  0  0  0
  159.0740  213.9480  145.0290 O   0  0  0  0  0  1  0  0  0  0  0  0
  160.4350  212.1200  144.7830 O   0  0  0  0  0  0  0  0  0  0  0  0
  159.0780  214.4520  148.5360 C   0  0  0  0  0  2  0  0  0  0  0  0
  157.7190  213.8170  148.2670 C   0  0  0  0  0  2  0  0  0  0  0  0
  156.6470  214.4020  149.1720 C   0  0  0  0  0  2  0  0  0  0  0  0
  156.5940  213.6670  150.4240 N   0  0  0  0  0  1  0  0  0  0  0  0
  1 31  1  0  0  0  0
  2  1  2  0  0  0  0
  4 11  1  0  0  0  0
  5 12  1  6  0  0  0
  5  9  1  0  0  0  0
  6  1  1  6  0  0  0
  6  8  1  0  0  0  0
  6  7  1  0  0  0  0
  7  3  1  0  0  0  0
  8 10  1  0  0  0  0
  9 10  1  0  0  0  0
 10  3  1  0  0  0  0
 11  5  1  0  0  0  0
 11  8  1  0  0  0  0
 13 12  1  0  0  0  0
 14 19  2  0  0  0  0
 14 15  1  0  0  0  0
 15 18  2  0  0  0  0
 16 17  2  0  0  0  0
 18 17  1  0  0  0  0
 18 13  1  0  0  0  0
 19 16  1  0  0  0  0
 20 21  2  0  0  0  0
 21 15  1  0  0  0  0
 22 21  1  0  0  0  0
 23 19  1  0  0  0  0
 24 23  1  0  0  0  0
 26 30  1  0  0  0  0
 26 27  1  0  0  0  0
 27 29  1  0  0  0  0
 27 28  1  0  0  0  0
 28 33  1  0  0  0  0
 30 31  1  0  0  0  0
 31 28  1  0  0  0  0
 31 25  1  0  0  0  0
 33 32  1  0  0  0  0
 34 26  1  0  0  0  0
 35 36  1  0  0  0  0
 36 34  1  0  0  0  0
 37 36  2  0  0  0  0
 38 43  1  0  0  0  0
 38 34  1  0  0  0  0
 39 38  1  0  0  0  0
 40 39  1  0  0  0  0
 41 40  1  0  0  0  0
 42 40  2  0  0  0  0
 44 43  1  0  0  0  0
 44 45  1  0  0  0  0
 45 46  1  0  0  0  0
M  END
>  <MODEL>
4

>  <REMARK>
 VINA RESULT:      -4.3      3.520      5.618
  Name = 
  16 active torsions:
  status: ('A' for Active; 'I' for Inactive)
    1  A    between atoms: C_2  and  C_45
    2  A    between atoms: C_5  and  C_22
    3  A    between atoms: C_5  and  C_23
    4  A    between atoms: C_7  and  C_15
    5  A    between atoms: C_8  and  C_24
    6  A    between atoms: C_8  and  C_31
    7  A    between atoms: C_9  and  C_44
    8  A    between atoms: C_11  and  C_13
    9  A    between atoms: C_11  and  C_35
   10  A    between atoms: C_13  and  C_15
   11  A    between atoms: C_13  and  C_34
   12  A    between atoms: C_14  and  C_15
   13  A    between atoms: C_16  and  C_25
   14  A    between atoms: C_19  and  C_27
   15  A    between atoms: C_23  and  C_39
   16  A    between atoms: C_25  and  C_34
                            x       y       z     vdW  Elec       q    Type
                         _______ _______ _______ _____ _____    ______ ____

>  <TORSDO>
F 16

$$$$
=
 OpenBabel11072411073D

 46 49  0  0  1  0  0  0  0  0999 V2000
  160.5870  208.3180  153.6380 C   0  0  0  0  0  0  0  0  0  0  0  0
  159.4840  207.7420  153.4290 O   0  0  0  0  0  0  0  0  0  0  0  0
  163.1430  205.7710  152.0530 C   0  0  0  0  0  2  0  0  0  0  0  0
  162.5590  210.1650  150.7720 C   0  0  0  0  0  1  0  0  0  0  0  0
  162.0850  208.0600  149.5560 C   0  0  2  0  0  3  0  0  0  0  0  0
  161.8030  207.7020  153.0540 C   0  0  1  0  0  3  0  0  0  0  0  0
  162.4450  206.1560  153.7010 S   0  0  0  0  0  0  0  0  0  0  0  0
  162.3230  207.9960  151.8670 C   0  0  1  0  0  3  0  0  0  0  0  0
  163.0800  207.0260  149.8960 N   0  0  0  0  0  2  0  0  0  0  0  0
  163.1240  207.0080  151.2960 N   0  0  2  0  0  0  0  0  0  0  0  0
  161.7710  208.8710  150.8230 C   0  0  1  0  0  3  0  0  0  0  0  0
  160.8210  207.3870  149.0430 C   0  0  0  0  0  2  0  0  0  0  0  0
  160.5530  206.1000  149.8050 C   0  0  0  0  0  2  0  0  0  0  0  0
  161.0560  202.5520  148.4760 C   0  0  0  0  0  3  0  0  0  0  0  0
  160.8800  203.5950  149.4010 C   0  0  0  0  0  0  0  0  0  0  0  0
  160.9780  204.1100  146.6320 C   0  0  0  0  0  3  0  0  0  0  0  0
  160.8020  205.1600  147.5320 C   0  0  0  0  0  3  0  0  0  0  0  0
  160.7560  204.9210  148.9110 C   0  0  0  0  0  0  0  0  0  0  0  0
  161.1110  202.8040  147.1040 C   0  0  0  0  0  0  0  0  0  0  0  0
  161.9080  203.0130  151.4650 O   0  0  0  0  0  0  0  0  0  0  0  0
  160.8370  203.2490  150.8430 C   0  0  0  0  0  0  0  0  0  0  0  0
  159.6370  203.1830  151.5390 O   0  0  0  0  0  1  0  0  0  0  0  0
  161.2800  201.6780  146.1450 C   0  0  0  0  0  2  0  0  0  0  0  0
  160.1020  201.6210  145.1920 C   0  0  0  0  0  1  0  0  0  0  0  0
  162.0310  210.0120  154.8100 C   0  0  0  0  0  1  0  0  0  0  0  0
  158.7210  211.1760  154.5050 C   0  0  2  0  0  3  0  0  0  0  0  0
  158.9770  210.7220  155.9380 C   0  0  1  0  0  3  0  0  0  0  0  0
  159.7480  209.4320  155.7310 C   0  0  1  0  0  3  0  0  0  0  0  0
  159.7680  211.6590  156.6120 O   0  0  0  0  0  1  0  0  0  0  0  0
  159.9360  210.7250  153.6960 C   0  0  0  0  0  2  0  0  0  0  0  0
  160.6060  209.5900  154.4640 C   0  0  2  0  0  0  0  0  0  0  0  0
  160.4110  207.3880  156.8600 O   0  0  0  0  0  1  0  0  0  0  0  0
  160.3700  208.7780  156.9720 C   0  0  0  0  0  2  0  0  0  0  0  0
  158.4360  212.6800  154.3560 C   0  0  1  0  0  3  0  0  0  0  0  0
  159.3060  214.2220  152.7480 O   0  0  0  0  0  1  0  0  0  0  0  0
  158.6620  213.1600  152.9490 C   0  0  0  0  0  0  0  0  0  0  0  0
  158.1570  212.4470  151.8680 O   0  0  0  0  0  0  0  0  0  0  0  0
  157.0460  213.0570  154.8950 C   0  0  1  0  0  3  0  0  0  0  0  0
  156.6440  214.4530  154.4330 C   0  0  0  0  0  2  0  0  0  0  0  0
  155.4200  214.4040  153.5860 C   0  0  0  0  0  0  0  0  0  0  0  0
  154.1690  214.3010  154.1780 O   0  0  0  0  0  1  0  0  0  0  0  0
  155.5210  214.4430  152.3330 O   0  0  0  0  0  0  0  0  0  0  0  0
  155.9830  212.0150  154.5390 C   0  0  0  0  0  2  0  0  0  0  0  0
  155.5530  211.2200  155.7660 C   0  0  0  0  0  2  0  0  0  0  0  0
  155.6020  212.0760  157.0220 C   0  0  0  0  0  2  0  0  0  0  0  0
  154.3120  212.7070  157.2470 N   0  0  0  0  0  1  0  0  0  0  0  0
  1 31  1  0  0  0  0
  2  1  2  0  0  0  0
  3  7  1  0  0  0  0
  4 11  1  0  0  0  0
  5 12  1  1  0  0  0
  5  9  1  0  0  0  0
  5 11  1  0  0  0  0
  6  1  1  6  0  0  0
  6  7  1  0  0  0  0
  8  6  1  0  0  0  0
  9 10  1  0  0  0  0
 10  8  1  0  0  0  0
 10  3  1  0  0  0  0
 11  8  1  0  0  0  0
 12 13  1  0  0  0  0
 14 15  1  0  0  0  0
 15 21  1  0  0  0  0
 16 19  1  0  0  0  0
 16 17  2  0  0  0  0
 17 18  1  0  0  0  0
 18 15  2  0  0  0  0
 18 13  1  0  0  0  0
 19 14  2  0  0  0  0
 21 20  2  0  0  0  0
 21 22  1  0  0  0  0
 23 19  1  0  0  0  0
 24 23  1  0  0  0  0
 26 27  1  0  0  0  0
 27 29  1  0  0  0  0
 28 27  1  0  0  0  0
 28 33  1  0  0  0  0
 30 31  1  0  0  0  0
 30 26  1  0  0  0  0
 31 25  1  0  0  0  0
 31 28  1  0  0  0  0
 32 33  1  0  0  0  0
 34 26  1  0  0  0  0
 34 38  1  0  0  0  0
 35 36  1  0  0  0  0
 36 34  1  0  0  0  0
 37 36  2  0  0  0  0
 39 38  1  0  0  0  0
 40 41  1  0  0  0  0
 40 39  1  0  0  0  0
 42 40  2  0  0  0  0
 43 38  1  0  0  0  0
 43 44  1  0  0  0  0
 44 45  1  0  0  0  0
 45 46  1  0  0  0  0
M  END
>  <MODEL>
5

>  <REMARK>
 VINA RESULT:      -3.4      2.151      2.900
  Name = 
  16 active torsions:
  status: ('A' for Active; 'I' for Inactive)
    1  A    between atoms: C_2  and  C_45
    2  A    between atoms: C_5  and  C_22
    3  A    between atoms: C_5  and  C_23
    4  A    between atoms: C_7  and  C_15
    5  A    between atoms: C_8  and  C_24
    6  A    between atoms: C_8  and  C_31
    7  A    between atoms: C_9  and  C_44
    8  A    between atoms: C_11  and  C_13
    9  A    between atoms: C_11  and  C_35
   10  A    between atoms: C_13  and  C_15
   11  A    between atoms: C_13  and  C_34
   12  A    between atoms: C_14  and  C_15
   13  A    between atoms: C_16  and  C_25
   14  A    between atoms: C_19  and  C_27
   15  A    between atoms: C_23  and  C_39
   16  A    between atoms: C_25  and  C_34
                            x       y       z     vdW  Elec       q    Type
                         _______ _______ _______ _____ _____    ______ ____

>  <TORSDO>
F 16

$$$$
=
 OpenBabel11072411073D

 46 49  0  0  1  0  0  0  0  0999 V2000
  161.8290  210.7540  149.4620 C   0  0  0  0  0  0  0  0  0  0  0  0
  161.5410  209.8290  148.6540 O   0  0  0  0  0  0  0  0  0  0  0  0
  163.1160  213.6380  147.1040 C   0  0  0  0  0  2  0  0  0  0  0  0
  159.1380  213.6310  149.4410 C   0  0  0  0  0  1  0  0  0  0  0  0
  159.5700  213.5520  147.0030 C   0  0  2  0  0  3  0  0  0  0  0  0
  162.1620  212.0820  148.8910 C   0  0  1  0  0  3  0  0  0  0  0  0
  163.8160  212.4280  148.2850 S   0  0  0  0  0  0  0  0  0  0  0  0
  161.2820  212.9830  148.4690 C   0  0  1  0  0  3  0  0  0  0  0  0
  160.7640  214.3460  146.6590 N   0  0  0  0  0  2  0  0  0  0  0  0
  161.7600  213.9090  147.5410 N   0  0  2  0  0  0  0  0  0  0  0  0
  159.8240  212.8430  148.3420 C   0  0  1  0  0  3  0  0  0  0  0  0
  159.3210  212.5240  145.9090 C   0  0  0  0  0  2  0  0  0  0  0  0
  160.3270  212.6890  144.7830 C   0  0  0  0  0  2  0  0  0  0  0  0
  159.3200  213.1440  141.1230 C   0  0  0  0  0  3  0  0  0  0  0  0
  160.0500  212.7000  142.2390 C   0  0  0  0  0  0  0  0  0  0  0  0
  157.7990  214.3680  142.5460 C   0  0  0  0  0  3  0  0  0  0  0  0
  158.5080  213.9380  143.6670 C   0  0  0  0  0  3  0  0  0  0  0  0
  159.6310  213.1140  143.5300 C   0  0  0  0  0  0  0  0  0  0  0  0
  158.2080  213.9750  141.2710 C   0  0  0  0  0  0  0  0  0  0  0  0
  162.3630  212.1740  142.4090 O   0  0  0  0  0  1  0  0  0  0  0  0
  161.2230  211.8230  142.0020 C   0  0  0  0  0  0  0  0  0  0  0  0
  161.1000  210.6080  141.3400 O   0  0  0  0  0  0  0  0  0  0  0  0
  157.4420  214.4170  140.0730 C   0  0  0  0  0  2  0  0  0  0  0  0
  156.7220  213.2360  139.4490 C   0  0  0  0  0  1  0  0  0  0  0  0
  163.2340  210.3250  151.5030 C   0  0  0  0  0  1  0  0  0  0  0  0
  159.8880  210.9740  152.3910 C   0  0  2  0  0  3  0  0  0  0  0  0
  160.1720  209.4800  152.5100 C   0  0  1  0  0  3  0  0  0  0  0  0
  160.9790  209.2090  151.2550 C   0  0  1  0  0  3  0  0  0  0  0  0
  160.9420  209.2200  153.6490 O   0  0  0  0  0  1  0  0  0  0  0  0
  161.1070  211.5820  151.7010 C   0  0  0  0  0  2  0  0  0  0  0  0
  161.8190  210.4610  150.9500 C   0  0  2  0  0  0  0  0  0  0  0  0
  160.7180  206.7970  151.3530 O   0  0  0  0  0  1  0  0  0  0  0  0
  161.6330  207.8270  151.1250 C   0  0  0  0  0  2  0  0  0  0  0  0
  159.5570  211.6650  153.7250 C   0  0  1  0  0  3  0  0  0  0  0  0
  158.3930  213.3070  152.4340 O   0  0  0  0  0  0  0  0  0  0  0  0
  158.9640  213.0320  153.5200 C   0  0  0  0  0  0  0  0  0  0  0  0
  159.0500  213.9980  154.5160 O   0  0  0  0  0  1  0  0  0  0  0  0
  158.6940  210.7750  154.6340 C   0  0  1  0  0  3  0  0  0  0  0  0
  159.1110  210.9220  156.0930 C   0  0  0  0  0  2  0  0  0  0  0  0
  160.2860  210.0610  156.4030 C   0  0  0  0  0  0  0  0  0  0  0  0
  161.4880  210.6370  156.7900 O   0  0  0  0  0  1  0  0  0  0  0  0
  160.1940  208.8100  156.3000 O   0  0  0  0  0  0  0  0  0  0  0  0
  157.1970  211.0280  154.4450 C   0  0  0  0  0  2  0  0  0  0  0  0
  156.5450  211.4910  155.7420 C   0  0  0  0  0  2  0  0  0  0  0  0
  155.4710  212.5340  155.4780 C   0  0  0  0  0  2  0  0  0  0  0  0
  155.6440  213.6670  156.3720 N   0  0  0  0  0  1  0  0  0  0  0  0
  1 31  1  0  0  0  0
  2  1  2  0  0  0  0
  3 10  1  0  0  0  0
  3  7  1  0  0  0  0
  5 12  1  6  0  0  0
  5 11  1  0  0  0  0
  6  1  1  6  0  0  0
  7  6  1  0  0  0  0
  8  6  1  0  0  0  0
  9  5  1  0  0  0  0
  9 10  1  0  0  0  0
 10  8  1  0  0  0  0
 11  8  1  0  0  0  0
 11  4  1  0  0  0  0
 13 12  1  0  0  0  0
 14 19  2  0  0  0  0
 14 15  1  0  0  0  0
 15 18  2  0  0  0  0
 16 17  2  0  0  0  0
 18 17  1  0  0  0  0
 18 13  1  0  0  0  0
 19 16  1  0  0  0  0
 21 15  1  0  0  0  0
 21 20  1  0  0  0  0
 22 21  2  0  0  0  0
 23 19  1  0  0  0  0
 24 23  1  0  0  0  0
 26 27  1  0  0  0  0
 26 34  1  0  0  0  0
 27 29  1  0  0  0  0
 28 27  1  0  0  0  0
 30 26  1  0  0  0  0
 31 28  1  0  0  0  0
 31 25  1  0  0  0  0
 31 30  1  0  0  0  0
 33 28  1  0  0  0  0
 33 32  1  0  0  0  0
 34 38  1  0  0  0  0
 35 36  2  0  0  0  0
 36 34  1  0  0  0  0
 36 37  1  0  0  0  0
 38 39  1  0  0  0  0
 39 40  1  0  0  0  0
 40 41  1  0  0  0  0
 42 40  2  0  0  0  0
 43 38  1  0  0  0  0
 43 44  1  0  0  0  0
 45 44  1  0  0  0  0
 45 46  1  0  0  0  0
M  END
>  <MODEL>
6

>  <REMARK>
 VINA RESULT:      -3.2      5.356      7.235
  Name = 
  16 active torsions:
  status: ('A' for Active; 'I' for Inactive)
    1  A    between atoms: C_2  and  C_45
    2  A    between atoms: C_5  and  C_22
    3  A    between atoms: C_5  and  C_23
    4  A    between atoms: C_7  and  C_15
    5  A    between atoms: C_8  and  C_24
    6  A    between atoms: C_8  and  C_31
    7  A    between atoms: C_9  and  C_44
    8  A    between atoms: C_11  and  C_13
    9  A    between atoms: C_11  and  C_35
   10  A    between atoms: C_13  and  C_15
   11  A    between atoms: C_13  and  C_34
   12  A    between atoms: C_14  and  C_15
   13  A    between atoms: C_16  and  C_25
   14  A    between atoms: C_19  and  C_27
   15  A    between atoms: C_23  and  C_39
   16  A    between atoms: C_25  and  C_34
                            x       y       z     vdW  Elec       q    Type
                         _______ _______ _______ _____ _____    ______ ____

>  <TORSDO>
F 16

$$$$
=
 OpenBabel11072411073D

 46 49  0  0  1  0  0  0  0  0999 V2000
  158.5860  210.3170  154.6960 C   0  0  0  0  0  0  0  0  0  0  0  0
  157.4920  209.7100  154.5330 O   0  0  0  0  0  0  0  0  0  0  0  0
  160.6300  207.6600  156.7680 C   0  0  0  0  0  2  0  0  0  0  0  0
  162.1030  209.8530  152.9850 C   0  0  0  0  0  1  0  0  0  0  0  0
  161.5870  207.4580  153.3570 C   0  0  2  0  0  3  0  0  0  0  0  0
  159.6700  209.5970  155.4060 C   0  0  1  0  0  3  0  0  0  0  0  0
  159.4290  209.0040  157.0830 S   0  0  0  0  0  0  0  0  0  0  0  0
  160.7300  209.0370  154.8310 C   0  0  1  0  0  3  0  0  0  0  0  0
  161.9400  207.0560  154.7310 N   0  0  0  0  0  2  0  0  0  0  0  0
  161.3440  208.0170  155.5570 N   0  0  2  0  0  0  0  0  0  0  0  0
  161.0120  208.8830  153.3970 C   0  0  1  0  0  3  0  0  0  0  0  0
  160.5480  206.4940  152.8050 C   0  0  0  0  0  2  0  0  0  0  0  0
  161.2150  205.2380  152.2700 C   0  0  0  0  0  2  0  0  0  0  0  0
  160.9490  204.2250  148.5940 C   0  0  0  0  0  3  0  0  0  0  0  0
  160.9370  204.1040  149.9940 C   0  0  0  0  0  0  0  0  0  0  0  0
  161.4920  206.5730  148.7550 C   0  0  0  0  0  3  0  0  0  0  0  0
  161.4840  206.4760  150.1450 C   0  0  0  0  0  3  0  0  0  0  0  0
  161.2150  205.2540  150.7760 C   0  0  0  0  0  0  0  0  0  0  0  0
  161.2300  205.4460  147.9770 C   0  0  0  0  0  0  0  0  0  0  0  0
  160.3600  202.6700  151.8020 O   0  0  0  0  0  1  0  0  0  0  0  0
  160.6360  202.7720  150.5760 C   0  0  0  0  0  0  0  0  0  0  0  0
  160.6460  201.6210  149.8000 O   0  0  0  0  0  0  0  0  0  0  0  0
  161.2190  205.5500  146.4910 C   0  0  0  0  0  2  0  0  0  0  0  0
  162.1970  204.5580  145.8900 C   0  0  0  0  0  1  0  0  0  0  0  0
  159.6780  212.5590  155.0230 C   0  0  0  0  0  1  0  0  0  0  0  0
  158.2010  212.3320  151.8340 C   0  0  2  0  0  3  0  0  0  0  0  0
  157.3330  213.1950  152.7440 C   0  0  1  0  0  3  0  0  0  0  0  0
  157.3530  212.4100  154.0420 C   0  0  1  0  0  3  0  0  0  0  0  0
  157.9170  214.4530  152.9270 O   0  0  0  0  0  1  0  0  0  0  0  0
  159.2620  211.7030  152.7350 C   0  0  0  0  0  2  0  0  0  0  0  0
  158.7280  211.7310  154.1650 C   0  0  2  0  0  0  0  0  0  0  0  0
  155.7100  212.3190  155.8260 O   0  0  0  0  0  1  0  0  0  0  0  0
  156.7430  213.0810  155.2790 C   0  0  0  0  0  2  0  0  0  0  0  0
  158.8120  213.0850  150.6390 C   0  0  1  0  0  3  0  0  0  0  0  0
  160.7450  214.4170  151.0930 O   0  0  0  0  0  1  0  0  0  0  0  0
  160.2940  213.2810  150.7940 C   0  0  0  0  0  0  0  0  0  0  0  0
  161.1730  212.2210  150.6000 O   0  0  0  0  0  0  0  0  0  0  0  0
  158.4380  212.4310  149.2980 C   0  0  1  0  0  3  0  0  0  0  0  0
  156.9250  212.2860  149.1680 C   0  0  0  0  0  2  0  0  0  0  0  0
  156.2840  213.6010  148.8900 C   0  0  0  0  0  0  0  0  0  0  0  0
  156.1770  214.0600  147.5840 O   0  0  0  0  0  0  0  0  0  0  0  0
  155.8520  214.3030  149.8400 O   0  0  0  0  0  1  0  0  0  0  0  0
  159.0400  213.1720  148.1020 C   0  0  0  0  0  2  0  0  0  0  0  0
  159.8160  212.2230  147.1960 C   0  0  0  0  0  2  0  0  0  0  0  0
  161.3160  212.3920  147.3780 C   0  0  0  0  0  2  0  0  0  0  0  0
  161.9400  211.1000  147.6070 N   0  0  0  0  0  1  0  0  0  0  0  0
  2  1  2  0  0  0  0
  3  7  1  0  0  0  0
  4 11  1  0  0  0  0
  5 12  1  1  0  0  0
  5 11  1  0  0  0  0
  5  9  1  0  0  0  0
  6  1  1  6  0  0  0
  6  7  1  0  0  0  0
  8  6  1  0  0  0  0
  8 10  1  0  0  0  0
  9 10  1  0  0  0  0
 10  3  1  0  0  0  0
 11  8  1  0  0  0  0
 13 12  1  0  0  0  0
 14 15  1  0  0  0  0
 15 21  1  0  0  0  0
 15 18  2  0  0  0  0
 16 17  2  0  0  0  0
 17 18  1  0  0  0  0
 18 13  1  0  0  0  0
 19 14  2  0  0  0  0
 19 16  1  0  0  0  0
 21 20  1  0  0  0  0
 22 21  2  0  0  0  0
 23 19  1  0  0  0  0
 24 23  1  0  0  0  0
 26 30  1  0  0  0  0
 26 27  1  0  0  0  0
 27 29  1  0  0  0  0
 27 28  1  0  0  0  0
 28 31  1  0  0  0  0
 28 33  1  0  0  0  0
 30 31  1  0  0  0  0
 31  1  1  0  0  0  0
 31 25  1  0  0  0  0
 33 32  1  0  0  0  0
 34 36  1  0  0  0  0
 34 26  1  0  0  0  0
 36 35  1  0  0  0  0
 37 36  2  0  0  0  0
 38 34  1  0  0  0  0
 39 38  1  0  0  0  0
 40 39  1  0  0  0  0
 40 42  1  0  0  0  0
 41 40  2  0  0  0  0
 43 38  1  0  0  0  0
 44 45  1  0  0  0  0
 44 43  1  0  0  0  0
 45 46  1  0  0  0  0
M  END
>  <MODEL>
7

>  <REMARK>
 VINA RESULT:      -2.9      3.257      5.433
  Name = 
  16 active torsions:
  status: ('A' for Active; 'I' for Inactive)
    1  A    between atoms: C_2  and  C_45
    2  A    between atoms: C_5  and  C_22
    3  A    between atoms: C_5  and  C_23
    4  A    between atoms: C_7  and  C_15
    5  A    between atoms: C_8  and  C_24
    6  A    between atoms: C_8  and  C_31
    7  A    between atoms: C_9  and  C_44
    8  A    between atoms: C_11  and  C_13
    9  A    between atoms: C_11  and  C_35
   10  A    between atoms: C_13  and  C_15
   11  A    between atoms: C_13  and  C_34
   12  A    between atoms: C_14  and  C_15
   13  A    between atoms: C_16  and  C_25
   14  A    between atoms: C_19  and  C_27
   15  A    between atoms: C_23  and  C_39
   16  A    between atoms: C_25  and  C_34
                            x       y       z     vdW  Elec       q    Type
                         _______ _______ _______ _____ _____    ______ ____

>  <TORSDO>
F 16

$$$$
=
 OpenBabel11072411073D

 46 49  0  0  1  0  0  0  0  0999 V2000
  159.2690  210.2500  154.3290 C   0  0  0  0  0  0  0  0  0  0  0  0
  158.1160  209.8440  154.6410 O   0  0  0  0  0  0  0  0  0  0  0  0
  161.4990  207.2810  155.6520 C   0  0  0  0  0  2  0  0  0  0  0  0
  162.2250  209.6930  151.7860 C   0  0  0  0  0  1  0  0  0  0  0  0
  161.5990  207.3170  152.1050 C   0  0  2  0  0  3  0  0  0  0  0  0
  160.4220  209.3940  154.7020 C   0  0  1  0  0  3  0  0  0  0  0  0
  160.5320  208.6740  156.3420 S   0  0  0  0  0  0  0  0  0  0  0  0
  161.2600  208.8150  153.8500 C   0  0  1  0  0  3  0  0  0  0  0  0
  162.2300  206.7710  153.3200 N   0  0  0  0  0  2  0  0  0  0  0  0
  161.9350  207.6940  154.3320 N   0  0  2  0  0  0  0  0  0  0  0  0
  161.1800  208.7700  152.3830 C   0  0  1  0  0  3  0  0  0  0  0  0
  160.3760  206.4820  151.7570 C   0  0  0  0  0  2  0  0  0  0  0  0
  160.7480  205.0120  151.6470 C   0  0  0  0  0  2  0  0  0  0  0  0
  161.4360  203.0790  148.4210 C   0  0  0  0  0  3  0  0  0  0  0  0
  161.2320  203.3190  149.7910 C   0  0  0  0  0  0  0  0  0  0  0  0
  161.1580  205.4260  147.9220 C   0  0  0  0  0  3  0  0  0  0  0  0
  160.9520  205.6860  149.2760 C   0  0  0  0  0  3  0  0  0  0  0  0
  160.9900  204.6500  150.2180 C   0  0  0  0  0  0  0  0  0  0  0  0
  161.4060  204.1220  147.4940 C   0  0  0  0  0  0  0  0  0  0  0  0
  161.3760  202.3520  151.9600 O   0  0  0  0  0  1  0  0  0  0  0  0
  161.2840  202.1600  150.7170 C   0  0  0  0  0  0  0  0  0  0  0  0
  161.2280  200.8530  150.2500 O   0  0  0  0  0  0  0  0  0  0  0  0
  161.6090  203.8380  146.0460 C   0  0  0  0  0  2  0  0  0  0  0  0
  162.3040  205.0080  145.3760 C   0  0  0  0  0  1  0  0  0  0  0  0
  160.8580  212.0520  153.5830 C   0  0  0  0  0  1  0  0  0  0  0  0
  157.7410  212.3770  151.9760 C   0  0  2  0  0  3  0  0  0  0  0  0
  157.8680  213.4310  153.0720 C   0  0  1  0  0  3  0  0  0  0  0  0
  158.4780  212.6340  154.2100 C   0  0  1  0  0  3  0  0  0  0  0  0
  158.7380  214.4500  152.6690 O   0  0  0  0  0  1  0  0  0  0  0  0
  158.9260  211.4320  152.1600 C   0  0  0  0  0  2  0  0  0  0  0  0
  159.4100  211.5720  153.6000 C   0  0  2  0  0  0  0  0  0  0  0  0
  158.0830  213.2580  156.5220 O   0  0  0  0  0  1  0  0  0  0  0  0
  158.9510  213.4180  155.4410 C   0  0  0  0  0  2  0  0  0  0  0  0
  157.6560  212.9510  150.5510 C   0  0  1  0  0  3  0  0  0  0  0  0
  155.9940  213.9620  149.1610 O   0  0  0  0  0  0  0  0  0  0  0  0
  156.3930  213.7360  150.3330 C   0  0  0  0  0  0  0  0  0  0  0  0
  155.6660  214.2220  151.4130 O   0  0  0  0  0  1  0  0  0  0  0  0
  158.9190  213.7440  150.1770 C   0  0  1  0  0  3  0  0  0  0  0  0
  160.1550  212.8530  150.2230 C   0  0  0  0  0  2  0  0  0  0  0  0
  161.1050  213.2000  149.1310 C   0  0  0  0  0  0  0  0  0  0  0  0
  161.5480  212.2170  148.2550 O   0  0  0  0  0  0  0  0  0  0  0  0
  161.5190  214.3820  149.0090 O   0  0  0  0  0  1  0  0  0  0  0  0
  158.7830  214.4530  148.8270 C   0  0  0  0  0  2  0  0  0  0  0  0
  158.4110  213.4720  147.7220 C   0  0  0  0  0  2  0  0  0  0  0  0
  158.5800  214.1010  146.3480 C   0  0  0  0  0  2  0  0  0  0  0  0
  158.2310  213.1420  145.3130 N   0  0  0  0  0  1  0  0  0  0  0  0
  1  2  2  0  0  0  0
  3  7  1  0  0  0  0
  4 11  1  0  0  0  0
  5 12  1  1  0  0  0
  5 11  1  0  0  0  0
  5  9  1  0  0  0  0
  6  1  1  6  0  0  0
  6  7  1  0  0  0  0
  8 10  1  0  0  0  0
  8  6  1  0  0  0  0
  9 10  1  0  0  0  0
 10  3  1  0  0  0  0
 11  8  1  0  0  0  0
 13 12  1  0  0  0  0
 14 15  1  0  0  0  0
 15 18  2  0  0  0  0
 15 21  1  0  0  0  0
 16 17  2  0  0  0  0
 17 18  1  0  0  0  0
 18 13  1  0  0  0  0
 19 16  1  0  0  0  0
 19 14  2  0  0  0  0
 21 20  1  0  0  0  0
 22 21  2  0  0  0  0
 23 19  1  0  0  0  0
 24 23  1  0  0  0  0
 25 31  1  0  0  0  0
 26 30  1  0  0  0  0
 26 27  1  0  0  0  0
 27 28  1  0  0  0  0
 28 33  1  0  0  0  0
 29 27  1  0  0  0  0
 30 31  1  0  0  0  0
 31 28  1  0  0  0  0
 31  1  1  0  0  0  0
 33 32  1  0  0  0  0
 34 26  1  0  0  0  0
 35 36  2  0  0  0  0
 36 34  1  0  0  0  0
 36 37  1  0  0  0  0
 38 39  1  0  0  0  0
 38 34  1  0  0  0  0
 40 39  1  0  0  0  0
 41 40  2  0  0  0  0
 42 40  1  0  0  0  0
 43 38  1  0  0  0  0
 44 43  1  0  0  0  0
 45 44  1  0  0  0  0
 46 45  1  0  0  0  0
M  END
>  <MODEL>
8

>  <REMARK>
 VINA RESULT:      -2.7      3.458      5.290
  Name = 
  16 active torsions:
  status: ('A' for Active; 'I' for Inactive)
    1  A    between atoms: C_2  and  C_45
    2  A    between atoms: C_5  and  C_22
    3  A    between atoms: C_5  and  C_23
    4  A    between atoms: C_7  and  C_15
    5  A    between atoms: C_8  and  C_24
    6  A    between atoms: C_8  and  C_31
    7  A    between atoms: C_9  and  C_44
    8  A    between atoms: C_11  and  C_13
    9  A    between atoms: C_11  and  C_35
   10  A    between atoms: C_13  and  C_15
   11  A    between atoms: C_13  and  C_34
   12  A    between atoms: C_14  and  C_15
   13  A    between atoms: C_16  and  C_25
   14  A    between atoms: C_19  and  C_27
   15  A    between atoms: C_23  and  C_39
   16  A    between atoms: C_25  and  C_34
                            x       y       z     vdW  Elec       q    Type
                         _______ _______ _______ _____ _____    ______ ____

>  <TORSDO>
F 16

$$$$
=
 OpenBabel11072411073D

 46 49  0  0  1  0  0  0  0  0999 V2000
  160.7370  208.9450  152.7660 C   0  0  0  0  0  0  0  0  0  0  0  0
  160.5570  208.7110  151.5390 O   0  0  0  0  0  0  0  0  0  0  0  0
  160.2300  205.8010  155.0890 C   0  0  0  0  0  2  0  0  0  0  0  0
  163.4890  206.2760  151.8570 C   0  0  0  0  0  1  0  0  0  0  0  0
  161.5490  204.7400  151.9700 C   0  0  2  0  0  3  0  0  0  0  0  0
  160.9730  207.7830  153.6580 C   0  0  1  0  0  3  0  0  0  0  0  0
  160.0740  207.6210  155.2040 S   0  0  0  0  0  0  0  0  0  0  0  0
  161.5560  206.6440  153.3030 C   0  0  1  0  0  3  0  0  0  0  0  0
  161.2840  204.3370  153.3640 N   0  0  0  0  0  2  0  0  0  0  0  0
  161.2460  205.5340  154.0890 N   0  0  2  0  0  0  0  0  0  0  0  0
  161.9770  206.2150  151.9610 C   0  0  1  0  0  3  0  0  0  0  0  0
  160.2810  204.5610  151.1480 C   0  0  0  0  0  2  0  0  0  0  0  0
  160.1300  205.6940  150.1470 C   0  0  0  0  0  2  0  0  0  0  0  0
  162.2260  205.9070  146.9580 C   0  0  0  0  0  3  0  0  0  0  0  0
  161.5710  206.3240  148.1290 C   0  0  0  0  0  0  0  0  0  0  0  0
  161.4670  203.6370  147.2850 C   0  0  0  0  0  3  0  0  0  0  0  0
  160.8120  204.0290  148.4520 C   0  0  0  0  0  3  0  0  0  0  0  0
  160.8500  205.3610  148.8810 C   0  0  0  0  0  0  0  0  0  0  0  0
  162.1710  204.5780  146.5330 C   0  0  0  0  0  0  0  0  0  0  0  0
  162.2170  208.0770  149.6020 O   0  0  0  0  0  1  0  0  0  0  0  0
  161.6700  207.7540  148.5130 C   0  0  0  0  0  0  0  0  0  0  0  0
  161.1750  208.7620  147.6940 O   0  0  0  0  0  0  0  0  0  0  0  0
  162.8880  204.1600  145.2970 C   0  0  0  0  0  2  0  0  0  0  0  0
  162.3680  204.9370  144.1030 C   0  0  0  0  0  1  0  0  0  0  0  0
  161.9640  210.7400  154.0310 C   0  0  0  0  0  1  0  0  0  0  0  0
  159.2570  212.0940  152.2290 C   0  0  2  0  0  3  0  0  0  0  0  0
  158.9000  212.0100  153.7100 C   0  0  1  0  0  3  0  0  0  0  0  0
  159.4380  210.6430  154.0900 C   0  0  1  0  0  3  0  0  0  0  0  0
  159.5630  213.0110  154.4290 O   0  0  0  0  0  1  0  0  0  0  0  0
  160.5720  211.3330  152.0680 C   0  0  0  0  0  2  0  0  0  0  0  0
  160.7020  210.3800  153.2530 C   0  0  2  0  0  0  0  0  0  0  0  0
  158.1640  210.3200  156.1310 O   0  0  0  0  0  1  0  0  0  0  0  0
  159.4460  210.2810  155.5810 C   0  0  0  0  0  2  0  0  0  0  0  0
  159.3310  213.5270  151.6750 C   0  0  1  0  0  3  0  0  0  0  0  0
  161.2810  214.3930  150.5940 O   0  0  0  0  0  1  0  0  0  0  0  0
  160.2810  213.6340  150.5140 C   0  0  0  0  0  0  0  0  0  0  0  0
  160.0590  212.9090  149.3490 O   0  0  0  0  0  0  0  0  0  0  0  0
  157.9370  214.0900  151.3530 C   0  0  1  0  0  3  0  0  0  0  0  0
  157.1630  213.1390  150.4460 C   0  0  0  0  0  2  0  0  0  0  0  0
  156.4920  213.8820  149.3430 C   0  0  0  0  0  0  0  0  0  0  0  0
  157.1990  214.2090  148.1940 O   0  0  0  0  0  0  0  0  0  0  0  0
  155.2870  214.2250  149.4580 O   0  0  0  0  0  1  0  0  0  0  0  0
  157.1440  214.4380  152.6150 C   0  0  0  0  0  2  0  0  0  0  0  0
  155.7340  213.8630  152.5610 C   0  0  0  0  0  2  0  0  0  0  0  0
  155.0660  213.9110  153.9260 C   0  0  0  0  0  2  0  0  0  0  0  0
  155.7200  212.9840  154.8340 N   0  0  0  0  0  1  0  0  0  0  0  0
  1 31  1  0  0  0  0
  2  1  2  0  0  0  0
  3  7  1  0  0  0  0
  4 11  1  0  0  0  0
  5 12  1  6  0  0  0
  5  9  1  0  0  0  0
  6  1  1  6  0  0  0
  6  7  1  0  0  0  0
  8  6  1  0  0  0  0
  8 10  1  0  0  0  0
  9 10  1  0  0  0  0
 10  3  1  0  0  0  0
 11  5  1  0  0  0  0
 11  8  1  0  0  0  0
 13 12  1  0  0  0  0
 14 15  1  0  0  0  0
 15 21  1  0  0  0  0
 15 18  2  0  0  0  0
 16 17  2  0  0  0  0
 17 18  1  0  0  0  0
 18 13  1  0  0  0  0
 19 14  2  0  0  0  0
 19 16  1  0  0  0  0
 21 20  1  0  0  0  0
 22 21  2  0  0  0  0
 23 19  1  0  0  0  0
 24 23  1  0  0  0  0
 26 27  1  0  0  0  0
 27 28  1  0  0  0  0
 27 29  1  0  0  0  0
 28 33  1  0  0  0  0
 30 26  1  0  0  0  0
 30 31  1  0  0  0  0
 31 25  1  0  0  0  0
 31 28  1  0  0  0  0
 33 32  1  0  0  0  0
 34 26  1  0  0  0  0
 36 35  1  0  0  0  0
 36 34  1  0  0  0  0
 37 36  2  0  0  0  0
 38 34  1  0  0  0  0
 38 43  1  0  0  0  0
 39 38  1  0  0  0  0
 40 42  1  0  0  0  0
 40 39  1  0  0  0  0
 41 40  2  0  0  0  0
 44 43  1  0  0  0  0
 44 45  1  0  0  0  0
 45 46  1  0  0  0  0
M  END
>  <MODEL>
9

>  <REMARK>
 VINA RESULT:      -2.5      2.675      4.169
  Name = 
  16 active torsions:
  status: ('A' for Active; 'I' for Inactive)
    1  A    between atoms: C_2  and  C_45
    2  A    between atoms: C_5  and  C_22
    3  A    between atoms: C_5  and  C_23
    4  A    between atoms: C_7  and  C_15
    5  A    between atoms: C_8  and  C_24
    6  A    between atoms: C_8  and  C_31
    7  A    between atoms: C_9  and  C_44
    8  A    between atoms: C_11  and  C_13
    9  A    between atoms: C_11  and  C_35
   10  A    between atoms: C_13  and  C_15
   11  A    between atoms: C_13  and  C_34
   12  A    between atoms: C_14  and  C_15
   13  A    between atoms: C_16  and  C_25
   14  A    between atoms: C_19  and  C_27
   15  A    between atoms: C_23  and  C_39
   16  A    between atoms: C_25  and  C_34
                            x       y       z     vdW  Elec       q    Type
                         _______ _______ _______ _____ _____    ______ ____

>  <TORSDO>
F 16

$$$$
