=
 OpenBabel11072411073D

 46 48  0  0  1  0  0  0  0  0999 V2000
  160.7580  209.8670  152.5910 C   0  0  0  0  0  0  0  0  0  0  0  0
  161.1190  210.7460  151.5530 C   0  0  0  0  0  0  0  0  0  0  0  0
  161.9220  208.8310  150.2670 C   0  0  0  0  0  0  0  0  0  0  0  0
  161.4920  207.9850  151.3150 C   0  0  0  0  0  0  0  0  0  0  0  0
  160.9380  208.5300  152.4300 N   0  0  0  0  0  0  0  0  0  0  0  0
  161.7190  210.2170  150.3930 C   0  0  0  0  0  0  0  0  0  0  0  0
  160.4460  208.3640  155.3860 C   0  0  1  0  0  3  0  0  0  0  0  0
  159.7130  207.2940  156.1820 C   0  0  0  0  0  1  0  0  0  0  0  0
  159.4440  209.2800  154.6650 C   0  0  1  0  0  3  0  0  0  0  0  0
  158.5590  209.8630  155.5780 O   0  0  0  0  0  1  0  0  0  0  0  0
  162.1470  210.2110  155.4430 C   0  0  2  0  0  3  0  0  0  0  0  0
  162.3320  208.3030  156.8650 O   0  0  0  0  0  1  0  0  0  0  0  0
  161.1690  211.1490  154.7360 C   0  0  0  0  0  2  0  0  0  0  0  0
  160.1600  210.3790  153.8740 C   0  0  1  0  0  3  0  0  0  0  0  0
  161.4040  209.1650  156.2750 C   0  0  2  0  0  3  0  0  0  0  0  0
  162.9900  210.9600  156.2630 O   0  0  0  0  0  1  0  0  0  0  0  0
  161.5730  206.4900  151.2180 C   0  0  2  0  0  3  0  0  0  0  0  0
  160.3720  205.9240  150.4820 C   0  0  0  0  0  1  0  0  0  0  0  0
  160.9960  204.7220  152.8980 O   0  0  0  0  0  0  0  0  0  0  0  0
  162.5090  206.3670  153.4060 O   0  0  0  0  0  1  0  0  0  0  0  0
  161.7240  205.8580  152.5640 C   0  0  0  0  0  0  0  0  0  0  0  0
  162.5300  208.3560  149.0920 O   0  0  0  0  0  0  0  0  0  0  0  0
  161.8240  207.9170  147.9390 C   0  0  0  0  0  2  0  0  0  0  0  0
  161.4590  205.6980  146.7400 N   0  0  0  0  0  0  0  0  0  0  0  0
  163.3930  206.1400  147.9840 O   0  0  0  0  0  0  0  0  0  0  0  0
  162.2700  206.5430  147.5740 C   0  0  0  0  0  0  0  0  0  0  0  0
  160.2380  206.1970  146.1200 C   0  0  0  0  0  2  0  0  0  0  0  0
  160.3990  206.2540  144.7350 O   0  0  0  0  0  1  0  0  0  0  0  0
  161.9040  204.3580  146.3770 C   0  0  0  0  0  2  0  0  0  0  0  0
  161.0540  203.3070  147.0720 C   0  0  1  0  0  3  0  0  0  0  0  0
  161.4070  201.9100  146.5550 C   0  0  0  0  0  2  0  0  0  0  0  0
  161.3040  203.3560  148.5770 C   0  0  0  0  0  2  0  0  0  0  0  0
  160.6010  200.9470  147.1920 O   0  0  0  0  0  0  0  0  0  0  0  0
  160.6310  202.1700  149.2630 C   0  0  1  0  0  3  0  0  0  0  0  0
  161.0240  200.8850  148.5330 C   0  0  0  0  0  2  0  0  0  0  0  0
  161.0470  202.1020  150.5910 O   0  0  0  0  0  1  0  0  0  0  0  0
  162.1810  211.1260  149.2930 C   0  0  0  0  0  2  0  0  0  0  0  0
  161.0770  211.3300  148.2710 C   0  0  0  0  0  2  0  0  0  0  0  0
  162.1490  213.0110  146.9680 O   0  0  0  0  0  0  0  0  0  0  0  0
  161.1700  212.6970  147.6950 C   0  0  0  0  0  0  0  0  0  0  0  0
  160.1580  213.6180  147.9310 O   0  0  0  0  0  1  0  0  0  0  0  0
  160.9360  212.2370  151.6900 C   0  0  0  0  0  2  0  0  0  0  0  0
  159.6040  212.6550  151.2670 N   0  0  0  0  0  2  0  0  0  0  0  0
  157.4510  213.7400  151.6010 O   0  0  0  0  0  0  0  0  0  0  0  0
  158.9790  213.6260  153.3010 O   0  0  0  0  0  1  0  0  0  0  0  0
  158.6840  213.3540  152.1070 C   0  0  0  0  0  0  0  0  0  0  0  0
  2 42  1  0  0  0  0
  2  1  2  0  0  0  0
  3  6  2  0  0  0  0
  3  4  1  0  0  0  0
  4  5  2  0  0  0  0
  5  1  1  0  0  0  0
  6  2  1  0  0  0  0
  7  8  1  1  0  0  0
  7 15  1  0  0  0  0
  9  7  1  0  0  0  0
  9 10  1  1  0  0  0
 11 16  1  1  0  0  0
 11 15  1  0  0  0  0
 13 11  1  0  0  0  0
 14  1  1  6  0  0  0
 14  9  1  0  0  0  0
 14 13  1  0  0  0  0
 15 12  1  6  0  0  0
 17 18  1  1  0  0  0
 17  4  1  0  0  0  0
 17 21  1  0  0  0  0
 21 19  2  0  0  0  0
 21 20  1  0  0  0  0
 22  3  1  0  0  0  0
 23 22  1  0  0  0  0
 24 26  1  0  0  0  0
 26 23  1  0  0  0  0
 26 25  2  0  0  0  0
 27 24  1  0  0  0  0
 28 27  1  0  0  0  0
 29 24  1  0  0  0  0
 30 29  1  6  0  0  0
 30 32  1  0  0  0  0
 31 30  1  0  0  0  0
 31 33  1  0  0  0  0
 32 34  1  0  0  0  0
 33 35  1  0  0  0  0
 34 36  1  1  0  0  0
 35 34  1  0  0  0  0
 37  6  1  0  0  0  0
 38 37  1  0  0  0  0
 39 40  2  0  0  0  0
 40 41  1  0  0  0  0
 40 38  1  0  0  0  0
 43 42  1  0  0  0  0
 43 46  1  0  0  0  0
 44 46  2  0  0  0  0
 46 45  1  0  0  0  0
M  END
>  <MODEL>
1

>  <REMARK>
 VINA RESULT:      -6.2      0.000      0.000
  Name = 
  14 active torsions:
  status: ('A' for Active; 'I' for Inactive)
    1  A    between atoms: C_3  and  N_14
    2  A    between atoms: C_4  and  C_21
    3  A    between atoms: C_5  and  C_41
    4  A    between atoms: C_6  and  C_9
    5  A    between atoms: N_7  and  C_43
    6  A    between atoms: C_9  and  N_14
    7  A    between atoms: C_12  and  C_43
    8  A    between atoms: O_13  and  C_15
    9  A    between atoms: O_13  and  C_31
   10  A    between atoms: C_21  and  C_26
   11  A    between atoms: C_23  and  C_28
   12  A    between atoms: C_23  and  C_37
   13  A    between atoms: C_26  and  C_46
   14  A    between atoms: C_31  and  C_38
                            x       y       z     vdW  Elec       q    Type
                         _______ _______ _______ _____ _____    ______ ____

>  <TORSDO>
F 14

$$$$
=
 OpenBabel11072411073D

 46 48  0  0  1  0  0  0  0  0999 V2000
  159.3740  212.7790  152.4810 C   0  0  0  0  0  0  0  0  0  0  0  0
  159.8030  213.0440  151.1670 C   0  0  0  0  0  0  0  0  0  0  0  0
  161.3440  211.1560  151.3340 C   0  0  0  0  0  0  0  0  0  0  0  0
  160.8400  210.8980  152.6290 C   0  0  0  0  0  0  0  0  0  0  0  0
  159.8880  211.7150  153.1520 N   0  0  0  0  0  0  0  0  0  0  0  0
  160.8070  212.2310  150.6030 C   0  0  0  0  0  0  0  0  0  0  0  0
  157.3380  212.0080  154.8110 C   0  0  1  0  0  3  0  0  0  0  0  0
  156.0760  211.2520  155.2010 C   0  0  0  0  0  1  0  0  0  0  0  0
  157.0900  212.8560  153.5530 C   0  0  1  0  0  3  0  0  0  0  0  0
  156.0260  213.7410  153.7530 O   0  0  0  0  0  1  0  0  0  0  0  0
  159.1440  213.5850  155.5600 C   0  0  2  0  0  3  0  0  0  0  0  0
  158.1270  212.0450  157.0740 O   0  0  0  0  0  1  0  0  0  0  0  0
  158.9140  214.4530  154.3250 C   0  0  0  0  0  2  0  0  0  0  0  0
  158.3420  213.6430  153.1540 C   0  0  1  0  0  3  0  0  0  0  0  0
  157.8620  212.8610  155.9720 C   0  0  2  0  0  3  0  0  0  0  0  0
  159.5950  214.3860  156.6080 O   0  0  0  0  0  1  0  0  0  0  0  0
  161.2800  209.7110  153.4340 C   0  0  2  0  0  3  0  0  0  0  0  0
  160.2210  208.6230  153.4280 C   0  0  0  0  0  1  0  0  0  0  0  0
  160.8070  209.7790  155.8950 O   0  0  0  0  0  1  0  0  0  0  0  0
  162.7120  210.7280  155.0450 O   0  0  0  0  0  0  0  0  0  0  0  0
  161.6440  210.0970  154.8310 C   0  0  0  0  0  0  0  0  0  0  0  0
  162.3470  210.3810  150.7270 O   0  0  0  0  0  0  0  0  0  0  0  0
  162.4490  208.9670  150.8330 C   0  0  0  0  0  2  0  0  0  0  0  0
  161.1630  207.0170  149.8150 N   0  0  0  0  0  0  0  0  0  0  0  0
  161.6270  208.9700  148.6090 O   0  0  0  0  0  0  0  0  0  0  0  0
  161.7410  208.3270  149.6880 C   0  0  0  0  0  0  0  0  0  0  0  0
  161.1360  206.3240  151.0970 C   0  0  0  0  0  2  0  0  0  0  0  0
  160.5300  205.0750  150.9480 O   0  0  0  0  0  1  0  0  0  0  0  0
  160.4610  206.4000  148.6960 C   0  0  0  0  0  2  0  0  0  0  0  0
  161.4520  205.8430  147.6870 C   0  0  1  0  0  3  0  0  0  0  0  0
  161.5250  204.3170  147.7990 C   0  0  0  0  0  2  0  0  0  0  0  0
  161.0130  206.2150  146.2750 C   0  0  0  0  0  2  0  0  0  0  0  0
  162.4590  203.8150  146.8740 O   0  0  0  0  0  0  0  0  0  0  0  0
  161.8690  205.4830  145.2450 C   0  0  1  0  0  3  0  0  0  0  0  0
  161.9010  203.9950  145.5940 C   0  0  0  0  0  2  0  0  0  0  0  0
  161.3200  205.6550  143.9750 O   0  0  0  0  0  1  0  0  0  0  0  0
  161.3400  212.5220  149.2320 C   0  0  0  0  0  2  0  0  0  0  0  0
  160.4600  211.8860  148.1710 C   0  0  0  0  0  2  0  0  0  0  0  0
  159.6000  212.9510  146.2210 O   0  0  0  0  0  0  0  0  0  0  0  0
  160.6160  212.6130  146.8850 C   0  0  0  0  0  0  0  0  0  0  0  0
  161.8840  212.9510  146.4300 O   0  0  0  0  0  1  0  0  0  0  0  0
  159.2570  214.2140  150.3860 C   0  0  0  0  0  2  0  0  0  0  0  0
  157.8060  214.3040  150.5000 N   0  0  0  0  0  2  0  0  0  0  0  0
  155.5290  213.7580  149.8330 O   0  0  0  0  0  1  0  0  0  0  0  0
  157.3190  212.9430  148.6620 O   0  0  0  0  0  0  0  0  0  0  0  0
  156.8960  213.6380  149.6230 C   0  0  0  0  0  0  0  0  0  0  0  0
  1  5  1  0  0  0  0
  2  1  2  0  0  0  0
  3  4  1  0  0  0  0
  4  5  2  0  0  0  0
  4 17  1  0  0  0  0
  6  2  1  0  0  0  0
  6  3  2  0  0  0  0
  7  8  1  1  0  0  0
  7 15  1  0  0  0  0
  9 10  1  1  0  0  0
  9  7  1  0  0  0  0
 11 15  1  0  0  0  0
 11 16  1  1  0  0  0
 13 11  1  0  0  0  0
 14  1  1  1  0  0  0
 14  9  1  0  0  0  0
 14 13  1  0  0  0  0
 15 12  1  1  0  0  0
 17 18  1  1  0  0  0
 17 21  1  0  0  0  0
 21 20  2  0  0  0  0
 21 19  1  0  0  0  0
 22 23  1  0  0  0  0
 22  3  1  0  0  0  0
 24 27  1  0  0  0  0
 25 26  2  0  0  0  0
 26 24  1  0  0  0  0
 26 23  1  0  0  0  0
 28 27  1  0  0  0  0
 29 24  1  0  0  0  0
 30 31  1  0  0  0  0
 30 29  1  1  0  0  0
 32 30  1  0  0  0  0
 33 31  1  0  0  0  0
 34 36  1  6  0  0  0
 34 35  1  0  0  0  0
 34 32  1  0  0  0  0
 35 33  1  0  0  0  0
 37  6  1  0  0  0  0
 38 37  1  0  0  0  0
 39 40  2  0  0  0  0
 40 38  1  0  0  0  0
 41 40  1  0  0  0  0
 42 43  1  0  0  0  0
 42  2  1  0  0  0  0
 45 46  2  0  0  0  0
 46 44  1  0  0  0  0
 46 43  1  0  0  0  0
M  END
>  <MODEL>
2

>  <REMARK>
 VINA RESULT:      -5.6      2.076      3.995
  Name = 
  14 active torsions:
  status: ('A' for Active; 'I' for Inactive)
    1  A    between atoms: C_3  and  N_14
    2  A    between atoms: C_4  and  C_21
    3  A    between atoms: C_5  and  C_41
    4  A    between atoms: C_6  and  C_9
    5  A    between atoms: N_7  and  C_43
    6  A    between atoms: C_9  and  N_14
    7  A    between atoms: C_12  and  C_43
    8  A    between atoms: O_13  and  C_15
    9  A    between atoms: O_13  and  C_31
   10  A    between atoms: C_21  and  C_26
   11  A    between atoms: C_23  and  C_28
   12  A    between atoms: C_23  and  C_37
   13  A    between atoms: C_26  and  C_46
   14  A    between atoms: C_31  and  C_38
                            x       y       z     vdW  Elec       q    Type
                         _______ _______ _______ _____ _____    ______ ____

>  <TORSDO>
F 14

$$$$
=
 OpenBabel11072411073D

 46 48  0  0  1  0  0  0  0  0999 V2000
  159.5180  212.5550  152.7320 C   0  0  0  0  0  0  0  0  0  0  0  0
  159.7770  212.7480  151.3610 C   0  0  0  0  0  0  0  0  0  0  0  0
  161.2680  210.8140  151.4150 C   0  0  0  0  0  0  0  0  0  0  0  0
  160.9340  210.6310  152.7760 C   0  0  0  0  0  0  0  0  0  0  0  0
  160.0850  211.5040  153.3800 N   0  0  0  0  0  0  0  0  0  0  0  0
  160.6720  211.8750  150.7100 C   0  0  0  0  0  0  0  0  0  0  0  0
  157.3320  211.8450  154.9410 C   0  0  1  0  0  3  0  0  0  0  0  0
  155.9620  211.2500  155.2320 C   0  0  0  0  0  1  0  0  0  0  0  0
  157.2460  212.8580  153.7880 C   0  0  1  0  0  3  0  0  0  0  0  0
  156.3220  213.8650  154.0810 O   0  0  0  0  0  1  0  0  0  0  0  0
  159.3350  213.0340  155.8820 C   0  0  2  0  0  3  0  0  0  0  0  0
  158.0610  211.5060  157.2000 O   0  0  0  0  0  1  0  0  0  0  0  0
  159.2690  214.0610  154.7530 C   0  0  0  0  0  2  0  0  0  0  0  0
  158.6110  213.4850  153.4920 C   0  0  1  0  0  3  0  0  0  0  0  0
  157.9480  212.4710  156.1970 C   0  0  2  0  0  3  0  0  0  0  0  0
  159.8750  213.6340  157.0180 O   0  0  0  0  0  1  0  0  0  0  0  0
  161.4410  209.4650  153.5720 C   0  0  2  0  0  3  0  0  0  0  0  0
  160.6330  208.2130  153.2840 C   0  0  0  0  0  1  0  0  0  0  0  0
  160.4580  209.2890  155.8710 O   0  0  0  0  0  1  0  0  0  0  0  0
  162.3910  210.4670  155.5150 O   0  0  0  0  0  0  0  0  0  0  0  0
  161.4620  209.7650  155.0360 C   0  0  0  0  0  0  0  0  0  0  0  0
  162.1580  209.9780  150.7190 O   0  0  0  0  0  0  0  0  0  0  0  0
  161.7780  209.0760  149.6880 C   0  0  0  0  0  2  0  0  0  0  0  0
  161.6230  206.5560  149.3430 N   0  0  0  0  0  0  0  0  0  0  0  0
  162.8310  207.5010  151.1130 O   0  0  0  0  0  0  0  0  0  0  0  0
  162.1010  207.6810  150.1010 C   0  0  0  0  0  0  0  0  0  0  0  0
  160.9190  206.7390  148.0810 C   0  0  0  0  0  2  0  0  0  0  0  0
  161.8380  206.8560  147.0370 O   0  0  0  0  0  1  0  0  0  0  0  0
  161.9510  205.1930  149.7450 C   0  0  0  0  0  2  0  0  0  0  0  0
  161.0650  204.1950  149.0170 C   0  0  1  0  0  3  0  0  0  0  0  0
  161.7860  203.6440  147.7830 C   0  0  0  0  0  2  0  0  0  0  0  0
  160.7220  203.0370  149.9480 C   0  0  0  0  0  2  0  0  0  0  0  0
  160.9500  202.7360  147.1070 O   0  0  0  0  0  0  0  0  0  0  0  0
  160.0210  201.9250  149.1720 C   0  0  1  0  0  3  0  0  0  0  0  0
  160.8420  201.5960  147.9250 C   0  0  0  0  0  2  0  0  0  0  0  0
  159.9130  200.7910  149.9760 O   0  0  0  0  0  1  0  0  0  0  0  0
  161.0260  212.0870  149.2680 C   0  0  0  0  0  2  0  0  0  0  0  0
  161.5940  213.4790  149.0580 C   0  0  0  0  0  2  0  0  0  0  0  0
  162.6450  214.4490  147.1530 O   0  0  0  0  0  0  0  0  0  0  0  0
  162.5630  213.4620  147.9310 C   0  0  0  0  0  0  0  0  0  0  0  0
  163.4050  212.3710  147.7570 O   0  0  0  0  0  1  0  0  0  0  0  0
  159.1670  213.9010  150.6040 C   0  0  0  0  0  2  0  0  0  0  0  0
  157.9330  213.5100  149.9320 N   0  0  0  0  0  2  0  0  0  0  0  0
  156.5070  213.2360  147.9790 O   0  0  0  0  0  1  0  0  0  0  0  0
  158.5730  214.2050  147.7930 O   0  0  0  0  0  0  0  0  0  0  0  0
  157.7030  213.6720  148.5320 C   0  0  0  0  0  0  0  0  0  0  0  0
  1  5  1  0  0  0  0
  2  1  2  0  0  0  0
  3  4  1  0  0  0  0
  4  5  2  0  0  0  0
  4 17  1  0  0  0  0
  6  2  1  0  0  0  0
  6  3  2  0  0  0  0
  7  8  1  1  0  0  0
  7 15  1  0  0  0  0
  9 10  1  1  0  0  0
  9  7  1  0  0  0  0
 11 15  1  0  0  0  0
 11 16  1  1  0  0  0
 13 11  1  0  0  0  0
 14  1  1  1  0  0  0
 14  9  1  0  0  0  0
 14 13  1  0  0  0  0
 15 12  1  1  0  0  0
 17 18  1  1  0  0  0
 17 21  1  0  0  0  0
 21 20  2  0  0  0  0
 21 19  1  0  0  0  0
 22  3  1  0  0  0  0
 23 26  1  0  0  0  0
 23 22  1  0  0  0  0
 24 29  1  0  0  0  0
 24 26  1  0  0  0  0
 26 25  2  0  0  0  0
 27 24  1  0  0  0  0
 28 27  1  0  0  0  0
 30 29  1  1  0  0  0
 30 32  1  0  0  0  0
 31 30  1  0  0  0  0
 33 31  1  0  0  0  0
 33 35  1  0  0  0  0
 34 32  1  0  0  0  0
 34 36  1  1  0  0  0
 35 34  1  0  0  0  0
 37  6  1  0  0  0  0
 38 37  1  0  0  0  0
 39 40  2  0  0  0  0
 40 38  1  0  0  0  0
 41 40  1  0  0  0  0
 42  2  1  0  0  0  0
 43 42  1  0  0  0  0
 44 46  1  0  0  0  0
 45 46  2  0  0  0  0
 46 43  1  0  0  0  0
M  END
>  <MODEL>
3

>  <REMARK>
 VINA RESULT:      -5.5      2.110      3.379
  Name = 
  14 active torsions:
  status: ('A' for Active; 'I' for Inactive)
    1  A    between atoms: C_3  and  N_14
    2  A    between atoms: C_4  and  C_21
    3  A    between atoms: C_5  and  C_41
    4  A    between atoms: C_6  and  C_9
    5  A    between atoms: N_7  and  C_43
    6  A    between atoms: C_9  and  N_14
    7  A    between atoms: C_12  and  C_43
    8  A    between atoms: O_13  and  C_15
    9  A    between atoms: O_13  and  C_31
   10  A    between atoms: C_21  and  C_26
   11  A    between atoms: C_23  and  C_28
   12  A    between atoms: C_23  and  C_37
   13  A    between atoms: C_26  and  C_46
   14  A    between atoms: C_31  and  C_38
                            x       y       z     vdW  Elec       q    Type
                         _______ _______ _______ _____ _____    ______ ____

>  <TORSDO>
F 14

$$$$
=
 OpenBabel11072411073D

 46 48  0  0  1  0  0  0  0  0999 V2000
  160.6270  211.3920  153.0080 C   0  0  0  0  0  0  0  0  0  0  0  0
  161.2010  210.1230  153.2200 C   0  0  0  0  0  0  0  0  0  0  0  0
  161.5490  209.9250  150.8110 C   0  0  0  0  0  0  0  0  0  0  0  0
  161.0140  211.2240  150.6570 C   0  0  0  0  0  0  0  0  0  0  0  0
  160.5710  211.8990  151.7490 N   0  0  0  0  0  0  0  0  0  0  0  0
  161.6490  209.3860  152.1060 C   0  0  0  0  0  0  0  0  0  0  0  0
  157.9840  213.1710  153.1170 C   0  0  1  0  0  3  0  0  0  0  0  0
  157.2930  214.4530  152.6770 C   0  0  0  0  0  1  0  0  0  0  0  0
  159.3800  213.4790  153.6830 C   0  0  1  0  0  3  0  0  0  0  0  0
  159.2950  214.3850  154.7450 O   0  0  0  0  0  1  0  0  0  0  0  0
  157.8340  211.0940  154.5220 C   0  0  2  0  0  3  0  0  0  0  0  0
  155.8920  212.0810  153.5470 O   0  0  0  0  0  1  0  0  0  0  0  0
  159.2150  211.3790  155.1100 C   0  0  0  0  0  2  0  0  0  0  0  0
  160.0860  212.2030  154.1540 C   0  0  1  0  0  3  0  0  0  0  0  0
  157.1280  212.3890  154.1200 C   0  0  2  0  0  3  0  0  0  0  0  0
  157.0670  210.4060  155.4610 O   0  0  0  0  0  1  0  0  0  0  0  0
  160.9690  211.9160  149.3250 C   0  0  2  0  0  3  0  0  0  0  0  0
  162.3590  212.0390  148.7260 C   0  0  0  0  0  1  0  0  0  0  0  0
  160.8070  214.2320  150.2670 O   0  0  0  0  0  1  0  0  0  0  0  0
  159.2750  213.4840  148.7360 O   0  0  0  0  0  0  0  0  0  0  0  0
  160.3060  213.2510  149.4200 C   0  0  0  0  0  0  0  0  0  0  0  0
  162.0040  209.1440  149.7340 O   0  0  0  0  0  0  0  0  0  0  0  0
  161.2210  208.1710  149.0550 C   0  0  0  0  0  2  0  0  0  0  0  0
  161.5940  206.4470  147.2160 N   0  0  0  0  0  0  0  0  0  0  0  0
  163.3460  207.2510  148.5460 O   0  0  0  0  0  0  0  0  0  0  0  0
  162.1140  207.2660  148.2780 C   0  0  0  0  0  0  0  0  0  0  0  0
  160.2100  206.5670  146.7780 C   0  0  0  0  0  2  0  0  0  0  0  0
  160.1410  206.4630  145.3880 O   0  0  0  0  0  1  0  0  0  0  0  0
  162.4730  205.5710  146.4510 C   0  0  0  0  0  2  0  0  0  0  0  0
  162.2550  204.1190  146.8460 C   0  0  1  0  0  3  0  0  0  0  0  0
  161.4890  204.0370  148.1700 C   0  0  0  0  0  2  0  0  0  0  0  0
  161.4490  203.4080  145.7630 C   0  0  0  0  0  2  0  0  0  0  0  0
  161.3090  202.6900  148.5340 O   0  0  0  0  0  0  0  0  0  0  0  0
  161.0330  202.0190  146.2410 C   0  0  1  0  0  3  0  0  0  0  0  0
  160.3880  202.1410  147.6220 C   0  0  0  0  0  2  0  0  0  0  0  0
  160.1190  201.4710  145.3430 O   0  0  0  0  0  1  0  0  0  0  0  0
  162.2040  208.0040  152.2820 C   0  0  0  0  0  2  0  0  0  0  0  0
  161.1650  206.9610  151.9100 C   0  0  0  0  0  2  0  0  0  0  0  0
  161.4810  205.4880  153.7560 O   0  0  0  0  0  1  0  0  0  0  0  0
  161.5310  205.6500  152.5080 C   0  0  0  0  0  0  0  0  0  0  0  0
  161.8960  204.5920  151.6860 O   0  0  0  0  0  0  0  0  0  0  0  0
  161.2840  209.5230  154.6010 C   0  0  0  0  0  2  0  0  0  0  0  0
  160.3390  208.4230  154.7660 N   0  0  0  0  0  2  0  0  0  0  0  0
  158.9540  206.9180  156.0850 O   0  0  0  0  0  0  0  0  0  0  0  0
  160.3080  208.4570  157.1040 O   0  0  0  0  0  1  0  0  0  0  0  0
  159.8810  207.9500  156.0330 C   0  0  0  0  0  0  0  0  0  0  0  0
  1  2  1  0  0  0  0
  2 42  1  0  0  0  0
  3  6  1  0  0  0  0
  4  3  2  0  0  0  0
  4  5  1  0  0  0  0
  5  1  2  0  0  0  0
  6 37  1  0  0  0  0
  6  2  2  0  0  0  0
  7  8  1  1  0  0  0
  7  9  1  0  0  0  0
  7 15  1  0  0  0  0
  9 14  1  0  0  0  0
  9 10  1  1  0  0  0
 11 13  1  0  0  0  0
 11 16  1  1  0  0  0
 14  1  1  6  0  0  0
 14 13  1  0  0  0  0
 15 12  1  6  0  0  0
 15 11  1  0  0  0  0
 17 18  1  1  0  0  0
 17 21  1  0  0  0  0
 17  4  1  0  0  0  0
 20 21  2  0  0  0  0
 21 19  1  0  0  0  0
 22  3  1  0  0  0  0
 23 22  1  0  0  0  0
 24 26  1  0  0  0  0
 26 25  2  0  0  0  0
 26 23  1  0  0  0  0
 27 24  1  0  0  0  0
 28 27  1  0  0  0  0
 29 24  1  0  0  0  0
 30 29  1  6  0  0  0
 30 31  1  0  0  0  0
 31 33  1  0  0  0  0
 32 34  1  0  0  0  0
 32 30  1  0  0  0  0
 34 36  1  6  0  0  0
 34 35  1  0  0  0  0
 35 33  1  0  0  0  0
 38 37  1  0  0  0  0
 38 40  1  0  0  0  0
 40 39  1  0  0  0  0
 41 40  2  0  0  0  0
 42 43  1  0  0  0  0
 43 46  1  0  0  0  0
 46 44  2  0  0  0  0
 46 45  1  0  0  0  0
M  END
>  <MODEL>
4

>  <REMARK>
 VINA RESULT:      -4.4      1.570      5.253
  Name = 
  14 active torsions:
  status: ('A' for Active; 'I' for Inactive)
    1  A    between atoms: C_3  and  N_14
    2  A    between atoms: C_4  and  C_21
    3  A    between atoms: C_5  and  C_41
    4  A    between atoms: C_6  and  C_9
    5  A    between atoms: N_7  and  C_43
    6  A    between atoms: C_9  and  N_14
    7  A    between atoms: C_12  and  C_43
    8  A    between atoms: O_13  and  C_15
    9  A    between atoms: O_13  and  C_31
   10  A    between atoms: C_21  and  C_26
   11  A    between atoms: C_23  and  C_28
   12  A    between atoms: C_23  and  C_37
   13  A    between atoms: C_26  and  C_46
   14  A    between atoms: C_31  and  C_38
                            x       y       z     vdW  Elec       q    Type
                         _______ _______ _______ _____ _____    ______ ____

>  <TORSDO>
F 14

$$$$
=
 OpenBabel11072411073D

 46 48  0  0  1  0  0  0  0  0999 V2000
  160.0280  211.0830  153.1020 C   0  0  0  0  0  0  0  0  0  0  0  0
  160.6310  210.8600  151.8490 C   0  0  0  0  0  0  0  0  0  0  0  0
  161.5670  208.7780  152.7170 C   0  0  0  0  0  0  0  0  0  0  0  0
  160.8970  209.0210  153.9380 C   0  0  0  0  0  0  0  0  0  0  0  0
  160.1660  210.1570  154.0850 N   0  0  0  0  0  0  0  0  0  0  0  0
  161.4170  209.7040  151.6700 C   0  0  0  0  0  0  0  0  0  0  0  0
  157.3680  211.3980  154.8310 C   0  0  1  0  0  3  0  0  0  0  0  0
  155.8720  211.1370  154.9250 C   0  0  0  0  0  1  0  0  0  0  0  0
  157.7200  212.0330  153.4760 C   0  0  1  0  0  3  0  0  0  0  0  0
  156.9990  213.2150  153.2800 O   0  0  0  0  0  1  0  0  0  0  0  0
  159.3710  212.4770  155.8960 C   0  0  2  0  0  3  0  0  0  0  0  0
  157.5730  211.6170  157.2090 O   0  0  0  0  0  1  0  0  0  0  0  0
  159.7400  213.1300  154.5650 C   0  0  0  0  0  2  0  0  0  0  0  0
  159.2200  212.3240  153.3680 C   0  0  1  0  0  3  0  0  0  0  0  0
  157.8610  212.2560  156.0010 C   0  0  2  0  0  3  0  0  0  0  0  0
  159.8070  213.2870  156.9430 O   0  0  0  0  0  1  0  0  0  0  0  0
  160.9170  208.0340  155.0690 C   0  0  2  0  0  3  0  0  0  0  0  0
  159.5320  207.4680  155.3250 C   0  0  0  0  0  1  0  0  0  0  0  0
  161.0880  209.8920  156.7420 O   0  0  0  0  0  0  0  0  0  0  0  0
  162.3540  207.9960  156.9680 O   0  0  0  0  0  1  0  0  0  0  0  0
  161.4900  208.6330  156.3120 C   0  0  0  0  0  0  0  0  0  0  0  0
  162.3670  207.6450  152.4870 O   0  0  0  0  0  0  0  0  0  0  0  0
  161.9360  206.3030  152.6690 C   0  0  0  0  0  2  0  0  0  0  0  0
  161.1270  204.5580  150.9960 N   0  0  0  0  0  0  0  0  0  0  0  0
  160.2730  206.7380  151.0360 O   0  0  0  0  0  0  0  0  0  0  0  0
  161.0760  205.8950  151.5220 C   0  0  0  0  0  0  0  0  0  0  0  0
  161.9230  203.5220  151.6420 C   0  0  0  0  0  2  0  0  0  0  0  0
  161.0870  202.6360  152.3230 O   0  0  0  0  0  1  0  0  0  0  0  0
  160.2760  204.1610  149.8810 C   0  0  0  0  0  2  0  0  0  0  0  0
  161.0380  203.2600  148.9230 C   0  0  1  0  0  3  0  0  0  0  0  0
  160.3580  201.8920  148.8230 C   0  0  0  0  0  2  0  0  0  0  0  0
  161.0740  203.8970  147.5370 C   0  0  0  0  0  2  0  0  0  0  0  0
  161.0810  201.0610  147.9490 O   0  0  0  0  0  0  0  0  0  0  0  0
  161.6390  202.9120  146.5180 C   0  0  1  0  0  3  0  0  0  0  0  0
  160.9010  201.5790  146.6530 C   0  0  0  0  0  2  0  0  0  0  0  0
  161.4610  203.4180  145.2310 O   0  0  0  0  0  1  0  0  0  0  0  0
  162.1310  209.4640  150.3730 C   0  0  0  0  0  2  0  0  0  0  0  0
  161.1810  208.8860  149.3400 C   0  0  0  0  0  2  0  0  0  0  0  0
  163.1550  207.8090  148.5520 O   0  0  0  0  0  1  0  0  0  0  0  0
  161.9010  207.9030  148.4880 C   0  0  0  0  0  0  0  0  0  0  0  0
  161.1850  207.0640  147.6440 O   0  0  0  0  0  0  0  0  0  0  0  0
  160.5030  211.8630  150.7290 C   0  0  0  0  0  2  0  0  0  0  0  0
  161.7610  212.0260  150.0080 N   0  0  0  0  0  2  0  0  0  0  0  0
  163.1000  212.6640  148.0790 O   0  0  0  0  0  1  0  0  0  0  0  0
  160.8160  212.8020  148.0150 O   0  0  0  0  0  0  0  0  0  0  0  0
  161.8530  212.5110  148.6680 C   0  0  0  0  0  0  0  0  0  0  0  0
  1  5  1  0  0  0  0
  2  1  2  0  0  0  0
  3  4  1  0  0  0  0
  4  5  2  0  0  0  0
  4 17  1  0  0  0  0
  6  2  1  0  0  0  0
  6  3  2  0  0  0  0
  7  8  1  1  0  0  0
  7 15  1  0  0  0  0
  9 10  1  1  0  0  0
  9  7  1  0  0  0  0
 11 15  1  0  0  0  0
 11 16  1  1  0  0  0
 13 11  1  0  0  0  0
 14  1  1  1  0  0  0
 14  9  1  0  0  0  0
 14 13  1  0  0  0  0
 15 12  1  1  0  0  0
 17 18  1  1  0  0  0
 17 21  1  0  0  0  0
 21 19  2  0  0  0  0
 21 20  1  0  0  0  0
 22 23  1  0  0  0  0
 22  3  1  0  0  0  0
 24 26  1  0  0  0  0
 24 27  1  0  0  0  0
 25 26  2  0  0  0  0
 26 23  1  0  0  0  0
 27 28  1  0  0  0  0
 29 24  1  0  0  0  0
 30 29  1  1  0  0  0
 31 30  1  0  0  0  0
 32 30  1  0  0  0  0
 33 31  1  0  0  0  0
 34 36  1  6  0  0  0
 34 35  1  0  0  0  0
 34 32  1  0  0  0  0
 35 33  1  0  0  0  0
 37  6  1  0  0  0  0
 38 37  1  0  0  0  0
 40 39  1  0  0  0  0
 40 38  1  0  0  0  0
 41 40  2  0  0  0  0
 42  2  1  0  0  0  0
 43 42  1  0  0  0  0
 44 46  1  0  0  0  0
 45 46  2  0  0  0  0
 46 43  1  0  0  0  0
M  END
>  <MODEL>
5

>  <REMARK>
 VINA RESULT:      -4.0      1.962      4.218
  Name = 
  14 active torsions:
  status: ('A' for Active; 'I' for Inactive)
    1  A    between atoms: C_3  and  N_14
    2  A    between atoms: C_4  and  C_21
    3  A    between atoms: C_5  and  C_41
    4  A    between atoms: C_6  and  C_9
    5  A    between atoms: N_7  and  C_43
    6  A    between atoms: C_9  and  N_14
    7  A    between atoms: C_12  and  C_43
    8  A    between atoms: O_13  and  C_15
    9  A    between atoms: O_13  and  C_31
   10  A    between atoms: C_21  and  C_26
   11  A    between atoms: C_23  and  C_28
   12  A    between atoms: C_23  and  C_37
   13  A    between atoms: C_26  and  C_46
   14  A    between atoms: C_31  and  C_38
                            x       y       z     vdW  Elec       q    Type
                         _______ _______ _______ _____ _____    ______ ____

>  <TORSDO>
F 14

$$$$
=
 OpenBabel11072411073D

 46 48  0  0  1  0  0  0  0  0999 V2000
  161.5290  210.3400  153.0290 C   0  0  0  0  0  0  0  0  0  0  0  0
  161.2950  210.7810  151.7120 C   0  0  0  0  0  0  0  0  0  0  0  0
  161.8500  208.5420  150.9100 C   0  0  0  0  0  0  0  0  0  0  0  0
  162.0200  208.1350  152.2530 C   0  0  0  0  0  0  0  0  0  0  0  0
  161.8620  209.0430  153.2520 N   0  0  0  0  0  0  0  0  0  0  0  0
  161.4740  209.8720  150.6500 C   0  0  0  0  0  0  0  0  0  0  0  0
  159.3960  210.2970  155.3990 C   0  0  1  0  0  3  0  0  0  0  0  0
  157.9560  210.5470  155.8210 C   0  0  0  0  0  1  0  0  0  0  0  0
  159.9450  211.5000  154.6150 C   0  0  1  0  0  3  0  0  0  0  0  0
  159.8480  212.6710  155.3730 O   0  0  0  0  0  1  0  0  0  0  0  0
  161.7150  209.6830  156.1460 C   0  0  2  0  0  3  0  0  0  0  0  0
  159.7810  208.8260  157.2520 O   0  0  0  0  0  1  0  0  0  0  0  0
  162.2880  210.8770  155.3850 C   0  0  0  0  0  2  0  0  0  0  0  0
  161.4020  211.2790  154.1990 C   0  0  1  0  0  3  0  0  0  0  0  0
  160.2820  209.9570  156.6030 C   0  0  2  0  0  3  0  0  0  0  0  0
  162.5220  209.4090  157.2490 O   0  0  0  0  0  1  0  0  0  0  0  0
  162.3170  206.7120  152.6230 C   0  0  2  0  0  3  0  0  0  0  0  0
  162.9060  205.9520  151.4480 C   0  0  0  0  0  1  0  0  0  0  0  0
  160.3420  206.6000  154.1630 O   0  0  0  0  0  1  0  0  0  0  0  0
  160.7820  204.8910  152.7010 O   0  0  0  0  0  0  0  0  0  0  0  0
  161.1060  206.0180  153.1580 C   0  0  0  0  0  0  0  0  0  0  0  0
  162.0220  207.6790  149.8130 O   0  0  0  0  0  0  0  0  0  0  0  0
  160.9840  206.9060  149.2250 C   0  0  0  0  0  2  0  0  0  0  0  0
  161.3840  204.6170  148.1790 N   0  0  0  0  0  0  0  0  0  0  0  0
  162.1600  206.5920  147.1900 O   0  0  0  0  0  0  0  0  0  0  0  0
  161.5530  206.0440  148.1500 C   0  0  0  0  0  0  0  0  0  0  0  0
  160.5490  203.9740  149.1860 C   0  0  0  0  0  2  0  0  0  0  0  0
  161.3280  203.1390  149.9870 O   0  0  0  0  0  1  0  0  0  0  0  0
  161.9330  203.7790  147.1200 C   0  0  0  0  0  2  0  0  0  0  0  0
  160.9260  202.7180  146.7040 C   0  0  1  0  0  3  0  0  0  0  0  0
  160.4630  202.9590  145.2640 C   0  0  0  0  0  2  0  0  0  0  0  0
  161.5680  201.3370  146.7920 C   0  0  0  0  0  2  0  0  0  0  0  0
  159.5180  201.9830  144.8960 O   0  0  0  0  0  0  0  0  0  0  0  0
  160.6500  200.2870  146.1720 C   0  0  1  0  0  3  0  0  0  0  0  0
  160.2140  200.7640  144.7870 C   0  0  0  0  0  2  0  0  0  0  0  0
  161.3340  199.0780  146.0580 O   0  0  0  0  0  1  0  0  0  0  0  0
  161.3020  210.3190  149.2290 C   0  0  0  0  0  2  0  0  0  0  0  0
  162.4490  211.2210  148.8110 C   0  0  0  0  0  2  0  0  0  0  0  0
  162.6500  213.3030  147.6710 O   0  0  0  0  0  1  0  0  0  0  0  0
  161.9480  212.2830  147.8990 C   0  0  0  0  0  0  0  0  0  0  0  0
  160.7190  212.1330  147.2700 O   0  0  0  0  0  0  0  0  0  0  0  0
  160.9230  212.2130  151.4210 C   0  0  0  0  0  2  0  0  0  0  0  0
  159.4990  212.4510  151.6310 N   0  0  0  0  0  2  0  0  0  0  0  0
  157.3090  213.2890  150.9770 O   0  0  0  0  0  1  0  0  0  0  0  0
  159.1360  213.6200  149.6380 O   0  0  0  0  0  0  0  0  0  0  0  0
  158.6620  213.1420  150.7030 C   0  0  0  0  0  0  0  0  0  0  0  0
  1  5  1  0  0  0  0
  2  1  2  0  0  0  0
  3  4  1  0  0  0  0
  4 17  1  0  0  0  0
  4  5  2  0  0  0  0
  6  3  2  0  0  0  0
  6  2  1  0  0  0  0
  7  8  1  1  0  0  0
  7 15  1  0  0  0  0
  9 10  1  1  0  0  0
  9  7  1  0  0  0  0
 11 15  1  0  0  0  0
 11 16  1  1  0  0  0
 13 11  1  0  0  0  0
 14  1  1  6  0  0  0
 14  9  1  0  0  0  0
 14 13  1  0  0  0  0
 15 12  1  6  0  0  0
 17 18  1  6  0  0  0
 17 21  1  0  0  0  0
 20 21  2  0  0  0  0
 21 19  1  0  0  0  0
 22  3  1  0  0  0  0
 23 22  1  0  0  0  0
 24 27  1  0  0  0  0
 25 26  2  0  0  0  0
 26 24  1  0  0  0  0
 26 23  1  0  0  0  0
 27 28  1  0  0  0  0
 29 24  1  0  0  0  0
 30 32  1  0  0  0  0
 30 29  1  6  0  0  0
 31 30  1  0  0  0  0
 33 31  1  0  0  0  0
 34 36  1  6  0  0  0
 34 32  1  0  0  0  0
 35 33  1  0  0  0  0
 35 34  1  0  0  0  0
 37  6  1  0  0  0  0
 38 37  1  0  0  0  0
 39 40  1  0  0  0  0
 40 38  1  0  0  0  0
 41 40  2  0  0  0  0
 42 43  1  0  0  0  0
 42  2  1  0  0  0  0
 45 46  2  0  0  0  0
 46 44  1  0  0  0  0
 46 43  1  0  0  0  0
M  END
>  <MODEL>
6

>  <REMARK>
 VINA RESULT:      -3.8      1.480      2.302
  Name = 
  14 active torsions:
  status: ('A' for Active; 'I' for Inactive)
    1  A    between atoms: C_3  and  N_14
    2  A    between atoms: C_4  and  C_21
    3  A    between atoms: C_5  and  C_41
    4  A    between atoms: C_6  and  C_9
    5  A    between atoms: N_7  and  C_43
    6  A    between atoms: C_9  and  N_14
    7  A    between atoms: C_12  and  C_43
    8  A    between atoms: O_13  and  C_15
    9  A    between atoms: O_13  and  C_31
   10  A    between atoms: C_21  and  C_26
   11  A    between atoms: C_23  and  C_28
   12  A    between atoms: C_23  and  C_37
   13  A    between atoms: C_26  and  C_46
   14  A    between atoms: C_31  and  C_38
                            x       y       z     vdW  Elec       q    Type
                         _______ _______ _______ _____ _____    ______ ____

>  <TORSDO>
F 14

$$$$
=
 OpenBabel11072411073D

 46 48  0  0  1  0  0  0  0  0999 V2000
  161.6130  209.2710  151.2780 C   0  0  0  0  0  0  0  0  0  0  0  0
  161.9260  208.9590  149.9410 C   0  0  0  0  0  0  0  0  0  0  0  0
  161.5700  206.5970  150.4520 C   0  0  0  0  0  0  0  0  0  0  0  0
  161.2110  206.9670  151.7680 C   0  0  0  0  0  0  0  0  0  0  0  0
  161.2530  208.2760  152.1300 N   0  0  0  0  0  0  0  0  0  0  0  0
  161.9160  207.6080  149.5380 C   0  0  0  0  0  0  0  0  0  0  0  0
  159.5200  210.7910  153.1420 C   0  0  1  0  0  3  0  0  0  0  0  0
  158.1460  211.4350  153.2530 C   0  0  0  0  0  1  0  0  0  0  0  0
  160.2590  211.3090  151.8970 C   0  0  1  0  0  3  0  0  0  0  0  0
  160.3680  212.7030  151.9290 O   0  0  0  0  0  1  0  0  0  0  0  0
  161.7060  210.3240  154.2880 C   0  0  2  0  0  3  0  0  0  0  0  0
  159.6640  210.4720  155.5140 O   0  0  0  0  0  1  0  0  0  0  0  0
  162.4680  210.8420  153.0700 C   0  0  0  0  0  2  0  0  0  0  0  0
  161.6550  210.6890  151.7780 C   0  0  1  0  0  3  0  0  0  0  0  0
  160.3440  211.0060  154.4170 C   0  0  2  0  0  3  0  0  0  0  0  0
  162.4640  210.5540  155.4360 O   0  0  0  0  0  1  0  0  0  0  0  0
  160.7280  205.9650  152.7750 C   0  0  2  0  0  3  0  0  0  0  0  0
  160.8430  206.5090  154.1880 C   0  0  0  0  0  1  0  0  0  0  0  0
  162.8110  204.6260  152.3890 O   0  0  0  0  0  0  0  0  0  0  0  0
  160.8030  203.5830  152.7480 O   0  0  0  0  0  1  0  0  0  0  0  0
  161.4450  204.6610  152.6420 C   0  0  0  0  0  0  0  0  0  0  0  0
  161.5830  205.2660  150.0000 O   0  0  0  0  0  0  0  0  0  0  0  0
  160.8020  204.7740  148.9200 C   0  0  0  0  0  2  0  0  0  0  0  0
  161.0970  202.2440  148.8150 N   0  0  0  0  0  0  0  0  0  0  0  0
  162.2940  203.6980  147.4230 O   0  0  0  0  0  0  0  0  0  0  0  0
  161.4500  203.5580  148.3490 C   0  0  0  0  0  0  0  0  0  0  0  0
  160.0090  202.0450  149.7640 C   0  0  0  0  0  2  0  0  0  0  0  0
  160.2550  200.9100  150.5370 O   0  0  0  0  0  1  0  0  0  0  0  0
  161.7250  201.0580  148.2470 C   0  0  0  0  0  2  0  0  0  0  0  0
  160.8440  200.4540  147.1660 C   0  0  1  0  0  3  0  0  0  0  0  0
  160.4930  201.5090  146.1130 C   0  0  0  0  0  2  0  0  0  0  0  0
  161.5800  199.3030  146.4860 C   0  0  0  0  0  2  0  0  0  0  0  0
  159.6620  200.9440  145.1280 O   0  0  0  0  0  0  0  0  0  0  0  0
  160.8030  198.8310  145.2600 C   0  0  1  0  0  3  0  0  0  0  0  0
  160.4560  200.0430  144.3950 C   0  0  0  0  0  2  0  0  0  0  0  0
  161.5850  197.9390  144.5270 O   0  0  0  0  0  1  0  0  0  0  0  0
  162.3090  207.2290  148.1420 C   0  0  0  0  0  2  0  0  0  0  0  0
  161.0970  207.2310  147.2270 C   0  0  0  0  0  2  0  0  0  0  0  0
  160.4660  206.1750  145.1870 O   0  0  0  0  0  0  0  0  0  0  0  0
  161.3880  206.4390  146.0040 C   0  0  0  0  0  0  0  0  0  0  0  0
  162.6860  206.0200  145.7420 O   0  0  0  0  0  1  0  0  0  0  0  0
  162.3290  210.0330  148.9610 C   0  0  0  0  0  2  0  0  0  0  0  0
  161.2590  211.0030  148.7570 N   0  0  0  0  0  2  0  0  0  0  0  0
  160.3880  213.1870  148.1290 O   0  0  0  0  0  1  0  0  0  0  0  0
  162.6410  212.7810  148.1260 O   0  0  0  0  0  0  0  0  0  0  0  0
  161.4760  212.3480  148.3270 C   0  0  0  0  0  0  0  0  0  0  0  0
  1  5  1  0  0  0  0
  2  1  2  0  0  0  0
  3  4  1  0  0  0  0
  4  5  2  0  0  0  0
  4 17  1  0  0  0  0
  6  2  1  0  0  0  0
  6  3  2  0  0  0  0
  7  8  1  1  0  0  0
  7 15  1  0  0  0  0
  9 10  1  1  0  0  0
  9  7  1  0  0  0  0
 11 15  1  0  0  0  0
 11 16  1  1  0  0  0
 13 11  1  0  0  0  0
 14  1  1  1  0  0  0
 14  9  1  0  0  0  0
 14 13  1  0  0  0  0
 15 12  1  1  0  0  0
 17 18  1  1  0  0  0
 19 21  2  0  0  0  0
 21 20  1  0  0  0  0
 21 17  1  0  0  0  0
 22  3  1  0  0  0  0
 23 22  1  0  0  0  0
 24 27  1  0  0  0  0
 25 26  2  0  0  0  0
 26 24  1  0  0  0  0
 26 23  1  0  0  0  0
 27 28  1  0  0  0  0
 29 24  1  0  0  0  0
 30 29  1  1  0  0  0
 31 30  1  0  0  0  0
 32 30  1  0  0  0  0
 33 31  1  0  0  0  0
 34 36  1  6  0  0  0
 34 32  1  0  0  0  0
 35 33  1  0  0  0  0
 35 34  1  0  0  0  0
 37  6  1  0  0  0  0
 38 37  1  0  0  0  0
 39 40  2  0  0  0  0
 40 38  1  0  0  0  0
 41 40  1  0  0  0  0
 42  2  1  0  0  0  0
 43 42  1  0  0  0  0
 44 46  1  0  0  0  0
 45 46  2  0  0  0  0
 46 43  1  0  0  0  0
M  END
>  <MODEL>
7

>  <REMARK>
 VINA RESULT:      -3.2      1.826      4.115
  Name = 
  14 active torsions:
  status: ('A' for Active; 'I' for Inactive)
    1  A    between atoms: C_3  and  N_14
    2  A    between atoms: C_4  and  C_21
    3  A    between atoms: C_5  and  C_41
    4  A    between atoms: C_6  and  C_9
    5  A    between atoms: N_7  and  C_43
    6  A    between atoms: C_9  and  N_14
    7  A    between atoms: C_12  and  C_43
    8  A    between atoms: O_13  and  C_15
    9  A    between atoms: O_13  and  C_31
   10  A    between atoms: C_21  and  C_26
   11  A    between atoms: C_23  and  C_28
   12  A    between atoms: C_23  and  C_37
   13  A    between atoms: C_26  and  C_46
   14  A    between atoms: C_31  and  C_38
                            x       y       z     vdW  Elec       q    Type
                         _______ _______ _______ _____ _____    ______ ____

>  <TORSDO>
F 14

$$$$
