=
 OpenBabel11072411483D

 53 59  0  0  1  0  0  0  0  0999 V2000
  161.9770  210.2490  153.9880 C   0  0  0  0  0  2  0  0  0  0  0  0
  160.9330  208.1660  155.5490 C   0  0  2  0  0  3  0  0  0  0  0  0
  161.8980  209.3600  149.3830 C   0  0  2  0  0  3  0  0  0  0  0  0
  160.1470  206.4430  153.8770 C   0  0  0  0  0  3  0  0  0  0  0  0
  161.4130  207.0590  150.2080 C   0  0  0  0  0  2  0  0  0  0  0  0
  160.9390  208.5030  150.1900 C   0  0  1  0  0  3  0  0  0  0  0  0
  162.2000  210.5990  150.2130 C   0  0  1  0  0  3  0  0  0  0  0  0
  160.6360  210.5870  154.6550 C   0  0  1  0  0  3  0  0  0  0  0  0
  160.9650  209.0470  151.5890 C   0  0  0  0  0  2  0  0  0  0  0  0
  159.5250  209.6960  154.1420 C   0  0  1  0  0  3  0  0  0  0  0  0
  161.2680  210.6900  149.0180 C   0  0  1  0  0  3  0  0  0  0  0  0
  162.2200  210.9880  152.6710 C   0  0  0  0  0  2  0  0  0  0  0  0
  160.0840  209.4510  155.5340 C   0  0  1  0  0  3  0  0  0  0  0  0
  161.3270  206.2250  153.2870 C   0  0  0  0  0  3  0  0  0  0  0  0
  160.0790  206.9250  155.3010 C   0  0  0  0  0  2  0  0  0  0  0  0
  160.5790  206.2820  151.0190 O   0  0  0  0  0  0  0  0  0  0  0  0
  161.4390  205.6190  151.9050 C   0  0  2  0  0  3  0  0  0  0  0  0
  161.3850  210.4970  151.4860 C   0  0  1  0  0  3  0  0  0  0  0  0
  157.9310  211.2850  152.8820 C   0  0  0  0  0  2  0  0  0  0  0  0
  157.7020  212.6940  153.4210 C   0  0  2  0  0  3  0  0  0  0  0  0
  157.5540  210.9550  156.3960 O   0  0  0  0  0  1  0  0  0  0  0  0
  159.6850  213.5020  154.8440 C   0  0  0  0  0  2  0  0  0  0  0  0
  159.0220  213.5230  153.4550 C   0  0  1  0  0  3  0  0  0  0  0  0
  159.4800  212.1640  155.5810 C   0  0  0  0  0  2  0  0  0  0  0  0
  157.2400  212.5180  154.7420 O   0  0  0  0  0  0  0  0  0  0  0  0
  158.1990  210.4700  154.1400 C   0  0  2  0  0  3  0  0  0  0  0  0
  158.1030  211.5230  155.2480 C   0  0  2  0  0  0  0  0  0  0  0  0
  160.0310  213.1290  152.3710 C   0  0  0  0  0  2  0  0  0  0  0  0
  158.8560  214.4030  148.4630 N   0  0  0  0  0  0  0  0  0  0  0  0
  157.9180  214.2210  149.4320 C   0  0  0  0  0  3  0  0  0  0  0  0
  160.6040  213.7870  149.9650 C   0  0  0  0  0  3  0  0  0  0  0  0
  159.6570  213.5760  150.9820 C   0  0  0  0  0  0  0  0  0  0  0  0
  158.3030  213.8050  150.7090 C   0  0  0  0  0  3  0  0  0  0  0  0
  160.1820  214.2210  148.7030 C   0  0  0  0  0  0  0  0  0  0  0  0
  161.1800  214.4520  147.6250 C   0  0  0  0  0  2  0  0  0  0  0  0
  160.8750  213.9320  144.0420 O   0  0  0  0  0  0  0  0  0  0  0  0
  162.8630  213.6120  145.2970 C   0  0  0  0  0  1  0  0  0  0  0  0
  160.5960  214.1020  146.3380 N   0  0  0  0  0  2  0  0  0  0  0  0
  161.3990  213.8580  145.1830 C   0  0  0  0  0  0  0  0  0  0  0  0
  162.3920  209.2760  157.2550 C   0  0  0  0  0  1  0  0  0  0  0  0
  161.6160  208.0240  156.9040 C   0  0  0  0  0  2  0  0  0  0  0  0
  163.1150  211.7860  148.3780 C   0  0  0  0  0  1  0  0  0  0  0  0
  161.9310  211.1990  147.9010 O   0  0  0  0  0  0  0  0  0  0  0  0
  161.1640  204.0960  151.9120 C   0  0  2  0  0  3  0  0  0  0  0  0
  162.4430  201.9370  151.9330 O   0  0  0  0  0  0  0  0  0  0  0  0
  163.5470  203.9480  152.0120 O   0  0  0  0  0  1  0  0  0  0  0  0
  162.4530  203.3270  151.9580 C   0  0  0  0  0  0  0  0  0  0  0  0
  160.3460  203.6540  150.6850 C   0  0  2  0  0  3  0  0  0  0  0  0
  159.8680  202.3550  150.8540 O   0  0  0  0  0  1  0  0  0  0  0  0
  161.1940  203.6870  149.4170 C   0  0  0  0  0  2  0  0  0  0  0  0
  160.4070  202.5650  147.4700 O   0  0  0  0  0  0  0  0  0  0  0  0
  161.2210  201.2070  149.1270 O   0  0  0  0  0  1  0  0  0  0  0  0
  160.9550  202.4640  148.6000 C   0  0  0  0  0  0  0  0  0  0  0  0
  1  8  1  0  0  0  0
  2 41  1  1  0  0  0
  3  6  1  0  0  0  0
  3  7  1  0  0  0  0
  4 15  1  0  0  0  0
  5 16  1  0  0  0  0
  6  5  1  0  0  0  0
  6  9  1  0  0  0  0
  7 18  1  0  0  0  0
  8 13  1  0  0  0  0
 10  8  1  0  0  0  0
 10 13  1  0  0  0  0
 11  3  1  0  0  0  0
 11  7  1  0  0  0  0
 12  1  1  0  0  0  0
 13  2  1  0  0  0  0
 14  4  2  0  0  0  0
 15  2  1  0  0  0  0
 16 17  1  0  0  0  0
 17 44  1  0  0  0  0
 17 14  1  0  0  0  0
 18  9  1  0  0  0  0
 18 12  1  0  0  0  0
 19 20  1  0  0  0  0
 19 26  1  0  0  0  0
 20 23  1  0  0  0  0
 20 25  1  0  0  0  0
 22 24  1  0  0  0  0
 23 22  1  0  0  0  0
 25 27  1  0  0  0  0
 26 10  1  0  0  0  0
 26 27  1  0  0  0  0
 27 24  1  0  0  0  0
 27 21  1  0  0  0  0
 28 23  1  0  0  0  0
 29 34  2  0  0  0  0
 29 30  1  0  0  0  0
 30 33  2  0  0  0  0
 31 32  2  0  0  0  0
 32 28  1  0  0  0  0
 33 32  1  0  0  0  0
 34 31  1  0  0  0  0
 35 34  1  0  0  0  0
 36 39  2  0  0  0  0
 38 35  1  0  0  0  0
 39 37  1  0  0  0  0
 39 38  1  0  0  0  0
 41 40  1  0  0  0  0
 43 42  1  0  0  0  0
 43 11  1  0  0  0  0
 44 47  1  0  0  0  0
 45 47  2  0  0  0  0
 47 46  1  0  0  0  0
 48 49  1  0  0  0  0
 48 44  1  0  0  0  0
 50 48  1  0  0  0  0
 51 53  2  0  0  0  0
 53 52  1  0  0  0  0
 53 50  1  0  0  0  0
M  END
>  <MODEL>
1

>  <REMARK>
 VINA RESULT:      -1.7      0.000      0.000
  Name = 
  12 active torsions:
  status: ('A' for Active; 'I' for Inactive)
    1  A    between atoms: C_4  and  C_52
    2  A    between atoms: C_14  and  C_41
    3  A    between atoms: C_14  and  C_45
    4  A    between atoms: C_14  and  C_48
    5  A    between atoms: N_15  and  C_47
    6  A    between atoms: C_20  and  C_51
    7  A    between atoms: C_25  and  C_35
    8  A    between atoms: C_28  and  O_50
    9  A    between atoms: C_32  and  C_44
   10  A    between atoms: C_37  and  C_51
   11  A    between atoms: C_41  and  C_44
   12  A    between atoms: C_47  and  C_49
                            x       y       z     vdW  Elec       q    Type
                         _______ _______ _______ _____ _____    ______ ____

>  <TORSDO>
F 12

$$$$
