=
 OpenBabel11072414263D

 47 51  0  0  1  0  0  0  0  0999 V2000
  160.8520  210.1740  152.1490 C   0  0  0  0  0  0  0  0  0  0  0  0
  161.6090  210.5720  151.2230 O   0  0  0  0  0  0  0  0  0  0  0  0
  159.7210  210.9600  152.5230 N   0  0  0  0  0  2  0  0  0  0  0  0
  161.1690  208.9460  152.9110 C   0  0  0  0  0  0  0  0  0  0  0  0
  161.5910  206.5110  153.1440 C   0  0  0  0  0  2  0  0  0  0  0  0
  161.1460  206.9540  155.4270 C   0  0  0  0  0  2  0  0  0  0  0  0
  160.7750  208.4330  155.3310 C   0  0  0  0  0  2  0  0  0  0  0  0
  161.6670  209.1420  154.3170 C   0  0  0  0  0  2  0  0  0  0  0  0
  161.0870  207.7030  152.3790 C   0  0  0  0  0  0  0  0  0  0  0  0
  160.6920  206.2200  154.2530 N   0  0  0  0  0  2  0  0  0  0  0  0
  160.2360  207.3680  150.8290 S   0  0  0  0  0  0  0  0  0  0  0  0
  162.4570  207.2390  149.1750 C   0  0  0  0  0  2  0  0  0  0  0  0
  161.2790  205.0240  149.7600 C   0  0  0  0  0  0  0  0  0  0  0  0
  162.6580  205.2430  147.7850 N   0  0  2  0  0  0  0  0  0  0  0  0
  161.0300  204.1100  150.6550 C   0  0  0  0  0  0  0  0  0  0  0  0
  161.4570  204.6110  148.3310 C   0  0  0  0  0  2  0  0  0  0  0  0
  162.3690  206.6760  147.7580 C   0  0  0  0  0  2  0  0  0  0  0  0
  160.7960  203.2440  151.5030 O   0  0  0  0  0  0  0  0  0  0  0  0
  161.6570  206.4180  150.2020 C   0  0  2  0  0  3  0  0  0  0  0  0
  160.9270  205.1590  145.0270 C   0  0  1  0  0  3  0  0  0  0  0  0
  162.2730  205.7400  145.4170 C   0  0  1  0  0  3  0  0  0  0  0  0
  162.0620  203.5030  146.1740 C   0  0  0  0  0  2  0  0  0  0  0  0
  160.7300  203.9240  145.7760 N   0  0  0  0  0  2  0  0  0  0  0  0
  162.8740  204.7660  146.4130 C   0  0  2  0  0  3  0  0  0  0  0  0
  159.8310  206.1410  145.3720 C   0  0  0  0  0  1  0  0  0  0  0  0
  163.0870  205.8200  144.2860 O   0  0  0  0  0  1  0  0  0  0  0  0
  159.5280  212.3160  152.0330 C   0  0  0  0  0  2  0  0  0  0  0  0
  158.1860  212.8830  152.4940 C   0  0  1  0  0  3  0  0  0  0  0  0
  155.9140  213.0810  154.3660 C   0  0  0  0  0  2  0  0  0  0  0  0
  158.3210  213.7400  153.7660 C   0  0  2  0  0  3  0  0  0  0  0  0
  156.1400  212.0460  155.4600 C   0  0  0  0  0  2  0  0  0  0  0  0
  159.2530  213.1120  154.8140 C   0  0  0  0  0  2  0  0  0  0  0  0
  156.9720  214.1870  154.3580 C   0  0  0  0  0  2  0  0  0  0  0  0
  157.4420  211.2870  155.2630 C   0  0  0  0  0  2  0  0  0  0  0  0
  158.6000  212.1300  155.8060 C   0  0  1  0  0  3  0  0  0  0  0  0
  159.5450  211.3770  156.5320 O   0  0  0  0  0  0  0  0  0  0  0  0
  160.6770  212.1790  156.7560 C   0  0  0  0  0  1  0  0  0  0  0  0
  157.3760  213.8150  151.1420 S   0  0  0  0  0  0  0  0  0  0  0  0
  158.8560  213.8490  150.1340 C   0  0  0  0  0  0  0  0  0  0  0  0
  160.0520  214.4520  150.6510 S   0  0  0  0  0  0  0  0  0  0  0  0
  158.7730  213.4450  148.6990 C   0  0  0  0  0  2  0  0  0  0  0  0
  159.7670  214.2450  147.8590 C   0  0  0  0  0  2  0  0  0  0  0  0
  161.5030  212.3540  147.4720 C   0  0  0  0  0  2  0  0  0  0  0  0
  159.9270  212.9550  145.7260 O   0  0  0  0  0  1  0  0  0  0  0  0
  162.6460  213.2080  145.4370 C   0  0  0  0  0  1  0  0  0  0  0  0
  162.0920  213.5950  146.7960 C   0  0  1  0  0  3  0  0  0  0  0  0
  160.5830  213.3960  146.8790 C   0  0  1  0  0  0  0  0  0  0  0  0
  1  3  1  0  0  0  0
  1  4  1  0  0  0  0
  2  1  2  0  0  0  0
  4  8  1  0  0  0  0
  5 10  1  0  0  0  0
  7  6  1  0  0  0  0
  8  7  1  0  0  0  0
  9  4  2  0  0  0  0
  9  5  1  0  0  0  0
 10  6  1  0  0  0  0
 11  9  1  0  0  0  0
 12 19  1  0  0  0  0
 13 19  1  0  0  0  0
 13 15  2  0  0  0  0
 14 17  1  6  0  0  0
 14 16  1  0  0  0  0
 15 18  2  0  0  0  0
 16 13  1  0  0  0  0
 17 12  1  0  0  0  0
 19 11  1  6  0  0  0
 20 25  1  1  0  0  0
 20 21  1  0  0  0  0
 20 23  1  0  0  0  0
 21 26  1  6  0  0  0
 21 24  1  0  0  0  0
 23 22  1  0  0  0  0
 24 22  1  1  0  0  0
 24 14  1  0  0  0  0
 27  3  1  0  0  0  0
 28 27  1  6  0  0  0
 29 31  1  0  0  0  0
 30 28  1  6  0  0  0
 30 33  1  0  0  0  0
 30 32  1  0  0  0  0
 32 35  1  0  0  0  0
 33 29  1  0  0  0  0
 34 31  1  0  0  0  0
 34 35  1  0  0  0  0
 35 36  1  6  0  0  0
 36 37  1  0  0  0  0
 38 28  1  0  0  0  0
 39 40  2  0  0  0  0
 39 38  1  0  0  0  0
 41 39  1  0  0  0  0
 42 41  1  0  0  0  0
 46 45  1  6  0  0  0
 46 47  1  0  0  0  0
 46 43  1  0  0  0  0
 47 44  1  6  0  0  0
 47 43  1  0  0  0  0
 47 42  1  0  0  0  0
M  END
>  <MODEL>
1

>  <REMARK>
 VINA RESULT:      -5.3      0.000      0.000
  Name = 
  13 active torsions:
  status: ('A' for Active; 'I' for Inactive)
    1  A    between atoms: C_2  and  C_7
    2  A    between atoms: C_2  and  S_10
    3  A    between atoms: C_3  and  C_9
    4  A    between atoms: C_7  and  C_14
    5  A    between atoms: S_10  and  C_34
    6  A    between atoms: C_14  and  C_40
    7  A    between atoms: C_15  and  C_34
    8  A    between atoms: O_16  and  C_45
    9  A    between atoms: S_18  and  C_38
   10  A    between atoms: S_18  and  C_47
   11  A    between atoms: N_19  and  C_31
   12  A    between atoms: N_21  and  C_32
   13  A    between atoms: C_32  and  C_34
                            x       y       z     vdW  Elec       q    Type
                         _______ _______ _______ _____ _____    ______ ____

>  <TORSDO>
F 13

$$$$
=
 OpenBabel11072414263D

 47 51  0  0  1  0  0  0  0  0999 V2000
  160.9330  209.7760  152.0010 C   0  0  0  0  0  0  0  0  0  0  0  0
  161.7420  210.2560  151.1630 O   0  0  0  0  0  0  0  0  0  0  0  0
  159.7270  210.4790  152.3020 N   0  0  0  0  0  2  0  0  0  0  0  0
  161.2560  208.5350  152.7410 C   0  0  0  0  0  0  0  0  0  0  0  0
  161.6470  206.0920  152.9370 C   0  0  0  0  0  2  0  0  0  0  0  0
  161.2870  206.5200  155.2380 C   0  0  0  0  0  2  0  0  0  0  0  0
  160.9360  208.0040  155.1670 C   0  0  0  0  0  2  0  0  0  0  0  0
  161.8040  208.7100  154.1300 C   0  0  0  0  0  2  0  0  0  0  0  0
  161.1370  207.2990  152.2000 C   0  0  0  0  0  0  0  0  0  0  0  0
  160.7830  205.8040  154.0720 N   0  0  0  0  0  2  0  0  0  0  0  0
  160.2280  206.9930  150.6770 S   0  0  0  0  0  0  0  0  0  0  0  0
  162.3590  206.9980  148.9040 C   0  0  0  0  0  2  0  0  0  0  0  0
  161.3080  204.7210  149.4940 C   0  0  0  0  0  0  0  0  0  0  0  0
  162.5670  205.0450  147.4550 N   0  0  2  0  0  0  0  0  0  0  0  0
  161.1460  203.7770  150.3770 C   0  0  0  0  0  0  0  0  0  0  0  0
  161.4250  204.3490  148.0480 C   0  0  0  0  0  2  0  0  0  0  0  0
  162.2180  206.4640  147.4790 C   0  0  0  0  0  2  0  0  0  0  0  0
  160.9950  202.8820  151.2150 O   0  0  0  0  0  0  0  0  0  0  0  0
  161.6510  206.1190  149.9510 C   0  0  2  0  0  3  0  0  0  0  0  0
  160.7100  204.9990  144.7790 C   0  0  1  0  0  3  0  0  0  0  0  0
  162.0620  205.5970  145.1220 C   0  0  1  0  0  3  0  0  0  0  0  0
  161.9300  203.3370  145.8250 C   0  0  0  0  0  2  0  0  0  0  0  0
  160.5730  203.7410  145.5010 N   0  0  0  0  0  2  0  0  0  0  0  0
  162.7270  204.6100  146.0620 C   0  0  2  0  0  3  0  0  0  0  0  0
  159.6130  205.9480  145.2010 C   0  0  0  0  0  1  0  0  0  0  0  0
  162.8190  205.7250  143.9570 O   0  0  0  0  0  1  0  0  0  0  0  0
  159.4960  211.8420  151.8500 C   0  0  0  0  0  2  0  0  0  0  0  0
  158.6590  212.6230  152.8620 C   0  0  1  0  0  3  0  0  0  0  0  0
  157.8300  214.4170  155.0540 C   0  0  0  0  0  2  0  0  0  0  0  0
  159.0150  212.2630  154.3160 C   0  0  2  0  0  3  0  0  0  0  0  0
  156.5200  213.8740  155.6090 C   0  0  0  0  0  2  0  0  0  0  0  0
  158.2030  211.0750  154.8530 C   0  0  0  0  0  2  0  0  0  0  0  0
  159.0120  213.4690  155.2720 C   0  0  0  0  0  2  0  0  0  0  0  0
  156.0870  212.6010  154.9000 C   0  0  0  0  0  2  0  0  0  0  0  0
  156.8450  211.4130  155.4990 C   0  0  1  0  0  3  0  0  0  0  0  0
  156.0340  210.2760  155.6950 O   0  0  0  0  0  0  0  0  0  0  0  0
  154.8730  210.6700  156.3820 C   0  0  0  0  0  1  0  0  0  0  0  0
  158.7960  214.4240  152.5670 S   0  0  0  0  0  0  0  0  0  0  0  0
  157.5740  214.4110  151.2570 C   0  0  0  0  0  0  0  0  0  0  0  0
  156.1970  214.1560  151.5750 S   0  0  0  0  0  0  0  0  0  0  0  0
  158.0250  214.4530  149.8340 C   0  0  0  0  0  2  0  0  0  0  0  0
  157.3010  213.3890  149.0110 C   0  0  0  0  0  2  0  0  0  0  0  0
  159.3220  212.9980  147.4300 C   0  0  0  0  0  2  0  0  0  0  0  0
  157.0680  212.4700  146.7000 O   0  0  0  0  0  1  0  0  0  0  0  0
  158.6300  214.3660  145.4740 C   0  0  0  0  0  1  0  0  0  0  0  0
  158.7100  214.3300  146.9900 C   0  0  1  0  0  3  0  0  0  0  0  0
  157.8370  213.2310  147.5850 C   0  0  1  0  0  0  0  0  0  0  0  0
  1  3  1  0  0  0  0
  1  4  1  0  0  0  0
  2  1  2  0  0  0  0
  4  8  1  0  0  0  0
  5 10  1  0  0  0  0
  7  6  1  0  0  0  0
  8  7  1  0  0  0  0
  9  4  2  0  0  0  0
  9  5  1  0  0  0  0
 10  6  1  0  0  0  0
 11  9  1  0  0  0  0
 12 19  1  0  0  0  0
 13 19  1  0  0  0  0
 13 15  2  0  0  0  0
 14 17  1  6  0  0  0
 14 16  1  0  0  0  0
 15 18  2  0  0  0  0
 16 13  1  0  0  0  0
 17 12  1  0  0  0  0
 19 11  1  6  0  0  0
 20 21  1  0  0  0  0
 20 25  1  1  0  0  0
 20 23  1  0  0  0  0
 21 26  1  6  0  0  0
 21 24  1  0  0  0  0
 23 22  1  0  0  0  0
 24 22  1  1  0  0  0
 24 14  1  0  0  0  0
 27  3  1  0  0  0  0
 28 27  1  6  0  0  0
 29 33  1  0  0  0  0
 29 31  1  0  0  0  0
 30 28  1  6  0  0  0
 30 32  1  0  0  0  0
 30 33  1  0  0  0  0
 32 35  1  0  0  0  0
 34 35  1  0  0  0  0
 34 31  1  0  0  0  0
 35 36  1  6  0  0  0
 36 37  1  0  0  0  0
 38 28  1  0  0  0  0
 39 40  2  0  0  0  0
 39 38  1  0  0  0  0
 41 39  1  0  0  0  0
 42 41  1  0  0  0  0
 43 47  1  0  0  0  0
 46 45  1  6  0  0  0
 46 43  1  0  0  0  0
 46 47  1  0  0  0  0
 47 44  1  6  0  0  0
 47 42  1  0  0  0  0
M  END
>  <MODEL>
2

>  <REMARK>
 VINA RESULT:      -4.5      1.353      1.918
  Name = 
  13 active torsions:
  status: ('A' for Active; 'I' for Inactive)
    1  A    between atoms: C_2  and  C_7
    2  A    between atoms: C_2  and  S_10
    3  A    between atoms: C_3  and  C_9
    4  A    between atoms: C_7  and  C_14
    5  A    between atoms: S_10  and  C_34
    6  A    between atoms: C_14  and  C_40
    7  A    between atoms: C_15  and  C_34
    8  A    between atoms: O_16  and  C_45
    9  A    between atoms: S_18  and  C_38
   10  A    between atoms: S_18  and  C_47
   11  A    between atoms: N_19  and  C_31
   12  A    between atoms: N_21  and  C_32
   13  A    between atoms: C_32  and  C_34
                            x       y       z     vdW  Elec       q    Type
                         _______ _______ _______ _____ _____    ______ ____

>  <TORSDO>
F 13

$$$$
=
 OpenBabel11072414263D

 47 51  0  0  1  0  0  0  0  0999 V2000
  160.8860  209.8330  152.1210 C   0  0  0  0  0  0  0  0  0  0  0  0
  161.6120  210.1840  151.1530 O   0  0  0  0  0  0  0  0  0  0  0  0
  159.6770  210.5430  152.3910 N   0  0  0  0  0  2  0  0  0  0  0  0
  161.3110  208.7480  153.0330 C   0  0  0  0  0  0  0  0  0  0  0  0
  161.7360  206.3780  153.6370 C   0  0  0  0  0  2  0  0  0  0  0  0
  161.6920  207.2420  155.8410 C   0  0  0  0  0  2  0  0  0  0  0  0
  161.3280  208.6940  155.5370 C   0  0  0  0  0  2  0  0  0  0  0  0
  162.0440  209.1710  154.2770 C   0  0  0  0  0  2  0  0  0  0  0  0
  161.1250  207.4350  152.7590 C   0  0  0  0  0  0  0  0  0  0  0  0
  161.0350  206.3310  154.9130 N   0  0  0  0  0  2  0  0  0  0  0  0
  160.0180  206.8660  151.4600 S   0  0  0  0  0  0  0  0  0  0  0  0
  162.0120  207.4150  149.6150 C   0  0  0  0  0  2  0  0  0  0  0  0
  161.1070  205.0050  149.7050 C   0  0  0  0  0  0  0  0  0  0  0  0
  162.2000  205.8760  147.7300 N   0  0  2  0  0  0  0  0  0  0  0  0
  161.0510  203.8720  150.3450 C   0  0  0  0  0  0  0  0  0  0  0  0
  161.1350  204.9920  148.2070 C   0  0  0  0  0  2  0  0  0  0  0  0
  161.7920  207.2250  148.1150 C   0  0  0  0  0  2  0  0  0  0  0  0
  161.0010  202.7970  150.9510 O   0  0  0  0  0  0  0  0  0  0  0  0
  161.4220  206.2740  150.4620 C   0  0  2  0  0  3  0  0  0  0  0  0
  161.6170  203.6000  145.4740 C   0  0  1  0  0  3  0  0  0  0  0  0
  161.1010  205.0050  145.7220 C   0  0  1  0  0  3  0  0  0  0  0  0
  163.4660  204.9330  145.8630 C   0  0  0  0  0  2  0  0  0  0  0  0
  163.0160  203.5520  145.8790 N   0  0  0  0  0  2  0  0  0  0  0  0
  162.2780  205.7910  146.2670 C   0  0  2  0  0  3  0  0  0  0  0  0
  160.8180  202.6130  146.2930 C   0  0  0  0  0  1  0  0  0  0  0  0
  160.6790  205.5620  144.5130 O   0  0  0  0  0  1  0  0  0  0  0  0
  159.3580  211.8010  151.7330 C   0  0  0  0  0  2  0  0  0  0  0  0
  158.5100  212.6950  152.6360 C   0  0  1  0  0  3  0  0  0  0  0  0
  157.1720  214.3760  154.6590 C   0  0  0  0  0  2  0  0  0  0  0  0
  158.8360  212.4950  154.1270 C   0  0  2  0  0  3  0  0  0  0  0  0
  155.9730  213.5910  155.1750 C   0  0  0  0  0  2  0  0  0  0  0  0
  158.2600  211.1880  154.6940 C   0  0  0  0  0  2  0  0  0  0  0  0
  158.5120  213.7190  155.0020 C   0  0  0  0  0  2  0  0  0  0  0  0
  155.8700  212.2210  154.5270 C   0  0  0  0  0  2  0  0  0  0  0  0
  156.8210  211.2560  155.2410 C   0  0  1  0  0  3  0  0  0  0  0  0
  156.2600  209.9830  155.4650 O   0  0  0  0  0  0  0  0  0  0  0  0
  154.8610  210.1130  155.5020 C   0  0  0  0  0  1  0  0  0  0  0  0
  158.6700  214.4510  152.1460 S   0  0  0  0  0  0  0  0  0  0  0  0
  158.4160  214.1010  150.4080 C   0  0  0  0  0  0  0  0  0  0  0  0
  157.1140  213.7090  149.9470 S   0  0  0  0  0  0  0  0  0  0  0  0
  159.5970  214.0130  149.4990 C   0  0  0  0  0  2  0  0  0  0  0  0
  159.1770  213.4980  148.1230 C   0  0  0  0  0  2  0  0  0  0  0  0
  161.5090  212.3570  148.0670 C   0  0  0  0  0  2  0  0  0  0  0  0
  159.9750  212.1180  146.2000 O   0  0  0  0  0  1  0  0  0  0  0  0
  162.4290  213.3270  145.9730 C   0  0  0  0  0  1  0  0  0  0  0  0
  161.6600  213.6380  147.2440 C   0  0  1  0  0  3  0  0  0  0  0  0
  160.3260  212.9040  147.3020 C   0  0  1  0  0  0  0  0  0  0  0  0
  1  3  1  0  0  0  0
  1  4  1  0  0  0  0
  2  1  2  0  0  0  0
  4  8  1  0  0  0  0
  5 10  1  0  0  0  0
  7  6  1  0  0  0  0
  8  7  1  0  0  0  0
  9  4  2  0  0  0  0
  9  5  1  0  0  0  0
 10  6  1  0  0  0  0
 11  9  1  0  0  0  0
 12 19  1  0  0  0  0
 13 15  2  0  0  0  0
 13 19  1  0  0  0  0
 14 17  1  6  0  0  0
 14 16  1  0  0  0  0
 15 18  2  0  0  0  0
 16 13  1  0  0  0  0
 17 12  1  0  0  0  0
 19 11  1  6  0  0  0
 20 21  1  0  0  0  0
 20 23  1  0  0  0  0
 20 25  1  1  0  0  0
 21 26  1  6  0  0  0
 21 24  1  0  0  0  0
 22 23  1  0  0  0  0
 24 22  1  1  0  0  0
 24 14  1  0  0  0  0
 27  3  1  0  0  0  0
 28 27  1  6  0  0  0
 29 33  1  0  0  0  0
 29 31  1  0  0  0  0
 30 28  1  6  0  0  0
 30 32  1  0  0  0  0
 30 33  1  0  0  0  0
 32 35  1  0  0  0  0
 34 31  1  0  0  0  0
 34 35  1  0  0  0  0
 35 36  1  6  0  0  0
 36 37  1  0  0  0  0
 38 28  1  0  0  0  0
 39 38  1  0  0  0  0
 40 39  2  0  0  0  0
 41 39  1  0  0  0  0
 42 41  1  0  0  0  0
 46 45  1  6  0  0  0
 46 47  1  0  0  0  0
 46 43  1  0  0  0  0
 47 44  1  6  0  0  0
 47 43  1  0  0  0  0
 47 42  1  0  0  0  0
M  END
>  <MODEL>
3

>  <REMARK>
 VINA RESULT:      -4.5      1.175      1.717
  Name = 
  13 active torsions:
  status: ('A' for Active; 'I' for Inactive)
    1  A    between atoms: C_2  and  C_7
    2  A    between atoms: C_2  and  S_10
    3  A    between atoms: C_3  and  C_9
    4  A    between atoms: C_7  and  C_14
    5  A    between atoms: S_10  and  C_34
    6  A    between atoms: C_14  and  C_40
    7  A    between atoms: C_15  and  C_34
    8  A    between atoms: O_16  and  C_45
    9  A    between atoms: S_18  and  C_38
   10  A    between atoms: S_18  and  C_47
   11  A    between atoms: N_19  and  C_31
   12  A    between atoms: N_21  and  C_32
   13  A    between atoms: C_32  and  C_34
                            x       y       z     vdW  Elec       q    Type
                         _______ _______ _______ _____ _____    ______ ____

>  <TORSDO>
F 13

$$$$
=
 OpenBabel11072414263D

 47 51  0  0  1  0  0  0  0  0999 V2000
  161.6250  209.8030  151.0070 C   0  0  0  0  0  0  0  0  0  0  0  0
  162.3790  209.5750  150.0240 O   0  0  0  0  0  0  0  0  0  0  0  0
  160.8170  210.9790  151.0190 N   0  0  0  0  0  2  0  0  0  0  0  0
  161.6290  208.9110  152.1870 C   0  0  0  0  0  0  0  0  0  0  0  0
  161.3740  206.7220  153.3310 C   0  0  0  0  0  2  0  0  0  0  0  0
  161.1860  208.0870  155.2570 C   0  0  0  0  0  2  0  0  0  0  0  0
  161.2320  209.4640  154.5980 C   0  0  0  0  0  2  0  0  0  0  0  0
  162.2330  209.4700  153.4460 C   0  0  0  0  0  2  0  0  0  0  0  0
  161.1800  207.6330  152.1510 C   0  0  0  0  0  0  0  0  0  0  0  0
  160.4880  207.1240  154.4150 N   0  0  0  0  0  2  0  0  0  0  0  0
  160.1920  206.9930  150.7900 S   0  0  0  0  0  0  0  0  0  0  0  0
  162.3510  206.8930  149.0550 C   0  0  0  0  0  2  0  0  0  0  0  0
  161.2640  204.6570  149.7320 C   0  0  0  0  0  0  0  0  0  0  0  0
  162.5610  204.8730  147.7010 N   0  0  2  0  0  0  0  0  0  0  0  0
  161.0770  203.7570  150.6550 C   0  0  0  0  0  0  0  0  0  0  0  0
  161.4000  204.2170  148.3060 C   0  0  0  0  0  2  0  0  0  0  0  0
  162.2270  206.2950  147.6540 C   0  0  0  0  0  2  0  0  0  0  0  0
  160.9020  202.9030  151.5300 O   0  0  0  0  0  0  0  0  0  0  0  0
  161.6160  206.0710  150.1300 C   0  0  2  0  0  3  0  0  0  0  0  0
  160.9310  205.0880  144.8890 C   0  0  1  0  0  3  0  0  0  0  0  0
  162.3410  205.4350  145.3270 C   0  0  1  0  0  3  0  0  0  0  0  0
  161.7360  203.2620  146.0570 C   0  0  0  0  0  2  0  0  0  0  0  0
  160.5060  203.9010  145.6200 N   0  0  0  0  0  2  0  0  0  0  0  0
  162.7380  204.3710  146.3330 C   0  0  2  0  0  3  0  0  0  0  0  0
  160.0030  206.2380  145.2080 C   0  0  0  0  0  1  0  0  0  0  0  0
  163.1940  205.3820  144.2220 O   0  0  0  0  0  1  0  0  0  0  0  0
  160.9940  212.0470  150.0470 C   0  0  0  0  0  2  0  0  0  0  0  0
  160.0500  213.2140  150.3320 C   0  0  1  0  0  3  0  0  0  0  0  0
  162.2320  213.0890  148.3480 C   0  0  0  0  0  2  0  0  0  0  0  0
  160.2500  214.3800  149.3470 C   0  0  2  0  0  3  0  0  0  0  0  0
  161.6330  212.5560  147.0530 C   0  0  0  0  0  2  0  0  0  0  0  0
  159.1520  214.4520  148.2740 C   0  0  0  0  0  2  0  0  0  0  0  0
  161.6690  214.4530  148.7530 C   0  0  0  0  0  2  0  0  0  0  0  0
  160.1410  212.2990  147.1820 C   0  0  0  0  0  2  0  0  0  0  0  0
  159.3870  213.6190  146.9990 C   0  0  1  0  0  3  0  0  0  0  0  0
  158.2290  213.4950  146.2050 O   0  0  0  0  0  0  0  0  0  0  0  0
  157.3810  212.5450  146.7980 C   0  0  0  0  0  1  0  0  0  0  0  0
  158.3080  212.6510  150.3560 S   0  0  0  0  0  0  0  0  0  0  0  0
  157.9120  213.5950  151.8250 C   0  0  0  0  0  0  0  0  0  0  0  0
  156.6930  214.3530  151.8740 S   0  0  0  0  0  0  0  0  0  0  0  0
  158.9440  213.7560  152.8930 C   0  0  0  0  0  2  0  0  0  0  0  0
  158.2860  214.1070  154.2260 C   0  0  0  0  0  2  0  0  0  0  0  0
  157.4360  211.7170  154.7750 C   0  0  0  0  0  2  0  0  0  0  0  0
  159.3810  212.6230  155.9110 O   0  0  0  0  0  1  0  0  0  0  0  0
  157.0730  211.9240  157.2240 C   0  0  0  0  0  1  0  0  0  0  0  0
  156.8820  212.6130  155.8850 C   0  0  1  0  0  3  0  0  0  0  0  0
  158.2110  212.9380  155.2120 C   0  0  1  0  0  0  0  0  0  0  0  0
  1  3  1  0  0  0  0
  1  4  1  0  0  0  0
  2  1  2  0  0  0  0
  4  8  1  0  0  0  0
  5 10  1  0  0  0  0
  7  6  1  0  0  0  0
  8  7  1  0  0  0  0
  9  4  2  0  0  0  0
  9  5  1  0  0  0  0
 10  6  1  0  0  0  0
 11  9  1  0  0  0  0
 12 19  1  0  0  0  0
 13 19  1  0  0  0  0
 13 15  2  0  0  0  0
 14 17  1  6  0  0  0
 14 16  1  0  0  0  0
 15 18  2  0  0  0  0
 16 13  1  0  0  0  0
 17 12  1  0  0  0  0
 19 11  1  6  0  0  0
 20 25  1  1  0  0  0
 20 21  1  0  0  0  0
 20 23  1  0  0  0  0
 21 26  1  6  0  0  0
 21 24  1  0  0  0  0
 23 22  1  0  0  0  0
 24 22  1  1  0  0  0
 24 14  1  0  0  0  0
 27  3  1  0  0  0  0
 28 27  1  6  0  0  0
 28 38  1  0  0  0  0
 29 33  1  0  0  0  0
 30 28  1  6  0  0  0
 31 34  1  0  0  0  0
 31 29  1  0  0  0  0
 32 30  1  0  0  0  0
 33 30  1  0  0  0  0
 35 36  1  1  0  0  0
 35 34  1  0  0  0  0
 35 32  1  0  0  0  0
 36 37  1  0  0  0  0
 38 39  1  0  0  0  0
 39 40  2  0  0  0  0
 39 41  1  0  0  0  0
 41 42  1  0  0  0  0
 42 47  1  0  0  0  0
 43 47  1  0  0  0  0
 43 46  1  0  0  0  0
 46 45  1  1  0  0  0
 47 46  1  0  0  0  0
 47 44  1  1  0  0  0
M  END
>  <MODEL>
4

>  <REMARK>
 VINA RESULT:      -3.3      1.140      5.298
  Name = 
  13 active torsions:
  status: ('A' for Active; 'I' for Inactive)
    1  A    between atoms: C_2  and  C_7
    2  A    between atoms: C_2  and  S_10
    3  A    between atoms: C_3  and  C_9
    4  A    between atoms: C_7  and  C_14
    5  A    between atoms: S_10  and  C_34
    6  A    between atoms: C_14  and  C_40
    7  A    between atoms: C_15  and  C_34
    8  A    between atoms: O_16  and  C_45
    9  A    between atoms: S_18  and  C_38
   10  A    between atoms: S_18  and  C_47
   11  A    between atoms: N_19  and  C_31
   12  A    between atoms: N_21  and  C_32
   13  A    between atoms: C_32  and  C_34
                            x       y       z     vdW  Elec       q    Type
                         _______ _______ _______ _____ _____    ______ ____

>  <TORSDO>
F 13

$$$$
=
 OpenBabel11072414263D

 47 51  0  0  1  0  0  0  0  0999 V2000
  161.1530  209.7200  151.6090 C   0  0  0  0  0  0  0  0  0  0  0  0
  161.7400  210.1530  150.5810 O   0  0  0  0  0  0  0  0  0  0  0  0
  160.1450  210.5140  152.2340 N   0  0  0  0  0  2  0  0  0  0  0  0
  161.5540  208.4360  152.2260 C   0  0  0  0  0  0  0  0  0  0  0  0
  162.7850  206.2820  152.2950 C   0  0  0  0  0  2  0  0  0  0  0  0
  161.1900  205.7640  153.9650 C   0  0  0  0  0  2  0  0  0  0  0  0
  160.3310  207.0260  153.8950 C   0  0  0  0  0  2  0  0  0  0  0  0
  161.2070  208.2560  153.6780 C   0  0  0  0  0  2  0  0  0  0  0  0
  162.2540  207.4840  151.5640 C   0  0  0  0  0  0  0  0  0  0  0  0
  161.6870  205.3930  152.6470 N   0  0  0  0  0  2  0  0  0  0  0  0
  162.4510  207.4950  149.7760 S   0  0  0  0  0  0  0  0  0  0  0  0
  160.9980  205.3810  150.8270 C   0  0  0  0  0  2  0  0  0  0  0  0
  161.1950  205.5310  148.2620 C   0  0  0  0  0  0  0  0  0  0  0  0
  160.7050  203.4400  149.3760 N   0  0  2  0  0  0  0  0  0  0  0  0
  160.8420  206.1330  147.1630 C   0  0  0  0  0  0  0  0  0  0  0  0
  161.4040  204.0470  148.2420 C   0  0  0  0  0  2  0  0  0  0  0  0
  161.3950  203.9280  150.5690 C   0  0  0  0  0  2  0  0  0  0  0  0
  160.5040  206.7040  146.1200 O   0  0  0  0  0  0  0  0  0  0  0  0
  161.1170  206.2710  149.5770 C   0  0  2  0  0  3  0  0  0  0  0  0
  160.4600  201.1740  147.0490 C   0  0  1  0  0  3  0  0  0  0  0  0
  161.5520  201.5830  148.0210 C   0  0  1  0  0  3  0  0  0  0  0  0
  159.4720  201.3430  149.1330 C   0  0  0  0  0  2  0  0  0  0  0  0
  159.1740  201.3480  147.7110 N   0  0  0  0  0  2  0  0  0  0  0  0
  160.8420  201.9800  149.3010 C   0  0  2  0  0  3  0  0  0  0  0  0
  160.5200  202.0490  145.8190 C   0  0  0  0  0  1  0  0  0  0  0  0
  162.3880  200.4920  148.2630 O   0  0  0  0  0  1  0  0  0  0  0  0
  159.9220  211.9050  151.8680 C   0  0  0  0  0  2  0  0  0  0  0  0
  158.5670  212.3970  152.3750 C   0  0  1  0  0  3  0  0  0  0  0  0
  156.3830  212.4810  154.3570 C   0  0  0  0  0  2  0  0  0  0  0  0
  158.7010  213.2970  153.6170 C   0  0  2  0  0  3  0  0  0  0  0  0
  156.7400  211.4970  155.4640 C   0  0  0  0  0  2  0  0  0  0  0  0
  159.7280  212.7680  154.6300 C   0  0  0  0  0  2  0  0  0  0  0  0
  157.3540  213.6610  154.2670 C   0  0  0  0  0  2  0  0  0  0  0  0
  158.0830  210.8310  155.2170 C   0  0  0  0  0  2  0  0  0  0  0  0
  159.2010  211.7700  155.6790 C   0  0  1  0  0  3  0  0  0  0  0  0
  160.2340  211.1090  156.3730 O   0  0  0  0  0  0  0  0  0  0  0  0
  161.3480  211.0060  155.5230 C   0  0  0  0  0  1  0  0  0  0  0  0
  157.6390  213.2350  151.0390 S   0  0  0  0  0  0  0  0  0  0  0  0
  159.1250  213.6950  150.1490 C   0  0  0  0  0  0  0  0  0  0  0  0
  160.1580  214.4280  150.8260 S   0  0  0  0  0  0  0  0  0  0  0  0
  159.1820  213.5010  148.6700 C   0  0  0  0  0  2  0  0  0  0  0  0
  160.2710  214.3790  148.0560 C   0  0  0  0  0  2  0  0  0  0  0  0
  161.1320  212.1290  147.0890 C   0  0  0  0  0  2  0  0  0  0  0  0
  162.0520  214.2370  146.3100 O   0  0  0  0  0  1  0  0  0  0  0  0
  163.5580  212.3290  147.5870 C   0  0  0  0  0  1  0  0  0  0  0  0
  162.1620  212.5420  148.1430 C   0  0  1  0  0  3  0  0  0  0  0  0
  161.3860  213.5940  147.3580 C   0  0  1  0  0  0  0  0  0  0  0  0
  1  4  1  0  0  0  0
  1  3  1  0  0  0  0
  2  1  2  0  0  0  0
  4  8  1  0  0  0  0
  5 10  1  0  0  0  0
  7  6  1  0  0  0  0
  8  7  1  0  0  0  0
  9  4  2  0  0  0  0
  9  5  1  0  0  0  0
 10  6  1  0  0  0  0
 11  9  1  0  0  0  0
 13 19  1  0  0  0  0
 14 16  1  6  0  0  0
 14 17  1  0  0  0  0
 15 13  2  0  0  0  0
 16 13  1  0  0  0  0
 17 12  1  0  0  0  0
 18 15  2  0  0  0  0
 19 11  1  1  0  0  0
 19 12  1  0  0  0  0
 20 25  1  6  0  0  0
 20 23  1  0  0  0  0
 20 21  1  0  0  0  0
 21 26  1  1  0  0  0
 21 24  1  0  0  0  0
 23 22  1  0  0  0  0
 24 22  1  6  0  0  0
 24 14  1  0  0  0  0
 27  3  1  0  0  0  0
 28 27  1  6  0  0  0
 29 31  1  0  0  0  0
 30 28  1  6  0  0  0
 30 33  1  0  0  0  0
 30 32  1  0  0  0  0
 32 35  1  0  0  0  0
 33 29  1  0  0  0  0
 34 31  1  0  0  0  0
 34 35  1  0  0  0  0
 35 36  1  6  0  0  0
 37 36  1  0  0  0  0
 38 28  1  0  0  0  0
 39 40  2  0  0  0  0
 39 38  1  0  0  0  0
 41 39  1  0  0  0  0
 42 41  1  0  0  0  0
 43 47  1  0  0  0  0
 43 46  1  0  0  0  0
 46 45  1  6  0  0  0
 47 44  1  6  0  0  0
 47 42  1  0  0  0  0
 47 46  1  0  0  0  0
M  END
>  <MODEL>
5

>  <REMARK>
 VINA RESULT:      -2.9      1.748      2.558
  Name = 
  13 active torsions:
  status: ('A' for Active; 'I' for Inactive)
    1  A    between atoms: C_2  and  C_7
    2  A    between atoms: C_2  and  S_10
    3  A    between atoms: C_3  and  C_9
    4  A    between atoms: C_7  and  C_14
    5  A    between atoms: S_10  and  C_34
    6  A    between atoms: C_14  and  C_40
    7  A    between atoms: C_15  and  C_34
    8  A    between atoms: O_16  and  C_45
    9  A    between atoms: S_18  and  C_38
   10  A    between atoms: S_18  and  C_47
   11  A    between atoms: N_19  and  C_31
   12  A    between atoms: N_21  and  C_32
   13  A    between atoms: C_32  and  C_34
                            x       y       z     vdW  Elec       q    Type
                         _______ _______ _______ _____ _____    ______ ____

>  <TORSDO>
F 13

$$$$
