=
 OpenBabel11072411353D

 25 28  0  0  1  0  0  0  0  0999 V2000
  161.3230  207.4450  150.9390 C   0  0  0  0  0  0  0  0  0  0  0  0
  160.3310  210.1040  153.0930 N   0  0  0  0  0  2  0  0  0  0  0  0
  160.5450  208.6620  153.0570 C   0  0  1  0  0  3  0  0  0  0  0  0
  161.6310  208.4850  151.9870 C   0  0  2  0  0  3  0  0  0  0  0  0
  162.0980  209.0250  149.2100 C   0  0  0  0  0  3  0  0  0  0  0  0
  160.9580  210.7100  152.0030 N   0  0  0  0  0  0  0  0  0  0  0  0
  161.6680  209.8420  151.3750 C   0  0  0  0  0  0  0  0  0  0  0  0
  161.6090  207.6930  149.6460 C   0  0  0  0  0  3  0  0  0  0  0  0
  162.1040  210.0360  150.0290 N   0  0  0  0  0  0  0  0  0  0  0  0
  160.9730  208.1480  154.4320 C   0  0  1  0  0  3  0  0  0  0  0  0
  161.6010  209.2740  155.2560 C   0  0  0  0  0  2  0  0  0  0  0  0
  159.8410  207.5630  155.1560 N   0  0  0  0  0  2  0  0  0  0  0  0
  160.9260  208.1880  157.2580 C   0  0  0  0  0  2  0  0  0  0  0  0
  162.4940  209.8150  157.2590 O   0  0  0  0  0  1  0  0  0  0  0  0
  160.3140  207.0510  156.4420 C   0  0  0  0  0  2  0  0  0  0  0  0
  162.0650  208.7520  156.5390 N   0  0  0  0  0  0  0  0  0  0  0  0
  160.8270  206.2040  151.3510 O   0  0  0  0  0  0  0  0  0  0  0  0
  161.6550  205.0800  151.6180 C   0  0  0  0  0  2  0  0  0  0  0  0
  161.4280  204.2230  149.2800 C   0  0  0  0  0  3  0  0  0  0  0  0
  161.3300  203.9930  150.6570 C   0  0  0  0  0  0  0  0  0  0  0  0
  160.8040  201.9230  148.8510 C   0  0  0  0  0  3  0  0  0  0  0  0
  160.9810  202.7230  151.1300 C   0  0  0  0  0  3  0  0  0  0  0  0
  161.1630  203.1890  148.3780 C   0  0  0  0  0  0  0  0  0  0  0  0
  160.7150  201.6900  150.2270 C   0  0  0  0  0  3  0  0  0  0  0  0
  161.2560  203.4190  147.0120 O   0  0  0  0  0  1  0  0  0  0  0  0
  1 17  1  0  0  0  0
  3  2  1  1  0  0  0
  3 10  1  0  0  0  0
  4  1  1  6  0  0  0
  4  3  1  0  0  0  0
  5  8  1  0  0  0  0
  5  9  2  0  0  0  0
  6  2  1  0  0  0  0
  7  4  1  0  0  0  0
  7  6  2  0  0  0  0
  8  1  2  0  0  0  0
  9  7  1  0  0  0  0
 10 12  1  0  0  0  0
 10 11  1  1  0  0  0
 11 16  1  0  0  0  0
 12 15  1  0  0  0  0
 15 13  1  0  0  0  0
 16 13  1  0  0  0  0
 16 14  1  0  0  0  0
 17 18  1  0  0  0  0
 19 20  1  0  0  0  0
 20 22  2  0  0  0  0
 20 18  1  0  0  0  0
 21 24  2  0  0  0  0
 23 21  1  0  0  0  0
 23 19  2  0  0  0  0
 24 22  1  0  0  0  0
 25 23  1  0  0  0  0
M  END
>  <MODEL>
1

>  <REMARK>
 VINA RESULT:      -8.3      0.000      0.000
  Name = 
  4 active torsions:
  status: ('A' for Active; 'I' for Inactive)
    1  A    between atoms: C_2  and  O_17
    2  A    between atoms: C_4  and  C_8
    3  A    between atoms: C_7  and  C_10
    4  A    between atoms: C_7  and  O_17
                            x       y       z     vdW  Elec       q    Type
                         _______ _______ _______ _____ _____    ______ ____

>  <TORSDO>
F 4

$$$$
=
 OpenBabel11072411353D

 25 28  0  0  1  0  0  0  0  0999 V2000
  160.8930  207.0610  153.7000 C   0  0  0  0  0  0  0  0  0  0  0  0
  162.1590  210.3500  153.1760 N   0  0  0  0  0  2  0  0  0  0  0  0
  161.9020  209.0870  152.4960 C   0  0  1  0  0  3  0  0  0  0  0  0
  160.7150  208.4950  153.2680 C   0  0  2  0  0  3  0  0  0  0  0  0
  160.0020  207.6690  155.9190 C   0  0  0  0  0  3  0  0  0  0  0  0
  161.4490  210.4020  154.3770 N   0  0  0  0  0  0  0  0  0  0  0  0
  160.6590  209.3920  154.4560 C   0  0  0  0  0  0  0  0  0  0  0  0
  160.4930  206.6790  154.9280 C   0  0  0  0  0  3  0  0  0  0  0  0
  160.1030  208.9470  155.6940 N   0  0  0  0  0  0  0  0  0  0  0  0
  161.5930  209.3260  151.0180 C   0  0  1  0  0  3  0  0  0  0  0  0
  162.0930  210.7050  150.5800 C   0  0  0  0  0  2  0  0  0  0  0  0
  162.1850  208.2840  150.1750 N   0  0  0  0  0  2  0  0  0  0  0  0
  162.3410  209.9110  148.3550 C   0  0  0  0  0  2  0  0  0  0  0  0
  162.3030  212.1190  148.8320 O   0  0  0  0  0  1  0  0  0  0  0  0
  161.8250  208.5380  148.7810 C   0  0  0  0  0  2  0  0  0  0  0  0
  161.7300  210.9460  149.1850 N   0  0  0  0  0  0  0  0  0  0  0  0
  161.3910  206.1380  152.7750 O   0  0  0  0  0  0  0  0  0  0  0  0
  161.2120  204.7340  152.8970 C   0  0  0  0  0  2  0  0  0  0  0  0
  161.0600  204.9630  150.4120 C   0  0  0  0  0  3  0  0  0  0  0  0
  161.0730  204.1380  151.5420 C   0  0  0  0  0  0  0  0  0  0  0  0
  160.8990  203.0120  148.9870 C   0  0  0  0  0  3  0  0  0  0  0  0
  161.0120  202.7480  151.3920 C   0  0  0  0  0  3  0  0  0  0  0  0
  160.9700  204.4010  149.1350 C   0  0  0  0  0  0  0  0  0  0  0  0
  160.9210  202.1860  150.1150 C   0  0  0  0  0  3  0  0  0  0  0  0
  160.9530  205.2200  148.0150 O   0  0  0  0  0  1  0  0  0  0  0  0
  1  8  2  0  0  0  0
  2  6  1  0  0  0  0
  3  2  1  1  0  0  0
  3  4  1  0  0  0  0
  4  1  1  1  0  0  0
  4  7  1  0  0  0  0
  6  7  2  0  0  0  0
  7  9  1  0  0  0  0
  8  5  1  0  0  0  0
  9  5  2  0  0  0  0
 10 11  1  6  0  0  0
 10  3  1  0  0  0  0
 12 10  1  0  0  0  0
 13 15  1  0  0  0  0
 13 16  1  0  0  0  0
 14 16  1  0  0  0  0
 15 12  1  0  0  0  0
 16 11  1  0  0  0  0
 17 18  1  0  0  0  0
 17  1  1  0  0  0  0
 19 20  1  0  0  0  0
 20 18  1  0  0  0  0
 21 23  1  0  0  0  0
 21 24  2  0  0  0  0
 22 20  2  0  0  0  0
 23 19  2  0  0  0  0
 24 22  1  0  0  0  0
 25 23  1  0  0  0  0
M  END
>  <MODEL>
2

>  <REMARK>
 VINA RESULT:      -8.2      1.783      4.551
  Name = 
  4 active torsions:
  status: ('A' for Active; 'I' for Inactive)
    1  A    between atoms: C_2  and  O_17
    2  A    between atoms: C_4  and  C_8
    3  A    between atoms: C_7  and  C_10
    4  A    between atoms: C_7  and  O_17
                            x       y       z     vdW  Elec       q    Type
                         _______ _______ _______ _____ _____    ______ ____

>  <TORSDO>
F 4

$$$$
=
 OpenBabel11072411353D

 25 28  0  0  1  0  0  0  0  0999 V2000
  161.2160  205.8510  150.5010 C   0  0  0  0  0  0  0  0  0  0  0  0
  162.8440  208.3690  148.5760 N   0  0  0  0  0  2  0  0  0  0  0  0
  162.3260  207.0080  148.5000 C   0  0  1  0  0  3  0  0  0  0  0  0
  161.1820  207.0000  149.5230 C   0  0  2  0  0  3  0  0  0  0  0  0
  160.7230  207.4430  152.3190 C   0  0  0  0  0  3  0  0  0  0  0  0
  162.3150  209.0230  149.6900 N   0  0  0  0  0  0  0  0  0  0  0  0
  161.4100  208.2900  150.2320 C   0  0  0  0  0  0  0  0  0  0  0  0
  160.9350  206.0690  151.8000 C   0  0  0  0  0  3  0  0  0  0  0  0
  160.9690  208.4840  151.5770 N   0  0  0  0  0  0  0  0  0  0  0  0
  161.8570  206.6900  147.0800 C   0  0  1  0  0  3  0  0  0  0  0  0
  162.5910  205.4620  146.5340 C   0  0  0  0  0  2  0  0  0  0  0  0
  160.4090  206.4750  147.0330 N   0  0  0  0  0  2  0  0  0  0  0  0
  160.7410  204.9820  145.1240 C   0  0  0  0  0  2  0  0  0  0  0  0
  162.7710  204.0530  144.7790 O   0  0  0  0  0  1  0  0  0  0  0  0
  160.0110  206.2170  145.6500 C   0  0  0  0  0  2  0  0  0  0  0  0
  162.1830  205.2120  145.1540 N   0  0  0  0  0  0  0  0  0  0  0  0
  161.4530  204.5620  150.0120 O   0  0  0  0  0  0  0  0  0  0  0  0
  160.6160  203.4510  150.2990 C   0  0  0  0  0  2  0  0  0  0  0  0
  160.5980  202.6610  147.9260 C   0  0  0  0  0  3  0  0  0  0  0  0
  160.8380  202.3930  149.2780 C   0  0  0  0  0  0  0  0  0  0  0  0
  161.3400  200.4300  147.3490 C   0  0  0  0  0  3  0  0  0  0  0  0
  161.3430  201.1450  149.6630 C   0  0  0  0  0  3  0  0  0  0  0  0
  160.8460  201.6800  146.9630 C   0  0  0  0  0  0  0  0  0  0  0  0
  161.5900  200.1640  148.6990 C   0  0  0  0  0  3  0  0  0  0  0  0
  160.6030  201.9460  145.6230 O   0  0  0  0  0  1  0  0  0  0  0  0
  1  8  2  0  0  0  0
  2  6  1  0  0  0  0
  3  2  1  6  0  0  0
  3  4  1  0  0  0  0
  4  7  1  1  0  0  0
  4  1  1  0  0  0  0
  6  7  2  0  0  0  0
  7  9  1  0  0  0  0
  8  5  1  0  0  0  0
  9  5  2  0  0  0  0
 10 11  1  1  0  0  0
 10  3  1  0  0  0  0
 12 10  1  0  0  0  0
 13 16  1  0  0  0  0
 13 15  1  0  0  0  0
 14 16  1  0  0  0  0
 15 12  1  0  0  0  0
 16 11  1  0  0  0  0
 17 18  1  0  0  0  0
 17  1  1  0  0  0  0
 19 20  1  0  0  0  0
 20 22  2  0  0  0  0
 20 18  1  0  0  0  0
 21 24  2  0  0  0  0
 23 21  1  0  0  0  0
 23 19  2  0  0  0  0
 24 22  1  0  0  0  0
 25 23  1  0  0  0  0
M  END
>  <MODEL>
3

>  <REMARK>
 VINA RESULT:      -7.9      2.989      6.246
  Name = 
  4 active torsions:
  status: ('A' for Active; 'I' for Inactive)
    1  A    between atoms: C_2  and  O_17
    2  A    between atoms: C_4  and  C_8
    3  A    between atoms: C_7  and  C_10
    4  A    between atoms: C_7  and  O_17
                            x       y       z     vdW  Elec       q    Type
                         _______ _______ _______ _____ _____    ______ ____

>  <TORSDO>
F 4

$$$$
=
 OpenBabel11072411353D

 25 28  0  0  1  0  0  0  0  0999 V2000
  161.6800  208.4180  150.0990 C   0  0  0  0  0  0  0  0  0  0  0  0
  160.1780  210.6010  152.4820 N   0  0  0  0  0  2  0  0  0  0  0  0
  160.6170  209.2240  152.2890 C   0  0  1  0  0  3  0  0  0  0  0  0
  161.7690  209.3500  151.2830 C   0  0  2  0  0  3  0  0  0  0  0  0
  162.2830  210.3050  148.6280 C   0  0  0  0  0  3  0  0  0  0  0  0
  160.7550  211.4280  151.5170 N   0  0  0  0  0  0  0  0  0  0  0  0
  161.6230  210.7640  150.8410 C   0  0  0  0  0  0  0  0  0  0  0  0
  161.9870  208.8700  148.8680 C   0  0  0  0  0  3  0  0  0  0  0  0
  162.0890  211.1920  149.5600 N   0  0  0  0  0  0  0  0  0  0  0  0
  161.0520  208.6070  153.6180 C   0  0  1  0  0  3  0  0  0  0  0  0
  160.4780  209.4030  154.7940 C   0  0  0  0  0  2  0  0  0  0  0  0
  160.6420  207.2030  153.7130 N   0  0  0  0  0  2  0  0  0  0  0  0
  160.5280  207.4500  156.1440 C   0  0  0  0  0  2  0  0  0  0  0  0
  160.3210  209.5120  157.0440 O   0  0  0  0  0  1  0  0  0  0  0  0
  161.1180  206.6530  154.9820 C   0  0  0  0  0  2  0  0  0  0  0  0
  160.9570  208.8430  156.0550 N   0  0  0  0  0  0  0  0  0  0  0  0
  161.3660  207.0750  150.3260 O   0  0  0  0  0  0  0  0  0  0  0  0
  160.9750  206.1780  149.2950 C   0  0  0  0  0  2  0  0  0  0  0  0
  160.8710  203.7020  148.9620 C   0  0  0  0  0  3  0  0  0  0  0  0
  160.9440  204.7930  149.8350 C   0  0  0  0  0  0  0  0  0  0  0  0
  160.9720  202.1860  150.8480 C   0  0  0  0  0  3  0  0  0  0  0  0
  161.0440  204.5790  151.2150 C   0  0  0  0  0  3  0  0  0  0  0  0
  160.8820  202.3990  149.4680 C   0  0  0  0  0  0  0  0  0  0  0  0
  161.0540  203.2750  151.7200 C   0  0  0  0  0  3  0  0  0  0  0  0
  160.8060  201.3170  148.6020 O   0  0  0  0  0  1  0  0  0  0  0  0
  1 17  1  0  0  0  0
  3  2  1  1  0  0  0
  3 10  1  0  0  0  0
  4  1  1  6  0  0  0
  4  3  1  0  0  0  0
  5  8  1  0  0  0  0
  5  9  2  0  0  0  0
  6  2  1  0  0  0  0
  7  4  1  0  0  0  0
  7  6  2  0  0  0  0
  8  1  2  0  0  0  0
  9  7  1  0  0  0  0
 10 12  1  0  0  0  0
 10 11  1  1  0  0  0
 11 16  1  0  0  0  0
 12 15  1  0  0  0  0
 15 13  1  0  0  0  0
 16 13  1  0  0  0  0
 16 14  1  0  0  0  0
 18 20  1  0  0  0  0
 18 17  1  0  0  0  0
 19 23  2  0  0  0  0
 19 20  1  0  0  0  0
 20 22  2  0  0  0  0
 21 24  2  0  0  0  0
 22 24  1  0  0  0  0
 23 21  1  0  0  0  0
 25 23  1  0  0  0  0
M  END
>  <MODEL>
4

>  <REMARK>
 VINA RESULT:      -7.8      1.238      1.567
  Name = 
  4 active torsions:
  status: ('A' for Active; 'I' for Inactive)
    1  A    between atoms: C_2  and  O_17
    2  A    between atoms: C_4  and  C_8
    3  A    between atoms: C_7  and  C_10
    4  A    between atoms: C_7  and  O_17
                            x       y       z     vdW  Elec       q    Type
                         _______ _______ _______ _____ _____    ______ ____

>  <TORSDO>
F 4

$$$$
=
 OpenBabel11072411353D

 25 28  0  0  1  0  0  0  0  0999 V2000
  161.4030  205.5440  150.0430 C   0  0  0  0  0  0  0  0  0  0  0  0
  161.8110  206.2470  153.5120 N   0  0  0  0  0  2  0  0  0  0  0  0
  161.7090  206.8870  152.2050 C   0  0  1  0  0  3  0  0  0  0  0  0
  160.8430  205.9130  151.3940 C   0  0  2  0  0  3  0  0  0  0  0  0
  160.8340  203.1870  150.5030 C   0  0  0  0  0  3  0  0  0  0  0  0
  161.3450  204.9340  153.4410 N   0  0  0  0  0  0  0  0  0  0  0  0
  160.8190  204.7230  152.2880 C   0  0  0  0  0  0  0  0  0  0  0  0
  161.3320  204.2680  149.6160 C   0  0  0  0  0  3  0  0  0  0  0  0
  160.6140  203.4090  151.7670 N   0  0  0  0  0  0  0  0  0  0  0  0
  161.0840  208.2760  152.3340 C   0  0  1  0  0  3  0  0  0  0  0  0
  160.8750  208.6370  153.8070 C   0  0  0  0  0  2  0  0  0  0  0  0
  161.9080  209.2930  151.6770 N   0  0  0  0  0  2  0  0  0  0  0  0
  161.0550  210.9430  153.2690 C   0  0  0  0  0  2  0  0  0  0  0  0
  160.1730  210.2450  155.2280 O   0  0  0  0  0  1  0  0  0  0  0  0
  161.2450  210.5910  151.7950 C   0  0  0  0  0  2  0  0  0  0  0  0
  160.2160  209.9360  153.9120 N   0  0  0  0  0  0  0  0  0  0  0  0
  161.9040  206.5600  149.2240 O   0  0  0  0  0  0  0  0  0  0  0  0
  161.1640  207.1450  148.1610 C   0  0  0  0  0  2  0  0  0  0  0  0
  162.5090  205.5940  146.7340 C   0  0  0  0  0  3  0  0  0  0  0  0
  161.3300  206.3200  146.9360 C   0  0  0  0  0  0  0  0  0  0  0  0
  161.6070  204.6980  144.6730 C   0  0  0  0  0  3  0  0  0  0  0  0
  160.2840  206.2230  146.0110 C   0  0  0  0  0  3  0  0  0  0  0  0
  162.6490  204.7860  145.6020 C   0  0  0  0  0  0  0  0  0  0  0  0
  160.4240  205.4160  144.8780 C   0  0  0  0  0  3  0  0  0  0  0  0
  163.8200  204.0690  145.4010 O   0  0  0  0  0  1  0  0  0  0  0  0
  3 10  1  0  0  0  0
  3  2  1  1  0  0  0
  4  1  1  6  0  0  0
  4  3  1  0  0  0  0
  4  7  1  0  0  0  0
  5  9  2  0  0  0  0
  6  2  1  0  0  0  0
  7  6  2  0  0  0  0
  8  1  2  0  0  0  0
  8  5  1  0  0  0  0
  9  7  1  0  0  0  0
 10 11  1  1  0  0  0
 11 16  1  0  0  0  0
 12 15  1  0  0  0  0
 12 10  1  0  0  0  0
 13 16  1  0  0  0  0
 15 13  1  0  0  0  0
 16 14  1  0  0  0  0
 17  1  1  0  0  0  0
 18 17  1  0  0  0  0
 19 20  1  0  0  0  0
 20 18  1  0  0  0  0
 21 24  2  0  0  0  0
 21 23  1  0  0  0  0
 22 20  2  0  0  0  0
 23 19  2  0  0  0  0
 24 22  1  0  0  0  0
 25 23  1  0  0  0  0
M  END
>  <MODEL>
5

>  <REMARK>
 VINA RESULT:      -7.6      2.662      4.397
  Name = 
  4 active torsions:
  status: ('A' for Active; 'I' for Inactive)
    1  A    between atoms: C_2  and  O_17
    2  A    between atoms: C_4  and  C_8
    3  A    between atoms: C_7  and  C_10
    4  A    between atoms: C_7  and  O_17
                            x       y       z     vdW  Elec       q    Type
                         _______ _______ _______ _____ _____    ______ ____

>  <TORSDO>
F 4

$$$$
=
 OpenBabel11072411353D

 25 28  0  0  1  0  0  0  0  0999 V2000
  161.2490  206.8070  150.0930 C   0  0  0  0  0  0  0  0  0  0  0  0
  161.1860  209.9950  151.6820 N   0  0  0  0  0  2  0  0  0  0  0  0
  160.9730  208.5740  151.9300 C   0  0  1  0  0  3  0  0  0  0  0  0
  161.9010  207.8880  150.9180 C   0  0  2  0  0  3  0  0  0  0  0  0
  162.3500  207.7350  148.0900 C   0  0  0  0  0  3  0  0  0  0  0  0
  161.9000  210.1740  150.4960 N   0  0  0  0  0  0  0  0  0  0  0  0
  162.2940  209.0350  150.0520 C   0  0  0  0  0  0  0  0  0  0  0  0
  161.5220  206.7120  148.7780 C   0  0  0  0  0  3  0  0  0  0  0  0
  162.6920  208.8360  148.6950 N   0  0  0  0  0  0  0  0  0  0  0  0
  161.3090  208.2250  153.3800 C   0  0  1  0  0  3  0  0  0  0  0  0
  161.2330  209.4720  154.2650 C   0  0  0  0  0  2  0  0  0  0  0  0
  160.4170  207.1840  153.8970 N   0  0  0  0  0  2  0  0  0  0  0  0
  160.7150  208.1110  156.1410 C   0  0  0  0  0  2  0  0  0  0  0  0
  161.4160  210.2460  156.3780 O   0  0  0  0  0  1  0  0  0  0  0  0
  160.8080  206.8610  155.2680 C   0  0  0  0  0  2  0  0  0  0  0  0
  161.6220  209.1360  155.6320 N   0  0  0  0  0  0  0  0  0  0  0  0
  160.4400  205.8670  150.7390 O   0  0  0  0  0  0  0  0  0  0  0  0
  160.9510  204.7210  151.4070 C   0  0  0  0  0  2  0  0  0  0  0  0
  161.0600  203.8120  149.0800 C   0  0  0  0  0  3  0  0  0  0  0  0
  160.9900  203.5780  150.4580 C   0  0  0  0  0  0  0  0  0  0  0  0
  161.1520  201.4260  148.6780 C   0  0  0  0  0  3  0  0  0  0  0  0
  161.0150  202.2660  150.9460 C   0  0  0  0  0  3  0  0  0  0  0  0
  161.1380  202.7370  148.1910 C   0  0  0  0  0  0  0  0  0  0  0  0
  161.0920  201.1910  150.0550 C   0  0  0  0  0  3  0  0  0  0  0  0
  161.2030  202.9700  146.8240 O   0  0  0  0  0  1  0  0  0  0  0  0
  1 17  1  0  0  0  0
  1  4  1  0  0  0  0
  3  2  1  1  0  0  0
  3 10  1  0  0  0  0
  4  7  1  6  0  0  0
  4  3  1  0  0  0  0
  5  9  2  0  0  0  0
  5  8  1  0  0  0  0
  6  2  1  0  0  0  0
  7  6  2  0  0  0  0
  8  1  2  0  0  0  0
  9  7  1  0  0  0  0
 10 12  1  0  0  0  0
 10 11  1  1  0  0  0
 11 16  1  0  0  0  0
 12 15  1  0  0  0  0
 15 13  1  0  0  0  0
 16 13  1  0  0  0  0
 16 14  1  0  0  0  0
 17 18  1  0  0  0  0
 19 20  1  0  0  0  0
 20 22  2  0  0  0  0
 20 18  1  0  0  0  0
 21 24  2  0  0  0  0
 23 21  1  0  0  0  0
 23 19  2  0  0  0  0
 24 22  1  0  0  0  0
 25 23  1  0  0  0  0
M  END
>  <MODEL>
6

>  <REMARK>
 VINA RESULT:      -7.5      1.018      1.194
  Name = 
  4 active torsions:
  status: ('A' for Active; 'I' for Inactive)
    1  A    between atoms: C_2  and  O_17
    2  A    between atoms: C_4  and  C_8
    3  A    between atoms: C_7  and  C_10
    4  A    between atoms: C_7  and  O_17
                            x       y       z     vdW  Elec       q    Type
                         _______ _______ _______ _____ _____    ______ ____

>  <TORSDO>
F 4

$$$$
=
 OpenBabel11072411353D

 25 28  0  0  1  0  0  0  0  0999 V2000
  161.4440  207.2260  152.0330 C   0  0  0  0  0  0  0  0  0  0  0  0
  162.0680  210.5810  153.0590 N   0  0  0  0  0  2  0  0  0  0  0  0
  161.9160  209.7410  151.8770 C   0  0  1  0  0  3  0  0  0  0  0  0
  160.9730  208.6250  152.3450 C   0  0  2  0  0  3  0  0  0  0  0  0
  160.8180  206.5550  154.3230 C   0  0  0  0  0  3  0  0  0  0  0  0
  161.5520  209.9290  154.1800 N   0  0  0  0  0  0  0  0  0  0  0  0
  160.9560  208.8500  153.8170 C   0  0  0  0  0  0  0  0  0  0  0  0
  161.3040  206.2530  152.9540 C   0  0  0  0  0  3  0  0  0  0  0  0
  160.6760  207.7850  154.7260 N   0  0  0  0  0  0  0  0  0  0  0  0
  161.3490  210.5520  150.7110 C   0  0  1  0  0  3  0  0  0  0  0  0
  160.9060  211.9390  151.1850 C   0  0  0  0  0  2  0  0  0  0  0  0
  162.3260  210.6780  149.6260 N   0  0  0  0  0  2  0  0  0  0  0  0
  161.2930  212.8090  149.0090 C   0  0  0  0  0  2  0  0  0  0  0  0
  160.0500  213.9230  150.5310 O   0  0  0  0  0  1  0  0  0  0  0  0
  161.7180  211.4240  148.5240 C   0  0  0  0  0  2  0  0  0  0  0  0
  160.3050  212.6750  150.0760 N   0  0  0  0  0  0  0  0  0  0  0  0
  161.9360  206.9540  150.7530 O   0  0  0  0  0  0  0  0  0  0  0  0
  161.1200  206.9320  149.5890 C   0  0  0  0  0  2  0  0  0  0  0  0
  161.5230  205.3770  147.6730 C   0  0  0  0  0  3  0  0  0  0  0  0
  161.1370  205.5650  149.0050 C   0  0  0  0  0  0  0  0  0  0  0  0
  161.2510  202.9850  147.9310 C   0  0  0  0  0  3  0  0  0  0  0  0
  160.8200  204.4590  149.8030 C   0  0  0  0  0  3  0  0  0  0  0  0
  161.5780  204.0880  147.1350 C   0  0  0  0  0  0  0  0  0  0  0  0
  160.8740  203.1700  149.2640 C   0  0  0  0  0  3  0  0  0  0  0  0
  161.9570  203.9030  145.8130 O   0  0  0  0  0  1  0  0  0  0  0  0
  1  8  2  0  0  0  0
  2  6  1  0  0  0  0
  3  4  1  0  0  0  0
  3  2  1  1  0  0  0
  4  1  1  1  0  0  0
  4  7  1  0  0  0  0
  5  9  2  0  0  0  0
  7  6  2  0  0  0  0
  7  9  1  0  0  0  0
  8  5  1  0  0  0  0
 10 11  1  1  0  0  0
 10  3  1  0  0  0  0
 12 10  1  0  0  0  0
 13 16  1  0  0  0  0
 15 13  1  0  0  0  0
 15 12  1  0  0  0  0
 16 14  1  0  0  0  0
 16 11  1  0  0  0  0
 17  1  1  0  0  0  0
 18 17  1  0  0  0  0
 19 20  1  0  0  0  0
 20 18  1  0  0  0  0
 20 22  2  0  0  0  0
 21 24  2  0  0  0  0
 23 19  2  0  0  0  0
 23 21  1  0  0  0  0
 24 22  1  0  0  0  0
 25 23  1  0  0  0  0
M  END
>  <MODEL>
7

>  <REMARK>
 VINA RESULT:      -7.4      2.250      4.582
  Name = 
  4 active torsions:
  status: ('A' for Active; 'I' for Inactive)
    1  A    between atoms: C_2  and  O_17
    2  A    between atoms: C_4  and  C_8
    3  A    between atoms: C_7  and  C_10
    4  A    between atoms: C_7  and  O_17
                            x       y       z     vdW  Elec       q    Type
                         _______ _______ _______ _____ _____    ______ ____

>  <TORSDO>
F 4

$$$$
=
 OpenBabel11072411353D

 25 28  0  0  1  0  0  0  0  0999 V2000
  161.2280  208.2750  151.6350 C   0  0  0  0  0  0  0  0  0  0  0  0
  159.8010  211.2060  153.0720 N   0  0  0  0  0  2  0  0  0  0  0  0
  160.1630  209.8270  153.3760 C   0  0  1  0  0  3  0  0  0  0  0  0
  161.3430  209.5490  152.4350 C   0  0  2  0  0  3  0  0  0  0  0  0
  161.9720  209.5160  149.6370 C   0  0  0  0  0  3  0  0  0  0  0  0
  160.4460  211.6270  151.9090 N   0  0  0  0  0  0  0  0  0  0  0  0
  161.2890  210.7330  151.5340 C   0  0  0  0  0  0  0  0  0  0  0  0
  161.5880  208.2650  150.3370 C   0  0  0  0  0  3  0  0  0  0  0  0
  161.8080  210.6770  150.2040 N   0  0  0  0  0  0  0  0  0  0  0  0
  160.5310  209.6810  154.8520 C   0  0  1  0  0  3  0  0  0  0  0  0
  160.2020  208.2710  155.3520 C   0  0  0  0  0  2  0  0  0  0  0  0
  161.9470  209.9800  155.0810 N   0  0  0  0  0  2  0  0  0  0  0  0
  161.9120  208.4520  156.9910 C   0  0  0  0  0  2  0  0  0  0  0  0
  160.2990  206.8750  157.1240 O   0  0  0  0  0  1  0  0  0  0  0  0
  162.2330  209.8660  156.5100 C   0  0  0  0  0  2  0  0  0  0  0  0
  160.4950  208.1690  156.7790 N   0  0  0  0  0  0  0  0  0  0  0  0
  160.8310  207.1050  152.2910 O   0  0  0  0  0  0  0  0  0  0  0  0
  161.7090  206.0210  152.5580 C   0  0  0  0  0  2  0  0  0  0  0  0
  161.4170  205.0640  150.2670 C   0  0  0  0  0  3  0  0  0  0  0  0
  161.3790  204.8870  151.6540 C   0  0  0  0  0  0  0  0  0  0  0  0
  160.8410  202.7320  149.9540 C   0  0  0  0  0  3  0  0  0  0  0  0
  161.0840  203.6290  152.1910 C   0  0  0  0  0  3  0  0  0  0  0  0
  161.1460  203.9880  149.4170 C   0  0  0  0  0  0  0  0  0  0  0  0
  160.8120  202.5530  151.3400 C   0  0  0  0  0  3  0  0  0  0  0  0
  161.1800  204.1640  148.0410 O   0  0  0  0  0  1  0  0  0  0  0  0
  1 17  1  0  0  0  0
  1  4  1  0  0  0  0
  3  2  1  1  0  0  0
  3 10  1  0  0  0  0
  4  7  1  6  0  0  0
  4  3  1  0  0  0  0
  5  9  2  0  0  0  0
  5  8  1  0  0  0  0
  6  2  1  0  0  0  0
  7  6  2  0  0  0  0
  8  1  2  0  0  0  0
  9  7  1  0  0  0  0
 10 12  1  0  0  0  0
 10 11  1  6  0  0  0
 11 16  1  0  0  0  0
 12 15  1  0  0  0  0
 15 13  1  0  0  0  0
 16 13  1  0  0  0  0
 16 14  1  0  0  0  0
 17 18  1  0  0  0  0
 19 20  1  0  0  0  0
 20 22  2  0  0  0  0
 20 18  1  0  0  0  0
 21 24  2  0  0  0  0
 23 21  1  0  0  0  0
 23 19  2  0  0  0  0
 24 22  1  0  0  0  0
 25 23  1  0  0  0  0
M  END
>  <MODEL>
8

>  <REMARK>
 VINA RESULT:      -7.3      1.339      1.682
  Name = 
  4 active torsions:
  status: ('A' for Active; 'I' for Inactive)
    1  A    between atoms: C_2  and  O_17
    2  A    between atoms: C_4  and  C_8
    3  A    between atoms: C_7  and  C_10
    4  A    between atoms: C_7  and  O_17
                            x       y       z     vdW  Elec       q    Type
                         _______ _______ _______ _____ _____    ______ ____

>  <TORSDO>
F 4

$$$$
=
 OpenBabel11072411353D

 25 28  0  0  1  0  0  0  0  0999 V2000
  160.4250  208.2720  154.3910 C   0  0  0  0  0  0  0  0  0  0  0  0
  161.5200  211.2750  155.9640 N   0  0  0  0  0  2  0  0  0  0  0  0
  160.9900  210.7520  154.7100 C   0  0  1  0  0  3  0  0  0  0  0  0
  160.1480  209.5460  155.1500 C   0  0  2  0  0  3  0  0  0  0  0  0
  160.4270  207.0510  156.5350 C   0  0  0  0  0  3  0  0  0  0  0  0
  161.3000  210.3630  156.9960 N   0  0  0  0  0  0  0  0  0  0  0  0
  160.5600  209.4010  156.5730 C   0  0  0  0  0  0  0  0  0  0  0  0
  160.4890  207.1000  155.0530 C   0  0  0  0  0  3  0  0  0  0  0  0
  160.4810  208.1420  157.2430 N   0  0  0  0  0  0  0  0  0  0  0  0
  160.1690  211.8190  153.9860 C   0  0  1  0  0  3  0  0  0  0  0  0
  160.5500  211.8770  152.5040 C   0  0  0  0  0  2  0  0  0  0  0  0
  158.7320  211.5740  154.1290 N   0  0  0  0  0  2  0  0  0  0  0  0
  158.3780  212.6800  151.9760 C   0  0  0  0  0  2  0  0  0  0  0  0
  160.0980  212.8620  150.5230 O   0  0  0  0  0  1  0  0  0  0  0  0
  157.9970  212.6440  153.4550 C   0  0  0  0  0  2  0  0  0  0  0  0
  159.8070  212.9460  151.8410 N   0  0  0  0  0  0  0  0  0  0  0  0
  160.5180  208.3280  152.9970 O   0  0  0  0  0  0  0  0  0  0  0  0
  161.6810  207.9480  152.2750 C   0  0  0  0  0  2  0  0  0  0  0  0
  161.0570  207.0960  150.0080 C   0  0  0  0  0  3  0  0  0  0  0  0
  161.3430  206.8320  151.3520 C   0  0  0  0  0  0  0  0  0  0  0  0
  160.7910  204.7250  149.5970 C   0  0  0  0  0  3  0  0  0  0  0  0
  161.3660  205.5110  151.8150 C   0  0  0  0  0  3  0  0  0  0  0  0
  160.7780  206.0440  149.1320 C   0  0  0  0  0  0  0  0  0  0  0  0
  161.0870  204.4590  150.9380 C   0  0  0  0  0  3  0  0  0  0  0  0
  160.4900  206.3070  147.8000 O   0  0  0  0  0  1  0  0  0  0  0  0
  1  8  2  0  0  0  0
  2  6  1  0  0  0  0
  3  4  1  0  0  0  0
  3  2  1  1  0  0  0
  4  1  1  6  0  0  0
  4  7  1  0  0  0  0
  5  9  2  0  0  0  0
  7  6  2  0  0  0  0
  7  9  1  0  0  0  0
  8  5  1  0  0  0  0
 10 11  1  6  0  0  0
 10 12  1  0  0  0  0
 10  3  1  0  0  0  0
 13 15  1  0  0  0  0
 14 16  1  0  0  0  0
 15 12  1  0  0  0  0
 16 13  1  0  0  0  0
 16 11  1  0  0  0  0
 17  1  1  0  0  0  0
 18 17  1  0  0  0  0
 19 20  1  0  0  0  0
 20 22  2  0  0  0  0
 20 18  1  0  0  0  0
 21 24  2  0  0  0  0
 23 21  1  0  0  0  0
 23 19  2  0  0  0  0
 24 22  1  0  0  0  0
 25 23  1  0  0  0  0
M  END
>  <MODEL>
9

>  <REMARK>
 VINA RESULT:      -7.2      2.552      4.810
  Name = 
  4 active torsions:
  status: ('A' for Active; 'I' for Inactive)
    1  A    between atoms: C_2  and  O_17
    2  A    between atoms: C_4  and  C_8
    3  A    between atoms: C_7  and  C_10
    4  A    between atoms: C_7  and  O_17
                            x       y       z     vdW  Elec       q    Type
                         _______ _______ _______ _____ _____    ______ ____

>  <TORSDO>
F 4

$$$$
