=
 OpenBabel11072410043D

 55 60  0  0  1  0  0  0  0  0999 V2000
  159.7070  210.9050  153.3790 C   0  0  1  0  0  3  0  0  0  0  0  0
  162.9410  209.1670  151.1050 C   0  0  0  0  0  3  0  0  0  0  0  0
  157.5270  211.7120  154.1030 O   0  0  0  0  0  1  0  0  0  0  0  0
  163.3350  209.4530  148.2320 O   0  0  0  0  0  0  0  0  0  0  0  0
  160.2910  206.6140  151.6700 O   0  0  0  0  0  1  0  0  0  0  0  0
  161.1540  207.6860  151.8770 C   0  0  0  0  0  0  0  0  0  0  0  0
  158.1000  213.0130  145.8140 C   0  0  1  0  0  3  0  0  0  0  0  0
  162.2390  208.9380  147.8890 C   0  0  0  0  0  0  0  0  0  0  0  0
  161.3020  209.6840  146.5520 S   0  0  0  0  0  0  0  0  0  0  0  0
  156.4050  213.0780  149.9640 O   0  0  0  0  0  0  0  0  0  0  0  0
  158.9030  211.9810  154.1250 C   0  0  2  0  0  3  0  0  0  0  0  0
  159.3920  212.3890  146.3260 C   0  0  0  0  0  2  0  0  0  0  0  0
  157.3500  214.0730  151.9820 C   0  0  0  0  0  2  0  0  0  0  0  0
  157.9520  214.4530  149.4540 C   0  0  2  0  0  3  0  0  0  0  0  0
  159.4140  214.1450  149.8210 C   0  0  0  0  0  2  0  0  0  0  0  0
  161.7380  209.6820  153.1170 C   0  0  0  0  0  0  0  0  0  0  0  0
  159.7070  214.3370  151.2990 C   0  0  0  0  0  2  0  0  0  0  0  0
  161.7270  207.8010  148.5350 O   0  0  0  0  0  0  0  0  0  0  0  0
  162.7110  210.0390  152.1790 C   0  0  0  0  0  3  0  0  0  0  0  0
  160.4540  209.5300  155.0510 C   0  0  1  0  0  3  0  0  0  0  0  0
  159.0960  211.1510  147.0360 N   0  0  0  0  0  2  0  0  0  0  0  0
  161.0320  210.5740  154.0990 C   0  0  2  0  0  3  0  0  0  0  0  0
  159.1850  213.3600  153.5390 C   0  0  0  0  0  2  0  0  0  0  0  0
  163.7420  206.7260  149.4300 C   0  0  0  0  0  1  0  0  0  0  0  0
  156.6890  213.3410  147.6430 N   0  0  0  0  0  2  0  0  0  0  0  0
  162.1580  208.0060  150.9300 C   0  0  0  0  0  0  0  0  0  0  0  0
  157.5940  213.9840  146.7800 N   0  0  0  0  0  2  0  0  0  0  0  0
  156.8780  214.2780  150.5300 C   0  0  1  0  0  3  0  0  0  0  0  0
  158.7420  213.4640  152.0810 C   0  0  1  0  0  3  0  0  0  0  0  0
  161.0100  208.5140  152.9980 C   0  0  0  0  0  0  0  0  0  0  0  0
  159.8370  208.7390  153.9050 C   0  0  2  0  0  0  0  0  0  0  0  0
  162.3050  207.1700  149.6870 C   0  0  1  0  0  3  0  0  0  0  0  0
  160.3220  210.7210  147.6830 C   0  0  0  0  0  2  0  0  0  0  0  0
  157.3560  213.1560  148.9280 C   0  0  2  0  0  3  0  0  0  0  0  0
  158.9860  209.6730  153.2830 O   0  0  0  0  0  0  0  0  0  0  0  0
  159.1600  207.5830  154.2980 O   0  0  0  0  0  1  0  0  0  0  0  0
  159.6670  212.0350  143.5830 O   0  0  0  0  0  0  0  0  0  0  0  0
  159.1270  213.1690  143.4840 C   0  0  0  0  0  0  0  0  0  0  0  0
  158.3690  213.7160  144.5660 N   0  0  0  0  0  2  0  0  0  0  0  0
  159.1720  213.9130  142.1920 C   0  0  0  0  0  2  0  0  0  0  0  0
  160.3020  213.4580  141.3780 N   0  0  0  0  0  2  0  0  0  0  0  0
  160.5980  213.3040  138.9370 C   0  0  0  0  0  1  0  0  0  0  0  0
  158.3480  212.9460  139.9400 C   0  0  0  0  0  1  0  0  0  0  0  0
  159.8490  212.7820  140.1550 C   0  0  0  0  0  0  0  0  0  0  0  0
  160.1390  211.3000  140.2980 C   0  0  0  0  0  1  0  0  0  0  0  0
  161.4420  208.7880  155.7390 O   0  0  0  0  0  0  0  0  0  0  0  0
  160.8670  210.7250  156.9680 C   0  0  0  0  0  1  0  0  0  0  0  0
  161.6370  209.4100  156.9840 C   0  0  2  0  0  3  0  0  0  0  0  0
  163.1180  209.6680  157.2480 C   0  0  0  0  0  2  0  0  0  0  0  0
  162.7820  211.6160  155.9050 O   0  0  0  0  0  0  0  0  0  0  0  0
  163.4840  211.0360  156.7760 C   0  0  0  0  0  0  0  0  0  0  0  0
  165.6540  212.2490  156.3950 C   0  0  0  0  0  0  0  0  0  0  0  0
  165.6880  211.9500  155.1690 O   0  0  0  0  0  0  0  0  0  0  0  0
  164.6880  211.6370  157.2610 N   0  0  0  0  0  2  0  0  0  0  0  0
  166.6480  213.1110  156.9400 N   0  0  0  0  0  1  0  0  0  0  0  0
  1 35  1  1  0  0  0
  1 22  1  0  0  0  0
  1 11  1  0  0  0  0
  2 19  1  0  0  0  0
  5  6  1  0  0  0  0
  6 30  2  0  0  0  0
  7 39  1  6  0  0  0
  7 12  1  0  0  0  0
  7 27  1  0  0  0  0
  8  4  2  0  0  0  0
  8 18  1  0  0  0  0
  9 33  1  0  0  0  0
  9  8  1  0  0  0  0
 10 28  1  0  0  0  0
 11  3  1  6  0  0  0
 12 21  1  0  0  0  0
 13 29  1  0  0  0  0
 14 15  1  1  0  0  0
 14 28  1  0  0  0  0
 15 17  1  0  0  0  0
 18 32  1  0  0  0  0
 19 16  2  0  0  0  0
 20 46  1  6  0  0  0
 21 33  1  0  0  0  0
 22 16  1  6  0  0  0
 22 20  1  0  0  0  0
 23 11  1  0  0  0  0
 26  2  2  0  0  0  0
 26  6  1  0  0  0  0
 27 25  1  0  0  0  0
 28 13  1  1  0  0  0
 29 17  1  6  0  0  0
 29 23  1  0  0  0  0
 30 16  1  0  0  0  0
 30 31  1  0  0  0  0
 31 36  1  1  0  0  0
 31 20  1  0  0  0  0
 32 24  1  6  0  0  0
 32 26  1  0  0  0  0
 34 25  1  6  0  0  0
 34 14  1  0  0  0  0
 34 10  1  0  0  0  0
 35 31  1  0  0  0  0
 38 37  2  0  0  0  0
 38 39  1  0  0  0  0
 40 38  1  0  0  0  0
 41 40  1  0  0  0  0
 42 44  1  0  0  0  0
 43 44  1  0  0  0  0
 44 45  1  0  0  0  0
 44 41  1  0  0  0  0
 46 48  1  0  0  0  0
 48 47  1  6  0  0  0
 48 49  1  0  0  0  0
 50 51  2  0  0  0  0
 51 49  1  0  0  0  0
 51 54  1  0  0  0  0
 52 55  1  0  0  0  0
 52 54  1  0  0  0  0
 53 52  2  0  0  0  0
M  END
>  <MODEL>
1

>  <REMARK>
 VINA RESULT:       9.2      0.000      0.000
  Name = 
  8 active torsions:
  status: ('A' for Active; 'I' for Inactive)
    1  A    between atoms: O_6  and  C_27
    2  A    between atoms: O_6  and  C_44
    3  A    between atoms: C_10  and  C_53
    4  A    between atoms: C_11  and  N_47
    5  A    between atoms: N_19  and  C_33
    6  A    between atoms: N_19  and  C_51
    7  A    between atoms: C_33  and  C_45
    8  A    between atoms: C_44  and  C_53
                            x       y       z     vdW  Elec       q    Type
                         _______ _______ _______ _____ _____    ______ ____

>  <TORSDO>
F 8

$$$$
=
 OpenBabel11072410043D

 55 60  0  0  1  0  0  0  0  0999 V2000
  159.7500  211.7070  152.5920 C   0  0  1  0  0  3  0  0  0  0  0  0
  162.8940  208.9180  151.5980 C   0  0  0  0  0  3  0  0  0  0  0  0
  157.6660  212.9660  152.6280 O   0  0  0  0  0  1  0  0  0  0  0  0
  163.6760  208.1400  148.9010 O   0  0  0  0  0  0  0  0  0  0  0  0
  159.8010  207.0520  152.4990 O   0  0  0  0  0  1  0  0  0  0  0  0
  160.8010  208.0190  152.4910 C   0  0  0  0  0  0  0  0  0  0  0  0
  159.4540  211.2300  144.5960 C   0  0  1  0  0  3  0  0  0  0  0  0
  162.5590  207.6710  148.5620 C   0  0  0  0  0  0  0  0  0  0  0  0
  161.9320  208.0110  146.9150 S   0  0  0  0  0  0  0  0  0  0  0  0
  157.3030  212.9320  148.1420 O   0  0  0  0  0  0  0  0  0  0  0  0
  159.0540  213.0620  152.7970 C   0  0  2  0  0  3  0  0  0  0  0  0
  160.5490  210.6760  145.4970 C   0  0  0  0  0  2  0  0  0  0  0  0
  158.1500  214.4470  149.8570 C   0  0  0  0  0  2  0  0  0  0  0  0
  159.1100  213.8510  147.4870 C   0  0  2  0  0  3  0  0  0  0  0  0
  160.4440  213.5200  148.1790 C   0  0  0  0  0  2  0  0  0  0  0  0
  161.5610  210.2380  153.0950 C   0  0  0  0  0  0  0  0  0  0  0  0
  160.5840  214.1780  149.5420 C   0  0  0  0  0  2  0  0  0  0  0  0
  161.7870  206.8980  149.4440 O   0  0  0  0  0  0  0  0  0  0  0  0
  162.6860  210.1290  152.2740 C   0  0  0  0  0  3  0  0  0  0  0  0
  160.0440  210.9190  154.7220 C   0  0  1  0  0  3  0  0  0  0  0  0
  159.9640  209.8050  146.5080 N   0  0  0  0  0  2  0  0  0  0  0  0
  160.9010  211.4920  153.5970 C   0  0  2  0  0  3  0  0  0  0  0  0
  159.6360  214.1070  151.8530 C   0  0  0  0  0  2  0  0  0  0  0  0
  163.4670  205.9710  150.9720 C   0  0  0  0  0  1  0  0  0  0  0  0
  157.9070  212.3380  145.9470 N   0  0  0  0  0  2  0  0  0  0  0  0
  161.9520  207.8700  151.6790 C   0  0  0  0  0  0  0  0  0  0  0  0
  159.0050  212.5290  145.0910 N   0  0  0  0  0  2  0  0  0  0  0  0
  157.9000  214.1900  148.3600 C   0  0  1  0  0  3  0  0  0  0  0  0
  159.3970  213.7510  150.3870 C   0  0  1  0  0  3  0  0  0  0  0  0
  160.6640  209.1960  153.2390 C   0  0  0  0  0  0  0  0  0  0  0  0
  159.4450  209.8590  153.8080 C   0  0  2  0  0  0  0  0  0  0  0  0
  162.1060  206.6430  150.8190 C   0  0  1  0  0  3  0  0  0  0  0  0
  161.0120  209.4850  147.4610 C   0  0  0  0  0  2  0  0  0  0  0  0
  158.3720  212.5320  147.3170 C   0  0  2  0  0  3  0  0  0  0  0  0
  158.8470  210.6120  152.7790 O   0  0  0  0  0  0  0  0  0  0  0  0
  158.5400  208.9990  154.4330 O   0  0  0  0  0  1  0  0  0  0  0  0
  160.6080  213.6600  143.5240 O   0  0  0  0  0  0  0  0  0  0  0  0
  160.5740  212.6380  142.7880 C   0  0  0  0  0  0  0  0  0  0  0  0
  159.9870  211.4200  143.2520 N   0  0  0  0  0  2  0  0  0  0  0  0
  161.2500  212.6470  141.4580 C   0  0  0  0  0  2  0  0  0  0  0  0
  160.6850  211.6140  140.5870 N   0  0  0  0  0  2  0  0  0  0  0  0
  159.9080  213.2810  138.9500 C   0  0  0  0  0  1  0  0  0  0  0  0
  160.2180  210.9110  138.2550 C   0  0  0  0  0  1  0  0  0  0  0  0
  160.7250  212.0170  139.1760 C   0  0  0  0  0  0  0  0  0  0  0  0
  162.1670  212.3050  138.8050 C   0  0  0  0  0  1  0  0  0  0  0  0
  160.8000  210.3510  155.7740 O   0  0  0  0  0  0  0  0  0  0  0  0
  162.6880  210.7450  157.1420 C   0  0  0  0  0  1  0  0  0  0  0  0
  161.5610  211.3860  156.3440 C   0  0  2  0  0  3  0  0  0  0  0  0
  160.7050  212.2660  157.2520 C   0  0  0  0  0  2  0  0  0  0  0  0
  159.5230  214.0430  156.1790 O   0  0  0  0  0  0  0  0  0  0  0  0
  159.5540  212.8200  156.4800 C   0  0  0  0  0  0  0  0  0  0  0  0
  157.0880  212.3390  156.4000 C   0  0  0  0  0  0  0  0  0  0  0  0
  156.8100  213.2490  157.2300 O   0  0  0  0  0  0  0  0  0  0  0  0
  158.4520  211.9640  156.1680 N   0  0  0  0  0  2  0  0  0  0  0  0
  156.0370  211.6080  155.7750 N   0  0  0  0  0  1  0  0  0  0  0  0
  1 35  1  1  0  0  0
  1 11  1  0  0  0  0
  1 22  1  0  0  0  0
  2 26  2  0  0  0  0
  2 19  1  0  0  0  0
  6  5  1  0  0  0  0
  6 30  2  0  0  0  0
  7 39  1  6  0  0  0
  7 27  1  0  0  0  0
  7 12  1  0  0  0  0
  8  4  2  0  0  0  0
  8 18  1  0  0  0  0
  9 33  1  0  0  0  0
  9  8  1  0  0  0  0
 10 28  1  0  0  0  0
 11  3  1  6  0  0  0
 12 21  1  0  0  0  0
 13 29  1  0  0  0  0
 14 15  1  1  0  0  0
 14 28  1  0  0  0  0
 15 17  1  0  0  0  0
 16 30  1  0  0  0  0
 18 32  1  0  0  0  0
 19 16  2  0  0  0  0
 20 46  1  1  0  0  0
 21 33  1  0  0  0  0
 22 16  1  6  0  0  0
 22 20  1  0  0  0  0
 23 11  1  0  0  0  0
 26  6  1  0  0  0  0
 27 25  1  0  0  0  0
 28 13  1  1  0  0  0
 29 17  1  6  0  0  0
 29 23  1  0  0  0  0
 30 31  1  0  0  0  0
 31 36  1  1  0  0  0
 31 20  1  0  0  0  0
 32 24  1  6  0  0  0
 32 26  1  0  0  0  0
 34 25  1  6  0  0  0
 34 14  1  0  0  0  0
 34 10  1  0  0  0  0
 35 31  1  0  0  0  0
 38 39  1  0  0  0  0
 38 37  2  0  0  0  0
 40 38  1  0  0  0  0
 41 40  1  0  0  0  0
 42 44  1  0  0  0  0
 43 44  1  0  0  0  0
 44 41  1  0  0  0  0
 45 44  1  0  0  0  0
 46 48  1  0  0  0  0
 48 47  1  1  0  0  0
 48 49  1  0  0  0  0
 50 51  2  0  0  0  0
 51 49  1  0  0  0  0
 52 53  2  0  0  0  0
 54 52  1  0  0  0  0
 54 51  1  0  0  0  0
 55 52  1  0  0  0  0
M  END
>  <MODEL>
2

>  <REMARK>
 VINA RESULT:      11.0      2.165      3.083
  Name = 
  8 active torsions:
  status: ('A' for Active; 'I' for Inactive)
    1  A    between atoms: O_6  and  C_27
    2  A    between atoms: O_6  and  C_44
    3  A    between atoms: C_10  and  C_53
    4  A    between atoms: C_11  and  N_47
    5  A    between atoms: N_19  and  C_33
    6  A    between atoms: N_19  and  C_51
    7  A    between atoms: C_33  and  C_45
    8  A    between atoms: C_44  and  C_53
                            x       y       z     vdW  Elec       q    Type
                         _______ _______ _______ _____ _____    ______ ____

>  <TORSDO>
F 8

$$$$
