=
 OpenBabel11072411023D

 30 36  0  0  1  0  0  0  0  0999 V2000
  160.8030  202.8540  151.1370 C   0  0  0  0  0  0  0  0  0  0  0  0
  161.2100  202.8690  148.2590 C   0  0  0  0  0  2  0  0  0  0  0  0
  160.2750  201.8550  148.9190 C   0  0  0  0  0  2  0  0  0  0  0  0
  162.5940  209.1480  149.7500 C   0  0  2  0  0  3  0  0  0  0  0  0
  162.0770  207.6660  148.1910 C   0  0  0  0  0  2  0  0  0  0  0  0
  161.1290  204.1190  150.4480 C   0  0  0  0  0  0  0  0  0  0  0  0
  161.9110  209.1890  151.1020 C   0  0  2  0  0  3  0  0  0  0  0  0
  161.6150  207.7630  151.4770 C   0  0  2  0  0  0  0  0  0  0  0  0
  161.2550  205.3110  151.1550 C   0  0  0  0  0  3  0  0  0  0  0  0
  162.2900  210.1080  148.7780 O   0  0  0  0  0  0  0  0  0  0  0  0
  161.5500  206.5290  150.5250 C   0  0  0  0  0  0  0  0  0  0  0  0
  161.5200  208.9270  148.7620 C   0  0  2  0  0  3  0  0  0  0  0  0
  160.5920  208.6740  151.1560 O   0  0  0  0  0  0  0  0  0  0  0  0
  161.2860  204.1390  149.0580 C   0  0  0  0  0  0  0  0  0  0  0  0
  160.7150  201.5780  150.3540 C   0  0  0  0  0  2  0  0  0  0  0  0
  160.6360  202.8270  152.3850 O   0  0  0  0  0  0  0  0  0  0  0  0
  161.7070  206.4930  149.0830 C   0  0  0  0  0  0  0  0  0  0  0  0
  161.5810  205.3030  148.4320 N   0  0  0  0  0  0  0  0  0  0  0  0
  161.7040  207.5290  152.9870 C   0  0  0  0  0  2  0  0  0  0  0  0
  160.0830  210.1770  157.2550 C   0  0  0  0  0  2  0  0  0  0  0  0
  158.1560  211.4330  156.3720 C   0  0  0  0  0  1  0  0  0  0  0  0
  161.9160  207.7660  155.8660 C   0  0  0  0  0  2  0  0  0  0  0  0
  160.3880  212.0660  155.5940 C   0  0  0  0  0  1  0  0  0  0  0  0
  160.4090  207.9060  153.7010 C   0  0  2  0  0  3  0  0  0  0  0  0
  159.5180  210.8850  156.0030 C   0  0  0  0  0  0  0  0  0  0  0  0
  160.5970  209.2030  154.4570 C   0  0  1  0  0  3  0  0  0  0  0  0
  159.3170  209.9320  154.8120 C   0  0  0  0  0  2  0  0  0  0  0  0
  161.8860  208.3950  157.2610 C   0  0  0  0  0  2  0  0  0  0  0  0
  161.5930  209.8970  157.2140 C   0  0  0  0  0  2  0  0  0  0  0  0
  160.5450  207.9020  155.2250 C   0  0  2  0  0  3  0  0  0  0  0  0
  1 16  2  0  0  0  0
  2  3  1  0  0  0  0
  2 14  1  0  0  0  0
  3 15  1  0  0  0  0
  4 10  1  6  0  0  0
  4  7  1  0  0  0  0
  5 17  1  0  0  0  0
  6  1  1  0  0  0  0
  6  9  1  0  0  0  0
  7 13  1  6  0  0  0
  7  8  1  0  0  0  0
  8 19  1  1  0  0  0
 11  9  2  0  0  0  0
 11  8  1  0  0  0  0
 12  5  1  6  0  0  0
 12 10  1  0  0  0  0
 12  4  1  0  0  0  0
 13  8  1  0  0  0  0
 14  6  2  0  0  0  0
 15  1  1  0  0  0  0
 17 11  1  0  0  0  0
 18 14  1  0  0  0  0
 18 17  2  0  0  0  0
 22 28  1  0  0  0  0
 23 25  1  0  0  0  0
 24 19  1  6  0  0  0
 24 26  1  0  0  0  0
 24 30  1  0  0  0  0
 25 21  1  0  0  0  0
 25 20  1  0  0  0  0
 26 27  1  1  0  0  0
 26 30  1  0  0  0  0
 27 25  1  0  0  0  0
 29 20  1  0  0  0  0
 29 28  1  0  0  0  0
 30 22  1  6  0  0  0
M  END
>  <MODEL>
1

>  <REMARK>
 VINA RESULT:      -8.7      0.000      0.000
  Name = 
  2 active torsions:
  status: ('A' for Active; 'I' for Inactive)
    1  A    between atoms: C_1  and  C_12
    2  A    between atoms: C_1  and  C_14
                            x       y       z     vdW  Elec       q    Type
                         _______ _______ _______ _____ _____    ______ ____

>  <TORSDO>
F 2

$$$$
=
 OpenBabel11072411023D

 30 36  0  0  1  0  0  0  0  0999 V2000
  160.6690  207.3890  154.8390 C   0  0  0  0  0  0  0  0  0  0  0  0
  161.4600  210.1410  155.3430 C   0  0  0  0  0  2  0  0  0  0  0  0
  161.7220  209.0430  156.3740 C   0  0  0  0  0  2  0  0  0  0  0  0
  161.4620  210.0260  148.7440 C   0  0  2  0  0  3  0  0  0  0  0  0
  162.1060  211.0490  150.5970 C   0  0  0  0  0  2  0  0  0  0  0  0
  161.0200  208.2720  153.7080 C   0  0  0  0  0  0  0  0  0  0  0  0
  161.5330  208.5240  148.5680 C   0  0  2  0  0  3  0  0  0  0  0  0
  161.2340  207.9200  149.9130 C   0  0  2  0  0  0  0  0  0  0  0  0
  160.9720  207.8120  152.3960 C   0  0  0  0  0  3  0  0  0  0  0  0
  162.3880  210.8550  148.0990 O   0  0  0  0  0  0  0  0  0  0  0  0
  161.3140  208.6220  151.3030 C   0  0  0  0  0  0  0  0  0  0  0  0
  162.7270  210.4170  149.3960 C   0  0  2  0  0  3  0  0  0  0  0  0
  162.5150  207.8460  149.3340 O   0  0  0  0  0  0  0  0  0  0  0  0
  161.4400  209.5840  153.9480 C   0  0  0  0  0  0  0  0  0  0  0  0
  160.6900  207.9260  156.2400 C   0  0  0  0  0  2  0  0  0  0  0  0
  160.3120  206.1980  154.6390 O   0  0  0  0  0  0  0  0  0  0  0  0
  161.7390  209.9760  151.6070 C   0  0  0  0  0  0  0  0  0  0  0  0
  161.7650  210.3870  152.9060 N   0  0  0  0  0  0  0  0  0  0  0  0
  160.4900  206.5870  149.7980 C   0  0  0  0  0  2  0  0  0  0  0  0
  161.3390  201.4050  150.3290 C   0  0  0  0  0  2  0  0  0  0  0  0
  161.5470  200.6810  147.9830 C   0  0  0  0  0  1  0  0  0  0  0  0
  161.1710  204.4620  151.6450 C   0  0  0  0  0  2  0  0  0  0  0  0
  159.3470  201.4160  148.7640 C   0  0  0  0  0  1  0  0  0  0  0  0
  161.3750  205.4870  149.2180 C   0  0  2  0  0  3  0  0  0  0  0  0
  160.8440  201.6690  148.8900 C   0  0  0  0  0  0  0  0  0  0  0  0
  160.6670  204.1540  149.3120 C   0  0  1  0  0  3  0  0  0  0  0  0
  161.1910  203.0790  148.3810 C   0  0  0  0  0  2  0  0  0  0  0  0
  161.2600  203.0590  152.2480 C   0  0  0  0  0  2  0  0  0  0  0  0
  160.4740  202.0260  151.4360 C   0  0  0  0  0  2  0  0  0  0  0  0
  161.8030  204.4530  150.2620 C   0  0  2  0  0  3  0  0  0  0  0  0
  1 15  1  0  0  0  0
  2  3  1  0  0  0  0
  4 10  1  6  0  0  0
  4 12  1  0  0  0  0
  5 17  1  0  0  0  0
  6 14  1  0  0  0  0
  6  1  1  0  0  0  0
  7  4  1  0  0  0  0
  7 13  1  1  0  0  0
  7  8  1  0  0  0  0
  8 19  1  6  0  0  0
  8 11  1  0  0  0  0
  9  6  2  0  0  0  0
 10 12  1  0  0  0  0
 11 17  2  0  0  0  0
 11  9  1  0  0  0  0
 12  5  1  1  0  0  0
 13  8  1  0  0  0  0
 14  2  1  0  0  0  0
 15  3  1  0  0  0  0
 16  1  2  0  0  0  0
 17 18  1  0  0  0  0
 18 14  2  0  0  0  0
 20 29  1  0  0  0  0
 21 25  1  0  0  0  0
 22 28  1  0  0  0  0
 23 25  1  0  0  0  0
 24 26  1  0  0  0  0
 24 19  1  1  0  0  0
 24 30  1  0  0  0  0
 25 20  1  0  0  0  0
 26 27  1  6  0  0  0
 26 30  1  0  0  0  0
 27 25  1  0  0  0  0
 29 28  1  0  0  0  0
 30 22  1  1  0  0  0
M  END
>  <MODEL>
2

>  <REMARK>
 VINA RESULT:      -8.4      2.023      7.219
  Name = 
  2 active torsions:
  status: ('A' for Active; 'I' for Inactive)
    1  A    between atoms: C_1  and  C_12
    2  A    between atoms: C_1  and  C_14
                            x       y       z     vdW  Elec       q    Type
                         _______ _______ _______ _____ _____    ______ ____

>  <TORSDO>
F 2

$$$$
=
 OpenBabel11072411023D

 30 36  0  0  1  0  0  0  0  0999 V2000
  161.8530  205.6750  147.2470 C   0  0  0  0  0  0  0  0  0  0  0  0
  160.7910  203.9460  149.3290 C   0  0  0  0  0  2  0  0  0  0  0  0
  161.6900  203.3910  148.2240 C   0  0  0  0  0  2  0  0  0  0  0  0
  160.7580  209.7820  152.4120 C   0  0  2  0  0  3  0  0  0  0  0  0
  160.6660  207.5780  152.5790 C   0  0  0  0  0  2  0  0  0  0  0  0
  161.5690  206.2280  148.5870 C   0  0  0  0  0  0  0  0  0  0  0  0
  161.7350  210.4960  151.5020 C   0  0  2  0  0  3  0  0  0  0  0  0
  161.8920  209.6340  150.2800 C   0  0  2  0  0  0  0  0  0  0  0  0
  161.7930  207.5710  148.8730 C   0  0  0  0  0  3  0  0  0  0  0  0
  160.9670  209.7650  153.7960 O   0  0  0  0  0  0  0  0  0  0  0  0
  161.5460  208.1200  150.1400 C   0  0  0  0  0  0  0  0  0  0  0  0
  161.5250  208.7000  153.0590 C   0  0  2  0  0  3  0  0  0  0  0  0
  162.9380  209.8070  151.2060 O   0  0  0  0  0  0  0  0  0  0  0  0
  161.0960  205.3910  149.6040 C   0  0  0  0  0  0  0  0  0  0  0  0
  161.5610  204.2330  146.9570 C   0  0  0  0  0  2  0  0  0  0  0  0
  162.3010  206.4130  146.3300 O   0  0  0  0  0  0  0  0  0  0  0  0
  161.0530  207.2090  151.1570 C   0  0  0  0  0  0  0  0  0  0  0  0
  160.8420  205.9040  150.8320 N   0  0  0  0  0  0  0  0  0  0  0  0
  162.1250  210.4610  149.0120 C   0  0  0  0  0  2  0  0  0  0  0  0
  160.7290  214.2540  145.6200 C   0  0  0  0  0  2  0  0  0  0  0  0
  158.2760  214.2760  145.8620 C   0  0  0  0  0  1  0  0  0  0  0  0
  163.0650  212.6640  147.3850 C   0  0  0  0  0  2  0  0  0  0  0  0
  159.3050  212.3230  144.8060 C   0  0  0  0  0  1  0  0  0  0  0  0
  161.1720  211.6500  148.9230 C   0  0  2  0  0  3  0  0  0  0  0  0
  159.4900  213.3720  145.8940 C   0  0  0  0  0  0  0  0  0  0  0  0
  160.7880  211.8940  147.4800 C   0  0  1  0  0  3  0  0  0  0  0  0
  159.5220  212.7040  147.2800 C   0  0  0  0  0  2  0  0  0  0  0  0
  163.1180  213.6910  146.2510 C   0  0  0  0  0  2  0  0  0  0  0  0
  161.9990  213.4840  145.2270 C   0  0  0  0  0  2  0  0  0  0  0  0
  161.7640  212.8320  148.1520 C   0  0  2  0  0  3  0  0  0  0  0  0
  1  6  1  0  0  0  0
  2 14  1  0  0  0  0
  3  2  1  0  0  0  0
  4 12  1  0  0  0  0
  4 10  1  1  0  0  0
  6  9  2  0  0  0  0
  6 14  1  0  0  0  0
  7 13  1  1  0  0  0
  7  4  1  0  0  0  0
  8 19  1  6  0  0  0
  8 13  1  0  0  0  0
  8  7  1  0  0  0  0
  9 11  1  0  0  0  0
 11  8  1  0  0  0  0
 11 17  2  0  0  0  0
 12  5  1  1  0  0  0
 12 10  1  0  0  0  0
 14 18  2  0  0  0  0
 15  1  1  0  0  0  0
 15  3  1  0  0  0  0
 16  1  2  0  0  0  0
 17  5  1  0  0  0  0
 18 17  1  0  0  0  0
 20 25  1  0  0  0  0
 21 25  1  0  0  0  0
 23 25  1  0  0  0  0
 24 19  1  6  0  0  0
 25 27  1  0  0  0  0
 26 27  1  1  0  0  0
 26 30  1  0  0  0  0
 26 24  1  0  0  0  0
 28 22  1  0  0  0  0
 29 20  1  0  0  0  0
 29 28  1  0  0  0  0
 30 22  1  6  0  0  0
 30 24  1  0  0  0  0
M  END
>  <MODEL>
3

>  <REMARK>
 VINA RESULT:      -7.9      3.439      6.806
  Name = 
  2 active torsions:
  status: ('A' for Active; 'I' for Inactive)
    1  A    between atoms: C_1  and  C_12
    2  A    between atoms: C_1  and  C_14
                            x       y       z     vdW  Elec       q    Type
                         _______ _______ _______ _____ _____    ______ ____

>  <TORSDO>
F 2

$$$$
=
 OpenBabel11072411023D

 30 36  0  0  1  0  0  0  0  0999 V2000
  160.8990  206.4300  146.3090 C   0  0  0  0  0  0  0  0  0  0  0  0
  161.0210  203.9560  144.7870 C   0  0  0  0  0  2  0  0  0  0  0  0
  161.6300  205.2480  144.2430 C   0  0  0  0  0  2  0  0  0  0  0  0
  160.5190  201.6170  150.9390 C   0  0  2  0  0  3  0  0  0  0  0  0
  161.0370  201.2230  148.8240 C   0  0  0  0  0  2  0  0  0  0  0  0
  160.9280  205.1330  147.0160 C   0  0  0  0  0  0  0  0  0  0  0  0
  160.9470  202.8740  151.6680 C   0  0  2  0  0  3  0  0  0  0  0  0
  160.9150  203.9880  150.6580 C   0  0  2  0  0  0  0  0  0  0  0  0
  160.8900  205.0710  148.4060 C   0  0  0  0  0  3  0  0  0  0  0  0
  161.1560  200.3990  151.2040 O   0  0  0  0  0  0  0  0  0  0  0  0
  160.9310  203.8550  149.1040 C   0  0  0  0  0  0  0  0  0  0  0  0
  161.6970  201.1810  150.1630 C   0  0  2  0  0  3  0  0  0  0  0  0
  162.1240  203.5070  151.1960 O   0  0  0  0  0  0  0  0  0  0  0  0
  161.0280  203.9420  146.2900 C   0  0  0  0  0  0  0  0  0  0  0  0
  160.8990  206.4630  144.8100 C   0  0  0  0  0  2  0  0  0  0  0  0
  160.8330  207.5110  146.9520 O   0  0  0  0  0  0  0  0  0  0  0  0
  161.0300  202.6490  148.3020 C   0  0  0  0  0  0  0  0  0  0  0  0
  161.0590  202.7560  146.9450 N   0  0  0  0  0  0  0  0  0  0  0  0
  160.5190  205.3280  151.2830 C   0  0  0  0  0  2  0  0  0  0  0  0
  161.4370  209.4390  154.4620 C   0  0  0  0  0  2  0  0  0  0  0  0
  161.9290  208.3240  156.6050 C   0  0  0  0  0  1  0  0  0  0  0  0
  161.0400  208.1740  151.4050 C   0  0  0  0  0  2  0  0  0  0  0  0
  159.6360  208.2130  155.7560 C   0  0  0  0  0  1  0  0  0  0  0  0
  161.4920  205.7590  152.3760 C   0  0  2  0  0  3  0  0  0  0  0  0
  161.1020  208.2130  155.3410 C   0  0  0  0  0  0  0  0  0  0  0  0
  160.8130  206.7300  153.3160 C   0  0  1  0  0  3  0  0  0  0  0  0
  161.4680  206.8750  154.6750 C   0  0  0  0  0  2  0  0  0  0  0  0
  161.0960  209.6010  151.9560 C   0  0  0  0  0  2  0  0  0  0  0  0
  160.4350  209.7190  153.3320 C   0  0  0  0  0  2  0  0  0  0  0  0
  161.8250  207.2520  152.3230 C   0  0  2  0  0  3  0  0  0  0  0  0
  1 16  2  0  0  0  0
  1  6  1  0  0  0  0
  2 14  1  0  0  0  0
  3  2  1  0  0  0  0
  3 15  1  0  0  0  0
  4 10  1  1  0  0  0
  4  7  1  0  0  0  0
  6  9  1  0  0  0  0
  7 13  1  6  0  0  0
  8 13  1  0  0  0  0
  8 19  1  1  0  0  0
  8  7  1  0  0  0  0
  9 11  2  0  0  0  0
 11  8  1  0  0  0  0
 12  5  1  6  0  0  0
 12  4  1  0  0  0  0
 12 10  1  0  0  0  0
 14 18  1  0  0  0  0
 14  6  2  0  0  0  0
 15  1  1  0  0  0  0
 17  5  1  0  0  0  0
 17 11  1  0  0  0  0
 18 17  2  0  0  0  0
 20 25  1  0  0  0  0
 22 28  1  0  0  0  0
 24 19  1  6  0  0  0
 24 26  1  0  0  0  0
 25 23  1  0  0  0  0
 25 21  1  0  0  0  0
 26 27  1  1  0  0  0
 27 25  1  0  0  0  0
 28 29  1  0  0  0  0
 29 20  1  0  0  0  0
 30 22  1  6  0  0  0
 30 24  1  0  0  0  0
 30 26  1  0  0  0  0
M  END
>  <MODEL>
4

>  <REMARK>
 VINA RESULT:      -7.5      2.021      5.111
  Name = 
  2 active torsions:
  status: ('A' for Active; 'I' for Inactive)
    1  A    between atoms: C_1  and  C_12
    2  A    between atoms: C_1  and  C_14
                            x       y       z     vdW  Elec       q    Type
                         _______ _______ _______ _____ _____    ______ ____

>  <TORSDO>
F 2

$$$$
=
 OpenBabel11072411023D

 30 36  0  0  1  0  0  0  0  0999 V2000
  161.9110  209.7760  148.9970 C   0  0  0  0  0  0  0  0  0  0  0  0
  161.5940  212.2880  150.4260 C   0  0  0  0  0  2  0  0  0  0  0  0
  161.1590  212.1490  148.9670 C   0  0  0  0  0  2  0  0  0  0  0  0
  161.5280  207.9830  155.4300 C   0  0  2  0  0  3  0  0  0  0  0  0
  161.0760  210.0280  154.7150 C   0  0  0  0  0  2  0  0  0  0  0  0
  161.7040  209.7680  150.4590 C   0  0  0  0  0  0  0  0  0  0  0  0
  161.2060  206.7430  154.6240 C   0  0  2  0  0  3  0  0  0  0  0  0
  161.4100  207.1040  153.1780 C   0  0  2  0  0  0  0  0  0  0  0  0
  161.6660  208.5740  151.1740 C   0  0  0  0  0  3  0  0  0  0  0  0
  160.7490  208.3220  156.5420 O   0  0  0  0  0  0  0  0  0  0  0  0
  161.4570  208.5360  152.5600 C   0  0  0  0  0  0  0  0  0  0  0  0
  160.3500  208.8640  155.3030 C   0  0  2  0  0  3  0  0  0  0  0  0
  160.1310  206.8490  153.7070 O   0  0  0  0  0  0  0  0  0  0  0  0
  161.5110  210.9710  151.1460 C   0  0  0  0  0  0  0  0  0  0  0  0
  161.9900  211.0800  148.2610 C   0  0  0  0  0  2  0  0  0  0  0  0
  162.0640  208.6980  148.3640 O   0  0  0  0  0  0  0  0  0  0  0  0
  161.2660  209.8120  153.2230 C   0  0  0  0  0  0  0  0  0  0  0  0
  161.3170  210.9560  152.4870 N   0  0  0  0  0  0  0  0  0  0  0  0
  161.9200  205.9220  152.3500 C   0  0  0  0  0  2  0  0  0  0  0  0
  160.4940  202.9080  148.2590 C   0  0  0  0  0  2  0  0  0  0  0  0
  159.6960  200.8670  149.3860 C   0  0  0  0  0  1  0  0  0  0  0  0
  161.3580  205.8730  149.5090 C   0  0  0  0  0  2  0  0  0  0  0  0
  162.0910  201.3610  149.4730 C   0  0  0  0  0  1  0  0  0  0  0  0
  160.7890  204.9870  151.9320 C   0  0  2  0  0  3  0  0  0  0  0  0
  160.7050  201.9910  149.4850 C   0  0  0  0  0  0  0  0  0  0  0  0
  161.3100  203.9530  150.9580 C   0  0  1  0  0  3  0  0  0  0  0  0
  160.4560  202.7080  150.8240 C   0  0  0  0  0  2  0  0  0  0  0  0
  161.2060  205.3340  148.0850 C   0  0  0  0  0  2  0  0  0  0  0  0
  161.6520  203.8740  147.9660 C   0  0  0  0  0  2  0  0  0  0  0  0
  160.4530  205.0860  150.4420 C   0  0  2  0  0  3  0  0  0  0  0  0
  1  6  1  0  0  0  0
  2 14  1  0  0  0  0
  3  2  1  0  0  0  0
  4 10  1  1  0  0  0
  6 14  2  0  0  0  0
  6  9  1  0  0  0  0
  7 13  1  6  0  0  0
  7  4  1  0  0  0  0
  8 19  1  6  0  0  0
  8 13  1  0  0  0  0
  8  7  1  0  0  0  0
  9 11  2  0  0  0  0
 11  8  1  0  0  0  0
 11 17  1  0  0  0  0
 12  5  1  1  0  0  0
 12  4  1  0  0  0  0
 12 10  1  0  0  0  0
 14 18  1  0  0  0  0
 15  3  1  0  0  0  0
 15  1  1  0  0  0  0
 16  1  2  0  0  0  0
 17  5  1  0  0  0  0
 18 17  2  0  0  0  0
 20 25  1  0  0  0  0
 21 25  1  0  0  0  0
 23 25  1  0  0  0  0
 24 19  1  6  0  0  0
 25 27  1  0  0  0  0
 26 27  1  1  0  0  0
 26 24  1  0  0  0  0
 28 22  1  0  0  0  0
 29 28  1  0  0  0  0
 29 20  1  0  0  0  0
 30 22  1  6  0  0  0
 30 26  1  0  0  0  0
 30 24  1  0  0  0  0
M  END
>  <MODEL>
5

>  <REMARK>
 VINA RESULT:      -7.0      2.192      7.743
  Name = 
  2 active torsions:
  status: ('A' for Active; 'I' for Inactive)
    1  A    between atoms: C_1  and  C_12
    2  A    between atoms: C_1  and  C_14
                            x       y       z     vdW  Elec       q    Type
                         _______ _______ _______ _____ _____    ______ ____

>  <TORSDO>
F 2

$$$$
=
 OpenBabel11072411023D

 30 36  0  0  1  0  0  0  0  0999 V2000
  161.2640  209.5230  153.6060 C   0  0  0  0  0  0  0  0  0  0  0  0
  160.8380  206.7510  154.3720 C   0  0  0  0  0  2  0  0  0  0  0  0
  160.1800  207.8930  155.1450 C   0  0  0  0  0  2  0  0  0  0  0  0
  162.2760  206.0740  147.9650 C   0  0  2  0  0  3  0  0  0  0  0  0
  161.4130  205.1750  149.7940 C   0  0  0  0  0  2  0  0  0  0  0  0
  161.3190  208.4610  152.5810 C   0  0  0  0  0  0  0  0  0  0  0  0
  162.0020  207.5030  147.5450 C   0  0  2  0  0  3  0  0  0  0  0  0
  161.8950  208.3090  148.8100 C   0  0  2  0  0  0  0  0  0  0  0  0
  161.5810  208.7610  151.2480 C   0  0  0  0  0  3  0  0  0  0  0  0
  161.6630  205.0120  147.2900 O   0  0  0  0  0  0  0  0  0  0  0  0
  161.6240  207.7760  150.2510 C   0  0  0  0  0  0  0  0  0  0  0  0
  160.9780  205.5280  148.4100 C   0  0  2  0  0  3  0  0  0  0  0  0
  160.7790  208.0660  147.9880 O   0  0  0  0  0  0  0  0  0  0  0  0
  161.0750  207.1300  152.9370 C   0  0  0  0  0  0  0  0  0  0  0  0
  161.0210  209.1630  155.0420 C   0  0  0  0  0  2  0  0  0  0  0  0
  161.4580  210.7280  153.2950 O   0  0  0  0  0  0  0  0  0  0  0  0
  161.3690  206.4120  150.6750 C   0  0  0  0  0  0  0  0  0  0  0  0
  161.1230  206.1620  151.9910 N   0  0  0  0  0  0  0  0  0  0  0  0
  162.4200  209.7370  148.6350 C   0  0  0  0  0  2  0  0  0  0  0  0
  161.0610  214.4080  146.5910 C   0  0  0  0  0  2  0  0  0  0  0  0
  158.6490  214.1060  146.1900 C   0  0  0  0  0  1  0  0  0  0  0  0
  163.2470  212.4790  148.2030 C   0  0  0  0  0  2  0  0  0  0  0  0
  160.2090  212.8270  144.8050 C   0  0  0  0  0  1  0  0  0  0  0  0
  161.3030  210.7720  148.7380 C   0  0  2  0  0  3  0  0  0  0  0  0
  159.9760  213.3790  146.2050 C   0  0  0  0  0  0  0  0  0  0  0  0
  161.1770  211.5240  147.4310 C   0  0  1  0  0  3  0  0  0  0  0  0
  159.8510  212.2270  147.2180 C   0  0  0  0  0  2  0  0  0  0  0  0
  163.3370  213.8670  147.5670 C   0  0  0  0  0  2  0  0  0  0  0  0
  162.5030  213.9750  146.2870 C   0  0  0  0  0  2  0  0  0  0  0  0
  161.8100  212.2110  148.6200 C   0  0  2  0  0  3  0  0  0  0  0  0
  1 15  1  0  0  0  0
  2  3  1  0  0  0  0
  4 10  1  6  0  0  0
  4 12  1  0  0  0  0
  5 17  1  0  0  0  0
  6 14  1  0  0  0  0
  6  1  1  0  0  0  0
  7  4  1  0  0  0  0
  7 13  1  1  0  0  0
  7  8  1  0  0  0  0
  8 19  1  6  0  0  0
  8 11  1  0  0  0  0
  9  6  2  0  0  0  0
 10 12  1  0  0  0  0
 11 17  2  0  0  0  0
 11  9  1  0  0  0  0
 12  5  1  1  0  0  0
 13  8  1  0  0  0  0
 14  2  1  0  0  0  0
 15  3  1  0  0  0  0
 16  1  2  0  0  0  0
 17 18  1  0  0  0  0
 18 14  2  0  0  0  0
 21 25  1  0  0  0  0
 23 25  1  0  0  0  0
 24 19  1  6  0  0  0
 25 20  1  0  0  0  0
 25 27  1  0  0  0  0
 26 27  1  1  0  0  0
 26 30  1  0  0  0  0
 26 24  1  0  0  0  0
 28 22  1  0  0  0  0
 29 20  1  0  0  0  0
 29 28  1  0  0  0  0
 30 22  1  6  0  0  0
 30 24  1  0  0  0  0
M  END
>  <MODEL>
6

>  <REMARK>
 VINA RESULT:      -6.9      3.292      7.174
  Name = 
  2 active torsions:
  status: ('A' for Active; 'I' for Inactive)
    1  A    between atoms: C_1  and  C_12
    2  A    between atoms: C_1  and  C_14
                            x       y       z     vdW  Elec       q    Type
                         _______ _______ _______ _____ _____    ______ ____

>  <TORSDO>
F 2

$$$$
=
 OpenBabel11072411023D

 30 36  0  0  1  0  0  0  0  0999 V2000
  161.8830  209.9080  150.1490 C   0  0  0  0  0  0  0  0  0  0  0  0
  161.4210  207.0460  149.9260 C   0  0  0  0  0  2  0  0  0  0  0  0
  162.3910  207.7640  148.9880 C   0  0  0  0  0  2  0  0  0  0  0  0
  159.9250  208.0660  156.2730 C   0  0  2  0  0  3  0  0  0  0  0  0
  160.4460  206.6180  154.6830 C   0  0  0  0  0  2  0  0  0  0  0  0
  161.5150  209.1280  151.3470 C   0  0  0  0  0  0  0  0  0  0  0  0
  160.6320  209.3950  156.4360 C   0  0  2  0  0  3  0  0  0  0  0  0
  160.9680  209.8760  155.0510 C   0  0  2  0  0  0  0  0  0  0  0  0
  161.3760  209.7400  152.5890 C   0  0  0  0  0  3  0  0  0  0  0  0
  160.1890  207.0150  157.1600 O   0  0  0  0  0  0  0  0  0  0  0  0
  161.0420  209.0230  153.7470 C   0  0  0  0  0  0  0  0  0  0  0  0
  160.9850  207.0760  155.9980 C   0  0  2  0  0  3  0  0  0  0  0  0
  161.9640  209.4630  155.9550 O   0  0  0  0  0  0  0  0  0  0  0  0
  161.3320  207.7440  151.2540 C   0  0  0  0  0  0  0  0  0  0  0  0
  161.9840  209.2260  148.8160 C   0  0  0  0  0  2  0  0  0  0  0  0
  162.0740  211.1500  150.2240 O   0  0  0  0  0  0  0  0  0  0  0  0
  160.8590  207.5910  153.5930 C   0  0  0  0  0  0  0  0  0  0  0  0
  160.9980  207.0340  152.3580 N   0  0  0  0  0  0  0  0  0  0  0  0
  160.9120  211.4010  154.9360 C   0  0  0  0  0  2  0  0  0  0  0  0
  155.9630  213.2220  155.1300 C   0  0  0  0  0  2  0  0  0  0  0  0
  155.1580  212.2820  157.2610 C   0  0  0  0  0  1  0  0  0  0  0  0
  159.0200  213.2800  153.8060 C   0  0  0  0  0  2  0  0  0  0  0  0
  155.5790  210.7340  155.4120 C   0  0  0  0  0  1  0  0  0  0  0  0
  159.9360  212.0140  155.9360 C   0  0  2  0  0  3  0  0  0  0  0  0
  156.0700  212.0110  156.0830 C   0  0  0  0  0  0  0  0  0  0  0  0
  158.5150  211.6850  155.5350 C   0  0  1  0  0  3  0  0  0  0  0  0
  157.4890  211.8090  156.6430 C   0  0  0  0  0  2  0  0  0  0  0  0
  157.6820  213.8970  153.3930 C   0  0  0  0  0  2  0  0  0  0  0  0
  156.4980  212.9790  153.7100 C   0  0  0  0  0  2  0  0  0  0  0  0
  159.0380  213.0850  155.3130 C   0  0  2  0  0  3  0  0  0  0  0  0
  1 16  2  0  0  0  0
  1  6  1  0  0  0  0
  2 14  1  0  0  0  0
  3  2  1  0  0  0  0
  4  7  1  0  0  0  0
  4 10  1  1  0  0  0
  6  9  1  0  0  0  0
  7 13  1  1  0  0  0
  8 19  1  6  0  0  0
  8 13  1  0  0  0  0
  8  7  1  0  0  0  0
  9 11  2  0  0  0  0
 11  8  1  0  0  0  0
 12  5  1  6  0  0  0
 12  4  1  0  0  0  0
 12 10  1  0  0  0  0
 14  6  2  0  0  0  0
 14 18  1  0  0  0  0
 15  3  1  0  0  0  0
 15  1  1  0  0  0  0
 17 11  1  0  0  0  0
 17  5  1  0  0  0  0
 18 17  2  0  0  0  0
 20 25  1  0  0  0  0
 23 25  1  0  0  0  0
 24 19  1  6  0  0  0
 25 27  1  0  0  0  0
 25 21  1  0  0  0  0
 26 24  1  0  0  0  0
 26 27  1  1  0  0  0
 28 29  1  0  0  0  0
 28 22  1  0  0  0  0
 29 20  1  0  0  0  0
 30 22  1  6  0  0  0
 30 26  1  0  0  0  0
 30 24  1  0  0  0  0
M  END
>  <MODEL>
7

>  <REMARK>
 VINA RESULT:      -6.9      2.678      5.801
  Name = 
  2 active torsions:
  status: ('A' for Active; 'I' for Inactive)
    1  A    between atoms: C_1  and  C_12
    2  A    between atoms: C_1  and  C_14
                            x       y       z     vdW  Elec       q    Type
                         _______ _______ _______ _____ _____    ______ ____

>  <TORSDO>
F 2

$$$$
=
 OpenBabel11072411023D

 30 36  0  0  1  0  0  0  0  0999 V2000
  161.5230  205.1350  146.1540 C   0  0  0  0  0  0  0  0  0  0  0  0
  160.7930  202.6380  147.4510 C   0  0  0  0  0  2  0  0  0  0  0  0
  161.5740  202.6460  146.1370 C   0  0  0  0  0  2  0  0  0  0  0  0
  160.8920  206.7490  152.6140 C   0  0  2  0  0  3  0  0  0  0  0  0
  160.9120  204.6600  151.8860 C   0  0  0  0  0  2  0  0  0  0  0  0
  161.3810  205.0850  147.6230 C   0  0  0  0  0  0  0  0  0  0  0  0
  161.7230  207.8460  151.9820 C   0  0  2  0  0  3  0  0  0  0  0  0
  161.7660  207.5560  150.5070 C   0  0  2  0  0  0  0  0  0  0  0  0
  161.5820  206.2190  148.4040 C   0  0  0  0  0  3  0  0  0  0  0  0
  161.2670  206.2040  153.8470 O   0  0  0  0  0  0  0  0  0  0  0  0
  161.4680  206.1970  149.8020 C   0  0  0  0  0  0  0  0  0  0  0  0
  161.7760  205.5700  152.6950 C   0  0  2  0  0  3  0  0  0  0  0  0
  162.9080  207.4370  151.3210 O   0  0  0  0  0  0  0  0  0  0  0  0
  161.0690  203.8770  148.2550 C   0  0  0  0  0  0  0  0  0  0  0  0
  161.2580  203.9060  145.3350 C   0  0  0  0  0  2  0  0  0  0  0  0
  161.8270  206.2110  145.5740 O   0  0  0  0  0  0  0  0  0  0  0  0
  161.1390  204.9200  150.4060 C   0  0  0  0  0  0  0  0  0  0  0  0
  160.9440  203.8370  149.6040 N   0  0  0  0  0  0  0  0  0  0  0  0
  161.8090  208.8340  149.6640 C   0  0  0  0  0  2  0  0  0  0  0  0
  160.8350  214.0130  149.3830 C   0  0  0  0  0  2  0  0  0  0  0  0
  159.7880  214.4530  151.5700 C   0  0  0  0  0  1  0  0  0  0  0  0
  162.3510  211.2840  148.2180 C   0  0  0  0  0  2  0  0  0  0  0  0
  158.5350  213.1130  149.9490 C   0  0  0  0  0  1  0  0  0  0  0  0
  161.9110  210.0860  150.5310 C   0  0  2  0  0  3  0  0  0  0  0  0
  159.9310  213.4100  150.4810 C   0  0  0  0  0  0  0  0  0  0  0  0
  160.8670  211.0940  150.1020 C   0  0  1  0  0  3  0  0  0  0  0  0
  160.5330  212.1530  151.1330 C   0  0  0  0  0  2  0  0  0  0  0  0
  162.1560  212.6980  147.6650 C   0  0  0  0  0  2  0  0  0  0  0  0
  160.7890  213.2810  148.0330 C   0  0  0  0  0  2  0  0  0  0  0  0
  162.3140  211.3300  149.7360 C   0  0  2  0  0  3  0  0  0  0  0  0
  1  6  1  0  0  0  0
  2 14  1  0  0  0  0
  3  2  1  0  0  0  0
  4 12  1  0  0  0  0
  4 10  1  1  0  0  0
  6 14  2  0  0  0  0
  6  9  1  0  0  0  0
  7 13  1  1  0  0  0
  7  4  1  0  0  0  0
  8 19  1  6  0  0  0
  8 13  1  0  0  0  0
  8  7  1  0  0  0  0
  9 11  2  0  0  0  0
 11 17  1  0  0  0  0
 11  8  1  0  0  0  0
 12  5  1  6  0  0  0
 12 10  1  0  0  0  0
 14 18  1  0  0  0  0
 15  3  1  0  0  0  0
 15  1  1  0  0  0  0
 16  1  2  0  0  0  0
 17  5  1  0  0  0  0
 18 17  2  0  0  0  0
 20 25  1  0  0  0  0
 23 25  1  0  0  0  0
 24 19  1  6  0  0  0
 25 27  1  0  0  0  0
 25 21  1  0  0  0  0
 26 24  1  0  0  0  0
 26 27  1  1  0  0  0
 28 29  1  0  0  0  0
 28 22  1  0  0  0  0
 29 20  1  0  0  0  0
 30 22  1  6  0  0  0
 30 26  1  0  0  0  0
 30 24  1  0  0  0  0
M  END
>  <MODEL>
8

>  <REMARK>
 VINA RESULT:      -6.8      3.093      5.355
  Name = 
  2 active torsions:
  status: ('A' for Active; 'I' for Inactive)
    1  A    between atoms: C_1  and  C_12
    2  A    between atoms: C_1  and  C_14
                            x       y       z     vdW  Elec       q    Type
                         _______ _______ _______ _____ _____    ______ ____

>  <TORSDO>
F 2

$$$$
=
 OpenBabel11072411023D

 30 36  0  0  1  0  0  0  0  0999 V2000
  162.0640  210.3110  150.6320 C   0  0  0  0  0  0  0  0  0  0  0  0
  161.6010  209.8290  147.8030 C   0  0  0  0  0  2  0  0  0  0  0  0
  162.5150  210.9610  148.2710 C   0  0  0  0  0  2  0  0  0  0  0  0
  160.4480  203.8290  150.3010 C   0  0  2  0  0  3  0  0  0  0  0  0
  160.8870  205.0590  148.5150 C   0  0  0  0  0  2  0  0  0  0  0  0
  161.7640  208.9450  150.1590 C   0  0  0  0  0  0  0  0  0  0  0  0
  161.1590  204.0220  151.6240 C   0  0  2  0  0  3  0  0  0  0  0  0
  161.4160  205.4980  151.7630 C   0  0  2  0  0  0  0  0  0  0  0  0
  161.6910  207.8770  151.0480 C   0  0  0  0  0  3  0  0  0  0  0  0
  160.7630  202.7360  149.4860 O   0  0  0  0  0  0  0  0  0  0  0  0
  161.4230  206.5660  150.6260 C   0  0  0  0  0  0  0  0  0  0  0  0
  161.4950  203.9210  149.2640 C   0  0  2  0  0  3  0  0  0  0  0  0
  162.4620  204.5770  151.5650 O   0  0  0  0  0  0  0  0  0  0  0  0
  161.5810  208.7000  148.7940 C   0  0  0  0  0  0  0  0  0  0  0  0
  162.0950  211.4500  149.6550 C   0  0  0  0  0  2  0  0  0  0  0  0
  162.2540  210.5410  151.8560 O   0  0  0  0  0  0  0  0  0  0  0  0
  161.2360  206.3690  149.2010 C   0  0  0  0  0  0  0  0  0  0  0  0
  161.3110  207.4430  148.3670 N   0  0  0  0  0  0  0  0  0  0  0  0
  161.3490  205.9660  153.2190 C   0  0  0  0  0  2  0  0  0  0  0  0
  160.4540  209.8180  156.7120 C   0  0  0  0  0  2  0  0  0  0  0  0
  160.3540  211.8070  155.2620 C   0  0  0  0  0  1  0  0  0  0  0  0
  160.5730  206.5790  155.9410 C   0  0  0  0  0  2  0  0  0  0  0  0
  162.5180  210.6970  155.5350 C   0  0  0  0  0  1  0  0  0  0  0  0
  160.4880  207.2150  153.3780 C   0  0  2  0  0  3  0  0  0  0  0  0
  161.0180  210.4560  155.4240 C   0  0  0  0  0  0  0  0  0  0  0  0
  161.1860  208.2090  154.2800 C   0  0  1  0  0  3  0  0  0  0  0  0
  160.7010  209.6400  154.1580 C   0  0  0  0  0  2  0  0  0  0  0  0
  160.4500  207.3440  157.2610 C   0  0  0  0  0  2  0  0  0  0  0  0
  161.2690  208.6370  157.2610 C   0  0  0  0  0  2  0  0  0  0  0  0
  160.0070  207.4290  154.8150 C   0  0  2  0  0  3  0  0  0  0  0  0
  1 16  2  0  0  0  0
  2  3  1  0  0  0  0
  2 14  1  0  0  0  0
  3 15  1  0  0  0  0
  4 10  1  1  0  0  0
  4  7  1  0  0  0  0
  5 17  1  0  0  0  0
  6  1  1  0  0  0  0
  6  9  1  0  0  0  0
  7 13  1  6  0  0  0
  7  8  1  0  0  0  0
  8 19  1  1  0  0  0
 11  9  2  0  0  0  0
 11  8  1  0  0  0  0
 12  5  1  6  0  0  0
 12 10  1  0  0  0  0
 12  4  1  0  0  0  0
 13  8  1  0  0  0  0
 14  6  2  0  0  0  0
 15  1  1  0  0  0  0
 17 11  1  0  0  0  0
 18 14  1  0  0  0  0
 18 17  2  0  0  0  0
 20 29  1  0  0  0  0
 21 25  1  0  0  0  0
 22 28  1  0  0  0  0
 24 19  1  1  0  0  0
 24 26  1  0  0  0  0
 24 30  1  0  0  0  0
 25 23  1  0  0  0  0
 25 20  1  0  0  0  0
 26 27  1  6  0  0  0
 26 30  1  0  0  0  0
 27 25  1  0  0  0  0
 28 29  1  0  0  0  0
 30 22  1  1  0  0  0
M  END
>  <MODEL>
9

>  <REMARK>
 VINA RESULT:      -6.8      1.507      4.554
  Name = 
  2 active torsions:
  status: ('A' for Active; 'I' for Inactive)
    1  A    between atoms: C_1  and  C_12
    2  A    between atoms: C_1  and  C_14
                            x       y       z     vdW  Elec       q    Type
                         _______ _______ _______ _____ _____    ______ ____

>  <TORSDO>
F 2

$$$$
