=
 OpenBabel11072414403D

 26 28  0  0  1  0  0  0  0  0999 V2000
  161.4110  205.8300  152.3170 C   0  0  0  0  0  0  0  0  0  0  0  0
  161.6180  207.8450  149.2570 N   0  0  0  0  0  1  0  0  0  0  0  0
  161.4340  206.7200  150.1120 C   0  0  0  0  0  0  0  0  0  0  0  0
  160.9280  204.3840  150.4530 C   0  0  0  0  0  3  0  0  0  0  0  0
  161.0800  204.5650  151.8270 C   0  0  0  0  0  3  0  0  0  0  0  0
  161.5760  206.8710  151.4560 N   0  0  0  0  0  0  0  0  0  0  0  0
  161.1060  205.4610  149.5810 C   0  0  0  0  0  0  0  0  0  0  0  0
  161.5350  206.0490  153.7860 C   0  0  0  0  0  2  0  0  0  0  0  0
  160.6620  207.2110  154.2400 C   0  0  0  0  0  2  0  0  0  0  0  0
  161.4900  208.3190  154.7050 N   0  0  0  0  0  0  0  0  0  0  0  0
  161.9670  210.8870  155.8680 C   0  0  0  0  0  2  0  0  0  0  0  0
  159.5480  210.1960  155.8070 C   0  0  2  0  0  3  0  0  0  0  0  0
  161.0680  209.5440  153.9860 C   0  0  0  0  0  2  0  0  0  0  0  0
  159.9250  208.9010  156.5540 C   0  0  0  0  0  2  0  0  0  0  0  0
  162.3060  209.5810  156.6210 C   0  0  0  0  0  2  0  0  0  0  0  0
  161.3570  208.4610  156.1720 C   0  0  2  0  0  3  0  0  0  0  0  0
  160.7360  210.6900  154.9580 C   0  0  2  0  0  3  0  0  0  0  0  0
  157.7140  211.5210  156.5750 O   0  0  0  0  0  1  0  0  0  0  0  0
  159.0660  211.2530  156.7890 C   0  0  0  0  0  2  0  0  0  0  0  0
  160.9150  205.2570  148.1110 C   0  0  0  0  0  2  0  0  0  0  0  0
  161.7950  204.1190  147.5980 C   0  0  2  0  0  3  0  0  0  0  0  0
  162.6930  204.6490  146.4890 C   0  0  0  0  0  1  0  0  0  0  0  0
  161.1410  201.7000  147.9230 C   0  0  0  0  0  1  0  0  0  0  0  0
  160.9350  202.9560  147.0860 C   0  0  2  0  0  3  0  0  0  0  0  0
  160.1640  201.9050  145.0570 O   0  0  0  0  0  1  0  0  0  0  0  0
  161.2140  202.6370  145.6180 C   0  0  0  0  0  2  0  0  0  0  0  0
  1  8  1  0  0  0  0
  2  3  1  0  0  0  0
  3  6  1  0  0  0  0
  4  5  2  0  0  0  0
  5  1  1  0  0  0  0
  6  1  2  0  0  0  0
  7  3  2  0  0  0  0
  7  4  1  0  0  0  0
  8  9  1  0  0  0  0
  9 10  1  0  0  0  0
 10 16  1  0  0  0  0
 11 15  1  0  0  0  0
 12 14  1  0  0  0  0
 12 19  1  1  0  0  0
 13 10  1  0  0  0  0
 16 14  1  6  0  0  0
 16 15  1  0  0  0  0
 17 13  1  6  0  0  0
 17 12  1  0  0  0  0
 17 11  1  0  0  0  0
 18 19  1  0  0  0  0
 20  7  1  0  0  0  0
 21 22  1  6  0  0  0
 21 20  1  0  0  0  0
 24 21  1  0  0  0  0
 24 23  1  1  0  0  0
 25 26  1  0  0  0  0
 26 24  1  0  0  0  0
M  END
>  <MODEL>
1

>  <REMARK>
 VINA RESULT:      -7.6      0.000      0.000
  Name = 
  8 active torsions:
  status: ('A' for Active; 'I' for Inactive)
    1  A    between atoms: N_1  and  C_17
    2  A    between atoms: C_2  and  C_3
    3  A    between atoms: C_3  and  C_17
    4  A    between atoms: C_5  and  C_22
    5  A    between atoms: C_5  and  C_25
    6  A    between atoms: C_10  and  C_26
    7  A    between atoms: C_16  and  C_22
    8  A    between atoms: C_24  and  C_25
                            x       y       z     vdW  Elec       q    Type
                         _______ _______ _______ _____ _____    ______ ____

>  <TORSDO>
F 8

$$$$
=
 OpenBabel11072414403D

 26 28  0  0  1  0  0  0  0  0999 V2000
  161.2420  206.2230  151.2830 C   0  0  0  0  0  0  0  0  0  0  0  0
  161.6680  208.0680  148.1400 N   0  0  0  0  0  1  0  0  0  0  0  0
  161.4310  206.9890  149.0390 C   0  0  0  0  0  0  0  0  0  0  0  0
  160.9280  204.6670  149.4710 C   0  0  0  0  0  3  0  0  0  0  0  0
  160.9670  204.9270  150.8400 C   0  0  0  0  0  3  0  0  0  0  0  0
  161.4630  207.2170  150.3800 N   0  0  0  0  0  0  0  0  0  0  0  0
  161.1620  205.6970  148.5570 C   0  0  0  0  0  0  0  0  0  0  0  0
  161.2450  206.5240  152.7420 C   0  0  0  0  0  2  0  0  0  0  0  0
  161.3650  208.0220  152.9890 C   0  0  0  0  0  2  0  0  0  0  0  0
  160.4720  208.4340  154.0680 N   0  0  0  0  0  0  0  0  0  0  0  0
  159.8390  209.5470  156.6240 C   0  0  0  0  0  2  0  0  0  0  0  0
  162.2830  209.6150  156.0260 C   0  0  2  0  0  3  0  0  0  0  0  0
  160.8840  207.7260  155.3020 C   0  0  0  0  0  2  0  0  0  0  0  0
  161.9180  210.3550  154.7230 C   0  0  0  0  0  2  0  0  0  0  0  0
  159.5120  210.2940  155.3110 C   0  0  0  0  0  2  0  0  0  0  0  0
  160.5250  209.9050  154.2250 C   0  0  2  0  0  3  0  0  0  0  0  0
  161.1220  208.7030  156.4670 C   0  0  2  0  0  3  0  0  0  0  0  0
  163.9050  211.1900  156.8000 O   0  0  0  0  0  1  0  0  0  0  0  0
  162.6730  210.6110  157.1080 C   0  0  0  0  0  2  0  0  0  0  0  0
  161.0920  205.4090  147.0900 C   0  0  0  0  0  2  0  0  0  0  0  0
  162.0190  204.2550  146.7140 C   0  0  2  0  0  3  0  0  0  0  0  0
  163.4220  204.8020  146.4850 C   0  0  0  0  0  1  0  0  0  0  0  0
  160.5460  204.4080  144.6670 C   0  0  0  0  0  1  0  0  0  0  0  0
  161.5100  203.5340  145.4590 C   0  0  2  0  0  3  0  0  0  0  0  0
  160.8780  201.9530  147.1670 O   0  0  0  0  0  1  0  0  0  0  0  0
  160.8320  202.2070  145.7930 C   0  0  0  0  0  2  0  0  0  0  0  0
  1  8  1  0  0  0  0
  2  3  1  0  0  0  0
  3  6  1  0  0  0  0
  4  5  2  0  0  0  0
  5  1  1  0  0  0  0
  6  1  2  0  0  0  0
  7  3  2  0  0  0  0
  7  4  1  0  0  0  0
  8  9  1  0  0  0  0
  9 10  1  0  0  0  0
 10 16  1  0  0  0  0
 10 13  1  0  0  0  0
 12 17  1  0  0  0  0
 12 19  1  1  0  0  0
 14 12  1  0  0  0  0
 15 11  1  0  0  0  0
 16 14  1  1  0  0  0
 16 15  1  0  0  0  0
 17 13  1  6  0  0  0
 17 11  1  0  0  0  0
 18 19  1  0  0  0  0
 20  7  1  0  0  0  0
 21 22  1  6  0  0  0
 21 20  1  0  0  0  0
 24 23  1  1  0  0  0
 24 26  1  0  0  0  0
 24 21  1  0  0  0  0
 26 25  1  0  0  0  0
M  END
>  <MODEL>
2

>  <REMARK>
 VINA RESULT:      -7.4      1.660      2.383
  Name = 
  8 active torsions:
  status: ('A' for Active; 'I' for Inactive)
    1  A    between atoms: N_1  and  C_17
    2  A    between atoms: C_2  and  C_3
    3  A    between atoms: C_3  and  C_17
    4  A    between atoms: C_5  and  C_22
    5  A    between atoms: C_5  and  C_25
    6  A    between atoms: C_10  and  C_26
    7  A    between atoms: C_16  and  C_22
    8  A    between atoms: C_24  and  C_25
                            x       y       z     vdW  Elec       q    Type
                         _______ _______ _______ _____ _____    ______ ____

>  <TORSDO>
F 8

$$$$
=
 OpenBabel11072414403D

 26 28  0  0  1  0  0  0  0  0999 V2000
  161.3290  205.5500  152.5620 C   0  0  0  0  0  0  0  0  0  0  0  0
  160.9270  202.3250  150.8570 N   0  0  0  0  0  1  0  0  0  0  0  0
  161.0340  203.7320  151.0570 C   0  0  0  0  0  0  0  0  0  0  0  0
  161.0670  205.9920  150.2090 C   0  0  0  0  0  3  0  0  0  0  0  0
  161.2570  206.4630  151.5070 C   0  0  0  0  0  3  0  0  0  0  0  0
  161.2200  204.2160  152.3150 N   0  0  0  0  0  0  0  0  0  0  0  0
  160.9520  204.6200  149.9720 C   0  0  0  0  0  0  0  0  0  0  0  0
  161.5740  206.0360  153.9490 C   0  0  0  0  0  2  0  0  0  0  0  0
  160.6190  207.1670  154.3070 C   0  0  0  0  0  2  0  0  0  0  0  0
  161.3630  208.3880  154.6020 N   0  0  0  0  0  0  0  0  0  0  0  0
  161.6710  211.0740  155.5310 C   0  0  0  0  0  2  0  0  0  0  0  0
  159.3500  210.1330  155.7890 C   0  0  2  0  0  3  0  0  0  0  0  0
  160.7340  209.5020  153.8550 C   0  0  0  0  0  2  0  0  0  0  0  0
  159.9460  208.9460  156.5740 C   0  0  0  0  0  2  0  0  0  0  0  0
  162.2300  209.8720  156.3260 C   0  0  0  0  0  2  0  0  0  0  0  0
  161.3700  208.6280  156.0620 C   0  0  2  0  0  3  0  0  0  0  0  0
  160.3800  210.6800  154.7810 C   0  0  2  0  0  3  0  0  0  0  0  0
  158.4460  212.3320  156.0320 O   0  0  0  0  0  1  0  0  0  0  0  0
  158.8600  211.2080  156.7480 C   0  0  0  0  0  2  0  0  0  0  0  0
  160.7740  204.1280  148.5700 C   0  0  0  0  0  2  0  0  0  0  0  0
  161.5660  204.9840  147.5850 C   0  0  2  0  0  3  0  0  0  0  0  0
  160.6390  206.0280  146.9780 C   0  0  0  0  0  1  0  0  0  0  0  0
  163.4620  204.7400  145.9330 C   0  0  0  0  0  1  0  0  0  0  0  0
  162.1890  204.1130  146.4860 C   0  0  2  0  0  3  0  0  0  0  0  0
  160.8160  202.5100  145.3220 O   0  0  0  0  0  1  0  0  0  0  0  0
  161.2150  203.8480  145.3400 C   0  0  0  0  0  2  0  0  0  0  0  0
  1  8  1  0  0  0  0
  2  3  1  0  0  0  0
  3  6  2  0  0  0  0
  4  5  1  0  0  0  0
  5  1  2  0  0  0  0
  6  1  1  0  0  0  0
  7  4  2  0  0  0  0
  7  3  1  0  0  0  0
  8  9  1  0  0  0  0
  9 10  1  0  0  0  0
 10 16  1  0  0  0  0
 11 15  1  0  0  0  0
 12 14  1  0  0  0  0
 12 19  1  1  0  0  0
 13 10  1  0  0  0  0
 16 15  1  6  0  0  0
 16 14  1  0  0  0  0
 17 13  1  6  0  0  0
 17 11  1  0  0  0  0
 17 12  1  0  0  0  0
 18 19  1  0  0  0  0
 20  7  1  0  0  0  0
 21 22  1  6  0  0  0
 21 20  1  0  0  0  0
 24 23  1  6  0  0  0
 24 21  1  0  0  0  0
 25 26  1  0  0  0  0
 26 24  1  0  0  0  0
M  END
>  <MODEL>
3

>  <REMARK>
 VINA RESULT:      -7.3      1.391      1.903
  Name = 
  8 active torsions:
  status: ('A' for Active; 'I' for Inactive)
    1  A    between atoms: N_1  and  C_17
    2  A    between atoms: C_2  and  C_3
    3  A    between atoms: C_3  and  C_17
    4  A    between atoms: C_5  and  C_22
    5  A    between atoms: C_5  and  C_25
    6  A    between atoms: C_10  and  C_26
    7  A    between atoms: C_16  and  C_22
    8  A    between atoms: C_24  and  C_25
                            x       y       z     vdW  Elec       q    Type
                         _______ _______ _______ _____ _____    ______ ____

>  <TORSDO>
F 8

$$$$
=
 OpenBabel11072414403D

 26 28  0  0  1  0  0  0  0  0999 V2000
  160.9830  208.5360  151.8260 C   0  0  0  0  0  0  0  0  0  0  0  0
  161.8990  206.8800  148.6830 N   0  0  0  0  0  1  0  0  0  0  0  0
  161.5960  207.0630  150.0620 C   0  0  0  0  0  0  0  0  0  0  0  0
  161.3080  206.1970  152.2980 C   0  0  0  0  0  3  0  0  0  0  0  0
  160.9890  207.4790  152.7400 C   0  0  0  0  0  3  0  0  0  0  0  0
  161.2810  208.3050  150.5180 N   0  0  0  0  0  0  0  0  0  0  0  0
  161.6170  205.9770  150.9530 C   0  0  0  0  0  0  0  0  0  0  0  0
  160.6020  209.9050  152.2760 C   0  0  0  0  0  2  0  0  0  0  0  0
  161.6990  210.5220  153.1320 C   0  0  0  0  0  2  0  0  0  0  0  0
  161.1320  211.1170  154.3380 N   0  0  0  0  0  0  0  0  0  0  0  0
  159.8860  211.0680  156.9110 C   0  0  0  0  0  2  0  0  0  0  0  0
  160.4060  208.7990  155.9530 C   0  0  2  0  0  3  0  0  0  0  0  0
  159.7340  210.6430  154.4710 C   0  0  0  0  0  2  0  0  0  0  0  0
  161.8760  209.2320  155.7890 C   0  0  0  0  0  2  0  0  0  0  0  0
  161.3690  211.4650  156.7360 C   0  0  0  0  0  2  0  0  0  0  0  0
  161.9580  210.7510  155.5110 C   0  0  2  0  0  3  0  0  0  0  0  0
  159.4720  210.0210  155.8540 C   0  0  2  0  0  3  0  0  0  0  0  0
  159.7820  206.7420  156.9980 O   0  0  0  0  0  1  0  0  0  0  0  0
  160.2210  208.0400  157.2590 C   0  0  0  0  0  2  0  0  0  0  0  0
  161.9340  204.5900  150.4890 C   0  0  0  0  0  2  0  0  0  0  0  0
  160.7000  203.6940  150.5620 C   0  0  2  0  0  3  0  0  0  0  0  0
  160.8260  202.7740  151.7690 C   0  0  0  0  0  1  0  0  0  0  0  0
  160.5900  201.3780  149.5570 C   0  0  0  0  0  1  0  0  0  0  0  0
  160.5460  202.8740  149.2740 C   0  0  2  0  0  3  0  0  0  0  0  0
  161.1700  202.9290  146.9450 O   0  0  0  0  0  1  0  0  0  0  0  0
  161.6120  203.2240  148.2370 C   0  0  0  0  0  2  0  0  0  0  0  0
  1  8  1  0  0  0  0
  1  5  1  0  0  0  0
  2  3  1  0  0  0  0
  3  6  1  0  0  0  0
  3  7  2  0  0  0  0
  4  5  2  0  0  0  0
  6  1  2  0  0  0  0
  7  4  1  0  0  0  0
  8  9  1  0  0  0  0
  9 10  1  0  0  0  0
 10 13  1  0  0  0  0
 10 16  1  0  0  0  0
 12 19  1  1  0  0  0
 14 12  1  0  0  0  0
 15 11  1  0  0  0  0
 16 14  1  1  0  0  0
 16 15  1  0  0  0  0
 17 13  1  6  0  0  0
 17 12  1  0  0  0  0
 17 11  1  0  0  0  0
 18 19  1  0  0  0  0
 20 21  1  0  0  0  0
 20  7  1  0  0  0  0
 21 22  1  1  0  0  0
 24 23  1  1  0  0  0
 24 21  1  0  0  0  0
 25 26  1  0  0  0  0
 26 24  1  0  0  0  0
M  END
>  <MODEL>
4

>  <REMARK>
 VINA RESULT:      -7.1      1.824      2.854
  Name = 
  8 active torsions:
  status: ('A' for Active; 'I' for Inactive)
    1  A    between atoms: N_1  and  C_17
    2  A    between atoms: C_2  and  C_3
    3  A    between atoms: C_3  and  C_17
    4  A    between atoms: C_5  and  C_22
    5  A    between atoms: C_5  and  C_25
    6  A    between atoms: C_10  and  C_26
    7  A    between atoms: C_16  and  C_22
    8  A    between atoms: C_24  and  C_25
                            x       y       z     vdW  Elec       q    Type
                         _______ _______ _______ _____ _____    ______ ____

>  <TORSDO>
F 8

$$$$
=
 OpenBabel11072414403D

 26 28  0  0  1  0  0  0  0  0999 V2000
  160.9030  208.6630  152.1750 C   0  0  0  0  0  0  0  0  0  0  0  0
  161.8980  207.0930  149.0110 N   0  0  0  0  0  1  0  0  0  0  0  0
  161.5700  207.2400  150.3900 C   0  0  0  0  0  0  0  0  0  0  0  0
  161.2610  206.3200  152.6000 C   0  0  0  0  0  3  0  0  0  0  0  0
  160.9120  207.5870  153.0650 C   0  0  0  0  0  3  0  0  0  0  0  0
  161.2260  208.4660  150.8670 N   0  0  0  0  0  0  0  0  0  0  0  0
  161.5950  206.1350  151.2560 C   0  0  0  0  0  0  0  0  0  0  0  0
  160.4910  210.0150  152.6480 C   0  0  0  0  0  2  0  0  0  0  0  0
  161.1630  210.3570  153.9710 C   0  0  0  0  0  2  0  0  0  0  0  0
  160.7210  211.6660  154.4430 N   0  0  0  0  0  0  0  0  0  0  0  0
  158.8110  213.5680  155.3950 C   0  0  0  0  0  2  0  0  0  0  0  0
  157.8930  211.2530  155.0250 C   0  0  2  0  0  3  0  0  0  0  0  0
  159.6450  212.1410  153.5440 C   0  0  0  0  0  2  0  0  0  0  0  0
  158.9920  210.6960  155.9530 C   0  0  0  0  0  2  0  0  0  0  0  0
  159.8940  212.9740  156.3230 C   0  0  0  0  0  2  0  0  0  0  0  0
  160.2690  211.5620  155.8490 C   0  0  2  0  0  3  0  0  0  0  0  0
  158.3810  212.5380  154.3280 C   0  0  2  0  0  3  0  0  0  0  0  0
  155.6250  210.5840  155.3720 O   0  0  0  0  0  1  0  0  0  0  0  0
  156.6060  211.4770  155.8050 C   0  0  0  0  0  2  0  0  0  0  0  0
  161.9430  204.7640  150.7670 C   0  0  0  0  0  2  0  0  0  0  0  0
  160.7470  203.8220  150.8840 C   0  0  2  0  0  3  0  0  0  0  0  0
  161.0190  202.8120  151.9900 C   0  0  0  0  0  1  0  0  0  0  0  0
  160.7580  201.6100  149.6610 C   0  0  0  0  0  1  0  0  0  0  0  0
  160.4870  203.1050  149.5520 C   0  0  2  0  0  3  0  0  0  0  0  0
  161.3050  202.8440  147.2990 O   0  0  0  0  0  1  0  0  0  0  0  0
  161.3200  203.6890  148.4120 C   0  0  0  0  0  2  0  0  0  0  0  0
  1  8  1  0  0  0  0
  1  5  1  0  0  0  0
  2  3  1  0  0  0  0
  3  6  1  0  0  0  0
  3  7  2  0  0  0  0
  4  5  2  0  0  0  0
  6  1  2  0  0  0  0
  7  4  1  0  0  0  0
  8  9  1  0  0  0  0
  9 10  1  0  0  0  0
 10 16  1  0  0  0  0
 11 15  1  0  0  0  0
 12 19  1  1  0  0  0
 12 14  1  0  0  0  0
 13 10  1  0  0  0  0
 16 14  1  6  0  0  0
 16 15  1  0  0  0  0
 17 13  1  6  0  0  0
 17 12  1  0  0  0  0
 17 11  1  0  0  0  0
 18 19  1  0  0  0  0
 20 21  1  0  0  0  0
 20  7  1  0  0  0  0
 21 22  1  1  0  0  0
 24 23  1  1  0  0  0
 24 21  1  0  0  0  0
 25 26  1  0  0  0  0
 26 24  1  0  0  0  0
M  END
>  <MODEL>
5

>  <REMARK>
 VINA RESULT:      -7.0      1.874      3.066
  Name = 
  8 active torsions:
  status: ('A' for Active; 'I' for Inactive)
    1  A    between atoms: N_1  and  C_17
    2  A    between atoms: C_2  and  C_3
    3  A    between atoms: C_3  and  C_17
    4  A    between atoms: C_5  and  C_22
    5  A    between atoms: C_5  and  C_25
    6  A    between atoms: C_10  and  C_26
    7  A    between atoms: C_16  and  C_22
    8  A    between atoms: C_24  and  C_25
                            x       y       z     vdW  Elec       q    Type
                         _______ _______ _______ _____ _____    ______ ____

>  <TORSDO>
F 8

$$$$
=
 OpenBabel11072414403D

 26 28  0  0  1  0  0  0  0  0999 V2000
  160.8310  208.3820  154.4270 C   0  0  0  0  0  0  0  0  0  0  0  0
  161.9500  208.6980  150.9460 N   0  0  0  0  0  1  0  0  0  0  0  0
  161.5760  208.1030  152.1850 C   0  0  0  0  0  0  0  0  0  0  0  0
  161.2080  206.1620  153.5730 C   0  0  0  0  0  3  0  0  0  0  0  0
  160.8270  206.9990  154.6210 C   0  0  0  0  0  3  0  0  0  0  0  0
  161.1990  208.8980  153.2220 N   0  0  0  0  0  0  0  0  0  0  0  0
  161.5880  206.7070  152.3450 C   0  0  0  0  0  0  0  0  0  0  0  0
  160.3860  209.2870  155.5240 C   0  0  0  0  0  2  0  0  0  0  0  0
  160.4930  210.7470  155.1030 C   0  0  0  0  0  2  0  0  0  0  0  0
  159.2260  211.4360  155.3230 N   0  0  0  0  0  0  0  0  0  0  0  0
  157.1460  213.2980  154.7010 C   0  0  0  0  0  2  0  0  0  0  0  0
  158.9930  213.1780  152.9950 C   0  0  2  0  0  3  0  0  0  0  0  0
  159.4970  212.8910  155.3850 C   0  0  0  0  0  2  0  0  0  0  0  0
  158.7590  211.6580  152.8850 C   0  0  0  0  0  2  0  0  0  0  0  0
  156.9380  211.7730  154.5610 C   0  0  0  0  0  2  0  0  0  0  0  0
  158.2760  211.0920  154.2410 C   0  0  2  0  0  3  0  0  0  0  0  0
  158.6130  213.6780  154.4020 C   0  0  2  0  0  3  0  0  0  0  0  0
  157.8350  213.0100  150.9110 O   0  0  0  0  0  1  0  0  0  0  0  0
  158.2310  213.9110  151.9000 C   0  0  0  0  0  2  0  0  0  0  0  0
  161.9700  205.7950  151.2220 C   0  0  0  0  0  2  0  0  0  0  0  0
  160.8320  204.8340  150.8860 C   0  0  2  0  0  3  0  0  0  0  0  0
  161.2270  203.4280  151.3190 C   0  0  0  0  0  1  0  0  0  0  0  0
  161.2060  203.7260  148.6460 C   0  0  0  0  0  1  0  0  0  0  0  0
  160.5180  204.8660  149.3840 C   0  0  2  0  0  3  0  0  0  0  0  0
  160.5900  206.2090  147.3830 O   0  0  0  0  0  1  0  0  0  0  0  0
  160.9120  206.1960  148.7420 C   0  0  0  0  0  2  0  0  0  0  0  0
  1  5  1  0  0  0  0
  1  8  1  0  0  0  0
  2  3  1  0  0  0  0
  3  7  2  0  0  0  0
  3  6  1  0  0  0  0
  4  5  2  0  0  0  0
  6  1  2  0  0  0  0
  7  4  1  0  0  0  0
  9 10  1  0  0  0  0
  9  8  1  0  0  0  0
 10 13  1  0  0  0  0
 12 19  1  6  0  0  0
 12 17  1  0  0  0  0
 14 12  1  0  0  0  0
 15 11  1  0  0  0  0
 16 14  1  6  0  0  0
 16 15  1  0  0  0  0
 16 10  1  0  0  0  0
 17 11  1  1  0  0  0
 17 13  1  0  0  0  0
 18 19  1  0  0  0  0
 20  7  1  0  0  0  0
 21 20  1  0  0  0  0
 21 22  1  6  0  0  0
 24 23  1  6  0  0  0
 24 21  1  0  0  0  0
 25 26  1  0  0  0  0
 26 24  1  0  0  0  0
M  END
>  <MODEL>
6

>  <REMARK>
 VINA RESULT:      -6.9      2.690      4.123
  Name = 
  8 active torsions:
  status: ('A' for Active; 'I' for Inactive)
    1  A    between atoms: N_1  and  C_17
    2  A    between atoms: C_2  and  C_3
    3  A    between atoms: C_3  and  C_17
    4  A    between atoms: C_5  and  C_22
    5  A    between atoms: C_5  and  C_25
    6  A    between atoms: C_10  and  C_26
    7  A    between atoms: C_16  and  C_22
    8  A    between atoms: C_24  and  C_25
                            x       y       z     vdW  Elec       q    Type
                         _______ _______ _______ _____ _____    ______ ____

>  <TORSDO>
F 8

$$$$
=
 OpenBabel11072414403D

 26 28  0  0  1  0  0  0  0  0999 V2000
  160.9520  209.4840  152.1100 C   0  0  0  0  0  0  0  0  0  0  0  0
  160.8190  206.4370  154.1500 N   0  0  0  0  0  1  0  0  0  0  0  0
  161.0710  207.3010  153.0460 C   0  0  0  0  0  0  0  0  0  0  0  0
  161.9030  207.6910  150.8130 C   0  0  0  0  0  3  0  0  0  0  0  0
  161.5470  209.0340  150.9290 C   0  0  0  0  0  3  0  0  0  0  0  0
  160.7330  208.6150  153.1350 N   0  0  0  0  0  0  0  0  0  0  0  0
  161.6660  206.8100  151.8720 C   0  0  0  0  0  0  0  0  0  0  0  0
  160.6050  210.9250  152.2650 C   0  0  0  0  0  2  0  0  0  0  0  0
  160.6820  211.3510  153.7250 C   0  0  0  0  0  2  0  0  0  0  0  0
  159.8280  212.5100  153.9630 N   0  0  0  0  0  0  0  0  0  0  0  0
  157.3930  213.8350  154.6610 C   0  0  0  0  0  2  0  0  0  0  0  0
  157.3040  211.3240  154.8170 C   0  0  2  0  0  3  0  0  0  0  0  0
  158.6520  212.4090  153.0680 C   0  0  0  0  0  2  0  0  0  0  0  0
  158.5280  211.3640  155.7540 C   0  0  0  0  0  2  0  0  0  0  0  0
  158.6150  213.8360  155.6070 C   0  0  0  0  0  2  0  0  0  0  0  0
  159.4400  212.5590  155.3910 C   0  0  2  0  0  3  0  0  0  0  0  0
  157.3310  212.5230  153.8490 C   0  0  2  0  0  3  0  0  0  0  0  0
  155.2330  210.1970  155.2080 O   0  0  0  0  0  1  0  0  0  0  0  0
  156.0180  211.2710  155.6280 C   0  0  0  0  0  2  0  0  0  0  0  0
  162.0770  205.3780  151.7420 C   0  0  0  0  0  2  0  0  0  0  0  0
  160.9460  204.5350  151.1580 C   0  0  2  0  0  3  0  0  0  0  0  0
  160.6580  203.3720  152.0980 C   0  0  0  0  0  1  0  0  0  0  0  0
  160.9050  205.0030  148.6750 C   0  0  0  0  0  1  0  0  0  0  0  0
  161.3180  204.0190  149.7610 C   0  0  2  0  0  3  0  0  0  0  0  0
  160.8940  202.2910  148.1330 O   0  0  0  0  0  1  0  0  0  0  0  0
  160.6990  202.6530  149.4680 C   0  0  0  0  0  2  0  0  0  0  0  0
  1  8  1  0  0  0  0
  1  6  1  0  0  0  0
  3  6  2  0  0  0  0
  3  2  1  0  0  0  0
  4  5  1  0  0  0  0
  4  7  2  0  0  0  0
  5  1  2  0  0  0  0
  7  3  1  0  0  0  0
  8  9  1  0  0  0  0
  9 10  1  0  0  0  0
 10 16  1  0  0  0  0
 11 15  1  0  0  0  0
 12 19  1  1  0  0  0
 12 14  1  0  0  0  0
 13 10  1  0  0  0  0
 16 15  1  6  0  0  0
 16 14  1  0  0  0  0
 17 13  1  6  0  0  0
 17 11  1  0  0  0  0
 17 12  1  0  0  0  0
 18 19  1  0  0  0  0
 20  7  1  0  0  0  0
 21 20  1  0  0  0  0
 21 22  1  1  0  0  0
 24 23  1  6  0  0  0
 24 21  1  0  0  0  0
 25 26  1  0  0  0  0
 26 24  1  0  0  0  0
M  END
>  <MODEL>
7

>  <REMARK>
 VINA RESULT:      -6.8      2.372      4.040
  Name = 
  8 active torsions:
  status: ('A' for Active; 'I' for Inactive)
    1  A    between atoms: N_1  and  C_17
    2  A    between atoms: C_2  and  C_3
    3  A    between atoms: C_3  and  C_17
    4  A    between atoms: C_5  and  C_22
    5  A    between atoms: C_5  and  C_25
    6  A    between atoms: C_10  and  C_26
    7  A    between atoms: C_16  and  C_22
    8  A    between atoms: C_24  and  C_25
                            x       y       z     vdW  Elec       q    Type
                         _______ _______ _______ _____ _____    ______ ____

>  <TORSDO>
F 8

$$$$
=
 OpenBabel11072414403D

 26 28  0  0  1  0  0  0  0  0999 V2000
  161.7640  208.4890  150.8530 C   0  0  0  0  0  0  0  0  0  0  0  0
  160.4470  205.0750  150.5820 N   0  0  0  0  0  1  0  0  0  0  0  0
  160.9490  206.3520  150.2010 C   0  0  0  0  0  0  0  0  0  0  0  0
  161.6100  207.9460  148.5120 C   0  0  0  0  0  3  0  0  0  0  0  0
  161.9410  208.8540  149.5170 C   0  0  0  0  0  3  0  0  0  0  0  0
  161.2790  207.2550  151.1630 N   0  0  0  0  0  0  0  0  0  0  0  0
  161.1090  206.6860  148.8450 C   0  0  0  0  0  0  0  0  0  0  0  0
  162.1520  209.4330  151.9390 C   0  0  0  0  0  2  0  0  0  0  0  0
  161.2420  209.2760  153.1500 C   0  0  0  0  0  2  0  0  0  0  0  0
  161.3530  210.4380  154.0260 N   0  0  0  0  0  0  0  0  0  0  0  0
  160.3620  212.4510  155.7980 C   0  0  0  0  0  2  0  0  0  0  0  0
  158.6350  210.7930  155.0220 C   0  0  2  0  0  3  0  0  0  0  0  0
  160.4460  211.4910  153.5120 C   0  0  0  0  0  2  0  0  0  0  0  0
  159.5350  209.6510  155.5380 C   0  0  0  0  0  2  0  0  0  0  0  0
  161.2350  211.2810  156.3070 C   0  0  0  0  0  2  0  0  0  0  0  0
  161.0240  210.0490  155.4160 C   0  0  2  0  0  3  0  0  0  0  0  0
  159.4910  212.0040  154.6040 C   0  0  2  0  0  3  0  0  0  0  0  0
  156.5950  211.9440  155.4950 O   0  0  0  0  0  1  0  0  0  0  0  0
  157.5950  211.1600  156.0710 C   0  0  0  0  0  2  0  0  0  0  0  0
  160.7830  205.7130  147.7560 C   0  0  0  0  0  2  0  0  0  0  0  0
  162.0540  205.1540  147.1220 C   0  0  2  0  0  3  0  0  0  0  0  0
  162.2570  205.8070  145.7620 C   0  0  0  0  0  1  0  0  0  0  0  0
  161.2840  203.2290  145.6780 C   0  0  0  0  0  1  0  0  0  0  0  0
  161.9670  203.6290  146.9790 C   0  0  2  0  0  3  0  0  0  0  0  0
  160.8500  201.6750  147.8450 O   0  0  0  0  0  1  0  0  0  0  0  0
  161.2360  202.9820  148.1550 C   0  0  0  0  0  2  0  0  0  0  0  0
  1  6  1  0  0  0  0
  1  8  1  0  0  0  0
  3  2  1  0  0  0  0
  3  6  2  0  0  0  0
  4  7  2  0  0  0  0
  4  5  1  0  0  0  0
  5  1  2  0  0  0  0
  7  3  1  0  0  0  0
  8  9  1  0  0  0  0
  9 10  1  0  0  0  0
 10 16  1  0  0  0  0
 11 15  1  0  0  0  0
 12 14  1  0  0  0  0
 12 19  1  1  0  0  0
 13 10  1  0  0  0  0
 16 14  1  6  0  0  0
 16 15  1  0  0  0  0
 17 13  1  6  0  0  0
 17 12  1  0  0  0  0
 17 11  1  0  0  0  0
 18 19  1  0  0  0  0
 20  7  1  0  0  0  0
 21 22  1  6  0  0  0
 21 20  1  0  0  0  0
 24 23  1  6  0  0  0
 24 21  1  0  0  0  0
 24 26  1  0  0  0  0
 25 26  1  0  0  0  0
M  END
>  <MODEL>
8

>  <REMARK>
 VINA RESULT:      -6.5      1.669      2.377
  Name = 
  8 active torsions:
  status: ('A' for Active; 'I' for Inactive)
    1  A    between atoms: N_1  and  C_17
    2  A    between atoms: C_2  and  C_3
    3  A    between atoms: C_3  and  C_17
    4  A    between atoms: C_5  and  C_22
    5  A    between atoms: C_5  and  C_25
    6  A    between atoms: C_10  and  C_26
    7  A    between atoms: C_16  and  C_22
    8  A    between atoms: C_24  and  C_25
                            x       y       z     vdW  Elec       q    Type
                         _______ _______ _______ _____ _____    ______ ____

>  <TORSDO>
F 8

$$$$
=
 OpenBabel11072414403D

 26 28  0  0  1  0  0  0  0  0999 V2000
  161.6090  207.9930  151.0390 C   0  0  0  0  0  0  0  0  0  0  0  0
  161.2080  207.2640  147.4650 N   0  0  0  0  0  1  0  0  0  0  0  0
  161.2280  207.0780  148.8770 C   0  0  0  0  0  0  0  0  0  0  0  0
  160.9190  205.6950  150.8320 C   0  0  0  0  0  3  0  0  0  0  0  0
  161.2770  206.7750  151.6370 C   0  0  0  0  0  3  0  0  0  0  0  0
  161.5740  208.1160  149.6840 N   0  0  0  0  0  0  0  0  0  0  0  0
  160.8920  205.8360  149.4420 C   0  0  0  0  0  0  0  0  0  0  0  0
  161.9530  209.1680  151.8880 C   0  0  0  0  0  2  0  0  0  0  0  0
  160.6960  209.8410  152.4230 C   0  0  0  0  0  2  0  0  0  0  0  0
  161.0060  210.6300  153.6100 N   0  0  0  0  0  0  0  0  0  0  0  0
  161.0510  211.1840  156.4150 C   0  0  0  0  0  2  0  0  0  0  0  0
  160.0550  208.9560  155.8010 C   0  0  2  0  0  3  0  0  0  0  0  0
  159.7390  210.9000  154.3280 C   0  0  0  0  0  2  0  0  0  0  0  0
  161.3500  208.6160  155.0360 C   0  0  0  0  0  2  0  0  0  0  0  0
  162.3360  210.8060  155.6430 C   0  0  0  0  0  2  0  0  0  0  0  0
  161.9810  209.9020  154.4540 C   0  0  2  0  0  3  0  0  0  0  0  0
  159.8200  210.4790  155.8060 C   0  0  2  0  0  3  0  0  0  0  0  0
  160.0390  206.9850  157.1530 O   0  0  0  0  0  1  0  0  0  0  0  0
  160.1050  208.3780  157.2080 C   0  0  0  0  0  2  0  0  0  0  0  0
  160.4810  204.6750  148.5930 C   0  0  0  0  0  2  0  0  0  0  0  0
  161.6670  203.7550  148.3130 C   0  0  2  0  0  3  0  0  0  0  0  0
  162.2080  204.0530  146.9210 C   0  0  0  0  0  1  0  0  0  0  0  0
  160.4980  201.8190  147.1840 C   0  0  0  0  0  1  0  0  0  0  0  0
  161.2510  202.2820  148.4250 C   0  0  2  0  0  3  0  0  0  0  0  0
  161.1390  202.2080  150.8320 O   0  0  0  0  0  1  0  0  0  0  0  0
  160.3970  202.0180  149.6640 C   0  0  0  0  0  2  0  0  0  0  0  0
  1  5  1  0  0  0  0
  1  8  1  0  0  0  0
  2  3  1  0  0  0  0
  3  7  2  0  0  0  0
  3  6  1  0  0  0  0
  4  5  2  0  0  0  0
  6  1  2  0  0  0  0
  7  4  1  0  0  0  0
  8  9  1  0  0  0  0
  9 10  1  0  0  0  0
 10 13  1  0  0  0  0
 10 16  1  0  0  0  0
 12 17  1  0  0  0  0
 12 19  1  1  0  0  0
 14 12  1  0  0  0  0
 15 11  1  0  0  0  0
 16 14  1  1  0  0  0
 16 15  1  0  0  0  0
 17 13  1  6  0  0  0
 17 11  1  0  0  0  0
 18 19  1  0  0  0  0
 20  7  1  0  0  0  0
 21 22  1  6  0  0  0
 21 24  1  0  0  0  0
 21 20  1  0  0  0  0
 24 23  1  6  0  0  0
 24 26  1  0  0  0  0
 26 25  1  0  0  0  0
M  END
>  <MODEL>
9

>  <REMARK>
 VINA RESULT:      -6.5      2.013      2.540
  Name = 
  8 active torsions:
  status: ('A' for Active; 'I' for Inactive)
    1  A    between atoms: N_1  and  C_17
    2  A    between atoms: C_2  and  C_3
    3  A    between atoms: C_3  and  C_17
    4  A    between atoms: C_5  and  C_22
    5  A    between atoms: C_5  and  C_25
    6  A    between atoms: C_10  and  C_26
    7  A    between atoms: C_16  and  C_22
    8  A    between atoms: C_24  and  C_25
                            x       y       z     vdW  Elec       q    Type
                         _______ _______ _______ _____ _____    ______ ____

>  <TORSDO>
F 8

$$$$
