=
 OpenBabel11072413273D

 41 46  0  0  1  0  0  0  0  0999 V2000
  162.6930  206.8600  147.6780 O   0  0  0  0  0  1  0  0  0  0  0  0
  161.8040  205.3420  151.0780 C   0  0  0  0  0  2  0  0  0  0  0  0
  162.0570  211.7730  147.9020 O   0  0  0  0  0  0  0  0  0  0  0  0
  161.1660  212.1000  150.5980 O   0  0  0  0  0  0  0  0  0  0  0  0
  162.0350  208.4800  149.3040 C   0  0  0  0  0  0  0  0  0  0  0  0
  161.9430  209.5420  148.4030 O   0  0  0  0  0  0  0  0  0  0  0  0
  162.4980  207.6390  151.5330 N   0  0  0  0  0  2  0  0  0  0  0  0
  160.9980  210.2500  151.9440 O   0  0  0  0  0  0  0  0  0  0  0  0
  162.1640  210.0940  151.1960 C   0  0  2  0  0  3  0  0  0  0  0  0
  161.9670  207.1500  148.7820 N   0  0  0  0  0  0  0  0  0  0  0  0
  160.7820  206.3890  149.0220 C   0  0  0  0  0  0  0  0  0  0  0  0
  160.7980  205.2050  149.9410 C   0  0  1  0  0  3  0  0  0  0  0  0
  160.2770  211.2360  151.2560 C   0  0  1  0  0  3  0  0  0  0  0  0
  162.2160  211.2620  150.2270 C   0  0  1  0  0  3  0  0  0  0  0  0
  162.2120  208.7040  150.6200 C   0  0  0  0  0  0  0  0  0  0  0  0
  161.5420  206.5980  151.8950 C   0  0  2  0  0  3  0  0  0  0  0  0
  159.7050  206.7160  148.4580 O   0  0  0  0  0  0  0  0  0  0  0  0
  162.0670  210.8770  148.7850 C   0  0  0  0  0  0  0  0  0  0  0  0
  160.2540  202.5710  151.0470 F   0  0  0  0  0  0  0  0  0  0  0  0
  160.9920  202.5610  149.8780 C   0  0  1  0  0  3  0  0  0  0  0  0
  161.1890  203.9810  147.8640 C   0  0  0  0  0  3  0  0  0  0  0  0
  160.6710  201.5680  147.6380 C   0  0  0  0  0  3  0  0  0  0  0  0
  161.4440  202.7260  147.0660 C   0  0  0  0  0  2  0  0  0  0  0  0
  160.4620  201.4870  148.9610 C   0  0  0  0  0  3  0  0  0  0  0  0
  160.9820  203.9190  149.1890 C   0  0  0  0  0  0  0  0  0  0  0  0
  160.9210  207.3310  154.2440 C   0  0  0  0  0  1  0  0  0  0  0  0
  161.6210  206.2820  153.3900 C   0  0  0  0  0  3  0  0  0  0  0  0
  161.0310  204.9160  153.6780 C   0  0  0  0  0  1  0  0  0  0  0  0
  159.3550  211.9930  152.2160 C   0  0  2  0  0  3  0  0  0  0  0  0
  159.0920  211.1630  153.3970 N   0  0  0  0  0  0  0  0  0  0  0  0
  157.7390  211.4330  153.8770 C   0  0  0  0  0  2  0  0  0  0  0  0
  159.6090  211.8520  154.5800 C   0  0  1  0  0  3  0  0  0  0  0  0
  158.2240  212.1100  155.1370 C   0  0  0  0  0  2  0  0  0  0  0  0
  162.5900  210.1150  156.1950 C   0  0  0  0  0  3  0  0  0  0  0  0
  159.8030  210.1180  156.4150 C   0  0  0  0  0  3  0  0  0  0  0  0
  161.8220  210.9200  155.3500 C   0  0  0  0  0  3  0  0  0  0  0  0
  160.4220  210.9110  155.4360 C   0  0  0  0  0  0  0  0  0  0  0  0
  161.9630  209.3070  157.1490 C   0  0  0  0  0  3  0  0  0  0  0  0
  160.5710  209.3130  157.2610 C   0  0  0  0  0  3  0  0  0  0  0  0
  158.1480  212.2800  151.5680 O   0  0  0  0  0  0  0  0  0  0  0  0
  158.2340  213.5560  151.2530 O   0  0  0  0  0  1  0  0  0  0  0  0
  1 10  1  0  0  0  0
  2 16  1  0  0  0  0
  3 18  2  0  0  0  0
  4 13  1  0  0  0  0
  5 15  2  0  0  0  0
  6 18  1  0  0  0  0
  6  5  1  0  0  0  0
  7 16  1  0  0  0  0
  9 15  1  6  0  0  0
  9  8  1  0  0  0  0
 10 11  1  0  0  0  0
 10  5  1  0  0  0  0
 11 12  1  0  0  0  0
 12 25  1  6  0  0  0
 12  2  1  0  0  0  0
 13  8  1  0  0  0  0
 13 29  1  1  0  0  0
 14 18  1  6  0  0  0
 14  4  1  0  0  0  0
 14  9  1  0  0  0  0
 15  7  1  0  0  0  0
 16 27  1  1  0  0  0
 17 11  2  0  0  0  0
 20 19  1  1  0  0  0
 21 25  2  0  0  0  0
 22 24  2  0  0  0  0
 23 22  1  0  0  0  0
 23 21  1  0  0  0  0
 24 20  1  0  0  0  0
 25 20  1  0  0  0  0
 27 28  1  0  0  0  0
 27 26  1  0  0  0  0
 29 40  1  6  0  0  0
 29 30  1  0  0  0  0
 30 31  1  0  0  0  0
 30 32  1  0  0  0  0
 31 33  1  0  0  0  0
 32 33  1  0  0  0  0
 32 37  1  1  0  0  0
 34 38  1  0  0  0  0
 35 39  1  0  0  0  0
 36 37  1  0  0  0  0
 36 34  2  0  0  0  0
 37 35  2  0  0  0  0
 38 39  2  0  0  0  0
 41 40  1  0  0  0  0
M  END
>  <MODEL>
1

>  <REMARK>
 VINA RESULT:      -9.0      0.000      0.000
  Name = 
  6 active torsions:
  status: ('A' for Active; 'I' for Inactive)
    1  A    between atoms: N_5  and  C_19
    2  A    between atoms: O_8  and  C_19
    3  A    between atoms: C_19  and  C_28
    4  A    between atoms: C_26  and  C_41
    5  A    between atoms: C_27  and  C_31
    6  A    between atoms: C_34  and  C_35
                            x       y       z     vdW  Elec       q    Type
                         _______ _______ _______ _____ _____    ______ ____

>  <TORSDO>
F 6

$$$$
=
 OpenBabel11072413273D

 41 46  0  0  1  0  0  0  0  0999 V2000
  162.8220  206.6190  147.7060 O   0  0  0  0  0  1  0  0  0  0  0  0
  161.8000  204.8810  150.9600 C   0  0  0  0  0  2  0  0  0  0  0  0
  162.2510  211.5140  148.2580 O   0  0  0  0  0  0  0  0  0  0  0  0
  161.2780  211.6660  150.9410 O   0  0  0  0  0  0  0  0  0  0  0  0
  162.1350  208.1310  149.4210 C   0  0  0  0  0  0  0  0  0  0  0  0
  162.0880  209.2560  148.5960 O   0  0  0  0  0  0  0  0  0  0  0  0
  162.5120  207.1280  151.5990 N   0  0  0  0  0  2  0  0  0  0  0  0
  161.0390  209.7280  152.1470 O   0  0  0  0  0  0  0  0  0  0  0  0
  162.2260  209.6060  151.4270 C   0  0  2  0  0  3  0  0  0  0  0  0
  162.0650  206.8430  148.8050 N   0  0  0  0  0  0  0  0  0  0  0  0
  160.8610  206.0870  148.9530 C   0  0  0  0  0  0  0  0  0  0  0  0
  160.8290  204.8420  149.7850 C   0  0  1  0  0  3  0  0  0  0  0  0
  160.3550  210.7730  151.5080 C   0  0  1  0  0  3  0  0  0  0  0  0
  162.3280  210.8380  150.5440 C   0  0  1  0  0  3  0  0  0  0  0  0
  162.2720  208.2600  150.7560 C   0  0  0  0  0  0  0  0  0  0  0  0
  161.5300  206.0810  151.8560 C   0  0  2  0  0  3  0  0  0  0  0  0
  159.8080  206.4710  148.3790 O   0  0  0  0  0  0  0  0  0  0  0  0
  162.2200  210.5580  149.0750 C   0  0  0  0  0  0  0  0  0  0  0  0
  160.2410  202.1430  150.6960 F   0  0  0  0  0  0  0  0  0  0  0  0
  161.0040  202.2060  149.5440 C   0  0  1  0  0  3  0  0  0  0  0  0
  161.2530  203.7600  147.6370 C   0  0  0  0  0  3  0  0  0  0  0  0
  160.7210  201.3730  147.2340 C   0  0  0  0  0  3  0  0  0  0  0  0
  161.5150  202.5610  146.7600 C   0  0  0  0  0  2  0  0  0  0  0  0
  160.4840  201.2030  148.5440 C   0  0  0  0  0  3  0  0  0  0  0  0
  161.0190  203.6080  148.9510 C   0  0  0  0  0  0  0  0  0  0  0  0
  161.0670  206.7610  154.2560 C   0  0  0  0  0  1  0  0  0  0  0  0
  161.5550  205.6590  153.3270 C   0  0  0  0  0  3  0  0  0  0  0  0
  160.7230  204.4100  153.5370 C   0  0  0  0  0  1  0  0  0  0  0  0
  159.4140  211.4770  152.4900 C   0  0  2  0  0  3  0  0  0  0  0  0
  159.0650  212.8020  151.9670 N   0  0  0  0  0  0  0  0  0  0  0  0
  158.4590  213.5920  153.0360 C   0  0  0  0  0  2  0  0  0  0  0  0
  157.7500  212.7250  151.3300 C   0  0  1  0  0  3  0  0  0  0  0  0
  157.0930  213.5800  152.3930 C   0  0  0  0  0  2  0  0  0  0  0  0
  159.0230  214.4530  148.1830 C   0  0  0  0  0  3  0  0  0  0  0  0
  156.6370  213.3620  149.1470 C   0  0  0  0  0  3  0  0  0  0  0  0
  158.9700  213.9140  149.4710 C   0  0  0  0  0  3  0  0  0  0  0  0
  157.7710  213.3850  149.9730 C   0  0  0  0  0  0  0  0  0  0  0  0
  157.8810  214.4500  147.3780 C   0  0  0  0  0  3  0  0  0  0  0  0
  156.6900  213.9010  147.8590 C   0  0  0  0  0  3  0  0  0  0  0  0
  160.0570  211.6160  153.7260 O   0  0  0  0  0  0  0  0  0  0  0  0
  159.6510  210.5810  154.4310 O   0  0  0  0  0  1  0  0  0  0  0  0
  1 10  1  0  0  0  0
  2 16  1  0  0  0  0
  3 18  2  0  0  0  0
  4 13  1  0  0  0  0
  5 15  2  0  0  0  0
  6 18  1  0  0  0  0
  6  5  1  0  0  0  0
  7 16  1  0  0  0  0
  9 15  1  6  0  0  0
  9  8  1  0  0  0  0
 10 11  1  0  0  0  0
 10  5  1  0  0  0  0
 11 12  1  0  0  0  0
 12 25  1  6  0  0  0
 12  2  1  0  0  0  0
 13  8  1  0  0  0  0
 13 29  1  1  0  0  0
 14 18  1  6  0  0  0
 14  4  1  0  0  0  0
 14  9  1  0  0  0  0
 15  7  1  0  0  0  0
 16 27  1  1  0  0  0
 17 11  2  0  0  0  0
 20 19  1  1  0  0  0
 21 25  2  0  0  0  0
 22 24  2  0  0  0  0
 23 22  1  0  0  0  0
 23 21  1  0  0  0  0
 24 20  1  0  0  0  0
 25 20  1  0  0  0  0
 27 28  1  0  0  0  0
 27 26  1  0  0  0  0
 29 40  1  1  0  0  0
 30 29  1  0  0  0  0
 30 31  1  0  0  0  0
 32 37  1  6  0  0  0
 32 30  1  0  0  0  0
 32 33  1  0  0  0  0
 33 31  1  0  0  0  0
 34 36  1  0  0  0  0
 35 37  1  0  0  0  0
 36 37  2  0  0  0  0
 38 39  1  0  0  0  0
 38 34  2  0  0  0  0
 39 35  2  0  0  0  0
 40 41  1  0  0  0  0
M  END
>  <MODEL>
2

>  <REMARK>
 VINA RESULT:      -8.0      1.989      3.824
  Name = 
  6 active torsions:
  status: ('A' for Active; 'I' for Inactive)
    1  A    between atoms: N_5  and  C_19
    2  A    between atoms: O_8  and  C_19
    3  A    between atoms: C_19  and  C_28
    4  A    between atoms: C_26  and  C_41
    5  A    between atoms: C_27  and  C_31
    6  A    between atoms: C_34  and  C_35
                            x       y       z     vdW  Elec       q    Type
                         _______ _______ _______ _____ _____    ______ ____

>  <TORSDO>
F 6

$$$$
=
 OpenBabel11072413273D

 41 46  0  0  1  0  0  0  0  0999 V2000
  158.8270  211.8350  156.6810 O   0  0  0  0  0  1  0  0  0  0  0  0
  157.9380  213.5780  153.3900 C   0  0  0  0  0  2  0  0  0  0  0  0
  161.7020  207.9170  155.6920 O   0  0  0  0  0  0  0  0  0  0  0  0
  161.8860  208.0630  152.8440 O   0  0  0  0  0  0  0  0  0  0  0  0
  159.8010  210.8040  154.7610 C   0  0  0  0  0  0  0  0  0  0  0  0
  160.2440  209.6630  155.4330 O   0  0  0  0  0  0  0  0  0  0  0  0
  160.0650  212.4460  152.9930 N   0  0  0  0  0  2  0  0  0  0  0  0
  160.8320  209.7810  151.7490 O   0  0  0  0  0  0  0  0  0  0  0  0
  161.3910  210.3270  152.9040 C   0  0  2  0  0  3  0  0  0  0  0  0
  158.7500  211.5680  155.3570 N   0  0  0  0  0  0  0  0  0  0  0  0
  157.4520  211.5150  154.7600 C   0  0  0  0  0  0  0  0  0  0  0  0
  156.8790  212.7060  154.0540 C   0  0  1  0  0  3  0  0  0  0  0  0
  160.8240  208.4000  151.9900 C   0  0  1  0  0  3  0  0  0  0  0  0
  161.9910  209.1710  153.6840 C   0  0  1  0  0  3  0  0  0  0  0  0
  160.3690  211.1850  153.6000 C   0  0  0  0  0  0  0  0  0  0  0  0
  158.7720  212.7740  152.4040 C   0  0  2  0  0  3  0  0  0  0  0  0
  156.7790  210.4530  154.8220 O   0  0  0  0  0  0  0  0  0  0  0  0
  161.3070  208.8810  154.9870 C   0  0  0  0  0  0  0  0  0  0  0  0
  154.3530  213.8850  153.2230 F   0  0  0  0  0  0  0  0  0  0  0  0
  154.8430  214.3660  154.4230 C   0  0  1  0  0  3  0  0  0  0  0  0
  156.2350  213.4990  156.2730 C   0  0  0  0  0  3  0  0  0  0  0  0
  153.9860  214.4290  156.7400 C   0  0  0  0  0  3  0  0  0  0  0  0
  155.4100  214.3360  157.2190 C   0  0  0  0  0  2  0  0  0  0  0  0
  153.7190  214.4480  155.4260 C   0  0  0  0  0  3  0  0  0  0  0  0
  155.9840  213.5090  154.9540 C   0  0  0  0  0  0  0  0  0  0  0  0
  160.3260  213.3540  150.4840 C   0  0  0  0  0  1  0  0  0  0  0  0
  158.9500  213.5570  151.1010 C   0  0  0  0  0  3  0  0  0  0  0  0
  157.8810  213.1720  150.0980 C   0  0  0  0  0  1  0  0  0  0  0  0
  160.8880  207.6250  150.6710 C   0  0  2  0  0  3  0  0  0  0  0  0
  160.5350  206.2210  150.9120 N   0  0  0  0  0  0  0  0  0  0  0  0
  160.7600  205.9080  152.3200 C   0  0  0  0  0  2  0  0  0  0  0  0
  161.6890  205.3840  150.5800 C   0  0  1  0  0  3  0  0  0  0  0  0
  161.9270  204.9960  152.0250 C   0  0  0  0  0  2  0  0  0  0  0  0
  161.2060  203.1440  147.5360 C   0  0  0  0  0  3  0  0  0  0  0  0
  160.7780  203.0390  150.2970 C   0  0  0  0  0  3  0  0  0  0  0  0
  161.5080  204.2510  148.3350 C   0  0  0  0  0  3  0  0  0  0  0  0
  161.2750  204.2170  149.7180 C   0  0  0  0  0  0  0  0  0  0  0  0
  160.6860  201.9850  148.1190 C   0  0  0  0  0  3  0  0  0  0  0  0
  160.4760  201.9320  149.4990 C   0  0  0  0  0  3  0  0  0  0  0  0
  162.1870  207.6980  150.1550 O   0  0  0  0  0  0  0  0  0  0  0  0
  162.1430  208.6840  149.2820 O   0  0  0  0  0  1  0  0  0  0  0  0
  2 12  1  0  0  0  0
  5 10  1  0  0  0  0
  5  6  1  0  0  0  0
  7 15  1  0  0  0  0
  8 13  1  0  0  0  0
  9  8  1  6  0  0  0
  9 15  1  0  0  0  0
  9 14  1  0  0  0  0
 10  1  1  0  0  0  0
 11 17  2  0  0  0  0
 11 10  1  0  0  0  0
 12 11  1  0  0  0  0
 12 25  1  1  0  0  0
 13 29  1  6  0  0  0
 13  4  1  0  0  0  0
 14  4  1  6  0  0  0
 14 18  1  0  0  0  0
 15  5  2  0  0  0  0
 16 27  1  6  0  0  0
 16  7  1  0  0  0  0
 16  2  1  0  0  0  0
 18  6  1  0  0  0  0
 18  3  2  0  0  0  0
 20 19  1  6  0  0  0
 20 25  1  0  0  0  0
 20 24  1  0  0  0  0
 21 23  1  0  0  0  0
 22 23  1  0  0  0  0
 24 22  2  0  0  0  0
 25 21  2  0  0  0  0
 26 27  1  0  0  0  0
 28 27  1  0  0  0  0
 29 40  1  1  0  0  0
 29 30  1  0  0  0  0
 30 31  1  0  0  0  0
 32 37  1  6  0  0  0
 32 30  1  0  0  0  0
 32 33  1  0  0  0  0
 33 31  1  0  0  0  0
 34 38  2  0  0  0  0
 34 36  1  0  0  0  0
 36 37  2  0  0  0  0
 37 35  1  0  0  0  0
 38 39  1  0  0  0  0
 39 35  2  0  0  0  0
 41 40  1  0  0  0  0
M  END
>  <MODEL>
3

>  <REMARK>
 VINA RESULT:      -6.3      3.214      9.301
  Name = 
  6 active torsions:
  status: ('A' for Active; 'I' for Inactive)
    1  A    between atoms: N_5  and  C_19
    2  A    between atoms: O_8  and  C_19
    3  A    between atoms: C_19  and  C_28
    4  A    between atoms: C_26  and  C_41
    5  A    between atoms: C_27  and  C_31
    6  A    between atoms: C_34  and  C_35
                            x       y       z     vdW  Elec       q    Type
                         _______ _______ _______ _____ _____    ______ ____

>  <TORSDO>
F 6

$$$$
