=
 OpenBabel11072415243D

 25 26  0  0  1  0  0  0  0  0999 V2000
  160.5300  205.6860  150.9320 C   0  0  0  0  0  3  0  0  0  0  0  0
  161.2640  206.7110  151.2290 N   0  0  0  0  0  0  0  0  0  0  0  0
  161.0320  200.9890  149.5270 Cl  0  0  0  0  0  0  0  0  0  0  0  0
  160.7840  201.7660  146.6410 O   0  0  0  0  0  1  0  0  0  0  0  0
  162.1640  205.1160  147.5110 C   0  0  0  0  0  2  0  0  0  0  0  0
  161.3800  202.7270  147.4640 C   0  0  2  0  0  3  0  0  0  0  0  0
  160.7650  202.6230  148.8690 C   0  0  2  0  0  3  0  0  0  0  0  0
  160.6970  204.9910  149.6270 C   0  0  2  0  0  3  0  0  0  0  0  0
  161.3400  203.6310  149.8540 C   0  0  0  0  0  2  0  0  0  0  0  0
  161.5110  205.8680  148.6690 C   0  0  0  0  0  2  0  0  0  0  0  0
  161.2150  204.1280  146.8400 C   0  0  2  0  0  3  0  0  0  0  0  0
  160.4190  204.2570  144.4480 N   0  0  0  0  0  1  0  0  0  0  0  0
  161.4950  204.1180  145.3690 C   0  0  0  0  0  0  0  0  0  0  0  0
  162.6730  203.9960  144.9380 O   0  0  0  0  0  0  0  0  0  0  0  0
  161.1530  207.4210  152.4680 C   0  0  0  0  0  0  0  0  0  0  0  0
  160.9400  208.8750  154.8690 C   0  0  0  0  0  0  0  0  0  0  0  0
  160.8900  209.5340  153.6320 C   0  0  0  0  0  3  0  0  0  0  0  0
  161.0790  207.4800  154.8960 C   0  0  0  0  0  3  0  0  0  0  0  0
  161.0000  208.8110  152.4400 C   0  0  0  0  0  3  0  0  0  0  0  0
  161.1890  206.7570  153.7060 C   0  0  0  0  0  3  0  0  0  0  0  0
  160.7800  209.6540  156.1480 C   0  0  0  0  0  0  0  0  0  0  0  0
  159.7760  209.0870  156.9140 F   0  0  0  0  0  0  0  0  0  0  0  0
  160.4280  210.9680  155.8790 F   0  0  0  0  0  0  0  0  0  0  0  0
  163.0280  210.4740  156.3770 O   0  0  0  0  0  1  0  0  0  0  0  0
  162.0750  209.6320  156.9520 C   0  0  0  0  0  2  0  0  0  0  0  0
  1  2  2  0  0  0  0
  2 15  1  0  0  0  0
  5 10  1  0  0  0  0
  6  4  1  6  0  0  0
  6  7  1  0  0  0  0
  7  3  1  1  0  0  0
  7  9  1  0  0  0  0
  8  9  1  0  0  0  0
  8  1  1  1  0  0  0
 10  8  1  0  0  0  0
 11 13  1  6  0  0  0
 11  6  1  0  0  0  0
 11  5  1  0  0  0  0
 12 13  1  0  0  0  0
 14 13  2  0  0  0  0
 15 20  1  0  0  0  0
 16 18  1  0  0  0  0
 16 21  1  0  0  0  0
 17 16  2  0  0  0  0
 19 15  2  0  0  0  0
 19 17  1  0  0  0  0
 20 18  2  0  0  0  0
 21 22  1  0  0  0  0
 21 25  1  0  0  0  0
 23 21  1  0  0  0  0
 24 25  1  0  0  0  0
M  END
>  <MODEL>
1

>  <REMARK>
 VINA RESULT:      -8.1      0.000      0.000
  Name = 
  5 active torsions:
  status: ('A' for Active; 'I' for Inactive)
    1  A    between atoms: C_1  and  C_7
    2  A    between atoms: C_1  and  C_14
    3  A    between atoms: C_3  and  N_12
    4  A    between atoms: C_5  and  C_17
    5  A    between atoms: C_19  and  C_24
                            x       y       z     vdW  Elec       q    Type
                         _______ _______ _______ _____ _____    ______ ____

>  <TORSDO>
F 5

$$$$
=
 OpenBabel11072415243D

 25 26  0  0  1  0  0  0  0  0999 V2000
  161.2430  205.0910  151.3310 C   0  0  0  0  0  3  0  0  0  0  0  0
  161.1000  206.3780  151.3110 N   0  0  0  0  0  0  0  0  0  0  0  0
  161.3500  206.2620  146.5460 Cl  0  0  0  0  0  0  0  0  0  0  0  0
  161.9070  203.4110  145.8010 O   0  0  0  0  0  1  0  0  0  0  0  0
  160.1330  202.3430  148.8980 C   0  0  0  0  0  2  0  0  0  0  0  0
  161.1250  203.5810  146.9480 C   0  0  2  0  0  3  0  0  0  0  0  0
  161.5560  204.8790  147.6500 C   0  0  2  0  0  3  0  0  0  0  0  0
  161.3120  204.3190  150.0610 C   0  0  2  0  0  3  0  0  0  0  0  0
  160.7690  205.1660  148.9210 C   0  0  0  0  0  2  0  0  0  0  0  0
  160.5580  202.9940  150.2140 C   0  0  0  0  0  2  0  0  0  0  0  0
  161.2460  202.3410  147.8560 C   0  0  2  0  0  3  0  0  0  0  0  0
  160.4970  201.0570  145.8150 N   0  0  0  0  0  1  0  0  0  0  0  0
  161.1650  201.0670  147.0720 C   0  0  0  0  0  0  0  0  0  0  0  0
  161.6890  200.0070  147.5090 O   0  0  0  0  0  0  0  0  0  0  0  0
  161.0270  207.1770  152.4970 C   0  0  0  0  0  0  0  0  0  0  0  0
  160.8770  208.6920  154.8650 C   0  0  0  0  0  0  0  0  0  0  0  0
  161.0190  207.2980  154.9200 C   0  0  0  0  0  3  0  0  0  0  0  0
  160.8290  209.3260  153.6150 C   0  0  0  0  0  3  0  0  0  0  0  0
  161.0890  206.5460  153.7430 C   0  0  0  0  0  3  0  0  0  0  0  0
  160.9000  208.5750  152.4380 C   0  0  0  0  0  3  0  0  0  0  0  0
  160.8430  209.5000  156.1350 C   0  0  0  0  0  0  0  0  0  0  0  0
  160.0140  208.8830  157.0560 F   0  0  0  0  0  0  0  0  0  0  0  0
  160.3460  210.7710  155.8910 F   0  0  0  0  0  0  0  0  0  0  0  0
  163.0140  210.5250  156.0220 O   0  0  0  0  0  1  0  0  0  0  0  0
  162.2390  209.6090  156.7360 C   0  0  0  0  0  2  0  0  0  0  0  0
  2  1  2  0  0  0  0
  2 15  1  0  0  0  0
  5 10  1  0  0  0  0
  6  4  1  6  0  0  0
  6  7  1  0  0  0  0
  6 11  1  0  0  0  0
  7  3  1  6  0  0  0
  7  9  1  0  0  0  0
  8 10  1  0  0  0  0
  8  1  1  1  0  0  0
  9  8  1  0  0  0  0
 11 13  1  6  0  0  0
 11  5  1  0  0  0  0
 12 13  1  0  0  0  0
 13 14  2  0  0  0  0
 15 19  1  0  0  0  0
 16 17  1  0  0  0  0
 16 21  1  0  0  0  0
 18 16  2  0  0  0  0
 19 17  2  0  0  0  0
 20 15  2  0  0  0  0
 20 18  1  0  0  0  0
 21 25  1  0  0  0  0
 21 22  1  0  0  0  0
 23 21  1  0  0  0  0
 24 25  1  0  0  0  0
M  END
>  <MODEL>
2

>  <REMARK>
 VINA RESULT:      -8.0      1.598      2.506
  Name = 
  5 active torsions:
  status: ('A' for Active; 'I' for Inactive)
    1  A    between atoms: C_1  and  C_7
    2  A    between atoms: C_1  and  C_14
    3  A    between atoms: C_3  and  N_12
    4  A    between atoms: C_5  and  C_17
    5  A    between atoms: C_19  and  C_24
                            x       y       z     vdW  Elec       q    Type
                         _______ _______ _______ _____ _____    ______ ____

>  <TORSDO>
F 5

$$$$
=
 OpenBabel11072415243D

 25 26  0  0  1  0  0  0  0  0999 V2000
  161.6580  208.3230  151.6720 C   0  0  0  0  0  3  0  0  0  0  0  0
  160.8230  207.5950  151.0010 N   0  0  0  0  0  0  0  0  0  0  0  0
  160.3590  206.9530  156.2240 Cl  0  0  0  0  0  0  0  0  0  0  0  0
  160.2870  209.8120  157.1270 O   0  0  0  0  0  1  0  0  0  0  0  0
  159.4890  210.8090  153.6270 C   0  0  0  0  0  2  0  0  0  0  0  0
  159.9450  209.6050  155.7860 C   0  0  2  0  0  3  0  0  0  0  0  0
  160.7370  208.4000  155.2560 C   0  0  2  0  0  3  0  0  0  0  0  0
  161.2170  209.0390  152.9000 C   0  0  2  0  0  3  0  0  0  0  0  0
  160.4440  208.0820  153.7950 C   0  0  0  0  0  2  0  0  0  0  0  0
  160.3930  210.2730  152.5170 C   0  0  0  0  0  2  0  0  0  0  0  0
  160.1970  210.8920  154.9750 C   0  0  2  0  0  3  0  0  0  0  0  0
  158.3140  212.3840  155.7510 N   0  0  0  0  0  1  0  0  0  0  0  0
  159.7090  212.1100  155.6970 C   0  0  0  0  0  0  0  0  0  0  0  0
  160.5210  212.8900  156.2650 O   0  0  0  0  0  0  0  0  0  0  0  0
  161.1850  206.8820  149.8120 C   0  0  0  0  0  0  0  0  0  0  0  0
  161.9180  205.5370  147.4500 C   0  0  0  0  0  0  0  0  0  0  0  0
  162.2910  206.8740  147.6530 C   0  0  0  0  0  3  0  0  0  0  0  0
  161.1890  204.8720  148.4470 C   0  0  0  0  0  3  0  0  0  0  0  0
  161.9230  207.5420  148.8250 C   0  0  0  0  0  3  0  0  0  0  0  0
  160.8220  205.5390  149.6190 C   0  0  0  0  0  3  0  0  0  0  0  0
  162.3510  204.8110  146.2050 C   0  0  0  0  0  0  0  0  0  0  0  0
  161.8680  203.5140  146.2320 F   0  0  0  0  0  0  0  0  0  0  0  0
  163.7350  204.7540  146.1300 F   0  0  0  0  0  0  0  0  0  0  0  0
  160.4180  205.6340  145.0380 O   0  0  0  0  0  1  0  0  0  0  0  0
  161.8060  205.5070  144.9640 C   0  0  0  0  0  2  0  0  0  0  0  0
  2  1  2  0  0  0  0
  5 11  1  0  0  0  0
  6  4  1  1  0  0  0
  7  6  1  0  0  0  0
  7  3  1  1  0  0  0
  8  1  1  6  0  0  0
  8  9  1  0  0  0  0
  9  7  1  0  0  0  0
 10  8  1  0  0  0  0
 10  5  1  0  0  0  0
 11 13  1  1  0  0  0
 11  6  1  0  0  0  0
 13 12  1  0  0  0  0
 13 14  2  0  0  0  0
 15  2  1  0  0  0  0
 16 17  2  0  0  0  0
 16 18  1  0  0  0  0
 17 19  1  0  0  0  0
 18 20  2  0  0  0  0
 19 15  2  0  0  0  0
 20 15  1  0  0  0  0
 21 22  1  0  0  0  0
 21 16  1  0  0  0  0
 23 21  1  0  0  0  0
 25 24  1  0  0  0  0
 25 21  1  0  0  0  0
M  END
>  <MODEL>
3

>  <REMARK>
 VINA RESULT:      -7.8      4.475      9.532
  Name = 
  5 active torsions:
  status: ('A' for Active; 'I' for Inactive)
    1  A    between atoms: C_1  and  C_7
    2  A    between atoms: C_1  and  C_14
    3  A    between atoms: C_3  and  N_12
    4  A    between atoms: C_5  and  C_17
    5  A    between atoms: C_19  and  C_24
                            x       y       z     vdW  Elec       q    Type
                         _______ _______ _______ _____ _____    ______ ____

>  <TORSDO>
F 5

$$$$
=
 OpenBabel11072415243D

 25 26  0  0  1  0  0  0  0  0999 V2000
  161.4410  205.0400  151.2320 C   0  0  0  0  0  3  0  0  0  0  0  0
  161.0750  206.2810  151.2840 N   0  0  0  0  0  0  0  0  0  0  0  0
  161.3080  206.3590  146.4850 Cl  0  0  0  0  0  0  0  0  0  0  0  0
  161.8190  203.5310  145.6260 O   0  0  0  0  0  1  0  0  0  0  0  0
  160.2020  202.3690  148.7750 C   0  0  0  0  0  2  0  0  0  0  0  0
  161.0970  203.6670  146.8160 C   0  0  2  0  0  3  0  0  0  0  0  0
  161.5660  204.9420  147.5340 C   0  0  2  0  0  3  0  0  0  0  0  0
  161.4440  204.3070  149.9360 C   0  0  2  0  0  3  0  0  0  0  0  0
  160.8450  205.1900  148.8530 C   0  0  0  0  0  2  0  0  0  0  0  0
  160.6950  202.9790  150.0860 C   0  0  0  0  0  2  0  0  0  0  0  0
  161.2600  202.3980  147.6780 C   0  0  2  0  0  3  0  0  0  0  0  0
  161.7320  199.9430  147.3230 N   0  0  0  0  0  1  0  0  0  0  0  0
  161.1360  201.1500  146.8590 C   0  0  0  0  0  0  0  0  0  0  0  0
  160.5050  201.1550  145.7690 O   0  0  0  0  0  0  0  0  0  0  0  0
  161.0510  207.0400  152.4980 C   0  0  0  0  0  0  0  0  0  0  0  0
  161.0230  208.5860  154.8500 C   0  0  0  0  0  0  0  0  0  0  0  0
  161.1460  209.2010  153.5960 C   0  0  0  0  0  3  0  0  0  0  0  0
  160.8950  207.1910  154.9180 C   0  0  0  0  0  3  0  0  0  0  0  0
  161.1650  208.4320  152.4290 C   0  0  0  0  0  3  0  0  0  0  0  0
  160.9130  206.4220  153.7520 C   0  0  0  0  0  3  0  0  0  0  0  0
  160.9630  209.4230  156.1010 C   0  0  0  0  0  0  0  0  0  0  0  0
  162.2480  209.7320  156.5140 F   0  0  0  0  0  0  0  0  0  0  0  0
  160.3380  208.7260  157.1240 F   0  0  0  0  0  0  0  0  0  0  0  0
  158.8370  210.5380  156.0040 O   0  0  0  0  0  1  0  0  0  0  0  0
  160.2110  210.7210  155.8390 C   0  0  0  0  0  2  0  0  0  0  0  0
  1  2  2  0  0  0  0
  2 15  1  0  0  0  0
  5 10  1  0  0  0  0
  6  4  1  6  0  0  0
  6  7  1  0  0  0  0
  6 11  1  0  0  0  0
  7  3  1  6  0  0  0
  7  9  1  0  0  0  0
  8 10  1  0  0  0  0
  8  1  1  1  0  0  0
  9  8  1  0  0  0  0
 11 13  1  6  0  0  0
 11  5  1  0  0  0  0
 13 12  1  0  0  0  0
 14 13  2  0  0  0  0
 15 20  1  0  0  0  0
 16 18  1  0  0  0  0
 16 21  1  0  0  0  0
 17 16  2  0  0  0  0
 19 15  2  0  0  0  0
 19 17  1  0  0  0  0
 20 18  2  0  0  0  0
 21 22  1  0  0  0  0
 21 23  1  0  0  0  0
 25 24  1  0  0  0  0
 25 21  1  0  0  0  0
M  END
>  <MODEL>
4

>  <REMARK>
 VINA RESULT:      -7.7      2.031      2.666
  Name = 
  5 active torsions:
  status: ('A' for Active; 'I' for Inactive)
    1  A    between atoms: C_1  and  C_7
    2  A    between atoms: C_1  and  C_14
    3  A    between atoms: C_3  and  N_12
    4  A    between atoms: C_5  and  C_17
    5  A    between atoms: C_19  and  C_24
                            x       y       z     vdW  Elec       q    Type
                         _______ _______ _______ _____ _____    ______ ____

>  <TORSDO>
F 5

$$$$
=
 OpenBabel11072415243D

 25 26  0  0  1  0  0  0  0  0999 V2000
  161.0260  206.1630  152.1660 C   0  0  0  0  0  3  0  0  0  0  0  0
  160.6980  206.0290  150.9200 N   0  0  0  0  0  0  0  0  0  0  0  0
  161.8160  210.8540  150.8790 Cl  0  0  0  0  0  0  0  0  0  0  0  0
  160.5490  211.8240  153.4190 O   0  0  0  0  0  1  0  0  0  0  0  0
  161.5680  208.6320  155.0480 C   0  0  0  0  0  2  0  0  0  0  0  0
  161.2090  210.5940  153.5180 C   0  0  2  0  0  3  0  0  0  0  0  0
  161.0930  209.8630  152.1720 C   0  0  2  0  0  3  0  0  0  0  0  0
  160.8840  207.4780  152.8470 C   0  0  2  0  0  3  0  0  0  0  0  0
  161.7770  208.5020  152.1650 C   0  0  0  0  0  2  0  0  0  0  0  0
  161.2000  207.3300  154.3390 C   0  0  0  0  0  2  0  0  0  0  0  0
  160.6300  209.7810  154.6940 C   0  0  2  0  0  3  0  0  0  0  0  0
  159.1170  211.0400  156.2740 N   0  0  0  0  0  1  0  0  0  0  0  0
  160.4300  210.6290  155.9120 C   0  0  0  0  0  0  0  0  0  0  0  0
  161.4110  210.9760  156.6230 O   0  0  0  0  0  0  0  0  0  0  0  0
  160.8100  204.7910  150.2080 C   0  0  0  0  0  0  0  0  0  0  0  0
  161.0330  202.3920  148.7530 C   0  0  0  0  0  0  0  0  0  0  0  0
  161.2280  203.6280  148.1210 C   0  0  0  0  0  3  0  0  0  0  0  0
  160.7440  202.3630  150.1260 C   0  0  0  0  0  3  0  0  0  0  0  0
  161.1130  204.8190  148.8440 C   0  0  0  0  0  3  0  0  0  0  0  0
  160.6290  203.5540  150.8490 C   0  0  0  0  0  3  0  0  0  0  0  0
  161.1990  201.1110  147.9790 C   0  0  0  0  0  0  0  0  0  0  0  0
  160.3540  200.1440  148.4960 F   0  0  0  0  0  0  0  0  0  0  0  0
  162.5010  200.6450  148.0800 F   0  0  0  0  0  0  0  0  0  0  0  0
  160.8930  200.1180  145.8120 O   0  0  0  0  0  1  0  0  0  0  0  0
  160.8500  201.3260  146.5110 C   0  0  0  0  0  2  0  0  0  0  0  0
  2  1  2  0  0  0  0
  6  4  1  6  0  0  0
  6 11  1  0  0  0  0
  7  3  1  6  0  0  0
  7  6  1  0  0  0  0
  8  1  1  6  0  0  0
  8 10  1  0  0  0  0
  9  7  1  0  0  0  0
  9  8  1  0  0  0  0
 10  5  1  0  0  0  0
 11  5  1  0  0  0  0
 11 13  1  1  0  0  0
 13 12  1  0  0  0  0
 13 14  2  0  0  0  0
 15 20  1  0  0  0  0
 15  2  1  0  0  0  0
 16 18  1  0  0  0  0
 17 16  2  0  0  0  0
 17 19  1  0  0  0  0
 18 20  2  0  0  0  0
 19 15  2  0  0  0  0
 21 23  1  0  0  0  0
 21 22  1  0  0  0  0
 21 16  1  0  0  0  0
 24 25  1  0  0  0  0
 25 21  1  0  0  0  0
M  END
>  <MODEL>
5

>  <REMARK>
 VINA RESULT:      -7.0      4.571      9.600
  Name = 
  5 active torsions:
  status: ('A' for Active; 'I' for Inactive)
    1  A    between atoms: C_1  and  C_7
    2  A    between atoms: C_1  and  C_14
    3  A    between atoms: C_3  and  N_12
    4  A    between atoms: C_5  and  C_17
    5  A    between atoms: C_19  and  C_24
                            x       y       z     vdW  Elec       q    Type
                         _______ _______ _______ _____ _____    ______ ____

>  <TORSDO>
F 5

$$$$
=
 OpenBabel11072415243D

 25 26  0  0  1  0  0  0  0  0999 V2000
  162.0050  207.0530  151.8560 C   0  0  0  0  0  3  0  0  0  0  0  0
  161.0910  206.9930  150.9410 N   0  0  0  0  0  0  0  0  0  0  0  0
  159.0880  206.5640  155.7970 Cl  0  0  0  0  0  0  0  0  0  0  0  0
  160.4720  208.8390  157.1760 O   0  0  0  0  0  1  0  0  0  0  0  0
  161.2880  210.2610  153.8300 C   0  0  0  0  0  2  0  0  0  0  0  0
  160.4140  208.9390  155.7820 C   0  0  2  0  0  3  0  0  0  0  0  0
  160.4580  207.5230  155.1850 C   0  0  2  0  0  3  0  0  0  0  0  0
  161.7790  207.8370  153.1000 C   0  0  2  0  0  3  0  0  0  0  0  0
  160.4040  207.5100  153.6630 C   0  0  0  0  0  2  0  0  0  0  0  0
  161.9490  209.3320  152.8120 C   0  0  0  0  0  2  0  0  0  0  0  0
  161.5560  209.8410  155.2710 C   0  0  2  0  0  3  0  0  0  0  0  0
  162.9630  211.3620  156.7130 N   0  0  0  0  0  1  0  0  0  0  0  0
  161.7080  211.0740  156.1080 C   0  0  0  0  0  0  0  0  0  0  0  0
  160.7390  211.8620  156.2760 O   0  0  0  0  0  0  0  0  0  0  0  0
  161.2480  206.2560  149.7230 C   0  0  0  0  0  0  0  0  0  0  0  0
  161.5620  204.8630  147.2970 C   0  0  0  0  0  0  0  0  0  0  0  0
  161.7830  206.2470  147.3570 C   0  0  0  0  0  3  0  0  0  0  0  0
  161.2000  204.1770  148.4650 C   0  0  0  0  0  3  0  0  0  0  0  0
  161.6230  206.9380  148.5610 C   0  0  0  0  0  3  0  0  0  0  0  0
  161.0400  204.8670  149.6690 C   0  0  0  0  0  3  0  0  0  0  0  0
  161.7750  204.1180  146.0060 C   0  0  0  0  0  0  0  0  0  0  0  0
  161.5780  202.7640  146.2140 F   0  0  0  0  0  0  0  0  0  0  0  0
  163.0710  204.2990  145.5470 F   0  0  0  0  0  0  0  0  0  0  0  0
  161.4470  205.3370  143.9610 O   0  0  0  0  0  1  0  0  0  0  0  0
  160.7910  204.5950  144.9450 C   0  0  0  0  0  2  0  0  0  0  0  0
  2  1  2  0  0  0  0
  5 11  1  0  0  0  0
  6  4  1  1  0  0  0
  7  6  1  0  0  0  0
  7  3  1  1  0  0  0
  8  1  1  6  0  0  0
  8  9  1  0  0  0  0
  9  7  1  0  0  0  0
 10  8  1  0  0  0  0
 10  5  1  0  0  0  0
 11  6  1  0  0  0  0
 11 13  1  1  0  0  0
 13 14  2  0  0  0  0
 13 12  1  0  0  0  0
 15  2  1  0  0  0  0
 16 17  2  0  0  0  0
 16 18  1  0  0  0  0
 17 19  1  0  0  0  0
 18 20  2  0  0  0  0
 19 15  2  0  0  0  0
 20 15  1  0  0  0  0
 21 22  1  0  0  0  0
 21 16  1  0  0  0  0
 23 21  1  0  0  0  0
 24 25  1  0  0  0  0
 25 21  1  0  0  0  0
M  END
>  <MODEL>
6

>  <REMARK>
 VINA RESULT:      -7.0      4.448      9.508
  Name = 
  5 active torsions:
  status: ('A' for Active; 'I' for Inactive)
    1  A    between atoms: C_1  and  C_7
    2  A    between atoms: C_1  and  C_14
    3  A    between atoms: C_3  and  N_12
    4  A    between atoms: C_5  and  C_17
    5  A    between atoms: C_19  and  C_24
                            x       y       z     vdW  Elec       q    Type
                         _______ _______ _______ _____ _____    ______ ____

>  <TORSDO>
F 5

$$$$
=
 OpenBabel11072415243D

 25 26  0  0  1  0  0  0  0  0999 V2000
  161.0490  208.5590  151.9960 C   0  0  0  0  0  3  0  0  0  0  0  0
  160.7970  207.2920  152.0770 N   0  0  0  0  0  0  0  0  0  0  0  0
  161.9610  208.1240  156.8200 Cl  0  0  0  0  0  0  0  0  0  0  0  0
  161.3250  211.0210  157.2600 O   0  0  0  0  0  1  0  0  0  0  0  0
  159.0610  210.8880  154.3050 C   0  0  0  0  0  2  0  0  0  0  0  0
  160.6100  210.4090  156.2260 C   0  0  2  0  0  3  0  0  0  0  0  0
  161.4940  209.3250  155.5900 C   0  0  2  0  0  3  0  0  0  0  0  0
  160.8760  209.4400  153.1830 C   0  0  2  0  0  3  0  0  0  0  0  0
  160.8150  208.5900  154.4420 C   0  0  0  0  0  2  0  0  0  0  0  0
  159.6280  210.3130  153.0080 C   0  0  0  0  0  2  0  0  0  0  0  0
  160.1390  211.4710  155.2120 C   0  0  2  0  0  3  0  0  0  0  0  0
  158.2620  212.6590  156.4110 N   0  0  0  0  0  1  0  0  0  0  0  0
  159.5870  212.6850  155.8930 C   0  0  0  0  0  0  0  0  0  0  0  0
  160.2860  213.7260  156.0190 O   0  0  0  0  0  0  0  0  0  0  0  0
  160.9440  206.3920  150.9730 C   0  0  0  0  0  0  0  0  0  0  0  0
  161.2450  204.5740  148.8450 C   0  0  0  0  0  0  0  0  0  0  0  0
  161.1310  204.1120  150.1640 C   0  0  0  0  0  3  0  0  0  0  0  0
  161.1890  205.9530  148.5950 C   0  0  0  0  0  3  0  0  0  0  0  0
  160.9860  205.0160  151.2200 C   0  0  0  0  0  3  0  0  0  0  0  0
  161.0440  206.8570  149.6500 C   0  0  0  0  0  3  0  0  0  0  0  0
  161.3600  203.5940  147.7070 C   0  0  0  0  0  0  0  0  0  0  0  0
  162.6930  203.3010  147.4800 F   0  0  0  0  0  0  0  0  0  0  0  0
  160.8330  204.1330  146.5440 F   0  0  0  0  0  0  0  0  0  0  0  0
  161.2160  201.2160  147.3860 O   0  0  0  0  0  1  0  0  0  0  0  0
  160.6280  202.3000  148.0410 C   0  0  0  0  0  2  0  0  0  0  0  0
  1  2  2  0  0  0  0
  5 11  1  0  0  0  0
  6  4  1  1  0  0  0
  7  6  1  0  0  0  0
  7  3  1  1  0  0  0
  8  1  1  6  0  0  0
  8  9  1  0  0  0  0
  9  7  1  0  0  0  0
 10  8  1  0  0  0  0
 10  5  1  0  0  0  0
 11 13  1  1  0  0  0
 11  6  1  0  0  0  0
 13 14  2  0  0  0  0
 13 12  1  0  0  0  0
 15 19  1  0  0  0  0
 15  2  1  0  0  0  0
 16 17  1  0  0  0  0
 17 19  2  0  0  0  0
 18 16  2  0  0  0  0
 18 20  1  0  0  0  0
 20 15  2  0  0  0  0
 21 25  1  0  0  0  0
 21 16  1  0  0  0  0
 22 21  1  0  0  0  0
 23 21  1  0  0  0  0
 24 25  1  0  0  0  0
M  END
>  <MODEL>
7

>  <REMARK>
 VINA RESULT:      -6.8      4.461      9.712
  Name = 
  5 active torsions:
  status: ('A' for Active; 'I' for Inactive)
    1  A    between atoms: C_1  and  C_7
    2  A    between atoms: C_1  and  C_14
    3  A    between atoms: C_3  and  N_12
    4  A    between atoms: C_5  and  C_17
    5  A    between atoms: C_19  and  C_24
                            x       y       z     vdW  Elec       q    Type
                         _______ _______ _______ _____ _____    ______ ____

>  <TORSDO>
F 5

$$$$
=
 OpenBabel11072415243D

 25 26  0  0  1  0  0  0  0  0999 V2000
  161.3840  206.7740  151.7940 C   0  0  0  0  0  3  0  0  0  0  0  0
  161.3100  205.4820  151.8580 N   0  0  0  0  0  0  0  0  0  0  0  0
  159.2530  206.6380  156.2360 Cl  0  0  0  0  0  0  0  0  0  0  0  0
  161.1190  208.7510  157.2590 O   0  0  0  0  0  1  0  0  0  0  0  0
  161.4190  210.0530  153.7810 C   0  0  0  0  0  2  0  0  0  0  0  0
  160.8020  208.8490  155.9000 C   0  0  2  0  0  3  0  0  0  0  0  0
  160.5750  207.4340  155.3450 C   0  0  2  0  0  3  0  0  0  0  0  0
  161.4900  207.5850  153.0370 C   0  0  2  0  0  3  0  0  0  0  0  0
  160.2240  207.4180  153.8630 C   0  0  0  0  0  2  0  0  0  0  0  0
  161.7650  209.0500  152.6810 C   0  0  0  0  0  2  0  0  0  0  0  0
  161.9140  209.6140  155.1550 C   0  0  2  0  0  3  0  0  0  0  0  0
  163.7510  211.0790  156.0800 N   0  0  0  0  0  1  0  0  0  0  0  0
  162.3600  210.8260  155.9130 C   0  0  0  0  0  0  0  0  0  0  0  0
  161.5180  211.6280  156.3980 O   0  0  0  0  0  0  0  0  0  0  0  0
  161.2070  204.6460  150.6990 C   0  0  0  0  0  0  0  0  0  0  0  0
  160.9960  202.9490  148.4630 C   0  0  0  0  0  0  0  0  0  0  0  0
  160.6800  202.4780  149.7460 C   0  0  0  0  0  3  0  0  0  0  0  0
  161.4010  204.2830  148.3050 C   0  0  0  0  0  3  0  0  0  0  0  0
  160.7890  203.3210  150.8560 C   0  0  0  0  0  3  0  0  0  0  0  0
  161.5100  205.1250  149.4140 C   0  0  0  0  0  3  0  0  0  0  0  0
  160.8370  202.0500  147.2660 C   0  0  0  0  0  0  0  0  0  0  0  0
  159.5170  201.6480  147.1590 F   0  0  0  0  0  0  0  0  0  0  0  0
  161.6230  200.9150  147.4010 F   0  0  0  0  0  0  0  0  0  0  0  0
  160.2190  202.6730  145.0290 O   0  0  0  0  0  1  0  0  0  0  0  0
  161.2260  202.7860  145.9900 C   0  0  0  0  0  2  0  0  0  0  0  0
  1  2  2  0  0  0  0
  5 11  1  0  0  0  0
  6  4  1  1  0  0  0
  7  6  1  0  0  0  0
  7  3  1  1  0  0  0
  8  1  1  6  0  0  0
  8  9  1  0  0  0  0
  9  7  1  0  0  0  0
 10  8  1  0  0  0  0
 10  5  1  0  0  0  0
 11  6  1  0  0  0  0
 11 13  1  1  0  0  0
 13 12  1  0  0  0  0
 13 14  2  0  0  0  0
 15 19  1  0  0  0  0
 15  2  1  0  0  0  0
 16 17  1  0  0  0  0
 17 19  2  0  0  0  0
 18 16  2  0  0  0  0
 18 20  1  0  0  0  0
 20 15  2  0  0  0  0
 21 23  1  0  0  0  0
 21 16  1  0  0  0  0
 22 21  1  0  0  0  0
 24 25  1  0  0  0  0
 25 21  1  0  0  0  0
M  END
>  <MODEL>
8

>  <REMARK>
 VINA RESULT:      -6.6      4.421      9.568
  Name = 
  5 active torsions:
  status: ('A' for Active; 'I' for Inactive)
    1  A    between atoms: C_1  and  C_7
    2  A    between atoms: C_1  and  C_14
    3  A    between atoms: C_3  and  N_12
    4  A    between atoms: C_5  and  C_17
    5  A    between atoms: C_19  and  C_24
                            x       y       z     vdW  Elec       q    Type
                         _______ _______ _______ _____ _____    ______ ____

>  <TORSDO>
F 5

$$$$
=
 OpenBabel11072415243D

 25 26  0  0  1  0  0  0  0  0999 V2000
  161.0530  206.9400  151.1880 C   0  0  0  0  0  3  0  0  0  0  0  0
  160.4550  205.7920  151.1570 N   0  0  0  0  0  0  0  0  0  0  0  0
  160.8070  211.8440  151.6170 Cl  0  0  0  0  0  0  0  0  0  0  0  0
  159.8550  211.6060  154.4510 O   0  0  0  0  0  1  0  0  0  0  0  0
  161.6650  208.3580  154.6980 C   0  0  0  0  0  2  0  0  0  0  0  0
  160.7200  210.5900  154.0290 C   0  0  2  0  0  3  0  0  0  0  0  0
  160.4970  210.3450  152.5290 C   0  0  2  0  0  3  0  0  0  0  0  0
  160.8120  207.8870  152.3110 C   0  0  2  0  0  3  0  0  0  0  0  0
  161.3880  209.2500  151.9590 C   0  0  0  0  0  2  0  0  0  0  0  0
  161.4040  207.3210  153.6060 C   0  0  0  0  0  2  0  0  0  0  0  0
  160.5000  209.3250  154.8830 C   0  0  2  0  0  3  0  0  0  0  0  0
  161.3280  209.1330  157.2600 N   0  0  0  0  0  1  0  0  0  0  0  0
  160.3740  209.6510  156.3400 C   0  0  0  0  0  0  0  0  0  0  0  0
  159.4380  210.3840  156.7570 O   0  0  0  0  0  0  0  0  0  0  0  0
  160.6450  204.8380  150.1060 C   0  0  0  0  0  0  0  0  0  0  0  0
  161.0150  202.9140  148.0840 C   0  0  0  0  0  0  0  0  0  0  0  0
  160.6210  202.5260  149.3730 C   0  0  0  0  0  3  0  0  0  0  0  0
  161.2050  204.2770  147.8090 C   0  0  0  0  0  3  0  0  0  0  0  0
  160.4420  203.4820  150.3770 C   0  0  0  0  0  3  0  0  0  0  0  0
  161.0250  205.2330  148.8120 C   0  0  0  0  0  3  0  0  0  0  0  0
  161.1670  201.8850  146.9960 C   0  0  0  0  0  0  0  0  0  0  0  0
  162.0080  202.3720  146.0110 F   0  0  0  0  0  0  0  0  0  0  0  0
  159.9390  201.6040  146.4160 F   0  0  0  0  0  0  0  0  0  0  0  0
  161.5870  199.5420  146.6650 O   0  0  0  0  0  1  0  0  0  0  0  0
  161.7670  200.6010  147.5560 C   0  0  0  0  0  2  0  0  0  0  0  0
  2  1  2  0  0  0  0
  5 11  1  0  0  0  0
  6  4  1  1  0  0  0
  6 11  1  0  0  0  0
  7  3  1  6  0  0  0
  7  6  1  0  0  0  0
  8  1  1  6  0  0  0
  8 10  1  0  0  0  0
  9  8  1  0  0  0  0
  9  7  1  0  0  0  0
 10  5  1  0  0  0  0
 11 13  1  1  0  0  0
 13 14  2  0  0  0  0
 13 12  1  0  0  0  0
 15 19  1  0  0  0  0
 15  2  1  0  0  0  0
 16 17  1  0  0  0  0
 17 19  2  0  0  0  0
 18 16  2  0  0  0  0
 18 20  1  0  0  0  0
 20 15  2  0  0  0  0
 21 25  1  0  0  0  0
 21 16  1  0  0  0  0
 22 21  1  0  0  0  0
 23 21  1  0  0  0  0
 24 25  1  0  0  0  0
M  END
>  <MODEL>
9

>  <REMARK>
 VINA RESULT:      -6.0      4.793      9.768
  Name = 
  5 active torsions:
  status: ('A' for Active; 'I' for Inactive)
    1  A    between atoms: C_1  and  C_7
    2  A    between atoms: C_1  and  C_14
    3  A    between atoms: C_3  and  N_12
    4  A    between atoms: C_5  and  C_17
    5  A    between atoms: C_19  and  C_24
                            x       y       z     vdW  Elec       q    Type
                         _______ _______ _______ _____ _____    ______ ____

>  <TORSDO>
F 5

$$$$
