=
 OpenBabel11072414363D

 36 37  0  0  1  0  0  0  0  0999 V2000
  161.1400  205.1240  151.9000 C   0  0  0  0  0  0  0  0  0  0  0  0
  161.0000  203.7500  149.9160 C   0  0  0  0  0  0  0  0  0  0  0  0
  161.0780  203.8590  151.3180 C   0  0  0  0  0  3  0  0  0  0  0  0
  161.1880  207.6250  152.0910 S   0  0  0  0  0  0  0  0  0  0  0  0
  160.9820  204.9190  149.1240 C   0  0  0  0  0  3  0  0  0  0  0  0
  161.1220  206.2630  151.1080 C   0  0  0  0  0  0  0  0  0  0  0  0
  161.2590  206.7470  153.5320 C   0  0  0  0  0  0  0  0  0  0  0  0
  161.0500  206.1890  149.7160 C   0  0  0  0  0  0  0  0  0  0  0  0
  161.2090  205.3790  153.2730 C   0  0  0  0  0  3  0  0  0  0  0  0
  160.9270  202.4240  149.2800 C   0  0  0  0  0  0  0  0  0  0  0  0
  161.1540  202.2960  148.0470 O   0  0  0  0  0  0  0  0  0  0  0  0
  160.6000  201.2700  150.0480 N   0  0  0  0  0  1  0  0  0  0  0  0
  161.2750  207.3520  154.8910 C   0  0  0  0  0  2  0  0  0  0  0  0
  160.3110  208.3610  154.9700 O   0  0  0  0  0  0  0  0  0  0  0  0
  162.0390  208.8510  156.4460 N   0  0  0  0  0  1  0  0  0  0  0  0
  160.9280  209.3910  155.6810 C   0  0  1  0  0  3  0  0  0  0  0  0
  161.4360  210.4470  154.7080 C   0  0  0  0  0  2  0  0  0  0  0  0
  160.3200  211.3250  154.2420 C   0  0  0  0  0  0  0  0  0  0  0  0
  160.0190  212.3900  154.8910 N   0  0  0  0  0  2  0  0  0  0  0  0
  159.6520  211.0370  152.9430 C   0  0  0  0  0  1  0  0  0  0  0  0
  160.9900  207.4170  148.8720 C   0  0  0  0  0  2  0  0  0  0  0  0
  162.1060  208.2850  149.1990 N   0  0  0  0  0  2  0  0  0  0  0  0
  162.0430  209.4150  148.2880 C   0  0  0  0  0  2  0  0  0  0  0  0
  162.0300  210.6470  150.3190 O   0  0  0  0  0  0  0  0  0  0  0  0
  162.1350  210.6870  149.0630 C   0  0  0  0  0  0  0  0  0  0  0  0
  163.5490  212.3270  147.9580 C   0  0  0  0  0  2  0  0  0  0  0  0
  162.3320  211.9760  148.3710 C   0  0  0  0  0  0  0  0  0  0  0  0
  160.5040  213.2680  149.4820 C   0  0  0  0  0  1  0  0  0  0  0  0
  161.1640  212.9040  148.1630 C   0  0  2  0  0  3  0  0  0  0  0  0
  160.1340  212.3170  147.2060 C   0  0  0  0  0  2  0  0  0  0  0  0
  160.3780  212.7990  145.8170 C   0  0  0  0  0  0  0  0  0  0  0  0
  161.1430  213.7810  145.6310 O   0  0  0  0  0  0  0  0  0  0  0  0
  159.7880  212.0970  144.7160 N   0  0  0  0  0  2  0  0  0  0  0  0
  158.9470  213.5920  142.8780 C   0  0  0  0  0  1  0  0  0  0  0  0
  160.8890  211.8370  142.2710 S   0  0  0  0  0  0  0  0  0  0  0  0
  159.8160  212.4760  143.3330 C   0  0  0  0  0  0  0  0  0  0  0  0
  1  9  1  0  0  0  0
  2  3  2  0  0  0  0
  3  1  1  0  0  0  0
  4  7  1  0  0  0  0
  5  8  2  0  0  0  0
  5  2  1  0  0  0  0
  6  1  2  0  0  0  0
  6  4  1  0  0  0  0
  7 13  1  0  0  0  0
  8  6  1  0  0  0  0
  9  7  2  0  0  0  0
 10  2  1  0  0  0  0
 10 12  1  0  0  0  0
 11 10  2  0  0  0  0
 13 14  1  0  0  0  0
 14 16  1  0  0  0  0
 16 15  1  6  0  0  0
 17 16  1  0  0  0  0
 18 17  1  0  0  0  0
 18 19  2  0  0  0  0
 20 18  1  0  0  0  0
 21 22  1  0  0  0  0
 21  8  1  0  0  0  0
 23 25  1  0  0  0  0
 23 22  1  0  0  0  0
 25 24  2  0  0  0  0
 26 27  2  0  0  0  0
 27 25  1  0  0  0  0
 29 27  1  0  0  0  0
 29 28  1  1  0  0  0
 30 29  1  0  0  0  0
 31 30  1  0  0  0  0
 32 31  2  0  0  0  0
 33 31  1  0  0  0  0
 34 36  1  0  0  0  0
 35 36  2  0  0  0  0
 36 33  1  0  0  0  0
M  END
>  <MODEL>
1

>  <REMARK>
 VINA RESULT:      -7.4      0.000      0.000
  Name = 
  15 active torsions:
  status: ('A' for Active; 'I' for Inactive)
    1  A    between atoms: C_2  and  O_25
    2  A    between atoms: C_2  and  C_30
    3  A    between atoms: C_5  and  C_19
    4  A    between atoms: C_8  and  N_13
    5  A    between atoms: C_8  and  C_33
    6  A    between atoms: C_10  and  C_12
    7  A    between atoms: C_12  and  C_31
    8  A    between atoms: N_13  and  C_32
    9  A    between atoms: C_14  and  C_21
   10  A    between atoms: C_16  and  C_32
   11  A    between atoms: C_16  and  C_36
   12  A    between atoms: C_18  and  N_20
   13  A    between atoms: C_19  and  C_28
   14  A    between atoms: O_25  and  C_31
   15  A    between atoms: C_28  and  C_36
                            x       y       z     vdW  Elec       q    Type
                         _______ _______ _______ _____ _____    ______ ____

>  <TORSDO>
F 15

$$$$
=
 OpenBabel11072414363D

 36 37  0  0  1  0  0  0  0  0999 V2000
  161.1680  207.3540  153.5920 C   0  0  0  0  0  0  0  0  0  0  0  0
  161.3320  205.3280  152.2830 C   0  0  0  0  0  0  0  0  0  0  0  0
  161.0140  205.9720  153.4950 C   0  0  0  0  0  3  0  0  0  0  0  0
  161.6880  209.7160  152.9210 S   0  0  0  0  0  0  0  0  0  0  0  0
  161.7960  206.0890  151.1880 C   0  0  0  0  0  3  0  0  0  0  0  0
  161.6270  208.0870  152.5060 C   0  0  0  0  0  0  0  0  0  0  0  0
  161.1420  209.4720  154.5010 C   0  0  0  0  0  0  0  0  0  0  0  0
  161.9540  207.4790  151.2930 C   0  0  0  0  0  0  0  0  0  0  0  0
  160.8830  208.1210  154.7250 C   0  0  0  0  0  3  0  0  0  0  0  0
  161.1700  203.8700  152.1560 C   0  0  0  0  0  0  0  0  0  0  0  0
  160.1340  203.3040  152.5960 O   0  0  0  0  0  0  0  0  0  0  0  0
  162.1800  203.0820  151.5340 N   0  0  0  0  0  1  0  0  0  0  0  0
  160.8850  210.5580  155.4840 C   0  0  0  0  0  2  0  0  0  0  0  0
  160.8490  211.7910  154.8260 O   0  0  0  0  0  0  0  0  0  0  0  0
  160.0780  213.3180  156.4000 N   0  0  0  0  0  1  0  0  0  0  0  0
  159.7060  212.4250  155.3160 C   0  0  1  0  0  3  0  0  0  0  0  0
  159.0450  213.2180  154.1970 C   0  0  0  0  0  2  0  0  0  0  0  0
  159.0140  212.4290  152.9280 C   0  0  0  0  0  0  0  0  0  0  0  0
  158.3420  211.3390  152.8600 N   0  0  0  0  0  2  0  0  0  0  0  0
  159.6490  212.9840  151.7020 C   0  0  0  0  0  1  0  0  0  0  0  0
  162.4070  208.2770  150.1180 C   0  0  0  0  0  2  0  0  0  0  0  0
  161.3840  208.2490  149.0900 N   0  0  0  0  0  2  0  0  0  0  0  0
  161.9280  207.4970  147.9730 C   0  0  0  0  0  2  0  0  0  0  0  0
  160.0680  206.0770  148.3790 O   0  0  0  0  0  0  0  0  0  0  0  0
  160.9570  206.4400  147.5620 C   0  0  0  0  0  0  0  0  0  0  0  0
  160.3540  206.3380  145.2090 C   0  0  0  0  0  2  0  0  0  0  0  0
  161.0420  205.8200  146.2250 C   0  0  0  0  0  0  0  0  0  0  0  0
  163.2240  204.9250  145.4010 C   0  0  0  0  0  1  0  0  0  0  0  0
  161.8810  204.5850  146.0220 C   0  0  2  0  0  3  0  0  0  0  0  0
  161.1620  203.5420  145.1760 C   0  0  0  0  0  2  0  0  0  0  0  0
  160.8360  202.3400  145.9950 C   0  0  0  0  0  0  0  0  0  0  0  0
  160.3310  201.3320  145.4360 O   0  0  0  0  0  0  0  0  0  0  0  0
  161.1630  202.3310  147.3900 N   0  0  0  0  0  2  0  0  0  0  0  0
  161.6930  200.1180  148.4590 C   0  0  0  0  0  1  0  0  0  0  0  0
  159.6230  201.5180  149.4470 S   0  0  0  0  0  0  0  0  0  0  0  0
  160.8270  201.3210  148.3520 C   0  0  0  0  0  0  0  0  0  0  0  0
  1  9  1  0  0  0  0
  2  3  2  0  0  0  0
  3  1  1  0  0  0  0
  4  7  1  0  0  0  0
  5  8  2  0  0  0  0
  5  2  1  0  0  0  0
  6  4  1  0  0  0  0
  6  1  2  0  0  0  0
  7  9  2  0  0  0  0
  7 13  1  0  0  0  0
  8  6  1  0  0  0  0
 10  2  1  0  0  0  0
 10 11  2  0  0  0  0
 12 10  1  0  0  0  0
 14 16  1  0  0  0  0
 14 13  1  0  0  0  0
 16 15  1  1  0  0  0
 17 16  1  0  0  0  0
 18 17  1  0  0  0  0
 19 18  2  0  0  0  0
 20 18  1  0  0  0  0
 21  8  1  0  0  0  0
 22 21  1  0  0  0  0
 23 22  1  0  0  0  0
 25 23  1  0  0  0  0
 25 24  2  0  0  0  0
 26 27  2  0  0  0  0
 27 25  1  0  0  0  0
 29 28  1  6  0  0  0
 29 27  1  0  0  0  0
 30 31  1  0  0  0  0
 30 29  1  0  0  0  0
 31 33  1  0  0  0  0
 32 31  2  0  0  0  0
 33 36  1  0  0  0  0
 36 34  1  0  0  0  0
 36 35  2  0  0  0  0
M  END
>  <MODEL>
2

>  <REMARK>
 VINA RESULT:      -7.3      3.951      6.461
  Name = 
  15 active torsions:
  status: ('A' for Active; 'I' for Inactive)
    1  A    between atoms: C_2  and  O_25
    2  A    between atoms: C_2  and  C_30
    3  A    between atoms: C_5  and  C_19
    4  A    between atoms: C_8  and  N_13
    5  A    between atoms: C_8  and  C_33
    6  A    between atoms: C_10  and  C_12
    7  A    between atoms: C_12  and  C_31
    8  A    between atoms: N_13  and  C_32
    9  A    between atoms: C_14  and  C_21
   10  A    between atoms: C_16  and  C_32
   11  A    between atoms: C_16  and  C_36
   12  A    between atoms: C_18  and  N_20
   13  A    between atoms: C_19  and  C_28
   14  A    between atoms: O_25  and  C_31
   15  A    between atoms: C_28  and  C_36
                            x       y       z     vdW  Elec       q    Type
                         _______ _______ _______ _____ _____    ______ ____

>  <TORSDO>
F 15

$$$$
=
 OpenBabel11072414363D

 36 37  0  0  1  0  0  0  0  0999 V2000
  161.1470  205.6520  150.0210 C   0  0  0  0  0  0  0  0  0  0  0  0
  161.6840  207.9780  150.4050 C   0  0  0  0  0  0  0  0  0  0  0  0
  161.4180  206.9210  149.5120 C   0  0  0  0  0  3  0  0  0  0  0  0
  160.7630  203.8210  151.6940 S   0  0  0  0  0  0  0  0  0  0  0  0
  161.6690  207.7370  151.7960 C   0  0  0  0  0  3  0  0  0  0  0  0
  161.1370  205.4320  151.3910 C   0  0  0  0  0  0  0  0  0  0  0  0
  160.6330  203.4050  150.0620 C   0  0  0  0  0  0  0  0  0  0  0  0
  161.4010  206.4570  152.3020 C   0  0  0  0  0  0  0  0  0  0  0  0
  160.8570  204.5190  149.2550 C   0  0  0  0  0  3  0  0  0  0  0  0
  161.9660  209.3280  149.8890 C   0  0  0  0  0  0  0  0  0  0  0  0
  162.1540  209.5120  148.6570 O   0  0  0  0  0  0  0  0  0  0  0  0
  162.0300  210.4420  150.7750 N   0  0  0  0  0  1  0  0  0  0  0  0
  160.2410  202.0610  149.5610 C   0  0  0  0  0  2  0  0  0  0  0  0
  161.3820  201.2740  149.3790 O   0  0  0  0  0  0  0  0  0  0  0  0
  161.6920  199.7530  147.6480 N   0  0  0  0  0  1  0  0  0  0  0  0
  161.5170  201.1530  147.9960 C   0  0  1  0  0  3  0  0  0  0  0  0
  160.2730  201.7030  147.3130 C   0  0  0  0  0  2  0  0  0  0  0  0
  160.5500  202.0340  145.8820 C   0  0  0  0  0  0  0  0  0  0  0  0
  160.0180  201.3430  144.9420 N   0  0  0  0  0  2  0  0  0  0  0  0
  161.3310  203.2570  145.5500 C   0  0  0  0  0  1  0  0  0  0  0  0
  161.3480  206.2240  153.7740 C   0  0  0  0  0  2  0  0  0  0  0  0
  160.3490  207.0940  154.3670 N   0  0  0  0  0  2  0  0  0  0  0  0
  160.5990  207.1100  155.7970 C   0  0  0  0  0  2  0  0  0  0  0  0
  162.2260  208.4780  156.8570 O   0  0  0  0  0  0  0  0  0  0  0  0
  161.1550  208.4380  156.1920 C   0  0  0  0  0  0  0  0  0  0  0  0
  159.5000  210.1690  156.6120 C   0  0  0  0  0  2  0  0  0  0  0  0
  160.4590  209.6850  155.8220 C   0  0  0  0  0  0  0  0  0  0  0  0
  162.3130  210.4280  154.3220 C   0  0  0  0  0  1  0  0  0  0  0  0
  160.8100  210.3910  154.5390 C   0  0  2  0  0  3  0  0  0  0  0  0
  160.2390  211.8020  154.4900 C   0  0  0  0  0  2  0  0  0  0  0  0
  159.4130  211.9890  153.2640 C   0  0  0  0  0  0  0  0  0  0  0  0
  159.0810  210.9820  152.5850 O   0  0  0  0  0  0  0  0  0  0  0  0
  158.9600  213.3030  152.9160 N   0  0  0  0  0  2  0  0  0  0  0  0
  156.8620  214.1820  151.8440 C   0  0  0  0  0  1  0  0  0  0  0  0
  158.9940  213.7670  150.2610 S   0  0  0  0  0  0  0  0  0  0  0  0
  158.2600  213.6900  151.7240 C   0  0  0  0  0  0  0  0  0  0  0  0
  1  6  1  0  0  0  0
  2  5  2  0  0  0  0
  3  1  2  0  0  0  0
  3  2  1  0  0  0  0
  5  8  1  0  0  0  0
  6  4  1  0  0  0  0
  6  8  2  0  0  0  0
  7  4  1  0  0  0  0
  8 21  1  0  0  0  0
  9  1  1  0  0  0  0
  9  7  2  0  0  0  0
 10  2  1  0  0  0  0
 10 12  1  0  0  0  0
 11 10  2  0  0  0  0
 13  7  1  0  0  0  0
 14 13  1  0  0  0  0
 16 15  1  1  0  0  0
 16 14  1  0  0  0  0
 17 16  1  0  0  0  0
 18 17  1  0  0  0  0
 19 18  2  0  0  0  0
 20 18  1  0  0  0  0
 21 22  1  0  0  0  0
 22 23  1  0  0  0  0
 23 25  1  0  0  0  0
 25 24  2  0  0  0  0
 27 25  1  0  0  0  0
 27 26  2  0  0  0  0
 29 28  1  1  0  0  0
 29 27  1  0  0  0  0
 30 29  1  0  0  0  0
 31 30  1  0  0  0  0
 32 31  2  0  0  0  0
 33 31  1  0  0  0  0
 35 36  2  0  0  0  0
 36 34  1  0  0  0  0
 36 33  1  0  0  0  0
M  END
>  <MODEL>
3

>  <REMARK>
 VINA RESULT:      -7.1      3.562      7.986
  Name = 
  15 active torsions:
  status: ('A' for Active; 'I' for Inactive)
    1  A    between atoms: C_2  and  O_25
    2  A    between atoms: C_2  and  C_30
    3  A    between atoms: C_5  and  C_19
    4  A    between atoms: C_8  and  N_13
    5  A    between atoms: C_8  and  C_33
    6  A    between atoms: C_10  and  C_12
    7  A    between atoms: C_12  and  C_31
    8  A    between atoms: N_13  and  C_32
    9  A    between atoms: C_14  and  C_21
   10  A    between atoms: C_16  and  C_32
   11  A    between atoms: C_16  and  C_36
   12  A    between atoms: C_18  and  N_20
   13  A    between atoms: C_19  and  C_28
   14  A    between atoms: O_25  and  C_31
   15  A    between atoms: C_28  and  C_36
                            x       y       z     vdW  Elec       q    Type
                         _______ _______ _______ _____ _____    ______ ____

>  <TORSDO>
F 15

$$$$
=
 OpenBabel11072414363D

 36 37  0  0  1  0  0  0  0  0999 V2000
  161.0910  205.9120  153.0010 C   0  0  0  0  0  0  0  0  0  0  0  0
  161.0780  207.4370  154.8780 C   0  0  0  0  0  0  0  0  0  0  0  0
  161.1400  206.1210  154.3790 C   0  0  0  0  0  3  0  0  0  0  0  0
  160.9700  206.4250  150.5480 S   0  0  0  0  0  0  0  0  0  0  0  0
  160.9720  208.5200  153.9790 C   0  0  0  0  0  3  0  0  0  0  0  0
  160.9860  206.9880  152.1310 C   0  0  0  0  0  0  0  0  0  0  0  0
  161.0800  204.7960  150.9850 C   0  0  0  0  0  0  0  0  0  0  0  0
  160.9180  208.3040  152.5940 C   0  0  0  0  0  0  0  0  0  0  0  0
  161.1530  204.6670  152.3700 C   0  0  0  0  0  3  0  0  0  0  0  0
  161.1340  207.6810  156.3290 C   0  0  0  0  0  0  0  0  0  0  0  0
  160.3540  207.0710  157.1080 O   0  0  0  0  0  0  0  0  0  0  0  0
  162.0700  208.6080  156.8710 N   0  0  0  0  0  1  0  0  0  0  0  0
  161.1800  203.6670  150.0210 C   0  0  0  0  0  2  0  0  0  0  0  0
  161.1360  204.1580  148.7130 O   0  0  0  0  0  0  0  0  0  0  0  0
  160.7280  201.9110  148.2790 N   0  0  0  0  0  1  0  0  0  0  0  0
  161.5120  203.0780  147.9130 C   0  0  1  0  0  3  0  0  0  0  0  0
  161.2740  203.4230  146.4500 C   0  0  0  0  0  2  0  0  0  0  0  0
  161.8960  204.7370  146.1020 C   0  0  0  0  0  0  0  0  0  0  0  0
  163.1700  204.8480  146.0140 N   0  0  0  0  0  2  0  0  0  0  0  0
  161.0250  205.8820  145.7170 C   0  0  0  0  0  1  0  0  0  0  0  0
  160.8470  209.4580  151.6530 C   0  0  0  0  0  2  0  0  0  0  0  0
  162.1620  209.7110  151.0950 N   0  0  0  0  0  2  0  0  0  0  0  0
  162.1050  211.0130  150.4530 C   0  0  0  0  0  2  0  0  0  0  0  0
  162.0940  209.6720  148.4930 O   0  0  0  0  0  0  0  0  0  0  0  0
  162.0890  210.8390  148.9710 C   0  0  0  0  0  0  0  0  0  0  0  0
  163.2340  212.5470  147.6730 C   0  0  0  0  0  2  0  0  0  0  0  0
  162.0820  212.0120  148.0760 C   0  0  0  0  0  0  0  0  0  0  0  0
  160.6000  212.5530  146.1380 C   0  0  0  0  0  1  0  0  0  0  0  0
  160.7720  212.6210  147.6450 C   0  0  2  0  0  3  0  0  0  0  0  0
  160.6290  214.0600  148.1250 C   0  0  0  0  0  2  0  0  0  0  0  0
  159.8080  214.1160  149.3680 C   0  0  0  0  0  0  0  0  0  0  0  0
  160.3760  214.3170  150.4730 O   0  0  0  0  0  0  0  0  0  0  0  0
  158.3820  214.0050  149.2730 N   0  0  0  0  0  2  0  0  0  0  0  0
  155.9980  214.0850  150.0670 C   0  0  0  0  0  1  0  0  0  0  0  0
  157.8980  213.4970  151.8750 S   0  0  0  0  0  0  0  0  0  0  0  0
  157.4470  213.9240  150.3580 C   0  0  0  0  0  0  0  0  0  0  0  0
  1  3  1  0  0  0  0
  2 10  1  0  0  0  0
  3  2  2  0  0  0  0
  4  7  1  0  0  0  0
  4  6  1  0  0  0  0
  5  2  1  0  0  0  0
  6  8  1  0  0  0  0
  6  1  2  0  0  0  0
  7  9  2  0  0  0  0
  8  5  2  0  0  0  0
  9  1  1  0  0  0  0
 10 12  1  0  0  0  0
 10 11  2  0  0  0  0
 13  7  1  0  0  0  0
 14 13  1  0  0  0  0
 16 15  1  1  0  0  0
 16 14  1  0  0  0  0
 17 16  1  0  0  0  0
 18 17  1  0  0  0  0
 19 18  2  0  0  0  0
 20 18  1  0  0  0  0
 21  8  1  0  0  0  0
 22 21  1  0  0  0  0
 23 22  1  0  0  0  0
 24 25  2  0  0  0  0
 25 23  1  0  0  0  0
 26 27  2  0  0  0  0
 27 25  1  0  0  0  0
 29 28  1  6  0  0  0
 29 27  1  0  0  0  0
 29 30  1  0  0  0  0
 30 31  1  0  0  0  0
 31 32  2  0  0  0  0
 33 31  1  0  0  0  0
 33 36  1  0  0  0  0
 34 36  1  0  0  0  0
 36 35  2  0  0  0  0
M  END
>  <MODEL>
4

>  <REMARK>
 VINA RESULT:      -7.0      2.750      6.470
  Name = 
  15 active torsions:
  status: ('A' for Active; 'I' for Inactive)
    1  A    between atoms: C_2  and  O_25
    2  A    between atoms: C_2  and  C_30
    3  A    between atoms: C_5  and  C_19
    4  A    between atoms: C_8  and  N_13
    5  A    between atoms: C_8  and  C_33
    6  A    between atoms: C_10  and  C_12
    7  A    between atoms: C_12  and  C_31
    8  A    between atoms: N_13  and  C_32
    9  A    between atoms: C_14  and  C_21
   10  A    between atoms: C_16  and  C_32
   11  A    between atoms: C_16  and  C_36
   12  A    between atoms: C_18  and  N_20
   13  A    between atoms: C_19  and  C_28
   14  A    between atoms: O_25  and  C_31
   15  A    between atoms: C_28  and  C_36
                            x       y       z     vdW  Elec       q    Type
                         _______ _______ _______ _____ _____    ______ ____

>  <TORSDO>
F 15

$$$$
=
 OpenBabel11072414363D

 36 37  0  0  1  0  0  0  0  0999 V2000
  161.3850  209.2670  152.2560 C   0  0  0  0  0  0  0  0  0  0  0  0
  160.8340  207.9180  154.1850 C   0  0  0  0  0  0  0  0  0  0  0  0
  160.9170  209.1810  153.5670 C   0  0  0  0  0  3  0  0  0  0  0  0
  162.2590  208.5430  150.0190 S   0  0  0  0  0  0  0  0  0  0  0  0
  161.2200  206.7630  153.4710 C   0  0  0  0  0  3  0  0  0  0  0  0
  161.7610  208.1220  151.5680 C   0  0  0  0  0  0  0  0  0  0  0  0
  162.0060  210.1980  150.2420 C   0  0  0  0  0  0  0  0  0  0  0  0
  161.6950  206.8570  152.1540 C   0  0  0  0  0  0  0  0  0  0  0  0
  161.5100  210.4480  151.5200 C   0  0  0  0  0  3  0  0  0  0  0  0
  160.3360  207.8020  155.5670 C   0  0  0  0  0  0  0  0  0  0  0  0
  160.2550  206.6730  156.1210 O   0  0  0  0  0  0  0  0  0  0  0  0
  159.9410  208.9620  156.2930 N   0  0  0  0  0  1  0  0  0  0  0  0
  162.1970  211.2320  149.1900 C   0  0  0  0  0  2  0  0  0  0  0  0
  161.3340  212.3070  149.4220 O   0  0  0  0  0  0  0  0  0  0  0  0
  162.7010  213.4760  147.9480 N   0  0  0  0  0  1  0  0  0  0  0  0
  161.3450  213.0370  148.2330 C   0  0  1  0  0  3  0  0  0  0  0  0
  160.8360  212.1650  147.0940 C   0  0  0  0  0  2  0  0  0  0  0  0
  159.7540  212.8580  146.3310 C   0  0  0  0  0  0  0  0  0  0  0  0
  159.4880  212.5130  145.1250 N   0  0  0  0  0  2  0  0  0  0  0  0
  158.8900  213.8550  147.0230 C   0  0  0  0  0  1  0  0  0  0  0  0
  162.0610  205.6260  151.3960 C   0  0  0  0  0  2  0  0  0  0  0  0
  160.9100  205.1560  150.6490 N   0  0  0  0  0  2  0  0  0  0  0  0
  161.3700  204.8650  149.3020 C   0  0  0  0  0  2  0  0  0  0  0  0
  159.7130  206.4730  148.7470 O   0  0  0  0  0  0  0  0  0  0  0  0
  160.6370  205.7260  148.3270 C   0  0  0  0  0  0  0  0  0  0  0  0
  160.4360  206.5840  146.0610 C   0  0  0  0  0  2  0  0  0  0  0  0
  160.9780  205.6940  146.8920 C   0  0  0  0  0  0  0  0  0  0  0  0
  163.1540  205.2570  145.7430 C   0  0  0  0  0  1  0  0  0  0  0  0
  161.9140  204.6380  146.3640 C   0  0  2  0  0  3  0  0  0  0  0  0
  161.2280  203.7190  145.3610 C   0  0  0  0  0  2  0  0  0  0  0  0
  160.8520  202.4300  146.0060 C   0  0  0  0  0  0  0  0  0  0  0  0
  160.0280  201.6710  145.4320 O   0  0  0  0  0  0  0  0  0  0  0  0
  161.4820  202.0490  147.2360 N   0  0  0  0  0  2  0  0  0  0  0  0
  161.5810  199.5620  147.5890 C   0  0  0  0  0  1  0  0  0  0  0  0
  160.5230  201.0620  149.5520 S   0  0  0  0  0  0  0  0  0  0  0  0
  161.1690  200.9130  148.0530 C   0  0  0  0  0  0  0  0  0  0  0  0
  1  3  1  0  0  0  0
  2 10  1  0  0  0  0
  3  2  2  0  0  0  0
  4  7  1  0  0  0  0
  4  6  1  0  0  0  0
  5  2  1  0  0  0  0
  6  8  1  0  0  0  0
  6  1  2  0  0  0  0
  7  9  2  0  0  0  0
  8  5  2  0  0  0  0
  9  1  1  0  0  0  0
 10 11  2  0  0  0  0
 10 12  1  0  0  0  0
 13 14  1  0  0  0  0
 13  7  1  0  0  0  0
 16 15  1  6  0  0  0
 16 14  1  0  0  0  0
 17 16  1  0  0  0  0
 18 20  1  0  0  0  0
 18 17  1  0  0  0  0
 19 18  2  0  0  0  0
 21  8  1  0  0  0  0
 22 21  1  0  0  0  0
 23 22  1  0  0  0  0
 25 24  2  0  0  0  0
 25 23  1  0  0  0  0
 26 27  2  0  0  0  0
 27 25  1  0  0  0  0
 29 28  1  6  0  0  0
 29 27  1  0  0  0  0
 30 31  1  0  0  0  0
 30 29  1  0  0  0  0
 31 33  1  0  0  0  0
 32 31  2  0  0  0  0
 33 36  1  0  0  0  0
 34 36  1  0  0  0  0
 36 35  2  0  0  0  0
M  END
>  <MODEL>
5

>  <REMARK>
 VINA RESULT:      -6.7      2.669      7.991
  Name = 
  15 active torsions:
  status: ('A' for Active; 'I' for Inactive)
    1  A    between atoms: C_2  and  O_25
    2  A    between atoms: C_2  and  C_30
    3  A    between atoms: C_5  and  C_19
    4  A    between atoms: C_8  and  N_13
    5  A    between atoms: C_8  and  C_33
    6  A    between atoms: C_10  and  C_12
    7  A    between atoms: C_12  and  C_31
    8  A    between atoms: N_13  and  C_32
    9  A    between atoms: C_14  and  C_21
   10  A    between atoms: C_16  and  C_32
   11  A    between atoms: C_16  and  C_36
   12  A    between atoms: C_18  and  N_20
   13  A    between atoms: C_19  and  C_28
   14  A    between atoms: O_25  and  C_31
   15  A    between atoms: C_28  and  C_36
                            x       y       z     vdW  Elec       q    Type
                         _______ _______ _______ _____ _____    ______ ____

>  <TORSDO>
F 15

$$$$
=
 OpenBabel11072414363D

 36 37  0  0  1  0  0  0  0  0999 V2000
  161.0620  206.7720  151.6270 C   0  0  0  0  0  0  0  0  0  0  0  0
  161.2210  208.7980  152.9370 C   0  0  0  0  0  0  0  0  0  0  0  0
  160.9390  207.4200  152.8550 C   0  0  0  0  0  3  0  0  0  0  0  0
  161.5350  206.4280  149.1870 S   0  0  0  0  0  0  0  0  0  0  0  0
  161.6260  209.4980  151.7800 C   0  0  0  0  0  3  0  0  0  0  0  0
  161.4610  207.4760  150.4990 C   0  0  0  0  0  0  0  0  0  0  0  0
  161.0370  205.0750  150.0680 C   0  0  0  0  0  0  0  0  0  0  0  0
  161.7430  208.8420  150.5460 C   0  0  0  0  0  0  0  0  0  0  0  0
  160.8250  205.4130  151.4030 C   0  0  0  0  0  3  0  0  0  0  0  0
  161.1040  209.5010  154.2260 C   0  0  0  0  0  0  0  0  0  0  0  0
  160.5880  210.6500  154.2800 O   0  0  0  0  0  0  0  0  0  0  0  0
  161.5720  208.8940  155.4270 N   0  0  0  0  0  1  0  0  0  0  0  0
  160.9300  203.6980  149.5150 C   0  0  0  0  0  2  0  0  0  0  0  0
  160.6190  203.7590  148.1540 O   0  0  0  0  0  0  0  0  0  0  0  0
  160.8730  201.4620  147.8960 N   0  0  0  0  0  1  0  0  0  0  0  0
  161.4070  202.7710  147.5620 C   0  0  1  0  0  3  0  0  0  0  0  0
  161.4080  202.9590  146.0510 C   0  0  0  0  0  2  0  0  0  0  0  0
  161.8620  204.3350  145.6830 C   0  0  0  0  0  0  0  0  0  0  0  0
  163.0570  204.7160  145.9520 N   0  0  0  0  0  2  0  0  0  0  0  0
  160.9700  205.2120  144.8760 C   0  0  0  0  0  1  0  0  0  0  0  0
  162.2110  209.5840  149.3400 C   0  0  0  0  0  2  0  0  0  0  0  0
  161.9600  211.0020  149.5150 N   0  0  0  0  0  2  0  0  0  0  0  0
  162.3140  211.6520  148.2660 C   0  0  0  0  0  2  0  0  0  0  0  0
  161.2870  213.6990  148.8920 O   0  0  0  0  0  0  0  0  0  0  0  0
  161.3890  212.7970  148.0180 C   0  0  0  0  0  0  0  0  0  0  0  0
  159.2780  212.6770  146.8190 C   0  0  0  0  0  2  0  0  0  0  0  0
  160.5960  212.8670  146.7750 C   0  0  0  0  0  0  0  0  0  0  0  0
  162.3750  214.1680  145.5990 C   0  0  0  0  0  1  0  0  0  0  0  0
  161.2820  213.1230  145.4590 C   0  0  2  0  0  3  0  0  0  0  0  0
  160.2960  213.5380  144.3740 C   0  0  0  0  0  2  0  0  0  0  0  0
  160.4350  212.6590  143.1790 C   0  0  0  0  0  0  0  0  0  0  0  0
  160.0750  211.4560  143.2530 O   0  0  0  0  0  0  0  0  0  0  0  0
  160.9160  213.2170  141.9490 N   0  0  0  0  0  2  0  0  0  0  0  0
  162.6310  212.1260  140.4700 C   0  0  0  0  0  1  0  0  0  0  0  0
  160.0540  211.9660  139.7230 S   0  0  0  0  0  0  0  0  0  0  0  0
  161.2200  212.5100  140.7380 C   0  0  0  0  0  0  0  0  0  0  0  0
  1  3  1  0  0  0  0
  2 10  1  0  0  0  0
  3  2  2  0  0  0  0
  4  7  1  0  0  0  0
  4  6  1  0  0  0  0
  5  2  1  0  0  0  0
  6  8  1  0  0  0  0
  6  1  2  0  0  0  0
  7  9  2  0  0  0  0
  8  5  2  0  0  0  0
  9  1  1  0  0  0  0
 10 11  2  0  0  0  0
 10 12  1  0  0  0  0
 13  7  1  0  0  0  0
 14 13  1  0  0  0  0
 16 15  1  6  0  0  0
 16 14  1  0  0  0  0
 17 16  1  0  0  0  0
 18 19  2  0  0  0  0
 18 17  1  0  0  0  0
 20 18  1  0  0  0  0
 21 22  1  0  0  0  0
 21  8  1  0  0  0  0
 23 22  1  0  0  0  0
 25 23  1  0  0  0  0
 25 24  2  0  0  0  0
 27 26  2  0  0  0  0
 27 25  1  0  0  0  0
 29 28  1  1  0  0  0
 29 27  1  0  0  0  0
 30 29  1  0  0  0  0
 31 32  2  0  0  0  0
 31 30  1  0  0  0  0
 33 31  1  0  0  0  0
 34 36  1  0  0  0  0
 35 36  2  0  0  0  0
 36 33  1  0  0  0  0
M  END
>  <MODEL>
6

>  <REMARK>
 VINA RESULT:      -6.7      2.376      6.260
  Name = 
  15 active torsions:
  status: ('A' for Active; 'I' for Inactive)
    1  A    between atoms: C_2  and  O_25
    2  A    between atoms: C_2  and  C_30
    3  A    between atoms: C_5  and  C_19
    4  A    between atoms: C_8  and  N_13
    5  A    between atoms: C_8  and  C_33
    6  A    between atoms: C_10  and  C_12
    7  A    between atoms: C_12  and  C_31
    8  A    between atoms: N_13  and  C_32
    9  A    between atoms: C_14  and  C_21
   10  A    between atoms: C_16  and  C_32
   11  A    between atoms: C_16  and  C_36
   12  A    between atoms: C_18  and  N_20
   13  A    between atoms: C_19  and  C_28
   14  A    between atoms: O_25  and  C_31
   15  A    between atoms: C_28  and  C_36
                            x       y       z     vdW  Elec       q    Type
                         _______ _______ _______ _____ _____    ______ ____

>  <TORSDO>
F 15

$$$$
=
 OpenBabel11072414363D

 36 37  0  0  1  0  0  0  0  0999 V2000
  161.3610  208.8460  152.3820 C   0  0  0  0  0  0  0  0  0  0  0  0
  160.8060  207.6790  154.4250 C   0  0  0  0  0  0  0  0  0  0  0  0
  160.8850  208.8790  153.6920 C   0  0  0  0  0  3  0  0  0  0  0  0
  162.2540  207.9230  150.2260 S   0  0  0  0  0  0  0  0  0  0  0  0
  161.2050  206.4650  153.8230 C   0  0  0  0  0  3  0  0  0  0  0  0
  161.7500  207.6450  151.8060 C   0  0  0  0  0  0  0  0  0  0  0  0
  161.9880  209.5910  150.2930 C   0  0  0  0  0  0  0  0  0  0  0  0
  161.6880  206.4390  152.5070 C   0  0  0  0  0  0  0  0  0  0  0  0
  161.4820  209.9540  151.5390 C   0  0  0  0  0  3  0  0  0  0  0  0
  160.3010  207.6880  155.8080 C   0  0  0  0  0  0  0  0  0  0  0  0
  159.3380  206.9450  156.1390 O   0  0  0  0  0  0  0  0  0  0  0  0
  160.8920  208.5360  156.7880 N   0  0  0  0  0  1  0  0  0  0  0  0
  162.1790  210.5240  149.1500 C   0  0  0  0  0  2  0  0  0  0  0  0
  161.6480  211.7760  149.4700 O   0  0  0  0  0  0  0  0  0  0  0  0
  163.1630  212.5660  147.8920 N   0  0  0  0  0  1  0  0  0  0  0  0
  161.7680  212.5250  148.2980 C   0  0  1  0  0  3  0  0  0  0  0  0
  160.9280  211.8890  147.2000 C   0  0  0  0  0  2  0  0  0  0  0  0
  160.3670  212.9290  146.2850 C   0  0  0  0  0  0  0  0  0  0  0  0
  160.2490  214.1430  146.6800 N   0  0  0  0  0  2  0  0  0  0  0  0
  160.0780  212.5810  144.8660 C   0  0  0  0  0  1  0  0  0  0  0  0
  162.0680  205.1470  151.8690 C   0  0  0  0  0  2  0  0  0  0  0  0
  161.0370  204.1580  152.1240 N   0  0  0  0  0  2  0  0  0  0  0  0
  160.4570  203.8100  150.8390 C   0  0  0  0  0  2  0  0  0  0  0  0
  161.5800  201.7580  151.2530 O   0  0  0  0  0  0  0  0  0  0  0  0
  160.7680  202.3860  150.5200 C   0  0  0  0  0  0  0  0  0  0  0  0
  158.9070  201.2430  149.4500 C   0  0  0  0  0  2  0  0  0  0  0  0
  160.1470  201.7230  149.3560 C   0  0  0  0  0  0  0  0  0  0  0  0
  161.5810  200.1960  147.9940 C   0  0  0  0  0  1  0  0  0  0  0  0
  160.9260  201.5640  148.0760 C   0  0  2  0  0  3  0  0  0  0  0  0
  161.9730  202.6580  147.9080 C   0  0  0  0  0  2  0  0  0  0  0  0
  161.4980  203.6920  146.9460 C   0  0  0  0  0  0  0  0  0  0  0  0
  161.2010  203.3510  145.7720 O   0  0  0  0  0  0  0  0  0  0  0  0
  161.3280  205.0420  147.3950 N   0  0  0  0  0  2  0  0  0  0  0  0
  161.1680  207.5420  147.1730 C   0  0  0  0  0  1  0  0  0  0  0  0
  160.5830  206.0560  145.0120 S   0  0  0  0  0  0  0  0  0  0  0  0
  160.9930  206.1850  146.5930 C   0  0  0  0  0  0  0  0  0  0  0  0
  1  3  1  0  0  0  0
  2 10  1  0  0  0  0
  3  2  2  0  0  0  0
  4  7  1  0  0  0  0
  4  6  1  0  0  0  0
  5  2  1  0  0  0  0
  6  1  2  0  0  0  0
  6  8  1  0  0  0  0
  7  9  2  0  0  0  0
  8  5  2  0  0  0  0
  9  1  1  0  0  0  0
 10 11  2  0  0  0  0
 10 12  1  0  0  0  0
 13 14  1  0  0  0  0
 13  7  1  0  0  0  0
 16 15  1  6  0  0  0
 16 14  1  0  0  0  0
 17 16  1  0  0  0  0
 18 19  2  0  0  0  0
 18 17  1  0  0  0  0
 20 18  1  0  0  0  0
 21 22  1  0  0  0  0
 21  8  1  0  0  0  0
 23 22  1  0  0  0  0
 25 23  1  0  0  0  0
 25 24  2  0  0  0  0
 27 26  2  0  0  0  0
 27 25  1  0  0  0  0
 29 28  1  1  0  0  0
 29 27  1  0  0  0  0
 30 29  1  0  0  0  0
 31 33  1  0  0  0  0
 31 30  1  0  0  0  0
 32 31  2  0  0  0  0
 35 36  2  0  0  0  0
 36 34  1  0  0  0  0
 36 33  1  0  0  0  0
M  END
>  <MODEL>
7

>  <REMARK>
 VINA RESULT:      -6.6      2.334      7.865
  Name = 
  15 active torsions:
  status: ('A' for Active; 'I' for Inactive)
    1  A    between atoms: C_2  and  O_25
    2  A    between atoms: C_2  and  C_30
    3  A    between atoms: C_5  and  C_19
    4  A    between atoms: C_8  and  N_13
    5  A    between atoms: C_8  and  C_33
    6  A    between atoms: C_10  and  C_12
    7  A    between atoms: C_12  and  C_31
    8  A    between atoms: N_13  and  C_32
    9  A    between atoms: C_14  and  C_21
   10  A    between atoms: C_16  and  C_32
   11  A    between atoms: C_16  and  C_36
   12  A    between atoms: C_18  and  N_20
   13  A    between atoms: C_19  and  C_28
   14  A    between atoms: O_25  and  C_31
   15  A    between atoms: C_28  and  C_36
                            x       y       z     vdW  Elec       q    Type
                         _______ _______ _______ _____ _____    ______ ____

>  <TORSDO>
F 15

$$$$
=
 OpenBabel11072414363D

 36 37  0  0  1  0  0  0  0  0999 V2000
  161.2910  206.6000  150.9350 C   0  0  0  0  0  0  0  0  0  0  0  0
  161.4540  206.5780  148.5230 C   0  0  0  0  0  0  0  0  0  0  0  0
  161.2390  205.8930  149.7340 C   0  0  0  0  0  3  0  0  0  0  0  0
  161.5290  208.5320  152.5170 S   0  0  0  0  0  0  0  0  0  0  0  0
  161.7140  207.9660  148.5410 C   0  0  0  0  0  3  0  0  0  0  0  0
  161.5490  207.9630  150.9350 C   0  0  0  0  0  0  0  0  0  0  0  0
  161.2070  207.0200  153.1990 C   0  0  0  0  0  0  0  0  0  0  0  0
  161.7710  208.6710  149.7530 C   0  0  0  0  0  0  0  0  0  0  0  0
  161.0890  206.0520  152.2040 C   0  0  0  0  0  3  0  0  0  0  0  0
  161.3960  205.8520  147.2420 C   0  0  0  0  0  0  0  0  0  0  0  0
  162.1950  204.9050  147.0110 O   0  0  0  0  0  0  0  0  0  0  0  0
  160.4400  206.2110  146.2490 N   0  0  0  0  0  1  0  0  0  0  0  0
  160.9880  206.7760  154.6500 C   0  0  0  0  0  2  0  0  0  0  0  0
  159.9770  207.6180  155.1220 O   0  0  0  0  0  0  0  0  0  0  0  0
  160.3620  206.7700  157.2530 N   0  0  0  0  0  1  0  0  0  0  0  0
  160.3710  207.9590  156.4170 C   0  0  1  0  0  3  0  0  0  0  0  0
  161.7710  208.5550  156.3820 C   0  0  0  0  0  2  0  0  0  0  0  0
  161.7170  210.0360  156.1830 C   0  0  0  0  0  0  0  0  0  0  0  0
  162.7300  210.6630  155.7100 N   0  0  0  0  0  2  0  0  0  0  0  0
  160.4350  210.7600  156.4030 C   0  0  0  0  0  1  0  0  0  0  0  0
  162.0070  210.1430  149.7570 C   0  0  0  0  0  2  0  0  0  0  0  0
  162.2920  210.5930  148.4070 N   0  0  0  0  0  2  0  0  0  0  0  0
  161.3220  211.6270  148.0920 C   0  0  0  0  0  2  0  0  0  0  0  0
  163.0790  213.1310  147.5540 O   0  0  0  0  0  0  0  0  0  0  0  0
  161.9580  212.6600  147.2220 C   0  0  0  0  0  0  0  0  0  0  0  0
  161.8890  214.0100  145.2020 C   0  0  0  0  0  2  0  0  0  0  0  0
  161.2800  213.1330  146.0000 C   0  0  0  0  0  0  0  0  0  0  0  0
  159.7820  212.2200  144.2210 C   0  0  0  0  0  1  0  0  0  0  0  0
  159.8910  212.6490  145.6740 C   0  0  2  0  0  3  0  0  0  0  0  0
  158.8340  213.6980  145.9920 C   0  0  0  0  0  2  0  0  0  0  0  0
  158.0340  213.2890  147.1810 C   0  0  0  0  0  0  0  0  0  0  0  0
  157.3740  212.2180  147.1410 O   0  0  0  0  0  0  0  0  0  0  0  0
  158.0830  214.0890  148.3690 N   0  0  0  0  0  2  0  0  0  0  0  0
  155.8250  214.0720  149.4760 C   0  0  0  0  0  1  0  0  0  0  0  0
  157.9550  213.4000  150.9710 S   0  0  0  0  0  0  0  0  0  0  0  0
  157.3010  213.9180  149.5600 C   0  0  0  0  0  0  0  0  0  0  0  0
  1  6  1  0  0  0  0
  1  9  1  0  0  0  0
  2  5  2  0  0  0  0
  2  3  1  0  0  0  0
  3  1  2  0  0  0  0
  4  7  1  0  0  0  0
  5  8  1  0  0  0  0
  6  4  1  0  0  0  0
  7 13  1  0  0  0  0
  8 21  1  0  0  0  0
  8  6  2  0  0  0  0
  9  7  2  0  0  0  0
 10  2  1  0  0  0  0
 11 10  2  0  0  0  0
 12 10  1  0  0  0  0
 13 14  1  0  0  0  0
 14 16  1  0  0  0  0
 16 15  1  1  0  0  0
 17 16  1  0  0  0  0
 18 17  1  0  0  0  0
 18 20  1  0  0  0  0
 19 18  2  0  0  0  0
 22 21  1  0  0  0  0
 23 22  1  0  0  0  0
 25 24  2  0  0  0  0
 25 23  1  0  0  0  0
 26 27  2  0  0  0  0
 27 25  1  0  0  0  0
 29 28  1  6  0  0  0
 29 30  1  0  0  0  0
 29 27  1  0  0  0  0
 30 31  1  0  0  0  0
 31 33  1  0  0  0  0
 32 31  2  0  0  0  0
 33 36  1  0  0  0  0
 34 36  1  0  0  0  0
 36 35  2  0  0  0  0
M  END
>  <MODEL>
8

>  <REMARK>
 VINA RESULT:      -6.6      2.753      3.715
  Name = 
  15 active torsions:
  status: ('A' for Active; 'I' for Inactive)
    1  A    between atoms: C_2  and  O_25
    2  A    between atoms: C_2  and  C_30
    3  A    between atoms: C_5  and  C_19
    4  A    between atoms: C_8  and  N_13
    5  A    between atoms: C_8  and  C_33
    6  A    between atoms: C_10  and  C_12
    7  A    between atoms: C_12  and  C_31
    8  A    between atoms: N_13  and  C_32
    9  A    between atoms: C_14  and  C_21
   10  A    between atoms: C_16  and  C_32
   11  A    between atoms: C_16  and  C_36
   12  A    between atoms: C_18  and  N_20
   13  A    between atoms: C_19  and  C_28
   14  A    between atoms: O_25  and  C_31
   15  A    between atoms: C_28  and  C_36
                            x       y       z     vdW  Elec       q    Type
                         _______ _______ _______ _____ _____    ______ ____

>  <TORSDO>
F 15

$$$$
=
 OpenBabel11072414363D

 36 37  0  0  1  0  0  0  0  0999 V2000
  161.3040  207.1350  151.0710 C   0  0  0  0  0  0  0  0  0  0  0  0
  161.1570  208.3750  153.1410 C   0  0  0  0  0  0  0  0  0  0  0  0
  160.9800  207.1740  152.4270 C   0  0  0  0  0  3  0  0  0  0  0  0
  162.1100  207.9020  148.8230 S   0  0  0  0  0  0  0  0  0  0  0  0
  161.6610  209.5150  152.4780 C   0  0  0  0  0  3  0  0  0  0  0  0
  161.7970  208.2640  150.4340 C   0  0  0  0  0  0  0  0  0  0  0  0
  161.5930  206.2980  148.9430 C   0  0  0  0  0  0  0  0  0  0  0  0
  161.9800  209.4710  151.1130 C   0  0  0  0  0  0  0  0  0  0  0  0
  161.1890  206.0130  150.2460 C   0  0  0  0  0  3  0  0  0  0  0  0
  160.8280  208.4380  154.5760 C   0  0  0  0  0  0  0  0  0  0  0  0
  161.0280  209.4970  155.2290 O   0  0  0  0  0  0  0  0  0  0  0  0
  160.2800  207.3050  155.2420 N   0  0  0  0  0  1  0  0  0  0  0  0
  161.6500  205.3060  147.8370 C   0  0  0  0  0  2  0  0  0  0  0  0
  160.7090  205.6360  146.8580 O   0  0  0  0  0  0  0  0  0  0  0  0
  161.4350  205.1780  144.6960 N   0  0  0  0  0  1  0  0  0  0  0  0
  160.8250  204.6310  145.8970 C   0  0  1  0  0  3  0  0  0  0  0  0
  161.6860  203.5010  146.4440 C   0  0  0  0  0  2  0  0  0  0  0  0
  160.9450  202.2030  146.4190 C   0  0  0  0  0  0  0  0  0  0  0  0
  160.8750  201.4760  147.4730 N   0  0  0  0  0  2  0  0  0  0  0  0
  160.1690  201.8240  145.2060 C   0  0  0  0  0  1  0  0  0  0  0  0
  162.5490  210.6690  150.4330 C   0  0  0  0  0  2  0  0  0  0  0  0
  161.4820  211.4160  149.7930 N   0  0  0  0  0  2  0  0  0  0  0  0
  161.9200  211.7000  148.4370 C   0  0  0  0  0  2  0  0  0  0  0  0
  161.1470  213.8920  148.9270 O   0  0  0  0  0  0  0  0  0  0  0  0
  161.4410  213.0550  148.0320 C   0  0  0  0  0  0  0  0  0  0  0  0
  162.3360  213.9260  145.9460 C   0  0  0  0  0  2  0  0  0  0  0  0
  161.3010  213.4060  146.6050 C   0  0  0  0  0  0  0  0  0  0  0  0
  158.8400  213.1010  146.9030 C   0  0  0  0  0  1  0  0  0  0  0  0
  159.9810  213.2060  145.9070 C   0  0  2  0  0  3  0  0  0  0  0  0
  159.9980  211.9840  144.9980 C   0  0  0  0  0  2  0  0  0  0  0  0
  159.9640  212.3980  143.5670 C   0  0  0  0  0  0  0  0  0  0  0  0
  159.5070  213.5310  143.2640 O   0  0  0  0  0  0  0  0  0  0  0  0
  160.5100  211.5260  142.5700 N   0  0  0  0  0  2  0  0  0  0  0  0
  159.1780  211.4700  140.4380 C   0  0  0  0  0  1  0  0  0  0  0  0
  161.7280  212.3050  140.2960 S   0  0  0  0  0  0  0  0  0  0  0  0
  160.4640  211.7010  141.1460 C   0  0  0  0  0  0  0  0  0  0  0  0
  1  3  1  0  0  0  0
  2 10  1  0  0  0  0
  3  2  2  0  0  0  0
  4  7  1  0  0  0  0
  4  6  1  0  0  0  0
  5  2  1  0  0  0  0
  6  1  2  0  0  0  0
  6  8  1  0  0  0  0
  7  9  2  0  0  0  0
  8  5  2  0  0  0  0
  9  1  1  0  0  0  0
 10 11  2  0  0  0  0
 10 12  1  0  0  0  0
 13  7  1  0  0  0  0
 14 13  1  0  0  0  0
 16 15  1  6  0  0  0
 16 17  1  0  0  0  0
 16 14  1  0  0  0  0
 18 17  1  0  0  0  0
 18 19  2  0  0  0  0
 20 18  1  0  0  0  0
 21  8  1  0  0  0  0
 22 21  1  0  0  0  0
 23 22  1  0  0  0  0
 25 23  1  0  0  0  0
 25 24  2  0  0  0  0
 26 27  2  0  0  0  0
 27 25  1  0  0  0  0
 29 27  1  0  0  0  0
 29 28  1  1  0  0  0
 30 29  1  0  0  0  0
 31 30  1  0  0  0  0
 32 31  2  0  0  0  0
 33 31  1  0  0  0  0
 34 36  1  0  0  0  0
 35 36  2  0  0  0  0
 36 33  1  0  0  0  0
M  END
>  <MODEL>
9

>  <REMARK>
 VINA RESULT:      -6.1      2.421      6.412
  Name = 
  15 active torsions:
  status: ('A' for Active; 'I' for Inactive)
    1  A    between atoms: C_2  and  O_25
    2  A    between atoms: C_2  and  C_30
    3  A    between atoms: C_5  and  C_19
    4  A    between atoms: C_8  and  N_13
    5  A    between atoms: C_8  and  C_33
    6  A    between atoms: C_10  and  C_12
    7  A    between atoms: C_12  and  C_31
    8  A    between atoms: N_13  and  C_32
    9  A    between atoms: C_14  and  C_21
   10  A    between atoms: C_16  and  C_32
   11  A    between atoms: C_16  and  C_36
   12  A    between atoms: C_18  and  N_20
   13  A    between atoms: C_19  and  C_28
   14  A    between atoms: O_25  and  C_31
   15  A    between atoms: C_28  and  C_36
                            x       y       z     vdW  Elec       q    Type
                         _______ _______ _______ _____ _____    ______ ____

>  <TORSDO>
F 15

$$$$
