=
 OpenBabel11072410003D

 54 57  0  0  1  0  0  0  0  0999 V2000
  161.3420  208.1680  151.7580 N   0  0  0  0  0  0  0  0  0  0  0  0
  160.7400  207.4940  155.4470 C   0  0  0  0  0  1  0  0  0  0  0  0
  160.5170  209.6390  154.2040 C   0  0  0  0  0  2  0  0  0  0  0  0
  161.1920  208.2640  154.2250 C   0  0  2  0  0  3  0  0  0  0  0  0
  160.8760  207.4680  152.9630 C   0  0  0  0  0  2  0  0  0  0  0  0
  161.0510  209.6140  151.7610 C   0  0  0  0  0  2  0  0  0  0  0  0
  160.0100  210.0310  152.8100 C   0  0  2  0  0  3  0  0  0  0  0  0
  159.7170  211.5320  152.7290 C   0  0  2  0  0  3  0  0  0  0  0  0
  160.6360  212.2060  151.7120 C   0  0  0  0  0  2  0  0  0  0  0  0
  158.5280  213.0910  150.8330 C   0  0  0  0  0  3  0  0  0  0  0  0
  159.8640  213.0170  150.7210 C   0  0  0  0  0  0  0  0  0  0  0  0
  157.6480  213.8100  149.8560 C   0  0  0  0  0  2  0  0  0  0  0  0
  156.8180  212.8990  149.2010 O   0  0  0  0  0  1  0  0  0  0  0  0
  160.6090  213.6140  149.5640 C   0  0  0  0  0  2  0  0  0  0  0  0
  161.4430  212.5570  148.8560 C   0  0  0  0  0  2  0  0  0  0  0  0
  162.2450  213.1850  147.7320 C   0  0  0  0  0  2  0  0  0  0  0  0
  161.3270  213.9410  146.7900 C   0  0  0  0  0  2  0  0  0  0  0  0
  160.0860  212.2340  145.6950 O   0  0  0  0  0  0  0  0  0  0  0  0
  161.4620  212.4580  143.2170 C   0  0  0  0  0  1  0  0  0  0  0  0
  161.0030  213.0960  145.6100 C   0  0  0  0  0  0  0  0  0  0  0  0
  161.7430  213.2550  144.3980 N   0  0  0  0  0  2  0  0  0  0  0  0
  159.9180  212.1810  154.0950 C   0  0  0  0  0  2  0  0  0  0  0  0
  155.9190  211.6280  156.9590 C   0  0  0  0  0  2  0  0  0  0  0  0
  156.9170  212.5770  156.3400 C   0  0  1  0  0  3  0  0  0  0  0  0
  155.7660  210.9920  155.5670 C   0  0  0  0  0  2  0  0  0  0  0  0
  158.2470  212.7620  156.8790 N   0  0  0  0  0  2  0  0  0  0  0  0
  158.9120  213.6530  155.8970 C   0  0  0  0  0  2  0  0  0  0  0  0
  157.0760  211.6430  155.1930 C   0  0  1  0  0  3  0  0  0  0  0  0
  158.7950  213.1680  154.4010 C   0  0  2  0  0  3  0  0  0  0  0  0
  157.4030  212.5610  154.0480 C   0  0  0  0  0  2  0  0  0  0  0  0
  160.6230  207.5850  150.6380 C   0  0  0  0  0  2  0  0  0  0  0  0
  161.6090  207.0550  149.6040 C   0  0  2  0  0  3  0  0  0  0  0  0
  163.5680  208.1170  148.4820 O   0  0  0  0  0  0  0  0  0  0  0  0
  161.5530  209.2080  148.5480 O   0  0  0  0  0  1  0  0  0  0  0  0
  162.2310  208.1920  148.8540 C   0  0  0  0  0  0  0  0  0  0  0  0
  159.6370  206.5070  148.3130 O   0  0  0  0  0  1  0  0  0  0  0  0
  160.9150  206.0630  148.6640 C   0  0  1  0  0  3  0  0  0  0  0  0
  161.7650  205.7480  147.4120 C   0  0  1  0  0  3  0  0  0  0  0  0
  162.2750  204.2980  147.3750 C   0  0  2  0  0  3  0  0  0  0  0  0
  163.1820  204.0340  146.1740 C   0  0  0  0  0  1  0  0  0  0  0  0
  160.7470  203.5730  149.7460 O   0  0  0  0  0  0  0  0  0  0  0  0
  160.9160  201.2890  149.2000 C   0  0  0  0  0  0  0  0  0  0  0  0
  161.2340  202.1940  146.3430 C   0  0  1  0  0  3  0  0  0  0  0  0
  161.1210  203.2790  147.4370 C   0  0  1  0  0  3  0  0  0  0  0  0
  160.9380  202.7620  148.8530 C   0  0  0  0  0  0  0  0  0  0  0  0
  159.6450  200.9500  149.6280 F   0  0  0  0  0  0  0  0  0  0  0  0
  161.8080  201.0520  150.2290 F   0  0  0  0  0  0  0  0  0  0  0  0
  161.2940  200.3960  148.0240 C   0  0  0  0  0  2  0  0  0  0  0  0
  160.6180  200.8670  146.7520 C   0  0  0  0  0  2  0  0  0  0  0  0
  160.5810  202.6690  145.0580 C   0  0  0  0  0  1  0  0  0  0  0  0
  161.1480  206.1860  146.0630 C   0  0  2  0  0  3  0  0  0  0  0  0
  159.8430  205.7090  145.9320 O   0  0  0  0  0  1  0  0  0  0  0  0
  161.4370  205.7400  143.7580 O   0  0  0  0  0  0  0  0  0  0  0  0
  161.9570  205.8030  144.8610 C   0  0  0  0  0  3  0  0  0  0  0  0
  1  6  1  0  0  0  0
  1  5  1  0  0  0  0
  3  4  1  0  0  0  0
  4  2  1  1  0  0  0
  5  4  1  0  0  0  0
  6  7  1  0  0  0  0
  7  8  1  1  0  0  0
  7  3  1  0  0  0  0
  8  9  1  6  0  0  0
  8 22  1  0  0  0  0
 11 10  2  0  0  0  0
 11  9  1  0  0  0  0
 12 10  1  0  0  0  0
 13 12  1  0  0  0  0
 14 11  1  0  0  0  0
 15 14  1  0  0  0  0
 16 15  1  0  0  0  0
 17 16  1  0  0  0  0
 19 21  1  0  0  0  0
 20 18  2  0  0  0  0
 20 17  1  0  0  0  0
 21 20  1  0  0  0  0
 24 26  1  0  0  0  0
 24 23  1  1  0  0  0
 25 23  1  0  0  0  0
 27 26  1  0  0  0  0
 28 30  1  6  0  0  0
 28 25  1  0  0  0  0
 28 24  1  0  0  0  0
 29 22  1  1  0  0  0
 29 27  1  0  0  0  0
 30 29  1  0  0  0  0
 31  1  1  0  0  0  0
 32 31  1  1  0  0  0
 33 35  2  0  0  0  0
 34 35  1  0  0  0  0
 35 32  1  0  0  0  0
 37 36  1  6  0  0  0
 37 32  1  0  0  0  0
 38 51  1  6  0  0  0
 38 37  1  0  0  0  0
 39 40  1  6  0  0  0
 39 38  1  0  0  0  0
 42 46  1  0  0  0  0
 42 47  1  0  0  0  0
 43 50  1  6  0  0  0
 43 49  1  0  0  0  0
 43 44  1  0  0  0  0
 44 39  1  1  0  0  0
 44 45  1  0  0  0  0
 45 42  1  0  0  0  0
 45 41  2  0  0  0  0
 48 42  1  0  0  0  0
 49 48  1  0  0  0  0
 51 52  1  6  0  0  0
 53 54  2  0  0  0  0
 54 51  1  0  0  0  0
M  END
>  <MODEL>
1

>  <REMARK>
 VINA RESULT:      -6.9      0.000      0.000
  Name = 
  20 active torsions:
  status: ('A' for Active; 'I' for Inactive)
    1  A    between atoms: N_1  and  C_5
    2  A    between atoms: C_2  and  C_18
    3  A    between atoms: C_2  and  C_30
    4  A    between atoms: C_5  and  C_39
    5  A    between atoms: C_6  and  C_20
    6  A    between atoms: C_6  and  C_47
    7  A    between atoms: C_9  and  C_22
    8  A    between atoms: C_13  and  C_47
    9  A    between atoms: C_13  and  C_48
   10  A    between atoms: C_16  and  C_17
   11  A    between atoms: C_16  and  C_41
   12  A    between atoms: C_16  and  C_49
   13  A    between atoms: C_17  and  C_30
   14  A    between atoms: C_18  and  C_52
   15  A    between atoms: C_21  and  C_43
   16  A    between atoms: C_39  and  C_44
   17  A    between atoms: C_39  and  C_54
   18  A    between atoms: C_40  and  C_49
   19  A    between atoms: C_43  and  C_52
   20  A    between atoms: C_44  and  C_47
                            x       y       z     vdW  Elec       q    Type
                         _______ _______ _______ _____ _____    ______ ____

>  <TORSDO>
F 20

$$$$
=
 OpenBabel11072410003D

 54 57  0  0  1  0  0  0  0  0999 V2000
  161.4510  208.6200  152.8660 N   0  0  0  0  0  0  0  0  0  0  0  0
  160.1660  208.2470  156.4200 C   0  0  0  0  0  1  0  0  0  0  0  0
  159.9800  210.2090  154.9000 C   0  0  0  0  0  2  0  0  0  0  0  0
  160.7790  208.9430  155.2250 C   0  0  2  0  0  3  0  0  0  0  0  0
  160.8210  207.9900  154.0340 C   0  0  0  0  0  2  0  0  0  0  0  0
  161.0130  210.0090  152.6320 C   0  0  0  0  0  2  0  0  0  0  0  0
  159.7370  210.3900  153.3960 C   0  0  2  0  0  3  0  0  0  0  0  0
  159.3080  211.8230  153.0730 C   0  0  2  0  0  3  0  0  0  0  0  0
  160.1070  212.3720  151.8930 C   0  0  0  0  0  2  0  0  0  0  0  0
  157.9930  213.0930  150.8900 C   0  0  0  0  0  3  0  0  0  0  0  0
  159.3010  213.3290  151.0750 C   0  0  0  0  0  0  0  0  0  0  0  0
  157.1060  213.9400  150.0300 C   0  0  0  0  0  2  0  0  0  0  0  0
  156.6160  213.1870  148.9620 O   0  0  0  0  0  1  0  0  0  0  0  0
  160.0220  214.4510  150.3880 C   0  0  0  0  0  2  0  0  0  0  0  0
  160.9040  213.9210  149.2690 C   0  0  0  0  0  2  0  0  0  0  0  0
  160.0800  213.6730  148.0190 C   0  0  0  0  0  2  0  0  0  0  0  0
  160.6410  212.4950  147.2460 C   0  0  0  0  0  2  0  0  0  0  0  0
  162.4130  213.6480  146.1580 O   0  0  0  0  0  0  0  0  0  0  0  0
  161.4790  213.1390  143.5220 C   0  0  0  0  0  1  0  0  0  0  0  0
  161.3520  212.9780  146.0320 C   0  0  0  0  0  0  0  0  0  0  0  0
  160.8200  212.6940  144.7370 N   0  0  0  0  0  2  0  0  0  0  0  0
  159.5240  212.7230  154.2860 C   0  0  0  0  0  2  0  0  0  0  0  0
  155.6240  211.5510  157.1010 C   0  0  0  0  0  2  0  0  0  0  0  0
  156.4790  212.6440  156.5060 C   0  0  1  0  0  3  0  0  0  0  0  0
  155.5750  210.9240  155.6980 C   0  0  0  0  0  2  0  0  0  0  0  0
  157.7640  213.0110  157.0620 N   0  0  0  0  0  2  0  0  0  0  0  0
  158.3010  214.0040  156.1000 C   0  0  0  0  0  2  0  0  0  0  0  0
  156.7810  211.7630  155.3470 C   0  0  1  0  0  3  0  0  0  0  0  0
  158.2680  213.5320  154.5960 C   0  0  2  0  0  3  0  0  0  0  0  0
  156.9800  212.7370  154.2190 C   0  0  0  0  0  2  0  0  0  0  0  0
  161.0500  207.8390  151.7090 C   0  0  0  0  0  2  0  0  0  0  0  0
  162.2630  207.1510  151.0960 C   0  0  2  0  0  3  0  0  0  0  0  0
  162.1510  209.1170  149.5640 O   0  0  0  0  0  1  0  0  0  0  0  0
  163.5320  207.3550  149.0700 O   0  0  0  0  0  0  0  0  0  0  0  0
  162.6880  207.8670  149.8510 C   0  0  0  0  0  0  0  0  0  0  0  0
  161.1060  205.1470  151.8030 O   0  0  0  0  0  1  0  0  0  0  0  0
  161.9610  205.6720  150.8300 C   0  0  1  0  0  3  0  0  0  0  0  0
  161.4070  205.4340  149.4060 C   0  0  1  0  0  3  0  0  0  0  0  0
  160.7910  204.0370  149.2220 C   0  0  2  0  0  3  0  0  0  0  0  0
  160.6520  203.2880  150.5460 C   0  0  0  0  0  1  0  0  0  0  0  0
  162.6370  205.0600  147.2140 O   0  0  0  0  0  0  0  0  0  0  0  0
  161.6570  203.6940  145.5660 C   0  0  0  0  0  0  0  0  0  0  0  0
  160.8350  201.8830  147.8310 C   0  0  1  0  0  3  0  0  0  0  0  0
  161.5630  203.1990  148.1850 C   0  0  1  0  0  3  0  0  0  0  0  0
  161.9730  204.0570  147.0010 C   0  0  0  0  0  0  0  0  0  0  0  0
  162.8380  203.4030  144.9080 F   0  0  0  0  0  0  0  0  0  0  0  0
  161.0590  204.7750  144.9460 F   0  0  0  0  0  0  0  0  0  0  0  0
  160.7200  202.4970  145.4500 C   0  0  0  0  0  2  0  0  0  0  0  0
  161.1220  201.4030  146.4190 C   0  0  0  0  0  2  0  0  0  0  0  0
  161.2130  200.7900  148.8130 C   0  0  0  0  0  1  0  0  0  0  0  0
  160.4940  206.5540  148.8530 C   0  0  2  0  0  3  0  0  0  0  0  0
  159.1480  206.2510  149.0640 O   0  0  0  0  0  1  0  0  0  0  0  0
  159.9010  206.5720  146.5630 O   0  0  0  0  0  0  0  0  0  0  0  0
  160.7250  206.8820  147.4090 C   0  0  0  0  0  3  0  0  0  0  0  0
  1  5  1  0  0  0  0
  3  4  1  0  0  0  0
  4  2  1  1  0  0  0
  5  4  1  0  0  0  0
  6  1  1  0  0  0  0
  6  7  1  0  0  0  0
  7  8  1  1  0  0  0
  7  3  1  0  0  0  0
  8  9  1  6  0  0  0
  8 22  1  0  0  0  0
 10 11  2  0  0  0  0
 11  9  1  0  0  0  0
 12 10  1  0  0  0  0
 13 12  1  0  0  0  0
 14 11  1  0  0  0  0
 15 14  1  0  0  0  0
 16 15  1  0  0  0  0
 17 16  1  0  0  0  0
 19 21  1  0  0  0  0
 20 18  2  0  0  0  0
 20 17  1  0  0  0  0
 21 20  1  0  0  0  0
 24 26  1  0  0  0  0
 24 23  1  1  0  0  0
 25 23  1  0  0  0  0
 27 26  1  0  0  0  0
 28 30  1  6  0  0  0
 28 25  1  0  0  0  0
 28 24  1  0  0  0  0
 29 22  1  1  0  0  0
 29 27  1  0  0  0  0
 30 29  1  0  0  0  0
 31  1  1  0  0  0  0
 32 31  1  6  0  0  0
 33 35  1  0  0  0  0
 34 35  2  0  0  0  0
 35 32  1  0  0  0  0
 37 32  1  0  0  0  0
 37 36  1  1  0  0  0
 38 51  1  1  0  0  0
 38 37  1  0  0  0  0
 39 38  1  0  0  0  0
 39 40  1  1  0  0  0
 42 45  1  0  0  0  0
 43 44  1  0  0  0  0
 43 50  1  1  0  0  0
 44 39  1  1  0  0  0
 45 41  2  0  0  0  0
 45 44  1  0  0  0  0
 46 42  1  0  0  0  0
 47 42  1  0  0  0  0
 48 42  1  0  0  0  0
 48 49  1  0  0  0  0
 49 43  1  0  0  0  0
 51 52  1  6  0  0  0
 53 54  2  0  0  0  0
 54 51  1  0  0  0  0
M  END
>  <MODEL>
2

>  <REMARK>
 VINA RESULT:      -5.3      1.659      2.363
  Name = 
  20 active torsions:
  status: ('A' for Active; 'I' for Inactive)
    1  A    between atoms: N_1  and  C_5
    2  A    between atoms: C_2  and  C_18
    3  A    between atoms: C_2  and  C_30
    4  A    between atoms: C_5  and  C_39
    5  A    between atoms: C_6  and  C_20
    6  A    between atoms: C_6  and  C_47
    7  A    between atoms: C_9  and  C_22
    8  A    between atoms: C_13  and  C_47
    9  A    between atoms: C_13  and  C_48
   10  A    between atoms: C_16  and  C_17
   11  A    between atoms: C_16  and  C_41
   12  A    between atoms: C_16  and  C_49
   13  A    between atoms: C_17  and  C_30
   14  A    between atoms: C_18  and  C_52
   15  A    between atoms: C_21  and  C_43
   16  A    between atoms: C_39  and  C_44
   17  A    between atoms: C_39  and  C_54
   18  A    between atoms: C_40  and  C_49
   19  A    between atoms: C_43  and  C_52
   20  A    between atoms: C_44  and  C_47
                            x       y       z     vdW  Elec       q    Type
                         _______ _______ _______ _____ _____    ______ ____

>  <TORSDO>
F 20

$$$$
=
 OpenBabel11072410003D

 54 57  0  0  1  0  0  0  0  0999 V2000
  161.4850  207.8010  151.5040 N   0  0  0  0  0  0  0  0  0  0  0  0
  161.0430  206.0190  154.8280 C   0  0  0  0  0  1  0  0  0  0  0  0
  160.7420  208.4350  154.3100 C   0  0  0  0  0  2  0  0  0  0  0  0
  161.4350  207.1360  153.8850 C   0  0  2  0  0  3  0  0  0  0  0  0
  161.0780  206.7560  152.4520 C   0  0  0  0  0  2  0  0  0  0  0  0
  161.1760  209.1700  151.9590 C   0  0  0  0  0  2  0  0  0  0  0  0
  160.1740  209.2210  153.1220 C   0  0  2  0  0  3  0  0  0  0  0  0
  159.8590  210.6670  153.5140 C   0  0  2  0  0  3  0  0  0  0  0  0
  159.1810  210.7190  154.8810 C   0  0  0  0  0  2  0  0  0  0  0  0
  161.4430  211.1010  155.7390 C   0  0  0  0  0  3  0  0  0  0  0  0
  160.1200  211.1880  155.9470 C   0  0  0  0  0  0  0  0  0  0  0  0
  162.4730  211.4700  156.7620 C   0  0  0  0  0  2  0  0  0  0  0  0
  163.1980  210.3380  157.1380 O   0  0  0  0  0  1  0  0  0  0  0  0
  159.5370  211.6210  157.2600 C   0  0  0  0  0  2  0  0  0  0  0  0
  158.0400  211.8570  157.1340 C   0  0  0  0  0  2  0  0  0  0  0  0
  157.7330  213.3420  157.2100 C   0  0  0  0  0  2  0  0  0  0  0  0
  156.3790  213.6300  156.5910 C   0  0  0  0  0  2  0  0  0  0  0  0
  156.1190  212.7150  154.4110 O   0  0  0  0  0  0  0  0  0  0  0  0
  155.1330  210.2000  155.2980 C   0  0  0  0  0  1  0  0  0  0  0  0
  156.0060  212.5360  155.6540 C   0  0  0  0  0  0  0  0  0  0  0  0
  155.5070  211.3000  156.1690 N   0  0  0  0  0  2  0  0  0  0  0  0
  158.9420  211.3060  152.4750 C   0  0  0  0  0  2  0  0  0  0  0  0
  159.4890  214.0970  148.4240 C   0  0  0  0  0  2  0  0  0  0  0  0
  159.1050  214.0370  149.8830 C   0  0  1  0  0  3  0  0  0  0  0  0
  160.7550  213.3080  148.7980 C   0  0  0  0  0  2  0  0  0  0  0  0
  157.8180  213.5420  150.3240 N   0  0  0  0  0  2  0  0  0  0  0  0
  157.9270  213.5300  151.8030 C   0  0  0  0  0  2  0  0  0  0  0  0
  160.0560  212.9100  150.0750 C   0  0  1  0  0  3  0  0  0  0  0  0
  159.2130  212.8030  152.3520 C   0  0  2  0  0  3  0  0  0  0  0  0
  160.4940  213.0730  151.5040 C   0  0  0  0  0  2  0  0  0  0  0  0
  160.7280  207.5710  150.2850 C   0  0  0  0  0  2  0  0  0  0  0  0
  161.6310  206.9700  149.2150 C   0  0  2  0  0  3  0  0  0  0  0  0
  161.8400  209.3080  148.3720 O   0  0  0  0  0  1  0  0  0  0  0  0
  163.5760  207.8340  148.1070 O   0  0  0  0  0  0  0  0  0  0  0  0
  162.4100  208.0500  148.5300 C   0  0  0  0  0  0  0  0  0  0  0  0
  159.6850  206.8530  147.7810 O   0  0  0  0  0  1  0  0  0  0  0  0
  160.8060  206.1430  148.2230 C   0  0  1  0  0  3  0  0  0  0  0  0
  161.6540  205.6360  147.0340 C   0  0  1  0  0  3  0  0  0  0  0  0
  162.2270  204.2260  147.2560 C   0  0  2  0  0  3  0  0  0  0  0  0
  163.2100  203.8220  146.1590 C   0  0  0  0  0  1  0  0  0  0  0  0
  160.7640  203.6500  149.7080 O   0  0  0  0  0  0  0  0  0  0  0  0
  161.0160  201.3360  149.3570 C   0  0  0  0  0  0  0  0  0  0  0  0
  161.2550  202.0030  146.4270 C   0  0  1  0  0  3  0  0  0  0  0  0
  161.1160  203.1730  147.4260 C   0  0  1  0  0  3  0  0  0  0  0  0
  160.9740  202.7730  148.8840 C   0  0  0  0  0  0  0  0  0  0  0  0
  159.7660  200.9870  149.8360 F   0  0  0  0  0  0  0  0  0  0  0  0
  161.9320  201.2230  150.3860 F   0  0  0  0  0  0  0  0  0  0  0  0
  161.4120  200.3600  148.2550 C   0  0  0  0  0  2  0  0  0  0  0  0
  160.6980  200.6930  146.9600 C   0  0  0  0  0  2  0  0  0  0  0  0
  160.5650  202.3400  145.1190 C   0  0  0  0  0  1  0  0  0  0  0  0
  161.0030  205.7900  145.6400 C   0  0  2  0  0  3  0  0  0  0  0  0
  159.8560  205.0030  145.5340 O   0  0  0  0  0  1  0  0  0  0  0  0
  161.6120  205.8160  143.3540 O   0  0  0  0  0  0  0  0  0  0  0  0
  161.9260  205.5070  144.4930 C   0  0  0  0  0  3  0  0  0  0  0  0
  1  6  1  0  0  0  0
  1  5  1  0  0  0  0
  4  3  1  0  0  0  0
  4  2  1  1  0  0  0
  5  4  1  0  0  0  0
  6  7  1  0  0  0  0
  7  8  1  1  0  0  0
  7  3  1  0  0  0  0
  8 22  1  6  0  0  0
  8  9  1  0  0  0  0
  9 11  1  0  0  0  0
 10 11  2  0  0  0  0
 10 12  1  0  0  0  0
 11 14  1  0  0  0  0
 12 13  1  0  0  0  0
 15 16  1  0  0  0  0
 15 14  1  0  0  0  0
 17 16  1  0  0  0  0
 18 20  2  0  0  0  0
 19 21  1  0  0  0  0
 20 21  1  0  0  0  0
 20 17  1  0  0  0  0
 23 25  1  0  0  0  0
 24 23  1  6  0  0  0
 24 28  1  0  0  0  0
 24 26  1  0  0  0  0
 26 27  1  0  0  0  0
 27 29  1  0  0  0  0
 28 25  1  6  0  0  0
 28 30  1  0  0  0  0
 29 22  1  6  0  0  0
 30 29  1  0  0  0  0
 31  1  1  0  0  0  0
 32 31  1  1  0  0  0
 33 35  1  0  0  0  0
 34 35  2  0  0  0  0
 35 32  1  0  0  0  0
 37 36  1  6  0  0  0
 37 32  1  0  0  0  0
 38 51  1  6  0  0  0
 38 39  1  0  0  0  0
 38 37  1  0  0  0  0
 39 40  1  6  0  0  0
 42 46  1  0  0  0  0
 42 47  1  0  0  0  0
 43 50  1  6  0  0  0
 43 49  1  0  0  0  0
 43 44  1  0  0  0  0
 44 39  1  1  0  0  0
 44 45  1  0  0  0  0
 45 42  1  0  0  0  0
 45 41  2  0  0  0  0
 48 42  1  0  0  0  0
 49 48  1  0  0  0  0
 51 52  1  1  0  0  0
 53 54  2  0  0  0  0
 54 51  1  0  0  0  0
M  END
>  <MODEL>
3

>  <REMARK>
 VINA RESULT:      -5.1      2.029      5.438
  Name = 
  20 active torsions:
  status: ('A' for Active; 'I' for Inactive)
    1  A    between atoms: N_1  and  C_5
    2  A    between atoms: C_2  and  C_18
    3  A    between atoms: C_2  and  C_30
    4  A    between atoms: C_5  and  C_39
    5  A    between atoms: C_6  and  C_20
    6  A    between atoms: C_6  and  C_47
    7  A    between atoms: C_9  and  C_22
    8  A    between atoms: C_13  and  C_47
    9  A    between atoms: C_13  and  C_48
   10  A    between atoms: C_16  and  C_17
   11  A    between atoms: C_16  and  C_41
   12  A    between atoms: C_16  and  C_49
   13  A    between atoms: C_17  and  C_30
   14  A    between atoms: C_18  and  C_52
   15  A    between atoms: C_21  and  C_43
   16  A    between atoms: C_39  and  C_44
   17  A    between atoms: C_39  and  C_54
   18  A    between atoms: C_40  and  C_49
   19  A    between atoms: C_43  and  C_52
   20  A    between atoms: C_44  and  C_47
                            x       y       z     vdW  Elec       q    Type
                         _______ _______ _______ _____ _____    ______ ____

>  <TORSDO>
F 20

$$$$
=
 OpenBabel11072410003D

 54 57  0  0  1  0  0  0  0  0999 V2000
  161.5970  208.9350  151.3700 N   0  0  0  0  0  0  0  0  0  0  0  0
  159.7310  209.6590  154.5980 C   0  0  0  0  0  1  0  0  0  0  0  0
  160.5830  211.2700  152.9010 C   0  0  0  0  0  2  0  0  0  0  0  0
  160.7500  209.8690  153.4980 C   0  0  2  0  0  3  0  0  0  0  0  0
  160.5940  208.7870  152.4330 C   0  0  0  0  0  2  0  0  0  0  0  0
  161.7910  210.3280  150.9250 C   0  0  0  0  0  2  0  0  0  0  0  0
  160.6700  211.2780  151.3700 C   0  0  2  0  0  3  0  0  0  0  0  0
  160.9050  212.6940  150.8360 C   0  0  2  0  0  3  0  0  0  0  0  0
  160.1210  213.7160  151.6560 C   0  0  0  0  0  2  0  0  0  0  0  0
  158.6270  214.0430  149.7430 C   0  0  0  0  0  3  0  0  0  0  0  0
  158.7660  213.9700  151.0760 C   0  0  0  0  0  0  0  0  0  0  0  0
  157.3360  214.3660  149.0560 C   0  0  0  0  0  2  0  0  0  0  0  0
  156.5590  213.2130  148.9350 O   0  0  0  0  0  1  0  0  0  0  0  0
  157.6370  214.2590  152.0200 C   0  0  0  0  0  2  0  0  0  0  0  0
  158.0040  213.8550  153.4400 C   0  0  0  0  0  2  0  0  0  0  0  0
  156.7730  213.8750  154.3280 C   0  0  0  0  0  2  0  0  0  0  0  0
  157.0680  213.1900  155.6490 C   0  0  0  0  0  2  0  0  0  0  0  0
  155.2370  212.2870  156.8690 O   0  0  0  0  0  0  0  0  0  0  0  0
  155.0320  209.9150  155.3170 C   0  0  0  0  0  1  0  0  0  0  0  0
  156.0490  212.1390  155.9150 C   0  0  0  0  0  0  0  0  0  0  0  0
  156.0090  210.9670  155.1000 N   0  0  0  0  0  2  0  0  0  0  0  0
  160.4710  212.7840  149.3760 C   0  0  0  0  0  2  0  0  0  0  0  0
  161.1320  213.8180  144.5800 C   0  0  0  0  0  2  0  0  0  0  0  0
  161.7690  213.4710  145.9050 C   0  0  1  0  0  3  0  0  0  0  0  0
  160.1560  212.6560  144.8260 C   0  0  0  0  0  2  0  0  0  0  0  0
  161.9620  214.4520  146.9510 N   0  0  0  0  0  2  0  0  0  0  0  0
  162.4760  213.6600  148.0950 C   0  0  0  0  0  2  0  0  0  0  0  0
  160.5440  212.7170  146.2840 C   0  0  1  0  0  3  0  0  0  0  0  0
  161.6120  212.3880  148.4420 C   0  0  2  0  0  3  0  0  0  0  0  0
  161.0730  211.6370  147.1860 C   0  0  0  0  0  2  0  0  0  0  0  0
  161.1040  208.1820  150.2300 C   0  0  0  0  0  2  0  0  0  0  0  0
  160.9890  206.7050  150.5880 C   0  0  2  0  0  3  0  0  0  0  0  0
  163.4340  206.9090  151.0390 O   0  0  0  0  0  0  0  0  0  0  0  0
  162.2110  205.2640  152.0660 O   0  0  0  0  0  1  0  0  0  0  0  0
  162.2370  206.2420  151.2730 C   0  0  0  0  0  0  0  0  0  0  0  0
  159.4910  206.2910  148.7320 O   0  0  0  0  0  1  0  0  0  0  0  0
  160.6810  205.8740  149.3370 C   0  0  1  0  0  3  0  0  0  0  0  0
  161.8540  205.8750  148.3300 C   0  0  1  0  0  3  0  0  0  0  0  0
  162.3250  204.4620  147.9480 C   0  0  2  0  0  3  0  0  0  0  0  0
  163.2570  204.4710  146.7370 C   0  0  0  0  0  1  0  0  0  0  0  0
  160.6160  203.3490  150.0270 O   0  0  0  0  0  0  0  0  0  0  0  0
  160.7600  201.2120  149.0520 C   0  0  0  0  0  0  0  0  0  0  0  0
  161.3010  202.6450  146.4560 C   0  0  1  0  0  3  0  0  0  0  0  0
  161.1420  203.4980  147.7340 C   0  0  1  0  0  3  0  0  0  0  0  0
  160.8470  202.7220  149.0050 C   0  0  0  0  0  0  0  0  0  0  0  0
  159.4540  200.8470  149.3240 F   0  0  0  0  0  0  0  0  0  0  0  0
  161.5720  200.7420  150.0670 F   0  0  0  0  0  0  0  0  0  0  0  0
  161.1950  200.5520  147.7480 C   0  0  0  0  0  2  0  0  0  0  0  0
  160.6210  201.2900  146.5550 C   0  0  0  0  0  2  0  0  0  0  0  0
  160.7520  203.3880  145.2520 C   0  0  0  0  0  1  0  0  0  0  0  0
  161.6670  206.7840  147.0930 C   0  0  2  0  0  3  0  0  0  0  0  0
  161.8490  208.1270  147.4270 O   0  0  0  0  0  1  0  0  0  0  0  0
  160.3220  206.4590  145.1750 O   0  0  0  0  0  0  0  0  0  0  0  0
  160.3580  206.6050  146.3870 C   0  0  0  0  0  3  0  0  0  0  0  0
  1  5  1  0  0  0  0
  3  4  1  0  0  0  0
  4  2  1  1  0  0  0
  5  4  1  0  0  0  0
  6  1  1  0  0  0  0
  6  7  1  0  0  0  0
  7  8  1  1  0  0  0
  7  3  1  0  0  0  0
  8 22  1  6  0  0  0
  8  9  1  0  0  0  0
 10 11  2  0  0  0  0
 11  9  1  0  0  0  0
 11 14  1  0  0  0  0
 12 10  1  0  0  0  0
 13 12  1  0  0  0  0
 14 15  1  0  0  0  0
 15 16  1  0  0  0  0
 16 17  1  0  0  0  0
 17 20  1  0  0  0  0
 20 18  2  0  0  0  0
 21 19  1  0  0  0  0
 21 20  1  0  0  0  0
 23 25  1  0  0  0  0
 24 23  1  6  0  0  0
 24 28  1  0  0  0  0
 24 26  1  0  0  0  0
 26 27  1  0  0  0  0
 27 29  1  0  0  0  0
 28 25  1  6  0  0  0
 28 30  1  0  0  0  0
 29 22  1  1  0  0  0
 30 29  1  0  0  0  0
 31  1  1  0  0  0  0
 32 31  1  6  0  0  0
 32 35  1  0  0  0  0
 33 35  2  0  0  0  0
 35 34  1  0  0  0  0
 37 36  1  6  0  0  0
 37 32  1  0  0  0  0
 38 51  1  6  0  0  0
 38 37  1  0  0  0  0
 39 40  1  6  0  0  0
 39 38  1  0  0  0  0
 42 46  1  0  0  0  0
 42 47  1  0  0  0  0
 43 50  1  6  0  0  0
 43 49  1  0  0  0  0
 43 44  1  0  0  0  0
 44 39  1  1  0  0  0
 44 45  1  0  0  0  0
 45 42  1  0  0  0  0
 45 41  2  0  0  0  0
 48 42  1  0  0  0  0
 49 48  1  0  0  0  0
 51 52  1  1  0  0  0
 53 54  2  0  0  0  0
 54 51  1  0  0  0  0
M  END
>  <MODEL>
4

>  <REMARK>
 VINA RESULT:      -4.6      1.664      5.816
  Name = 
  20 active torsions:
  status: ('A' for Active; 'I' for Inactive)
    1  A    between atoms: N_1  and  C_5
    2  A    between atoms: C_2  and  C_18
    3  A    between atoms: C_2  and  C_30
    4  A    between atoms: C_5  and  C_39
    5  A    between atoms: C_6  and  C_20
    6  A    between atoms: C_6  and  C_47
    7  A    between atoms: C_9  and  C_22
    8  A    between atoms: C_13  and  C_47
    9  A    between atoms: C_13  and  C_48
   10  A    between atoms: C_16  and  C_17
   11  A    between atoms: C_16  and  C_41
   12  A    between atoms: C_16  and  C_49
   13  A    between atoms: C_17  and  C_30
   14  A    between atoms: C_18  and  C_52
   15  A    between atoms: C_21  and  C_43
   16  A    between atoms: C_39  and  C_44
   17  A    between atoms: C_39  and  C_54
   18  A    between atoms: C_40  and  C_49
   19  A    between atoms: C_43  and  C_52
   20  A    between atoms: C_44  and  C_47
                            x       y       z     vdW  Elec       q    Type
                         _______ _______ _______ _____ _____    ______ ____

>  <TORSDO>
F 20

$$$$
=
 OpenBabel11072410003D

 54 57  0  0  1  0  0  0  0  0999 V2000
  161.5810  207.9310  152.5810 N   0  0  0  0  0  0  0  0  0  0  0  0
  159.8400  206.8220  155.7680 C   0  0  0  0  0  1  0  0  0  0  0  0
  160.1150  209.1280  154.8710 C   0  0  0  0  0  2  0  0  0  0  0  0
  160.6840  207.7050  154.8740 C   0  0  2  0  0  3  0  0  0  0  0  0
  160.7340  207.1210  153.4660 C   0  0  0  0  0  2  0  0  0  0  0  0
  161.3730  209.3850  152.7250 C   0  0  0  0  0  2  0  0  0  0  0  0
  160.0810  209.7510  153.4690 C   0  0  2  0  0  3  0  0  0  0  0  0
  159.9000  211.2700  153.5430 C   0  0  2  0  0  3  0  0  0  0  0  0
  159.2560  211.6720  154.8680 C   0  0  0  0  0  2  0  0  0  0  0  0
  161.2590  211.2570  156.2150 C   0  0  0  0  0  3  0  0  0  0  0  0
  160.2780  212.1060  155.8710 C   0  0  0  0  0  0  0  0  0  0  0  0
  162.2890  211.5560  157.2610 C   0  0  0  0  0  2  0  0  0  0  0  0
  163.5490  211.1450  156.8200 O   0  0  0  0  0  1  0  0  0  0  0  0
  160.0860  213.4320  156.5440 C   0  0  0  0  0  2  0  0  0  0  0  0
  158.6200  213.6640  156.8740 C   0  0  0  0  0  2  0  0  0  0  0  0
  157.8920  212.3380  156.9990 C   0  0  0  0  0  2  0  0  0  0  0  0
  156.4130  212.5720  157.2370 C   0  0  0  0  0  2  0  0  0  0  0  0
  154.6670  210.9580  157.2530 O   0  0  0  0  0  0  0  0  0  0  0  0
  155.2050  209.9630  154.6450 C   0  0  0  0  0  1  0  0  0  0  0  0
  155.6190  211.4800  156.6120 C   0  0  0  0  0  0  0  0  0  0  0  0
  155.9520  211.0220  155.3000 N   0  0  0  0  0  2  0  0  0  0  0  0
  159.0210  211.7500  152.3920 C   0  0  0  0  0  2  0  0  0  0  0  0
  158.1420  214.4130  148.3130 C   0  0  0  0  0  2  0  0  0  0  0  0
  158.2690  214.3980  149.8170 C   0  0  1  0  0  3  0  0  0  0  0  0
  159.4700  213.6400  148.2640 C   0  0  0  0  0  2  0  0  0  0  0  0
  157.2120  213.9130  150.6790 N   0  0  0  0  0  2  0  0  0  0  0  0
  157.8100  213.9490  152.0350 C   0  0  0  0  0  2  0  0  0  0  0  0
  159.2450  213.2800  149.7120 C   0  0  1  0  0  3  0  0  0  0  0  0
  159.2160  213.2430  152.1420 C   0  0  2  0  0  3  0  0  0  0  0  0
  160.1340  213.4900  150.9060 C   0  0  0  0  0  2  0  0  0  0  0  0
  161.2160  207.5770  151.2210 C   0  0  0  0  0  2  0  0  0  0  0  0
  161.1010  206.0630  151.0880 C   0  0  2  0  0  3  0  0  0  0  0  0
  163.5880  205.9860  151.2660 O   0  0  0  0  0  0  0  0  0  0  0  0
  162.3170  204.3430  152.2360 O   0  0  0  0  0  1  0  0  0  0  0  0
  162.3600  205.4060  151.5630 C   0  0  0  0  0  0  0  0  0  0  0  0
  159.6930  206.4300  149.1540 O   0  0  0  0  0  1  0  0  0  0  0  0
  160.7650  205.6770  149.6430 C   0  0  1  0  0  3  0  0  0  0  0  0
  161.9930  205.7740  148.7100 C   0  0  1  0  0  3  0  0  0  0  0  0
  162.3670  204.4320  148.0590 C   0  0  2  0  0  3  0  0  0  0  0  0
  163.1230  204.6180  146.7450 C   0  0  0  0  0  1  0  0  0  0  0  0
  160.6510  203.4050  150.1760 O   0  0  0  0  0  0  0  0  0  0  0  0
  160.6850  201.2590  149.2120 C   0  0  0  0  0  0  0  0  0  0  0  0
  161.2390  202.6530  146.5980 C   0  0  1  0  0  3  0  0  0  0  0  0
  161.1400  203.5190  147.8730 C   0  0  1  0  0  3  0  0  0  0  0  0
  160.8350  202.7630  149.1540 C   0  0  0  0  0  0  0  0  0  0  0  0
  159.3700  200.9520  149.5090 F   0  0  0  0  0  0  0  0  0  0  0  0
  161.4940  200.7590  150.2150 F   0  0  0  0  0  0  0  0  0  0  0  0
  161.0670  200.5740  147.9040 C   0  0  0  0  0  2  0  0  0  0  0  0
  160.5030  201.3290  146.7170 C   0  0  0  0  0  2  0  0  0  0  0  0
  160.7000  203.4130  145.4000 C   0  0  0  0  0  1  0  0  0  0  0  0
  161.9570  206.9320  147.6840 C   0  0  2  0  0  3  0  0  0  0  0  0
  162.2330  208.1530  148.3000 O   0  0  0  0  0  1  0  0  0  0  0  0
  160.6560  206.7380  145.7190 O   0  0  0  0  0  0  0  0  0  0  0  0
  160.6810  207.0270  146.9040 C   0  0  0  0  0  3  0  0  0  0  0  0
  1  6  1  0  0  0  0
  1  5  1  0  0  0  0
  3  4  1  0  0  0  0
  4  2  1  1  0  0  0
  5  4  1  0  0  0  0
  6  7  1  0  0  0  0
  7  8  1  1  0  0  0
  7  3  1  0  0  0  0
  8 22  1  6  0  0  0
  8  9  1  0  0  0  0
  9 11  1  0  0  0  0
 10 12  1  0  0  0  0
 11 10  2  0  0  0  0
 11 14  1  0  0  0  0
 13 12  1  0  0  0  0
 14 15  1  0  0  0  0
 15 16  1  0  0  0  0
 16 17  1  0  0  0  0
 19 21  1  0  0  0  0
 20 17  1  0  0  0  0
 20 18  2  0  0  0  0
 21 20  1  0  0  0  0
 24 23  1  6  0  0  0
 24 26  1  0  0  0  0
 25 23  1  0  0  0  0
 26 27  1  0  0  0  0
 27 29  1  0  0  0  0
 28 25  1  6  0  0  0
 28 24  1  0  0  0  0
 28 30  1  0  0  0  0
 29 22  1  6  0  0  0
 30 29  1  0  0  0  0
 31  1  1  0  0  0  0
 32 31  1  6  0  0  0
 32 35  1  0  0  0  0
 33 35  2  0  0  0  0
 35 34  1  0  0  0  0
 37 36  1  6  0  0  0
 37 32  1  0  0  0  0
 38 51  1  6  0  0  0
 38 37  1  0  0  0  0
 39 40  1  6  0  0  0
 39 38  1  0  0  0  0
 42 46  1  0  0  0  0
 42 47  1  0  0  0  0
 43 50  1  6  0  0  0
 43 49  1  0  0  0  0
 43 44  1  0  0  0  0
 44 39  1  1  0  0  0
 44 45  1  0  0  0  0
 45 42  1  0  0  0  0
 45 41  2  0  0  0  0
 48 42  1  0  0  0  0
 49 48  1  0  0  0  0
 51 52  1  1  0  0  0
 53 54  2  0  0  0  0
 54 51  1  0  0  0  0
M  END
>  <MODEL>
5

>  <REMARK>
 VINA RESULT:      -4.1      2.365      5.659
  Name = 
  20 active torsions:
  status: ('A' for Active; 'I' for Inactive)
    1  A    between atoms: N_1  and  C_5
    2  A    between atoms: C_2  and  C_18
    3  A    between atoms: C_2  and  C_30
    4  A    between atoms: C_5  and  C_39
    5  A    between atoms: C_6  and  C_20
    6  A    between atoms: C_6  and  C_47
    7  A    between atoms: C_9  and  C_22
    8  A    between atoms: C_13  and  C_47
    9  A    between atoms: C_13  and  C_48
   10  A    between atoms: C_16  and  C_17
   11  A    between atoms: C_16  and  C_41
   12  A    between atoms: C_16  and  C_49
   13  A    between atoms: C_17  and  C_30
   14  A    between atoms: C_18  and  C_52
   15  A    between atoms: C_21  and  C_43
   16  A    between atoms: C_39  and  C_44
   17  A    between atoms: C_39  and  C_54
   18  A    between atoms: C_40  and  C_49
   19  A    between atoms: C_43  and  C_52
   20  A    between atoms: C_44  and  C_47
                            x       y       z     vdW  Elec       q    Type
                         _______ _______ _______ _____ _____    ______ ____

>  <TORSDO>
F 20

$$$$
