=
 OpenBabel11072414303D

 69 79  0  0  1  0  0  0  0  0999 V2000
  162.1740  207.3980  146.0300 N   0  0  0  0  0  2  0  0  0  0  0  0
  160.5580  208.1500  149.1490 C   0  0  0  0  0  3  0  0  0  0  0  0
  162.2460  210.8010  157.2600 O   0  0  0  0  0  0  0  0  0  0  0  0
  161.9760  211.6770  149.8760 O   0  0  0  0  0  0  0  0  0  0  0  0
  160.0230  213.1690  153.3720 C   0  0  2  0  0  3  0  0  0  0  0  0
  161.2300  209.5970  154.1120 N   0  0  0  0  0  2  0  0  0  0  0  0
  161.0680  210.9660  147.7580 C   0  0  2  0  0  3  0  0  0  0  0  0
  160.6920  212.4180  152.2100 C   0  0  0  0  0  2  0  0  0  0  0  0
  158.5390  212.1670  150.9540 C   0  0  0  0  0  2  0  0  0  0  0  0
  160.3950  208.3800  152.0770 C   0  0  1  0  0  3  0  0  0  0  0  0
  160.2880  208.6050  153.5980 C   0  0  2  0  0  3  0  0  0  0  0  0
  159.9780  212.7370  150.9060 C   0  0  2  0  0  3  0  0  0  0  0  0
  161.2930  211.7100  156.7800 C   0  0  0  0  0  2  0  0  0  0  0  0
  157.7380  213.6100  154.5380 C   0  0  1  0  0  3  0  0  0  0  0  0
  156.2260  213.3110  154.5310 C   0  0  1  0  0  3  0  0  0  0  0  0
  157.8980  211.6100  156.1860 C   0  0  2  0  0  3  0  0  0  0  0  0
  162.3830  209.8190  156.2590 C   0  0  2  0  0  3  0  0  0  0  0  0
  158.2480  213.8960  156.8580 F   0  0  0  0  0  0  0  0  0  0  0  0
  160.3340  210.9620  155.8840 C   0  0  2  0  0  3  0  0  0  0  0  0
  161.7300  208.6420  149.9550 C   0  0  2  0  0  3  0  0  0  0  0  0
  159.0400  210.6920  156.6380 C   0  0  0  0  0  2  0  0  0  0  0  0
  155.6080  213.8470  153.3990 O   0  0  0  0  0  1  0  0  0  0  0  0
  159.9800  211.5770  148.5910 C   0  0  0  0  0  2  0  0  0  0  0  0
  160.6990  207.7860  147.8730 C   0  0  0  0  0  3  0  0  0  0  0  0
  157.0690  210.9300  155.1000 C   0  0  0  0  0  2  0  0  0  0  0  0
  161.0500  209.6930  155.5620 C   0  0  1  0  0  3  0  0  0  0  0  0
  159.2890  209.2520  152.6480 C   0  0  0  0  0  2  0  0  0  0  0  0
  157.8930  212.1960  152.3470 C   0  0  0  0  0  2  0  0  0  0  0  0
  160.7610  212.3510  149.6300 C   0  0  2  0  0  3  0  0  0  0  0  0
  161.9910  207.9430  147.1850 C   0  0  0  0  0  0  0  0  0  0  0  0
  162.2490  210.9120  148.7180 C   0  0  2  0  0  3  0  0  0  0  0  0
  158.3960  213.0150  155.8030 C   0  0  2  0  0  3  0  0  0  0  0  0
  161.3560  209.2800  151.3060 C   0  0  0  0  0  2  0  0  0  0  0  0
  154.8410  211.6680  155.5960 O   0  0  0  0  0  1  0  0  0  0  0  0
  163.1380  208.6680  147.8560 C   0  0  0  0  0  2  0  0  0  0  0  0
  162.7030  209.4790  149.0910 C   0  0  2  0  0  3  0  0  0  0  0  0
  155.8870  211.8090  154.6810 C   0  0  1  0  0  3  0  0  0  0  0  0
  158.4930  213.3210  153.2070 C   0  0  2  0  0  3  0  0  0  0  0  0
  160.5990  214.4340  153.5000 O   0  0  0  0  0  1  0  0  0  0  0  0
  160.5230  211.4510  145.3260 C   0  0  2  0  0  3  0  0  0  0  0  0
  160.8390  213.2010  146.5250 C   0  0  0  0  0  2  0  0  0  0  0  0
  161.4160  211.7980  146.5070 C   0  0  1  0  0  3  0  0  0  0  0  0
  160.7810  212.3900  144.2180 N   0  0  0  0  0  0  0  0  0  0  0  0
  159.9470  212.7960  145.3690 C   0  0  1  0  0  3  0  0  0  0  0  0
  159.8040  210.8200  142.8370 O   0  0  0  0  0  1  0  0  0  0  0  0
  159.9250  212.2190  143.0180 C   0  0  2  0  0  0  0  0  0  0  0  0
  162.0470  212.6450  141.5730 C   0  0  0  0  0  2  0  0  0  0  0  0
  163.4440  214.4440  138.5770 C   0  0  0  0  0  1  0  0  0  0  0  0
  160.6070  212.1380  139.1300 C   0  0  1  0  0  3  0  0  0  0  0  0
  160.5180  212.8160  141.6740 C   0  0  1  0  0  3  0  0  0  0  0  0
  162.7570  213.7200  140.7380 C   0  0  1  0  0  3  0  0  0  0  0  0
  164.1940  213.7410  141.2610 C   0  0  0  0  0  1  0  0  0  0  0  0
  162.7770  213.3690  139.3010 N   0  0  0  0  0  0  0  0  0  0  0  0
  159.7630  212.4040  140.3850 C   0  0  0  0  0  2  0  0  0  0  0  0
  161.4300  213.3690  138.7390 C   0  0  0  0  0  2  0  0  0  0  0  0
  161.3700  210.8220  139.1510 C   0  0  0  0  0  0  0  0  0  0  0  0
  160.9840  209.9160  139.8830 O   0  0  0  0  0  0  0  0  0  0  0  0
  162.5500  210.5820  138.2570 C   0  0  0  0  0  1  0  0  0  0  0  0
  157.1440  214.4380  144.2130 C   0  0  0  0  0  2  0  0  0  0  0  0
  158.5440  212.7470  143.2850 N   0  0  0  0  0  0  0  0  0  0  0  0
  158.3840  213.9420  141.0270 C   0  0  0  0  0  1  0  0  0  0  0  0
  157.6710  213.2190  142.1690 C   0  0  2  0  0  3  0  0  0  0  0  0
  158.5340  213.8290  144.2590 C   0  0  0  0  0  2  0  0  0  0  0  0
  156.6670  214.1990  142.7890 C   0  0  1  0  0  3  0  0  0  0  0  0
  154.6270  213.8320  144.0220 O   0  0  0  0  0  1  0  0  0  0  0  0
  154.4480  214.2620  141.7780 O   0  0  0  0  0  1  0  0  0  0  0  0
  155.2280  213.6560  142.7700 C   0  0  0  0  0  3  0  0  0  0  0  0
  162.7270  208.4890  156.9040 C   0  0  0  0  0  2  0  0  0  0  0  0
  161.8260  207.5010  156.5140 O   0  0  0  0  0  1  0  0  0  0  0  0
  1 30  2  0  0  0  0
  2 20  1  0  0  0  0
  5 39  1  6  0  0  0
  6 26  1  0  0  0  0
  7 23  1  1  0  0  0
  7 31  1  0  0  0  0
  8  5  1  0  0  0  0
  9 28  1  0  0  0  0
 10 33  1  6  0  0  0
 10 27  1  0  0  0  0
 10 11  1  0  0  0  0
 11 27  1  6  0  0  0
 11  6  1  0  0  0  0
 12  9  1  1  0  0  0
 12  8  1  0  0  0  0
 13  3  1  0  0  0  0
 14 32  1  0  0  0  0
 15 14  1  0  0  0  0
 15 37  1  0  0  0  0
 16 21  1  0  0  0  0
 17 68  1  0  0  0  0
 17  3  1  0  0  0  0
 19 21  1  0  0  0  0
 19 13  1  0  0  0  0
 20 33  1  0  0  0  0
 22 15  1  0  0  0  0
 23 29  1  0  0  0  0
 24  2  2  0  0  0  0
 25 16  1  0  0  0  0
 26 19  1  0  0  0  0
 26 17  1  0  0  0  0
 28 38  1  0  0  0  0
 29  4  1  0  0  0  0
 29 12  1  0  0  0  0
 30 35  1  0  0  0  0
 30 24  1  0  0  0  0
 31 36  1  0  0  0  0
 31  4  1  0  0  0  0
 32 16  1  0  0  0  0
 32 18  1  0  0  0  0
 35 36  1  0  0  0  0
 36 20  1  0  0  0  0
 37 25  1  0  0  0  0
 37 34  1  0  0  0  0
 38  5  1  0  0  0  0
 38 14  1  0  0  0  0
 40 44  1  0  0  0  0
 40 42  1  0  0  0  0
 42 41  1  0  0  0  0
 42  7  1  0  0  0  0
 43 40  1  0  0  0  0
 43 44  1  0  0  0  0
 44 41  1  0  0  0  0
 45 46  1  0  0  0  0
 46 60  1  0  0  0  0
 46 43  1  0  0  0  0
 47 50  1  0  0  0  0
 48 53  1  0  0  0  0
 49 56  1  0  0  0  0
 49 54  1  0  0  0  0
 50 46  1  0  0  0  0
 51 52  1  0  0  0  0
 51 47  1  0  0  0  0
 53 51  1  0  0  0  0
 54 50  1  0  0  0  0
 55 49  1  0  0  0  0
 55 53  1  0  0  0  0
 56 57  2  0  0  0  0
 58 56  1  0  0  0  0
 59 63  1  0  0  0  0
 60 63  1  0  0  0  0
 61 62  1  0  0  0  0
 62 64  1  0  0  0  0
 62 60  1  0  0  0  0
 64 59  1  0  0  0  0
 66 67  1  0  0  0  0
 67 64  1  0  0  0  0
 67 65  1  0  0  0  0
 69 68  1  0  0  0  0
M  END
>  <MODEL>
1

>  <REMARK>
 VINA RESULT:      17.8      0.000      0.000
  Name = 
  7 active torsions:
  status: ('A' for Active; 'I' for Inactive)
    1  A    between atoms: C_10  and  C_48
    2  A    between atoms: N_11  and  C_59
    3  A    between atoms: C_13  and  C_34
    4  A    between atoms: C_24  and  C_44
    5  A    between atoms: C_27  and  C_61
    6  A    between atoms: C_36  and  C_59
    7  A    between atoms: N_50  and  C_59
                            x       y       z     vdW  Elec       q    Type
                         _______ _______ _______ _____ _____    ______ ____

>  <TORSDO>
F 7

$$$$
=
 OpenBabel11072414303D

 69 79  0  0  1  0  0  0  0  0999 V2000
  162.3660  208.2880  156.0850 N   0  0  0  0  0  2  0  0  0  0  0  0
  162.5860  206.1980  153.1720 C   0  0  0  0  0  3  0  0  0  0  0  0
  157.6800  201.4870  147.7490 O   0  0  0  0  0  0  0  0  0  0  0  0
  159.9350  207.8470  150.8860 O   0  0  0  0  0  0  0  0  0  0  0  0
  160.0940  205.8930  147.0890 C   0  0  2  0  0  3  0  0  0  0  0  0
  159.9640  203.1910  149.8170 N   0  0  0  0  0  2  0  0  0  0  0  0
  161.6380  209.0410  152.1050 C   0  0  2  0  0  3  0  0  0  0  0  0
  160.1070  206.3880  148.5440 C   0  0  0  0  0  2  0  0  0  0  0  0
  162.5000  207.1170  148.4160 C   0  0  0  0  0  2  0  0  0  0  0  0
  161.7430  204.0140  151.3900 C   0  0  1  0  0  3  0  0  0  0  0  0
  161.2900  202.9440  150.3790 C   0  0  2  0  0  3  0  0  0  0  0  0
  161.0460  207.5760  148.6790 C   0  0  2  0  0  3  0  0  0  0  0  0
  158.3810  202.3730  146.9170 C   0  0  0  0  0  2  0  0  0  0  0  0
  161.6220  205.1230  145.1280 C   0  0  1  0  0  3  0  0  0  0  0  0
  163.0710  204.8680  144.6660 C   0  0  1  0  0  3  0  0  0  0  0  0
  161.6250  202.6070  145.7730 C   0  0  2  0  0  3  0  0  0  0  0  0
  158.1940  201.6870  149.0450 C   0  0  2  0  0  3  0  0  0  0  0  0
  160.3500  203.4890  143.9290 F   0  0  0  0  0  0  0  0  0  0  0  0
  159.7610  202.5750  147.4960 C   0  0  2  0  0  3  0  0  0  0  0  0
  161.1280  205.9210  152.9210 C   0  0  2  0  0  3  0  0  0  0  0  0
  160.7680  201.7480  146.7110 C   0  0  0  0  0  2  0  0  0  0  0  0
  163.7980  206.0580  144.5970 O   0  0  0  0  0  1  0  0  0  0  0  0
  162.1470  208.7000  150.7350 C   0  0  0  0  0  2  0  0  0  0  0  0
  162.9780  206.9930  154.1700 C   0  0  0  0  0  3  0  0  0  0  0  0
  162.9260  203.0090  146.4620 C   0  0  0  0  0  2  0  0  0  0  0  0
  159.6410  202.0930  148.9030 C   0  0  1  0  0  3  0  0  0  0  0  0
  162.2630  204.0380  149.9630 C   0  0  0  0  0  2  0  0  0  0  0  0
  162.6320  206.0000  147.3710 C   0  0  0  0  0  2  0  0  0  0  0  0
  160.8720  208.3900  149.9830 C   0  0  2  0  0  3  0  0  0  0  0  0
  161.9900  207.6980  155.0010 C   0  0  0  0  0  0  0  0  0  0  0  0
  160.3050  208.3100  152.1700 C   0  0  2  0  0  3  0  0  0  0  0  0
  160.8380  203.7930  145.1860 C   0  0  2  0  0  3  0  0  0  0  0  0
  160.8300  205.2220  151.5810 C   0  0  0  0  0  2  0  0  0  0  0  0
  164.5150  202.9530  144.6650 O   0  0  0  0  0  1  0  0  0  0  0  0
  160.5190  207.6690  154.6420 C   0  0  0  0  0  2  0  0  0  0  0  0
  160.2550  207.1640  153.2110 C   0  0  2  0  0  3  0  0  0  0  0  0
  163.8210  203.8160  145.5160 C   0  0  1  0  0  3  0  0  0  0  0  0
  161.4590  206.0370  146.3770 C   0  0  2  0  0  3  0  0  0  0  0  0
  159.1250  206.5920  146.3690 O   0  0  0  0  0  1  0  0  0  0  0  0
  160.0550  211.0160  151.9050 C   0  0  2  0  0  3  0  0  0  0  0  0
  161.1320  210.9340  153.7570 C   0  0  0  0  0  2  0  0  0  0  0  0
  161.4440  210.5560  152.3210 C   0  0  1  0  0  3  0  0  0  0  0  0
  159.8640  212.4270  152.2920 N   0  0  0  0  0  0  0  0  0  0  0  0
  159.7490  211.3490  153.2980 C   0  0  1  0  0  3  0  0  0  0  0  0
  158.6600  214.3930  152.1840 O   0  0  0  0  0  1  0  0  0  0  0  0
  158.5210  212.9940  152.0140 C   0  0  2  0  0  0  0  0  0  0  0  0
  157.8850  211.5750  154.1000 C   0  0  0  0  0  2  0  0  0  0  0  0
  155.0550  210.1440  156.1280 C   0  0  0  0  0  1  0  0  0  0  0  0
  155.9650  213.5370  154.9740 C   0  0  1  0  0  3  0  0  0  0  0  0
  157.3690  212.5150  152.9930 C   0  0  1  0  0  3  0  0  0  0  0  0
  156.8480  210.5700  154.6210 C   0  0  1  0  0  3  0  0  0  0  0  0
  157.6700  209.4110  155.1860 C   0  0  0  0  0  1  0  0  0  0  0  0
  156.0260  211.1470  155.7060 N   0  0  0  0  0  0  0  0  0  0  0  0
  156.4460  213.6430  153.5190 C   0  0  0  0  0  2  0  0  0  0  0  0
  155.1900  212.2380  155.2120 C   0  0  0  0  0  2  0  0  0  0  0  0
  157.0250  213.8670  156.0130 C   0  0  0  0  0  0  0  0  0  0  0  0
  156.6770  214.1880  157.1460 O   0  0  0  0  0  0  0  0  0  0  0  0
  158.4890  213.7560  155.7080 C   0  0  0  0  0  1  0  0  0  0  0  0
  156.7510  213.2820  148.7170 C   0  0  0  0  0  2  0  0  0  0  0  0
  158.1470  212.7620  150.5780 N   0  0  0  0  0  0  0  0  0  0  0  0
  159.8520  214.4530  149.6880 C   0  0  0  0  0  1  0  0  0  0  0  0
  159.0660  213.1600  149.4690 C   0  0  2  0  0  3  0  0  0  0  0  0
  156.8590  213.3440  150.2300 C   0  0  0  0  0  2  0  0  0  0  0  0
  158.1880  213.3520  148.2260 C   0  0  1  0  0  3  0  0  0  0  0  0
  157.3750  212.2100  146.2640 O   0  0  0  0  0  1  0  0  0  0  0  0
  159.6350  212.5500  146.4330 O   0  0  0  0  0  1  0  0  0  0  0  0
  158.4590  212.2900  147.1470 C   0  0  0  0  0  3  0  0  0  0  0  0
  158.1240  200.3830  149.8200 C   0  0  0  0  0  2  0  0  0  0  0  0
  159.1280  200.3250  150.7840 O   0  0  0  0  0  1  0  0  0  0  0  0
  2 24  2  0  0  0  0
  3 17  1  0  0  0  0
  4 31  1  0  0  0  0
  5 39  1  6  0  0  0
  5  8  1  0  0  0  0
  6 11  1  0  0  0  0
  7 23  1  6  0  0  0
  7 31  1  0  0  0  0
  7 42  1  0  0  0  0
  8 12  1  0  0  0  0
 10 27  1  6  0  0  0
 10 33  1  0  0  0  0
 11 27  1  6  0  0  0
 11 10  1  0  0  0  0
 12  9  1  1  0  0  0
 12 29  1  0  0  0  0
 13 19  1  0  0  0  0
 13  3  1  0  0  0  0
 14 32  1  0  0  0  0
 14 38  1  0  0  0  0
 15 14  1  0  0  0  0
 15 37  1  0  0  0  0
 16 25  1  0  0  0  0
 16 21  1  0  0  0  0
 17 68  1  0  0  0  0
 18 32  1  0  0  0  0
 19 26  1  0  0  0  0
 20  2  1  0  0  0  0
 20 36  1  0  0  0  0
 21 19  1  0  0  0  0
 22 15  1  0  0  0  0
 24 30  1  0  0  0  0
 26 17  1  0  0  0  0
 26  6  1  0  0  0  0
 28  9  1  0  0  0  0
 29 23  1  0  0  0  0
 29  4  1  0  0  0  0
 30  1  2  0  0  0  0
 31 36  1  0  0  0  0
 32 16  1  0  0  0  0
 33 20  1  0  0  0  0
 34 37  1  0  0  0  0
 35 30  1  0  0  0  0
 36 35  1  0  0  0  0
 37 25  1  0  0  0  0
 38  5  1  0  0  0  0
 38 28  1  0  0  0  0
 40 43  1  0  0  0  0
 40 42  1  0  0  0  0
 40 44  1  0  0  0  0
 42 41  1  0  0  0  0
 43 44  1  0  0  0  0
 44 41  1  0  0  0  0
 46 45  1  0  0  0  0
 46 43  1  0  0  0  0
 46 50  1  0  0  0  0
 47 51  1  0  0  0  0
 49 55  1  0  0  0  0
 49 56  1  0  0  0  0
 50 54  1  0  0  0  0
 50 47  1  0  0  0  0
 51 52  1  0  0  0  0
 51 53  1  0  0  0  0
 53 48  1  0  0  0  0
 54 49  1  0  0  0  0
 55 53  1  0  0  0  0
 56 57  2  0  0  0  0
 58 56  1  0  0  0  0
 59 63  1  0  0  0  0
 60 46  1  0  0  0  0
 62 61  1  0  0  0  0
 62 60  1  0  0  0  0
 63 60  1  0  0  0  0
 64 59  1  0  0  0  0
 64 62  1  0  0  0  0
 65 67  1  0  0  0  0
 66 67  1  0  0  0  0
 67 64  1  0  0  0  0
 68 69  1  0  0  0  0
M  END
>  <MODEL>
2

>  <REMARK>
 VINA RESULT:      18.3      5.048     11.025
  Name = 
  7 active torsions:
  status: ('A' for Active; 'I' for Inactive)
    1  A    between atoms: C_10  and  C_48
    2  A    between atoms: N_11  and  C_59
    3  A    between atoms: C_13  and  C_34
    4  A    between atoms: C_24  and  C_44
    5  A    between atoms: C_27  and  C_61
    6  A    between atoms: C_36  and  C_59
    7  A    between atoms: N_50  and  C_59
                            x       y       z     vdW  Elec       q    Type
                         _______ _______ _______ _____ _____    ______ ____

>  <TORSDO>
F 7

$$$$
=
 OpenBabel11072414303D

 69 79  0  0  1  0  0  0  0  0999 V2000
  161.8730  207.8920  145.8520 N   0  0  0  0  0  2  0  0  0  0  0  0
  160.4300  208.4520  149.0940 C   0  0  0  0  0  3  0  0  0  0  0  0
  162.5640  210.5800  157.2540 O   0  0  0  0  0  0  0  0  0  0  0  0
  161.9070  211.9210  149.9640 O   0  0  0  0  0  0  0  0  0  0  0  0
  160.1530  213.1960  153.6460 C   0  0  2  0  0  3  0  0  0  0  0  0
  161.3740  209.5810  154.0940 N   0  0  0  0  0  2  0  0  0  0  0  0
  160.8830  211.3480  147.8570 C   0  0  2  0  0  3  0  0  0  0  0  0
  160.7550  212.5180  152.4050 C   0  0  0  0  0  2  0  0  0  0  0  0
  158.5360  212.3530  151.2530 C   0  0  0  0  0  2  0  0  0  0  0  0
  160.4240  208.4970  152.0350 C   0  0  1  0  0  3  0  0  0  0  0  0
  160.4000  208.6260  153.5700 C   0  0  2  0  0  3  0  0  0  0  0  0
  159.9740  212.9200  151.1640 C   0  0  2  0  0  3  0  0  0  0  0  0
  161.5920  211.5210  156.8820 C   0  0  0  0  0  2  0  0  0  0  0  0
  157.9360  213.5700  154.9570 C   0  0  1  0  0  3  0  0  0  0  0  0
  156.4240  213.2770  155.0130 C   0  0  1  0  0  3  0  0  0  0  0  0
  158.1700  211.4690  156.4660 C   0  0  2  0  0  3  0  0  0  0  0  0
  162.6410  209.6630  156.1870 C   0  0  2  0  0  3  0  0  0  0  0  0
  158.5710  213.7070  157.2600 F   0  0  0  0  0  0  0  0  0  0  0  0
  160.5820  210.8330  155.9950 C   0  0  2  0  0  3  0  0  0  0  0  0
  161.6460  208.8880  149.8650 C   0  0  2  0  0  3  0  0  0  0  0  0
  159.3280  210.5210  156.7980 C   0  0  0  0  0  2  0  0  0  0  0  0
  155.7500  213.8850  153.9520 O   0  0  0  0  0  1  0  0  0  0  0  0
  159.8450  211.9090  148.7840 C   0  0  0  0  0  2  0  0  0  0  0  0
  160.5000  208.1690  147.7910 C   0  0  0  0  0  3  0  0  0  0  0  0
  157.2800  210.8610  155.3850 C   0  0  0  0  0  2  0  0  0  0  0  0
  161.2710  209.5860  155.5550 C   0  0  1  0  0  3  0  0  0  0  0  0
  159.3560  209.3350  152.7180 C   0  0  0  0  0  2  0  0  0  0  0  0
  157.9650  212.2960  152.6770 C   0  0  0  0  0  2  0  0  0  0  0  0
  160.6860  212.6130  149.8260 C   0  0  2  0  0  3  0  0  0  0  0  0
  161.7540  208.3640  147.0470 C   0  0  0  0  0  0  0  0  0  0  0  0
  162.1130  211.2300  148.7470 C   0  0  2  0  0  3  0  0  0  0  0  0
  158.6560  212.8950  156.1460 C   0  0  2  0  0  3  0  0  0  0  0  0
  161.3490  209.4410  151.2720 C   0  0  0  0  0  2  0  0  0  0  0  0
  155.0860  211.5750  156.0450 O   0  0  0  0  0  1  0  0  0  0  0  0
  162.9410  209.0420  147.7000 C   0  0  0  0  0  2  0  0  0  0  0  0
  162.5770  209.7740  149.0050 C   0  0  2  0  0  3  0  0  0  0  0  0
  156.0830  211.7700  155.0860 C   0  0  1  0  0  3  0  0  0  0  0  0
  158.6170  213.3630  153.5730 C   0  0  2  0  0  3  0  0  0  0  0  0
  160.7430  214.4480  153.8220 O   0  0  0  0  0  1  0  0  0  0  0  0
  160.8770  211.5550  145.3260 C   0  0  2  0  0  3  0  0  0  0  0  0
  160.0670  213.2550  146.3530 C   0  0  0  0  0  2  0  0  0  0  0  0
  161.1700  212.2560  146.6440 C   0  0  1  0  0  3  0  0  0  0  0  0
  161.0000  212.5180  144.2150 N   0  0  0  0  0  0  0  0  0  0  0  0
  159.7910  212.5030  145.0660 C   0  0  1  0  0  3  0  0  0  0  0  0
  160.2560  210.6530  143.0770 O   0  0  0  0  0  1  0  0  0  0  0  0
  160.6680  211.9910  142.8680 C   0  0  2  0  0  0  0  0  0  0  0  0
  161.6980  210.8750  140.7550 C   0  0  0  0  0  2  0  0  0  0  0  0
  164.7730  210.5560  138.6080 C   0  0  0  0  0  1  0  0  0  0  0  0
  162.7260  213.3930  139.8040 C   0  0  1  0  0  3  0  0  0  0  0  0
  161.8760  211.9550  141.8410 C   0  0  1  0  0  3  0  0  0  0  0  0
  163.0110  210.3140  140.1900 C   0  0  1  0  0  3  0  0  0  0  0  0
  162.6500  208.9270  139.6570 C   0  0  0  0  0  1  0  0  0  0  0  0
  163.5190  211.1380  139.0720 N   0  0  0  0  0  0  0  0  0  0  0  0
  162.2990  213.3360  141.2780 C   0  0  0  0  0  2  0  0  0  0  0  0
  163.9150  212.4660  139.5310 C   0  0  0  0  0  2  0  0  0  0  0  0
  161.5790  213.2960  138.8110 C   0  0  0  0  0  0  0  0  0  0  0  0
  161.0460  214.3250  138.4060 O   0  0  0  0  0  0  0  0  0  0  0  0
  161.1170  211.9760  138.2680 C   0  0  0  0  0  1  0  0  0  0  0  0
  158.6410  214.4240  140.8530 C   0  0  0  0  0  2  0  0  0  0  0  0
  159.4910  212.7280  142.2980 N   0  0  0  0  0  0  0  0  0  0  0  0
  159.1290  211.0320  140.4150 C   0  0  0  0  0  1  0  0  0  0  0  0
  158.5250  212.0470  141.3850 C   0  0  2  0  0  3  0  0  0  0  0  0
  159.8720  213.9500  141.6040 C   0  0  0  0  0  2  0  0  0  0  0  0
  157.8630  213.1530  140.5520 C   0  0  1  0  0  3  0  0  0  0  0  0
  156.1940  214.3680  141.7980 O   0  0  0  0  0  1  0  0  0  0  0  0
  155.5990  213.5580  139.7390 O   0  0  0  0  0  1  0  0  0  0  0  0
  156.3700  213.3230  140.8830 C   0  0  0  0  0  3  0  0  0  0  0  0
  163.0100  208.2930  156.7270 C   0  0  0  0  0  2  0  0  0  0  0  0
  161.9250  207.4230  156.6570 O   0  0  0  0  0  1  0  0  0  0  0  0
  1 30  2  0  0  0  0
  2 20  1  0  0  0  0
  5 39  1  6  0  0  0
  6 26  1  0  0  0  0
  7 31  1  0  0  0  0
  7 23  1  1  0  0  0
  8  5  1  0  0  0  0
  9 28  1  0  0  0  0
 10 33  1  6  0  0  0
 10 27  1  0  0  0  0
 10 11  1  0  0  0  0
 11 27  1  6  0  0  0
 11  6  1  0  0  0  0
 12  9  1  6  0  0  0
 12  8  1  0  0  0  0
 13  3  1  0  0  0  0
 14 15  1  0  0  0  0
 14 32  1  0  0  0  0
 15 37  1  0  0  0  0
 16 21  1  0  0  0  0
 17 68  1  0  0  0  0
 17  3  1  0  0  0  0
 19 21  1  0  0  0  0
 19 13  1  0  0  0  0
 20 33  1  0  0  0  0
 22 15  1  0  0  0  0
 23 29  1  0  0  0  0
 24  2  2  0  0  0  0
 25 16  1  0  0  0  0
 26 19  1  0  0  0  0
 26 17  1  0  0  0  0
 28 38  1  0  0  0  0
 29  4  1  0  0  0  0
 29 12  1  0  0  0  0
 30 35  1  0  0  0  0
 30 24  1  0  0  0  0
 31 36  1  0  0  0  0
 31  4  1  0  0  0  0
 32 16  1  0  0  0  0
 32 18  1  0  0  0  0
 35 36  1  0  0  0  0
 36 20  1  0  0  0  0
 37 25  1  0  0  0  0
 37 34  1  0  0  0  0
 38  5  1  0  0  0  0
 38 14  1  0  0  0  0
 40 42  1  0  0  0  0
 41 42  1  0  0  0  0
 42  7  1  0  0  0  0
 43 44  1  0  0  0  0
 43 40  1  0  0  0  0
 44 40  1  0  0  0  0
 44 41  1  0  0  0  0
 46 45  1  0  0  0  0
 46 43  1  0  0  0  0
 47 50  1  0  0  0  0
 48 53  1  0  0  0  0
 49 54  1  0  0  0  0
 50 46  1  0  0  0  0
 51 47  1  0  0  0  0
 52 51  1  0  0  0  0
 53 55  1  0  0  0  0
 53 51  1  0  0  0  0
 54 50  1  0  0  0  0
 55 49  1  0  0  0  0
 56 49  1  0  0  0  0
 57 56  2  0  0  0  0
 58 56  1  0  0  0  0
 59 63  1  0  0  0  0
 60 46  1  0  0  0  0
 61 62  1  0  0  0  0
 62 60  1  0  0  0  0
 63 60  1  0  0  0  0
 64 59  1  0  0  0  0
 64 67  1  0  0  0  0
 64 62  1  0  0  0  0
 66 67  1  0  0  0  0
 67 65  1  0  0  0  0
 69 68  1  0  0  0  0
M  END
>  <MODEL>
3

>  <REMARK>
 VINA RESULT:      20.3      1.108      1.676
  Name = 
  7 active torsions:
  status: ('A' for Active; 'I' for Inactive)
    1  A    between atoms: C_10  and  C_48
    2  A    between atoms: N_11  and  C_59
    3  A    between atoms: C_13  and  C_34
    4  A    between atoms: C_24  and  C_44
    5  A    between atoms: C_27  and  C_61
    6  A    between atoms: C_36  and  C_59
    7  A    between atoms: N_50  and  C_59
                            x       y       z     vdW  Elec       q    Type
                         _______ _______ _______ _____ _____    ______ ____

>  <TORSDO>
F 7

$$$$
