=
 OpenBabel11072413383D

 43 49  0  0  1  0  0  0  0  0999 V2000
  160.6610  209.8490  152.7100 C   0  0  0  0  0  0  0  0  0  0  0  0
  161.0840  206.4960  153.6950 C   0  0  0  0  0  2  0  0  0  0  0  0
  160.6130  208.6060  154.9820 C   0  0  0  0  0  2  0  0  0  0  0  0
  161.0750  208.0110  151.5190 C   0  0  0  0  0  0  0  0  0  0  0  0
  160.7850  208.8240  153.5640 N   0  0  0  0  0  0  0  0  0  0  0  0
  160.7610  206.4740  156.0830 O   0  0  0  0  0  0  0  0  0  0  0  0
  161.0250  207.7290  152.8730 C   0  0  0  0  0  0  0  0  0  0  0  0
  160.8160  207.1160  155.0460 C   0  0  0  0  0  0  0  0  0  0  0  0
  160.8420  209.3900  151.4060 C   0  0  0  0  0  3  0  0  0  0  0  0
  160.2790  205.0710  151.4940 N   0  0  0  0  0  0  0  0  0  0  0  0
  161.8960  205.2620  148.2000 C   0  0  0  0  0  0  0  0  0  0  0  0
  160.4400  205.8190  150.2550 C   0  0  2  0  0  3  0  0  0  0  0  0
  160.7040  203.8620  151.3260 C   0  0  0  0  0  3  0  0  0  0  0  0
  162.1420  207.3980  149.4060 C   0  0  0  0  0  3  0  0  0  0  0  0
  161.2690  203.6740  149.9950 C   0  0  0  0  0  2  0  0  0  0  0  0
  161.1060  204.8270  149.3660 C   0  0  2  0  0  3  0  0  0  0  0  0
  162.3880  206.5100  148.2430 C   0  0  0  0  0  3  0  0  0  0  0  0
  161.2960  207.0660  150.4000 C   0  0  0  0  0  0  0  0  0  0  0  0
  159.9380  204.2990  145.0450 C   0  0  0  0  0  2  0  0  0  0  0  0
  161.9760  205.7500  144.3770 C   0  0  0  0  0  2  0  0  0  0  0  0
  160.7850  203.0940  145.4700 C   0  0  0  0  0  2  0  0  0  0  0  0
  163.0240  204.6970  144.7580 C   0  0  0  0  0  2  0  0  0  0  0  0
  162.1840  204.3830  147.0930 N   0  0  0  0  0  0  0  0  0  0  0  0
  160.6580  205.6500  145.1550 C   0  0  0  0  0  2  0  0  0  0  0  0
  161.3560  203.1870  146.8890 C   0  0  0  0  0  2  0  0  0  0  0  0
  163.3610  204.6430  146.2530 C   0  0  0  0  0  2  0  0  0  0  0  0
  160.3340  211.2510  153.0980 C   0  0  0  0  0  2  0  0  0  0  0  0
  160.1010  212.0970  151.8590 C   0  0  0  0  0  2  0  0  0  0  0  0
  158.7630  212.8320  151.9510 C   0  0  2  0  0  3  0  0  0  0  0  0
  157.6530  214.0720  150.1210 N   0  0  0  0  0  0  0  0  0  0  0  0
  156.2550  214.0660  150.4240 C   0  0  0  0  0  0  0  0  0  0  0  0
  159.6730  214.2750  148.9030 C   0  0  0  0  0  2  0  0  0  0  0  0
  159.9780  214.4520  150.3850 C   0  0  0  0  0  2  0  0  0  0  0  0
  158.1630  214.2010  148.7710 C   0  0  0  0  0  2  0  0  0  0  0  0
  155.4030  214.0190  149.4970 O   0  0  0  0  0  0  0  0  0  0  0  0
  155.8270  214.1140  151.7450 O   0  0  0  0  0  1  0  0  0  0  0  0
  158.6870  214.1410  151.1350 C   0  0  2  0  0  3  0  0  0  0  0  0
  157.6320  213.5000  156.0470 C   0  0  0  0  0  3  0  0  0  0  0  0
  158.4550  214.4130  155.3820 C   0  0  0  0  0  3  0  0  0  0  0  0
  157.1730  212.3580  155.3810 C   0  0  0  0  0  3  0  0  0  0  0  0
  158.3650  213.0460  153.3810 C   0  0  0  0  0  0  0  0  0  0  0  0
  157.5370  212.1320  154.0520 C   0  0  0  0  0  3  0  0  0  0  0  0
  158.8210  214.1870  154.0510 C   0  0  0  0  0  3  0  0  0  0  0  0
  1 27  1  0  0  0  0
  1  5  1  0  0  0  0
  2  8  1  0  0  0  0
  3  8  1  0  0  0  0
  4  7  2  0  0  0  0
  5  3  1  0  0  0  0
  7  5  1  0  0  0  0
  7  2  1  0  0  0  0
  8  6  2  0  0  0  0
  9  4  1  0  0  0  0
  9  1  2  0  0  0  0
 11 17  2  0  0  0  0
 11 16  1  0  0  0  0
 12 18  1  1  0  0  0
 12 10  1  0  0  0  0
 13 10  2  0  0  0  0
 14 18  2  0  0  0  0
 15 13  1  0  0  0  0
 16 15  1  1  0  0  0
 16 12  1  0  0  0  0
 17 14  1  0  0  0  0
 18  4  1  0  0  0  0
 19 24  1  0  0  0  0
 19 21  1  0  0  0  0
 20 22  1  0  0  0  0
 20 24  1  0  0  0  0
 21 25  1  0  0  0  0
 22 26  1  0  0  0  0
 23 11  1  0  0  0  0
 25 23  1  0  0  0  0
 26 23  1  0  0  0  0
 28 27  1  0  0  0  0
 29 28  1  1  0  0  0
 29 41  1  0  0  0  0
 30 31  1  0  0  0  0
 30 37  1  0  0  0  0
 31 36  1  0  0  0  0
 32 33  1  0  0  0  0
 33 37  1  0  0  0  0
 34 32  1  0  0  0  0
 34 30  1  0  0  0  0
 35 31  2  0  0  0  0
 37 29  1  6  0  0  0
 39 38  1  0  0  0  0
 40 38  2  0  0  0  0
 41 43  1  0  0  0  0
 41 42  2  0  0  0  0
 42 40  1  0  0  0  0
 43 39  2  0  0  0  0
M  END
>  <MODEL>
1

>  <REMARK>
 VINA RESULT:      -7.9      0.000      0.000
  Name = 
  7 active torsions:
  status: ('A' for Active; 'I' for Inactive)
    1  A    between atoms: C_5  and  N_25
    2  A    between atoms: C_11  and  C_37
    3  A    between atoms: C_15  and  C_16
    4  A    between atoms: C_15  and  C_37
    5  A    between atoms: C_16  and  C_27
    6  A    between atoms: C_16  and  C_35
    7  A    between atoms: C_19  and  C_31
                            x       y       z     vdW  Elec       q    Type
                         _______ _______ _______ _____ _____    ______ ____

>  <TORSDO>
F 7

$$$$
=
 OpenBabel11072413383D

 43 49  0  0  1  0  0  0  0  0999 V2000
  160.7330  209.9870  152.8070 C   0  0  0  0  0  0  0  0  0  0  0  0
  160.9560  206.6210  153.8140 C   0  0  0  0  0  2  0  0  0  0  0  0
  160.5530  208.7580  155.0800 C   0  0  0  0  0  2  0  0  0  0  0  0
  161.0900  208.1260  151.6350 C   0  0  0  0  0  0  0  0  0  0  0  0
  160.7800  208.9610  153.6670 N   0  0  0  0  0  0  0  0  0  0  0  0
  160.5590  206.6260  156.1910 O   0  0  0  0  0  0  0  0  0  0  0  0
  160.9840  207.8520  152.9880 C   0  0  0  0  0  0  0  0  0  0  0  0
  160.6780  207.2600  155.1550 C   0  0  0  0  0  0  0  0  0  0  0  0
  160.9310  209.5140  151.5110 C   0  0  0  0  0  3  0  0  0  0  0  0
  160.3790  205.1650  151.6920 N   0  0  0  0  0  0  0  0  0  0  0  0
  161.8690  205.3370  148.3390 C   0  0  0  0  0  0  0  0  0  0  0  0
  160.4730  205.8920  150.4350 C   0  0  2  0  0  3  0  0  0  0  0  0
  160.8320  203.9640  151.5310 C   0  0  0  0  0  3  0  0  0  0  0  0
  162.0980  207.5020  149.4960 C   0  0  0  0  0  3  0  0  0  0  0  0
  161.3540  203.7670  150.1840 C   0  0  0  0  0  2  0  0  0  0  0  0
  161.1350  204.9020  149.5400 C   0  0  2  0  0  3  0  0  0  0  0  0
  162.3260  206.5980  148.3410 C   0  0  0  0  0  3  0  0  0  0  0  0
  161.2980  207.1650  150.5250 C   0  0  0  0  0  0  0  0  0  0  0  0
  159.9430  204.4650  145.1370 C   0  0  0  0  0  2  0  0  0  0  0  0
  162.0610  205.8200  144.5190 C   0  0  0  0  0  2  0  0  0  0  0  0
  160.7230  203.2220  145.5810 C   0  0  0  0  0  2  0  0  0  0  0  0
  163.0500  204.7190  144.9230 C   0  0  0  0  0  2  0  0  0  0  0  0
  162.1420  204.4450  147.2380 N   0  0  0  0  0  0  0  0  0  0  0  0
  160.7220  205.7810  145.2650 C   0  0  0  0  0  2  0  0  0  0  0  0
  161.2650  203.2890  147.0130 C   0  0  0  0  0  2  0  0  0  0  0  0
  163.3500  204.6510  146.4250 C   0  0  0  0  0  2  0  0  0  0  0  0
  160.4660  211.4050  153.1810 C   0  0  0  0  0  2  0  0  0  0  0  0
  159.0160  211.7580  152.8990 C   0  0  0  0  0  2  0  0  0  0  0  0
  158.8670  213.2540  152.6240 C   0  0  2  0  0  3  0  0  0  0  0  0
  157.6060  213.2800  154.7520 N   0  0  0  0  0  0  0  0  0  0  0  0
  158.5820  213.2480  155.7970 C   0  0  0  0  0  0  0  0  0  0  0  0
  155.5270  213.1070  153.6330 C   0  0  0  0  0  2  0  0  0  0  0  0
  156.4370  214.0290  152.8300 C   0  0  0  0  0  2  0  0  0  0  0  0
  156.2540  212.7890  154.9260 C   0  0  0  0  0  2  0  0  0  0  0  0
  158.3420  212.6430  156.8750 O   0  0  0  0  0  1  0  0  0  0  0  0
  159.8050  213.8880  155.6290 O   0  0  0  0  0  0  0  0  0  0  0  0
  157.8090  213.9690  153.4930 C   0  0  2  0  0  3  0  0  0  0  0  0
  158.3090  214.0060  148.4260 C   0  0  0  0  0  3  0  0  0  0  0  0
  159.4620  214.4520  149.0780 C   0  0  0  0  0  3  0  0  0  0  0  0
  157.3260  213.3120  149.1400 C   0  0  0  0  0  3  0  0  0  0  0  0
  158.6540  213.5140  151.1630 C   0  0  0  0  0  0  0  0  0  0  0  0
  157.4980  213.0650  150.5040 C   0  0  0  0  0  3  0  0  0  0  0  0
  159.6350  214.2060  150.4440 C   0  0  0  0  0  3  0  0  0  0  0  0
  1 27  1  0  0  0  0
  1  5  1  0  0  0  0
  2  8  1  0  0  0  0
  3  8  1  0  0  0  0
  4  7  2  0  0  0  0
  5  3  1  0  0  0  0
  7  5  1  0  0  0  0
  7  2  1  0  0  0  0
  8  6  2  0  0  0  0
  9  4  1  0  0  0  0
  9  1  2  0  0  0  0
 11 17  2  0  0  0  0
 11 16  1  0  0  0  0
 12 18  1  1  0  0  0
 12 10  1  0  0  0  0
 13 10  2  0  0  0  0
 14 18  2  0  0  0  0
 15 13  1  0  0  0  0
 16 15  1  1  0  0  0
 16 12  1  0  0  0  0
 17 14  1  0  0  0  0
 18  4  1  0  0  0  0
 19 24  1  0  0  0  0
 19 21  1  0  0  0  0
 20 22  1  0  0  0  0
 20 24  1  0  0  0  0
 21 25  1  0  0  0  0
 22 26  1  0  0  0  0
 23 11  1  0  0  0  0
 25 23  1  0  0  0  0
 26 23  1  0  0  0  0
 28 27  1  0  0  0  0
 29 28  1  6  0  0  0
 30 34  1  0  0  0  0
 30 31  1  0  0  0  0
 31 35  1  0  0  0  0
 32 34  1  0  0  0  0
 33 37  1  0  0  0  0
 33 32  1  0  0  0  0
 36 31  2  0  0  0  0
 37 29  1  6  0  0  0
 37 30  1  0  0  0  0
 38 39  2  0  0  0  0
 38 40  1  0  0  0  0
 39 43  1  0  0  0  0
 40 42  2  0  0  0  0
 41 29  1  0  0  0  0
 42 41  1  0  0  0  0
 43 41  2  0  0  0  0
M  END
>  <MODEL>
2

>  <REMARK>
 VINA RESULT:      -7.4      1.714      3.192
  Name = 
  7 active torsions:
  status: ('A' for Active; 'I' for Inactive)
    1  A    between atoms: C_5  and  N_25
    2  A    between atoms: C_11  and  C_37
    3  A    between atoms: C_15  and  C_16
    4  A    between atoms: C_15  and  C_37
    5  A    between atoms: C_16  and  C_27
    6  A    between atoms: C_16  and  C_35
    7  A    between atoms: C_19  and  C_31
                            x       y       z     vdW  Elec       q    Type
                         _______ _______ _______ _____ _____    ______ ____

>  <TORSDO>
F 7

$$$$
=
 OpenBabel11072413383D

 43 49  0  0  1  0  0  0  0  0999 V2000
  162.1890  209.5200  149.5050 C   0  0  0  0  0  0  0  0  0  0  0  0
  161.4730  212.9670  149.4510 C   0  0  0  0  0  2  0  0  0  0  0  0
  162.6330  211.4390  147.8230 C   0  0  0  0  0  2  0  0  0  0  0  0
  161.1490  210.8260  150.9820 C   0  0  0  0  0  0  0  0  0  0  0  0
  162.2180  210.7750  149.0370 N   0  0  0  0  0  0  0  0  0  0  0  0
  162.3010  213.7690  147.3350 O   0  0  0  0  0  0  0  0  0  0  0  0
  161.6010  211.5590  149.8980 C   0  0  0  0  0  0  0  0  0  0  0  0
  162.1570  212.8380  148.1100 C   0  0  0  0  0  0  0  0  0  0  0  0
  161.5310  209.4990  150.7340 C   0  0  0  0  0  3  0  0  0  0  0  0
  159.0420  213.0250  150.9470 N   0  0  0  0  0  0  0  0  0  0  0  0
  159.0520  212.2890  154.5470 C   0  0  0  0  0  0  0  0  0  0  0  0
  159.0470  212.0030  151.9840 C   0  0  2  0  0  3  0  0  0  0  0  0
  158.6870  214.1570  151.4610 C   0  0  0  0  0  3  0  0  0  0  0  0
  160.8070  210.9930  153.3970 C   0  0  0  0  0  3  0  0  0  0  0  0
  158.4890  214.0520  152.9010 C   0  0  0  0  0  2  0  0  0  0  0  0
  158.6960  212.7810  153.2040 C   0  0  2  0  0  3  0  0  0  0  0  0
  160.0770  211.4260  154.6150 C   0  0  0  0  0  3  0  0  0  0  0  0
  160.3900  211.3140  152.1570 C   0  0  0  0  0  0  0  0  0  0  0  0
  155.6270  213.9020  155.1680 C   0  0  0  0  0  2  0  0  0  0  0  0
  155.6320  211.5020  156.1420 C   0  0  0  0  0  2  0  0  0  0  0  0
  156.6110  214.4530  156.2060 C   0  0  0  0  0  2  0  0  0  0  0  0
  156.6340  211.8120  157.2610 C   0  0  0  0  0  2  0  0  0  0  0  0
  158.3830  212.7500  155.7390 N   0  0  0  0  0  0  0  0  0  0  0  0
  155.7630  212.3960  154.9020 C   0  0  0  0  0  2  0  0  0  0  0  0
  158.0860  214.1810  155.8900 C   0  0  0  0  0  2  0  0  0  0  0  0
  158.1030  211.7990  156.8230 C   0  0  0  0  0  2  0  0  0  0  0  0
  162.7370  208.3300  148.7940 C   0  0  0  0  0  2  0  0  0  0  0  0
  162.4030  207.0620  149.5600 C   0  0  0  0  0  2  0  0  0  0  0  0
  161.1240  206.4240  149.0190 C   0  0  2  0  0  3  0  0  0  0  0  0
  161.2740  205.1740  151.1480 N   0  0  0  0  0  0  0  0  0  0  0  0
  161.3100  206.1560  152.1870 C   0  0  0  0  0  0  0  0  0  0  0  0
  161.4930  203.1000  150.0270 C   0  0  0  0  0  2  0  0  0  0  0  0
  160.4860  203.9580  149.2710 C   0  0  0  0  0  2  0  0  0  0  0  0
  161.8410  203.8490  151.3000 C   0  0  0  0  0  2  0  0  0  0  0  0
  161.9820  205.9520  153.2330 O   0  0  0  0  0  1  0  0  0  0  0  0
  160.6010  207.3430  152.0500 O   0  0  0  0  0  0  0  0  0  0  0  0
  160.5110  205.3350  149.9260 C   0  0  2  0  0  3  0  0  0  0  0  0
  161.7240  204.9710  145.0150 C   0  0  0  0  0  3  0  0  0  0  0  0
  162.6450  204.6690  146.0230 C   0  0  0  0  0  3  0  0  0  0  0  0
  160.6010  205.7520  145.3050 C   0  0  0  0  0  3  0  0  0  0  0  0
  161.3210  205.9310  147.6170 C   0  0  0  0  0  0  0  0  0  0  0  0
  160.3980  206.2300  146.6020 C   0  0  0  0  0  3  0  0  0  0  0  0
  162.4430  205.1480  147.3220 C   0  0  0  0  0  3  0  0  0  0  0  0
  1  9  2  0  0  0  0
  2  7  1  0  0  0  0
  3  8  1  0  0  0  0
  3  5  1  0  0  0  0
  4 18  1  0  0  0  0
  5  1  1  0  0  0  0
  5  7  1  0  0  0  0
  6  8  2  0  0  0  0
  7  4  2  0  0  0  0
  8  2  1  0  0  0  0
  9  4  1  0  0  0  0
 10 13  2  0  0  0  0
 11 17  2  0  0  0  0
 11 23  1  0  0  0  0
 12 10  1  6  0  0  0
 12 18  1  0  0  0  0
 12 16  1  0  0  0  0
 13 15  1  0  0  0  0
 14 17  1  0  0  0  0
 16 15  1  6  0  0  0
 16 11  1  0  0  0  0
 18 14  2  0  0  0  0
 19 21  1  0  0  0  0
 20 22  1  0  0  0  0
 23 25  1  0  0  0  0
 23 26  1  0  0  0  0
 24 19  1  0  0  0  0
 24 20  1  0  0  0  0
 25 21  1  0  0  0  0
 26 22  1  0  0  0  0
 27  1  1  0  0  0  0
 27 28  1  0  0  0  0
 29 28  1  1  0  0  0
 30 34  1  0  0  0  0
 30 31  1  0  0  0  0
 31 35  1  0  0  0  0
 32 34  1  0  0  0  0
 33 37  1  0  0  0  0
 33 32  1  0  0  0  0
 36 31  2  0  0  0  0
 37 29  1  6  0  0  0
 37 30  1  0  0  0  0
 38 40  2  0  0  0  0
 38 39  1  0  0  0  0
 39 43  2  0  0  0  0
 40 42  1  0  0  0  0
 41 29  1  0  0  0  0
 42 41  2  0  0  0  0
 43 41  1  0  0  0  0
M  END
>  <MODEL>
3

>  <REMARK>
 VINA RESULT:      -6.8      2.412     10.306
  Name = 
  7 active torsions:
  status: ('A' for Active; 'I' for Inactive)
    1  A    between atoms: C_5  and  N_25
    2  A    between atoms: C_11  and  C_37
    3  A    between atoms: C_15  and  C_16
    4  A    between atoms: C_15  and  C_37
    5  A    between atoms: C_16  and  C_27
    6  A    between atoms: C_16  and  C_35
    7  A    between atoms: C_19  and  C_31
                            x       y       z     vdW  Elec       q    Type
                         _______ _______ _______ _____ _____    ______ ____

>  <TORSDO>
F 7

$$$$
=
 OpenBabel11072413383D

 43 49  0  0  1  0  0  0  0  0999 V2000
  161.3350  209.5770  151.7420 C   0  0  0  0  0  0  0  0  0  0  0  0
  162.0820  209.6980  148.3040 C   0  0  0  0  0  2  0  0  0  0  0  0
  161.9540  211.4700  150.0850 C   0  0  0  0  0  2  0  0  0  0  0  0
  161.4380  207.9660  150.2050 C   0  0  0  0  0  0  0  0  0  0  0  0
  161.6110  210.1490  150.5630 N   0  0  0  0  0  0  0  0  0  0  0  0
  162.5800  212.0070  147.8280 O   0  0  0  0  0  0  0  0  0  0  0  0
  161.6810  209.2080  149.6440 C   0  0  0  0  0  0  0  0  0  0  0  0
  162.2430  211.1620  148.6410 C   0  0  0  0  0  0  0  0  0  0  0  0
  161.2100  208.1990  151.5700 C   0  0  0  0  0  3  0  0  0  0  0  0
  160.8290  205.2910  151.5300 N   0  0  0  0  0  0  0  0  0  0  0  0
  161.6140  204.0960  148.1450 C   0  0  0  0  0  0  0  0  0  0  0  0
  160.6510  205.4800  150.0970 C   0  0  2  0  0  3  0  0  0  0  0  0
  161.2720  204.0970  151.7550 C   0  0  0  0  0  3  0  0  0  0  0  0
  162.0140  206.5230  148.3160 C   0  0  0  0  0  3  0  0  0  0  0  0
  161.5180  203.3750  150.5120 C   0  0  0  0  0  2  0  0  0  0  0  0
  161.1460  204.1900  149.5390 C   0  0  2  0  0  3  0  0  0  0  0  0
  162.0300  205.2370  147.5750 C   0  0  0  0  0  3  0  0  0  0  0  0
  161.4440  206.6460  149.5310 C   0  0  0  0  0  0  0  0  0  0  0  0
  160.1720  200.6120  148.8540 C   0  0  0  0  0  2  0  0  0  0  0  0
  158.9500  201.6460  146.8190 C   0  0  0  0  0  2  0  0  0  0  0  0
  161.5040  200.4380  148.1160 C   0  0  0  0  0  2  0  0  0  0  0  0
  160.1680  201.5950  145.8880 C   0  0  0  0  0  2  0  0  0  0  0  0
  161.6840  202.8400  147.4390 N   0  0  0  0  0  0  0  0  0  0  0  0
  159.2900  201.7440  148.3110 C   0  0  0  0  0  2  0  0  0  0  0  0
  162.3710  201.7010  148.0630 C   0  0  0  0  0  2  0  0  0  0  0  0
  161.1580  202.7510  146.0700 C   0  0  0  0  0  2  0  0  0  0  0  0
  161.2270  210.3010  153.0400 C   0  0  0  0  0  2  0  0  0  0  0  0
  159.8270  210.1530  153.6090 C   0  0  0  0  0  2  0  0  0  0  0  0
  159.7330  210.7990  154.9910 C   0  0  2  0  0  3  0  0  0  0  0  0
  161.4160  209.6910  156.4250 N   0  0  0  0  0  0  0  0  0  0  0  0
  162.2330  210.7350  156.9640 C   0  0  0  0  0  0  0  0  0  0  0  0
  160.6940  207.5330  155.7710 C   0  0  0  0  0  2  0  0  0  0  0  0
  159.4710  208.4300  155.9240 C   0  0  0  0  0  2  0  0  0  0  0  0
  161.8880  208.3310  156.2590 C   0  0  0  0  0  2  0  0  0  0  0  0
  163.4590  210.5390  157.1740 O   0  0  0  0  0  0  0  0  0  0  0  0
  161.6760  211.9730  157.2610 O   0  0  0  0  0  1  0  0  0  0  0  0
  159.9960  209.8400  156.1720 C   0  0  2  0  0  3  0  0  0  0  0  0
  156.0020  212.9000  155.4010 C   0  0  0  0  0  3  0  0  0  0  0  0
  156.5480  212.6660  154.1350 C   0  0  0  0  0  3  0  0  0  0  0  0
  156.6710  212.4520  156.5440 C   0  0  0  0  0  3  0  0  0  0  0  0
  158.4370  211.5360  155.1520 C   0  0  0  0  0  0  0  0  0  0  0  0
  157.8840  211.7700  156.4210 C   0  0  0  0  0  3  0  0  0  0  0  0
  157.7630  211.9850  154.0110 C   0  0  0  0  0  3  0  0  0  0  0  0
  1 27  1  0  0  0  0
  2  8  1  0  0  0  0
  2  7  1  0  0  0  0
  3  5  1  0  0  0  0
  4  9  1  0  0  0  0
  5  1  1  0  0  0  0
  6  8  2  0  0  0  0
  7  4  2  0  0  0  0
  7  5  1  0  0  0  0
  8  3  1  0  0  0  0
  9  1  2  0  0  0  0
 10 13  2  0  0  0  0
 11 16  1  0  0  0  0
 12 18  1  6  0  0  0
 12 10  1  0  0  0  0
 14 18  2  0  0  0  0
 15 13  1  0  0  0  0
 16 12  1  0  0  0  0
 16 15  1  1  0  0  0
 17 11  2  0  0  0  0
 17 14  1  0  0  0  0
 18  4  1  0  0  0  0
 20 24  1  0  0  0  0
 21 19  1  0  0  0  0
 22 26  1  0  0  0  0
 22 20  1  0  0  0  0
 23 25  1  0  0  0  0
 23 11  1  0  0  0  0
 24 19  1  0  0  0  0
 25 21  1  0  0  0  0
 26 23  1  0  0  0  0
 27 28  1  0  0  0  0
 29 28  1  6  0  0  0
 29 41  1  0  0  0  0
 30 31  1  0  0  0  0
 31 35  2  0  0  0  0
 31 36  1  0  0  0  0
 32 33  1  0  0  0  0
 32 34  1  0  0  0  0
 33 37  1  0  0  0  0
 34 30  1  0  0  0  0
 37 29  1  6  0  0  0
 37 30  1  0  0  0  0
 38 40  1  0  0  0  0
 39 38  2  0  0  0  0
 41 42  1  0  0  0  0
 42 40  2  0  0  0  0
 43 39  1  0  0  0  0
 43 41  2  0  0  0  0
M  END
>  <MODEL>
4

>  <REMARK>
 VINA RESULT:      -5.8      2.891      5.155
  Name = 
  7 active torsions:
  status: ('A' for Active; 'I' for Inactive)
    1  A    between atoms: C_5  and  N_25
    2  A    between atoms: C_11  and  C_37
    3  A    between atoms: C_15  and  C_16
    4  A    between atoms: C_15  and  C_37
    5  A    between atoms: C_16  and  C_27
    6  A    between atoms: C_16  and  C_35
    7  A    between atoms: C_19  and  C_31
                            x       y       z     vdW  Elec       q    Type
                         _______ _______ _______ _____ _____    ______ ____

>  <TORSDO>
F 7

$$$$
=
 OpenBabel11072413383D

 43 49  0  0  1  0  0  0  0  0999 V2000
  161.5880  206.3820  149.5500 C   0  0  0  0  0  0  0  0  0  0  0  0
  160.8310  205.4330  152.8550 C   0  0  0  0  0  2  0  0  0  0  0  0
  161.3960  204.1150  150.7880 C   0  0  0  0  0  2  0  0  0  0  0  0
  161.0960  207.6010  151.3500 C   0  0  0  0  0  0  0  0  0  0  0  0
  161.3280  205.5400  150.5590 N   0  0  0  0  0  0  0  0  0  0  0  0
  161.0070  203.0310  152.8970 O   0  0  0  0  0  0  0  0  0  0  0  0
  161.0410  206.2470  151.6330 C   0  0  0  0  0  0  0  0  0  0  0  0
  161.0670  204.0670  152.2560 C   0  0  0  0  0  0  0  0  0  0  0  0
  161.4480  207.6960  149.9960 C   0  0  0  0  0  3  0  0  0  0  0  0
  161.2170  207.4620  154.3900 N   0  0  0  0  0  0  0  0  0  0  0  0
  160.2640  210.9900  154.0090 C   0  0  0  0  0  0  0  0  0  0  0  0
  161.4370  208.7160  153.6840 C   0  0  2  0  0  3  0  0  0  0  0  0
  160.5700  207.6930  155.4860 C   0  0  0  0  0  3  0  0  0  0  0  0
  160.2930  209.8630  151.8160 C   0  0  0  0  0  3  0  0  0  0  0  0
  160.2120  209.1000  155.6090 C   0  0  0  0  0  2  0  0  0  0  0  0
  160.7300  209.7010  154.5500 C   0  0  2  0  0  3  0  0  0  0  0  0
  160.0590  211.0440  152.6840 C   0  0  0  0  0  3  0  0  0  0  0  0
  160.8650  208.7340  152.2770 C   0  0  0  0  0  0  0  0  0  0  0  0
  157.0000  212.6560  155.1470 C   0  0  0  0  0  2  0  0  0  0  0  0
  158.1040  211.4680  157.1660 C   0  0  0  0  0  2  0  0  0  0  0  0
  158.0800  213.7380  155.0420 C   0  0  0  0  0  2  0  0  0  0  0  0
  159.3040  212.4200  157.2450 C   0  0  0  0  0  2  0  0  0  0  0  0
  159.9810  212.1230  154.8560 N   0  0  0  0  0  0  0  0  0  0  0  0
  157.4820  211.3390  155.7700 C   0  0  0  0  0  2  0  0  0  0  0  0
  159.3380  213.3100  154.2780 C   0  0  0  0  0  2  0  0  0  0  0  0
  160.4310  212.1100  156.2550 C   0  0  0  0  0  2  0  0  0  0  0  0
  162.0060  205.9710  148.1790 C   0  0  0  0  0  2  0  0  0  0  0  0
  161.0090  204.9820  147.6020 C   0  0  0  0  0  2  0  0  0  0  0  0
  161.6880  203.6470  147.2960 C   0  0  2  0  0  3  0  0  0  0  0  0
  160.9190  204.1880  145.0090 N   0  0  0  0  0  0  0  0  0  0  0  0
  161.4720  205.4690  144.6930 C   0  0  0  0  0  0  0  0  0  0  0  0
  159.5370  202.2690  144.9150 C   0  0  0  0  0  2  0  0  0  0  0  0
  160.8300  201.9020  145.6310 C   0  0  0  0  0  2  0  0  0  0  0  0
  159.7080  203.6830  144.3940 C   0  0  0  0  0  2  0  0  0  0  0  0
  160.8320  206.2780  143.9710 O   0  0  0  0  0  0  0  0  0  0  0  0
  162.7230  205.8280  145.1810 O   0  0  0  0  0  1  0  0  0  0  0  0
  161.6050  203.2020  145.8200 C   0  0  2  0  0  3  0  0  0  0  0  0
  160.2530  200.5820  149.9520 C   0  0  0  0  0  3  0  0  0  0  0  0
  159.4090  201.6200  149.5470 C   0  0  0  0  0  3  0  0  0  0  0  0
  161.5740  200.5360  149.4950 C   0  0  0  0  0  3  0  0  0  0  0  0
  161.2060  202.5740  148.2270 C   0  0  0  0  0  0  0  0  0  0  0  0
  162.0500  201.5280  148.6340 C   0  0  0  0  0  3  0  0  0  0  0  0
  159.8850  202.6140  148.6860 C   0  0  0  0  0  3  0  0  0  0  0  0
  1  9  2  0  0  0  0
  1  5  1  0  0  0  0
  3  8  1  0  0  0  0
  4  7  2  0  0  0  0
  4 18  1  0  0  0  0
  5  3  1  0  0  0  0
  5  7  1  0  0  0  0
  7  2  1  0  0  0  0
  8  2  1  0  0  0  0
  8  6  2  0  0  0  0
  9  4  1  0  0  0  0
 10 13  2  0  0  0  0
 11 16  1  0  0  0  0
 11 23  1  0  0  0  0
 12 18  1  6  0  0  0
 12 10  1  0  0  0  0
 12 16  1  0  0  0  0
 13 15  1  0  0  0  0
 14 18  2  0  0  0  0
 14 17  1  0  0  0  0
 16 15  1  6  0  0  0
 17 11  2  0  0  0  0
 19 24  1  0  0  0  0
 20 22  1  0  0  0  0
 21 19  1  0  0  0  0
 23 26  1  0  0  0  0
 24 20  1  0  0  0  0
 25 23  1  0  0  0  0
 25 21  1  0  0  0  0
 26 22  1  0  0  0  0
 27  1  1  0  0  0  0
 28 27  1  0  0  0  0
 29 28  1  6  0  0  0
 29 41  1  0  0  0  0
 30 37  1  0  0  0  0
 31 30  1  0  0  0  0
 31 36  1  0  0  0  0
 32 33  1  0  0  0  0
 33 37  1  0  0  0  0
 34 32  1  0  0  0  0
 34 30  1  0  0  0  0
 35 31  2  0  0  0  0
 37 29  1  1  0  0  0
 39 38  1  0  0  0  0
 40 38  2  0  0  0  0
 41 42  2  0  0  0  0
 41 43  1  0  0  0  0
 42 40  1  0  0  0  0
 43 39  2  0  0  0  0
M  END
>  <MODEL>
5

>  <REMARK>
 VINA RESULT:      -5.8      3.337     10.091
  Name = 
  7 active torsions:
  status: ('A' for Active; 'I' for Inactive)
    1  A    between atoms: C_5  and  N_25
    2  A    between atoms: C_11  and  C_37
    3  A    between atoms: C_15  and  C_16
    4  A    between atoms: C_15  and  C_37
    5  A    between atoms: C_16  and  C_27
    6  A    between atoms: C_16  and  C_35
    7  A    between atoms: C_19  and  C_31
                            x       y       z     vdW  Elec       q    Type
                         _______ _______ _______ _____ _____    ______ ____

>  <TORSDO>
F 7

$$$$
=
 OpenBabel11072413383D

 43 49  0  0  1  0  0  0  0  0999 V2000
  161.0370  210.7020  151.9260 C   0  0  0  0  0  0  0  0  0  0  0  0
  161.6670  211.2530  148.5060 C   0  0  0  0  0  2  0  0  0  0  0  0
  161.3150  212.8120  150.4490 C   0  0  0  0  0  2  0  0  0  0  0  0
  161.3450  209.2750  150.2430 C   0  0  0  0  0  0  0  0  0  0  0  0
  161.1910  211.4160  150.8030 N   0  0  0  0  0  0  0  0  0  0  0  0
  161.7920  213.6450  148.2460 O   0  0  0  0  0  0  0  0  0  0  0  0
  161.3800  210.5850  149.7990 C   0  0  0  0  0  0  0  0  0  0  0  0
  161.6100  212.6870  148.9790 C   0  0  0  0  0  0  0  0  0  0  0  0
  161.1190  209.3430  151.6250 C   0  0  0  0  0  3  0  0  0  0  0  0
  160.6840  206.4470  151.1630 N   0  0  0  0  0  0  0  0  0  0  0  0
  162.0730  205.6680  147.8520 C   0  0  0  0  0  0  0  0  0  0  0  0
  160.7300  206.7870  149.7480 C   0  0  2  0  0  3  0  0  0  0  0  0
  161.1520  205.2540  151.3350 C   0  0  0  0  0  3  0  0  0  0  0  0
  162.3000  208.0750  148.3370 C   0  0  0  0  0  3  0  0  0  0  0  0
  161.6370  204.6850  150.0830 C   0  0  0  0  0  2  0  0  0  0  0  0
  161.3810  205.5880  149.1510 C   0  0  2  0  0  3  0  0  0  0  0  0
  162.5090  206.8810  147.4800 C   0  0  0  0  0  3  0  0  0  0  0  0
  161.5360  208.0390  149.4460 C   0  0  0  0  0  0  0  0  0  0  0  0
  160.0500  203.8810  145.1260 C   0  0  0  0  0  2  0  0  0  0  0  0
  162.1030  205.0350  144.0500 C   0  0  0  0  0  2  0  0  0  0  0  0
  160.8810  202.8310  145.8720 C   0  0  0  0  0  2  0  0  0  0  0  0
  163.1380  204.1130  144.7080 C   0  0  0  0  0  2  0  0  0  0  0  0
  162.3290  204.5020  147.0420 N   0  0  0  0  0  0  0  0  0  0  0  0
  160.7950  205.1900  144.8360 C   0  0  0  0  0  2  0  0  0  0  0  0
  161.4760  203.3160  147.1990 C   0  0  0  0  0  2  0  0  0  0  0  0
  163.4970  204.4840  146.1510 C   0  0  0  0  0  2  0  0  0  0  0  0
  160.8530  211.2790  153.2880 C   0  0  0  0  0  2  0  0  0  0  0  0
  159.7920  210.5010  154.0480 C   0  0  0  0  0  2  0  0  0  0  0  0
  159.6280  211.0540  155.4640 C   0  0  2  0  0  3  0  0  0  0  0  0
  161.5200  209.8860  156.5470 N   0  0  0  0  0  0  0  0  0  0  0  0
  162.4740  210.8970  156.8840 C   0  0  0  0  0  0  0  0  0  0  0  0
  160.5850  207.7570  156.1050 C   0  0  0  0  0  2  0  0  0  0  0  0
  159.4610  208.7130  156.4840 C   0  0  0  0  0  2  0  0  0  0  0  0
  161.8880  208.5040  156.3200 C   0  0  0  0  0  2  0  0  0  0  0  0
  163.7080  210.6470  156.8430 O   0  0  0  0  0  0  0  0  0  0  0  0
  162.0460  212.1640  157.2600 O   0  0  0  0  0  1  0  0  0  0  0  0
  160.0860  210.0990  156.5880 C   0  0  2  0  0  3  0  0  0  0  0  0
  155.5970  212.4270  156.0710 C   0  0  0  0  0  3  0  0  0  0  0  0
  155.9560  211.7890  154.8800 C   0  0  0  0  0  3  0  0  0  0  0  0
  156.5520  212.6250  157.0740 C   0  0  0  0  0  3  0  0  0  0  0  0
  158.2290  211.5450  155.6890 C   0  0  0  0  0  0  0  0  0  0  0  0
  157.8640  212.1840  156.8850 C   0  0  0  0  0  3  0  0  0  0  0  0
  157.2690  211.3490  154.6900 C   0  0  0  0  0  3  0  0  0  0  0  0
  1 27  1  0  0  0  0
  2  8  1  0  0  0  0
  2  7  1  0  0  0  0
  3  5  1  0  0  0  0
  4  9  1  0  0  0  0
  5  1  1  0  0  0  0
  6  8  2  0  0  0  0
  7  4  2  0  0  0  0
  7  5  1  0  0  0  0
  8  3  1  0  0  0  0
  9  1  2  0  0  0  0
 10 13  2  0  0  0  0
 11 16  1  0  0  0  0
 12 18  1  1  0  0  0
 12 10  1  0  0  0  0
 14 18  2  0  0  0  0
 15 13  1  0  0  0  0
 16 12  1  0  0  0  0
 16 15  1  1  0  0  0
 17 11  2  0  0  0  0
 17 14  1  0  0  0  0
 18  4  1  0  0  0  0
 19 21  1  0  0  0  0
 20 22  1  0  0  0  0
 20 24  1  0  0  0  0
 21 25  1  0  0  0  0
 22 26  1  0  0  0  0
 23 25  1  0  0  0  0
 23 11  1  0  0  0  0
 24 19  1  0  0  0  0
 26 23  1  0  0  0  0
 27 28  1  0  0  0  0
 29 28  1  6  0  0  0
 29 41  1  0  0  0  0
 30 37  1  0  0  0  0
 30 31  1  0  0  0  0
 31 36  1  0  0  0  0
 32 34  1  0  0  0  0
 32 33  1  0  0  0  0
 33 37  1  0  0  0  0
 34 30  1  0  0  0  0
 35 31  2  0  0  0  0
 37 29  1  6  0  0  0
 38 40  1  0  0  0  0
 39 38  2  0  0  0  0
 41 42  1  0  0  0  0
 42 40  2  0  0  0  0
 43 39  1  0  0  0  0
 43 41  2  0  0  0  0
M  END
>  <MODEL>
6

>  <REMARK>
 VINA RESULT:      -5.7      2.541      5.019
  Name = 
  7 active torsions:
  status: ('A' for Active; 'I' for Inactive)
    1  A    between atoms: C_5  and  N_25
    2  A    between atoms: C_11  and  C_37
    3  A    between atoms: C_15  and  C_16
    4  A    between atoms: C_15  and  C_37
    5  A    between atoms: C_16  and  C_27
    6  A    between atoms: C_16  and  C_35
    7  A    between atoms: C_19  and  C_31
                            x       y       z     vdW  Elec       q    Type
                         _______ _______ _______ _____ _____    ______ ____

>  <TORSDO>
F 7

$$$$
=
 OpenBabel11072413383D

 43 49  0  0  1  0  0  0  0  0999 V2000
  161.4010  210.1750  152.4430 C   0  0  0  0  0  0  0  0  0  0  0  0
  161.2630  211.0330  149.0310 C   0  0  0  0  0  2  0  0  0  0  0  0
  161.2070  212.4050  151.1390 C   0  0  0  0  0  2  0  0  0  0  0  0
  161.4580  208.9100  150.6080 C   0  0  0  0  0  0  0  0  0  0  0  0
  161.2640  210.9820  151.3820 N   0  0  0  0  0  0  0  0  0  0  0  0
  161.1530  213.4390  148.9700 O   0  0  0  0  0  0  0  0  0  0  0  0
  161.3020  210.2480  150.2880 C   0  0  0  0  0  0  0  0  0  0  0  0
  161.1990  212.4160  149.6340 C   0  0  0  0  0  0  0  0  0  0  0  0
  161.5200  208.8550  152.0090 C   0  0  0  0  0  3  0  0  0  0  0  0
  160.6950  206.0310  151.2470 N   0  0  0  0  0  0  0  0  0  0  0  0
  161.9560  205.5520  147.8300 C   0  0  0  0  0  0  0  0  0  0  0  0
  160.7170  206.5180  149.8750 C   0  0  2  0  0  3  0  0  0  0  0  0
  161.1130  204.8080  151.2770 C   0  0  0  0  0  3  0  0  0  0  0  0
  162.3050  207.8820  148.5580 C   0  0  0  0  0  3  0  0  0  0  0  0
  161.5370  204.3560  149.9580 C   0  0  0  0  0  2  0  0  0  0  0  0
  161.2970  205.3630  149.1340 C   0  0  2  0  0  3  0  0  0  0  0  0
  162.4360  206.7780  147.5740 C   0  0  0  0  0  3  0  0  0  0  0  0
  161.5700  207.7600  149.6810 C   0  0  0  0  0  0  0  0  0  0  0  0
  159.8300  204.2220  144.9250 C   0  0  0  0  0  2  0  0  0  0  0  0
  161.9620  205.3470  143.9800 C   0  0  0  0  0  2  0  0  0  0  0  0
  160.5850  203.0420  145.5470 C   0  0  0  0  0  2  0  0  0  0  0  0
  162.9290  204.2890  144.5280 C   0  0  0  0  0  2  0  0  0  0  0  0
  162.1360  204.4690  146.8940 N   0  0  0  0  0  0  0  0  0  0  0  0
  160.6640  205.5020  144.7820 C   0  0  0  0  0  2  0  0  0  0  0  0
  161.2040  203.3340  146.9180 C   0  0  0  0  0  2  0  0  0  0  0  0
  163.3050  204.4720  146.0030 C   0  0  0  0  0  2  0  0  0  0  0  0
  161.4610  210.6300  153.8610 C   0  0  0  0  0  2  0  0  0  0  0  0
  160.2690  211.5150  154.1790 C   0  0  0  0  0  2  0  0  0  0  0  0
  159.2930  210.7950  155.1100 C   0  0  2  0  0  3  0  0  0  0  0  0
  157.5460  212.5250  155.3740 N   0  0  0  0  0  0  0  0  0  0  0  0
  156.3570  211.9870  154.7880 C   0  0  0  0  0  0  0  0  0  0  0  0
  159.0900  214.0880  156.2560 C   0  0  0  0  0  2  0  0  0  0  0  0
  159.4270  212.7080  156.8050 C   0  0  0  0  0  2  0  0  0  0  0  0
  157.7920  213.9490  155.4850 C   0  0  0  0  0  2  0  0  0  0  0  0
  155.5390  212.7430  154.2000 O   0  0  0  0  0  0  0  0  0  0  0  0
  156.0970  210.6240  154.8650 O   0  0  0  0  0  1  0  0  0  0  0  0
  158.5230  211.7180  156.0780 C   0  0  2  0  0  3  0  0  0  0  0  0
  161.2190  207.5400  157.1580 C   0  0  0  0  0  3  0  0  0  0  0  0
  160.0690  207.3150  156.3950 C   0  0  0  0  0  3  0  0  0  0  0  0
  161.7490  208.8300  157.2610 C   0  0  0  0  0  3  0  0  0  0  0  0
  159.9730  209.6730  155.8360 C   0  0  0  0  0  0  0  0  0  0  0  0
  161.1300  209.8940  156.6010 C   0  0  0  0  0  3  0  0  0  0  0  0
  159.4480  208.3800  155.7350 C   0  0  0  0  0  3  0  0  0  0  0  0
  1 27  1  0  0  0  0
  2  8  1  0  0  0  0
  2  7  1  0  0  0  0
  3  5  1  0  0  0  0
  4  9  1  0  0  0  0
  5  1  1  0  0  0  0
  6  8  2  0  0  0  0
  7  4  2  0  0  0  0
  7  5  1  0  0  0  0
  8  3  1  0  0  0  0
  9  1  2  0  0  0  0
 10 13  2  0  0  0  0
 11 16  1  0  0  0  0
 12 18  1  1  0  0  0
 12 10  1  0  0  0  0
 14 18  2  0  0  0  0
 15 13  1  0  0  0  0
 16 12  1  0  0  0  0
 16 15  1  1  0  0  0
 17 11  2  0  0  0  0
 17 14  1  0  0  0  0
 18  4  1  0  0  0  0
 19 21  1  0  0  0  0
 20 22  1  0  0  0  0
 20 24  1  0  0  0  0
 21 25  1  0  0  0  0
 22 26  1  0  0  0  0
 23 25  1  0  0  0  0
 23 11  1  0  0  0  0
 24 19  1  0  0  0  0
 26 23  1  0  0  0  0
 27 28  1  0  0  0  0
 29 28  1  1  0  0  0
 29 41  1  0  0  0  0
 30 34  1  0  0  0  0
 30 37  1  0  0  0  0
 31 36  1  0  0  0  0
 31 30  1  0  0  0  0
 32 33  1  0  0  0  0
 34 32  1  0  0  0  0
 35 31  2  0  0  0  0
 37 29  1  6  0  0  0
 37 33  1  0  0  0  0
 38 40  1  0  0  0  0
 39 38  2  0  0  0  0
 41 42  1  0  0  0  0
 42 40  2  0  0  0  0
 43 41  2  0  0  0  0
 43 39  1  0  0  0  0
M  END
>  <MODEL>
7

>  <REMARK>
 VINA RESULT:      -5.6      2.224      4.261
  Name = 
  7 active torsions:
  status: ('A' for Active; 'I' for Inactive)
    1  A    between atoms: C_5  and  N_25
    2  A    between atoms: C_11  and  C_37
    3  A    between atoms: C_15  and  C_16
    4  A    between atoms: C_15  and  C_37
    5  A    between atoms: C_16  and  C_27
    6  A    between atoms: C_16  and  C_35
    7  A    between atoms: C_19  and  C_31
                            x       y       z     vdW  Elec       q    Type
                         _______ _______ _______ _____ _____    ______ ____

>  <TORSDO>
F 7

$$$$
=
 OpenBabel11072413383D

 43 49  0  0  1  0  0  0  0  0999 V2000
  161.4410  209.6810  152.0420 C   0  0  0  0  0  0  0  0  0  0  0  0
  161.9560  209.7490  148.5590 C   0  0  0  0  0  2  0  0  0  0  0  0
  161.9260  211.5500  150.3150 C   0  0  0  0  0  2  0  0  0  0  0  0
  161.4600  208.0440  150.5290 C   0  0  0  0  0  0  0  0  0  0  0  0
  161.6310  210.2350  150.8370 N   0  0  0  0  0  0  0  0  0  0  0  0
  162.3950  212.0540  148.0120 O   0  0  0  0  0  0  0  0  0  0  0  0
  161.6500  209.2780  149.9320 C   0  0  0  0  0  0  0  0  0  0  0  0
  162.1220  211.2190  148.8600 C   0  0  0  0  0  0  0  0  0  0  0  0
  161.3200  208.2990  151.9010 C   0  0  0  0  0  3  0  0  0  0  0  0
  160.9380  205.3900  151.9310 N   0  0  0  0  0  0  0  0  0  0  0  0
  161.5430  204.1390  148.5300 C   0  0  0  0  0  0  0  0  0  0  0  0
  160.6820  205.5530  150.5070 C   0  0  2  0  0  3  0  0  0  0  0  0
  161.3990  204.2020  152.1520 C   0  0  0  0  0  3  0  0  0  0  0  0
  161.9380  206.5710  148.6360 C   0  0  0  0  0  3  0  0  0  0  0  0
  161.5810  203.4600  150.9110 C   0  0  0  0  0  2  0  0  0  0  0  0
  161.1510  204.2560  149.9450 C   0  0  2  0  0  3  0  0  0  0  0  0
  161.9200  205.2720  147.9180 C   0  0  0  0  0  3  0  0  0  0  0  0
  161.4360  206.7120  149.8780 C   0  0  0  0  0  0  0  0  0  0  0  0
  160.3390  200.6190  149.4660 C   0  0  0  0  0  2  0  0  0  0  0  0
  158.8440  201.5580  147.5720 C   0  0  0  0  0  2  0  0  0  0  0  0
  161.5810  200.4800  148.5790 C   0  0  0  0  0  2  0  0  0  0  0  0
  159.9440  201.5340  146.5050 C   0  0  0  0  0  2  0  0  0  0  0  0
  161.5810  202.8710  147.8430 N   0  0  0  0  0  0  0  0  0  0  0  0
  159.3530  201.7030  149.0120 C   0  0  0  0  0  2  0  0  0  0  0  0
  162.3830  201.7740  148.4010 C   0  0  0  0  0  2  0  0  0  0  0  0
  160.9010  202.7310  146.5470 C   0  0  0  0  0  2  0  0  0  0  0  0
  161.4110  210.4270  153.3310 C   0  0  0  0  0  2  0  0  0  0  0  0
  160.1200  211.2170  153.4500 C   0  0  0  0  0  2  0  0  0  0  0  0
  159.2940  210.7280  154.6400 C   0  0  2  0  0  3  0  0  0  0  0  0
  157.4670  212.3680  154.9380 N   0  0  0  0  0  0  0  0  0  0  0  0
  156.2470  211.6230  154.8830 C   0  0  0  0  0  0  0  0  0  0  0  0
  158.9710  214.1960  154.8940 C   0  0  0  0  0  2  0  0  0  0  0  0
  159.6190  213.0520  155.6630 C   0  0  0  0  0  2  0  0  0  0  0  0
  157.5440  213.7740  154.5960 C   0  0  0  0  0  2  0  0  0  0  0  0
  155.2110  212.1340  154.3810 O   0  0  0  0  0  0  0  0  0  0  0  0
  156.1970  210.3280  155.3860 O   0  0  0  0  0  1  0  0  0  0  0  0
  158.6920  211.8500  155.5140 C   0  0  2  0  0  3  0  0  0  0  0  0
  161.4970  207.8540  156.9620 C   0  0  0  0  0  3  0  0  0  0  0  0
  160.4190  207.4480  156.1700 C   0  0  0  0  0  3  0  0  0  0  0  0
  161.8640  209.2030  157.0050 C   0  0  0  0  0  3  0  0  0  0  0  0
  160.0690  209.7400  155.4610 C   0  0  0  0  0  0  0  0  0  0  0  0
  161.1540  210.1440  156.2560 C   0  0  0  0  0  3  0  0  0  0  0  0
  159.7060  208.3890  155.4210 C   0  0  0  0  0  3  0  0  0  0  0  0
  1 27  1  0  0  0  0
  2  8  1  0  0  0  0
  2  7  1  0  0  0  0
  3  5  1  0  0  0  0
  4  9  1  0  0  0  0
  5  1  1  0  0  0  0
  6  8  2  0  0  0  0
  7  4  2  0  0  0  0
  7  5  1  0  0  0  0
  8  3  1  0  0  0  0
  9  1  2  0  0  0  0
 10 13  2  0  0  0  0
 11 16  1  0  0  0  0
 12 18  1  6  0  0  0
 12 10  1  0  0  0  0
 14 18  2  0  0  0  0
 15 13  1  0  0  0  0
 16 12  1  0  0  0  0
 16 15  1  1  0  0  0
 17 11  2  0  0  0  0
 17 14  1  0  0  0  0
 18  4  1  0  0  0  0
 20 24  1  0  0  0  0
 21 19  1  0  0  0  0
 22 26  1  0  0  0  0
 22 20  1  0  0  0  0
 23 25  1  0  0  0  0
 23 11  1  0  0  0  0
 24 19  1  0  0  0  0
 25 21  1  0  0  0  0
 26 23  1  0  0  0  0
 27 28  1  0  0  0  0
 29 28  1  6  0  0  0
 29 41  1  0  0  0  0
 30 37  1  0  0  0  0
 31 30  1  0  0  0  0
 31 36  1  0  0  0  0
 32 33  1  0  0  0  0
 34 32  1  0  0  0  0
 34 30  1  0  0  0  0
 35 31  2  0  0  0  0
 37 29  1  6  0  0  0
 37 33  1  0  0  0  0
 38 40  1  0  0  0  0
 39 38  2  0  0  0  0
 41 42  1  0  0  0  0
 42 40  2  0  0  0  0
 43 41  2  0  0  0  0
 43 39  1  0  0  0  0
M  END
>  <MODEL>
8

>  <REMARK>
 VINA RESULT:      -5.3      2.561      4.529
  Name = 
  7 active torsions:
  status: ('A' for Active; 'I' for Inactive)
    1  A    between atoms: C_5  and  N_25
    2  A    between atoms: C_11  and  C_37
    3  A    between atoms: C_15  and  C_16
    4  A    between atoms: C_15  and  C_37
    5  A    between atoms: C_16  and  C_27
    6  A    between atoms: C_16  and  C_35
    7  A    between atoms: C_19  and  C_31
                            x       y       z     vdW  Elec       q    Type
                         _______ _______ _______ _____ _____    ______ ____

>  <TORSDO>
F 7

$$$$
=
 OpenBabel11072413383D

 43 49  0  0  1  0  0  0  0  0999 V2000
  162.2250  208.0120  150.5330 C   0  0  0  0  0  0  0  0  0  0  0  0
  160.7660  207.0460  153.5880 C   0  0  0  0  0  2  0  0  0  0  0  0
  162.0440  205.7780  151.8310 C   0  0  0  0  0  2  0  0  0  0  0  0
  161.1020  209.1860  152.0590 C   0  0  0  0  0  0  0  0  0  0  0  0
  161.8320  207.1680  151.4960 N   0  0  0  0  0  0  0  0  0  0  0  0
  161.2720  204.7030  153.8370 O   0  0  0  0  0  0  0  0  0  0  0  0
  161.1720  207.8490  152.4100 C   0  0  0  0  0  0  0  0  0  0  0  0
  161.3490  205.7180  153.1640 C   0  0  0  0  0  0  0  0  0  0  0  0
  161.7830  209.2990  150.8380 C   0  0  0  0  0  3  0  0  0  0  0  0
  161.7920  210.0080  154.9100 N   0  0  0  0  0  0  0  0  0  0  0  0
  159.0800  212.3990  154.2600 C   0  0  0  0  0  0  0  0  0  0  0  0
  161.1970  210.9540  153.9770 C   0  0  2  0  0  3  0  0  0  0  0  0
  161.3180  210.2160  156.0950 C   0  0  0  0  0  3  0  0  0  0  0  0
  159.3240  210.8360  152.3670 C   0  0  0  0  0  3  0  0  0  0  0  0
  160.3010  211.2600  156.0880 C   0  0  0  0  0  2  0  0  0  0  0  0
  160.2370  211.6960  154.8410 C   0  0  2  0  0  3  0  0  0  0  0  0
  158.6550  211.9650  153.0630 C   0  0  0  0  0  3  0  0  0  0  0  0
  160.4720  210.2930  152.8170 C   0  0  0  0  0  0  0  0  0  0  0  0
  155.3800  213.0480  155.0390 C   0  0  0  0  0  2  0  0  0  0  0  0
  156.6260  212.4620  157.2320 C   0  0  0  0  0  2  0  0  0  0  0  0
  156.0780  214.4010  154.8640 C   0  0  0  0  0  2  0  0  0  0  0  0
  157.4620  213.7470  157.2600 C   0  0  0  0  0  2  0  0  0  0  0  0
  158.3920  213.4580  154.9570 N   0  0  0  0  0  0  0  0  0  0  0  0
  156.1910  212.0140  155.8310 C   0  0  0  0  0  2  0  0  0  0  0  0
  157.4650  214.3230  154.2160 C   0  0  0  0  0  2  0  0  0  0  0  0
  158.7080  213.7180  156.3680 C   0  0  0  0  0  2  0  0  0  0  0  0
  163.0460  207.6360  149.3480 C   0  0  0  0  0  2  0  0  0  0  0  0
  162.1450  207.2410  148.1900 C   0  0  0  0  0  2  0  0  0  0  0  0
  162.5050  205.8470  147.6770 C   0  0  2  0  0  3  0  0  0  0  0  0
  161.2410  205.2280  145.6430 N   0  0  0  0  0  0  0  0  0  0  0  0
  160.0450  206.0140  145.6600 C   0  0  0  0  0  0  0  0  0  0  0  0
  162.7800  203.5170  145.0890 C   0  0  0  0  0  2  0  0  0  0  0  0
  163.5540  204.7090  145.6380 C   0  0  0  0  0  2  0  0  0  0  0  0
  161.3340  203.9550  144.9570 C   0  0  0  0  0  2  0  0  0  0  0  0
  158.9700  205.5460  145.2010 O   0  0  0  0  0  0  0  0  0  0  0  0
  160.0640  207.3020  146.1820 O   0  0  0  0  0  1  0  0  0  0  0  0
  162.5160  205.7070  146.1390 C   0  0  2  0  0  3  0  0  0  0  0  0
  160.0080  202.8790  149.5370 C   0  0  0  0  0  3  0  0  0  0  0  0
  159.7570  204.2400  149.7340 C   0  0  0  0  0  3  0  0  0  0  0  0
  161.0790  202.4750  148.7330 C   0  0  0  0  0  3  0  0  0  0  0  0
  161.6490  204.7990  148.3230 C   0  0  0  0  0  0  0  0  0  0  0  0
  161.8960  203.4310  148.1260 C   0  0  0  0  0  3  0  0  0  0  0  0
  160.5750  205.1980  149.1270 C   0  0  0  0  0  3  0  0  0  0  0  0
  1  9  2  0  0  0  0
  1  5  1  0  0  0  0
  3  8  1  0  0  0  0
  4  7  2  0  0  0  0
  4 18  1  0  0  0  0
  5  3  1  0  0  0  0
  5  7  1  0  0  0  0
  7  2  1  0  0  0  0
  8  2  1  0  0  0  0
  8  6  2  0  0  0  0
  9  4  1  0  0  0  0
 10 13  2  0  0  0  0
 11 16  1  0  0  0  0
 11 23  1  0  0  0  0
 12 18  1  6  0  0  0
 12 16  1  0  0  0  0
 12 10  1  0  0  0  0
 14 18  2  0  0  0  0
 14 17  1  0  0  0  0
 15 13  1  0  0  0  0
 16 15  1  1  0  0  0
 17 11  2  0  0  0  0
 19 24  1  0  0  0  0
 20 22  1  0  0  0  0
 21 19  1  0  0  0  0
 23 26  1  0  0  0  0
 24 20  1  0  0  0  0
 25 21  1  0  0  0  0
 25 23  1  0  0  0  0
 26 22  1  0  0  0  0
 27  1  1  0  0  0  0
 28 27  1  0  0  0  0
 29 28  1  6  0  0  0
 29 41  1  0  0  0  0
 30 31  1  0  0  0  0
 30 37  1  0  0  0  0
 31 36  1  0  0  0  0
 32 33  1  0  0  0  0
 33 37  1  0  0  0  0
 34 32  1  0  0  0  0
 34 30  1  0  0  0  0
 35 31  2  0  0  0  0
 37 29  1  1  0  0  0
 38 39  1  0  0  0  0
 40 38  2  0  0  0  0
 41 43  1  0  0  0  0
 42 41  2  0  0  0  0
 42 40  1  0  0  0  0
 43 39  2  0  0  0  0
M  END
>  <MODEL>
9

>  <REMARK>
 VINA RESULT:      -4.9      2.869      9.803
  Name = 
  7 active torsions:
  status: ('A' for Active; 'I' for Inactive)
    1  A    between atoms: C_5  and  N_25
    2  A    between atoms: C_11  and  C_37
    3  A    between atoms: C_15  and  C_16
    4  A    between atoms: C_15  and  C_37
    5  A    between atoms: C_16  and  C_27
    6  A    between atoms: C_16  and  C_35
    7  A    between atoms: C_19  and  C_31
                            x       y       z     vdW  Elec       q    Type
                         _______ _______ _______ _____ _____    ______ ____

>  <TORSDO>
F 7

$$$$
