=
 OpenBabel11072410293D

 32 37  0  0  1  0  0  0  0  0999 V2000
  158.8900  211.3770  152.9220 C   0  0  0  0  0  0  0  0  0  0  0  0
  161.5720  208.7170  150.5130 C   0  0  2  0  0  3  0  0  0  0  0  0
  156.6530  212.6840  153.9610 N   0  0  0  0  0  0  0  0  0  0  0  0
  161.5560  207.6060  153.6540 O   0  0  0  0  0  1  0  0  0  0  0  0
  159.4170  212.6850  155.8260 C   0  0  0  0  0  3  0  0  0  0  0  0
  161.4630  210.9530  156.5080 C   0  0  0  0  0  3  0  0  0  0  0  0
  157.0370  211.5930  154.5620 C   0  0  0  0  0  3  0  0  0  0  0  0
  159.8020  210.6610  152.2370 C   0  0  1  0  0  3  0  0  0  0  0  0
  160.4320  214.4530  157.2610 C   0  0  0  0  0  1  0  0  0  0  0  0
  158.4940  212.7040  152.4100 C   0  0  0  0  0  0  0  0  0  0  0  0
  157.4220  213.3120  152.9210 C   0  0  0  0  0  2  0  0  0  0  0  0
  161.4270  212.2120  157.0180 N   0  0  0  0  0  0  0  0  0  0  0  0
  160.9100  213.1140  149.5300 C   0  0  0  0  0  1  0  0  0  0  0  0
  160.1240  209.2190  152.5940 C   0  0  1  0  0  3  0  0  0  0  0  0
  160.1590  212.5530  150.6810 C   0  0  0  0  0  0  0  0  0  0  0  0
  163.0090  209.9390  152.1450 C   0  0  0  0  0  2  0  0  0  0  0  0
  162.8770  208.6760  151.3040 C   0  0  0  0  0  2  0  0  0  0  0  0
  159.2170  213.2850  151.2760 C   0  0  0  0  0  3  0  0  0  0  0  0
  160.5360  209.1180  155.0990 C   0  0  0  0  0  2  0  0  0  0  0  0
  159.4110  211.3820  155.3010 C   0  0  0  0  0  0  0  0  0  0  0  0
  160.4320  213.0790  156.6960 C   0  0  0  0  0  0  0  0  0  0  0  0
  160.3360  208.3450  151.3440 C   0  0  0  0  0  2  0  0  0  0  0  0
  161.1730  208.9500  153.7110 C   0  0  1  0  0  0  0  0  0  0  0  0
  158.3830  210.9640  154.2770 C   0  0  2  0  0  3  0  0  0  0  0  0
  160.4650  210.5150  155.6320 C   0  0  0  0  0  0  0  0  0  0  0  0
  160.4360  211.2500  151.1260 O   0  0  0  0  0  0  0  0  0  0  0  0
  162.4510  209.7990  153.5680 C   0  0  0  0  0  2  0  0  0  0  0  0
  161.1080  205.1050  148.8410 C   0  0  0  0  0  2  0  0  0  0  0  0
  162.0620  208.3040  148.2070 O   0  0  0  0  0  0  0  0  0  0  0  0
  161.6620  207.8420  149.3090 C   0  0  0  0  0  0  0  0  0  0  0  0
  161.2980  206.4700  149.4100 N   0  0  0  0  0  0  0  0  0  0  0  0
  160.8110  205.2860  150.1750 C   0  0  0  0  0  2  0  0  0  0  0  0
  1 24  1  0  0  0  0
  2 30  1  6  0  0  0
  2 17  1  0  0  0  0
  2 22  1  0  0  0  0
  3  7  2  0  0  0  0
  5 21  1  0  0  0  0
  6 12  1  0  0  0  0
  8 26  1  6  0  0  0
  8 14  1  0  0  0  0
  8  1  1  0  0  0  0
 10 11  1  0  0  0  0
 10  1  2  0  0  0  0
 11  3  1  0  0  0  0
 13 15  1  0  0  0  0
 14 22  1  6  0  0  0
 14 23  1  0  0  0  0
 15 26  1  0  0  0  0
 15 18  2  0  0  0  0
 16 27  1  0  0  0  0
 17 16  1  0  0  0  0
 18 10  1  0  0  0  0
 19 25  1  0  0  0  0
 20 25  1  0  0  0  0
 20  5  2  0  0  0  0
 21 12  2  0  0  0  0
 21  9  1  0  0  0  0
 23  4  1  6  0  0  0
 23 19  1  0  0  0  0
 24  7  1  1  0  0  0
 24 20  1  0  0  0  0
 25  6  2  0  0  0  0
 27 23  1  0  0  0  0
 28 31  1  0  0  0  0
 28 32  1  0  0  0  0
 29 30  2  0  0  0  0
 30 31  1  0  0  0  0
 31 32  1  0  0  0  0
M  END
>  <MODEL>
1

>  <REMARK>
 VINA RESULT:      -3.5      0.000      0.000
  Name = 
  1 active torsions:
  status: ('A' for Active; 'I' for Inactive)
    1  A    between atoms: C_2  and  C_29
                            x       y       z     vdW  Elec       q    Type
                         _______ _______ _______ _____ _____    ______ ____

>  <TORSDO>
F 1

$$$$
=
 OpenBabel11072410293D

 32 37  0  0  1  0  0  0  0  0999 V2000
  160.1430  209.7140  152.8080 C   0  0  0  0  0  0  0  0  0  0  0  0
  161.3810  206.1700  150.3640 C   0  0  2  0  0  3  0  0  0  0  0  0
  158.7200  211.8770  153.8500 N   0  0  0  0  0  0  0  0  0  0  0  0
  160.7770  205.1290  153.4710 O   0  0  0  0  0  1  0  0  0  0  0  0
  161.1300  210.5820  155.7560 C   0  0  0  0  0  3  0  0  0  0  0  0
  162.1430  208.0950  156.4180 C   0  0  0  0  0  3  0  0  0  0  0  0
  158.5490  210.7200  154.4250 C   0  0  0  0  0  3  0  0  0  0  0  0
  160.6460  208.6740  152.1170 C   0  0  1  0  0  3  0  0  0  0  0  0
  162.8000  211.6650  157.2570 C   0  0  0  0  0  1  0  0  0  0  0  0
  160.4080  211.0850  152.3290 C   0  0  0  0  0  0  0  0  0  0  0  0
  159.7180  212.1050  152.8410 C   0  0  0  0  0  2  0  0  0  0  0  0
  162.6710  209.2220  156.9640 N   0  0  0  0  0  0  0  0  0  0  0  0
  162.8220  210.4020  149.4990 C   0  0  0  0  0  1  0  0  0  0  0  0
  160.2660  207.2380  152.4360 C   0  0  1  0  0  3  0  0  0  0  0  0
  161.8670  210.2240  150.6220 C   0  0  0  0  0  0  0  0  0  0  0  0
  163.1730  206.5710  152.0520 C   0  0  0  0  0  2  0  0  0  0  0  0
  162.5030  205.5230  151.1730 C   0  0  0  0  0  2  0  0  0  0  0  0
  161.3470  211.2930  151.2240 C   0  0  0  0  0  3  0  0  0  0  0  0
  160.5190  206.9120  154.9430 C   0  0  0  0  0  2  0  0  0  0  0  0
  160.5440  209.4350  155.1930 C   0  0  0  0  0  0  0  0  0  0  0  0
  162.1900  210.4530  156.6530 C   0  0  0  0  0  0  0  0  0  0  0  0
  160.0900  206.3870  151.1640 C   0  0  0  0  0  2  0  0  0  0  0  0
  161.0470  206.4980  153.5610 C   0  0  1  0  0  0  0  0  0  0  0  0
  159.4670  209.5520  154.1430 C   0  0  2  0  0  3  0  0  0  0  0  0
  161.0790  208.1770  155.5150 C   0  0  0  0  0  0  0  0  0  0  0  0
  161.5080  208.9300  151.0320 O   0  0  0  0  0  0  0  0  0  0  0  0
  162.5750  206.6740  153.4610 C   0  0  0  0  0  2  0  0  0  0  0  0
  160.6380  202.6190  148.6610 C   0  0  0  0  0  2  0  0  0  0  0  0
  161.0220  205.9320  148.0090 O   0  0  0  0  0  0  0  0  0  0  0  0
  161.0950  205.3730  149.1360 C   0  0  0  0  0  0  0  0  0  0  0  0
  160.9100  203.9660  149.2410 N   0  0  0  0  0  0  0  0  0  0  0  0
  160.8380  202.6970  150.0230 C   0  0  0  0  0  2  0  0  0  0  0  0
  1 24  1  0  0  0  0
  2 30  1  6  0  0  0
  2 22  1  0  0  0  0
  2 17  1  0  0  0  0
  3  7  2  0  0  0  0
  5 21  1  0  0  0  0
  6 12  1  0  0  0  0
  8 26  1  6  0  0  0
  8 14  1  0  0  0  0
  8  1  1  0  0  0  0
 10  1  2  0  0  0  0
 10 11  1  0  0  0  0
 11  3  1  0  0  0  0
 13 15  1  0  0  0  0
 14 22  1  6  0  0  0
 14 23  1  0  0  0  0
 15 26  1  0  0  0  0
 15 18  2  0  0  0  0
 16 27  1  0  0  0  0
 17 16  1  0  0  0  0
 18 10  1  0  0  0  0
 19 25  1  0  0  0  0
 20 25  1  0  0  0  0
 20  5  2  0  0  0  0
 21 12  2  0  0  0  0
 21  9  1  0  0  0  0
 23  4  1  6  0  0  0
 23 19  1  0  0  0  0
 24  7  1  1  0  0  0
 24 20  1  0  0  0  0
 25  6  2  0  0  0  0
 27 23  1  0  0  0  0
 28 31  1  0  0  0  0
 28 32  1  0  0  0  0
 29 30  2  0  0  0  0
 30 31  1  0  0  0  0
 31 32  1  0  0  0  0
M  END
>  <MODEL>
2

>  <REMARK>
 VINA RESULT:      -2.4      1.977      2.650
  Name = 
  1 active torsions:
  status: ('A' for Active; 'I' for Inactive)
    1  A    between atoms: C_2  and  C_29
                            x       y       z     vdW  Elec       q    Type
                         _______ _______ _______ _____ _____    ______ ____

>  <TORSDO>
F 1

$$$$
=
 OpenBabel11072410293D

 32 37  0  0  1  0  0  0  0  0999 V2000
  160.8400  212.2460  149.9730 C   0  0  0  0  0  0  0  0  0  0  0  0
  158.7130  212.7460  153.8840 C   0  0  2  0  0  3  0  0  0  0  0  0
  162.3750  212.7030  147.6870 N   0  0  0  0  0  0  0  0  0  0  0  0
  161.2220  210.6010  154.3330 O   0  0  0  0  0  1  0  0  0  0  0  0
  161.8250  209.5270  148.5390 C   0  0  0  0  0  3  0  0  0  0  0  0
  161.7020  207.9830  150.8310 C   0  0  0  0  0  3  0  0  0  0  0  0
  162.9820  212.1870  148.7180 C   0  0  0  0  0  3  0  0  0  0  0  0
  160.1230  212.2840  151.1120 C   0  0  1  0  0  3  0  0  0  0  0  0
  161.3560  207.5090  147.1510 C   0  0  0  0  0  1  0  0  0  0  0  0
  160.1970  212.6640  148.7110 C   0  0  0  0  0  0  0  0  0  0  0  0
  160.9490  212.8760  147.6300 C   0  0  0  0  0  2  0  0  0  0  0  0
  161.5200  207.4180  149.6080 N   0  0  0  0  0  0  0  0  0  0  0  0
  156.6300  213.1770  149.8570 C   0  0  0  0  0  1  0  0  0  0  0  0
  160.7620  212.0500  152.4710 C   0  0  1  0  0  3  0  0  0  0  0  0
  158.0890  212.8990  149.8430 C   0  0  0  0  0  0  0  0  0  0  0  0
  158.3350  210.3990  153.1270 C   0  0  0  0  0  2  0  0  0  0  0  0
  158.4130  211.3190  154.3380 C   0  0  0  0  0  2  0  0  0  0  0  0
  158.7590  212.9440  148.6930 C   0  0  0  0  0  3  0  0  0  0  0  0
  162.1610  209.9350  152.3100 C   0  0  0  0  0  2  0  0  0  0  0  0
  162.0430  210.1380  149.7850 C   0  0  0  0  0  0  0  0  0  0  0  0
  161.5750  208.1570  148.4700 C   0  0  0  0  0  0  0  0  0  0  0  0
  160.1910  212.9880  153.5510 C   0  0  0  0  0  2  0  0  0  0  0  0
  160.9320  210.5840  152.9650 C   0  0  1  0  0  0  0  0  0  0  0  0
  162.2120  211.6340  149.8960 C   0  0  2  0  0  3  0  0  0  0  0  0
  161.9560  209.3530  150.9470 C   0  0  0  0  0  0  0  0  0  0  0  0
  158.7530  212.6050  151.0450 O   0  0  0  0  0  0  0  0  0  0  0  0
  159.6670  209.7240  152.7740 C   0  0  0  0  0  2  0  0  0  0  0  0
  155.6990  214.4530  155.8990 C   0  0  0  0  0  2  0  0  0  0  0  0
  159.0760  214.4530  155.5210 O   0  0  0  0  0  0  0  0  0  0  0  0
  158.2490  213.7290  154.9050 C   0  0  0  0  0  0  0  0  0  0  0  0
  156.8590  213.8510  155.1800 N   0  0  0  0  0  0  0  0  0  0  0  0
  155.4310  213.4740  154.9660 C   0  0  0  0  0  2  0  0  0  0  0  0
  2 17  1  0  0  0  0
  2 30  1  1  0  0  0
  3  7  2  0  0  0  0
  5 20  1  0  0  0  0
  6 25  1  0  0  0  0
  8  1  1  1  0  0  0
  8 14  1  0  0  0  0
  9 21  1  0  0  0  0
 10  1  2  0  0  0  0
 11  3  1  0  0  0  0
 11 10  1  0  0  0  0
 12  6  2  0  0  0  0
 14 23  1  0  0  0  0
 14 22  1  1  0  0  0
 15 13  1  0  0  0  0
 15 26  1  0  0  0  0
 16 17  1  0  0  0  0
 18 10  1  0  0  0  0
 18 15  2  0  0  0  0
 19 23  1  0  0  0  0
 20 24  1  0  0  0  0
 20 25  2  0  0  0  0
 21  5  2  0  0  0  0
 21 12  1  0  0  0  0
 22  2  1  0  0  0  0
 23  4  1  1  0  0  0
 24  7  1  6  0  0  0
 24  1  1  0  0  0  0
 25 19  1  0  0  0  0
 26  8  1  0  0  0  0
 27 23  1  0  0  0  0
 27 16  1  0  0  0  0
 30 31  1  0  0  0  0
 30 29  2  0  0  0  0
 31 28  1  0  0  0  0
 32 31  1  0  0  0  0
 32 28  1  0  0  0  0
M  END
>  <MODEL>
3

>  <REMARK>
 VINA RESULT:      -0.8      2.336      6.882
  Name = 
  1 active torsions:
  status: ('A' for Active; 'I' for Inactive)
    1  A    between atoms: C_2  and  C_29
                            x       y       z     vdW  Elec       q    Type
                         _______ _______ _______ _____ _____    ______ ____

>  <TORSDO>
F 1

$$$$
