=
 OpenBabel11072409523D

 64 70  0  0  1  0  0  0  0  0999 V2000
  161.4390  208.5340  154.4620 C   0  0  1  0  0  3  0  0  0  0  0  0
  160.9580  203.4230  153.2160 Cl  0  0  0  0  0  0  0  0  0  0  0  0
  162.4560  207.2120  150.0110 N   0  0  0  0  0  0  0  0  0  0  0  0
  162.0410  206.7070  151.1790 C   0  0  0  0  0  0  0  0  0  0  0  0
  161.5370  207.4350  153.4260 C   0  0  0  0  0  0  0  0  0  0  0  0
  162.6460  208.5400  150.2030 C   0  0  0  0  0  3  0  0  0  0  0  0
  161.7510  205.3760  151.4770 C   0  0  0  0  0  3  0  0  0  0  0  0
  161.9370  207.7030  152.1130 C   0  0  0  0  0  0  0  0  0  0  0  0
  161.3390  205.0760  152.7850 C   0  0  0  0  0  0  0  0  0  0  0  0
  161.2350  206.0950  153.7540 C   0  0  0  0  0  3  0  0  0  0  0  0
  162.3180  208.8920  151.5150 C   0  0  0  0  0  3  0  0  0  0  0  0
  162.7780  206.4510  148.8070 C   0  0  0  0  0  2  0  0  0  0  0  0
  161.5240  205.8510  148.1700 C   0  0  2  0  0  3  0  0  0  0  0  0
  161.4910  204.3450  148.2090 C   0  0  0  0  0  0  0  0  0  0  0  0
  161.5670  201.7540  150.3710 C   0  0  0  0  0  1  0  0  0  0  0  0
  160.7980  201.4130  147.9480 C   0  0  1  0  0  3  0  0  0  0  0  0
  162.3960  203.5980  147.6150 N   0  0  0  0  0  0  0  0  0  0  0  0
  160.8940  202.2000  149.0740 C   0  0  1  0  0  0  0  0  0  0  0  0
  160.5130  203.6150  149.0440 N   0  0  0  0  0  2  0  0  0  0  0  0
  161.9210  202.3920  148.0610 N   0  0  0  0  0  0  0  0  0  0  0  0
  161.5220  199.1700  147.1080 C   0  0  0  0  0  3  0  0  0  0  0  0
  161.3250  200.0140  148.1270 C   0  0  0  0  0  3  0  0  0  0  0  0
  161.1240  198.3380  144.8870 N   0  0  0  0  0  1  0  0  0  0  0  0
  161.2450  199.5420  145.6870 C   0  0  0  0  0  2  0  0  0  0  0  0
  161.1700  207.5660  146.5810 O   0  0  0  0  0  0  0  0  0  0  0  0
  161.3730  206.3750  146.7660 C   0  0  0  0  0  0  0  0  0  0  0  0
  162.0230  206.0360  144.4110 N   0  0  0  0  0  2  0  0  0  0  0  0
  160.0700  204.8910  145.1240 C   0  0  1  0  0  3  0  0  0  0  0  0
  161.4170  205.3480  143.2760 C   0  0  0  0  0  2  0  0  0  0  0  0
  158.9230  205.8830  145.2730 C   0  0  0  0  0  1  0  0  0  0  0  0
  160.2470  204.5880  143.7170 N   0  0  0  0  0  2  0  0  0  0  0  0
  161.4080  205.4400  145.5800 C   0  0  2  0  0  3  0  0  0  0  0  0
  159.9270  212.0700  153.7630 C   0  0  1  0  0  3  0  0  0  0  0  0
  160.2130  211.9330  152.2540 C   0  0  1  0  0  3  0  0  0  0  0  0
  162.0650  211.2590  154.4860 O   0  0  0  0  0  1  0  0  0  0  0  0
  160.3650  210.4720  151.8030 C   0  0  0  0  0  2  0  0  0  0  0  0
  160.3380  209.5850  154.1590 C   0  0  1  0  0  3  0  0  0  0  0  0
  160.6850  211.0310  154.6180 C   0  0  2  0  0  0  0  0  0  0  0  0
  159.6800  209.5050  152.7680 C   0  0  0  0  0  2  0  0  0  0  0  0
  160.2660  211.2020  156.0640 C   0  0  0  0  0  0  0  0  0  0  0  0
  158.8420  211.0260  156.4920 C   0  0  0  0  0  1  0  0  0  0  0  0
  161.1040  211.4430  156.9200 O   0  0  0  0  0  0  0  0  0  0  0  0
  159.8220  213.2270  150.4960 C   0  0  0  0  0  1  0  0  0  0  0  0
  159.1830  212.5340  151.5250 O   0  0  0  0  0  0  0  0  0  0  0  0
  160.1950  213.3970  154.2130 O   0  0  0  0  0  0  0  0  0  0  0  0
  159.5050  213.9800  155.2810 C   0  0  0  0  0  0  0  0  0  0  0  0
  160.1170  214.1840  156.3620 O   0  0  0  0  0  0  0  0  0  0  0  0
  155.1930  214.1550  154.9180 C   0  0  0  0  0  3  0  0  0  0  0  0
  155.3490  213.9960  152.4400 C   0  0  0  0  0  1  0  0  0  0  0  0
  157.4520  213.8590  153.8300 C   0  0  1  0  0  3  0  0  0  0  0  0
  157.2090  213.7680  156.3480 C   0  0  0  0  0  2  0  0  0  0  0  0
  157.4220  212.4620  153.7450 O   0  0  0  0  0  1  0  0  0  0  0  0
  155.7140  213.9150  156.1360 C   0  0  0  0  0  0  0  0  0  0  0  0
  156.0450  214.4470  153.7100 C   0  0  2  0  0  3  0  0  0  0  0  0
  158.0380  214.3070  155.1700 C   0  0  1  0  0  3  0  0  0  0  0  0
  154.7580  213.6430  157.2580 C   0  0  0  0  0  2  0  0  0  0  0  0
  153.9400  212.5380  156.9940 O   0  0  0  0  0  0  0  0  0  0  0  0
  154.0000  210.2950  157.2600 C   0  0  0  0  0  1  0  0  0  0  0  0
  154.7900  211.4800  156.9720 N   0  0  0  0  0  2  0  0  0  0  0  0
  161.3030  207.9740  155.8880 C   0  0  1  0  0  3  0  0  0  0  0  0
  162.5330  208.3030  156.7270 C   0  0  0  0  0  1  0  0  0  0  0  0
  160.1790  208.5180  156.5220 O   0  0  0  0  0  0  0  0  0  0  0  0
  159.3630  207.4980  156.7110 O   0  0  0  0  0  0  0  0  0  0  0  0
  159.3310  206.8370  155.4780 C   0  0  0  0  0  1  0  0  0  0  0  0
  1 60  1  1  0  0  0
  3  6  1  0  0  0  0
  3  4  1  0  0  0  0
  4  7  2  0  0  0  0
  4  8  1  0  0  0  0
  5 10  1  0  0  0  0
  5  1  1  0  0  0  0
  6 11  2  0  0  0  0
  7  9  1  0  0  0  0
  8  5  2  0  0  0  0
  9  2  1  0  0  0  0
  9 10  2  0  0  0  0
 11  8  1  0  0  0  0
 12  3  1  0  0  0  0
 13 14  1  0  0  0  0
 13 12  1  6  0  0  0
 14 19  1  0  0  0  0
 16 20  1  0  0  0  0
 16 22  1  1  0  0  0
 16 18  1  0  0  0  0
 17 20  1  0  0  0  0
 17 14  2  0  0  0  0
 18 15  1  1  0  0  0
 19 18  1  0  0  0  0
 20 18  1  0  0  0  0
 21 22  2  0  0  0  0
 23 24  1  0  0  0  0
 24 21  1  0  0  0  0
 25 26  2  0  0  0  0
 26 13  1  0  0  0  0
 27 32  1  0  0  0  0
 28 30  1  6  0  0  0
 28 32  1  0  0  0  0
 29 31  1  0  0  0  0
 29 27  1  0  0  0  0
 31 28  1  0  0  0  0
 32 26  1  1  0  0  0
 33 45  1  1  0  0  0
 33 38  1  0  0  0  0
 34 44  1  6  0  0  0
 34 33  1  0  0  0  0
 36 34  1  0  0  0  0
 36 39  1  0  0  0  0
 37  1  1  6  0  0  0
 37 38  1  0  0  0  0
 38 35  1  6  0  0  0
 38 40  1  0  0  0  0
 39 37  1  0  0  0  0
 40 41  1  0  0  0  0
 40 42  2  0  0  0  0
 43 44  1  0  0  0  0
 45 46  1  0  0  0  0
 46 47  2  0  0  0  0
 48 53  2  0  0  0  0
 50 52  1  1  0  0  0
 50 55  1  0  0  0  0
 53 51  1  0  0  0  0
 53 56  1  0  0  0  0
 54 49  1  6  0  0  0
 54 50  1  0  0  0  0
 54 48  1  0  0  0  0
 55 46  1  1  0  0  0
 55 51  1  0  0  0  0
 57 56  1  0  0  0  0
 59 57  1  0  0  0  0
 59 58  1  0  0  0  0
 60 62  1  0  0  0  0
 60 61  1  1  0  0  0
 62 63  1  0  0  0  0
 64 63  1  0  0  0  0
M  END
>  <MODEL>
1

>  <REMARK>
 VINA RESULT:      -1.4      0.000      0.000
  Name = 
  20 active torsions:
  status: ('A' for Active; 'I' for Inactive)
    1  A    between atoms: C_3  and  C_30
    2  A    between atoms: C_5  and  O_58
    3  A    between atoms: C_6  and  C_33
    4  A    between atoms: C_7  and  C_49
    5  A    between atoms: N_9  and  C_56
    6  A    between atoms: C_12  and  C_43
    7  A    between atoms: C_12  and  O_64
    8  A    between atoms: C_14  and  O_58
    9  A    between atoms: C_14  and  C_63
   10  A    between atoms: O_15  and  O_40
   11  A    between atoms: C_19  and  O_47
   12  A    between atoms: C_20  and  C_48
   13  A    between atoms: C_26  and  C_39
   14  A    between atoms: C_30  and  C_53
   15  A    between atoms: C_30  and  C_56
   16  A    between atoms: C_31  and  C_48
   17  A    between atoms: C_38  and  O_40
   18  A    between atoms: C_38  and  C_48
   19  A    between atoms: N_45  and  O_64
   20  A    between atoms: C_53  and  C_61
                            x       y       z     vdW  Elec       q    Type
                         _______ _______ _______ _____ _____    ______ ____

>  <TORSDO>
F 20

$$$$
