=
 OpenBabel11072414073D

 57 61  0  0  1  0  0  0  0  0999 V2000
  160.7150  210.1700  152.2400 C   0  0  1  0  0  3  0  0  0  0  0  0
  160.3280  210.5690  154.7040 N   0  0  0  0  0  0  0  0  0  0  0  0
  160.7550  208.0930  155.7420 S   0  0  0  0  0  0  0  0  0  0  0  0
  161.6320  207.4820  153.1400 C   0  0  0  0  0  2  0  0  0  0  0  0
  161.4410  209.2030  151.2730 C   0  0  2  0  0  3  0  0  0  0  0  0
  160.9890  209.4210  149.9710 O   0  0  0  0  0  1  0  0  0  0  0  0
  160.1010  209.7510  155.8480 C   0  0  0  0  0  0  0  0  0  0  0  0
  161.0720  209.8260  153.6940 C   0  0  1  0  0  3  0  0  0  0  0  0
  160.7210  208.3710  153.9500 C   0  0  2  0  0  3  0  0  0  0  0  0
  161.2770  207.7050  151.6610 C   0  0  1  0  0  3  0  0  0  0  0  0
  159.4200  210.1430  156.8320 O   0  0  0  0  0  0  0  0  0  0  0  0
  162.0240  206.7310  150.7110 C   0  0  2  0  0  0  0  0  0  0  0  0
  163.1160  205.9650  151.4560 C   0  0  0  0  0  1  0  0  0  0  0  0
  162.6270  207.4630  149.6810 O   0  0  0  0  0  1  0  0  0  0  0  0
  161.0170  205.7160  150.1260 C   0  0  2  0  0  3  0  0  0  0  0  0
  160.8490  204.4470  150.9840 C   0  0  2  0  0  3  0  0  0  0  0  0
  161.6560  204.4370  152.1240 O   0  0  0  0  0  1  0  0  0  0  0  0
  159.6260  202.9000  149.4450 C   0  0  0  0  0  2  0  0  0  0  0  0
  160.9650  203.1790  150.1400 C   0  0  2  0  0  3  0  0  0  0  0  0
  161.6860  200.7530  149.9870 C   0  0  0  0  0  2  0  0  0  0  0  0
  160.8970  200.8230  148.6700 C   0  0  0  0  0  2  0  0  0  0  0  0
  159.5300  201.4910  148.8410 C   0  0  1  0  0  3  0  0  0  0  0  0
  158.6980  200.6980  149.6330 O   0  0  0  0  0  1  0  0  0  0  0  0
  161.4410  201.9510  150.9180 C   0  0  0  0  0  2  0  0  0  0  0  0
  161.0020  205.5830  148.5830 C   0  0  2  0  0  3  0  0  0  0  0  0
  163.5870  206.0300  148.2480 C   0  0  0  0  0  1  0  0  0  0  0  0
  162.6090  203.7120  147.8320 C   0  0  0  0  0  2  0  0  0  0  0  0
  162.3150  204.5120  146.5770 C   0  0  1  0  0  0  0  0  0  0  0  0
  162.3420  205.2130  147.9330 C   0  0  1  0  0  0  0  0  0  0  0  0
  163.4430  204.7090  145.7790 O   0  0  0  0  0  1  0  0  0  0  0  0
  160.9760  202.9050  145.4230 F   0  0  0  0  0  0  0  0  0  0  0  0
  160.7920  205.0700  144.7580 O   0  0  0  0  0  1  0  0  0  0  0  0
  160.9980  204.2190  145.8470 C   0  0  2  0  0  3  0  0  0  0  0  0
  158.9760  206.5840  147.8180 O   0  0  0  0  0  1  0  0  0  0  0  0
  160.8890  207.6580  147.1600 O   0  0  0  0  0  0  0  0  0  0  0  0
  160.2330  206.6360  147.8380 C   0  0  0  0  0  0  0  0  0  0  0  0
  158.7900  212.4640  154.8310 C   0  0  0  0  0  1  0  0  0  0  0  0
  160.2430  212.0250  154.7650 C   0  0  0  0  0  2  0  0  0  0  0  0
  161.1510  211.5980  151.9340 C   0  0  0  0  0  2  0  0  0  0  0  0
  159.5570  213.3830  151.8060 O   0  0  0  0  0  1  0  0  0  0  0  0
  160.1240  212.3330  151.0810 C   0  0  1  0  0  3  0  0  0  0  0  0
  161.9460  212.1090  149.2400 C   0  0  0  0  0  2  0  0  0  0  0  0
  161.5770  213.4390  147.1590 C   0  0  1  0  0  3  0  0  0  0  0  0
  160.1730  213.8700  149.1890 C   0  0  0  0  0  3  0  0  0  0  0  0
  160.7760  212.8610  149.8430 C   0  0  0  0  0  0  0  0  0  0  0  0
  162.6300  212.8690  148.1050 C   0  0  0  0  0  2  0  0  0  0  0  0
  160.7190  214.4530  147.9140 C   0  0  0  0  0  2  0  0  0  0  0  0
  162.2150  214.0540  145.9510 C   0  0  0  0  0  3  0  0  0  0  0  0
  162.5590  213.3340  144.8780 C   0  0  0  0  0  3  0  0  0  0  0  0
  163.1710  213.9890  143.6820 C   0  0  0  0  0  2  0  0  0  0  0  0
  162.6510  213.3750  142.4260 C   0  0  0  0  0  0  0  0  0  0  0  0
  163.0430  214.0550  140.9870 S   0  0  0  0  0  0  0  0  0  0  0  0
  161.9500  212.1270  142.5000 N   0  0  0  0  0  2  0  0  0  0  0  0
  161.4280  211.4130  141.3410 C   0  0  0  0  0  2  0  0  0  0  0  0
  160.0770  211.9790  140.9330 C   0  0  0  0  0  2  0  0  0  0  0  0
  158.9280  210.8590  139.0460 C   0  0  0  0  0  1  0  0  0  0  0  0
  159.9190  211.9410  139.4240 C   0  0  0  0  0  2  0  0  0  0  0  0
  1 39  1  6  0  0  0
  1  8  1  0  0  0  0
  2 38  1  0  0  0  0
  2  7  1  0  0  0  0
  3  7  1  0  0  0  0
  5  6  1  6  0  0  0
  5 10  1  0  0  0  0
  5  1  1  0  0  0  0
  7 11  2  0  0  0  0
  8  9  1  0  0  0  0
  8  2  1  1  0  0  0
  9  4  1  6  0  0  0
  9  3  1  0  0  0  0
 10 12  1  6  0  0  0
 10  4  1  0  0  0  0
 12 13  1  1  0  0  0
 14 12  1  0  0  0  0
 15 25  1  6  0  0  0
 15 12  1  0  0  0  0
 15 16  1  0  0  0  0
 16 17  1  1  0  0  0
 18 19  1  0  0  0  0
 19 24  1  0  0  0  0
 19 16  1  1  0  0  0
 20 24  1  0  0  0  0
 21 22  1  0  0  0  0
 21 20  1  0  0  0  0
 22 18  1  0  0  0  0
 22 23  1  1  0  0  0
 25 36  1  6  0  0  0
 27 29  1  0  0  0  0
 28 30  1  6  0  0  0
 28 27  1  0  0  0  0
 28 29  1  0  0  0  0
 29 26  1  1  0  0  0
 29 25  1  0  0  0  0
 31 33  1  0  0  0  0
 33 32  1  6  0  0  0
 33 28  1  0  0  0  0
 34 36  1  0  0  0  0
 35 36  2  0  0  0  0
 38 37  1  0  0  0  0
 41 40  1  1  0  0  0
 41 39  1  0  0  0  0
 42 45  1  0  0  0  0
 43 48  1  6  0  0  0
 43 47  1  0  0  0  0
 43 46  1  0  0  0  0
 44 45  2  0  0  0  0
 45 41  1  0  0  0  0
 46 42  1  0  0  0  0
 47 44  1  0  0  0  0
 49 48  2  0  0  0  0
 50 49  1  0  0  0  0
 51 53  1  0  0  0  0
 51 50  1  0  0  0  0
 52 51  2  0  0  0  0
 54 53  1  0  0  0  0
 55 54  1  0  0  0  0
 56 57  1  0  0  0  0
 57 55  1  0  0  0  0
M  END
>  <MODEL>
1

>  <REMARK>
 VINA RESULT:      -2.8      0.000      0.000
  Name = 
  19 active torsions:
  status: ('A' for Active; 'I' for Inactive)
    1  A    between atoms: C_3  and  C_6
    2  A    between atoms: C_4  and  C_23
    3  A    between atoms: C_6  and  C_30
    4  A    between atoms: C_7  and  C_24
    5  A    between atoms: C_9  and  C_18
    6  A    between atoms: C_9  and  C_53
    7  A    between atoms: N_10  and  C_28
    8  A    between atoms: C_17  and  C_52
    9  A    between atoms: C_18  and  C_24
   10  A    between atoms: C_18  and  C_32
   11  A    between atoms: C_20  and  C_30
   12  A    between atoms: C_22  and  C_31
   13  A    between atoms: C_22  and  C_43
   14  A    between atoms: C_31  and  N_40
   15  A    between atoms: C_32  and  C_33
   16  A    between atoms: C_32  and  C_46
   17  A    between atoms: C_34  and  C_35
   18  A    between atoms: C_34  and  N_40
   19  A    between atoms: C_35  and  C_50
                            x       y       z     vdW  Elec       q    Type
                         _______ _______ _______ _____ _____    ______ ____

>  <TORSDO>
F 19

$$$$
=
 OpenBabel11072414073D

 57 61  0  0  1  0  0  0  0  0999 V2000
  161.0960  210.0710  150.9470 C   0  0  1  0  0  3  0  0  0  0  0  0
  160.7050  210.1330  153.4420 N   0  0  0  0  0  0  0  0  0  0  0  0
  161.0400  207.5220  154.1220 S   0  0  0  0  0  0  0  0  0  0  0  0
  161.9140  207.2530  151.4620 C   0  0  0  0  0  2  0  0  0  0  0  0
  161.7960  209.2240  149.8560 C   0  0  2  0  0  3  0  0  0  0  0  0
  161.3620  209.6380  148.5960 O   0  0  0  0  0  1  0  0  0  0  0  0
  160.4410  209.1710  154.4590 C   0  0  0  0  0  0  0  0  0  0  0  0
  161.4310  209.5140  152.3390 C   0  0  1  0  0  3  0  0  0  0  0  0
  161.0280  208.0510  152.3870 C   0  0  2  0  0  3  0  0  0  0  0  0
  161.5790  207.6940  150.0290 C   0  0  1  0  0  3  0  0  0  0  0  0
  159.7670  209.4440  155.4870 O   0  0  0  0  0  0  0  0  0  0  0  0
  162.2990  206.8370  148.9530 C   0  0  2  0  0  0  0  0  0  0  0  0
  163.2820  205.8600  149.5960 C   0  0  0  0  0  1  0  0  0  0  0  0
  163.0160  207.6800  148.0960 O   0  0  0  0  0  1  0  0  0  0  0  0
  161.2500  206.0320  148.1550 C   0  0  2  0  0  3  0  0  0  0  0  0
  160.2220  205.3040  149.0430 C   0  0  2  0  0  3  0  0  0  0  0  0
  159.4160  206.1710  149.7840 O   0  0  0  0  0  1  0  0  0  0  0  0
  160.6330  202.8440  149.2320 C   0  0  0  0  0  2  0  0  0  0  0  0
  160.8810  204.2110  149.8830 C   0  0  2  0  0  3  0  0  0  0  0  0
  161.2550  203.1870  152.1710 C   0  0  0  0  0  2  0  0  0  0  0  0
  161.8570  202.0500  151.3300 C   0  0  0  0  0  2  0  0  0  0  0  0
  160.9620  201.6570  150.1510 C   0  0  1  0  0  3  0  0  0  0  0  0
  159.7790  201.0790  150.6120 O   0  0  0  0  0  1  0  0  0  0  0  0
  160.4470  204.2020  151.3490 C   0  0  0  0  0  2  0  0  0  0  0  0
  161.7600  205.3300  146.8720 C   0  0  2  0  0  3  0  0  0  0  0  0
  160.1020  203.3520  146.2930 C   0  0  0  0  0  1  0  0  0  0  0  0
  159.6330  205.7200  145.4690 C   0  0  0  0  0  2  0  0  0  0  0  0
  160.6490  205.1420  144.5010 C   0  0  1  0  0  0  0  0  0  0  0  0
  160.6780  204.7240  145.9680 C   0  0  1  0  0  0  0  0  0  0  0  0
  160.0960  204.2090  143.6230 O   0  0  0  0  0  1  0  0  0  0  0  0
  161.6060  206.1110  142.5370 F   0  0  0  0  0  0  0  0  0  0  0  0
  162.9920  205.7810  144.3070 O   0  0  0  0  0  1  0  0  0  0  0  0
  161.6910  206.1040  143.9150 C   0  0  2  0  0  3  0  0  0  0  0  0
  162.8460  203.3020  147.5060 O   0  0  0  0  0  1  0  0  0  0  0  0
  164.2390  204.9250  146.6880 O   0  0  0  0  0  0  0  0  0  0  0  0
  162.9750  204.4620  147.0350 C   0  0  0  0  0  0  0  0  0  0  0  0
  159.2360  212.0720  153.6800 C   0  0  0  0  0  1  0  0  0  0  0  0
  160.6690  211.5680  153.7070 C   0  0  0  0  0  2  0  0  0  0  0  0
  161.5830  211.5120  150.8470 C   0  0  0  0  0  2  0  0  0  0  0  0
  160.2690  213.5140  150.9420 O   0  0  0  0  0  1  0  0  0  0  0  0
  160.5650  212.4050  150.1470 C   0  0  1  0  0  3  0  0  0  0  0  0
  162.5560  212.5720  148.4820 C   0  0  0  0  0  2  0  0  0  0  0  0
  161.9670  213.0680  146.1080 C   0  0  1  0  0  3  0  0  0  0  0  0
  160.2380  213.3080  147.9060 C   0  0  0  0  0  3  0  0  0  0  0  0
  161.1060  212.8550  148.8270 C   0  0  0  0  0  0  0  0  0  0  0  0
  163.0150  213.2600  147.1980 C   0  0  0  0  0  2  0  0  0  0  0  0
  160.6660  213.7490  146.5330 C   0  0  0  0  0  2  0  0  0  0  0  0
  162.4540  213.5930  144.7920 C   0  0  0  0  0  3  0  0  0  0  0  0
  162.1940  212.9770  143.6340 C   0  0  0  0  0  3  0  0  0  0  0  0
  162.6780  213.5450  142.3390 C   0  0  0  0  0  2  0  0  0  0  0  0
  161.7340  213.2100  141.2350 C   0  0  0  0  0  0  0  0  0  0  0  0
  160.2720  213.9490  141.1870 S   0  0  0  0  0  0  0  0  0  0  0  0
  162.1840  212.3690  140.1650 N   0  0  0  0  0  2  0  0  0  0  0  0
  162.3760  210.9290  140.2840 C   0  0  0  0  0  2  0  0  0  0  0  0
  161.2270  210.1830  139.6240 C   0  0  0  0  0  2  0  0  0  0  0  0
  160.9020  208.1410  138.2610 C   0  0  0  0  0  1  0  0  0  0  0  0
  161.7210  209.4060  138.4180 C   0  0  0  0  0  2  0  0  0  0  0  0
  1 39  1  1  0  0  0
  1  8  1  0  0  0  0
  2 38  1  0  0  0  0
  2  7  1  0  0  0  0
  3  7  1  0  0  0  0
  5  6  1  6  0  0  0
  5 10  1  0  0  0  0
  5  1  1  0  0  0  0
  7 11  2  0  0  0  0
  8  9  1  0  0  0  0
  8  2  1  1  0  0  0
  9  4  1  6  0  0  0
  9  3  1  0  0  0  0
 10 12  1  6  0  0  0
 10  4  1  0  0  0  0
 12 13  1  1  0  0  0
 14 12  1  0  0  0  0
 15 25  1  1  0  0  0
 15 12  1  0  0  0  0
 15 16  1  0  0  0  0
 16 17  1  1  0  0  0
 18 19  1  0  0  0  0
 18 22  1  0  0  0  0
 19 16  1  6  0  0  0
 19 24  1  0  0  0  0
 21 20  1  0  0  0  0
 22 23  1  1  0  0  0
 22 21  1  0  0  0  0
 24 20  1  0  0  0  0
 25 36  1  1  0  0  0
 27 29  1  0  0  0  0
 28 30  1  6  0  0  0
 28 27  1  0  0  0  0
 28 29  1  0  0  0  0
 29 26  1  1  0  0  0
 29 25  1  0  0  0  0
 33 31  1  6  0  0  0
 33 32  1  0  0  0  0
 33 28  1  0  0  0  0
 35 36  2  0  0  0  0
 36 34  1  0  0  0  0
 37 38  1  0  0  0  0
 41 39  1  0  0  0  0
 41 40  1  1  0  0  0
 42 45  1  0  0  0  0
 43 48  1  6  0  0  0
 43 47  1  0  0  0  0
 43 46  1  0  0  0  0
 44 45  2  0  0  0  0
 45 41  1  0  0  0  0
 46 42  1  0  0  0  0
 47 44  1  0  0  0  0
 49 48  2  0  0  0  0
 50 49  1  0  0  0  0
 51 50  1  0  0  0  0
 52 51  2  0  0  0  0
 53 54  1  0  0  0  0
 53 51  1  0  0  0  0
 55 54  1  0  0  0  0
 56 57  1  0  0  0  0
 57 55  1  0  0  0  0
M  END
>  <MODEL>
2

>  <REMARK>
 VINA RESULT:      -2.6      1.618      2.395
  Name = 
  19 active torsions:
  status: ('A' for Active; 'I' for Inactive)
    1  A    between atoms: C_3  and  C_6
    2  A    between atoms: C_4  and  C_23
    3  A    between atoms: C_6  and  C_30
    4  A    between atoms: C_7  and  C_24
    5  A    between atoms: C_9  and  C_18
    6  A    between atoms: C_9  and  C_53
    7  A    between atoms: N_10  and  C_28
    8  A    between atoms: C_17  and  C_52
    9  A    between atoms: C_18  and  C_24
   10  A    between atoms: C_18  and  C_32
   11  A    between atoms: C_20  and  C_30
   12  A    between atoms: C_22  and  C_31
   13  A    between atoms: C_22  and  C_43
   14  A    between atoms: C_31  and  N_40
   15  A    between atoms: C_32  and  C_33
   16  A    between atoms: C_32  and  C_46
   17  A    between atoms: C_34  and  C_35
   18  A    between atoms: C_34  and  N_40
   19  A    between atoms: C_35  and  C_50
                            x       y       z     vdW  Elec       q    Type
                         _______ _______ _______ _____ _____    ______ ____

>  <TORSDO>
F 19

$$$$
=
 OpenBabel11072414073D

 57 61  0  0  1  0  0  0  0  0999 V2000
  160.7570  209.7300  152.5970 C   0  0  1  0  0  3  0  0  0  0  0  0
  160.5590  209.9880  155.1030 N   0  0  0  0  0  0  0  0  0  0  0  0
  160.9400  207.4350  155.9560 S   0  0  0  0  0  0  0  0  0  0  0  0
  161.6070  206.9540  153.2660 C   0  0  0  0  0  2  0  0  0  0  0  0
  161.3690  208.7960  151.5250 C   0  0  2  0  0  3  0  0  0  0  0  0
  160.8400  209.1150  150.2740 O   0  0  0  0  0  1  0  0  0  0  0  0
  160.3720  209.1090  156.2080 C   0  0  0  0  0  0  0  0  0  0  0  0
  161.1960  209.2800  153.9990 C   0  0  1  0  0  3  0  0  0  0  0  0
  160.7960  207.8280  154.1910 C   0  0  2  0  0  3  0  0  0  0  0  0
  161.1630  207.2850  151.8330 C   0  0  1  0  0  3  0  0  0  0  0  0
  159.7790  209.4670  157.2600 O   0  0  0  0  0  0  0  0  0  0  0  0
  161.7970  206.3420  150.7750 C   0  0  2  0  0  0  0  0  0  0  0  0
  162.3360  205.0690  151.4250 C   0  0  0  0  0  1  0  0  0  0  0  0
  162.8640  207.0000  150.1510 O   0  0  0  0  0  1  0  0  0  0  0  0
  160.7270  205.9520  149.7310 C   0  0  2  0  0  3  0  0  0  0  0  0
  159.8960  204.7180  150.1300 C   0  0  2  0  0  3  0  0  0  0  0  0
  159.1870  204.8870  151.3220 O   0  0  0  0  0  1  0  0  0  0  0  0
  160.0260  202.3890  149.2270 C   0  0  0  0  0  2  0  0  0  0  0  0
  160.7330  203.4410  150.0920 C   0  0  2  0  0  3  0  0  0  0  0  0
  162.0400  201.6840  151.3700 C   0  0  0  0  0  2  0  0  0  0  0  0
  162.0040  200.9720  150.0090 C   0  0  0  0  0  2  0  0  0  0  0  0
  160.6070  200.9750  149.3830 C   0  0  1  0  0  3  0  0  0  0  0  0
  159.7340  200.1920  150.1410 O   0  0  0  0  0  1  0  0  0  0  0  0
  161.0720  202.8730  151.4710 C   0  0  0  0  0  2  0  0  0  0  0  0
  161.1230  206.1390  148.2460 C   0  0  2  0  0  3  0  0  0  0  0  0
  162.7740  204.0740  148.1670 C   0  0  0  0  0  1  0  0  0  0  0  0
  160.5760  204.0270  146.8740 C   0  0  0  0  0  2  0  0  0  0  0  0
  161.5410  204.8220  146.0140 C   0  0  1  0  0  0  0  0  0  0  0  0
  161.6520  204.8860  147.5350 C   0  0  1  0  0  0  0  0  0  0  0  0
  162.4910  204.0220  145.3780 O   0  0  0  0  0  1  0  0  0  0  0  0
  159.5840  205.9740  145.2690 F   0  0  0  0  0  0  0  0  0  0  0  0
  161.3660  205.9480  143.8600 O   0  0  0  0  0  1  0  0  0  0  0  0
  160.9630  205.9850  145.1970 C   0  0  2  0  0  3  0  0  0  0  0  0
  163.1380  207.3480  147.8290 O   0  0  0  0  0  1  0  0  0  0  0  0
  161.2240  208.6030  147.7300 O   0  0  0  0  0  0  0  0  0  0  0  0
  161.8830  207.3930  147.9200 C   0  0  0  0  0  0  0  0  0  0  0  0
  161.0630  211.8270  156.6310 C   0  0  0  0  0  1  0  0  0  0  0  0
  160.5450  211.4390  155.2570 C   0  0  0  0  0  2  0  0  0  0  0  0
  161.2370  211.1550  152.3480 C   0  0  0  0  0  2  0  0  0  0  0  0
  159.7010  212.9950  152.3340 O   0  0  0  0  0  1  0  0  0  0  0  0
  160.2200  211.9620  151.5500 C   0  0  1  0  0  3  0  0  0  0  0  0
  161.8330  211.6700  149.5320 C   0  0  0  0  0  2  0  0  0  0  0  0
  161.5700  213.3080  147.6660 C   0  0  1  0  0  3  0  0  0  0  0  0
  160.4170  213.7050  149.8560 C   0  0  0  0  0  3  0  0  0  0  0  0
  160.8690  212.5290  150.3270 C   0  0  0  0  0  0  0  0  0  0  0  0
  162.5630  212.4430  148.4350 C   0  0  0  0  0  2  0  0  0  0  0  0
  160.9690  214.3470  148.6120 C   0  0  0  0  0  2  0  0  0  0  0  0
  162.2220  213.9580  146.4840 C   0  0  0  0  0  3  0  0  0  0  0  0
  162.3350  213.3440  145.3010 C   0  0  0  0  0  3  0  0  0  0  0  0
  162.9710  214.0350  144.1380 C   0  0  0  0  0  2  0  0  0  0  0  0
  162.0260  214.1000  142.9870 C   0  0  0  0  0  0  0  0  0  0  0  0
  162.5780  213.7540  141.4830 S   0  0  0  0  0  0  0  0  0  0  0  0
  160.6320  214.3160  143.2430 N   0  0  0  0  0  2  0  0  0  0  0  0
  159.6470  213.2470  143.3590 C   0  0  0  0  0  2  0  0  0  0  0  0
  158.5300  213.6540  144.3060 C   0  0  0  0  0  2  0  0  0  0  0  0
  158.0700  213.2230  146.7010 C   0  0  0  0  0  1  0  0  0  0  0  0
  158.3010  212.5770  145.3500 C   0  0  0  0  0  2  0  0  0  0  0  0
  1 39  1  6  0  0  0
  1  8  1  0  0  0  0
  2 38  1  0  0  0  0
  2  7  1  0  0  0  0
  3  7  1  0  0  0  0
  5  6  1  6  0  0  0
  5 10  1  0  0  0  0
  5  1  1  0  0  0  0
  7 11  2  0  0  0  0
  8  9  1  0  0  0  0
  8  2  1  1  0  0  0
  9  4  1  6  0  0  0
  9  3  1  0  0  0  0
 10 12  1  6  0  0  0
 10  4  1  0  0  0  0
 12 13  1  1  0  0  0
 14 12  1  0  0  0  0
 15 25  1  6  0  0  0
 15 16  1  0  0  0  0
 15 12  1  0  0  0  0
 16 17  1  1  0  0  0
 18 22  1  0  0  0  0
 18 19  1  0  0  0  0
 19 16  1  1  0  0  0
 19 24  1  0  0  0  0
 20 24  1  0  0  0  0
 21 20  1  0  0  0  0
 22 21  1  0  0  0  0
 22 23  1  1  0  0  0
 25 36  1  1  0  0  0
 27 29  1  0  0  0  0
 28 30  1  6  0  0  0
 28 27  1  0  0  0  0
 28 29  1  0  0  0  0
 29 26  1  1  0  0  0
 29 25  1  0  0  0  0
 33 32  1  6  0  0  0
 33 31  1  0  0  0  0
 33 28  1  0  0  0  0
 34 36  1  0  0  0  0
 35 36  2  0  0  0  0
 38 37  1  0  0  0  0
 41 40  1  1  0  0  0
 41 39  1  0  0  0  0
 42 45  1  0  0  0  0
 43 48  1  6  0  0  0
 43 46  1  0  0  0  0
 43 47  1  0  0  0  0
 44 45  2  0  0  0  0
 45 41  1  0  0  0  0
 46 42  1  0  0  0  0
 47 44  1  0  0  0  0
 49 48  2  0  0  0  0
 50 49  1  0  0  0  0
 51 53  1  0  0  0  0
 51 50  1  0  0  0  0
 52 51  2  0  0  0  0
 53 54  1  0  0  0  0
 54 55  1  0  0  0  0
 55 57  1  0  0  0  0
 57 56  1  0  0  0  0
M  END
>  <MODEL>
3

>  <REMARK>
 VINA RESULT:      -2.4      1.525      2.019
  Name = 
  19 active torsions:
  status: ('A' for Active; 'I' for Inactive)
    1  A    between atoms: C_3  and  C_6
    2  A    between atoms: C_4  and  C_23
    3  A    between atoms: C_6  and  C_30
    4  A    between atoms: C_7  and  C_24
    5  A    between atoms: C_9  and  C_18
    6  A    between atoms: C_9  and  C_53
    7  A    between atoms: N_10  and  C_28
    8  A    between atoms: C_17  and  C_52
    9  A    between atoms: C_18  and  C_24
   10  A    between atoms: C_18  and  C_32
   11  A    between atoms: C_20  and  C_30
   12  A    between atoms: C_22  and  C_31
   13  A    between atoms: C_22  and  C_43
   14  A    between atoms: C_31  and  N_40
   15  A    between atoms: C_32  and  C_33
   16  A    between atoms: C_32  and  C_46
   17  A    between atoms: C_34  and  C_35
   18  A    between atoms: C_34  and  N_40
   19  A    between atoms: C_35  and  C_50
                            x       y       z     vdW  Elec       q    Type
                         _______ _______ _______ _____ _____    ______ ____

>  <TORSDO>
F 19

$$$$
=
 OpenBabel11072414073D

 57 62  0  0  1  0  0  0  0  0999 V2000
  160.2550  211.8900  150.8800 C   0  0  1  0  0  3  0  0  0  0  0  0
  158.6260  213.2950  149.5530 N   0  0  0  0  0  0  0  0  0  0  0  0
  157.0640  214.3370  151.5180 S   0  0  0  0  0  0  0  0  0  0  0  0
  158.9790  213.1970  153.2330 C   0  0  0  0  0  2  0  0  0  0  0  0
  160.8640  211.7650  152.2970 C   0  0  2  0  0  3  0  0  0  0  0  0
  161.5260  210.5420  152.4130 O   0  0  0  0  0  0  0  0  0  0  0  0
  157.3720  213.9190  149.8090 C   0  0  0  0  0  0  0  0  0  0  0  0
  159.3790  213.1500  150.7940 C   0  0  1  0  0  3  0  0  0  0  0  0
  158.3210  213.0820  151.8800 C   0  0  2  0  0  3  0  0  0  0  0  0
  159.8160  211.9250  153.4350 C   0  0  1  0  0  3  0  0  0  0  0  0
  156.5110  214.0950  148.9080 O   0  0  0  0  0  0  0  0  0  0  0  0
  160.4230  211.8250  154.8600 C   0  0  2  0  0  0  0  0  0  0  0  0
  160.0140  213.0220  155.7180 C   0  0  0  0  0  1  0  0  0  0  0  0
  161.8210  211.8120  154.7660 O   0  0  0  0  0  1  0  0  0  0  0  0
  159.9230  210.5320  155.5410 C   0  0  2  0  0  3  0  0  0  0  0  0
  158.8520  210.7780  156.6220 C   0  0  2  0  0  3  0  0  0  0  0  0
  158.4290  209.6090  157.2600 O   0  0  0  0  0  1  0  0  0  0  0  0
  156.7890  212.0430  157.2520 C   0  0  0  0  0  2  0  0  0  0  0  0
  157.7050  211.6350  156.0910 C   0  0  2  0  0  3  0  0  0  0  0  0
  155.8660  211.9460  154.3740 C   0  0  0  0  0  2  0  0  0  0  0  0
  155.4520  213.0730  155.3330 C   0  0  0  0  0  2  0  0  0  0  0  0
  155.4400  212.6230  156.7960 C   0  0  1  0  0  3  0  0  0  0  0  0
  154.4310  211.6810  157.0060 O   0  0  0  0  0  1  0  0  0  0  0  0
  156.9000  210.9780  154.9680 C   0  0  0  0  0  2  0  0  0  0  0  0
  160.9840  209.4300  155.7770 C   0  0  2  0  0  3  0  0  0  0  0  0
  160.4100  207.2590  157.1730 C   0  0  0  0  0  1  0  0  0  0  0  0
  159.2280  207.7280  154.9620 C   0  0  0  0  0  2  0  0  0  0  0  0
  160.5710  207.1250  154.5910 C   0  0  1  0  0  0  0  0  0  0  0  0
  160.4500  207.9930  155.8400 C   0  0  1  0  0  0  0  0  0  0  0  0
  160.6340  205.7500  154.8210 O   0  0  0  0  0  1  0  0  0  0  0  0
  160.2930  207.8820  152.3410 F   0  0  0  0  0  0  0  0  0  0  0  0
  162.2050  206.7520  152.8220 O   0  0  0  0  0  1  0  0  0  0  0  0
  161.2450  207.6400  153.3130 C   0  0  2  0  0  3  0  0  0  0  0  0
  162.1310  210.9060  157.2600 O   0  0  0  0  0  1  0  0  0  0  0  0
  162.9090  208.7520  157.2540 O   0  0  0  0  0  0  0  0  0  0  0  0
  162.0350  209.7360  156.8060 C   0  0  0  0  0  0  0  0  0  0  0  0
  160.2700  214.3470  148.0820 C   0  0  0  0  0  1  0  0  0  0  0  0
  159.2160  213.2610  148.2190 C   0  0  0  0  0  2  0  0  0  0  0  0
  161.3840  211.9870  149.8600 C   0  0  0  0  0  2  0  0  0  0  0  0
  162.5780  210.7030  151.4940 O   0  0  0  0  0  0  0  0  0  0  0  0
  162.4740  210.9550  150.1250 C   0  0  1  0  0  3  0  0  0  0  0  0
  162.2960  208.3610  150.1210 C   0  0  0  0  0  2  0  0  0  0  0  0
  160.9310  207.3540  148.2880 C   0  0  1  0  0  3  0  0  0  0  0  0
  161.5710  209.7750  148.1910 C   0  0  0  0  0  3  0  0  0  0  0  0
  162.1610  209.6870  149.3960 C   0  0  0  0  0  0  0  0  0  0  0  0
  162.1370  207.1530  149.1990 C   0  0  0  0  0  2  0  0  0  0  0  0
  161.1760  208.5650  147.3890 C   0  0  0  0  0  2  0  0  0  0  0  0
  160.6520  206.1220  147.4820 C   0  0  0  0  0  3  0  0  0  0  0  0
  160.9260  206.0450  146.1760 C   0  0  0  0  0  3  0  0  0  0  0  0
  160.6550  204.7900  145.4100 C   0  0  0  0  0  2  0  0  0  0  0  0
  161.6440  203.7330  145.7680 C   0  0  0  0  0  0  0  0  0  0  0  0
  163.2320  203.9890  145.4530 S   0  0  0  0  0  0  0  0  0  0  0  0
  161.2020  202.5910  146.5130 N   0  0  0  0  0  2  0  0  0  0  0  0
  160.5120  202.6680  147.7950 C   0  0  0  0  0  2  0  0  0  0  0  0
  161.4190  202.1890  148.9170 C   0  0  0  0  0  2  0  0  0  0  0  0
  160.6360  203.7830  150.6430 C   0  0  0  0  0  1  0  0  0  0  0  0
  160.7210  202.3200  150.2570 C   0  0  0  0  0  2  0  0  0  0  0  0
  1 39  1  6  0  0  0
  1  5  1  0  0  0  0
  2  7  1  0  0  0  0
  3  9  1  0  0  0  0
  4 10  1  0  0  0  0
  5  6  1  6  0  0  0
  5 10  1  0  0  0  0
  7  3  1  0  0  0  0
  8  2  1  6  0  0  0
  8  1  1  0  0  0  0
  8  9  1  0  0  0  0
  9  4  1  1  0  0  0
 10 12  1  1  0  0  0
 11  7  2  0  0  0  0
 12 15  1  0  0  0  0
 12 13  1  1  0  0  0
 14 12  1  0  0  0  0
 15 25  1  1  0  0  0
 15 16  1  0  0  0  0
 16 17  1  6  0  0  0
 19 16  1  1  0  0  0
 19 18  1  0  0  0  0
 20 24  1  0  0  0  0
 20 21  1  0  0  0  0
 21 22  1  0  0  0  0
 22 23  1  6  0  0  0
 22 18  1  0  0  0  0
 24 19  1  0  0  0  0
 25 29  1  0  0  0  0
 25 36  1  1  0  0  0
 27 29  1  0  0  0  0
 28 30  1  1  0  0  0
 28 27  1  0  0  0  0
 28 29  1  0  0  0  0
 29 26  1  1  0  0  0
 32 33  1  0  0  0  0
 33 31  1  6  0  0  0
 33 28  1  0  0  0  0
 36 35  2  0  0  0  0
 36 34  1  0  0  0  0
 37 38  1  0  0  0  0
 38  2  1  0  0  0  0
 39 41  1  0  0  0  0
 40  6  1  0  0  0  0
 41 45  1  6  0  0  0
 41 40  1  0  0  0  0
 43 48  1  6  0  0  0
 43 46  1  0  0  0  0
 44 45  2  0  0  0  0
 45 42  1  0  0  0  0
 46 42  1  0  0  0  0
 47 44  1  0  0  0  0
 47 43  1  0  0  0  0
 49 48  2  0  0  0  0
 50 51  1  0  0  0  0
 50 49  1  0  0  0  0
 51 53  1  0  0  0  0
 52 51  2  0  0  0  0
 53 54  1  0  0  0  0
 54 55  1  0  0  0  0
 55 57  1  0  0  0  0
 57 56  1  0  0  0  0
M  END
>  <MODEL>
4

>  <REMARK>
 VINA RESULT:      -0.8      4.331      8.845
  Name = 
  19 active torsions:
  status: ('A' for Active; 'I' for Inactive)
    1  A    between atoms: C_3  and  C_6
    2  A    between atoms: C_4  and  C_23
    3  A    between atoms: C_6  and  C_30
    4  A    between atoms: C_7  and  C_24
    5  A    between atoms: C_9  and  C_18
    6  A    between atoms: C_9  and  C_53
    7  A    between atoms: N_10  and  C_28
    8  A    between atoms: C_17  and  C_52
    9  A    between atoms: C_18  and  C_24
   10  A    between atoms: C_18  and  C_32
   11  A    between atoms: C_20  and  C_30
   12  A    between atoms: C_22  and  C_31
   13  A    between atoms: C_22  and  C_43
   14  A    between atoms: C_31  and  N_40
   15  A    between atoms: C_32  and  C_33
   16  A    between atoms: C_32  and  C_46
   17  A    between atoms: C_34  and  C_35
   18  A    between atoms: C_34  and  N_40
   19  A    between atoms: C_35  and  C_50
                            x       y       z     vdW  Elec       q    Type
                         _______ _______ _______ _____ _____    ______ ____

>  <TORSDO>
F 19

$$$$
=
 OpenBabel11072414073D

 57 61  0  0  1  0  0  0  0  0999 V2000
  161.5280  209.3190  150.5940 C   0  0  1  0  0  3  0  0  0  0  0  0
  161.3050  209.1380  153.1050 N   0  0  0  0  0  0  0  0  0  0  0  0
  161.7400  206.4860  153.5120 S   0  0  0  0  0  0  0  0  0  0  0  0
  162.4390  206.4890  150.7870 C   0  0  0  0  0  2  0  0  0  0  0  0
  162.1700  208.5970  149.3850 C   0  0  2  0  0  3  0  0  0  0  0  0
  161.6430  209.1140  148.2010 O   0  0  0  0  0  1  0  0  0  0  0  0
  161.1300  208.0790  154.0410 C   0  0  0  0  0  0  0  0  0  0  0  0
  161.9670  208.6440  151.9030 C   0  0  1  0  0  3  0  0  0  0  0  0
  161.6000  207.1730  151.8390 C   0  0  2  0  0  3  0  0  0  0  0  0
  161.9980  207.0510  149.4270 C   0  0  1  0  0  3  0  0  0  0  0  0
  160.5210  208.2370  155.1310 O   0  0  0  0  0  0  0  0  0  0  0  0
  162.6620  206.3180  148.2310 C   0  0  2  0  0  0  0  0  0  0  0  0
  164.1790  206.5060  148.2430 C   0  0  0  0  0  1  0  0  0  0  0  0
  162.1660  206.8470  147.0330 O   0  0  0  0  0  1  0  0  0  0  0  0
  162.3490  204.8080  148.3180 C   0  0  2  0  0  3  0  0  0  0  0  0
  162.5870  204.0500  146.9980 C   0  0  2  0  0  3  0  0  0  0  0  0
  163.6530  204.5580  146.2510 O   0  0  0  0  0  1  0  0  0  0  0  0
  160.8550  202.4280  146.2070 C   0  0  0  0  0  2  0  0  0  0  0  0
  161.2950  203.8980  146.1970 C   0  0  2  0  0  3  0  0  0  0  0  0
  160.0120  204.3920  144.0670 C   0  0  0  0  0  2  0  0  0  0  0  0
  159.0440  203.3580  144.6620 C   0  0  0  0  0  2  0  0  0  0  0  0
  159.7640  202.1070  145.1730 C   0  0  1  0  0  3  0  0  0  0  0  0
  160.3230  201.3990  144.1070 O   0  0  0  0  0  1  0  0  0  0  0  0
  161.3800  204.4320  144.7660 C   0  0  0  0  0  2  0  0  0  0  0  0
  161.1390  204.4130  149.1990 C   0  0  2  0  0  3  0  0  0  0  0  0
  159.6630  202.3780  148.3770 C   0  0  0  0  0  1  0  0  0  0  0  0
  162.0130  201.9890  149.2880 C   0  0  0  0  0  2  0  0  0  0  0  0
  161.1200  202.1350  150.5060 C   0  0  1  0  0  0  0  0  0  0  0  0
  160.8000  202.9160  149.2340 C   0  0  1  0  0  0  0  0  0  0  0  0
  160.3230  201.0130  150.7360 O   0  0  0  0  0  1  0  0  0  0  0  0
  162.6010  201.9610  152.3730 F   0  0  0  0  0  0  0  0  0  0  0  0
  160.7420  203.2380  152.6460 O   0  0  0  0  0  1  0  0  0  0  0  0
  161.7200  202.8170  151.7420 C   0  0  2  0  0  3  0  0  0  0  0  0
  159.6670  205.8710  148.0150 O   0  0  0  0  0  0  0  0  0  0  0  0
  159.1250  205.5350  150.2140 O   0  0  0  0  0  1  0  0  0  0  0  0
  159.9360  205.3080  149.1080 C   0  0  0  0  0  0  0  0  0  0  0  0
  159.8270  210.9460  153.8290 C   0  0  0  0  0  1  0  0  0  0  0  0
  161.2550  210.5410  153.5050 C   0  0  0  0  0  2  0  0  0  0  0  0
  161.9750  210.7760  150.5990 C   0  0  0  0  0  2  0  0  0  0  0  0
  160.6130  212.6940  151.0530 O   0  0  0  0  0  1  0  0  0  0  0  0
  160.8760  211.7070  150.1010 C   0  0  1  0  0  3  0  0  0  0  0  0
  162.6790  212.0690  148.2640 C   0  0  0  0  0  2  0  0  0  0  0  0
  161.8590  212.9480  146.0760 C   0  0  1  0  0  3  0  0  0  0  0  0
  160.3500  212.9580  148.0760 C   0  0  0  0  0  3  0  0  0  0  0  0
  161.2910  212.3400  148.8120 C   0  0  0  0  0  0  0  0  0  0  0  0
  163.0280  212.9350  147.0550 C   0  0  0  0  0  2  0  0  0  0  0  0
  160.6470  213.5950  146.7460 C   0  0  0  0  0  2  0  0  0  0  0  0
  162.2250  213.6570  144.8070 C   0  0  0  0  0  3  0  0  0  0  0  0
  162.3000  213.0270  143.6310 C   0  0  0  0  0  3  0  0  0  0  0  0
  162.6450  213.7730  142.3830 C   0  0  0  0  0  2  0  0  0  0  0  0
  161.9360  213.1880  141.2090 C   0  0  0  0  0  0  0  0  0  0  0  0
  162.3740  211.7010  140.6750 S   0  0  0  0  0  0  0  0  0  0  0  0
  160.7960  213.8710  140.6730 N   0  0  0  0  0  2  0  0  0  0  0  0
  159.9670  213.3540  139.5910 C   0  0  0  0  0  2  0  0  0  0  0  0
  158.7750  212.5940  140.1510 C   0  0  0  0  0  2  0  0  0  0  0  0
  156.3580  212.5350  139.6140 C   0  0  0  0  0  1  0  0  0  0  0  0
  157.5110  213.4240  140.0320 C   0  0  0  0  0  2  0  0  0  0  0  0
  1 39  1  1  0  0  0
  1  8  1  0  0  0  0
  2 38  1  0  0  0  0
  2  7  1  0  0  0  0
  3  7  1  0  0  0  0
  5  6  1  6  0  0  0
  5 10  1  0  0  0  0
  5  1  1  0  0  0  0
  7 11  2  0  0  0  0
  8  2  1  1  0  0  0
  9  4  1  6  0  0  0
  9  8  1  0  0  0  0
  9  3  1  0  0  0  0
 10 12  1  6  0  0  0
 10  4  1  0  0  0  0
 12 13  1  1  0  0  0
 12 15  1  0  0  0  0
 14 12  1  0  0  0  0
 15 16  1  6  0  0  0
 15 25  1  0  0  0  0
 16 17  1  6  0  0  0
 19 18  1  0  0  0  0
 19 16  1  6  0  0  0
 20 21  1  0  0  0  0
 20 24  1  0  0  0  0
 21 22  1  0  0  0  0
 22 23  1  6  0  0  0
 22 18  1  0  0  0  0
 24 19  1  0  0  0  0
 25 36  1  6  0  0  0
 25 29  1  0  0  0  0
 27 28  1  0  0  0  0
 28 30  1  1  0  0  0
 28 33  1  0  0  0  0
 29 26  1  6  0  0  0
 29 27  1  0  0  0  0
 29 28  1  0  0  0  0
 33 31  1  1  0  0  0
 33 32  1  0  0  0  0
 34 36  2  0  0  0  0
 36 35  1  0  0  0  0
 38 37  1  0  0  0  0
 41 39  1  0  0  0  0
 41 40  1  1  0  0  0
 42 45  1  0  0  0  0
 43 48  1  6  0  0  0
 43 47  1  0  0  0  0
 43 46  1  0  0  0  0
 44 45  2  0  0  0  0
 45 41  1  0  0  0  0
 46 42  1  0  0  0  0
 47 44  1  0  0  0  0
 49 48  2  0  0  0  0
 50 49  1  0  0  0  0
 51 50  1  0  0  0  0
 52 51  2  0  0  0  0
 53 51  1  0  0  0  0
 54 55  1  0  0  0  0
 54 53  1  0  0  0  0
 56 57  1  0  0  0  0
 57 55  1  0  0  0  0
M  END
>  <MODEL>
5

>  <REMARK>
 VINA RESULT:      -0.3      1.905      3.559
  Name = 
  19 active torsions:
  status: ('A' for Active; 'I' for Inactive)
    1  A    between atoms: C_3  and  C_6
    2  A    between atoms: C_4  and  C_23
    3  A    between atoms: C_6  and  C_30
    4  A    between atoms: C_7  and  C_24
    5  A    between atoms: C_9  and  C_18
    6  A    between atoms: C_9  and  C_53
    7  A    between atoms: N_10  and  C_28
    8  A    between atoms: C_17  and  C_52
    9  A    between atoms: C_18  and  C_24
   10  A    between atoms: C_18  and  C_32
   11  A    between atoms: C_20  and  C_30
   12  A    between atoms: C_22  and  C_31
   13  A    between atoms: C_22  and  C_43
   14  A    between atoms: C_31  and  N_40
   15  A    between atoms: C_32  and  C_33
   16  A    between atoms: C_32  and  C_46
   17  A    between atoms: C_34  and  C_35
   18  A    between atoms: C_34  and  N_40
   19  A    between atoms: C_35  and  C_50
                            x       y       z     vdW  Elec       q    Type
                         _______ _______ _______ _____ _____    ______ ____

>  <TORSDO>
F 19

$$$$
=
 OpenBabel11072414073D

 57 61  0  0  1  0  0  0  0  0999 V2000
  160.0190  211.3700  152.6010 C   0  0  1  0  0  3  0  0  0  0  0  0
  157.9880  211.8790  154.0150 N   0  0  0  0  0  0  0  0  0  0  0  0
  157.0500  214.1460  152.8450 S   0  0  0  0  0  0  0  0  0  0  0  0
  158.9920  213.5820  150.8910 C   0  0  0  0  0  2  0  0  0  0  0  0
  160.6090  211.6400  151.1950 C   0  0  2  0  0  3  0  0  0  0  0  0
  161.9540  211.2670  151.1760 O   0  0  0  0  0  1  0  0  0  0  0  0
  157.1390  213.0050  154.2160 C   0  0  0  0  0  0  0  0  0  0  0  0
  158.5920  211.9340  152.6890 C   0  0  1  0  0  3  0  0  0  0  0  0
  158.6310  213.4120  152.3460 C   0  0  2  0  0  3  0  0  0  0  0  0
  160.4470  213.1160  150.7310 C   0  0  1  0  0  3  0  0  0  0  0  0
  156.5540  213.2200  155.3100 O   0  0  0  0  0  0  0  0  0  0  0  0
  161.0130  213.3880  149.3120 C   0  0  2  0  0  0  0  0  0  0  0  0
  162.4910  213.7710  149.3730 C   0  0  0  0  0  1  0  0  0  0  0  0
  160.3090  214.4500  148.7310 O   0  0  0  0  0  1  0  0  0  0  0  0
  160.8650  212.1150  148.4490 C   0  0  2  0  0  3  0  0  0  0  0  0
  162.0070  211.0990  148.6460 C   0  0  2  0  0  3  0  0  0  0  0  0
  163.1470  211.3920  147.8930 O   0  0  0  0  0  1  0  0  0  0  0  0
  162.6810  208.6920  148.7020 C   0  0  0  0  0  2  0  0  0  0  0  0
  161.5140  209.6630  148.4800 C   0  0  2  0  0  3  0  0  0  0  0  0
  160.2180  207.9780  147.0990 C   0  0  0  0  0  2  0  0  0  0  0  0
  160.8830  206.9890  148.0690 C   0  0  0  0  0  2  0  0  0  0  0  0
  162.3810  207.2560  148.2420 C   0  0  1  0  0  3  0  0  0  0  0  0
  163.0610  206.9940  147.0520 O   0  0  0  0  0  1  0  0  0  0  0  0
  160.8250  209.3890  147.1420 C   0  0  0  0  0  2  0  0  0  0  0  0
  160.2810  212.3170  147.0300 C   0  0  2  0  0  3  0  0  0  0  0  0
  161.6950  214.4530  146.3700 C   0  0  0  0  0  1  0  0  0  0  0  0
  162.2270  212.1790  145.3450 C   0  0  0  0  0  2  0  0  0  0  0  0
  161.0510  212.7220  144.5530 C   0  0  1  0  0  0  0  0  0  0  0  0
  161.1860  213.0580  146.0360 C   0  0  1  0  0  0  0  0  0  0  0  0
  161.4120  213.7430  143.6730 O   0  0  0  0  0  1  0  0  0  0  0  0
  160.2650  211.4030  142.7220 F   0  0  0  0  0  0  0  0  0  0  0  0
  158.7060  212.1740  144.1840 O   0  0  0  0  0  1  0  0  0  0  0  0
  160.0160  211.7100  144.0450 C   0  0  2  0  0  3  0  0  0  0  0  0
  158.5460  213.9050  146.6240 O   0  0  0  0  0  0  0  0  0  0  0  0
  157.8220  211.8340  147.2850 O   0  0  0  0  0  1  0  0  0  0  0  0
  158.8380  212.7280  146.9640 C   0  0  0  0  0  0  0  0  0  0  0  0
  158.9590  210.6320  155.8800 C   0  0  0  0  0  1  0  0  0  0  0  0
  157.8700  210.6670  154.8210 C   0  0  0  0  0  2  0  0  0  0  0  0
  159.9870  209.8670  152.8470 C   0  0  0  0  0  2  0  0  0  0  0  0
  161.7020  209.4780  154.4740 O   0  0  0  0  0  1  0  0  0  0  0  0
  161.3780  209.3090  153.1270 C   0  0  1  0  0  3  0  0  0  0  0  0
  160.8310  206.8380  153.7210 C   0  0  0  0  0  2  0  0  0  0  0  0
  160.8820  205.2130  151.8270 C   0  0  1  0  0  3  0  0  0  0  0  0
  161.8040  207.5230  151.5230 C   0  0  0  0  0  3  0  0  0  0  0  0
  161.4250  207.8580  152.7690 C   0  0  0  0  0  0  0  0  0  0  0  0
  161.1300  205.3950  153.3200 C   0  0  0  0  0  2  0  0  0  0  0  0
  161.8510  206.0980  151.0430 C   0  0  0  0  0  2  0  0  0  0  0  0
  161.0120  203.7740  151.4290 C   0  0  0  0  0  3  0  0  0  0  0  0
  160.4240  203.2780  150.3350 C   0  0  0  0  0  3  0  0  0  0  0  0
  160.5970  201.8420  149.9580 C   0  0  0  0  0  2  0  0  0  0  0  0
  161.4100  201.7210  148.7150 C   0  0  0  0  0  0  0  0  0  0  0  0
  161.6760  200.2340  148.0800 S   0  0  0  0  0  0  0  0  0  0  0  0
  161.8100  202.9130  148.0260 N   0  0  0  0  0  2  0  0  0  0  0  0
  161.1040  203.4700  146.8790 C   0  0  0  0  0  2  0  0  0  0  0  0
  162.0350  204.3460  146.0560 C   0  0  0  0  0  2  0  0  0  0  0  0
  159.9760  204.2350  144.6850 C   0  0  0  0  0  1  0  0  0  0  0  0
  161.2890  204.9630  144.8880 C   0  0  0  0  0  2  0  0  0  0  0  0
  1  8  1  0  0  0  0
  1 39  1  6  0  0  0
  2  7  1  0  0  0  0
  2 38  1  0  0  0  0
  3  7  1  0  0  0  0
  5  6  1  1  0  0  0
  5  1  1  0  0  0  0
  7 11  2  0  0  0  0
  8  2  1  1  0  0  0
  9  4  1  6  0  0  0
  9  8  1  0  0  0  0
  9  3  1  0  0  0  0
 10 12  1  6  0  0  0
 10  4  1  0  0  0  0
 10  5  1  0  0  0  0
 12 13  1  1  0  0  0
 14 12  1  0  0  0  0
 15 25  1  6  0  0  0
 15 16  1  0  0  0  0
 15 12  1  0  0  0  0
 16 17  1  6  0  0  0
 19 16  1  6  0  0  0
 19 18  1  0  0  0  0
 20 24  1  0  0  0  0
 20 21  1  0  0  0  0
 21 22  1  0  0  0  0
 22 23  1  6  0  0  0
 22 18  1  0  0  0  0
 24 19  1  0  0  0  0
 25 36  1  1  0  0  0
 27 29  1  0  0  0  0
 28 30  1  6  0  0  0
 28 27  1  0  0  0  0
 28 29  1  0  0  0  0
 29 26  1  1  0  0  0
 29 25  1  0  0  0  0
 33 31  1  6  0  0  0
 33 32  1  0  0  0  0
 33 28  1  0  0  0  0
 34 36  2  0  0  0  0
 36 35  1  0  0  0  0
 38 37  1  0  0  0  0
 39 41  1  0  0  0  0
 41 40  1  1  0  0  0
 43 48  1  6  0  0  0
 43 46  1  0  0  0  0
 44 45  2  0  0  0  0
 45 41  1  0  0  0  0
 45 42  1  0  0  0  0
 46 42  1  0  0  0  0
 47 44  1  0  0  0  0
 47 43  1  0  0  0  0
 49 48  2  0  0  0  0
 50 49  1  0  0  0  0
 51 50  1  0  0  0  0
 52 51  2  0  0  0  0
 53 51  1  0  0  0  0
 54 53  1  0  0  0  0
 55 54  1  0  0  0  0
 56 57  1  0  0  0  0
 57 55  1  0  0  0  0
M  END
>  <MODEL>
6

>  <REMARK>
 VINA RESULT:      -0.1      3.641      7.818
  Name = 
  19 active torsions:
  status: ('A' for Active; 'I' for Inactive)
    1  A    between atoms: C_3  and  C_6
    2  A    between atoms: C_4  and  C_23
    3  A    between atoms: C_6  and  C_30
    4  A    between atoms: C_7  and  C_24
    5  A    between atoms: C_9  and  C_18
    6  A    between atoms: C_9  and  C_53
    7  A    between atoms: N_10  and  C_28
    8  A    between atoms: C_17  and  C_52
    9  A    between atoms: C_18  and  C_24
   10  A    between atoms: C_18  and  C_32
   11  A    between atoms: C_20  and  C_30
   12  A    between atoms: C_22  and  C_31
   13  A    between atoms: C_22  and  C_43
   14  A    between atoms: C_31  and  N_40
   15  A    between atoms: C_32  and  C_33
   16  A    between atoms: C_32  and  C_46
   17  A    between atoms: C_34  and  C_35
   18  A    between atoms: C_34  and  N_40
   19  A    between atoms: C_35  and  C_50
                            x       y       z     vdW  Elec       q    Type
                         _______ _______ _______ _____ _____    ______ ____

>  <TORSDO>
F 19

$$$$
=
 OpenBabel11072414073D

 57 62  0  0  1  0  0  0  0  0999 V2000
  160.9540  210.3910  150.6420 C   0  0  1  0  0  3  0  0  0  0  0  0
  160.2040  211.2140  152.9110 N   0  0  0  0  0  0  0  0  0  0  0  0
  160.6670  209.0370  154.4720 S   0  0  0  0  0  0  0  0  0  0  0  0
  161.9350  208.0300  152.1720 C   0  0  0  0  0  2  0  0  0  0  0  0
  161.8750  209.3340  149.9860 C   0  0  2  0  0  3  0  0  0  0  0  0
  161.5920  209.2520  148.6220 O   0  0  0  0  0  0  0  0  0  0  0  0
  159.8830  210.6110  154.1600 C   0  0  0  0  0  0  0  0  0  0  0  0
  161.1320  210.3690  152.1680 C   0  0  1  0  0  3  0  0  0  0  0  0
  160.8580  208.9630  152.6700 C   0  0  2  0  0  3  0  0  0  0  0  0
  161.7720  207.9300  150.6480 C   0  0  1  0  0  3  0  0  0  0  0  0
  159.0460  211.1150  154.9560 O   0  0  0  0  0  0  0  0  0  0  0  0
  162.7120  206.8710  150.0120 C   0  0  2  0  0  0  0  0  0  0  0  0
  163.4790  206.1000  151.0850 C   0  0  0  0  0  1  0  0  0  0  0  0
  163.6420  207.5160  149.1870 O   0  0  0  0  0  1  0  0  0  0  0  0
  161.8720  205.8710  149.1870 C   0  0  2  0  0  3  0  0  0  0  0  0
  160.8830  206.5460  148.2170 C   0  0  2  0  0  3  0  0  0  0  0  0
  159.5490  206.2050  148.4560 O   0  0  0  0  0  1  0  0  0  0  0  0
  160.0930  205.9770  145.9140 C   0  0  0  0  0  2  0  0  0  0  0  0
  161.3110  206.3640  146.7620 C   0  0  2  0  0  3  0  0  0  0  0  0
  162.9380  205.3410  145.1090 C   0  0  0  0  0  2  0  0  0  0  0  0
  161.8850  205.8230  144.0990 C   0  0  0  0  0  2  0  0  0  0  0  0
  160.4590  205.4530  144.5160 C   0  0  1  0  0  3  0  0  0  0  0  0
  160.2850  204.0690  144.4740 O   0  0  0  0  0  1  0  0  0  0  0  0
  162.4510  205.3640  146.5660 C   0  0  0  0  0  2  0  0  0  0  0  0
  161.4350  204.5790  149.9200 C   0  0  2  0  0  3  0  0  0  0  0  0
  160.4600  203.5560  147.6840 C   0  0  0  0  0  1  0  0  0  0  0  0
  162.2850  202.3340  148.9800 C   0  0  0  0  0  2  0  0  0  0  0  0
  160.9860  202.0020  149.6900 C   0  0  1  0  0  0  0  0  0  0  0  0
  161.1580  203.3640  149.0230 C   0  0  1  0  0  0  0  0  0  0  0  0
  160.1990  201.0880  148.9880 O   0  0  0  0  0  1  0  0  0  0  0  0
  162.3040  201.4490  151.6050 F   0  0  0  0  0  0  0  0  0  0  0  0
  160.0960  200.9180  151.6830 O   0  0  0  0  0  1  0  0  0  0  0  0
  161.0370  201.8380  151.2140 C   0  0  2  0  0  3  0  0  0  0  0  0
  160.8510  204.9430  152.2050 O   0  0  0  0  0  1  0  0  0  0  0  0
  159.0720  204.7030  150.7830 O   0  0  0  0  0  0  0  0  0  0  0  0
  160.4390  204.7560  151.0310 C   0  0  0  0  0  0  0  0  0  0  0  0
  158.5970  212.8900  152.1480 C   0  0  0  0  0  1  0  0  0  0  0  0
  160.0030  212.6380  152.6640 C   0  0  0  0  0  2  0  0  0  0  0  0
  161.3210  211.7700  150.1080 C   0  0  0  0  0  2  0  0  0  0  0  0
  162.5390  210.3470  148.6150 O   0  0  0  0  0  0  0  0  0  0  0  0
  162.2850  211.6830  148.9320 C   0  0  1  0  0  3  0  0  0  0  0  0
  162.6360  212.9540  146.6910 C   0  0  0  0  0  2  0  0  0  0  0  0
  160.6500  213.1000  145.1860 C   0  0  1  0  0  3  0  0  0  0  0  0
  160.3780  212.3090  147.5480 C   0  0  0  0  0  3  0  0  0  0  0  0
  161.7060  212.3860  147.7460 C   0  0  0  0  0  0  0  0  0  0  0  0
  161.9160  213.8110  145.6520 C   0  0  0  0  0  2  0  0  0  0  0  0
  159.6940  212.9450  146.3680 C   0  0  0  0  0  2  0  0  0  0  0  0
  160.0020  213.8370  144.0530 C   0  0  0  0  0  3  0  0  0  0  0  0
  159.3380  213.2090  143.0770 C   0  0  0  0  0  3  0  0  0  0  0  0
  158.6860  213.9800  141.9760 C   0  0  0  0  0  2  0  0  0  0  0  0
  158.6080  213.1590  140.7340 C   0  0  0  0  0  0  0  0  0  0  0  0
  157.1550  212.9530  140.0050 S   0  0  0  0  0  0  0  0  0  0  0  0
  159.8230  212.6970  140.1290 N   0  0  0  0  0  2  0  0  0  0  0  0
  160.2330  211.2990  140.0820 C   0  0  0  0  0  2  0  0  0  0  0  0
  161.7410  211.1820  140.2340 C   0  0  0  0  0  2  0  0  0  0  0  0
  162.7010  213.2270  141.2470 C   0  0  0  0  0  1  0  0  0  0  0  0
  162.1970  211.8270  141.5290 C   0  0  0  0  0  2  0  0  0  0  0  0
  1 39  1  6  0  0  0
  1  8  1  0  0  0  0
  2  7  1  0  0  0  0
  5  6  1  6  0  0  0
  5  1  1  0  0  0  0
  5 10  1  0  0  0  0
  7  3  1  0  0  0  0
  7 11  2  0  0  0  0
  8  9  1  0  0  0  0
  8  2  1  1  0  0  0
  9  4  1  1  0  0  0
  9  3  1  0  0  0  0
 10 12  1  6  0  0  0
 10  4  1  0  0  0  0
 12 13  1  1  0  0  0
 14 12  1  0  0  0  0
 15 16  1  1  0  0  0
 15 25  1  0  0  0  0
 15 12  1  0  0  0  0
 16 17  1  6  0  0  0
 18 19  1  0  0  0  0
 19 16  1  1  0  0  0
 20 24  1  0  0  0  0
 21 22  1  0  0  0  0
 21 20  1  0  0  0  0
 22 23  1  1  0  0  0
 22 18  1  0  0  0  0
 24 19  1  0  0  0  0
 25 36  1  6  0  0  0
 27 29  1  0  0  0  0
 27 28  1  0  0  0  0
 28 30  1  6  0  0  0
 28 33  1  0  0  0  0
 29 26  1  6  0  0  0
 29 28  1  0  0  0  0
 29 25  1  0  0  0  0
 33 31  1  6  0  0  0
 33 32  1  0  0  0  0
 35 36  2  0  0  0  0
 36 34  1  0  0  0  0
 37 38  1  0  0  0  0
 38  2  1  0  0  0  0
 40  6  1  0  0  0  0
 40 41  1  0  0  0  0
 41 45  1  6  0  0  0
 41 39  1  0  0  0  0
 42 45  1  0  0  0  0
 43 48  1  6  0  0  0
 43 46  1  0  0  0  0
 43 47  1  0  0  0  0
 44 45  2  0  0  0  0
 46 42  1  0  0  0  0
 47 44  1  0  0  0  0
 49 48  2  0  0  0  0
 50 49  1  0  0  0  0
 51 50  1  0  0  0  0
 52 51  2  0  0  0  0
 53 51  1  0  0  0  0
 54 53  1  0  0  0  0
 54 55  1  0  0  0  0
 55 57  1  0  0  0  0
 56 57  1  0  0  0  0
M  END
>  <MODEL>
7

>  <REMARK>
 VINA RESULT:       0.0      1.994      3.839
  Name = 
  19 active torsions:
  status: ('A' for Active; 'I' for Inactive)
    1  A    between atoms: C_3  and  C_6
    2  A    between atoms: C_4  and  C_23
    3  A    between atoms: C_6  and  C_30
    4  A    between atoms: C_7  and  C_24
    5  A    between atoms: C_9  and  C_18
    6  A    between atoms: C_9  and  C_53
    7  A    between atoms: N_10  and  C_28
    8  A    between atoms: C_17  and  C_52
    9  A    between atoms: C_18  and  C_24
   10  A    between atoms: C_18  and  C_32
   11  A    between atoms: C_20  and  C_30
   12  A    between atoms: C_22  and  C_31
   13  A    between atoms: C_22  and  C_43
   14  A    between atoms: C_31  and  N_40
   15  A    between atoms: C_32  and  C_33
   16  A    between atoms: C_32  and  C_46
   17  A    between atoms: C_34  and  C_35
   18  A    between atoms: C_34  and  N_40
   19  A    between atoms: C_35  and  C_50
                            x       y       z     vdW  Elec       q    Type
                         _______ _______ _______ _____ _____    ______ ____

>  <TORSDO>
F 19

$$$$
=
 OpenBabel11072414073D

 57 61  0  0  1  0  0  0  0  0999 V2000
  161.5650  206.9100  149.8130 C   0  0  1  0  0  3  0  0  0  0  0  0
  160.9750  205.2560  151.6310 N   0  0  0  0  0  0  0  0  0  0  0  0
  161.1680  206.7940  153.8640 S   0  0  0  0  0  0  0  0  0  0  0  0
  161.4490  208.9030  152.0240 C   0  0  0  0  0  2  0  0  0  0  0  0
  161.5870  208.4300  149.5260 C   0  0  2  0  0  3  0  0  0  0  0  0
  162.3180  208.6740  148.3630 O   0  0  0  0  0  1  0  0  0  0  0  0
  161.1080  205.2060  153.0480 C   0  0  0  0  0  0  0  0  0  0  0  0
  160.9140  206.6410  151.1790 C   0  0  1  0  0  3  0  0  0  0  0  0
  161.6670  207.4250  152.2390 C   0  0  2  0  0  3  0  0  0  0  0  0
  162.1490  209.2730  150.7070 C   0  0  1  0  0  3  0  0  0  0  0  0
  161.2490  204.1230  153.6740 O   0  0  0  0  0  0  0  0  0  0  0  0
  162.1500  210.8010  150.4370 C   0  0  2  0  0  0  0  0  0  0  0  0
  161.8770  211.1000  148.9640 C   0  0  0  0  0  1  0  0  0  0  0  0
  163.4060  211.3270  150.7650 O   0  0  0  0  0  1  0  0  0  0  0  0
  161.0510  211.4730  151.2910 C   0  0  2  0  0  3  0  0  0  0  0  0
  160.6110  210.6310  152.5040 C   0  0  2  0  0  3  0  0  0  0  0  0
  159.3200  210.1120  152.3810 O   0  0  0  0  0  1  0  0  0  0  0  0
  161.4390  210.4050  154.8530 C   0  0  0  0  0  2  0  0  0  0  0  0
  160.8500  211.3720  153.8180 C   0  0  2  0  0  3  0  0  0  0  0  0
  159.9500  212.9270  155.6070 C   0  0  0  0  0  2  0  0  0  0  0  0
  161.2190  212.4690  156.3430 C   0  0  0  0  0  2  0  0  0  0  0  0
  161.4120  210.9510  156.2900 C   0  0  1  0  0  3  0  0  0  0  0  0
  160.4090  210.3080  157.0170 O   0  0  0  0  0  1  0  0  0  0  0  0
  159.6110  212.0760  154.3740 C   0  0  0  0  0  2  0  0  0  0  0  0
  159.9830  212.2820  150.5160 C   0  0  2  0  0  3  0  0  0  0  0  0
  161.6550  214.0140  149.4190 C   0  0  0  0  0  1  0  0  0  0  0  0
  160.5310  212.2200  147.9970 C   0  0  0  0  0  2  0  0  0  0  0  0
  159.5010  213.3240  148.1540 C   0  0  1  0  0  0  0  0  0  0  0  0
  160.4900  213.0440  149.2830 C   0  0  1  0  0  0  0  0  0  0  0  0
  159.7840  214.4480  147.3770 O   0  0  0  0  0  1  0  0  0  0  0  0
  157.6670  212.1880  147.1260 F   0  0  0  0  0  0  0  0  0  0  0  0
  157.1740  214.0000  148.4060 O   0  0  0  0  0  1  0  0  0  0  0  0
  158.0290  212.9060  148.2490 C   0  0  2  0  0  3  0  0  0  0  0  0
  157.8910  212.5480  151.6320 O   0  0  0  0  0  0  0  0  0  0  0  0
  159.3130  214.3350  151.8120 O   0  0  0  0  0  1  0  0  0  0  0  0
  159.0080  213.0580  151.3530 C   0  0  0  0  0  0  0  0  0  0  0  0
  160.9990  202.8170  151.4780 C   0  0  0  0  0  1  0  0  0  0  0  0
  160.5040  204.1120  150.8570 C   0  0  0  0  0  2  0  0  0  0  0  0
  160.7630  206.2090  148.7230 C   0  0  0  0  0  2  0  0  0  0  0  0
  161.0010  203.8690  148.2650 O   0  0  0  0  0  1  0  0  0  0  0  0
  161.5760  205.1200  148.0340 C   0  0  1  0  0  3  0  0  0  0  0  0
  162.8210  204.8660  145.7650 C   0  0  0  0  0  2  0  0  0  0  0  0
  161.4590  205.2700  143.7120 C   0  0  1  0  0  3  0  0  0  0  0  0
  160.5520  205.8960  145.9620 C   0  0  0  0  0  3  0  0  0  0  0  0
  161.6410  205.3870  146.5640 C   0  0  0  0  0  0  0  0  0  0  0  0
  162.8500  205.3830  144.3280 C   0  0  0  0  0  2  0  0  0  0  0  0
  160.4920  206.1670  144.4830 C   0  0  0  0  0  2  0  0  0  0  0  0
  161.4840  205.6190  142.2550 C   0  0  0  0  0  3  0  0  0  0  0  0
  162.1020  206.7110  141.7910 C   0  0  0  0  0  3  0  0  0  0  0  0
  162.1250  207.0130  140.3270 C   0  0  0  0  0  2  0  0  0  0  0  0
  161.7340  208.4300  140.0780 C   0  0  0  0  0  0  0  0  0  0  0  0
  160.4870  208.7460  139.0640 S   0  0  0  0  0  0  0  0  0  0  0  0
  162.3590  209.4680  140.8460 N   0  0  0  0  0  2  0  0  0  0  0  0
  162.4490  210.8580  140.4180 C   0  0  0  0  0  2  0  0  0  0  0  0
  162.0600  211.7910  141.5540 C   0  0  0  0  0  2  0  0  0  0  0  0
  159.6590  212.2480  141.1580 C   0  0  0  0  0  1  0  0  0  0  0  0
  161.0580  212.8240  141.0740 C   0  0  0  0  0  2  0  0  0  0  0  0
  1 39  1  6  0  0  0
  1  8  1  0  0  0  0
  2  7  1  0  0  0  0
  5  6  1  6  0  0  0
  5  1  1  0  0  0  0
  5 10  1  0  0  0  0
  7 11  2  0  0  0  0
  7  3  1  0  0  0  0
  8  2  1  1  0  0  0
  8  9  1  0  0  0  0
  9  4  1  1  0  0  0
  9  3  1  0  0  0  0
 10 12  1  6  0  0  0
 10  4  1  0  0  0  0
 12 13  1  6  0  0  0
 12 14  1  0  0  0  0
 12 15  1  0  0  0  0
 15 25  1  6  0  0  0
 15 16  1  0  0  0  0
 16 17  1  6  0  0  0
 18 22  1  0  0  0  0
 19 16  1  6  0  0  0
 19 24  1  0  0  0  0
 19 18  1  0  0  0  0
 20 21  1  0  0  0  0
 22 21  1  0  0  0  0
 22 23  1  1  0  0  0
 24 20  1  0  0  0  0
 25 36  1  1  0  0  0
 27 28  1  0  0  0  0
 27 29  1  0  0  0  0
 28 30  1  6  0  0  0
 28 33  1  0  0  0  0
 28 29  1  0  0  0  0
 29 26  1  1  0  0  0
 29 25  1  0  0  0  0
 33 31  1  6  0  0  0
 33 32  1  0  0  0  0
 36 34  2  0  0  0  0
 36 35  1  0  0  0  0
 38 37  1  0  0  0  0
 38  2  1  0  0  0  0
 41 40  1  6  0  0  0
 41 39  1  0  0  0  0
 42 45  1  0  0  0  0
 43 48  1  6  0  0  0
 43 46  1  0  0  0  0
 43 47  1  0  0  0  0
 44 45  2  0  0  0  0
 45 41  1  0  0  0  0
 46 42  1  0  0  0  0
 47 44  1  0  0  0  0
 49 48  2  0  0  0  0
 50 49  1  0  0  0  0
 51 50  1  0  0  0  0
 51 53  1  0  0  0  0
 52 51  2  0  0  0  0
 54 53  1  0  0  0  0
 54 55  1  0  0  0  0
 57 56  1  0  0  0  0
 57 55  1  0  0  0  0
M  END
>  <MODEL>
8

>  <REMARK>
 VINA RESULT:       0.1      2.714      7.702
  Name = 
  19 active torsions:
  status: ('A' for Active; 'I' for Inactive)
    1  A    between atoms: C_3  and  C_6
    2  A    between atoms: C_4  and  C_23
    3  A    between atoms: C_6  and  C_30
    4  A    between atoms: C_7  and  C_24
    5  A    between atoms: C_9  and  C_18
    6  A    between atoms: C_9  and  C_53
    7  A    between atoms: N_10  and  C_28
    8  A    between atoms: C_17  and  C_52
    9  A    between atoms: C_18  and  C_24
   10  A    between atoms: C_18  and  C_32
   11  A    between atoms: C_20  and  C_30
   12  A    between atoms: C_22  and  C_31
   13  A    between atoms: C_22  and  C_43
   14  A    between atoms: C_31  and  N_40
   15  A    between atoms: C_32  and  C_33
   16  A    between atoms: C_32  and  C_46
   17  A    between atoms: C_34  and  C_35
   18  A    between atoms: C_34  and  N_40
   19  A    between atoms: C_35  and  C_50
                            x       y       z     vdW  Elec       q    Type
                         _______ _______ _______ _____ _____    ______ ____

>  <TORSDO>
F 19

$$$$
=
 OpenBabel11072414073D

 57 61  0  0  1  0  0  0  0  0999 V2000
  161.2220  208.0870  152.6420 C   0  0  1  0  0  3  0  0  0  0  0  0
  162.2100  208.4510  150.3450 N   0  0  0  0  0  0  0  0  0  0  0  0
  161.7490  211.1010  149.9550 S   0  0  0  0  0  0  0  0  0  0  0  0
  160.9620  211.0550  152.6550 C   0  0  0  0  0  2  0  0  0  0  0  0
  160.8600  208.8570  153.9350 C   0  0  2  0  0  3  0  0  0  0  0  0
  160.0610  208.0520  154.7480 O   0  0  0  0  0  1  0  0  0  0  0  0
  162.1320  209.4660  149.3490 C   0  0  0  0  0  0  0  0  0  0  0  0
  161.9540  209.0190  151.6630 C   0  0  1  0  0  3  0  0  0  0  0  0
  161.0780  210.2290  151.3970 C   0  0  2  0  0  3  0  0  0  0  0  0
  160.1610  210.2210  153.6660 C   0  0  1  0  0  3  0  0  0  0  0  0
  162.2490  209.2140  148.1200 O   0  0  0  0  0  0  0  0  0  0  0  0
  159.8190  211.0100  154.9580 C   0  0  2  0  0  0  0  0  0  0  0  0
  161.0860  211.5060  155.6530 C   0  0  0  0  0  1  0  0  0  0  0  0
  159.1340  210.1690  155.8440 O   0  0  0  0  0  1  0  0  0  0  0  0
  158.9420  212.2300  154.5950 C   0  0  2  0  0  3  0  0  0  0  0  0
  159.7340  213.3970  153.9740 C   0  0  2  0  0  3  0  0  0  0  0  0
  159.9540  214.4530  154.8630 O   0  0  0  0  0  1  0  0  0  0  0  0
  157.8690  213.0160  152.3520 C   0  0  0  0  0  2  0  0  0  0  0  0
  159.1360  213.8340  152.6390 C   0  0  2  0  0  3  0  0  0  0  0  0
  159.4990  214.3550  150.1850 C   0  0  0  0  0  2  0  0  0  0  0  0
  157.9620  214.3510  150.1750 C   0  0  0  0  0  2  0  0  0  0  0  0
  157.3750  213.1390  150.9020 C   0  0  1  0  0  3  0  0  0  0  0  0
  157.6710  211.9650  150.2060 O   0  0  0  0  0  1  0  0  0  0  0  0
  160.1100  213.7590  151.4620 C   0  0  0  0  0  2  0  0  0  0  0  0
  157.7800  212.5480  155.5670 C   0  0  2  0  0  3  0  0  0  0  0  0
  156.2940  214.1750  154.1040 C   0  0  0  0  0  1  0  0  0  0  0  0
  155.7080  211.7000  154.2880 C   0  0  0  0  0  2  0  0  0  0  0  0
  155.1620  212.3470  155.5490 C   0  0  1  0  0  0  0  0  0  0  0  0
  156.4360  212.8910  154.9090 C   0  0  1  0  0  0  0  0  0  0  0  0
  154.0090  213.0990  155.3200 O   0  0  0  0  0  1  0  0  0  0  0  0
  156.4880  211.0950  157.0940 F   0  0  0  0  0  0  0  0  0  0  0  0
  154.3420  210.4130  156.7850 O   0  0  0  0  0  1  0  0  0  0  0  0
  155.1980  211.5170  156.8380 C   0  0  2  0  0  3  0  0  0  0  0  0
  157.2280  214.1350  157.2610 O   0  0  0  0  0  1  0  0  0  0  0  0
  159.4140  213.4510  157.2570 O   0  0  0  0  0  0  0  0  0  0  0  0
  158.1230  213.4170  156.7420 C   0  0  0  0  0  0  0  0  0  0  0  0
  162.9820  206.9020  148.6190 C   0  0  0  0  0  1  0  0  0  0  0  0
  162.8990  207.1850  150.1090 C   0  0  0  0  0  2  0  0  0  0  0  0
  162.1270  206.9140  152.9980 C   0  0  0  0  0  2  0  0  0  0  0  0
  160.0890  206.0690  153.9340 O   0  0  0  0  0  1  0  0  0  0  0  0
  161.3240  205.6840  153.4070 C   0  0  1  0  0  3  0  0  0  0  0  0
  160.8030  205.4150  150.8740 C   0  0  0  0  0  2  0  0  0  0  0  0
  161.4020  203.2160  149.8540 C   0  0  1  0  0  3  0  0  0  0  0  0
  161.4220  203.4920  152.3450 C   0  0  0  0  0  3  0  0  0  0  0  0
  161.1170  204.7960  152.2220 C   0  0  0  0  0  0  0  0  0  0  0  0
  160.4230  204.3850  149.8120 C   0  0  0  0  0  2  0  0  0  0  0  0
  161.2900  202.5150  151.2080 C   0  0  0  0  0  2  0  0  0  0  0  0
  161.1550  202.2640  148.7240 C   0  0  0  0  0  3  0  0  0  0  0  0
  159.9660  201.6880  148.5200 C   0  0  0  0  0  3  0  0  0  0  0  0
  159.7530  200.7610  147.3670 C   0  0  0  0  0  2  0  0  0  0  0  0
  160.4250  201.2840  146.1430 C   0  0  0  0  0  0  0  0  0  0  0  0
  159.9510  200.7280  144.6760 S   0  0  0  0  0  0  0  0  0  0  0  0
  161.3580  202.3640  146.2700 N   0  0  0  0  0  2  0  0  0  0  0  0
  161.3570  203.5490  145.4210 C   0  0  0  0  0  2  0  0  0  0  0  0
  161.9580  204.7340  146.1600 C   0  0  0  0  0  2  0  0  0  0  0  0
  160.4240  206.6220  145.6970 C   0  0  0  0  0  1  0  0  0  0  0  0
  160.8620  205.6110  146.7360 C   0  0  0  0  0  2  0  0  0  0  0  0
  1 39  1  1  0  0  0
  1  5  1  0  0  0  0
  3  9  1  0  0  0  0
  4 10  1  0  0  0  0
  5  6  1  1  0  0  0
  7  3  1  0  0  0  0
  7  2  1  0  0  0  0
  8  2  1  6  0  0  0
  8  1  1  0  0  0  0
  9  8  1  0  0  0  0
  9  4  1  1  0  0  0
 10  5  1  0  0  0  0
 10 12  1  1  0  0  0
 11  7  2  0  0  0  0
 12 13  1  1  0  0  0
 12 14  1  0  0  0  0
 15 16  1  1  0  0  0
 15 12  1  0  0  0  0
 15 25  1  0  0  0  0
 16 17  1  1  0  0  0
 18 19  1  0  0  0  0
 19 16  1  1  0  0  0
 20 24  1  0  0  0  0
 21 20  1  0  0  0  0
 21 22  1  0  0  0  0
 22 23  1  6  0  0  0
 22 18  1  0  0  0  0
 24 19  1  0  0  0  0
 25 36  1  6  0  0  0
 27 29  1  0  0  0  0
 27 28  1  0  0  0  0
 28 30  1  6  0  0  0
 28 33  1  0  0  0  0
 29 26  1  6  0  0  0
 29 28  1  0  0  0  0
 29 25  1  0  0  0  0
 33 32  1  6  0  0  0
 33 31  1  0  0  0  0
 36 35  2  0  0  0  0
 36 34  1  0  0  0  0
 37 38  1  0  0  0  0
 38  2  1  0  0  0  0
 39 41  1  0  0  0  0
 41 40  1  6  0  0  0
 42 45  1  0  0  0  0
 43 48  1  6  0  0  0
 43 47  1  0  0  0  0
 45 44  2  0  0  0  0
 45 41  1  0  0  0  0
 46 43  1  0  0  0  0
 46 42  1  0  0  0  0
 47 44  1  0  0  0  0
 49 48  2  0  0  0  0
 50 49  1  0  0  0  0
 51 53  1  0  0  0  0
 51 50  1  0  0  0  0
 52 51  2  0  0  0  0
 54 55  1  0  0  0  0
 54 53  1  0  0  0  0
 55 57  1  0  0  0  0
 56 57  1  0  0  0  0
M  END
>  <MODEL>
9

>  <REMARK>
 VINA RESULT:       0.1      4.413     10.221
  Name = 
  19 active torsions:
  status: ('A' for Active; 'I' for Inactive)
    1  A    between atoms: C_3  and  C_6
    2  A    between atoms: C_4  and  C_23
    3  A    between atoms: C_6  and  C_30
    4  A    between atoms: C_7  and  C_24
    5  A    between atoms: C_9  and  C_18
    6  A    between atoms: C_9  and  C_53
    7  A    between atoms: N_10  and  C_28
    8  A    between atoms: C_17  and  C_52
    9  A    between atoms: C_18  and  C_24
   10  A    between atoms: C_18  and  C_32
   11  A    between atoms: C_20  and  C_30
   12  A    between atoms: C_22  and  C_31
   13  A    between atoms: C_22  and  C_43
   14  A    between atoms: C_31  and  N_40
   15  A    between atoms: C_32  and  C_33
   16  A    between atoms: C_32  and  C_46
   17  A    between atoms: C_34  and  C_35
   18  A    between atoms: C_34  and  N_40
   19  A    between atoms: C_35  and  C_50
                            x       y       z     vdW  Elec       q    Type
                         _______ _______ _______ _____ _____    ______ ____

>  <TORSDO>
F 19

$$$$
