=
 OpenBabel11072409523D

 64 75  0  0  1  0  0  0  0  0999 V2000
  159.7390  206.4000  154.1950 O   0  0  0  0  0  1  0  0  0  0  0  0
  162.0160  206.0950  153.4650 C   0  0  1  0  0  0  0  0  0  0  0  0
  162.1620  205.3710  150.6260 C   0  0  2  0  0  3  0  0  0  0  0  0
  161.9710  206.0630  154.9800 C   0  0  0  0  0  2  0  0  0  0  0  0
  162.9310  205.1690  152.9270 O   0  0  0  0  0  0  0  0  0  0  0  0
  160.8050  205.5010  154.1790 C   0  0  1  0  0  3  0  0  0  0  0  0
  161.2380  207.6040  151.4630 C   0  0  0  0  0  2  0  0  0  0  0  0
  162.0010  207.4860  152.7940 C   0  0  1  0  0  3  0  0  0  0  0  0
  162.2950  204.4910  151.8700 C   0  0  0  0  0  2  0  0  0  0  0  0
  160.9270  206.2720  150.7660 C   0  0  0  0  0  2  0  0  0  0  0  0
  160.7430  208.6290  154.7100 C   0  0  0  0  0  2  0  0  0  0  0  0
  156.8800  211.7170  154.1680 C   0  0  0  0  0  2  0  0  0  0  0  0
  161.8440  210.0070  152.9150 C   0  0  0  0  0  2  0  0  0  0  0  0
  159.9960  209.6760  156.9150 C   0  0  0  0  0  2  0  0  0  0  0  0
  154.6380  212.1160  157.0460 O   0  0  0  0  0  0  0  0  0  0  0  0
  156.8450  211.5010  157.0440 O   0  0  0  0  0  0  0  0  0  0  0  0
  159.4650  211.5460  154.2070 C   0  0  2  0  0  3  0  0  0  0  0  0
  155.7020  211.9720  156.3840 C   0  0  0  0  0  0  0  0  0  0  0  0
  158.1530  211.5990  154.9900 C   0  0  2  0  0  0  0  0  0  0  0  0
  155.7720  212.4560  154.9480 C   0  0  2  0  0  0  0  0  0  0  0  0
  157.9600  210.9410  156.3600 C   0  0  1  0  0  3  0  0  0  0  0  0
  160.8300  209.8310  155.6420 C   0  0  2  0  0  3  0  0  0  0  0  0
  160.7880  211.1810  154.8980 C   0  0  1  0  0  3  0  0  0  0  0  0
  159.0070  212.8360  154.8950 C   0  0  0  0  0  2  0  0  0  0  0  0
  159.1780  210.9070  157.2600 C   0  0  0  0  0  2  0  0  0  0  0  0
  154.4370  212.1720  154.2660 C   0  0  0  0  0  1  0  0  0  0  0  0
  161.9200  211.2120  153.8630 C   0  0  0  0  0  2  0  0  0  0  0  0
  161.9060  208.7080  153.7180 C   0  0  2  0  0  3  0  0  0  0  0  0
  156.0340  213.9030  154.9820 N   0  0  0  0  0  2  0  0  0  0  0  0
  158.0060  214.3780  152.2640 C   0  0  1  0  0  3  0  0  0  0  0  0
  157.4020  213.4550  151.3270 C   0  0  2  0  0  0  0  0  0  0  0  0
  156.9450  213.4100  152.8110 C   0  0  2  0  0  0  0  0  0  0  0  0
  158.7660  213.7640  151.2520 O   0  0  0  0  0  0  0  0  0  0  0  0
  155.5610  213.7290  152.7180 O   0  0  0  0  0  0  0  0  0  0  0  0
  156.2710  214.4530  153.6500 C   0  0  1  0  0  3  0  0  0  0  0  0
  156.5990  214.3040  150.3340 C   0  0  0  0  0  2  0  0  0  0  0  0
  154.9410  213.8520  148.6540 O   0  0  0  0  0  1  0  0  0  0  0  0
  156.2310  213.5150  149.0800 C   0  0  1  0  0  3  0  0  0  0  0  0
  157.2390  213.7720  147.9710 C   0  0  0  0  0  2  0  0  0  0  0  0
  157.3260  212.5690  147.0470 C   0  0  0  0  0  1  0  0  0  0  0  0
  162.0650  204.4720  149.3880 C   0  0  2  0  0  3  0  0  0  0  0  0
  161.1820  202.6480  148.4170 C   0  0  1  0  0  3  0  0  0  0  0  0
  161.9720  204.1940  146.9660 C   0  0  0  0  0  2  0  0  0  0  0  0
  161.9980  205.2550  148.0690 C   0  0  1  0  0  3  0  0  0  0  0  0
  160.9240  203.2780  147.1830 O   0  0  0  0  0  0  0  0  0  0  0  0
  160.9980  203.5570  149.4780 O   0  0  0  0  0  0  0  0  0  0  0  0
  160.8250  206.0140  148.0260 O   0  0  0  0  0  0  0  0  0  0  0  0
  161.1540  207.1900  147.3480 C   0  0  0  0  0  2  0  0  0  0  0  0
  161.6940  208.2260  148.3300 C   0  0  0  0  0  2  0  0  0  0  0  0
  161.6890  209.6320  147.7320 C   0  0  0  0  0  2  0  0  0  0  0  0
  160.8000  212.2330  147.1660 F   0  0  0  0  0  0  0  0  0  0  0  0
  162.7490  211.7150  148.2640 O   0  0  0  0  0  0  0  0  0  0  0  0
  161.1660  212.9330  149.4110 O   0  0  0  0  0  1  0  0  0  0  0  0
  161.3800  211.9990  148.3970 C   0  0  1  0  0  0  0  0  0  0  0  0
  161.9330  210.6880  148.7980 C   0  0  1  0  0  3  0  0  0  0  0  0
  160.2880  201.4270  148.6030 C   0  0  0  0  0  2  0  0  0  0  0  0
  160.9210  200.1380  148.0780 C   0  0  0  0  0  2  0  0  0  0  0  0
  161.9150  200.4420  147.0440 N   0  0  0  0  0  2  0  0  0  0  0  0
  160.5030  201.2240  145.1560 C   0  0  0  0  0  2  0  0  0  0  0  0
  161.4780  197.7830  144.9080 C   0  0  0  0  0  1  0  0  0  0  0  0
  159.3750  199.1060  144.8460 C   0  0  0  0  0  2  0  0  0  0  0  0
  159.5280  200.4980  144.2540 C   0  0  0  0  0  2  0  0  0  0  0  0
  161.4130  200.1360  145.6970 C   0  0  2  0  0  3  0  0  0  0  0  0
  160.6450  198.8200  145.6340 C   0  0  2  0  0  3  0  0  0  0  0  0
  2  6  1  0  0  0  0
  2  4  1  1  0  0  0
  3 10  1  1  0  0  0
  3  9  1  0  0  0  0
  5  2  1  0  0  0  0
  6  1  1  1  0  0  0
  6  4  1  0  0  0  0
  8  7  1  6  0  0  0
  8  2  1  0  0  0  0
  8 28  1  0  0  0  0
  9  5  1  0  0  0  0
 10  7  1  0  0  0  0
 12 20  1  0  0  0  0
 13 27  1  0  0  0  0
 14 25  1  0  0  0  0
 17 24  1  1  0  0  0
 17 23  1  0  0  0  0
 17 19  1  0  0  0  0
 18 16  1  0  0  0  0
 18 15  2  0  0  0  0
 19 12  1  6  0  0  0
 19 21  1  0  0  0  0
 20 26  1  6  0  0  0
 20 29  1  0  0  0  0
 20 18  1  0  0  0  0
 21 16  1  0  0  0  0
 21 25  1  1  0  0  0
 22 11  1  6  0  0  0
 22 14  1  0  0  0  0
 23 27  1  6  0  0  0
 23 22  1  0  0  0  0
 24 19  1  0  0  0  0
 28 13  1  6  0  0  0
 28 11  1  0  0  0  0
 30 33  1  1  0  0  0
 30 32  1  0  0  0  0
 31 36  1  6  0  0  0
 31 30  1  0  0  0  0
 31 32  1  0  0  0  0
 32 34  1  6  0  0  0
 32 35  1  0  0  0  0
 33 31  1  0  0  0  0
 34 35  1  0  0  0  0
 35 29  1  1  0  0  0
 38 37  1  6  0  0  0
 38 36  1  0  0  0  0
 39 38  1  0  0  0  0
 40 39  1  0  0  0  0
 41 46  1  1  0  0  0
 41  3  1  0  0  0  0
 42 56  1  1  0  0  0
 42 46  1  0  0  0  0
 43 45  1  0  0  0  0
 43 44  1  0  0  0  0
 44 47  1  1  0  0  0
 44 41  1  0  0  0  0
 45 42  1  0  0  0  0
 48 47  1  0  0  0  0
 48 49  1  0  0  0  0
 50 49  1  0  0  0  0
 52 54  1  0  0  0  0
 52 55  1  0  0  0  0
 54 51  1  6  0  0  0
 54 55  1  0  0  0  0
 54 53  1  0  0  0  0
 55 50  1  6  0  0  0
 57 56  1  0  0  0  0
 58 57  1  0  0  0  0
 59 63  1  0  0  0  0
 61 64  1  0  0  0  0
 62 61  1  0  0  0  0
 62 59  1  0  0  0  0
 63 58  1  1  0  0  0
 64 60  1  6  0  0  0
 64 63  1  0  0  0  0
M  END
>  <MODEL>
1

>  <REMARK>
 VINA RESULT:       1.9      0.000      0.000
  Name = 
  16 active torsions:
  status: ('A' for Active; 'I' for Inactive)
    1  A    between atoms: C_2  and  C_24
    2  A    between atoms: N_5  and  C_40
    3  A    between atoms: N_5  and  C_51
    4  A    between atoms: N_13  and  C_29
    5  A    between atoms: N_13  and  C_45
    6  A    between atoms: C_17  and  C_56
    7  A    between atoms: O_20  and  C_26
    8  A    between atoms: O_20  and  C_48
    9  A    between atoms: C_22  and  C_26
   10  A    between atoms: C_22  and  C_31
   11  A    between atoms: C_23  and  C_61
   12  A    between atoms: C_29  and  C_61
   13  A    between atoms: C_31  and  C_54
   14  A    between atoms: C_44  and  C_64
   15  A    between atoms: C_50  and  C_63
   16  A    between atoms: C_56  and  C_64
                            x       y       z     vdW  Elec       q    Type
                         _______ _______ _______ _____ _____    ______ ____

>  <TORSDO>
F 16

$$$$
=
 OpenBabel11072409523D

 64 75  0  0  1  0  0  0  0  0999 V2000
  160.0860  205.9970  153.0000 O   0  0  0  0  0  1  0  0  0  0  0  0
  162.3020  205.9820  152.0480 C   0  0  1  0  0  0  0  0  0  0  0  0
  162.2270  205.8780  149.1170 C   0  0  2  0  0  3  0  0  0  0  0  0
  162.3900  205.6300  153.5200 C   0  0  0  0  0  2  0  0  0  0  0  0
  163.2010  205.2430  151.2560 O   0  0  0  0  0  0  0  0  0  0  0  0
  161.1810  205.1830  152.7100 C   0  0  1  0  0  3  0  0  0  0  0  0
  161.2930  207.8300  150.4810 C   0  0  0  0  0  2  0  0  0  0  0  0
  162.1730  207.4800  151.6930 C   0  0  1  0  0  3  0  0  0  0  0  0
  162.5030  204.7660  150.1310 C   0  0  0  0  0  2  0  0  0  0  0  0
  160.9750  206.6580  149.5420 C   0  0  0  0  0  2  0  0  0  0  0  0
  160.9980  208.1600  153.8650 C   0  0  0  0  0  2  0  0  0  0  0  0
  157.0820  211.2120  154.1760 C   0  0  0  0  0  2  0  0  0  0  0  0
  161.9960  209.9120  152.3600 C   0  0  0  0  0  2  0  0  0  0  0  0
  160.3490  208.6950  156.2750 C   0  0  0  0  0  2  0  0  0  0  0  0
  154.9800  210.9400  157.1720 O   0  0  0  0  0  0  0  0  0  0  0  0
  157.1900  210.3850  156.9370 O   0  0  0  0  0  0  0  0  0  0  0  0
  159.6670  211.0900  154.0590 C   0  0  2  0  0  3  0  0  0  0  0  0
  156.0120  210.9630  156.4470 C   0  0  0  0  0  0  0  0  0  0  0  0
  158.3950  210.9470  154.8950 C   0  0  2  0  0  0  0  0  0  0  0  0
  156.0060  211.7440  155.1460 C   0  0  2  0  0  0  0  0  0  0  0  0
  158.2760  210.0080  156.0990 C   0  0  1  0  0  3  0  0  0  0  0  0
  161.1180  209.1360  155.0290 C   0  0  2  0  0  3  0  0  0  0  0  0
  161.0260  210.6120  154.5950 C   0  0  1  0  0  3  0  0  0  0  0  0
  159.2300  212.1930  155.0290 C   0  0  0  0  0  2  0  0  0  0  0  0
  159.5370  209.8070  156.9140 C   0  0  0  0  0  2  0  0  0  0  0  0
  154.6420  211.5850  154.4810 C   0  0  0  0  0  1  0  0  0  0  0  0
  162.1050  210.8880  153.5400 C   0  0  0  0  0  2  0  0  0  0  0  0
  162.1100  208.4730  152.8610 C   0  0  2  0  0  3  0  0  0  0  0  0
  156.2540  213.1560  155.4780 N   0  0  0  0  0  2  0  0  0  0  0  0
  158.3820  214.3530  153.1250 C   0  0  1  0  0  3  0  0  0  0  0  0
  158.0060  213.5460  151.9840 C   0  0  2  0  0  0  0  0  0  0  0  0
  157.4240  213.1780  153.3770 C   0  0  2  0  0  0  0  0  0  0  0  0
  159.3120  214.0310  152.1210 O   0  0  0  0  0  0  0  0  0  0  0  0
  156.0240  213.3340  153.1770 O   0  0  0  0  0  0  0  0  0  0  0  0
  156.5330  213.9610  154.2930 C   0  0  1  0  0  3  0  0  0  0  0  0
  157.1850  214.4530  151.0580 C   0  0  0  0  0  2  0  0  0  0  0  0
  158.5210  213.2460  149.4670 O   0  0  0  0  0  1  0  0  0  0  0  0
  157.4980  214.1940  149.5870 C   0  0  1  0  0  3  0  0  0  0  0  0
  156.2530  213.7250  148.8500 C   0  0  0  0  0  2  0  0  0  0  0  0
  156.2860  214.1950  147.4060 C   0  0  0  0  0  1  0  0  0  0  0  0
  162.0580  205.2550  147.7270 C   0  0  2  0  0  3  0  0  0  0  0  0
  161.1640  203.6300  146.4600 C   0  0  1  0  0  3  0  0  0  0  0  0
  161.7680  205.4860  145.3160 C   0  0  0  0  0  2  0  0  0  0  0  0
  161.8490  206.2920  146.6140 C   0  0  1  0  0  3  0  0  0  0  0  0
  160.7780  204.4890  145.4110 O   0  0  0  0  0  0  0  0  0  0  0  0
  161.0380  204.2850  147.7010 O   0  0  0  0  0  0  0  0  0  0  0  0
  160.6500  206.9780  146.8230 O   0  0  0  0  0  0  0  0  0  0  0  0
  160.9890  208.3310  146.8950 C   0  0  0  0  0  2  0  0  0  0  0  0
  161.8730  208.5850  148.1130 C   0  0  0  0  0  2  0  0  0  0  0  0
  162.5330  209.9610  148.0590 C   0  0  0  0  0  2  0  0  0  0  0  0
  163.4540  212.5950  148.3620 F   0  0  0  0  0  0  0  0  0  0  0  0
  161.4480  211.8000  149.1480 O   0  0  0  0  0  0  0  0  0  0  0  0
  161.3900  213.4900  147.5840 O   0  0  0  0  0  1  0  0  0  0  0  0
  162.1170  212.4040  148.0710 C   0  0  1  0  0  0  0  0  0  0  0  0
  161.4980  211.0680  147.9370 C   0  0  1  0  0  3  0  0  0  0  0  0
  160.3350  202.3500  146.4490 C   0  0  0  0  0  2  0  0  0  0  0  0
  161.1890  201.0870  146.3260 C   0  0  0  0  0  2  0  0  0  0  0  0
  161.2940  200.4130  147.6230 N   0  0  0  0  0  2  0  0  0  0  0  0
  161.8290  201.9480  149.5010 C   0  0  0  0  0  2  0  0  0  0  0  0
  158.4430  200.7680  149.5150 C   0  0  0  0  0  1  0  0  0  0  0  0
  160.3650  200.8550  151.0880 C   0  0  0  0  0  2  0  0  0  0  0  0
  161.2710  202.0630  150.9040 C   0  0  0  0  0  2  0  0  0  0  0  0
  160.7460  201.2350  148.7120 C   0  0  2  0  0  3  0  0  0  0  0  0
  159.9090  200.4310  149.7000 C   0  0  2  0  0  3  0  0  0  0  0  0
  2  6  1  0  0  0  0
  2  4  1  1  0  0  0
  3 10  1  1  0  0  0
  3  9  1  0  0  0  0
  5  2  1  0  0  0  0
  6  1  1  1  0  0  0
  6  4  1  0  0  0  0
  8  7  1  1  0  0  0
  8  2  1  0  0  0  0
  8 28  1  0  0  0  0
  9  5  1  0  0  0  0
 10  7  1  0  0  0  0
 12 20  1  0  0  0  0
 13 27  1  0  0  0  0
 14 25  1  0  0  0  0
 17 23  1  0  0  0  0
 17 19  1  0  0  0  0
 17 24  1  1  0  0  0
 18 16  1  0  0  0  0
 18 15  2  0  0  0  0
 19 12  1  6  0  0  0
 19 24  1  0  0  0  0
 19 21  1  0  0  0  0
 20 26  1  6  0  0  0
 20 29  1  0  0  0  0
 20 18  1  0  0  0  0
 21 25  1  1  0  0  0
 21 16  1  0  0  0  0
 22 11  1  6  0  0  0
 22 14  1  0  0  0  0
 23 27  1  6  0  0  0
 23 22  1  0  0  0  0
 28 13  1  6  0  0  0
 28 11  1  0  0  0  0
 30 33  1  1  0  0  0
 30 32  1  0  0  0  0
 31 36  1  6  0  0  0
 31 33  1  0  0  0  0
 31 30  1  0  0  0  0
 31 32  1  0  0  0  0
 32 34  1  6  0  0  0
 32 35  1  0  0  0  0
 34 35  1  0  0  0  0
 35 29  1  1  0  0  0
 38 37  1  1  0  0  0
 38 36  1  0  0  0  0
 39 38  1  0  0  0  0
 40 39  1  0  0  0  0
 41 46  1  1  0  0  0
 41  3  1  0  0  0  0
 42 56  1  1  0  0  0
 42 46  1  0  0  0  0
 43 45  1  0  0  0  0
 43 44  1  0  0  0  0
 44 47  1  1  0  0  0
 44 41  1  0  0  0  0
 45 42  1  0  0  0  0
 47 48  1  0  0  0  0
 48 49  1  0  0  0  0
 50 49  1  0  0  0  0
 54 53  1  6  0  0  0
 54 51  1  0  0  0  0
 54 52  1  0  0  0  0
 55 50  1  1  0  0  0
 55 54  1  0  0  0  0
 55 52  1  0  0  0  0
 57 56  1  0  0  0  0
 57 58  1  0  0  0  0
 59 62  1  0  0  0  0
 62 61  1  0  0  0  0
 63 58  1  6  0  0  0
 63 59  1  0  0  0  0
 63 64  1  0  0  0  0
 64 60  1  1  0  0  0
 64 61  1  0  0  0  0
M  END
>  <MODEL>
2

>  <REMARK>
 VINA RESULT:       3.8      1.397      2.178
  Name = 
  16 active torsions:
  status: ('A' for Active; 'I' for Inactive)
    1  A    between atoms: C_2  and  C_24
    2  A    between atoms: N_5  and  C_40
    3  A    between atoms: N_5  and  C_51
    4  A    between atoms: N_13  and  C_29
    5  A    between atoms: N_13  and  C_45
    6  A    between atoms: C_17  and  C_56
    7  A    between atoms: O_20  and  C_26
    8  A    between atoms: O_20  and  C_48
    9  A    between atoms: C_22  and  C_26
   10  A    between atoms: C_22  and  C_31
   11  A    between atoms: C_23  and  C_61
   12  A    between atoms: C_29  and  C_61
   13  A    between atoms: C_31  and  C_54
   14  A    between atoms: C_44  and  C_64
   15  A    between atoms: C_50  and  C_63
   16  A    between atoms: C_56  and  C_64
                            x       y       z     vdW  Elec       q    Type
                         _______ _______ _______ _____ _____    ______ ____

>  <TORSDO>
F 16

$$$$
=
 OpenBabel11072409523D

 64 75  0  0  1  0  0  0  0  0999 V2000
  161.9810  210.5530  150.1020 O   0  0  0  0  0  1  0  0  0  0  0  0
  161.8460  210.5060  152.5090 C   0  0  1  0  0  0  0  0  0  0  0  0
  159.2920  211.5750  153.4770 C   0  0  2  0  0  3  0  0  0  0  0  0
  163.2930  210.3350  152.0880 C   0  0  0  0  0  2  0  0  0  0  0  0
  161.7040  211.3010  153.6620 O   0  0  0  0  0  0  0  0  0  0  0  0
  162.3670  211.2200  151.2640 C   0  0  1  0  0  3  0  0  0  0  0  0
  159.4800  209.4710  152.0350 C   0  0  0  0  0  2  0  0  0  0  0  0
  160.9470  209.2520  152.4460 C   0  0  1  0  0  3  0  0  0  0  0  0
  160.6730  212.2300  153.4280 C   0  0  0  0  0  2  0  0  0  0  0  0
  158.9870  210.9220  152.1220 C   0  0  0  0  0  2  0  0  0  0  0  0
  162.2490  208.1100  150.5600 C   0  0  0  0  0  2  0  0  0  0  0  0
  160.2130  205.8600  146.6170 C   0  0  0  0  0  2  0  0  0  0  0  0
  160.5800  206.8060  151.9190 C   0  0  0  0  0  2  0  0  0  0  0  0
  163.9740  206.9320  149.0920 C   0  0  0  0  0  2  0  0  0  0  0  0
  162.3110  205.4920  143.6300 O   0  0  0  0  0  0  0  0  0  0  0  0
  162.9780  205.6980  145.8110 O   0  0  0  0  0  0  0  0  0  0  0  0
  160.9360  205.5600  149.0870 C   0  0  2  0  0  3  0  0  0  0  0  0
  161.9770  205.5290  144.8450 C   0  0  0  0  0  0  0  0  0  0  0  0
  161.3390  205.6390  147.6150 C   0  0  2  0  0  0  0  0  0  0  0  0
  160.5440  205.2340  145.2460 C   0  0  2  0  0  0  0  0  0  0  0  0
  162.7080  206.1350  147.1390 C   0  0  1  0  0  3  0  0  0  0  0  0
  162.9480  206.7990  150.2190 C   0  0  2  0  0  3  0  0  0  0  0  0
  161.9940  205.5890  150.2020 C   0  0  1  0  0  3  0  0  0  0  0  0
  161.2490  204.2930  148.2840 C   0  0  0  0  0  2  0  0  0  0  0  0
  163.8800  205.8320  148.0500 C   0  0  0  0  0  2  0  0  0  0  0  0
  159.6070  205.8390  144.2060 C   0  0  0  0  0  1  0  0  0  0  0  0
  161.2910  205.4920  151.5620 C   0  0  0  0  0  2  0  0  0  0  0  0
  161.5880  207.9560  151.9310 C   0  0  2  0  0  3  0  0  0  0  0  0
  160.3900  203.7720  145.2880 N   0  0  0  0  0  2  0  0  0  0  0  0
  159.3580  202.2310  148.1270 C   0  0  1  0  0  3  0  0  0  0  0  0
  159.9000  200.9040  147.9270 C   0  0  2  0  0  0  0  0  0  0  0  0
  159.9450  201.9100  146.7440 C   0  0  2  0  0  0  0  0  0  0  0  0
  158.7340  201.0980  148.6790 O   0  0  0  0  0  0  0  0  0  0  0  0
  161.3410  202.0420  146.5050 O   0  0  0  0  0  0  0  0  0  0  0  0
  160.6480  203.2270  146.6180 C   0  0  1  0  0  3  0  0  0  0  0  0
  161.1240  200.7890  148.8440 C   0  0  0  0  0  2  0  0  0  0  0  0
  160.3370  200.3940  151.0800 O   0  0  0  0  0  1  0  0  0  0  0  0
  160.8540  201.3760  150.2270 C   0  0  1  0  0  3  0  0  0  0  0  0
  162.1240  201.9710  150.8130 C   0  0  0  0  0  2  0  0  0  0  0  0
  161.8130  202.7250  152.0940 C   0  0  0  0  0  1  0  0  0  0  0  0
  158.2480  212.6390  153.8370 C   0  0  2  0  0  3  0  0  0  0  0  0
  156.3240  213.6770  153.3210 C   0  0  1  0  0  3  0  0  0  0  0  0
  156.9250  213.8420  155.4970 C   0  0  0  0  0  2  0  0  0  0  0  0
  157.9200  212.6910  155.3360 C   0  0  1  0  0  3  0  0  0  0  0  0
  155.8220  213.6670  154.6380 O   0  0  0  0  0  0  0  0  0  0  0  0
  157.0720  212.5080  153.0740 O   0  0  0  0  0  0  0  0  0  0  0  0
  157.3260  211.4900  155.7330 O   0  0  0  0  0  0  0  0  0  0  0  0
  157.6450  211.3330  157.0850 C   0  0  0  0  0  2  0  0  0  0  0  0
  158.6940  210.2360  157.2510 C   0  0  0  0  0  2  0  0  0  0  0  0
  159.6050  210.1310  156.0290 C   0  0  0  0  0  2  0  0  0  0  0  0
  159.3040  207.4230  155.3590 F   0  0  0  0  0  0  0  0  0  0  0  0
  160.4100  208.2080  157.2120 O   0  0  0  0  0  0  0  0  0  0  0  0
  161.6260  207.0060  155.6700 O   0  0  0  0  0  1  0  0  0  0  0  0
  160.5220  207.8350  155.8630 C   0  0  1  0  0  0  0  0  0  0  0  0
  160.7930  209.2210  156.3000 C   0  0  1  0  0  3  0  0  0  0  0  0
  155.1920  213.8060  152.3080 C   0  0  0  0  0  2  0  0  0  0  0  0
  155.6620  214.3350  150.9520 C   0  0  0  0  0  2  0  0  0  0  0  0
  156.6730  213.4420  150.3790 N   0  0  0  0  0  2  0  0  0  0  0  0
  157.2060  214.4340  148.1640 C   0  0  0  0  0  2  0  0  0  0  0  0
  160.0260  214.2110  150.3670 C   0  0  0  0  0  1  0  0  0  0  0  0
  159.4410  213.5140  148.0550 C   0  0  0  0  0  2  0  0  0  0  0  0
  158.4780  214.4500  147.3430 C   0  0  0  0  0  2  0  0  0  0  0  0
  157.6690  214.1800  149.5880 C   0  0  2  0  0  3  0  0  0  0  0  0
  159.0150  213.4700  149.5150 C   0  0  2  0  0  3  0  0  0  0  0  0
  2  4  1  1  0  0  0
  2  5  1  0  0  0  0
  3 10  1  6  0  0  0
  3 41  1  0  0  0  0
  6  1  1  6  0  0  0
  6  4  1  0  0  0  0
  6  2  1  0  0  0  0
  7 10  1  0  0  0  0
  8  7  1  6  0  0  0
  8  2  1  0  0  0  0
  9  3  1  0  0  0  0
  9  5  1  0  0  0  0
 13 28  1  0  0  0  0
 15 18  2  0  0  0  0
 16 21  1  0  0  0  0
 17 24  1  6  0  0  0
 17 23  1  0  0  0  0
 18 20  1  0  0  0  0
 18 16  1  0  0  0  0
 19 12  1  6  0  0  0
 19 24  1  0  0  0  0
 19 17  1  0  0  0  0
 20 26  1  6  0  0  0
 20 29  1  0  0  0  0
 20 12  1  0  0  0  0
 21 19  1  0  0  0  0
 21 25  1  1  0  0  0
 22 14  1  6  0  0  0
 22 11  1  0  0  0  0
 23 22  1  0  0  0  0
 23 27  1  1  0  0  0
 25 14  1  0  0  0  0
 27 13  1  0  0  0  0
 28 11  1  6  0  0  0
 28  8  1  0  0  0  0
 30 33  1  6  0  0  0
 31 30  1  0  0  0  0
 31 33  1  0  0  0  0
 31 36  1  1  0  0  0
 32 34  1  1  0  0  0
 32 31  1  0  0  0  0
 32 30  1  0  0  0  0
 34 35  1  0  0  0  0
 35 29  1  6  0  0  0
 35 32  1  0  0  0  0
 36 38  1  0  0  0  0
 38 39  1  0  0  0  0
 38 37  1  1  0  0  0
 39 40  1  0  0  0  0
 41 46  1  6  0  0  0
 41 44  1  0  0  0  0
 42 56  1  6  0  0  0
 42 45  1  0  0  0  0
 44 43  1  0  0  0  0
 44 47  1  6  0  0  0
 45 43  1  0  0  0  0
 46 42  1  0  0  0  0
 47 48  1  0  0  0  0
 48 49  1  0  0  0  0
 50 49  1  0  0  0  0
 53 54  1  0  0  0  0
 54 51  1  6  0  0  0
 54 55  1  0  0  0  0
 54 52  1  0  0  0  0
 55 50  1  6  0  0  0
 55 52  1  0  0  0  0
 57 56  1  0  0  0  0
 58 57  1  0  0  0  0
 59 63  1  0  0  0  0
 61 64  1  0  0  0  0
 62 61  1  0  0  0  0
 62 59  1  0  0  0  0
 63 58  1  6  0  0  0
 64 63  1  0  0  0  0
 64 60  1  1  0  0  0
M  END
>  <MODEL>
3

>  <REMARK>
 VINA RESULT:       4.5      2.538     11.300
  Name = 
  16 active torsions:
  status: ('A' for Active; 'I' for Inactive)
    1  A    between atoms: C_2  and  C_24
    2  A    between atoms: N_5  and  C_40
    3  A    between atoms: N_5  and  C_51
    4  A    between atoms: N_13  and  C_29
    5  A    between atoms: N_13  and  C_45
    6  A    between atoms: C_17  and  C_56
    7  A    between atoms: O_20  and  C_26
    8  A    between atoms: O_20  and  C_48
    9  A    between atoms: C_22  and  C_26
   10  A    between atoms: C_22  and  C_31
   11  A    between atoms: C_23  and  C_61
   12  A    between atoms: C_29  and  C_61
   13  A    between atoms: C_31  and  C_54
   14  A    between atoms: C_44  and  C_64
   15  A    between atoms: C_50  and  C_63
   16  A    between atoms: C_56  and  C_64
                            x       y       z     vdW  Elec       q    Type
                         _______ _______ _______ _____ _____    ______ ____

>  <TORSDO>
F 16

$$$$
