=
 OpenBabel11072412393D

 31 34  0  0  1  0  0  0  0  0999 V2000
  160.9450  206.1270  147.8290 C   0  0  0  0  0  0  0  0  0  0  0  0
  161.4650  207.3950  149.8650 C   0  0  0  0  0  2  0  0  0  0  0  0
  161.2610  206.1250  150.6540 C   0  0  0  0  0  0  0  0  0  0  0  0
  160.5560  202.5080  150.0800 N   0  0  0  0  0  1  0  0  0  0  0  0
  160.9830  204.9220  149.9920 C   0  0  0  0  0  0  0  0  0  0  0  0
  160.8400  203.7410  150.7320 C   0  0  0  0  0  0  0  0  0  0  0  0
  160.9710  203.7710  152.0850 N   0  0  0  0  0  0  0  0  0  0  0  0
  161.3960  206.1300  152.0520 C   0  0  0  0  0  0  0  0  0  0  0  0
  161.2020  207.2500  148.4280 N   0  0  0  0  0  0  0  0  0  0  0  0
  161.2420  204.9240  152.7510 C   0  0  0  0  0  3  0  0  0  0  0  0
  160.8370  204.9130  148.5720 N   0  0  0  0  0  2  0  0  0  0  0  0
  160.7030  206.1140  146.3610 C   0  0  0  0  0  2  0  0  0  0  0  0
  162.0150  204.3740  145.0170 C   0  0  2  0  0  3  0  0  0  0  0  0
  161.9860  205.7430  145.6220 C   0  0  1  0  0  3  0  0  0  0  0  0
  161.6890  205.5200  144.2650 O   0  0  0  0  0  0  0  0  0  0  0  0
  160.7570  203.5330  145.2210 C   0  0  0  0  0  2  0  0  0  0  0  0
  161.0400  202.3730  146.1580 C   0  0  0  0  0  2  0  0  0  0  0  0
  160.5200  201.0740  145.5690 C   0  0  0  0  0  2  0  0  0  0  0  0
  161.5400  200.0380  147.5910 O   0  0  0  0  0  1  0  0  0  0  0  0
  161.1400  199.9160  146.2680 C   0  0  0  0  0  0  0  0  0  0  0  0
  161.2760  198.8180  145.6690 O   0  0  0  0  0  0  0  0  0  0  0  0
  161.6960  207.3530  152.7430 N   0  0  0  0  0  2  0  0  0  0  0  0
  161.1020  209.4630  153.7480 N   0  0  0  0  0  0  0  0  0  0  0  0
  160.7220  210.1080  155.0190 C   0  0  0  0  0  2  0  0  0  0  0  0
  159.9330  207.9630  156.0690 C   0  0  0  0  0  2  0  0  0  0  0  0
  159.5580  209.4030  155.7180 C   0  0  0  0  0  2  0  0  0  0  0  0
  160.9250  207.3470  155.0790 C   0  0  0  0  0  2  0  0  0  0  0  0
  160.8180  208.0160  153.7040 C   0  0  2  0  0  3  0  0  0  0  0  0
  160.3240  210.0930  152.6900 C   0  0  0  0  0  2  0  0  0  0  0  0
  160.0990  211.5620  153.0070 C   0  0  0  0  0  2  0  0  0  0  0  0
  158.7820  212.0300  152.4160 C   0  0  0  0  0  1  0  0  0  0  0  0
  1  9  2  0  0  0  0
  1 11  1  0  0  0  0
  2  3  1  0  0  0  0
  3  8  1  0  0  0  0
  4  6  1  0  0  0  0
  5  3  2  0  0  0  0
  5  6  1  0  0  0  0
  6  7  2  0  0  0  0
  7 10  1  0  0  0  0
  8 22  1  0  0  0  0
  8 10  2  0  0  0  0
  9  2  1  0  0  0  0
 11  5  1  0  0  0  0
 12  1  1  0  0  0  0
 13 16  1  1  0  0  0
 13 14  1  0  0  0  0
 14 12  1  1  0  0  0
 15 13  1  0  0  0  0
 15 14  1  0  0  0  0
 16 17  1  0  0  0  0
 18 17  1  0  0  0  0
 18 20  1  0  0  0  0
 20 19  1  0  0  0  0
 21 20  2  0  0  0  0
 23 24  1  0  0  0  0
 24 26  1  0  0  0  0
 26 25  1  0  0  0  0
 27 25  1  0  0  0  0
 28 22  1  6  0  0  0
 28 23  1  0  0  0  0
 28 27  1  0  0  0  0
 29 30  1  0  0  0  0
 29 23  1  0  0  0  0
 31 30  1  0  0  0  0
M  END
>  <MODEL>
1

>  <REMARK>
 VINA RESULT:      -8.2      0.000      0.000
  Name = 
  10 active torsions:
  status: ('A' for Active; 'I' for Inactive)
    1  A    between atoms: C_1  and  C_18
    2  A    between atoms: C_2  and  C_10
    3  A    between atoms: C_3  and  C_21
    4  A    between atoms: C_3  and  C_26
    5  A    between atoms: C_6  and  C_26
    6  A    between atoms: C_10  and  N_15
    7  A    between atoms: C_11  and  C_18
    8  A    between atoms: C_16  and  C_21
    9  A    between atoms: C_22  and  N_31
   10  A    between atoms: C_28  and  N_31
                            x       y       z     vdW  Elec       q    Type
                         _______ _______ _______ _____ _____    ______ ____

>  <TORSDO>
F 10

$$$$
=
 OpenBabel11072412393D

 31 34  0  0  1  0  0  0  0  0999 V2000
  162.1670  207.7240  149.7340 C   0  0  0  0  0  0  0  0  0  0  0  0
  161.7840  209.5160  151.3670 C   0  0  0  0  0  2  0  0  0  0  0  0
  161.4190  208.4570  152.3780 C   0  0  0  0  0  0  0  0  0  0  0  0
  161.3040  204.7410  152.6790 N   0  0  0  0  0  1  0  0  0  0  0  0
  161.5140  207.1000  152.0400 C   0  0  0  0  0  0  0  0  0  0  0  0
  161.2150  206.1250  153.0010 C   0  0  0  0  0  0  0  0  0  0  0  0
  160.8350  206.5010  154.2500 N   0  0  0  0  0  0  0  0  0  0  0  0
  161.0280  208.8210  153.6760 C   0  0  0  0  0  0  0  0  0  0  0  0
  162.0830  208.9860  150.0310 N   0  0  0  0  0  0  0  0  0  0  0  0
  160.7360  207.8100  154.6030 C   0  0  0  0  0  3  0  0  0  0  0  0
  161.9030  206.7260  150.7190 N   0  0  0  0  0  2  0  0  0  0  0  0
  162.4850  207.3160  148.3400 C   0  0  0  0  0  2  0  0  0  0  0  0
  160.9560  205.8250  146.9280 C   0  0  2  0  0  3  0  0  0  0  0  0
  161.2000  207.1740  147.5300 C   0  0  1  0  0  3  0  0  0  0  0  0
  160.3700  206.2190  148.1460 O   0  0  0  0  0  0  0  0  0  0  0  0
  162.0290  204.7740  147.2040 C   0  0  0  0  0  2  0  0  0  0  0  0
  161.4100  203.3900  147.2750 C   0  0  0  0  0  2  0  0  0  0  0  0
  161.0620  203.0350  148.7100 C   0  0  0  0  0  2  0  0  0  0  0  0
  161.3770  200.6210  148.1880 O   0  0  0  0  0  0  0  0  0  0  0  0
  160.6210  201.6170  148.7900 C   0  0  0  0  0  0  0  0  0  0  0  0
  159.5780  201.3160  149.4270 O   0  0  0  0  0  1  0  0  0  0  0  0
  160.9410  210.2080  154.0410 N   0  0  0  0  0  2  0  0  0  0  0  0
  159.8540  212.3150  153.6020 N   0  0  0  0  0  0  0  0  0  0  0  0
  158.9330  213.3170  154.1700 C   0  0  0  0  0  2  0  0  0  0  0  0
  157.9000  211.6980  155.7930 C   0  0  0  0  0  2  0  0  0  0  0  0
  157.6260  212.7040  154.6740 C   0  0  0  0  0  2  0  0  0  0  0  0
  159.2520  210.9970  155.6460 C   0  0  0  0  0  2  0  0  0  0  0  0
  159.7000  210.9660  154.1810 C   0  0  2  0  0  3  0  0  0  0  0  0
  159.5640  212.2130  152.1780 C   0  0  0  0  0  2  0  0  0  0  0  0
  159.4440  213.5990  151.5670 C   0  0  0  0  0  2  0  0  0  0  0  0
  158.3070  213.6330  150.5630 C   0  0  0  0  0  1  0  0  0  0  0  0
  1  9  2  0  0  0  0
  1 11  1  0  0  0  0
  2  3  1  0  0  0  0
  3  8  1  0  0  0  0
  4  6  1  0  0  0  0
  5  3  2  0  0  0  0
  5  6  1  0  0  0  0
  6  7  2  0  0  0  0
  7 10  1  0  0  0  0
  8 22  1  0  0  0  0
  8 10  2  0  0  0  0
  9  2  1  0  0  0  0
 11  5  1  0  0  0  0
 12  1  1  0  0  0  0
 13 16  1  1  0  0  0
 13 14  1  0  0  0  0
 13 15  1  0  0  0  0
 14 15  1  0  0  0  0
 14 12  1  1  0  0  0
 16 17  1  0  0  0  0
 17 18  1  0  0  0  0
 18 20  1  0  0  0  0
 19 20  2  0  0  0  0
 20 21  1  0  0  0  0
 23 24  1  0  0  0  0
 23 28  1  0  0  0  0
 24 26  1  0  0  0  0
 26 25  1  0  0  0  0
 27 25  1  0  0  0  0
 28 22  1  1  0  0  0
 28 27  1  0  0  0  0
 29 23  1  0  0  0  0
 30 29  1  0  0  0  0
 31 30  1  0  0  0  0
M  END
>  <MODEL>
2

>  <REMARK>
 VINA RESULT:      -7.7      2.013      3.183
  Name = 
  10 active torsions:
  status: ('A' for Active; 'I' for Inactive)
    1  A    between atoms: C_1  and  C_18
    2  A    between atoms: C_2  and  C_10
    3  A    between atoms: C_3  and  C_21
    4  A    between atoms: C_3  and  C_26
    5  A    between atoms: C_6  and  C_26
    6  A    between atoms: C_10  and  N_15
    7  A    between atoms: C_11  and  C_18
    8  A    between atoms: C_16  and  C_21
    9  A    between atoms: C_22  and  N_31
   10  A    between atoms: C_28  and  N_31
                            x       y       z     vdW  Elec       q    Type
                         _______ _______ _______ _____ _____    ______ ____

>  <TORSDO>
F 10

$$$$
=
 OpenBabel11072412393D

 31 34  0  0  1  0  0  0  0  0999 V2000
  161.4920  204.4380  151.2680 C   0  0  0  0  0  0  0  0  0  0  0  0
  161.1460  206.1570  152.9840 C   0  0  0  0  0  2  0  0  0  0  0  0
  161.5020  207.1980  151.9510 C   0  0  0  0  0  0  0  0  0  0  0  0
  162.3180  207.4280  148.3190 N   0  0  0  0  0  1  0  0  0  0  0  0
  161.7620  206.8150  150.6280 C   0  0  0  0  0  0  0  0  0  0  0  0
  162.0480  207.7950  149.6680 C   0  0  0  0  0  0  0  0  0  0  0  0
  162.0720  209.1050  150.0260 N   0  0  0  0  0  0  0  0  0  0  0  0
  161.5280  208.5590  152.2960 C   0  0  0  0  0  0  0  0  0  0  0  0
  161.2500  204.7760  152.4980 N   0  0  0  0  0  0  0  0  0  0  0  0
  161.8210  209.5020  151.3010 C   0  0  0  0  0  3  0  0  0  0  0  0
  161.7450  205.4320  150.2760 N   0  0  0  0  0  2  0  0  0  0  0  0
  161.5650  202.9980  150.9010 C   0  0  0  0  0  2  0  0  0  0  0  0
  160.1050  201.9800  149.0610 C   0  0  2  0  0  3  0  0  0  0  0  0
  160.1910  202.5000  150.4620 C   0  0  1  0  0  3  0  0  0  0  0  0
  160.2710  201.1260  150.1690 O   0  0  0  0  0  0  0  0  0  0  0  0
  161.4040  202.0200  148.2590 C   0  0  0  0  0  2  0  0  0  0  0  0
  161.1830  202.7090  146.9250 C   0  0  0  0  0  2  0  0  0  0  0  0
  161.7660  204.1110  146.9460 C   0  0  0  0  0  2  0  0  0  0  0  0
  160.8040  204.1820  144.6510 O   0  0  0  0  0  0  0  0  0  0  0  0
  161.6660  204.7230  145.5940 C   0  0  0  0  0  0  0  0  0  0  0  0
  162.3410  205.7480  145.3150 O   0  0  0  0  0  1  0  0  0  0  0  0
  161.2480  208.9670  153.6440 N   0  0  0  0  0  2  0  0  0  0  0  0
  160.8950  210.4340  155.5250 N   0  0  0  0  0  0  0  0  0  0  0  0
  160.0140  211.4900  156.0590 C   0  0  0  0  0  2  0  0  0  0  0  0
  159.1320  212.1350  153.7940 C   0  0  0  0  0  2  0  0  0  0  0  0
  159.8010  212.6390  155.0720 C   0  0  0  0  0  2  0  0  0  0  0  0
  159.5000  210.6880  153.4590 C   0  0  0  0  0  2  0  0  0  0  0  0
  160.8620  210.3140  154.0540 C   0  0  2  0  0  3  0  0  0  0  0  0
  162.2600  210.7710  155.9050 C   0  0  0  0  0  2  0  0  0  0  0  0
  162.7070  209.9100  157.0750 C   0  0  0  0  0  2  0  0  0  0  0  0
  161.9710  208.5830  157.0610 C   0  0  0  0  0  1  0  0  0  0  0  0
  1  9  2  0  0  0  0
  3  8  1  0  0  0  0
  3  2  1  0  0  0  0
  4  6  1  0  0  0  0
  5  3  2  0  0  0  0
  6  7  2  0  0  0  0
  6  5  1  0  0  0  0
  7 10  1  0  0  0  0
  8 22  1  0  0  0  0
  9  2  1  0  0  0  0
 10  8  2  0  0  0  0
 11  5  1  0  0  0  0
 11  1  1  0  0  0  0
 12  1  1  0  0  0  0
 13 16  1  6  0  0  0
 13 15  1  0  0  0  0
 13 14  1  0  0  0  0
 14 12  1  6  0  0  0
 15 14  1  0  0  0  0
 17 18  1  0  0  0  0
 17 16  1  0  0  0  0
 19 20  2  0  0  0  0
 20 18  1  0  0  0  0
 21 20  1  0  0  0  0
 23 29  1  0  0  0  0
 23 24  1  0  0  0  0
 25 26  1  0  0  0  0
 26 24  1  0  0  0  0
 27 25  1  0  0  0  0
 27 28  1  0  0  0  0
 28 22  1  1  0  0  0
 28 23  1  0  0  0  0
 29 30  1  0  0  0  0
 31 30  1  0  0  0  0
M  END
>  <MODEL>
3

>  <REMARK>
 VINA RESULT:      -7.5      1.941      4.396
  Name = 
  10 active torsions:
  status: ('A' for Active; 'I' for Inactive)
    1  A    between atoms: C_1  and  C_18
    2  A    between atoms: C_2  and  C_10
    3  A    between atoms: C_3  and  C_21
    4  A    between atoms: C_3  and  C_26
    5  A    between atoms: C_6  and  C_26
    6  A    between atoms: C_10  and  N_15
    7  A    between atoms: C_11  and  C_18
    8  A    between atoms: C_16  and  C_21
    9  A    between atoms: C_22  and  N_31
   10  A    between atoms: C_28  and  N_31
                            x       y       z     vdW  Elec       q    Type
                         _______ _______ _______ _____ _____    ______ ____

>  <TORSDO>
F 10

$$$$
=
 OpenBabel11072412393D

 31 34  0  0  1  0  0  0  0  0999 V2000
  161.8790  209.6400  149.7630 C   0  0  0  0  0  0  0  0  0  0  0  0
  161.3220  207.5600  148.5850 C   0  0  0  0  0  2  0  0  0  0  0  0
  161.2640  206.8690  149.9250 C   0  0  0  0  0  0  0  0  0  0  0  0
  161.5230  207.6870  153.5540 N   0  0  0  0  0  1  0  0  0  0  0  0
  161.4430  207.6040  151.1040 C   0  0  0  0  0  0  0  0  0  0  0  0
  161.3420  206.9590  152.3440 C   0  0  0  0  0  0  0  0  0  0  0  0
  161.0720  205.6280  152.3940 N   0  0  0  0  0  0  0  0  0  0  0  0
  160.9820  205.4960  150.0010 C   0  0  0  0  0  0  0  0  0  0  0  0
  161.7160  208.9720  148.6610 N   0  0  0  0  0  0  0  0  0  0  0  0
  160.8930  204.8930  151.2650 C   0  0  0  0  0  3  0  0  0  0  0  0
  161.7380  208.9980  151.0300 N   0  0  0  0  0  2  0  0  0  0  0  0
  162.2730  211.0730  149.7050 C   0  0  0  0  0  2  0  0  0  0  0  0
  161.5850  212.7850  147.9300 C   0  0  2  0  0  3  0  0  0  0  0  0
  162.3450  211.5370  148.2530 C   0  0  1  0  0  3  0  0  0  0  0  0
  162.9660  212.7980  148.2020 O   0  0  0  0  0  0  0  0  0  0  0  0
  160.8370  213.4250  149.0980 C   0  0  0  0  0  2  0  0  0  0  0  0
  159.4170  213.7760  148.6920 C   0  0  0  0  0  2  0  0  0  0  0  0
  159.0680  213.1290  147.3630 C   0  0  0  0  0  2  0  0  0  0  0  0
  157.0720  212.2010  146.1990 O   0  0  0  0  0  0  0  0  0  0  0  0
  157.6200  212.7880  147.3310 C   0  0  0  0  0  0  0  0  0  0  0  0
  156.8990  213.0050  148.3390 O   0  0  0  0  0  1  0  0  0  0  0  0
  160.7800  204.7320  148.8020 N   0  0  0  0  0  2  0  0  0  0  0  0
  161.0160  202.9500  147.1940 N   0  0  0  0  0  0  0  0  0  0  0  0
  160.8460  201.4980  146.9970 C   0  0  0  0  0  2  0  0  0  0  0  0
  160.9520  200.9800  149.4560 C   0  0  0  0  0  2  0  0  0  0  0  0
  161.5380  200.6680  148.0790 C   0  0  0  0  0  2  0  0  0  0  0  0
  160.4520  202.4210  149.5780 C   0  0  0  0  0  2  0  0  0  0  0  0
  161.1940  203.3450  148.6050 C   0  0  2  0  0  3  0  0  0  0  0  0
  162.2180  203.3500  146.4750 C   0  0  0  0  0  2  0  0  0  0  0  0
  161.8540  204.2440  145.3010 C   0  0  0  0  0  2  0  0  0  0  0  0
  162.2720  205.6750  145.5820 C   0  0  0  0  0  1  0  0  0  0  0  0
  1 11  1  0  0  0  0
  2  9  1  0  0  0  0
  2  3  1  0  0  0  0
  3  8  2  0  0  0  0
  3  5  1  0  0  0  0
  5  6  2  0  0  0  0
  6  7  1  0  0  0  0
  6  4  1  0  0  0  0
  8 10  1  0  0  0  0
  9  1  2  0  0  0  0
 10  7  2  0  0  0  0
 11  5  1  0  0  0  0
 12  1  1  0  0  0  0
 13 15  1  0  0  0  0
 13 14  1  0  0  0  0
 13 16  1  1  0  0  0
 14 12  1  1  0  0  0
 15 14  1  0  0  0  0
 17 16  1  0  0  0  0
 18 17  1  0  0  0  0
 19 20  2  0  0  0  0
 20 18  1  0  0  0  0
 20 21  1  0  0  0  0
 22  8  1  0  0  0  0
 23 28  1  0  0  0  0
 24 23  1  0  0  0  0
 24 26  1  0  0  0  0
 25 27  1  0  0  0  0
 26 25  1  0  0  0  0
 28 22  1  6  0  0  0
 28 27  1  0  0  0  0
 29 23  1  0  0  0  0
 30 31  1  0  0  0  0
 30 29  1  0  0  0  0
M  END
>  <MODEL>
4

>  <REMARK>
 VINA RESULT:      -7.5      4.325      8.446
  Name = 
  10 active torsions:
  status: ('A' for Active; 'I' for Inactive)
    1  A    between atoms: C_1  and  C_18
    2  A    between atoms: C_2  and  C_10
    3  A    between atoms: C_3  and  C_21
    4  A    between atoms: C_3  and  C_26
    5  A    between atoms: C_6  and  C_26
    6  A    between atoms: C_10  and  N_15
    7  A    between atoms: C_11  and  C_18
    8  A    between atoms: C_16  and  C_21
    9  A    between atoms: C_22  and  N_31
   10  A    between atoms: C_28  and  N_31
                            x       y       z     vdW  Elec       q    Type
                         _______ _______ _______ _____ _____    ______ ____

>  <TORSDO>
F 10

$$$$
=
 OpenBabel11072412393D

 31 34  0  0  1  0  0  0  0  0999 V2000
  161.4320  208.7720  151.2210 C   0  0  0  0  0  0  0  0  0  0  0  0
  161.2710  207.2090  149.3360 C   0  0  0  0  0  2  0  0  0  0  0  0
  161.2570  206.0770  150.3330 C   0  0  0  0  0  0  0  0  0  0  0  0
  161.2060  205.5460  154.0240 N   0  0  0  0  0  1  0  0  0  0  0  0
  161.2600  206.3500  151.7080 C   0  0  0  0  0  0  0  0  0  0  0  0
  161.2020  205.2910  152.6230 C   0  0  0  0  0  0  0  0  0  0  0  0
  161.1450  204.0100  152.1740 N   0  0  0  0  0  0  0  0  0  0  0  0
  161.1940  204.7460  149.8920 C   0  0  0  0  0  0  0  0  0  0  0  0
  161.4310  208.5360  149.9440 N   0  0  0  0  0  0  0  0  0  0  0  0
  161.1400  203.7190  150.8460 C   0  0  0  0  0  3  0  0  0  0  0  0
  161.3330  207.7010  152.1600 N   0  0  0  0  0  2  0  0  0  0  0  0
  161.5950  210.1670  151.7120 C   0  0  0  0  0  2  0  0  0  0  0  0
  160.1800  210.9590  153.6930 C   0  0  2  0  0  3  0  0  0  0  0  0
  160.2600  210.7030  152.2210 C   0  0  1  0  0  3  0  0  0  0  0  0
  160.4550  211.9840  152.7680 O   0  0  0  0  0  0  0  0  0  0  0  0
  161.4470  210.6470  154.4880 C   0  0  0  0  0  2  0  0  0  0  0  0
  161.1110  210.4050  155.9490 C   0  0  0  0  0  2  0  0  0  0  0  0
  160.0820  209.2960  156.0820 C   0  0  0  0  0  2  0  0  0  0  0  0
  159.9460  206.9620  156.9380 O   0  0  0  0  0  1  0  0  0  0  0  0
  160.7160  208.0820  156.6620 C   0  0  0  0  0  0  0  0  0  0  0  0
  161.9560  208.0610  156.8760 O   0  0  0  0  0  0  0  0  0  0  0  0
  161.1750  204.4510  148.4860 N   0  0  0  0  0  2  0  0  0  0  0  0
  160.8330  203.0710  146.5390 N   0  0  0  0  0  0  0  0  0  0  0  0
  160.4990  201.7040  146.0960 C   0  0  0  0  0  2  0  0  0  0  0  0
  161.2060  200.6450  148.2650 C   0  0  0  0  0  2  0  0  0  0  0  0
  161.3820  200.6370  146.7460 C   0  0  0  0  0  2  0  0  0  0  0  0
  160.8760  202.0320  148.8190 C   0  0  0  0  0  2  0  0  0  0  0  0
  161.4080  203.1350  147.8970 C   0  0  2  0  0  3  0  0  0  0  0  0
  161.8320  203.5960  145.6180 C   0  0  0  0  0  2  0  0  0  0  0  0
  161.1760  204.5160  144.6020 C   0  0  0  0  0  2  0  0  0  0  0  0
  160.7880  205.8290  145.2560 C   0  0  0  0  0  1  0  0  0  0  0  0
  1 12  1  0  0  0  0
  1 11  1  0  0  0  0
  2  9  1  0  0  0  0
  2  3  1  0  0  0  0
  3  5  1  0  0  0  0
  5 11  1  0  0  0  0
  5  6  2  0  0  0  0
  6  4  1  0  0  0  0
  7  6  1  0  0  0  0
  8  3  2  0  0  0  0
  8 10  1  0  0  0  0
  9  1  2  0  0  0  0
 10  7  2  0  0  0  0
 13 16  1  1  0  0  0
 14 12  1  1  0  0  0
 14 15  1  0  0  0  0
 14 13  1  0  0  0  0
 15 13  1  0  0  0  0
 16 17  1  0  0  0  0
 17 18  1  0  0  0  0
 18 20  1  0  0  0  0
 20 21  2  0  0  0  0
 20 19  1  0  0  0  0
 22  8  1  0  0  0  0
 23 28  1  0  0  0  0
 24 23  1  0  0  0  0
 24 26  1  0  0  0  0
 25 27  1  0  0  0  0
 26 25  1  0  0  0  0
 28 22  1  1  0  0  0
 28 27  1  0  0  0  0
 29 23  1  0  0  0  0
 30 31  1  0  0  0  0
 30 29  1  0  0  0  0
M  END
>  <MODEL>
5

>  <REMARK>
 VINA RESULT:      -7.2      3.999      8.851
  Name = 
  10 active torsions:
  status: ('A' for Active; 'I' for Inactive)
    1  A    between atoms: C_1  and  C_18
    2  A    between atoms: C_2  and  C_10
    3  A    between atoms: C_3  and  C_21
    4  A    between atoms: C_3  and  C_26
    5  A    between atoms: C_6  and  C_26
    6  A    between atoms: C_10  and  N_15
    7  A    between atoms: C_11  and  C_18
    8  A    between atoms: C_16  and  C_21
    9  A    between atoms: C_22  and  N_31
   10  A    between atoms: C_28  and  N_31
                            x       y       z     vdW  Elec       q    Type
                         _______ _______ _______ _____ _____    ______ ____

>  <TORSDO>
F 10

$$$$
=
 OpenBabel11072412393D

 31 34  0  0  1  0  0  0  0  0999 V2000
  161.6170  204.7430  151.2440 C   0  0  0  0  0  0  0  0  0  0  0  0
  161.5820  206.6800  152.7500 C   0  0  0  0  0  2  0  0  0  0  0  0
  161.7700  207.5660  151.5430 C   0  0  0  0  0  0  0  0  0  0  0  0
  161.9660  207.2980  147.8280 N   0  0  0  0  0  1  0  0  0  0  0  0
  161.8000  207.0070  150.2580 C   0  0  0  0  0  0  0  0  0  0  0  0
  161.9310  207.8440  149.1430 C   0  0  0  0  0  0  0  0  0  0  0  0
  162.0280  209.1890  149.3140 N   0  0  0  0  0  0  0  0  0  0  0  0
  161.8670  208.9580  151.6950 C   0  0  0  0  0  0  0  0  0  0  0  0
  161.5890  205.2450  152.4410 N   0  0  0  0  0  0  0  0  0  0  0  0
  161.9990  209.7560  150.5490 C   0  0  0  0  0  3  0  0  0  0  0  0
  161.7100  205.5920  150.1000 N   0  0  0  0  0  2  0  0  0  0  0  0
  161.6130  203.2660  151.0640 C   0  0  0  0  0  2  0  0  0  0  0  0
  160.0970  202.1040  149.3590 C   0  0  2  0  0  3  0  0  0  0  0  0
  160.2130  202.7890  150.6850 C   0  0  1  0  0  3  0  0  0  0  0  0
  160.2190  201.3880  150.5660 O   0  0  0  0  0  0  0  0  0  0  0  0
  161.3950  201.9760  148.5650 C   0  0  0  0  0  2  0  0  0  0  0  0
  161.2000  202.4740  147.1440 C   0  0  0  0  0  2  0  0  0  0  0  0
  161.6300  203.9250  147.0250 C   0  0  0  0  0  2  0  0  0  0  0  0
  160.6840  203.8070  144.7250 O   0  0  0  0  0  0  0  0  0  0  0  0
  161.6220  204.3400  145.5970 C   0  0  0  0  0  0  0  0  0  0  0  0
  162.4470  205.1970  145.1860 O   0  0  0  0  0  1  0  0  0  0  0  0
  161.8230  209.5460  153.0040 N   0  0  0  0  0  2  0  0  0  0  0  0
  160.5030  211.4730  153.6050 N   0  0  0  0  0  0  0  0  0  0  0  0
  159.6960  212.0700  154.6860 C   0  0  0  0  0  2  0  0  0  0  0  0
  159.2640  209.8640  155.8130 C   0  0  0  0  0  2  0  0  0  0  0  0
  158.6240  211.1200  155.2200 C   0  0  0  0  0  2  0  0  0  0  0  0
  160.5760  209.4810  155.1240 C   0  0  0  0  0  2  0  0  0  0  0  0
  160.6130  210.0030  153.6830 C   0  0  2  0  0  3  0  0  0  0  0  0
  159.8480  211.7940  152.3430 C   0  0  0  0  0  2  0  0  0  0  0  0
  159.3840  213.2420  152.3470 C   0  0  0  0  0  2  0  0  0  0  0  0
  158.2190  213.4210  151.3930 C   0  0  0  0  0  1  0  0  0  0  0  0
  1  9  2  0  0  0  0
  3  8  1  0  0  0  0
  3  2  1  0  0  0  0
  4  6  1  0  0  0  0
  5  3  2  0  0  0  0
  6  7  2  0  0  0  0
  6  5  1  0  0  0  0
  7 10  1  0  0  0  0
  8 22  1  0  0  0  0
  9  2  1  0  0  0  0
 10  8  2  0  0  0  0
 11  5  1  0  0  0  0
 11  1  1  0  0  0  0
 12  1  1  0  0  0  0
 13 16  1  6  0  0  0
 13 15  1  0  0  0  0
 13 14  1  0  0  0  0
 14 12  1  6  0  0  0
 15 14  1  0  0  0  0
 17 16  1  0  0  0  0
 18 17  1  0  0  0  0
 19 20  2  0  0  0  0
 20 18  1  0  0  0  0
 21 20  1  0  0  0  0
 23 28  1  0  0  0  0
 23 24  1  0  0  0  0
 24 26  1  0  0  0  0
 26 25  1  0  0  0  0
 27 25  1  0  0  0  0
 28 22  1  1  0  0  0
 28 27  1  0  0  0  0
 29 30  1  0  0  0  0
 29 23  1  0  0  0  0
 31 30  1  0  0  0  0
M  END
>  <MODEL>
6

>  <REMARK>
 VINA RESULT:      -7.1      1.920      3.974
  Name = 
  10 active torsions:
  status: ('A' for Active; 'I' for Inactive)
    1  A    between atoms: C_1  and  C_18
    2  A    between atoms: C_2  and  C_10
    3  A    between atoms: C_3  and  C_21
    4  A    between atoms: C_3  and  C_26
    5  A    between atoms: C_6  and  C_26
    6  A    between atoms: C_10  and  N_15
    7  A    between atoms: C_11  and  C_18
    8  A    between atoms: C_16  and  C_21
    9  A    between atoms: C_22  and  N_31
   10  A    between atoms: C_28  and  N_31
                            x       y       z     vdW  Elec       q    Type
                         _______ _______ _______ _____ _____    ______ ____

>  <TORSDO>
F 10

$$$$
=
 OpenBabel11072412393D

 31 34  0  0  1  0  0  0  0  0999 V2000
  160.8870  206.9410  153.4970 C   0  0  0  0  0  0  0  0  0  0  0  0
  161.2330  205.4220  151.6020 C   0  0  0  0  0  2  0  0  0  0  0  0
  161.5150  206.6300  150.7420 C   0  0  0  0  0  0  0  0  0  0  0  0
  161.8700  210.3280  151.0730 N   0  0  0  0  0  1  0  0  0  0  0  0
  161.5370  207.9100  151.3130 C   0  0  0  0  0  0  0  0  0  0  0  0
  161.8440  209.0190  150.5140 C   0  0  0  0  0  0  0  0  0  0  0  0
  162.1150  208.8460  149.1930 N   0  0  0  0  0  0  0  0  0  0  0  0
  161.8030  206.4760  149.3770 C   0  0  0  0  0  0  0  0  0  0  0  0
  160.8610  205.7490  152.9830 N   0  0  0  0  0  0  0  0  0  0  0  0
  162.1010  207.6160  148.6160 C   0  0  0  0  0  3  0  0  0  0  0  0
  161.2360  208.0710  152.6990 N   0  0  0  0  0  2  0  0  0  0  0  0
  160.4910  207.1400  154.9180 C   0  0  0  0  0  2  0  0  0  0  0  0
  161.1590  209.2520  156.2010 C   0  0  2  0  0  3  0  0  0  0  0  0
  161.5730  207.9200  155.6580 C   0  0  1  0  0  3  0  0  0  0  0  0
  161.1830  208.0920  156.9990 O   0  0  0  0  0  0  0  0  0  0  0  0
  159.7090  209.6510  155.9380 C   0  0  0  0  0  2  0  0  0  0  0  0
  159.5980  211.1520  155.7420 C   0  0  0  0  0  2  0  0  0  0  0  0
  160.4190  211.5950  154.5430 C   0  0  0  0  0  2  0  0  0  0  0  0
  159.3320  213.2650  153.0500 O   0  0  0  0  0  1  0  0  0  0  0  0
  159.5170  211.9380  153.4100 C   0  0  0  0  0  0  0  0  0  0  0  0
  158.9460  211.0240  152.7610 O   0  0  0  0  0  0  0  0  0  0  0  0
  161.7980  205.1690  148.7810 N   0  0  0  0  0  2  0  0  0  0  0  0
  161.5750  203.4510  147.1030 N   0  0  0  0  0  0  0  0  0  0  0  0
  161.5810  203.2030  145.6500 C   0  0  0  0  0  2  0  0  0  0  0  0
  161.0410  205.5900  145.0680 C   0  0  0  0  0  2  0  0  0  0  0  0
  160.6320  204.1280  144.8860 C   0  0  0  0  0  2  0  0  0  0  0  0
  161.7010  205.8600  146.4220 C   0  0  0  0  0  2  0  0  0  0  0  0
  161.2410  204.8410  147.4710 C   0  0  2  0  0  3  0  0  0  0  0  0
  160.5570  202.5890  147.6890 C   0  0  0  0  0  2  0  0  0  0  0  0
  161.2060  201.3860  148.3510 C   0  0  0  0  0  2  0  0  0  0  0  0
  160.8310  201.3290  149.8200 C   0  0  0  0  0  1  0  0  0  0  0  0
  1 12  1  0  0  0  0
  2  9  1  0  0  0  0
  3  5  1  0  0  0  0
  3  2  1  0  0  0  0
  5 11  1  0  0  0  0
  6  4  1  0  0  0  0
  6  5  2  0  0  0  0
  7  6  1  0  0  0  0
  8  3  2  0  0  0  0
  9  1  2  0  0  0  0
 10  7  2  0  0  0  0
 10  8  1  0  0  0  0
 11  1  1  0  0  0  0
 13 16  1  6  0  0  0
 13 15  1  0  0  0  0
 14 12  1  6  0  0  0
 14 13  1  0  0  0  0
 14 15  1  0  0  0  0
 17 16  1  0  0  0  0
 18 17  1  0  0  0  0
 19 20  1  0  0  0  0
 20 18  1  0  0  0  0
 21 20  2  0  0  0  0
 22  8  1  0  0  0  0
 23 28  1  0  0  0  0
 23 29  1  0  0  0  0
 24 23  1  0  0  0  0
 25 27  1  0  0  0  0
 26 25  1  0  0  0  0
 26 24  1  0  0  0  0
 27 28  1  0  0  0  0
 28 22  1  1  0  0  0
 29 30  1  0  0  0  0
 30 31  1  0  0  0  0
M  END
>  <MODEL>
7

>  <REMARK>
 VINA RESULT:      -7.1      4.153      9.606
  Name = 
  10 active torsions:
  status: ('A' for Active; 'I' for Inactive)
    1  A    between atoms: C_1  and  C_18
    2  A    between atoms: C_2  and  C_10
    3  A    between atoms: C_3  and  C_21
    4  A    between atoms: C_3  and  C_26
    5  A    between atoms: C_6  and  C_26
    6  A    between atoms: C_10  and  N_15
    7  A    between atoms: C_11  and  C_18
    8  A    between atoms: C_16  and  C_21
    9  A    between atoms: C_22  and  N_31
   10  A    between atoms: C_28  and  N_31
                            x       y       z     vdW  Elec       q    Type
                         _______ _______ _______ _____ _____    ______ ____

>  <TORSDO>
F 10

$$$$
=
 OpenBabel11072412393D

 31 34  0  0  1  0  0  0  0  0999 V2000
  161.8840  209.8880  149.5610 C   0  0  0  0  0  0  0  0  0  0  0  0
  161.3680  207.7500  148.4720 C   0  0  0  0  0  2  0  0  0  0  0  0
  161.2740  207.1250  149.8430 C   0  0  0  0  0  0  0  0  0  0  0  0
  161.4270  208.1240  153.4330 N   0  0  0  0  0  1  0  0  0  0  0  0
  161.4170  207.9200  150.9890 C   0  0  0  0  0  0  0  0  0  0  0  0
  161.2830  207.3360  152.2550 C   0  0  0  0  0  0  0  0  0  0  0  0
  161.0170  206.0080  152.3640 N   0  0  0  0  0  0  0  0  0  0  0  0
  160.9940  205.7560  149.9790 C   0  0  0  0  0  0  0  0  0  0  0  0
  161.7550  209.1660  148.4890 N   0  0  0  0  0  0  0  0  0  0  0  0
  160.8720  205.2170  151.2680 C   0  0  0  0  0  3  0  0  0  0  0  0
  161.7090  209.3100  150.8540 N   0  0  0  0  0  2  0  0  0  0  0  0
  162.2740  211.3190  149.4420 C   0  0  0  0  0  2  0  0  0  0  0  0
  160.7650  213.1280  148.4400 C   0  0  2  0  0  3  0  0  0  0  0  0
  161.6360  211.9340  148.2000 C   0  0  1  0  0  3  0  0  0  0  0  0
  162.1100  213.2490  148.0410 O   0  0  0  0  0  0  0  0  0  0  0  0
  160.6320  213.5670  149.8970 C   0  0  0  0  0  2  0  0  0  0  0  0
  159.2230  213.3110  150.4020 C   0  0  0  0  0  2  0  0  0  0  0  0
  159.1760  213.4020  151.9170 C   0  0  0  0  0  2  0  0  0  0  0  0
  160.7370  211.7460  152.9260 O   0  0  0  0  0  1  0  0  0  0  0  0
  159.4520  212.0690  152.5140 C   0  0  0  0  0  0  0  0  0  0  0  0
  158.5160  211.2430  152.6730 O   0  0  0  0  0  0  0  0  0  0  0  0
  160.8300  204.9330  148.8140 N   0  0  0  0  0  2  0  0  0  0  0  0
  160.9710  203.0250  147.3460 N   0  0  0  0  0  0  0  0  0  0  0  0
  160.7760  201.5650  147.2750 C   0  0  0  0  0  2  0  0  0  0  0  0
  160.9920  201.2430  149.7600 C   0  0  0  0  0  2  0  0  0  0  0  0
  161.5090  200.8130  148.3870 C   0  0  0  0  0  2  0  0  0  0  0  0
  160.5140  202.6970  149.7880 C   0  0  0  0  0  2  0  0  0  0  0  0
  161.2190  203.5290  148.7110 C   0  0  2  0  0  3  0  0  0  0  0  0
  162.1430  203.3490  146.5430 C   0  0  0  0  0  2  0  0  0  0  0  0
  161.7560  204.2730  145.4000 C   0  0  0  0  0  2  0  0  0  0  0  0
  162.4580  205.6100  145.5470 C   0  0  0  0  0  1  0  0  0  0  0  0
  1 11  1  0  0  0  0
  2  9  1  0  0  0  0
  2  3  1  0  0  0  0
  3  8  2  0  0  0  0
  3  5  1  0  0  0  0
  5  6  2  0  0  0  0
  6  7  1  0  0  0  0
  6  4  1  0  0  0  0
  8 10  1  0  0  0  0
  9  1  2  0  0  0  0
 10  7  2  0  0  0  0
 11  5  1  0  0  0  0
 12  1  1  0  0  0  0
 13 16  1  1  0  0  0
 14 13  1  0  0  0  0
 14 12  1  1  0  0  0
 15 14  1  0  0  0  0
 15 13  1  0  0  0  0
 16 17  1  0  0  0  0
 17 18  1  0  0  0  0
 18 20  1  0  0  0  0
 20 21  2  0  0  0  0
 20 19  1  0  0  0  0
 22  8  1  0  0  0  0
 23 28  1  0  0  0  0
 24 23  1  0  0  0  0
 24 26  1  0  0  0  0
 25 27  1  0  0  0  0
 26 25  1  0  0  0  0
 28 22  1  6  0  0  0
 28 27  1  0  0  0  0
 29 23  1  0  0  0  0
 30 31  1  0  0  0  0
 30 29  1  0  0  0  0
M  END
>  <MODEL>
8

>  <REMARK>
 VINA RESULT:      -7.1      4.228      8.533
  Name = 
  10 active torsions:
  status: ('A' for Active; 'I' for Inactive)
    1  A    between atoms: C_1  and  C_18
    2  A    between atoms: C_2  and  C_10
    3  A    between atoms: C_3  and  C_21
    4  A    between atoms: C_3  and  C_26
    5  A    between atoms: C_6  and  C_26
    6  A    between atoms: C_10  and  N_15
    7  A    between atoms: C_11  and  C_18
    8  A    between atoms: C_16  and  C_21
    9  A    between atoms: C_22  and  N_31
   10  A    between atoms: C_28  and  N_31
                            x       y       z     vdW  Elec       q    Type
                         _______ _______ _______ _____ _____    ______ ____

>  <TORSDO>
F 10

$$$$
=
 OpenBabel11072412393D

 31 34  0  0  1  0  0  0  0  0999 V2000
  162.1360  210.7270  149.1250 C   0  0  0  0  0  0  0  0  0  0  0  0
  161.5740  208.3960  148.6010 C   0  0  0  0  0  2  0  0  0  0  0  0
  161.5160  208.1240  150.0850 C   0  0  0  0  0  0  0  0  0  0  0  0
  161.7820  209.9590  153.3200 N   0  0  0  0  0  1  0  0  0  0  0  0
  161.6990  209.1700  151.0000 C   0  0  0  0  0  0  0  0  0  0  0  0
  161.5980  208.9120  152.3730 C   0  0  0  0  0  0  0  0  0  0  0  0
  161.3260  207.6540  152.8070 N   0  0  0  0  0  0  0  0  0  0  0  0
  161.2320  206.8320  150.5570 C   0  0  0  0  0  0  0  0  0  0  0  0
  161.9700  209.7690  148.2640 N   0  0  0  0  0  0  0  0  0  0  0  0
  161.1440  206.6230  151.9410 C   0  0  0  0  0  3  0  0  0  0  0  0
  161.9960  210.4820  150.5240 N   0  0  0  0  0  2  0  0  0  0  0  0
  162.5320  212.0810  148.6530 C   0  0  0  0  0  2  0  0  0  0  0  0
  161.2160  213.6190  147.0850 C   0  0  2  0  0  3  0  0  0  0  0  0
  161.2910  212.9370  148.4150 C   0  0  1  0  0  3  0  0  0  0  0  0
  160.5590  212.4000  147.3410 O   0  0  0  0  0  0  0  0  0  0  0  0
  162.3940  213.3670  146.1450 C   0  0  0  0  0  2  0  0  0  0  0  0
  162.0510  213.8090  144.7340 C   0  0  0  0  0  2  0  0  0  0  0  0
  162.8810  213.0430  143.7190 C   0  0  0  0  0  2  0  0  0  0  0  0
  160.7170  211.9700  143.1160 O   0  0  0  0  0  1  0  0  0  0  0  0
  161.9890  212.3720  142.7360 C   0  0  0  0  0  0  0  0  0  0  0  0
  162.3770  212.1950  141.5520 O   0  0  0  0  0  0  0  0  0  0  0  0
  161.0270  205.7540  149.6300 N   0  0  0  0  0  2  0  0  0  0  0  0
  160.7700  203.5030  148.8050 N   0  0  0  0  0  0  0  0  0  0  0  0
  160.4250  202.1250  149.2010 C   0  0  0  0  0  2  0  0  0  0  0  0
  160.9630  202.5070  151.6280 C   0  0  0  0  0  2  0  0  0  0  0  0
  161.2340  201.6330  150.4020 C   0  0  0  0  0  2  0  0  0  0  0  0
  160.6380  203.9580  151.2650 C   0  0  0  0  0  2  0  0  0  0  0  0
  161.2590  204.3410  149.9170 C   0  0  2  0  0  3  0  0  0  0  0  0
  161.8390  203.4200  147.8190 C   0  0  0  0  0  2  0  0  0  0  0  0
  161.4710  204.2140  146.5770 C   0  0  0  0  0  2  0  0  0  0  0  0
  162.7220  204.7590  145.9130 C   0  0  0  0  0  1  0  0  0  0  0  0
  1 11  1  0  0  0  0
  2  3  1  0  0  0  0
  3  8  2  0  0  0  0
  3  5  1  0  0  0  0
  5  6  2  0  0  0  0
  6  7  1  0  0  0  0
  6  4  1  0  0  0  0
  8 10  1  0  0  0  0
  9  2  1  0  0  0  0
  9  1  2  0  0  0  0
 10  7  2  0  0  0  0
 11  5  1  0  0  0  0
 12  1  1  0  0  0  0
 13 16  1  6  0  0  0
 13 15  1  0  0  0  0
 13 14  1  0  0  0  0
 14 12  1  6  0  0  0
 15 14  1  0  0  0  0
 17 16  1  0  0  0  0
 18 17  1  0  0  0  0
 20 19  1  0  0  0  0
 20 18  1  0  0  0  0
 21 20  2  0  0  0  0
 22  8  1  0  0  0  0
 23 24  1  0  0  0  0
 23 28  1  0  0  0  0
 24 26  1  0  0  0  0
 26 25  1  0  0  0  0
 27 25  1  0  0  0  0
 28 22  1  6  0  0  0
 28 27  1  0  0  0  0
 29 23  1  0  0  0  0
 30 29  1  0  0  0  0
 31 30  1  0  0  0  0
M  END
>  <MODEL>
9

>  <REMARK>
 VINA RESULT:      -7.1      4.149      8.084
  Name = 
  10 active torsions:
  status: ('A' for Active; 'I' for Inactive)
    1  A    between atoms: C_1  and  C_18
    2  A    between atoms: C_2  and  C_10
    3  A    between atoms: C_3  and  C_21
    4  A    between atoms: C_3  and  C_26
    5  A    between atoms: C_6  and  C_26
    6  A    between atoms: C_10  and  N_15
    7  A    between atoms: C_11  and  C_18
    8  A    between atoms: C_16  and  C_21
    9  A    between atoms: C_22  and  N_31
   10  A    between atoms: C_28  and  N_31
                            x       y       z     vdW  Elec       q    Type
                         _______ _______ _______ _____ _____    ______ ____

>  <TORSDO>
F 10

$$$$
