=
 OpenBabel11072415063D

 64 72  0  0  1  0  0  0  0  0999 V2000
  162.0970  206.8350  150.3680 C   0  0  1  0  0  3  0  0  0  0  0  0
  162.4540  206.8850  152.9740 C   0  0  2  0  0  3  0  0  0  0  0  0
  160.9130  210.9340  155.2520 F   0  0  0  0  0  0  0  0  0  0  0  0
  160.9020  210.9890  152.8880 C   0  0  1  0  0  3  0  0  0  0  0  0
  160.5820  211.6890  151.5340 C   0  0  1  0  0  3  0  0  0  0  0  0
  158.6750  213.9150  148.7440 C   0  0  0  0  0  3  0  0  0  0  0  0
  163.1250  209.8500  147.2520 C   0  0  0  0  0  1  0  0  0  0  0  0
  162.7990  209.1750  149.6560 C   0  0  1  0  0  3  0  0  0  0  0  0
  162.0400  207.9010  149.2730 C   0  0  0  0  0  2  0  0  0  0  0  0
  159.9370  213.6620  149.1180 C   0  0  0  0  0  0  0  0  0  0  0  0
  162.3200  213.3710  148.6660 O   0  0  0  0  0  1  0  0  0  0  0  0
  160.9740  206.5840  152.7830 C   0  0  1  0  0  3  0  0  0  0  0  0
  161.7050  207.4330  151.7510 C   0  0  2  0  0  0  0  0  0  0  0  0
  160.1950  211.4360  154.1850 C   0  0  0  0  0  0  0  0  0  0  0  0
  161.6530  208.9290  151.8490 C   0  0  0  0  0  0  0  0  0  0  0  0
  162.5870  210.2740  148.6130 C   0  0  2  0  0  3  0  0  0  0  0  0
  159.1450  211.6310  151.0070 C   0  0  1  0  0  3  0  0  0  0  0  0
  160.9430  209.5290  152.7600 N   0  0  0  0  0  0  0  0  0  0  0  0
  161.4740  214.4100  150.8770 O   0  0  0  0  0  1  0  0  0  0  0  0
  158.7690  210.9000  154.2910 C   0  0  0  0  0  2  0  0  0  0  0  0
  160.8480  211.8160  147.5640 C   0  0  0  0  0  2  0  0  0  0  0  0
  157.8390  211.4660  153.2350 C   0  0  0  0  0  2  0  0  0  0  0  0
  162.3860  209.6770  150.9260 O   0  0  0  0  0  0  0  0  0  0  0  0
  160.1920  212.8140  154.2950 F   0  0  0  0  0  0  0  0  0  0  0  0
  161.1080  210.6700  148.5290 C   0  0  0  0  0  2  0  0  0  0  0  0
  158.1540  210.8430  151.8810 C   0  0  0  0  0  2  0  0  0  0  0  0
  161.0280  213.2190  148.1540 C   0  0  1  0  0  3  0  0  0  0  0  0
  159.7040  212.9190  151.6190 C   0  0  2  0  0  3  0  0  0  0  0  0
  160.1870  213.9560  150.5870 C   0  0  2  0  0  3  0  0  0  0  0  0
  156.0600  214.4520  146.4150 O   0  0  0  0  0  0  0  0  0  0  0  0
  156.2740  212.5050  149.3450 O   0  0  0  0  0  1  0  0  0  0  0  0
  156.6200  213.9230  147.4080 C   0  0  0  0  0  0  0  0  0  0  0  0
  155.8030  213.4240  148.4730 N   0  0  0  0  0  2  0  0  0  0  0  0
  158.0530  213.8080  147.4470 N   0  0  0  0  0  0  0  0  0  0  0  0
  160.6570  214.3700  144.8180 C   0  0  0  0  0  3  0  0  0  0  0  0
  158.9360  212.9410  143.9150 C   0  0  0  0  0  3  0  0  0  0  0  0
  160.1480  213.6220  143.7450 C   0  0  0  0  0  0  0  0  0  0  0  0
  158.7730  213.7260  146.2050 C   0  0  0  0  0  0  0  0  0  0  0  0
  156.9640  212.2360  145.2560 C   0  0  0  0  0  1  0  0  0  0  0  0
  159.9800  214.4220  146.0400 C   0  0  0  0  0  3  0  0  0  0  0  0
  158.2380  212.9970  145.1230 C   0  0  0  0  0  0  0  0  0  0  0  0
  162.1310  214.2450  142.3600 C   0  0  0  0  0  1  0  0  0  0  0  0
  160.8610  213.5360  142.4910 N   0  0  0  0  0  0  0  0  0  0  0  0
  160.3490  212.7640  141.3390 C   0  0  2  0  0  0  0  0  0  0  0  0
  161.2570  212.9900  140.1440 C   0  0  0  0  0  1  0  0  0  0  0  0
  159.0650  213.2280  141.0010 O   0  0  0  0  0  1  0  0  0  0  0  0
  160.3830  211.3680  141.6310 O   0  0  0  0  0  0  0  0  0  0  0  0
  161.3050  210.6750  140.8300 C   0  0  0  0  0  1  0  0  0  0  0  0
  162.0180  204.4070  149.7800 N   0  0  0  0  0  2  0  0  0  0  0  0
  161.5400  203.6920  148.6610 N   0  0  0  0  0  2  0  0  0  0  0  0
  160.6020  205.8850  148.5580 C   0  0  0  0  0  2  0  0  0  0  0  0
  160.4870  204.4870  148.0320 C   0  0  1  0  0  3  0  0  0  0  0  0
  161.2480  205.6440  149.8860 C   0  0  2  0  0  3  0  0  0  0  0  0
  160.6250  204.4570  146.5490 C   0  0  0  0  0  0  0  0  0  0  0  0
  161.1100  203.4410  145.9880 O   0  0  0  0  0  1  0  0  0  0  0  0
  160.2400  205.5500  145.7790 O   0  0  0  0  0  0  0  0  0  0  0  0
  163.2560  205.7090  152.6660 N   0  0  0  0  0  2  0  0  0  0  0  0
  163.0300  203.3110  152.2900 C   0  0  0  0  0  2  0  0  0  0  0  0
  161.1590  201.7210  151.7290 C   0  0  0  0  0  2  0  0  0  0  0  0
  160.0440  202.7250  151.9820 C   0  0  0  0  0  2  0  0  0  0  0  0
  161.0640  204.7460  153.1120 C   0  0  2  0  0  3  0  0  0  0  0  0
  162.3320  204.6690  152.2470 C   0  0  1  0  0  3  0  0  0  0  0  0
  162.4340  202.3890  151.2360 C   0  0  0  0  0  2  0  0  0  0  0  0
  160.2910  203.4440  153.3010 C   0  0  0  0  0  2  0  0  0  0  0  0
  1  9  1  6  0  0  0
  1 13  1  0  0  0  0
  2 57  1  6  0  0  0
  4 18  1  6  0  0  0
  4 14  1  0  0  0  0
  5 28  1  0  0  0  0
  5  4  1  0  0  0  0
  6 10  2  0  0  0  0
  7 16  1  0  0  0  0
  8 23  1  0  0  0  0
  9  8  1  0  0  0  0
 10 29  1  0  0  0  0
 12  2  1  0  0  0  0
 12 61  1  0  0  0  0
 13 15  1  0  0  0  0
 13 12  1  0  0  0  0
 13  2  1  0  0  0  0
 14 20  1  0  0  0  0
 14 24  1  0  0  0  0
 14  3  1  0  0  0  0
 15 18  2  0  0  0  0
 16  8  1  0  0  0  0
 17  5  1  0  0  0  0
 17 28  1  0  0  0  0
 17 26  1  0  0  0  0
 21 27  1  0  0  0  0
 21 25  1  0  0  0  0
 22 20  1  0  0  0  0
 23 15  1  0  0  0  0
 25 16  1  0  0  0  0
 26 22  1  0  0  0  0
 27 11  1  0  0  0  0
 27 10  1  0  0  0  0
 29 19  1  0  0  0  0
 29 28  1  0  0  0  0
 30 32  2  0  0  0  0
 32 34  1  0  0  0  0
 32 33  1  0  0  0  0
 33 31  1  0  0  0  0
 34  6  1  0  0  0  0
 35 40  1  0  0  0  0
 36 41  2  0  0  0  0
 37 36  1  0  0  0  0
 37 35  2  0  0  0  0
 38 34  1  0  0  0  0
 40 38  2  0  0  0  0
 41 39  1  0  0  0  0
 41 38  1  0  0  0  0
 42 43  1  0  0  0  0
 43 37  1  0  0  0  0
 44 47  1  0  0  0  0
 44 43  1  0  0  0  0
 45 44  1  0  0  0  0
 46 44  1  0  0  0  0
 48 47  1  0  0  0  0
 49 53  1  0  0  0  0
 50 49  1  0  0  0  0
 51 53  1  0  0  0  0
 52 51  1  0  0  0  0
 52 50  1  0  0  0  0
 53  1  1  0  0  0  0
 54 52  1  0  0  0  0
 55 54  1  0  0  0  0
 56 54  2  0  0  0  0
 59 60  1  0  0  0  0
 60 64  1  0  0  0  0
 61 64  1  0  0  0  0
 62 58  1  0  0  0  0
 62 57  1  0  0  0  0
 62 61  1  0  0  0  0
 63 59  1  0  0  0  0
 63 58  1  0  0  0  0
M  END
>  <MODEL>
1

>  <REMARK>
 VINA RESULT:       8.4      0.000      0.000
  Name = 
  9 active torsions:
  status: ('A' for Active; 'I' for Inactive)
    1  A    between atoms: C_1  and  C_53
    2  A    between atoms: C_2  and  N_43
    3  A    between atoms: O_10  and  C_20
    4  A    between atoms: C_11  and  C_37
    5  A    between atoms: C_13  and  N_39
    6  A    between atoms: C_14  and  N_54
    7  A    between atoms: C_16  and  N_54
    8  A    between atoms: C_20  and  N_39
    9  A    between atoms: N_43  and  C_51
                            x       y       z     vdW  Elec       q    Type
                         _______ _______ _______ _____ _____    ______ ____

>  <TORSDO>
F 9

$$$$
=
 OpenBabel11072415063D

 64 71  0  0  1  0  0  0  0  0999 V2000
  159.4330  213.2490  147.8740 C   0  0  1  0  0  3  0  0  0  0  0  0
  160.8110  212.2700  145.8590 C   0  0  2  0  0  3  0  0  0  0  0  0
  163.3400  208.1860  146.7990 F   0  0  0  0  0  0  0  0  0  0  0  0
  162.3550  209.2650  148.6590 C   0  0  1  0  0  3  0  0  0  0  0  0
  162.0080  209.3400  150.1760 C   0  0  1  0  0  3  0  0  0  0  0  0
  160.9810  208.1960  153.9190 C   0  0  0  0  0  3  0  0  0  0  0  0
  160.6640  214.1140  152.0680 C   0  0  0  0  0  1  0  0  0  0  0  0
  161.0560  213.0460  149.8220 C   0  0  1  0  0  3  0  0  0  0  0  0
  159.5980  213.2340  149.3940 C   0  0  0  0  0  2  0  0  0  0  0  0
  161.7990  209.0880  153.3440 C   0  0  0  0  0  0  0  0  0  0  0  0
  162.9660  211.2330  153.2700 O   0  0  0  0  0  1  0  0  0  0  0  0
  159.5810  211.3800  145.9660 C   0  0  0  0  0  2  0  0  0  0  0  0
  160.1470  212.0300  147.2220 C   0  0  2  0  0  0  0  0  0  0  0  0
  162.7340  207.9170  148.0100 C   0  0  0  0  0  0  0  0  0  0  0  0
  161.0980  211.2610  148.0910 C   0  0  0  0  0  0  0  0  0  0  0  0
  161.1650  212.8740  151.3390 C   0  0  2  0  0  3  0  0  0  0  0  0
  160.8150  208.5290  150.6910 C   0  0  1  0  0  3  0  0  0  0  0  0
  161.4070  210.0230  147.8370 N   0  0  0  0  0  0  0  0  0  0  0  0
  164.0200  209.0800  152.3020 O   0  0  0  0  0  1  0  0  0  0  0  0
  161.5170  207.0350  147.7360 C   0  0  0  0  0  2  0  0  0  0  0  0
  160.5610  211.3510  153.2920 C   0  0  0  0  0  2  0  0  0  0  0  0
  160.8200  206.5710  149.0000 C   0  0  0  0  0  2  0  0  0  0  0  0
  161.6500  211.9070  149.2000 O   0  0  0  0  0  0  0  0  0  0  0  0
  163.6470  207.2330  148.7910 F   0  0  0  0  0  0  0  0  0  0  0  0
  160.4200  211.6160  151.8010 C   0  0  0  0  0  2  0  0  0  0  0  0
  160.0510  207.7300  149.6210 C   0  0  0  0  0  2  0  0  0  0  0  0
  161.8140  210.5680  153.7000 C   0  0  1  0  0  3  0  0  0  0  0  0
  162.2510  208.0750  150.9710 C   0  0  2  0  0  3  0  0  0  0  0  0
  162.7760  208.4520  152.3700 C   0  0  2  0  0  3  0  0  0  0  0  0
  159.4770  207.6540  157.0810 O   0  0  0  0  0  0  0  0  0  0  0  0
  160.0340  205.5390  154.3160 O   0  0  0  0  0  1  0  0  0  0  0  0
  159.8250  207.3550  155.9100 C   0  0  0  0  0  0  0  0  0  0  0  0
  160.0630  205.9790  155.5930 N   0  0  0  0  0  2  0  0  0  0  0  0
  159.9550  208.3850  154.9150 N   0  0  0  0  0  0  0  0  0  0  0  0
  157.3700  211.0100  154.2540 C   0  0  0  0  0  3  0  0  0  0  0  0
  158.6990  211.6870  156.1500 C   0  0  0  0  0  3  0  0  0  0  0  0
  157.6460  211.9460  155.2630 C   0  0  0  0  0  0  0  0  0  0  0  0
  159.1600  209.5760  155.0470 C   0  0  0  0  0  0  0  0  0  0  0  0
  160.5590  210.2910  157.0280 C   0  0  0  0  0  1  0  0  0  0  0  0
  158.1160  209.8320  154.1450 C   0  0  0  0  0  3  0  0  0  0  0  0
  159.4650  210.5250  156.0430 C   0  0  0  0  0  0  0  0  0  0  0  0
  157.5480  214.4320  155.4890 C   0  0  0  0  0  1  0  0  0  0  0  0
  156.8570  213.1480  155.4020 N   0  0  0  0  0  0  0  0  0  0  0  0
  155.3800  213.1240  155.4620 C   0  0  2  0  0  0  0  0  0  0  0  0
  154.8510  212.2080  154.3750 C   0  0  0  0  0  1  0  0  0  0  0  0
  154.8830  214.4170  155.2180 O   0  0  0  0  0  1  0  0  0  0  0  0
  154.9490  212.5830  156.7100 O   0  0  0  0  0  0  0  0  0  0  0  0
  154.5080  211.2550  156.5950 C   0  0  0  0  0  1  0  0  0  0  0  0
  157.3340  212.1340  147.1000 N   0  0  0  0  0  2  0  0  0  0  0  0
  156.3550  212.4640  146.1380 N   0  0  0  0  0  2  0  0  0  0  0  0
  157.6120  214.4440  146.5820 C   0  0  0  0  0  2  0  0  0  0  0  0
  156.3440  213.9170  145.9830 C   0  0  1  0  0  3  0  0  0  0  0  0
  157.9250  213.3790  147.5840 C   0  0  2  0  0  3  0  0  0  0  0  0
  156.2320  214.2890  144.5460 C   0  0  0  0  0  0  0  0  0  0  0  0
  155.0950  214.4400  144.0270 O   0  0  0  0  0  1  0  0  0  0  0  0
  157.3710  214.4530  143.7640 O   0  0  0  0  0  0  0  0  0  0  0  0
  160.4580  213.5580  145.2770 N   0  0  0  0  0  2  0  0  0  0  0  0
  162.2530  212.6420  143.9060 C   0  0  0  0  0  2  0  0  0  0  0  0
  162.9550  212.7810  141.4910 C   0  0  0  0  0  2  0  0  0  0  0  0
  161.6710  213.4380  141.0100 C   0  0  0  0  0  2  0  0  0  0  0  0
  159.9900  213.3240  142.8980 C   0  0  0  0  0  2  0  0  0  0  0  0
  161.0670  213.6040  143.9580 C   0  0  0  0  0  3  0  0  0  0  0  0
  163.2950  213.1590  142.9240 C   0  0  0  0  0  2  0  0  0  0  0  0
  160.4700  212.7020  141.5900 C   0  0  0  0  0  2  0  0  0  0  0  0
  1  9  1  1  0  0  0
  2 57  1  6  0  0  0
  2 12  1  0  0  0  0
  2 13  1  0  0  0  0
  3 14  1  0  0  0  0
  4 18  1  6  0  0  0
  4  5  1  0  0  0  0
  5 17  1  0  0  0  0
  5 28  1  0  0  0  0
  6 34  1  0  0  0  0
  8 16  1  0  0  0  0
  9  8  1  0  0  0  0
 10 27  1  0  0  0  0
 10  6  2  0  0  0  0
 11 27  1  0  0  0  0
 12 13  1  0  0  0  0
 13  1  1  0  0  0  0
 13 15  1  0  0  0  0
 14  4  1  0  0  0  0
 14 24  1  0  0  0  0
 15 23  1  0  0  0  0
 16 25  1  0  0  0  0
 16  7  1  0  0  0  0
 17 28  1  0  0  0  0
 18 15  2  0  0  0  0
 19 29  1  0  0  0  0
 20 14  1  0  0  0  0
 20 22  1  0  0  0  0
 21 27  1  0  0  0  0
 22 26  1  0  0  0  0
 23  8  1  0  0  0  0
 25 21  1  0  0  0  0
 26 17  1  0  0  0  0
 28 29  1  0  0  0  0
 29 10  1  0  0  0  0
 31 33  1  0  0  0  0
 32 30  2  0  0  0  0
 33 32  1  0  0  0  0
 34 38  1  0  0  0  0
 34 32  1  0  0  0  0
 35 37  1  0  0  0  0
 37 43  1  0  0  0  0
 37 36  2  0  0  0  0
 38 41  2  0  0  0  0
 40 35  2  0  0  0  0
 40 38  1  0  0  0  0
 41 36  1  0  0  0  0
 41 39  1  0  0  0  0
 43 44  1  0  0  0  0
 43 42  1  0  0  0  0
 44 47  1  0  0  0  0
 45 44  1  0  0  0  0
 46 44  1  0  0  0  0
 48 47  1  0  0  0  0
 49 53  1  0  0  0  0
 50 49  1  0  0  0  0
 51 53  1  0  0  0  0
 52 50  1  0  0  0  0
 52 51  1  0  0  0  0
 53  1  1  0  0  0  0
 54 52  1  0  0  0  0
 55 54  1  0  0  0  0
 56 54  2  0  0  0  0
 58 62  1  0  0  0  0
 59 63  1  0  0  0  0
 60 59  1  0  0  0  0
 60 64  1  0  0  0  0
 61 62  1  0  0  0  0
 62 57  1  0  0  0  0
 63 58  1  0  0  0  0
 64 61  1  0  0  0  0
M  END
>  <MODEL>
2

>  <REMARK>
 VINA RESULT:       8.6      3.345     10.126
  Name = 
  9 active torsions:
  status: ('A' for Active; 'I' for Inactive)
    1  A    between atoms: C_1  and  C_53
    2  A    between atoms: C_2  and  N_43
    3  A    between atoms: O_10  and  C_20
    4  A    between atoms: C_11  and  C_37
    5  A    between atoms: C_13  and  N_39
    6  A    between atoms: C_14  and  N_54
    7  A    between atoms: C_16  and  N_54
    8  A    between atoms: C_20  and  N_39
    9  A    between atoms: N_43  and  C_51
                            x       y       z     vdW  Elec       q    Type
                         _______ _______ _______ _____ _____    ______ ____

>  <TORSDO>
F 9

$$$$
