=
 OpenBabel11072414223D

 26 28  0  0  1  0  0  0  0  0999 V2000
  160.8970  204.1460  149.2860 C   0  0  0  0  0  0  0  0  0  0  0  0
  160.7010  202.8900  150.0790 C   0  0  0  0  0  2  0  0  0  0  0  0
  161.2830  202.8950  147.2030 C   0  0  0  0  0  0  0  0  0  0  0  0
  161.2660  206.2230  148.5860 C   0  0  0  0  0  0  0  0  0  0  0  0
  160.9080  201.6970  147.8920 N   0  0  0  0  0  2  0  0  0  0  0  0
  161.6930  202.8500  146.0140 O   0  0  0  0  0  0  0  0  0  0  0  0
  160.9580  205.4560  149.7090 C   0  0  0  0  0  0  0  0  0  0  0  0
  161.4210  205.4110  147.5130 N   0  0  0  0  0  0  0  0  0  0  0  0
  161.2140  204.1510  147.9520 C   0  0  0  0  0  0  0  0  0  0  0  0
  160.1790  201.7610  149.1670 C   0  0  0  0  0  2  0  0  0  0  0  0
  162.7420  206.8000  151.6060 O   0  0  0  0  0  0  0  0  0  0  0  0
  160.6550  205.9030  151.0360 N   0  0  0  0  0  2  0  0  0  0  0  0
  161.5130  206.6940  151.8620 C   0  0  0  0  0  0  0  0  0  0  0  0
  160.9520  207.3760  153.0610 C   0  0  0  0  0  2  0  0  0  0  0  0
  161.3930  209.8830  151.2010 O   0  0  0  0  0  0  0  0  0  0  0  0
  159.8550  210.5450  152.8100 N   0  0  0  0  0  2  0  0  0  0  0  0
  160.9820  209.7670  152.3850 C   0  0  0  0  0  0  0  0  0  0  0  0
  161.5670  207.9250  155.8030 O   0  0  0  0  0  0  0  0  0  0  0  0
  161.6160  208.7330  153.2770 C   0  0  1  0  0  3  0  0  0  0  0  0
  159.7770  209.7130  155.1260 C   0  0  0  0  0  2  0  0  0  0  0  0
  159.5680  210.8950  154.1990 C   0  0  0  0  0  2  0  0  0  0  0  0
  161.5010  209.2260  155.0130 S   0  0  1  0  0  0  0  0  0  0  0  0
  161.7530  205.8220  146.1540 C   0  0  0  0  0  2  0  0  0  0  0  0
  160.4830  206.0790  145.3650 C   0  0  0  0  0  1  0  0  0  0  0  0
  161.2610  207.7140  148.5020 C   0  0  0  0  0  2  0  0  0  0  0  0
  162.5710  208.1910  148.5470 O   0  0  0  0  0  1  0  0  0  0  0  0
  1  7  1  0  0  0  0
  1  2  1  0  0  0  0
  3  5  1  0  0  0  0
  3  9  1  0  0  0  0
  4  7  2  0  0  0  0
  5 10  1  0  0  0  0
  6  3  2  0  0  0  0
  7 12  1  0  0  0  0
  8  9  1  0  0  0  0
  8  4  1  0  0  0  0
  9  1  2  0  0  0  0
 10  2  1  0  0  0  0
 11 13  2  0  0  0  0
 12 13  1  0  0  0  0
 13 14  1  0  0  0  0
 15 17  2  0  0  0  0
 16 21  1  0  0  0  0
 17 16  1  0  0  0  0
 17 19  1  0  0  0  0
 19 14  1  1  0  0  0
 19 22  1  0  0  0  0
 21 20  1  0  0  0  0
 22 20  1  0  0  0  0
 22 18  2  1  0  0  0
 23  8  1  0  0  0  0
 24 23  1  0  0  0  0
 25 26  1  0  0  0  0
 25  4  1  0  0  0  0
M  END
>  <MODEL>
1

>  <REMARK>
 VINA RESULT:      -8.1      0.000      0.000
  Name = 
  5 active torsions:
  status: ('A' for Active; 'I' for Inactive)
    1  A    between atoms: C_6  and  N_18
    2  A    between atoms: C_9  and  C_12
    3  A    between atoms: C_10  and  C_24
    4  A    between atoms: C_16  and  N_23
    5  A    between atoms: C_24  and  C_26
                            x       y       z     vdW  Elec       q    Type
                         _______ _______ _______ _____ _____    ______ ____

>  <TORSDO>
F 5

$$$$
=
 OpenBabel11072414223D

 26 28  0  0  1  0  0  0  0  0999 V2000
  161.2370  205.3520  148.4240 C   0  0  0  0  0  0  0  0  0  0  0  0
  161.3880  206.5110  147.4860 C   0  0  0  0  0  2  0  0  0  0  0  0
  161.4630  203.7140  146.6020 C   0  0  0  0  0  0  0  0  0  0  0  0
  160.8070  203.9990  150.1340 C   0  0  0  0  0  0  0  0  0  0  0  0
  161.8050  204.7910  145.7210 N   0  0  0  0  0  2  0  0  0  0  0  0
  161.3360  202.5420  146.1630 O   0  0  0  0  0  0  0  0  0  0  0  0
  160.9400  205.3390  149.7690 C   0  0  0  0  0  0  0  0  0  0  0  0
  160.9850  203.2150  149.0440 N   0  0  0  0  0  0  0  0  0  0  0  0
  161.2250  204.0460  148.0080 C   0  0  0  0  0  0  0  0  0  0  0  0
  162.2210  206.0950  146.2560 C   0  0  0  0  0  2  0  0  0  0  0  0
  162.9320  206.2330  151.7220 O   0  0  0  0  0  0  0  0  0  0  0  0
  160.8900  206.4990  150.6080 N   0  0  0  0  0  2  0  0  0  0  0  0
  161.9590  206.9760  151.4290 C   0  0  0  0  0  0  0  0  0  0  0  0
  161.9040  208.3620  151.9720 C   0  0  0  0  0  2  0  0  0  0  0  0
  160.6150  206.5760  154.2270 O   0  0  0  0  0  0  0  0  0  0  0  0
  161.5190  208.4190  155.3120 N   0  0  0  0  0  2  0  0  0  0  0  0
  160.9020  207.8000  154.1750 C   0  0  0  0  0  0  0  0  0  0  0  0
  160.8140  211.0090  151.9140 O   0  0  0  0  0  0  0  0  0  0  0  0
  160.6930  208.5420  152.8820 C   0  0  1  0  0  3  0  0  0  0  0  0
  161.7000  210.6800  154.3570 C   0  0  0  0  0  2  0  0  0  0  0  0
  161.4700  209.8490  155.6040 C   0  0  0  0  0  2  0  0  0  0  0  0
  160.3900  210.2980  153.1920 S   0  0  1  0  0  0  0  0  0  0  0  0
  160.9200  201.7590  149.0040 C   0  0  0  0  0  2  0  0  0  0  0  0
  159.4730  201.3030  149.0370 C   0  0  0  0  0  1  0  0  0  0  0  0
  160.6670  203.4690  151.5230 C   0  0  0  0  0  2  0  0  0  0  0  0
  161.9040  203.0140  151.9790 O   0  0  0  0  0  1  0  0  0  0  0  0
  1  7  1  0  0  0  0
  2  1  1  0  0  0  0
  3  9  1  0  0  0  0
  4 25  1  0  0  0  0
  5 10  1  0  0  0  0
  5  3  1  0  0  0  0
  6  3  2  0  0  0  0
  7  4  2  0  0  0  0
  7 12  1  0  0  0  0
  8  4  1  0  0  0  0
  9  1  2  0  0  0  0
  9  8  1  0  0  0  0
 10  2  1  0  0  0  0
 12 13  1  0  0  0  0
 13 11  2  0  0  0  0
 13 14  1  0  0  0  0
 16 21  1  0  0  0  0
 17 15  2  0  0  0  0
 17 16  1  0  0  0  0
 19 14  1  6  0  0  0
 19 22  1  0  0  0  0
 19 17  1  0  0  0  0
 20 21  1  0  0  0  0
 22 18  2  6  0  0  0
 22 20  1  0  0  0  0
 23 24  1  0  0  0  0
 23  8  1  0  0  0  0
 25 26  1  0  0  0  0
M  END
>  <MODEL>
2

>  <REMARK>
 VINA RESULT:      -7.9      1.673      3.421
  Name = 
  5 active torsions:
  status: ('A' for Active; 'I' for Inactive)
    1  A    between atoms: C_6  and  N_18
    2  A    between atoms: C_9  and  C_12
    3  A    between atoms: C_10  and  C_24
    4  A    between atoms: C_16  and  N_23
    5  A    between atoms: C_24  and  C_26
                            x       y       z     vdW  Elec       q    Type
                         _______ _______ _______ _____ _____    ______ ____

>  <TORSDO>
F 5

$$$$
=
 OpenBabel11072414223D

 26 28  0  0  1  0  0  0  0  0999 V2000
  161.0050  204.1870  149.7510 C   0  0  0  0  0  0  0  0  0  0  0  0
  160.8290  203.4530  151.0460 C   0  0  0  0  0  2  0  0  0  0  0  0
  161.0620  202.0970  148.4550 C   0  0  0  0  0  0  0  0  0  0  0  0
  161.4130  205.6700  148.1470 C   0  0  0  0  0  0  0  0  0  0  0  0
  160.7000  201.3870  149.6450 N   0  0  0  0  0  2  0  0  0  0  0  0
  161.3230  201.4750  147.3920 O   0  0  0  0  0  0  0  0  0  0  0  0
  161.1960  205.5310  149.5170 C   0  0  0  0  0  0  0  0  0  0  0  0
  161.3890  204.4490  147.5600 N   0  0  0  0  0  0  0  0  0  0  0  0
  161.1600  203.5550  148.5450 C   0  0  0  0  0  0  0  0  0  0  0  0
  160.1340  202.0990  150.8000 C   0  0  0  0  0  2  0  0  0  0  0  0
  163.1010  206.2030  151.6390 O   0  0  0  0  0  0  0  0  0  0  0  0
  161.0810  206.5590  150.5090 N   0  0  0  0  0  2  0  0  0  0  0  0
  162.1100  206.9490  151.4230 C   0  0  0  0  0  0  0  0  0  0  0  0
  161.9900  208.2410  152.1530 C   0  0  0  0  0  2  0  0  0  0  0  0
  160.8310  206.2040  154.2600 O   0  0  0  0  0  0  0  0  0  0  0  0
  161.5400  208.0480  155.4800 N   0  0  0  0  0  2  0  0  0  0  0  0
  161.0040  207.4500  154.2920 C   0  0  0  0  0  0  0  0  0  0  0  0
  160.6590  210.7750  152.2330 O   0  0  0  0  0  0  0  0  0  0  0  0
  160.7500  208.2500  153.0430 C   0  0  1  0  0  3  0  0  0  0  0  0
  161.5260  210.3730  154.6720 C   0  0  0  0  0  2  0  0  0  0  0  0
  161.3520  209.4460  155.8590 C   0  0  0  0  0  2  0  0  0  0  0  0
  160.2790  209.9470  153.4540 S   0  0  1  0  0  0  0  0  0  0  0  0
  161.5800  204.1650  146.1430 C   0  0  0  0  0  2  0  0  0  0  0  0
  163.0420  204.3350  145.7730 C   0  0  0  0  0  1  0  0  0  0  0  0
  161.4890  206.9540  147.3870 C   0  0  0  0  0  2  0  0  0  0  0  0
  162.5320  207.7330  147.8860 O   0  0  0  0  0  1  0  0  0  0  0  0
  1  2  1  0  0  0  0
  3  9  1  0  0  0  0
  3  5  1  0  0  0  0
  4  7  2  0  0  0  0
  5 10  1  0  0  0  0
  6  3  2  0  0  0  0
  7  1  1  0  0  0  0
  7 12  1  0  0  0  0
  8  4  1  0  0  0  0
  8  9  1  0  0  0  0
  9  1  2  0  0  0  0
 10  2  1  0  0  0  0
 12 13  1  0  0  0  0
 13 11  2  0  0  0  0
 13 14  1  0  0  0  0
 15 17  2  0  0  0  0
 16 21  1  0  0  0  0
 17 16  1  0  0  0  0
 19 14  1  6  0  0  0
 19 22  1  0  0  0  0
 19 17  1  0  0  0  0
 20 21  1  0  0  0  0
 22 18  2  6  0  0  0
 22 20  1  0  0  0  0
 23  8  1  0  0  0  0
 24 23  1  0  0  0  0
 25 26  1  0  0  0  0
 25  4  1  0  0  0  0
M  END
>  <MODEL>
3

>  <REMARK>
 VINA RESULT:      -7.6      1.621      2.175
  Name = 
  5 active torsions:
  status: ('A' for Active; 'I' for Inactive)
    1  A    between atoms: C_6  and  N_18
    2  A    between atoms: C_9  and  C_12
    3  A    between atoms: C_10  and  C_24
    4  A    between atoms: C_16  and  N_23
    5  A    between atoms: C_24  and  C_26
                            x       y       z     vdW  Elec       q    Type
                         _______ _______ _______ _____ _____    ______ ____

>  <TORSDO>
F 5

$$$$
=
 OpenBabel11072414223D

 26 28  0  0  1  0  0  0  0  0999 V2000
  161.0540  205.5160  149.2100 C   0  0  0  0  0  0  0  0  0  0  0  0
  160.9730  206.9740  148.8730 C   0  0  0  0  0  2  0  0  0  0  0  0
  161.6270  204.9060  146.8970 C   0  0  0  0  0  0  0  0  0  0  0  0
  160.8940  203.5010  150.1330 C   0  0  0  0  0  0  0  0  0  0  0  0
  161.7490  206.3010  146.5940 N   0  0  0  0  0  2  0  0  0  0  0  0
  161.7470  204.0400  145.9910 O   0  0  0  0  0  0  0  0  0  0  0  0
  160.7530  204.8640  150.3870 C   0  0  0  0  0  0  0  0  0  0  0  0
  161.2390  203.3150  148.8360 N   0  0  0  0  0  0  0  0  0  0  0  0
  161.3140  204.5430  148.2800 C   0  0  0  0  0  0  0  0  0  0  0  0
  161.8840  207.2930  147.6710 C   0  0  0  0  0  2  0  0  0  0  0  0
  162.6140  206.2500  152.1760 O   0  0  0  0  0  0  0  0  0  0  0  0
  160.4590  205.5130  151.6300 N   0  0  0  0  0  2  0  0  0  0  0  0
  161.3740  206.3110  152.3860 C   0  0  0  0  0  0  0  0  0  0  0  0
  160.8550  207.2020  153.4600 C   0  0  0  0  0  2  0  0  0  0  0  0
  161.3780  209.3620  151.2250 O   0  0  0  0  0  0  0  0  0  0  0  0
  159.8950  210.3390  152.7210 N   0  0  0  0  0  2  0  0  0  0  0  0
  160.9800  209.4520  152.4150 C   0  0  0  0  0  0  0  0  0  0  0  0
  161.5360  208.1460  156.0770 O   0  0  0  0  0  0  0  0  0  0  0  0
  161.5820  208.5430  153.4540 C   0  0  1  0  0  3  0  0  0  0  0  0
  159.8160  209.8860  155.1390 C   0  0  0  0  0  2  0  0  0  0  0  0
  159.6450  210.9160  154.0390 C   0  0  0  0  0  2  0  0  0  0  0  0
  161.5140  209.3080  155.0910 S   0  0  1  0  0  0  0  0  0  0  0  0
  161.4740  202.0370  148.1750 C   0  0  0  0  0  2  0  0  0  0  0  0
  160.1520  201.4090  147.7770 C   0  0  0  0  0  1  0  0  0  0  0  0
  160.8530  202.4020  151.1450 C   0  0  0  0  0  2  0  0  0  0  0  0
  162.0140  202.4330  151.9180 O   0  0  0  0  0  1  0  0  0  0  0  0
  1  7  1  0  0  0  0
  2  1  1  0  0  0  0
  3  9  1  0  0  0  0
  4  7  2  0  0  0  0
  4 25  1  0  0  0  0
  5  3  1  0  0  0  0
  5 10  1  0  0  0  0
  6  3  2  0  0  0  0
  7 12  1  0  0  0  0
  8  4  1  0  0  0  0
  9  8  1  0  0  0  0
  9  1  2  0  0  0  0
 10  2  1  0  0  0  0
 11 13  2  0  0  0  0
 12 13  1  0  0  0  0
 13 14  1  0  0  0  0
 15 17  2  0  0  0  0
 16 21  1  0  0  0  0
 17 16  1  0  0  0  0
 17 19  1  0  0  0  0
 19 14  1  1  0  0  0
 19 22  1  0  0  0  0
 21 20  1  0  0  0  0
 22 20  1  0  0  0  0
 22 18  2  1  0  0  0
 23  8  1  0  0  0  0
 24 23  1  0  0  0  0
 25 26  1  0  0  0  0
M  END
>  <MODEL>
4

>  <REMARK>
 VINA RESULT:      -7.2      1.231      2.983
  Name = 
  5 active torsions:
  status: ('A' for Active; 'I' for Inactive)
    1  A    between atoms: C_6  and  N_18
    2  A    between atoms: C_9  and  C_12
    3  A    between atoms: C_10  and  C_24
    4  A    between atoms: C_16  and  N_23
    5  A    between atoms: C_24  and  C_26
                            x       y       z     vdW  Elec       q    Type
                         _______ _______ _______ _____ _____    ______ ____

>  <TORSDO>
F 5

$$$$
=
 OpenBabel11072414223D

 26 28  0  0  1  0  0  0  0  0999 V2000
  161.3140  207.1920  151.9440 C   0  0  0  0  0  0  0  0  0  0  0  0
  160.9620  205.7690  152.2610 C   0  0  0  0  0  2  0  0  0  0  0  0
  160.8420  207.9300  154.2420 C   0  0  0  0  0  0  0  0  0  0  0  0
  161.7630  209.1410  150.9750 C   0  0  0  0  0  0  0  0  0  0  0  0
  160.6920  206.5560  154.6180 N   0  0  0  0  0  2  0  0  0  0  0  0
  160.6200  208.8500  155.0720 O   0  0  0  0  0  0  0  0  0  0  0  0
  161.6300  207.7730  150.7350 C   0  0  0  0  0  0  0  0  0  0  0  0
  161.5060  209.3970  152.2800 N   0  0  0  0  0  0  0  0  0  0  0  0
  161.2150  208.2110  152.8550 C   0  0  0  0  0  0  0  0  0  0  0  0
  161.2070  205.4820  153.7560 C   0  0  0  0  0  2  0  0  0  0  0  0
  159.7100  206.2180  149.1620 O   0  0  0  0  0  0  0  0  0  0  0  0
  161.8680  207.0560  149.5180 N   0  0  0  0  0  2  0  0  0  0  0  0
  160.8620  206.4440  148.7060 C   0  0  0  0  0  0  0  0  0  0  0  0
  161.1920  206.0400  147.3110 C   0  0  0  0  0  2  0  0  0  0  0  0
  161.5810  203.5450  149.1980 O   0  0  0  0  0  0  0  0  0  0  0  0
  160.7750  202.7060  147.1890 N   0  0  0  0  0  2  0  0  0  0  0  0
  161.5290  203.6620  147.9460 C   0  0  0  0  0  0  0  0  0  0  0  0
  162.7040  205.8270  144.8880 O   0  0  0  0  0  0  0  0  0  0  0  0
  162.1650  204.8650  147.3010 C   0  0  1  0  0  3  0  0  0  0  0  0
  161.2190  203.6710  144.9680 C   0  0  0  0  0  2  0  0  0  0  0  0
  160.9990  202.4070  145.7760 C   0  0  0  0  0  2  0  0  0  0  0  0
  162.6830  204.4860  145.6100 S   0  0  1  0  0  0  0  0  0  0  0  0
  161.5320  210.7030  152.9290 C   0  0  0  0  0  2  0  0  0  0  0  0
  160.1860  211.3850  152.7740 C   0  0  0  0  0  1  0  0  0  0  0  0
  162.2760  210.1630  150.0150 C   0  0  0  0  0  2  0  0  0  0  0  0
  161.9540  209.7860  148.7120 O   0  0  0  0  0  1  0  0  0  0  0  0
  1  2  1  0  0  0  0
  1  9  2  0  0  0  0
  2 10  1  0  0  0  0
  3  5  1  0  0  0  0
  3  6  2  0  0  0  0
  4  8  1  0  0  0  0
  7  4  2  0  0  0  0
  7  1  1  0  0  0  0
  8  9  1  0  0  0  0
  8 23  1  0  0  0  0
  9  3  1  0  0  0  0
 10  5  1  0  0  0  0
 12  7  1  0  0  0  0
 13 11  2  0  0  0  0
 13 12  1  0  0  0  0
 14 13  1  0  0  0  0
 16 17  1  0  0  0  0
 17 15  2  0  0  0  0
 19 14  1  6  0  0  0
 19 17  1  0  0  0  0
 20 22  1  0  0  0  0
 20 21  1  0  0  0  0
 21 16  1  0  0  0  0
 22 18  2  6  0  0  0
 22 19  1  0  0  0  0
 24 23  1  0  0  0  0
 25  4  1  0  0  0  0
 26 25  1  0  0  0  0
M  END
>  <MODEL>
5

>  <REMARK>
 VINA RESULT:      -6.4      2.863      7.418
  Name = 
  5 active torsions:
  status: ('A' for Active; 'I' for Inactive)
    1  A    between atoms: C_6  and  N_18
    2  A    between atoms: C_9  and  C_12
    3  A    between atoms: C_10  and  C_24
    4  A    between atoms: C_16  and  N_23
    5  A    between atoms: C_24  and  C_26
                            x       y       z     vdW  Elec       q    Type
                         _______ _______ _______ _____ _____    ______ ____

>  <TORSDO>
F 5

$$$$
=
 OpenBabel11072414223D

 26 28  0  0  1  0  0  0  0  0999 V2000
  160.1960  210.5410  153.3910 C   0  0  0  0  0  0  0  0  0  0  0  0
  159.7720  211.2950  152.1660 C   0  0  0  0  0  2  0  0  0  0  0  0
  159.7460  212.4640  154.8570 C   0  0  0  0  0  0  0  0  0  0  0  0
  161.0570  209.1080  154.8540 C   0  0  0  0  0  0  0  0  0  0  0  0
  159.1540  213.1370  153.7390 N   0  0  0  0  0  2  0  0  0  0  0  0
  159.8760  213.0510  155.9630 O   0  0  0  0  0  0  0  0  0  0  0  0
  160.7510  209.2850  153.5050 C   0  0  0  0  0  0  0  0  0  0  0  0
  160.7310  210.2280  155.5420 N   0  0  0  0  0  0  0  0  0  0  0  0
  160.2280  211.0990  154.6420 C   0  0  0  0  0  0  0  0  0  0  0  0
  158.7500  212.3870  152.5400 C   0  0  0  0  0  2  0  0  0  0  0  0
  162.6960  209.2970  151.3140 O   0  0  0  0  0  0  0  0  0  0  0  0
  160.8730  208.3430  152.4330 N   0  0  0  0  0  2  0  0  0  0  0  0
  161.9380  208.3050  151.4790 C   0  0  0  0  0  0  0  0  0  0  0  0
  162.1310  207.0860  150.6450 C   0  0  0  0  0  2  0  0  0  0  0  0
  161.5890  208.6980  147.9910 O   0  0  0  0  0  0  0  0  0  0  0  0
  162.2440  206.5730  147.3240 N   0  0  0  0  0  2  0  0  0  0  0  0
  161.6060  207.4660  148.2470 C   0  0  0  0  0  0  0  0  0  0  0  0
  160.5210  204.7260  150.8420 O   0  0  0  0  0  0  0  0  0  0  0  0
  161.0580  206.9900  149.5650 C   0  0  1  0  0  3  0  0  0  0  0  0
  161.8090  204.4970  148.5730 C   0  0  0  0  0  2  0  0  0  0  0  0
  161.9440  205.1480  147.2100 C   0  0  0  0  0  2  0  0  0  0  0  0
  160.4480  205.2920  149.4290 S   0  0  1  0  0  0  0  0  0  0  0  0
  160.9010  210.4460  156.9740 C   0  0  0  0  0  2  0  0  0  0  0  0
  162.3070  210.9390  157.2600 C   0  0  0  0  0  1  0  0  0  0  0  0
  161.5080  207.8390  155.5010 C   0  0  0  0  0  2  0  0  0  0  0  0
  160.4340  206.9550  155.6000 O   0  0  0  0  0  1  0  0  0  0  0  0
  1  7  1  0  0  0  0
  1  9  2  0  0  0  0
  2 10  1  0  0  0  0
  2  1  1  0  0  0  0
  3  6  2  0  0  0  0
  4 25  1  0  0  0  0
  4  8  1  0  0  0  0
  5  3  1  0  0  0  0
  7  4  2  0  0  0  0
  8 23  1  0  0  0  0
  9  3  1  0  0  0  0
  9  8  1  0  0  0  0
 10  5  1  0  0  0  0
 11 13  2  0  0  0  0
 12  7  1  0  0  0  0
 13 12  1  0  0  0  0
 14 13  1  0  0  0  0
 15 17  2  0  0  0  0
 16 17  1  0  0  0  0
 17 19  1  0  0  0  0
 19 14  1  1  0  0  0
 20 22  1  0  0  0  0
 21 16  1  0  0  0  0
 21 20  1  0  0  0  0
 22 19  1  0  0  0  0
 22 18  2  1  0  0  0
 23 24  1  0  0  0  0
 25 26  1  0  0  0  0
M  END
>  <MODEL>
6

>  <REMARK>
 VINA RESULT:      -6.0      2.611      8.394
  Name = 
  5 active torsions:
  status: ('A' for Active; 'I' for Inactive)
    1  A    between atoms: C_6  and  N_18
    2  A    between atoms: C_9  and  C_12
    3  A    between atoms: C_10  and  C_24
    4  A    between atoms: C_16  and  N_23
    5  A    between atoms: C_24  and  C_26
                            x       y       z     vdW  Elec       q    Type
                         _______ _______ _______ _____ _____    ______ ____

>  <TORSDO>
F 5

$$$$
=
 OpenBabel11072414223D

 26 28  0  0  1  0  0  0  0  0999 V2000
  161.5960  208.3990  151.6560 C   0  0  0  0  0  0  0  0  0  0  0  0
  161.8300  209.5650  150.7440 C   0  0  0  0  0  2  0  0  0  0  0  0
  161.3450  209.8540  153.6230 C   0  0  0  0  0  0  0  0  0  0  0  0
  161.4690  206.3970  152.6130 C   0  0  0  0  0  0  0  0  0  0  0  0
  161.3690  210.9870  152.7470 N   0  0  0  0  0  2  0  0  0  0  0  0
  161.3050  210.0090  154.8710 O   0  0  0  0  0  0  0  0  0  0  0  0
  161.6650  207.0480  151.3950 C   0  0  0  0  0  0  0  0  0  0  0  0
  161.3160  207.3160  153.5970 N   0  0  0  0  0  0  0  0  0  0  0  0
  161.4150  208.5280  153.0080 C   0  0  0  0  0  0  0  0  0  0  0  0
  161.1400  210.8250  151.3040 C   0  0  0  0  0  2  0  0  0  0  0  0
  159.6550  205.5850  149.8440 O   0  0  0  0  0  0  0  0  0  0  0  0
  161.8090  206.4710  150.0910 N   0  0  0  0  0  2  0  0  0  0  0  0
  160.7510  205.9060  149.3130 C   0  0  0  0  0  0  0  0  0  0  0  0
  160.9610  205.6630  147.8580 C   0  0  0  0  0  2  0  0  0  0  0  0
  161.3280  202.8140  149.1560 O   0  0  0  0  0  0  0  0  0  0  0  0
  160.6350  202.4360  146.9720 N   0  0  0  0  0  2  0  0  0  0  0  0
  161.3290  203.2090  147.9610 C   0  0  0  0  0  0  0  0  0  0  0  0
  162.5850  206.0230  145.5270 O   0  0  0  0  0  0  0  0  0  0  0  0
  161.9620  204.5350  147.6340 C   0  0  1  0  0  3  0  0  0  0  0  0
  161.1530  203.8820  145.0490 C   0  0  0  0  0  2  0  0  0  0  0  0
  160.9290  202.4650  145.5420 C   0  0  0  0  0  2  0  0  0  0  0  0
  162.5650  204.5530  145.9290 S   0  0  1  0  0  0  0  0  0  0  0  0
  161.0960  207.0440  155.0120 C   0  0  0  0  0  2  0  0  0  0  0  0
  159.6170  207.1410  155.3340 C   0  0  0  0  0  1  0  0  0  0  0  0
  161.2760  204.9300  152.8130 C   0  0  0  0  0  2  0  0  0  0  0  0
  162.1410  204.2250  151.9780 O   0  0  0  0  0  1  0  0  0  0  0  0
  1  9  2  0  0  0  0
  2 10  1  0  0  0  0
  2  1  1  0  0  0  0
  3  6  2  0  0  0  0
  4 25  1  0  0  0  0
  4  8  1  0  0  0  0
  5  3  1  0  0  0  0
  7  1  1  0  0  0  0
  7  4  2  0  0  0  0
  8 23  1  0  0  0  0
  9  8  1  0  0  0  0
  9  3  1  0  0  0  0
 10  5  1  0  0  0  0
 12  7  1  0  0  0  0
 13 11  2  0  0  0  0
 13 12  1  0  0  0  0
 14 13  1  0  0  0  0
 16 17  1  0  0  0  0
 17 15  2  0  0  0  0
 19 14  1  6  0  0  0
 19 17  1  0  0  0  0
 20 21  1  0  0  0  0
 20 22  1  0  0  0  0
 21 16  1  0  0  0  0
 22 18  2  6  0  0  0
 22 19  1  0  0  0  0
 23 24  1  0  0  0  0
 26 25  1  0  0  0  0
M  END
>  <MODEL>
7

>  <REMARK>
 VINA RESULT:      -6.0      2.850      7.974
  Name = 
  5 active torsions:
  status: ('A' for Active; 'I' for Inactive)
    1  A    between atoms: C_6  and  N_18
    2  A    between atoms: C_9  and  C_12
    3  A    between atoms: C_10  and  C_24
    4  A    between atoms: C_16  and  N_23
    5  A    between atoms: C_24  and  C_26
                            x       y       z     vdW  Elec       q    Type
                         _______ _______ _______ _____ _____    ______ ____

>  <TORSDO>
F 5

$$$$
=
 OpenBabel11072414223D

 26 28  0  0  1  0  0  0  0  0999 V2000
  161.4340  205.3220  150.9320 C   0  0  0  0  0  0  0  0  0  0  0  0
  161.5240  204.3280  152.0510 C   0  0  0  0  0  2  0  0  0  0  0  0
  160.9660  203.5680  149.2720 C   0  0  0  0  0  0  0  0  0  0  0  0
  161.5600  207.1060  149.6120 C   0  0  0  0  0  0  0  0  0  0  0  0
  160.8520  202.6270  150.3470 N   0  0  0  0  0  2  0  0  0  0  0  0
  160.8900  203.1860  148.0750 O   0  0  0  0  0  0  0  0  0  0  0  0
  161.6850  206.6770  150.9330 C   0  0  0  0  0  0  0  0  0  0  0  0
  161.2740  206.0460  148.8180 N   0  0  0  0  0  0  0  0  0  0  0  0
  161.2190  204.9650  149.6260 C   0  0  0  0  0  0  0  0  0  0  0  0
  160.6660  203.0880  151.7300 C   0  0  0  0  0  2  0  0  0  0  0  0
  159.9050  208.6560  152.1590 O   0  0  0  0  0  0  0  0  0  0  0  0
  161.9210  207.4650  152.1070 N   0  0  0  0  0  2  0  0  0  0  0  0
  160.9570  208.3000  152.7530 C   0  0  0  0  0  0  0  0  0  0  0  0
  161.2170  208.7830  154.1380 C   0  0  0  0  0  2  0  0  0  0  0  0
  160.8360  211.2780  152.2500 O   0  0  0  0  0  0  0  0  0  0  0  0
  159.8940  211.8710  154.2880 N   0  0  0  0  0  2  0  0  0  0  0  0
  160.8590  211.1570  153.5020 C   0  0  0  0  0  0  0  0  0  0  0  0
  162.6880  209.4190  156.5110 O   0  0  0  0  0  0  0  0  0  0  0  0
  161.8240  210.1820  154.1210 C   0  0  1  0  0  3  0  0  0  0  0  0
  160.6600  211.0780  156.4890 C   0  0  0  0  0  2  0  0  0  0  0  0
  160.0720  212.2270  155.6930 C   0  0  0  0  0  2  0  0  0  0  0  0
  162.2710  210.6990  155.7960 S   0  0  1  0  0  0  0  0  0  0  0  0
  161.0730  206.0730  147.3750 C   0  0  0  0  0  2  0  0  0  0  0  0
  162.3910  205.8290  146.6640 C   0  0  0  0  0  1  0  0  0  0  0  0
  161.5610  208.5210  149.1360 C   0  0  0  0  0  2  0  0  0  0  0  0
  162.4120  209.2840  149.9350 O   0  0  0  0  0  1  0  0  0  0  0  0
  1  7  1  0  0  0  0
  1  2  1  0  0  0  0
  3  9  1  0  0  0  0
  3  5  1  0  0  0  0
  4  7  2  0  0  0  0
  5 10  1  0  0  0  0
  6  3  2  0  0  0  0
  7 12  1  0  0  0  0
  8  4  1  0  0  0  0
  8  9  1  0  0  0  0
  9  1  2  0  0  0  0
 10  2  1  0  0  0  0
 11 13  2  0  0  0  0
 12 13  1  0  0  0  0
 13 14  1  0  0  0  0
 15 17  2  0  0  0  0
 16 21  1  0  0  0  0
 17 19  1  0  0  0  0
 17 16  1  0  0  0  0
 19 14  1  1  0  0  0
 19 22  1  0  0  0  0
 21 20  1  0  0  0  0
 22 20  1  0  0  0  0
 22 18  2  1  0  0  0
 23  8  1  0  0  0  0
 24 23  1  0  0  0  0
 25  4  1  0  0  0  0
 25 26  1  0  0  0  0
M  END
>  <MODEL>
8

>  <REMARK>
 VINA RESULT:      -5.8      1.725      2.079
  Name = 
  5 active torsions:
  status: ('A' for Active; 'I' for Inactive)
    1  A    between atoms: C_6  and  N_18
    2  A    between atoms: C_9  and  C_12
    3  A    between atoms: C_10  and  C_24
    4  A    between atoms: C_16  and  N_23
    5  A    between atoms: C_24  and  C_26
                            x       y       z     vdW  Elec       q    Type
                         _______ _______ _______ _____ _____    ______ ____

>  <TORSDO>
F 5

$$$$
=
 OpenBabel11072414223D

 26 28  0  0  1  0  0  0  0  0999 V2000
  160.5410  207.8500  154.4730 C   0  0  0  0  0  0  0  0  0  0  0  0
  160.2390  206.6720  155.3490 C   0  0  0  0  0  2  0  0  0  0  0  0
  160.3230  209.4300  156.3460 C   0  0  0  0  0  0  0  0  0  0  0  0
  160.8620  209.2620  152.7870 C   0  0  0  0  0  0  0  0  0  0  0  0
  160.2290  208.3110  157.2360 N   0  0  0  0  0  2  0  0  0  0  0  0
  160.1880  210.6050  156.7760 O   0  0  0  0  0  0  0  0  0  0  0  0
  160.7150  207.9130  153.1070 C   0  0  0  0  0  0  0  0  0  0  0  0
  160.7500  210.0080  153.9120 N   0  0  0  0  0  0  0  0  0  0  0  0
  160.5360  209.1440  154.9260 C   0  0  0  0  0  0  0  0  0  0  0  0
  160.6520  206.9710  156.8040 C   0  0  0  0  0  2  0  0  0  0  0  0
  163.0890  206.9480  151.6880 O   0  0  0  0  0  0  0  0  0  0  0  0
  160.8210  206.7750  152.2420 N   0  0  0  0  0  2  0  0  0  0  0  0
  162.0380  206.2550  151.7000 C   0  0  0  0  0  0  0  0  0  0  0  0
  162.0520  204.8870  151.1120 C   0  0  0  0  0  2  0  0  0  0  0  0
  160.5590  206.3110  148.7290 O   0  0  0  0  0  0  0  0  0  0  0  0
  161.3140  204.2830  147.8880 N   0  0  0  0  0  2  0  0  0  0  0  0
  160.8310  205.1040  148.9600 C   0  0  0  0  0  0  0  0  0  0  0  0
  160.9330  202.3260  151.7330 O   0  0  0  0  0  0  0  0  0  0  0  0
  160.7480  204.5980  150.3750 C   0  0  1  0  0  3  0  0  0  0  0  0
  161.5600  202.2090  149.1920 C   0  0  0  0  0  2  0  0  0  0  0  0
  161.2110  202.8260  147.8510 C   0  0  0  0  0  2  0  0  0  0  0  0
  160.3860  202.8260  150.4010 S   0  0  1  0  0  0  0  0  0  0  0  0
  160.8370  211.4610  154.0010 C   0  0  0  0  0  2  0  0  0  0  0  0
  159.4880  212.0810  153.6900 C   0  0  0  0  0  1  0  0  0  0  0  0
  161.2550  209.8190  151.4580 C   0  0  0  0  0  2  0  0  0  0  0  0
  162.6320  210.0370  151.4290 O   0  0  0  0  0  1  0  0  0  0  0  0
  1  9  2  0  0  0  0
  1  2  1  0  0  0  0
  2 10  1  0  0  0  0
  3  6  2  0  0  0  0
  3  5  1  0  0  0  0
  4  7  2  0  0  0  0
  4  8  1  0  0  0  0
  7  1  1  0  0  0  0
  8 23  1  0  0  0  0
  8  9  1  0  0  0  0
  9  3  1  0  0  0  0
 10  5  1  0  0  0  0
 11 13  2  0  0  0  0
 12  7  1  0  0  0  0
 13 12  1  0  0  0  0
 14 13  1  0  0  0  0
 15 17  2  0  0  0  0
 16 17  1  0  0  0  0
 17 19  1  0  0  0  0
 19 22  1  0  0  0  0
 19 14  1  6  0  0  0
 20 22  1  0  0  0  0
 21 16  1  0  0  0  0
 21 20  1  0  0  0  0
 22 18  2  1  0  0  0
 24 23  1  0  0  0  0
 25  4  1  0  0  0  0
 26 25  1  0  0  0  0
M  END
>  <MODEL>
9

>  <REMARK>
 VINA RESULT:      -5.8      2.580      7.560
  Name = 
  5 active torsions:
  status: ('A' for Active; 'I' for Inactive)
    1  A    between atoms: C_6  and  N_18
    2  A    between atoms: C_9  and  C_12
    3  A    between atoms: C_10  and  C_24
    4  A    between atoms: C_16  and  N_23
    5  A    between atoms: C_24  and  C_26
                            x       y       z     vdW  Elec       q    Type
                         _______ _______ _______ _____ _____    ______ ____

>  <TORSDO>
F 5

$$$$
