=
 OpenBabel11072412053D

 45 49  0  0  1  0  0  0  0  0999 V2000
  159.7140  204.5740  151.7880 O   0  0  0  0  0  1  0  0  0  0  0  0
  160.1370  211.7730  153.1350 N   0  0  0  0  0  0  0  0  0  0  0  0
  159.8390  209.2660  155.1980 C   0  0  1  0  0  3  0  0  0  0  0  0
  162.0050  205.0610  151.1400 C   0  0  1  0  0  3  0  0  0  0  0  0
  161.5550  208.7830  151.8770 N   0  0  0  0  0  0  0  0  0  0  0  0
  158.6730  207.2610  155.7590 O   0  0  0  0  0  1  0  0  0  0  0  0
  159.7940  208.0240  156.0890 C   0  0  1  0  0  3  0  0  0  0  0  0
  161.5240  207.6580  154.4320 C   0  0  2  0  0  3  0  0  0  0  0  0
  161.1820  205.3130  153.5300 C   0  0  0  0  0  2  0  0  0  0  0  0
  160.8670  206.8130  153.3420 C   0  0  2  0  0  3  0  0  0  0  0  0
  162.4010  206.5290  151.3510 C   0  0  0  0  0  2  0  0  0  0  0  0
  161.2420  207.3360  151.9330 C   0  0  2  0  0  3  0  0  0  0  0  0
  159.8830  210.5740  156.0150 C   0  0  2  0  0  3  0  0  0  0  0  0
  161.2320  210.9780  152.7680 N   0  0  0  0  0  2  0  0  0  0  0  0
  161.0500  207.2270  155.8050 C   0  0  0  0  0  2  0  0  0  0  0  0
  161.0420  204.5270  152.2230 C   0  0  1  0  0  3  0  0  0  0  0  0
  161.0830  209.1120  154.3190 C   0  0  1  0  0  3  0  0  0  0  0  0
  160.3980  212.2530  154.3800 O   0  0  0  0  0  0  0  0  0  0  0  0
  159.0090  210.5090  157.2610 C   0  0  0  0  0  1  0  0  0  0  0  0
  159.3750  211.7390  155.1800 C   0  0  0  0  0  2  0  0  0  0  0  0
  160.8190  209.5820  152.8760 C   0  0  2  0  0  3  0  0  0  0  0  0
  159.5130  214.1690  152.8390 C   0  0  0  0  0  1  0  0  0  0  0  0
  160.0610  212.8980  152.1920 C   0  0  2  0  0  3  0  0  0  0  0  0
  158.5020  213.6870  150.8280 C   0  0  0  0  0  1  0  0  0  0  0  0
  159.2720  212.5510  151.0910 O   0  0  0  0  0  0  0  0  0  0  0  0
  161.4650  204.8640  149.8330 O   0  0  0  0  0  0  0  0  0  0  0  0
  161.1690  202.2380  147.2100 C   0  0  0  0  0  0  0  0  0  0  0  0
  161.3940  201.1970  149.3890 C   0  0  0  0  0  3  0  0  0  0  0  0
  161.0070  202.1440  145.7330 C   0  0  0  0  0  1  0  0  0  0  0  0
  161.4710  202.4600  149.9850 C   0  0  0  0  0  3  0  0  0  0  0  0
  161.3950  203.6160  149.2040 C   0  0  0  0  0  0  0  0  0  0  0  0
  161.2460  203.4980  147.8110 C   0  0  0  0  0  3  0  0  0  0  0  0
  161.2410  201.0820  148.0030 C   0  0  0  0  0  0  0  0  0  0  0  0
  161.1630  199.8200  147.4250 O   0  0  0  0  0  1  0  0  0  0  0  0
  161.2630  209.3250  150.5300 C   0  0  1  0  0  3  0  0  0  0  0  0
  162.2020  211.2470  149.2190 C   0  0  0  0  0  3  0  0  0  0  0  0
  162.3810  210.2090  150.0490 C   0  0  0  0  0  3  0  0  0  0  0  0
  160.8680  211.6460  148.6650 C   0  0  0  0  0  2  0  0  0  0  0  0
  160.9640  212.9670  147.9220 C   0  0  0  0  0  2  0  0  0  0  0  0
  158.1540  212.7750  147.3940 O   0  0  0  0  0  1  0  0  0  0  0  0
  159.9290  211.8730  145.4830 O   0  0  0  0  0  0  0  0  0  0  0  0
  159.6560  214.4210  146.0220 O   0  0  0  0  0  1  0  0  0  0  0  0
  159.6540  213.0530  146.6660 P   0  0  0  0  0  0  0  0  0  0  0  0
  161.6730  208.0560  148.4480 C   0  0  0  0  0  2  0  0  0  0  0  0
  160.8940  208.2800  149.5040 C   0  0  0  0  0  3  0  0  0  0  0  0
  1 16  1  0  0  0  0
  2 18  1  0  0  0  0
  3 13  1  0  0  0  0
  3  7  1  0  0  0  0
  4 11  1  0  0  0  0
  4 16  1  0  0  0  0
  5 12  1  0  0  0  0
  5 21  1  0  0  0  0
  6  7  1  0  0  0  0
  8 15  1  0  0  0  0
 10  9  1  0  0  0  0
 10  8  1  0  0  0  0
 11 12  1  0  0  0  0
 12 10  1  0  0  0  0
 13 19  1  0  0  0  0
 14 21  1  0  0  0  0
 14  2  1  0  0  0  0
 15  7  1  0  0  0  0
 16  9  1  0  0  0  0
 17  8  1  0  0  0  0
 17  3  1  0  0  0  0
 18 20  1  0  0  0  0
 20 13  1  0  0  0  0
 21 17  1  0  0  0  0
 23 22  1  0  0  0  0
 23  2  1  0  0  0  0
 24 25  1  0  0  0  0
 25 23  1  0  0  0  0
 26  4  1  0  0  0  0
 27 32  2  0  0  0  0
 27 33  1  0  0  0  0
 28 30  1  0  0  0  0
 29 27  1  0  0  0  0
 31 26  1  0  0  0  0
 31 30  2  0  0  0  0
 32 31  1  0  0  0  0
 33 28  2  0  0  0  0
 34 33  1  0  0  0  0
 35  5  1  0  0  0  0
 36 37  2  0  0  0  0
 37 35  1  0  0  0  0
 38 36  1  0  0  0  0
 39 38  1  0  0  0  0
 41 43  2  0  0  0  0
 42 43  1  0  0  0  0
 43 40  1  0  0  0  0
 43 39  1  0  0  0  0
 44 45  2  0  0  0  0
 45 35  1  0  0  0  0
M  END
>  <MODEL>
1

>  <REMARK>
 VINA RESULT:      -5.6      0.000      0.000
  Name = 
  10 active torsions:
  status: ('A' for Active; 'I' for Inactive)
    1  A    between atoms: O_5  and  C_9
    2  A    between atoms: O_5  and  C_24
    3  A    between atoms: N_7  and  C_26
    4  A    between atoms: C_10  and  N_11
    5  A    between atoms: C_10  and  C_40
    6  A    between atoms: C_10  and  C_44
    7  A    between atoms: C_21  and  C_43
    8  A    between atoms: C_26  and  O_31
    9  A    between atoms: P_30  and  C_42
   10  A    between atoms: C_42  and  C_43
                            x       y       z     vdW  Elec       q    Type
                         _______ _______ _______ _____ _____    ______ ____

>  <TORSDO>
F 10

$$$$
=
 OpenBabel11072412053D

 45 49  0  0  1  0  0  0  0  0999 V2000
  162.8540  206.2340  153.9620 O   0  0  0  0  0  1  0  0  0  0  0  0
  161.4440  204.8220  146.9010 N   0  0  0  0  0  0  0  0  0  0  0  0
  161.4130  202.8340  149.4870 C   0  0  1  0  0  3  0  0  0  0  0  0
  160.7810  207.4540  153.6220 C   0  0  1  0  0  3  0  0  0  0  0  0
  160.6830  206.5070  149.9210 N   0  0  0  0  0  0  0  0  0  0  0  0
  162.5650  202.0460  151.4210 O   0  0  0  0  0  1  0  0  0  0  0  0
  161.3340  202.0040  150.7670 C   0  0  1  0  0  3  0  0  0  0  0  0
  160.1410  204.0740  151.1780 C   0  0  2  0  0  3  0  0  0  0  0  0
  160.9180  204.9250  153.4360 C   0  0  0  0  0  2  0  0  0  0  0  0
  161.1360  204.9750  151.9080 C   0  0  2  0  0  3  0  0  0  0  0  0
  160.2120  207.3100  152.2020 C   0  0  0  0  0  2  0  0  0  0  0  0
  161.0990  206.4150  151.3400 C   0  0  2  0  0  3  0  0  0  0  0  0
  161.0380  202.0180  148.2330 C   0  0  2  0  0  3  0  0  0  0  0  0
  160.5610  205.4930  147.7590 N   0  0  0  0  0  2  0  0  0  0  0  0
  160.2740  202.6380  151.6440 C   0  0  0  0  0  2  0  0  0  0  0  0
  161.4680  206.1710  154.1360 C   0  0  1  0  0  3  0  0  0  0  0  0
  160.4630  204.0190  149.6890 C   0  0  1  0  0  3  0  0  0  0  0  0
  160.8230  203.6770  146.5120 O   0  0  0  0  0  0  0  0  0  0  0  0
  161.5550  200.5870  148.2960 C   0  0  0  0  0  1  0  0  0  0  0  0
  161.6400  202.6500  146.9870 C   0  0  0  0  0  2  0  0  0  0  0  0
  161.0550  205.3230  149.1220 C   0  0  2  0  0  3  0  0  0  0  0  0
  160.4150  206.4580  145.3270 C   0  0  0  0  0  1  0  0  0  0  0  0
  161.6640  205.6740  145.7250 C   0  0  2  0  0  3  0  0  0  0  0  0
  161.4150  205.4110  143.5370 C   0  0  0  0  0  1  0  0  0  0  0  0
  162.0990  204.9000  144.6430 O   0  0  0  0  0  0  0  0  0  0  0  0
  161.6620  208.5750  153.7040 O   0  0  0  0  0  0  0  0  0  0  0  0
  160.1920  211.9210  154.4160 C   0  0  0  0  0  0  0  0  0  0  0  0
  161.5580  211.2120  156.2890 C   0  0  0  0  0  3  0  0  0  0  0  0
  159.3040  212.9180  153.7550 C   0  0  0  0  0  1  0  0  0  0  0  0
  161.8580  210.0200  155.6210 C   0  0  0  0  0  3  0  0  0  0  0  0
  161.3330  209.7720  154.3500 C   0  0  0  0  0  0  0  0  0  0  0  0
  160.4950  210.7290  153.7520 C   0  0  0  0  0  3  0  0  0  0  0  0
  160.7280  212.1650  155.6900 C   0  0  0  0  0  0  0  0  0  0  0  0
  160.4410  213.3450  156.3660 O   0  0  0  0  0  1  0  0  0  0  0  0
  161.2700  207.7090  149.2860 C   0  0  1  0  0  3  0  0  0  0  0  0
  161.9550  210.0060  150.0280 C   0  0  0  0  0  3  0  0  0  0  0  0
  161.6600  208.7310  150.3190 C   0  0  0  0  0  3  0  0  0  0  0  0
  161.9370  210.5660  148.6380 C   0  0  0  0  0  2  0  0  0  0  0  0
  162.3620  212.0230  148.6350 C   0  0  0  0  0  2  0  0  0  0  0  0
  159.9080  213.4580  148.9940 O   0  0  0  0  0  1  0  0  0  0  0  0
  160.3380  212.1380  146.6090 O   0  0  0  0  0  0  0  0  0  0  0  0
  161.6900  214.2820  147.2640 O   0  0  0  0  0  1  0  0  0  0  0  0
  161.0730  213.0300  147.8460 P   0  0  0  0  0  0  0  0  0  0  0  0
  163.6290  207.1760  148.7770 C   0  0  0  0  0  2  0  0  0  0  0  0
  162.4010  207.4200  148.3280 C   0  0  0  0  0  3  0  0  0  0  0  0
  1 16  1  0  0  0  0
  2 14  1  0  0  0  0
  3 17  1  0  0  0  0
  3  7  1  0  0  0  0
  4 26  1  0  0  0  0
  4 16  1  0  0  0  0
  5 12  1  0  0  0  0
  7  6  1  0  0  0  0
  7 15  1  0  0  0  0
  8 15  1  0  0  0  0
  8 10  1  0  0  0  0
  9 16  1  0  0  0  0
 10  9  1  0  0  0  0
 11  4  1  0  0  0  0
 12 10  1  0  0  0  0
 12 11  1  0  0  0  0
 13 19  1  0  0  0  0
 13  3  1  0  0  0  0
 14 21  1  0  0  0  0
 17  8  1  0  0  0  0
 18  2  1  0  0  0  0
 18 20  1  0  0  0  0
 20 13  1  0  0  0  0
 21 17  1  0  0  0  0
 21  5  1  0  0  0  0
 22 23  1  0  0  0  0
 23  2  1  0  0  0  0
 24 25  1  0  0  0  0
 25 23  1  0  0  0  0
 26 31  1  0  0  0  0
 27 33  1  0  0  0  0
 29 27  1  0  0  0  0
 30 28  1  0  0  0  0
 31 30  2  0  0  0  0
 32 31  1  0  0  0  0
 32 27  2  0  0  0  0
 33 28  2  0  0  0  0
 33 34  1  0  0  0  0
 35  5  1  0  0  0  0
 35 37  1  0  0  0  0
 36 37  2  0  0  0  0
 38 36  1  0  0  0  0
 39 38  1  0  0  0  0
 41 43  2  0  0  0  0
 42 43  1  0  0  0  0
 43 39  1  0  0  0  0
 43 40  1  0  0  0  0
 45 44  2  0  0  0  0
 45 35  1  0  0  0  0
M  END
>  <MODEL>
2

>  <REMARK>
 VINA RESULT:      -4.9      2.429      7.959
  Name = 
  10 active torsions:
  status: ('A' for Active; 'I' for Inactive)
    1  A    between atoms: O_5  and  C_9
    2  A    between atoms: O_5  and  C_24
    3  A    between atoms: N_7  and  C_26
    4  A    between atoms: C_10  and  N_11
    5  A    between atoms: C_10  and  C_40
    6  A    between atoms: C_10  and  C_44
    7  A    between atoms: C_21  and  C_43
    8  A    between atoms: C_26  and  O_31
    9  A    between atoms: P_30  and  C_42
   10  A    between atoms: C_42  and  C_43
                            x       y       z     vdW  Elec       q    Type
                         _______ _______ _______ _____ _____    ______ ____

>  <TORSDO>
F 10

$$$$
=
 OpenBabel11072412053D

 45 49  0  0  1  0  0  0  0  0999 V2000
  159.2110  203.4920  151.5860 O   0  0  0  0  0  1  0  0  0  0  0  0
  161.1520  210.5540  151.1430 N   0  0  0  0  0  0  0  0  0  0  0  0
  160.8850  208.6100  153.7470 C   0  0  1  0  0  3  0  0  0  0  0  0
  161.3540  203.3420  150.4490 C   0  0  1  0  0  3  0  0  0  0  0  0
  161.7240  207.1450  150.3770 N   0  0  0  0  0  0  0  0  0  0  0  0
  159.5430  207.0480  154.9510 O   0  0  0  0  0  1  0  0  0  0  0  0
  160.8230  207.6000  154.8930 C   0  0  1  0  0  3  0  0  0  0  0  0
  162.0590  206.5610  153.0860 C   0  0  2  0  0  3  0  0  0  0  0  0
  161.1300  204.2170  152.8230 C   0  0  0  0  0  2  0  0  0  0  0  0
  161.0440  205.6850  152.3530 C   0  0  2  0  0  3  0  0  0  0  0  0
  162.0340  204.7040  150.2430 C   0  0  0  0  0  2  0  0  0  0  0  0
  161.1870  205.8370  150.8190 C   0  0  2  0  0  3  0  0  0  0  0  0
  161.3310  210.0090  154.2200 C   0  0  2  0  0  3  0  0  0  0  0  0
  161.9870  209.4860  150.7810 N   0  0  0  0  0  2  0  0  0  0  0  0
  161.8300  206.5120  154.5830 C   0  0  0  0  0  2  0  0  0  0  0  0
  160.5740  203.2450  151.7780 C   0  0  1  0  0  3  0  0  0  0  0  0
  161.8620  208.0270  152.7210 C   0  0  1  0  0  3  0  0  0  0  0  0
  161.7570  211.1950  152.1780 O   0  0  0  0  0  0  0  0  0  0  0  0
  160.7530  210.3730  155.5810 C   0  0  0  0  0  1  0  0  0  0  0  0
  160.8620  211.0750  153.2420 C   0  0  0  0  0  2  0  0  0  0  0  0
  161.3730  208.2590  151.2780 C   0  0  2  0  0  3  0  0  0  0  0  0
  162.3530  211.4950  149.1700 C   0  0  0  0  0  1  0  0  0  0  0  0
  161.0670  211.4680  149.9950 C   0  0  2  0  0  3  0  0  0  0  0  0
  160.8250  213.5530  149.2810 C   0  0  0  0  0  1  0  0  0  0  0  0
  160.7590  212.7610  150.4300 O   0  0  0  0  0  0  0  0  0  0  0  0
  160.5150  203.0210  149.3390 O   0  0  0  0  0  0  0  0  0  0  0  0
  160.5970  200.9510  146.2450 C   0  0  0  0  0  0  0  0  0  0  0  0
  161.7900  199.8120  148.0240 C   0  0  0  0  0  3  0  0  0  0  0  0
  160.0970  201.0120  144.8430 C   0  0  0  0  0  1  0  0  0  0  0  0
  161.5160  200.8760  148.8890 C   0  0  0  0  0  3  0  0  0  0  0  0
  160.7810  201.9780  148.4440 C   0  0  0  0  0  0  0  0  0  0  0  0
  160.3250  202.0110  147.1150 C   0  0  0  0  0  3  0  0  0  0  0  0
  161.3300  199.8450  146.7030 C   0  0  0  0  0  0  0  0  0  0  0  0
  161.6080  198.7790  145.8550 O   0  0  0  0  0  1  0  0  0  0  0  0
  161.2420  207.4690  149.0140 C   0  0  1  0  0  3  0  0  0  0  0  0
  162.7880  206.7170  147.1860 C   0  0  0  0  0  3  0  0  0  0  0  0
  162.3930  207.6520  148.0630 C   0  0  0  0  0  3  0  0  0  0  0  0
  162.1330  205.3760  147.0530 C   0  0  0  0  0  2  0  0  0  0  0  0
  162.3830  204.7850  145.6770 C   0  0  0  0  0  2  0  0  0  0  0  0
  160.1330  206.5090  145.2610 O   0  0  0  0  0  1  0  0  0  0  0  0
  160.0390  203.9390  144.2610 O   0  0  0  0  0  1  0  0  0  0  0  0
  161.6240  205.7590  143.2460 O   0  0  0  0  0  0  0  0  0  0  0  0
  161.0420  205.2710  144.5530 P   0  0  0  0  0  0  0  0  0  0  0  0
  159.2070  206.0850  149.2310 C   0  0  0  0  0  2  0  0  0  0  0  0
  160.2130  206.5080  148.4710 C   0  0  0  0  0  3  0  0  0  0  0  0
  1 16  1  0  0  0  0
  2 18  1  0  0  0  0
  3 13  1  0  0  0  0
  3  7  1  0  0  0  0
  4 16  1  0  0  0  0
  5 12  1  0  0  0  0
  5 21  1  0  0  0  0
  7  6  1  0  0  0  0
  8 15  1  0  0  0  0
 10  9  1  0  0  0  0
 10  8  1  0  0  0  0
 11  4  1  0  0  0  0
 11 12  1  0  0  0  0
 12 10  1  0  0  0  0
 13 19  1  0  0  0  0
 14  2  1  0  0  0  0
 14 21  1  0  0  0  0
 15  7  1  0  0  0  0
 16  9  1  0  0  0  0
 17  8  1  0  0  0  0
 17  3  1  0  0  0  0
 18 20  1  0  0  0  0
 20 13  1  0  0  0  0
 21 17  1  0  0  0  0
 22 23  1  0  0  0  0
 23 25  1  0  0  0  0
 23  2  1  0  0  0  0
 24 25  1  0  0  0  0
 26  4  1  0  0  0  0
 27 33  2  0  0  0  0
 27 32  1  0  0  0  0
 28 30  2  0  0  0  0
 29 27  1  0  0  0  0
 31 30  1  0  0  0  0
 31 26  1  0  0  0  0
 32 31  2  0  0  0  0
 33 28  1  0  0  0  0
 34 33  1  0  0  0  0
 35  5  1  0  0  0  0
 36 37  2  0  0  0  0
 37 35  1  0  0  0  0
 38 36  1  0  0  0  0
 39 38  1  0  0  0  0
 41 43  1  0  0  0  0
 42 43  2  0  0  0  0
 43 40  1  0  0  0  0
 43 39  1  0  0  0  0
 45 35  1  0  0  0  0
 45 44  2  0  0  0  0
M  END
>  <MODEL>
3

>  <REMARK>
 VINA RESULT:      -3.7      2.413      3.667
  Name = 
  10 active torsions:
  status: ('A' for Active; 'I' for Inactive)
    1  A    between atoms: O_5  and  C_9
    2  A    between atoms: O_5  and  C_24
    3  A    between atoms: N_7  and  C_26
    4  A    between atoms: C_10  and  N_11
    5  A    between atoms: C_10  and  C_40
    6  A    between atoms: C_10  and  C_44
    7  A    between atoms: C_21  and  C_43
    8  A    between atoms: C_26  and  O_31
    9  A    between atoms: P_30  and  C_42
   10  A    between atoms: C_42  and  C_43
                            x       y       z     vdW  Elec       q    Type
                         _______ _______ _______ _____ _____    ______ ____

>  <TORSDO>
F 10

$$$$
