=
 OpenBabel11072412443D

 55 60  0  0  1  0  0  0  0  0999 V2000
  160.0230  212.5640  152.6700 C   0  0  2  0  0  3  0  0  0  0  0  0
  160.0290  214.2250  154.3920 F   0  0  0  0  0  0  0  0  0  0  0  0
  160.5880  211.2960  152.9290 O   0  0  0  0  0  0  0  0  0  0  0  0
  160.4660  211.8340  155.7780 C   0  0  0  0  0  1  0  0  0  0  0  0
  159.5700  210.3890  153.3190 C   0  0  2  0  0  3  0  0  0  0  0  0
  159.3360  213.1270  153.9110 C   0  0  2  0  0  3  0  0  0  0  0  0
  158.1930  212.4700  155.8810 O   0  0  0  0  0  1  0  0  0  0  0  0
  159.1750  212.0450  154.9860 C   0  0  2  0  0  0  0  0  0  0  0  0
  158.7500  210.8260  154.4040 O   0  0  0  0  0  0  0  0  0  0  0  0
  160.1670  209.0340  153.5910 C   0  0  0  0  0  0  0  0  0  0  0  0
  160.2450  208.5400  154.8380 C   0  0  0  0  0  3  0  0  0  0  0  0
  161.3520  206.3070  154.0190 C   0  0  0  0  0  2  0  0  0  0  0  0
  160.7020  208.5310  151.2090 O   0  0  0  0  0  0  0  0  0  0  0  0
  160.8660  206.7960  156.3110 O   0  0  0  0  0  0  0  0  0  0  0  0
  161.2010  206.9590  152.6810 C   0  0  0  0  0  0  0  0  0  0  0  0
  161.5580  206.4970  151.4360 C   0  0  0  0  0  0  0  0  0  0  0  0
  161.2310  207.5180  150.5620 C   0  0  0  0  0  0  0  0  0  0  0  0
  160.6730  208.2100  152.4840 C   0  0  0  0  0  0  0  0  0  0  0  0
  160.8200  207.1990  155.1200 C   0  0  0  0  0  0  0  0  0  0  0  0
  162.1870  205.1870  151.0960 C   0  0  0  0  0  2  0  0  0  0  0  0
  161.1500  204.2610  150.4900 C   0  0  0  0  0  2  0  0  0  0  0  0
  161.1680  202.6670  151.3520 P   0  0  2  0  0  0  0  0  0  0  0  0
  160.2140  202.7320  152.5230 O   0  0  0  0  0  1  0  0  0  0  0  0
  162.7330  202.3400  151.9180 O   0  0  0  0  0  0  0  0  0  0  0  0
  160.8330  201.8120  148.7830 C   0  0  0  0  0  1  0  0  0  0  0  0
  160.6450  201.3560  150.2100 C   0  0  0  0  0  2  0  0  0  0  0  0
  161.4460  207.4990  149.1520 N   0  0  0  0  0  2  0  0  0  0  0  0
  160.6740  206.7360  148.3410 O   0  0  0  0  0  0  0  0  0  0  0  0
  162.5170  206.0880  146.9500 C   0  0  0  0  0  2  0  0  0  0  0  0
  163.1050  204.2190  145.4440 O   0  0  0  0  0  1  0  0  0  0  0  0
  160.9510  205.3550  145.3550 C   0  0  0  0  0  3  0  0  0  0  0  0
  160.3210  206.2940  146.0330 C   0  0  0  0  0  3  0  0  0  0  0  0
  162.2740  205.2170  145.8220 N   0  0  0  0  0  0  0  0  0  0  0  0
  161.2260  206.8960  147.0650 C   0  0  1  0  0  3  0  0  0  0  0  0
  159.1020  212.5480  151.4500 C   0  0  0  0  0  2  0  0  0  0  0  0
  159.2010  213.8610  150.6820 C   0  0  1  0  0  3  0  0  0  0  0  0
  160.0580  213.6660  149.4710 C   0  0  0  0  0  0  0  0  0  0  0  0
  159.4290  213.4740  148.1990 N   0  0  0  0  0  2  0  0  0  0  0  0
  161.3150  213.6400  149.5790 O   0  0  0  0  0  0  0  0  0  0  0  0
  160.1280  213.1000  146.9750 C   0  0  2  0  0  3  0  0  0  0  0  0
  161.3870  214.3360  146.5200 S   0  0  0  0  0  0  0  0  0  0  0  0
  160.3810  212.0880  143.2490 C   0  0  0  0  0  1  0  0  0  0  0  0
  160.3870  212.9470  144.4680 C   0  0  0  0  0  0  0  0  0  0  0  0
  161.4740  213.5940  144.8950 C   0  0  0  0  0  0  0  0  0  0  0  0
  158.9820  212.9300  145.5740 S   0  0  0  0  0  0  0  0  0  0  0  0
  162.7780  213.5330  144.1840 C   0  0  0  0  0  1  0  0  0  0  0  0
  157.8180  214.3930  150.2800 C   0  0  1  0  0  3  0  0  0  0  0  0
  157.2760  213.6490  149.2310 O   0  0  0  0  0  1  0  0  0  0  0  0
  154.7350  214.3110  150.0600 C   0  0  0  0  0  1  0  0  0  0  0  0
  153.4900  214.3810  152.7630 O   0  0  0  0  0  1  0  0  0  0  0  0
  155.4860  214.3630  151.3510 C   0  0  0  0  0  0  0  0  0  0  0  0
  155.7300  214.4450  153.6980 C   0  0  0  0  0  3  0  0  0  0  0  0
  154.8650  214.3950  152.6070 C   0  0  0  0  0  0  0  0  0  0  0  0
  157.2900  214.4400  153.0650 S   0  0  0  0  0  0  0  0  0  0  0  0
  156.8690  214.3660  151.4370 C   0  0  0  0  0  0  0  0  0  0  0  0
  1 35  1  6  0  0  0
  1  3  1  0  0  0  0
  1  6  1  0  0  0  0
  3  5  1  0  0  0  0
  5 10  1  1  0  0  0
  5  9  1  0  0  0  0
  6  2  1  1  0  0  0
  6  8  1  0  0  0  0
  8  4  1  1  0  0  0
  8  7  1  0  0  0  0
  9  8  1  0  0  0  0
 10 11  2  0  0  0  0
 11 19  1  0  0  0  0
 12 19  1  0  0  0  0
 13 18  1  0  0  0  0
 15 12  1  0  0  0  0
 16 15  1  0  0  0  0
 17 13  1  0  0  0  0
 17 16  2  0  0  0  0
 18 15  2  0  0  0  0
 18 10  1  0  0  0  0
 19 14  2  0  0  0  0
 20 16  1  0  0  0  0
 21 20  1  0  0  0  0
 21 22  1  0  0  0  0
 22 24  2  1  0  0  0
 22 23  1  0  0  0  0
 25 26  1  0  0  0  0
 26 22  1  0  0  0  0
 27 17  1  0  0  0  0
 28 27  1  0  0  0  0
 29 34  1  0  0  0  0
 30 33  1  0  0  0  0
 31 33  1  0  0  0  0
 31 32  2  0  0  0  0
 32 34  1  0  0  0  0
 33 29  1  0  0  0  0
 34 28  1  1  0  0  0
 36 35  1  6  0  0  0
 37 39  2  0  0  0  0
 37 36  1  0  0  0  0
 38 37  1  0  0  0  0
 40 38  1  1  0  0  0
 41 40  1  0  0  0  0
 42 43  1  0  0  0  0
 43 44  2  0  0  0  0
 43 45  1  0  0  0  0
 44 41  1  0  0  0  0
 45 40  1  0  0  0  0
 46 44  1  0  0  0  0
 47 48  1  6  0  0  0
 47 36  1  0  0  0  0
 47 55  1  0  0  0  0
 49 51  1  0  0  0  0
 51 55  2  0  0  0  0
 51 53  1  0  0  0  0
 53 50  1  0  0  0  0
 53 52  2  0  0  0  0
 54 52  1  0  0  0  0
 55 54  1  0  0  0  0
M  END
>  <MODEL>
1

>  <REMARK>
 VINA RESULT:      -6.7      0.000      0.000
  Name = 
  14 active torsions:
  status: ('A' for Active; 'I' for Inactive)
    1  A    between atoms: P_1  and  C_26
    2  A    between atoms: P_1  and  C_53
    3  A    between atoms: C_2  and  C_23
    4  A    between atoms: C_3  and  C_17
    5  A    between atoms: C_3  and  C_55
    6  A    between atoms: C_5  and  C_33
    7  A    between atoms: C_9  and  C_17
    8  A    between atoms: C_17  and  C_33
    9  A    between atoms: C_19  and  N_28
   10  A    between atoms: O_25  and  N_43
   11  A    between atoms: O_25  and  C_54
   12  A    between atoms: C_26  and  C_40
   13  A    between atoms: C_31  and  C_40
   14  A    between atoms: C_39  and  N_43
                            x       y       z     vdW  Elec       q    Type
                         _______ _______ _______ _____ _____    ______ ____

>  <TORSDO>
F 14

$$$$
=
 OpenBabel11072412443D

 55 60  0  0  1  0  0  0  0  0999 V2000
  160.9980  209.8590  154.8060 C   0  0  2  0  0  3  0  0  0  0  0  0
  161.6880  208.3990  156.5700 F   0  0  0  0  0  0  0  0  0  0  0  0
  161.4960  209.6520  153.5010 O   0  0  0  0  0  0  0  0  0  0  0  0
  162.3090  206.9690  154.2470 C   0  0  0  0  0  1  0  0  0  0  0  0
  160.5680  208.8840  152.7510 C   0  0  2  0  0  3  0  0  0  0  0  0
  160.7830  208.5350  155.5310 C   0  0  2  0  0  3  0  0  0  0  0  0
  160.2480  206.2570  155.1550 O   0  0  0  0  0  1  0  0  0  0  0  0
  160.8620  207.3560  154.5550 C   0  0  2  0  0  0  0  0  0  0  0  0
  160.1670  207.6550  153.3570 O   0  0  0  0  0  0  0  0  0  0  0  0
  161.0930  208.6660  151.3560 C   0  0  0  0  0  0  0  0  0  0  0  0
  161.4940  209.6920  150.5900 C   0  0  0  0  0  3  0  0  0  0  0  0
  162.1490  208.1150  148.5990 C   0  0  0  0  0  2  0  0  0  0  0  0
  160.8260  206.1880  151.3910 O   0  0  0  0  0  0  0  0  0  0  0  0
  162.3820  210.4970  148.5500 O   0  0  0  0  0  0  0  0  0  0  0  0
  161.6840  207.0570  149.5490 C   0  0  0  0  0  0  0  0  0  0  0  0
  161.6250  205.6940  149.3810 C   0  0  0  0  0  0  0  0  0  0  0  0
  161.0770  205.2070  150.5540 C   0  0  0  0  0  0  0  0  0  0  0  0
  161.1880  207.3070  150.8040 C   0  0  0  0  0  0  0  0  0  0  0  0
  162.0250  209.4910  149.2170 C   0  0  0  0  0  0  0  0  0  0  0  0
  162.0360  204.9040  148.1840 C   0  0  0  0  0  2  0  0  0  0  0  0
  161.1470  205.2550  147.0070 C   0  0  0  0  0  2  0  0  0  0  0  0
  161.6120  204.2610  145.5640 P   0  0  2  0  0  0  0  0  0  0  0  0
  161.2630  202.8150  145.8320 O   0  0  0  0  0  1  0  0  0  0  0  0
  163.2800  204.3970  145.2900 O   0  0  0  0  0  0  0  0  0  0  0  0
  161.5530  205.8280  143.3310 C   0  0  0  0  0  1  0  0  0  0  0  0
  160.7030  204.8490  144.1060 C   0  0  0  0  0  2  0  0  0  0  0  0
  160.8010  203.8350  150.8310 N   0  0  0  0  0  2  0  0  0  0  0  0
  159.6090  203.2850  150.4930 O   0  0  0  0  0  0  0  0  0  0  0  0
  159.7700  201.4460  148.9620 C   0  0  0  0  0  2  0  0  0  0  0  0
  161.4820  200.4250  147.5010 O   0  0  0  0  0  1  0  0  0  0  0  0
  161.9170  201.0220  149.8230 C   0  0  0  0  0  3  0  0  0  0  0  0
  161.2760  201.6210  150.8070 C   0  0  0  0  0  3  0  0  0  0  0  0
  161.0630  200.8480  148.7150 N   0  0  0  0  0  0  0  0  0  0  0  0
  159.8590  201.9100  150.4140 C   0  0  1  0  0  3  0  0  0  0  0  0
  159.7480  210.7400  154.8150 C   0  0  0  0  0  2  0  0  0  0  0  0
  160.1280  212.2160  154.8030 C   0  0  1  0  0  3  0  0  0  0  0  0
  159.5870  212.8600  153.5660 C   0  0  0  0  0  0  0  0  0  0  0  0
  158.8540  212.0630  152.6300 N   0  0  0  0  0  2  0  0  0  0  0  0
  159.8040  214.0830  153.3400 O   0  0  0  0  0  0  0  0  0  0  0  0
  158.4250  212.5120  151.3120 C   0  0  2  0  0  3  0  0  0  0  0  0
  159.7770  213.3480  150.4200 S   0  0  0  0  0  0  0  0  0  0  0  0
  156.1640  214.4230  148.8200 C   0  0  0  0  0  1  0  0  0  0  0  0
  157.3200  214.1260  149.7140 C   0  0  0  0  0  0  0  0  0  0  0  0
  158.5690  213.9880  149.2660 C   0  0  0  0  0  0  0  0  0  0  0  0
  157.0290  213.6720  151.4190 S   0  0  0  0  0  0  0  0  0  0  0  0
  158.9310  214.1350  147.8310 C   0  0  0  0  0  1  0  0  0  0  0  0
  159.6190  212.9460  156.0550 C   0  0  1  0  0  3  0  0  0  0  0  0
  160.0610  214.2690  156.0820 O   0  0  0  0  0  1  0  0  0  0  0  0
  157.9120  210.6680  157.2600 C   0  0  0  0  0  1  0  0  0  0  0  0
  155.0110  211.2610  156.9590 O   0  0  0  0  0  1  0  0  0  0  0  0
  157.3480  211.9000  156.6290 C   0  0  0  0  0  0  0  0  0  0  0  0
  155.6380  213.3470  155.8860 C   0  0  0  0  0  3  0  0  0  0  0  0
  155.9740  212.1460  156.5050 C   0  0  0  0  0  0  0  0  0  0  0  0
  157.0920  214.1040  155.5030 S   0  0  0  0  0  0  0  0  0  0  0  0
  158.1250  212.9290  156.1220 C   0  0  0  0  0  0  0  0  0  0  0  0
  1 35  1  6  0  0  0
  1  6  1  0  0  0  0
  3  1  1  0  0  0  0
  5 10  1  6  0  0  0
  5  9  1  0  0  0  0
  5  3  1  0  0  0  0
  6  2  1  1  0  0  0
  8  4  1  6  0  0  0
  8  7  1  0  0  0  0
  8  6  1  0  0  0  0
  9  8  1  0  0  0  0
 11 10  2  0  0  0  0
 12 19  1  0  0  0  0
 12 15  1  0  0  0  0
 14 19  2  0  0  0  0
 15 18  2  0  0  0  0
 16 15  1  0  0  0  0
 16 17  2  0  0  0  0
 17 27  1  0  0  0  0
 17 13  1  0  0  0  0
 18 10  1  0  0  0  0
 18 13  1  0  0  0  0
 19 11  1  0  0  0  0
 20 16  1  0  0  0  0
 21 20  1  0  0  0  0
 22 24  2  6  0  0  0
 22 23  1  0  0  0  0
 22 21  1  0  0  0  0
 25 26  1  0  0  0  0
 26 22  1  0  0  0  0
 28 27  1  0  0  0  0
 29 34  1  0  0  0  0
 30 33  1  0  0  0  0
 31 32  2  0  0  0  0
 33 29  1  0  0  0  0
 33 31  1  0  0  0  0
 34 28  1  6  0  0  0
 34 32  1  0  0  0  0
 36 35  1  1  0  0  0
 36 47  1  0  0  0  0
 37 36  1  0  0  0  0
 38 37  1  0  0  0  0
 39 37  2  0  0  0  0
 40 45  1  0  0  0  0
 40 38  1  1  0  0  0
 41 40  1  0  0  0  0
 42 43  1  0  0  0  0
 43 45  1  0  0  0  0
 44 43  2  0  0  0  0
 44 41  1  0  0  0  0
 46 44  1  0  0  0  0
 47 48  1  6  0  0  0
 47 55  1  0  0  0  0
 51 49  1  0  0  0  0
 52 53  2  0  0  0  0
 53 51  1  0  0  0  0
 53 50  1  0  0  0  0
 54 52  1  0  0  0  0
 54 55  1  0  0  0  0
 55 51  2  0  0  0  0
M  END
>  <MODEL>
2

>  <REMARK>
 VINA RESULT:      -5.8      2.916      5.240
  Name = 
  14 active torsions:
  status: ('A' for Active; 'I' for Inactive)
    1  A    between atoms: P_1  and  C_26
    2  A    between atoms: P_1  and  C_53
    3  A    between atoms: C_2  and  C_23
    4  A    between atoms: C_3  and  C_17
    5  A    between atoms: C_3  and  C_55
    6  A    between atoms: C_5  and  C_33
    7  A    between atoms: C_9  and  C_17
    8  A    between atoms: C_17  and  C_33
    9  A    between atoms: C_19  and  N_28
   10  A    between atoms: O_25  and  N_43
   11  A    between atoms: O_25  and  C_54
   12  A    between atoms: C_26  and  C_40
   13  A    between atoms: C_31  and  C_40
   14  A    between atoms: C_39  and  N_43
                            x       y       z     vdW  Elec       q    Type
                         _______ _______ _______ _____ _____    ______ ____

>  <TORSDO>
F 14

$$$$
=
 OpenBabel11072412443D

 55 60  0  0  1  0  0  0  0  0999 V2000
  160.4970  211.5580  152.9990 C   0  0  2  0  0  3  0  0  0  0  0  0
  161.0080  212.8580  154.9410 F   0  0  0  0  0  0  0  0  0  0  0  0
  160.9900  210.2380  152.9000 O   0  0  0  0  0  0  0  0  0  0  0  0
  161.5120  210.2280  155.7540 C   0  0  0  0  0  1  0  0  0  0  0  0
  159.9990  209.3240  153.3400 C   0  0  2  0  0  3  0  0  0  0  0  0
  160.1370  211.9060  154.4400 C   0  0  2  0  0  3  0  0  0  0  0  0
  159.3750  210.9420  156.4670 O   0  0  0  0  0  1  0  0  0  0  0  0
  160.1080  210.6490  155.3170 C   0  0  2  0  0  0  0  0  0  0  0  0
  159.4650  209.5840  154.6380 O   0  0  0  0  0  0  0  0  0  0  0  0
  160.5180  207.9140  153.2310 C   0  0  0  0  0  0  0  0  0  0  0  0
  160.8330  207.1970  154.3220 C   0  0  0  0  0  3  0  0  0  0  0  0
  161.5170  205.1010  152.9010 C   0  0  0  0  0  2  0  0  0  0  0  0
  160.4470  207.8300  150.7410 O   0  0  0  0  0  0  0  0  0  0  0  0
  161.6130  205.1850  155.2910 O   0  0  0  0  0  0  0  0  0  0  0  0
  161.1240  205.9930  151.7660 C   0  0  0  0  0  0  0  0  0  0  0  0
  161.1440  205.7500  150.4130 C   0  0  0  0  0  0  0  0  0  0  0  0
  160.7200  206.9280  149.8260 C   0  0  0  0  0  0  0  0  0  0  0  0
  160.6800  207.2830  151.9130 C   0  0  0  0  0  0  0  0  0  0  0  0
  161.3340  205.8010  154.2300 C   0  0  0  0  0  0  0  0  0  0  0  0
  161.5580  204.4960  149.7180 C   0  0  0  0  0  2  0  0  0  0  0  0
  160.3310  203.6890  149.3400 C   0  0  0  0  0  2  0  0  0  0  0  0
  160.5780  201.9480  149.7750 P   0  0  2  0  0  0  0  0  0  0  0  0
  159.2740  201.3810  150.2880 O   0  0  0  0  0  0  0  0  0  0  0  0
  161.7620  201.8220  150.9820 O   0  0  0  0  0  1  0  0  0  0  0  0
  160.8160  201.8310  147.0590 C   0  0  0  0  0  1  0  0  0  0  0  0
  161.1070  201.0250  148.3030 C   0  0  0  0  0  2  0  0  0  0  0  0
  160.6050  207.1580  148.4230 N   0  0  0  0  0  2  0  0  0  0  0  0
  161.6660  206.9730  147.5990 O   0  0  0  0  0  0  0  0  0  0  0  0
  160.8430  206.2240  145.4740 C   0  0  0  0  0  2  0  0  0  0  0  0
  161.7540  205.7200  143.2330 O   0  0  0  0  0  1  0  0  0  0  0  0
  162.7730  204.8930  145.2860 C   0  0  0  0  0  3  0  0  0  0  0  0
  162.5900  205.0320  146.5850 C   0  0  0  0  0  3  0  0  0  0  0  0
  161.7430  205.5400  144.5730 N   0  0  0  0  0  0  0  0  0  0  0  0
  161.3490  205.8280  146.8590 C   0  0  1  0  0  3  0  0  0  0  0  0
  159.3450  211.8200  152.0290 C   0  0  0  0  0  2  0  0  0  0  0  0
  159.1490  213.3160  151.8150 C   0  0  1  0  0  3  0  0  0  0  0  0
  159.3140  213.6380  150.3630 C   0  0  0  0  0  0  0  0  0  0  0  0
  160.3960  213.0440  149.6380 N   0  0  0  0  0  2  0  0  0  0  0  0
  158.5270  214.4470  149.7990 O   0  0  0  0  0  0  0  0  0  0  0  0
  160.7800  213.4010  148.2780 C   0  0  2  0  0  3  0  0  0  0  0  0
  159.7440  212.5470  147.0460 S   0  0  0  0  0  0  0  0  0  0  0  0
  163.2370  213.8010  145.3160 C   0  0  0  0  0  1  0  0  0  0  0  0
  162.1910  213.2020  146.1930 C   0  0  0  0  0  0  0  0  0  0  0  0
  160.9350  212.9960  145.7890 C   0  0  0  0  0  0  0  0  0  0  0  0
  162.5150  212.9770  147.9370 S   0  0  0  0  0  0  0  0  0  0  0  0
  160.4650  213.3290  144.4180 C   0  0  0  0  0  1  0  0  0  0  0  0
  157.7760  213.7880  152.3170 C   0  0  1  0  0  3  0  0  0  0  0  0
  156.7440  213.0630  151.7200 O   0  0  0  0  0  1  0  0  0  0  0  0
  155.6640  212.0960  153.8100 C   0  0  0  0  0  1  0  0  0  0  0  0
  155.9800  212.3880  156.7560 O   0  0  0  0  0  1  0  0  0  0  0  0
  156.7060  212.9300  154.4840 C   0  0  0  0  0  0  0  0  0  0  0  0
  157.8540  213.8700  156.3200 C   0  0  0  0  0  3  0  0  0  0  0  0
  156.8250  213.0440  155.8760 C   0  0  0  0  0  0  0  0  0  0  0  0
  158.6220  214.4510  154.9390 S   0  0  0  0  0  0  0  0  0  0  0  0
  157.6680  213.6580  153.8030 C   0  0  0  0  0  0  0  0  0  0  0  0
  1 35  1  6  0  0  0
  1  6  1  0  0  0  0
  3  1  1  0  0  0  0
  3  5  1  0  0  0  0
  5 10  1  1  0  0  0
  5  9  1  0  0  0  0
  6  2  1  1  0  0  0
  6  8  1  0  0  0  0
  8  4  1  1  0  0  0
  8  7  1  0  0  0  0
  9  8  1  0  0  0  0
 10 11  2  0  0  0  0
 12 19  1  0  0  0  0
 13 18  1  0  0  0  0
 15 18  2  0  0  0  0
 15 12  1  0  0  0  0
 16 15  1  0  0  0  0
 17 16  2  0  0  0  0
 17 13  1  0  0  0  0
 18 10  1  0  0  0  0
 19 11  1  0  0  0  0
 19 14  2  0  0  0  0
 20 16  1  0  0  0  0
 21 20  1  0  0  0  0
 21 22  1  0  0  0  0
 22 23  2  1  0  0  0
 22 24  1  0  0  0  0
 25 26  1  0  0  0  0
 26 22  1  0  0  0  0
 27 17  1  0  0  0  0
 28 27  1  0  0  0  0
 29 34  1  0  0  0  0
 30 33  1  0  0  0  0
 31 32  2  0  0  0  0
 32 34  1  0  0  0  0
 33 31  1  0  0  0  0
 33 29  1  0  0  0  0
 34 28  1  1  0  0  0
 36 35  1  6  0  0  0
 36 47  1  0  0  0  0
 37 36  1  0  0  0  0
 38 37  1  0  0  0  0
 39 37  2  0  0  0  0
 40 38  1  1  0  0  0
 41 40  1  0  0  0  0
 42 43  1  0  0  0  0
 43 45  1  0  0  0  0
 44 43  2  0  0  0  0
 44 41  1  0  0  0  0
 45 40  1  0  0  0  0
 46 44  1  0  0  0  0
 47 48  1  6  0  0  0
 47 55  1  0  0  0  0
 49 51  1  0  0  0  0
 51 53  1  0  0  0  0
 53 52  2  0  0  0  0
 53 50  1  0  0  0  0
 54 52  1  0  0  0  0
 55 51  2  0  0  0  0
 55 54  1  0  0  0  0
M  END
>  <MODEL>
3

>  <REMARK>
 VINA RESULT:      -4.7      1.679      2.256
  Name = 
  14 active torsions:
  status: ('A' for Active; 'I' for Inactive)
    1  A    between atoms: P_1  and  C_26
    2  A    between atoms: P_1  and  C_53
    3  A    between atoms: C_2  and  C_23
    4  A    between atoms: C_3  and  C_17
    5  A    between atoms: C_3  and  C_55
    6  A    between atoms: C_5  and  C_33
    7  A    between atoms: C_9  and  C_17
    8  A    between atoms: C_17  and  C_33
    9  A    between atoms: C_19  and  N_28
   10  A    between atoms: O_25  and  N_43
   11  A    between atoms: O_25  and  C_54
   12  A    between atoms: C_26  and  C_40
   13  A    between atoms: C_31  and  C_40
   14  A    between atoms: C_39  and  N_43
                            x       y       z     vdW  Elec       q    Type
                         _______ _______ _______ _____ _____    ______ ____

>  <TORSDO>
F 14

$$$$
=
 OpenBabel11072412443D

 55 60  0  0  1  0  0  0  0  0999 V2000
  160.1070  211.6730  151.3780 C   0  0  2  0  0  3  0  0  0  0  0  0
  160.9270  212.1650  149.1850 F   0  0  0  0  0  0  0  0  0  0  0  0
  160.0370  210.3300  151.8070 O   0  0  0  0  0  0  0  0  0  0  0  0
  161.8400  209.5630  149.6660 C   0  0  0  0  0  1  0  0  0  0  0  0
  161.2000  210.0050  152.5520 C   0  0  2  0  0  3  0  0  0  0  0  0
  161.3230  211.9070  150.4870 C   0  0  2  0  0  3  0  0  0  0  0  0
  163.5360  211.1510  150.0990 O   0  0  0  0  0  1  0  0  0  0  0  0
  162.2910  210.7200  150.5590 C   0  0  2  0  0  0  0  0  0  0  0  0
  162.4390  210.2800  151.8980 O   0  0  0  0  0  0  0  0  0  0  0  0
  161.1280  208.5740  153.0170 C   0  0  0  0  0  0  0  0  0  0  0  0
  160.9900  208.2660  154.3160 C   0  0  0  0  0  3  0  0  0  0  0  0
  160.9660  205.6870  153.8320 C   0  0  0  0  0  2  0  0  0  0  0  0
  161.3530  207.5780  150.7430 O   0  0  0  0  0  0  0  0  0  0  0  0
  160.7780  206.6380  156.0200 O   0  0  0  0  0  0  0  0  0  0  0  0
  161.1090  206.1570  152.4180 C   0  0  0  0  0  0  0  0  0  0  0  0
  161.2070  205.4250  151.2580 C   0  0  0  0  0  0  0  0  0  0  0  0
  161.3630  206.3600  150.2510 C   0  0  0  0  0  0  0  0  0  0  0  0
  161.1970  207.4740  152.0440 C   0  0  0  0  0  0  0  0  0  0  0  0
  160.9050  206.8590  154.7880 C   0  0  0  0  0  0  0  0  0  0  0  0
  161.1770  203.9400  151.1110 C   0  0  0  0  0  2  0  0  0  0  0  0
  160.2040  203.5520  150.0140 C   0  0  0  0  0  2  0  0  0  0  0  0
  160.5820  201.8840  149.4160 P   0  0  2  0  0  0  0  0  0  0  0  0
  159.2930  201.1050  149.2890 O   0  0  0  0  0  0  0  0  0  0  0  0
  161.6080  201.1010  150.5150 O   0  0  0  0  0  1  0  0  0  0  0  0
  160.6880  201.0920  146.8070 C   0  0  0  0  0  1  0  0  0  0  0  0
  161.3920  201.9920  147.7940 C   0  0  0  0  0  2  0  0  0  0  0  0
  161.5310  206.0630  148.8660 N   0  0  0  0  0  2  0  0  0  0  0  0
  160.4800  206.1150  148.0120 O   0  0  0  0  0  0  0  0  0  0  0  0
  162.4610  205.7410  146.7130 C   0  0  0  0  0  2  0  0  0  0  0  0
  163.4120  203.9520  145.2980 O   0  0  0  0  0  1  0  0  0  0  0  0
  161.1060  204.7120  145.0890 C   0  0  0  0  0  3  0  0  0  0  0  0
  160.3020  205.5540  145.7090 C   0  0  0  0  0  3  0  0  0  0  0  0
  162.4130  204.8090  145.6090 N   0  0  0  0  0  0  0  0  0  0  0  0
  161.0520  206.3270  146.7520 C   0  0  1  0  0  3  0  0  0  0  0  0
  160.0420  212.6570  152.5470 C   0  0  0  0  0  2  0  0  0  0  0  0
  159.3240  213.9370  152.1350 C   0  0  1  0  0  3  0  0  0  0  0  0
  158.6820  213.7400  150.7980 C   0  0  0  0  0  0  0  0  0  0  0  0
  159.2290  214.4120  149.6590 N   0  0  0  0  0  2  0  0  0  0  0  0
  157.6530  213.0170  150.6880 O   0  0  0  0  0  0  0  0  0  0  0  0
  158.6070  214.4530  148.3410 C   0  0  2  0  0  3  0  0  0  0  0  0
  157.2480  213.2480  148.2060 S   0  0  0  0  0  0  0  0  0  0  0  0
  158.5660  214.2990  144.4750 C   0  0  0  0  0  1  0  0  0  0  0  0
  158.4390  213.8560  145.8930 C   0  0  0  0  0  0  0  0  0  0  0  0
  157.2820  213.4630  146.4310 C   0  0  0  0  0  0  0  0  0  0  0  0
  159.8060  214.0900  147.0220 S   0  0  0  0  0  0  0  0  0  0  0  0
  156.0110  213.4140  145.6610 C   0  0  0  0  0  1  0  0  0  0  0  0
  158.2780  214.3640  153.1750 C   0  0  1  0  0  3  0  0  0  0  0  0
  157.0070  214.4530  152.6050 O   0  0  0  0  0  1  0  0  0  0  0  0
  155.9710  212.3900  153.7590 C   0  0  0  0  0  1  0  0  0  0  0  0
  156.5040  210.8670  156.2610 O   0  0  0  0  0  1  0  0  0  0  0  0
  157.1880  212.5400  154.6140 C   0  0  0  0  0  0  0  0  0  0  0  0
  158.5970  212.0830  156.4520 C   0  0  0  0  0  3  0  0  0  0  0  0
  157.4060  211.8040  155.7870 C   0  0  0  0  0  0  0  0  0  0  0  0
  159.3820  213.2620  155.5420 S   0  0  0  0  0  0  0  0  0  0  0  0
  158.2310  213.4050  154.3230 C   0  0  0  0  0  0  0  0  0  0  0  0
  1  3  1  0  0  0  0
  1 35  1  1  0  0  0
  3  5  1  0  0  0  0
  5 10  1  6  0  0  0
  6  2  1  6  0  0  0
  6  8  1  0  0  0  0
  6  1  1  0  0  0  0
  7  8  1  0  0  0  0
  8  4  1  6  0  0  0
  8  9  1  0  0  0  0
  9  5  1  0  0  0  0
 10 11  2  0  0  0  0
 11 19  1  0  0  0  0
 12 19  1  0  0  0  0
 13 18  1  0  0  0  0
 15 12  1  0  0  0  0
 16 15  1  0  0  0  0
 17 13  1  0  0  0  0
 17 16  2  0  0  0  0
 18 15  2  0  0  0  0
 18 10  1  0  0  0  0
 19 14  2  0  0  0  0
 20 16  1  0  0  0  0
 21 20  1  0  0  0  0
 22 23  2  6  0  0  0
 22 21  1  0  0  0  0
 22 24  1  0  0  0  0
 25 26  1  0  0  0  0
 26 22  1  0  0  0  0
 27 17  1  0  0  0  0
 28 27  1  0  0  0  0
 29 34  1  0  0  0  0
 30 33  1  0  0  0  0
 31 33  1  0  0  0  0
 31 32  2  0  0  0  0
 32 34  1  0  0  0  0
 33 29  1  0  0  0  0
 34 28  1  1  0  0  0
 36 35  1  1  0  0  0
 36 47  1  0  0  0  0
 37 36  1  0  0  0  0
 38 37  1  0  0  0  0
 39 37  2  0  0  0  0
 40 38  1  1  0  0  0
 41 40  1  0  0  0  0
 42 43  1  0  0  0  0
 43 44  2  0  0  0  0
 43 45  1  0  0  0  0
 44 41  1  0  0  0  0
 45 40  1  0  0  0  0
 46 44  1  0  0  0  0
 47 48  1  6  0  0  0
 47 55  1  0  0  0  0
 49 51  1  0  0  0  0
 51 53  1  0  0  0  0
 53 50  1  0  0  0  0
 53 52  2  0  0  0  0
 54 52  1  0  0  0  0
 55 51  2  0  0  0  0
 55 54  1  0  0  0  0
M  END
>  <MODEL>
4

>  <REMARK>
 VINA RESULT:      -4.4      2.105      3.218
  Name = 
  14 active torsions:
  status: ('A' for Active; 'I' for Inactive)
    1  A    between atoms: P_1  and  C_26
    2  A    between atoms: P_1  and  C_53
    3  A    between atoms: C_2  and  C_23
    4  A    between atoms: C_3  and  C_17
    5  A    between atoms: C_3  and  C_55
    6  A    between atoms: C_5  and  C_33
    7  A    between atoms: C_9  and  C_17
    8  A    between atoms: C_17  and  C_33
    9  A    between atoms: C_19  and  N_28
   10  A    between atoms: O_25  and  N_43
   11  A    between atoms: O_25  and  C_54
   12  A    between atoms: C_26  and  C_40
   13  A    between atoms: C_31  and  C_40
   14  A    between atoms: C_39  and  N_43
                            x       y       z     vdW  Elec       q    Type
                         _______ _______ _______ _____ _____    ______ ____

>  <TORSDO>
F 14

$$$$
=
 OpenBabel11072412443D

 55 60  0  0  1  0  0  0  0  0999 V2000
  161.5330  207.1220  150.4990 C   0  0  2  0  0  3  0  0  0  0  0  0
  161.1930  204.8870  149.7190 F   0  0  0  0  0  0  0  0  0  0  0  0
  160.8780  207.5530  151.6730 O   0  0  0  0  0  0  0  0  0  0  0  0
  160.3640  204.7890  152.3900 C   0  0  0  0  0  1  0  0  0  0  0  0
  161.7470  207.4090  152.7850 C   0  0  2  0  0  3  0  0  0  0  0  0
  161.9370  205.6550  150.5980 C   0  0  2  0  0  3  0  0  0  0  0  0
  162.5750  203.9880  152.1580 O   0  0  0  0  0  1  0  0  0  0  0  0
  161.8080  205.1480  152.0400 C   0  0  2  0  0  0  0  0  0  0  0  0
  162.3120  206.1090  152.9510 O   0  0  0  0  0  0  0  0  0  0  0  0
  161.0550  207.8730  154.0400 C   0  0  0  0  0  0  0  0  0  0  0  0
  160.8520  207.0430  155.0750 C   0  0  0  0  0  3  0  0  0  0  0  0
  159.6890  208.9090  156.5070 C   0  0  0  0  0  2  0  0  0  0  0  0
  160.6820  210.2090  153.2530 O   0  0  0  0  0  0  0  0  0  0  0  0
  160.0200  206.6600  157.2570 O   0  0  0  0  0  0  0  0  0  0  0  0
  159.9820  209.7380  155.2950 C   0  0  0  0  0  0  0  0  0  0  0  0
  159.6990  211.0600  155.0500 C   0  0  0  0  0  0  0  0  0  0  0  0
  160.1500  211.2960  153.7640 C   0  0  0  0  0  0  0  0  0  0  0  0
  160.5930  209.2630  154.1620 C   0  0  0  0  0  0  0  0  0  0  0  0
  160.1820  207.4890  156.3240 C   0  0  0  0  0  0  0  0  0  0  0  0
  159.0260  212.0330  155.9600 C   0  0  0  0  0  2  0  0  0  0  0  0
  157.7340  211.4360  156.4850 C   0  0  0  0  0  2  0  0  0  0  0  0
  156.3810  212.6250  156.2900 P   0  0  2  0  0  0  0  0  0  0  0  0
  156.2950  213.0370  154.8390 O   0  0  0  0  0  0  0  0  0  0  0  0
  156.6790  213.9930  157.2480 O   0  0  0  0  0  1  0  0  0  0  0  0
  154.9390  210.3490  156.7230 C   0  0  0  0  0  1  0  0  0  0  0  0
  154.8190  211.8530  156.8000 C   0  0  0  0  0  2  0  0  0  0  0  0
  160.0460  212.5350  153.0650 N   0  0  0  0  0  2  0  0  0  0  0  0
  160.4430  212.6390  151.7730 O   0  0  0  0  0  0  0  0  0  0  0  0
  159.0640  213.3660  149.9500 C   0  0  0  0  0  2  0  0  0  0  0  0
  156.6730  213.3160  149.3310 O   0  0  0  0  0  1  0  0  0  0  0  0
  157.4490  214.0110  151.5340 C   0  0  0  0  0  3  0  0  0  0  0  0
  158.5960  214.0790  152.1810 C   0  0  0  0  0  3  0  0  0  0  0  0
  157.6650  213.6370  150.1920 N   0  0  0  0  0  0  0  0  0  0  0  0
  159.7370  213.7380  151.2690 C   0  0  1  0  0  3  0  0  0  0  0  0
  162.7070  208.0280  150.1260 C   0  0  0  0  0  2  0  0  0  0  0  0
  162.5100  208.6220  148.7370 C   0  0  1  0  0  3  0  0  0  0  0  0
  162.2030  207.5270  147.7650 C   0  0  0  0  0  0  0  0  0  0  0  0
  160.8790  206.9850  147.7240 N   0  0  0  0  0  2  0  0  0  0  0  0
  163.1110  207.0690  147.0170 O   0  0  0  0  0  0  0  0  0  0  0  0
  160.4870  205.8070  146.9600 C   0  0  2  0  0  3  0  0  0  0  0  0
  161.6280  204.4160  147.2460 S   0  0  0  0  0  0  0  0  0  0  0  0
  159.5780  203.8510  143.7470 C   0  0  0  0  0  1  0  0  0  0  0  0
  160.3940  204.3820  144.8760 C   0  0  0  0  0  0  0  0  0  0  0  0
  160.9340  203.6000  145.8130 C   0  0  0  0  0  0  0  0  0  0  0  0
  160.4580  206.1450  145.1730 S   0  0  0  0  0  0  0  0  0  0  0  0
  160.7880  202.1200  145.8100 C   0  0  0  0  0  1  0  0  0  0  0  0
  161.3970  209.6800  148.7220 C   0  0  1  0  0  3  0  0  0  0  0  0
  160.8520  209.8560  149.9940 O   0  0  0  0  0  1  0  0  0  0  0  0
  159.8800  211.5610  146.7940 C   0  0  0  0  0  1  0  0  0  0  0  0
  161.5330  213.9490  146.1440 O   0  0  0  0  0  1  0  0  0  0  0  0
  161.2480  211.8310  147.3320 C   0  0  0  0  0  0  0  0  0  0  0  0
  163.2540  213.0460  147.6000 C   0  0  0  0  0  3  0  0  0  0  0  0
  161.9980  212.9680  147.0040 C   0  0  0  0  0  0  0  0  0  0  0  0
  163.4090  211.6680  148.5550 S   0  0  0  0  0  0  0  0  0  0  0  0
  161.9040  210.9950  148.2220 C   0  0  0  0  0  0  0  0  0  0  0  0
  1 35  1  1  0  0  0
  1  6  1  0  0  0  0
  1  3  1  0  0  0  0
  3  5  1  0  0  0  0
  5  9  1  0  0  0  0
  5 10  1  1  0  0  0
  6  2  1  6  0  0  0
  6  8  1  0  0  0  0
  8  7  1  0  0  0  0
  8  4  1  1  0  0  0
  8  9  1  0  0  0  0
 10 18  1  0  0  0  0
 10 11  2  0  0  0  0
 11 19  1  0  0  0  0
 13 17  1  0  0  0  0
 13 18  1  0  0  0  0
 15 12  1  0  0  0  0
 16 15  1  0  0  0  0
 16 20  1  0  0  0  0
 17 16  2  0  0  0  0
 18 15  2  0  0  0  0
 19 12  1  0  0  0  0
 19 14  2  0  0  0  0
 20 21  1  0  0  0  0
 22 23  2  6  0  0  0
 22 21  1  0  0  0  0
 22 26  1  0  0  0  0
 22 24  1  0  0  0  0
 25 26  1  0  0  0  0
 27 17  1  0  0  0  0
 28 27  1  0  0  0  0
 29 33  1  0  0  0  0
 29 34  1  0  0  0  0
 30 33  1  0  0  0  0
 31 32  2  0  0  0  0
 33 31  1  0  0  0  0
 34 28  1  1  0  0  0
 34 32  1  0  0  0  0
 36 35  1  1  0  0  0
 37 36  1  0  0  0  0
 38 37  1  0  0  0  0
 39 37  2  0  0  0  0
 40 41  1  0  0  0  0
 40 38  1  1  0  0  0
 42 43  1  0  0  0  0
 43 45  1  0  0  0  0
 43 44  2  0  0  0  0
 44 41  1  0  0  0  0
 45 40  1  0  0  0  0
 46 44  1  0  0  0  0
 47 36  1  0  0  0  0
 47 48  1  1  0  0  0
 49 51  1  0  0  0  0
 50 53  1  0  0  0  0
 51 55  2  0  0  0  0
 52 54  1  0  0  0  0
 53 51  1  0  0  0  0
 53 52  2  0  0  0  0
 55 54  1  0  0  0  0
 55 47  1  0  0  0  0
M  END
>  <MODEL>
5

>  <REMARK>
 VINA RESULT:      -4.2      3.391      8.222
  Name = 
  14 active torsions:
  status: ('A' for Active; 'I' for Inactive)
    1  A    between atoms: P_1  and  C_26
    2  A    between atoms: P_1  and  C_53
    3  A    between atoms: C_2  and  C_23
    4  A    between atoms: C_3  and  C_17
    5  A    between atoms: C_3  and  C_55
    6  A    between atoms: C_5  and  C_33
    7  A    between atoms: C_9  and  C_17
    8  A    between atoms: C_17  and  C_33
    9  A    between atoms: C_19  and  N_28
   10  A    between atoms: O_25  and  N_43
   11  A    between atoms: O_25  and  C_54
   12  A    between atoms: C_26  and  C_40
   13  A    between atoms: C_31  and  C_40
   14  A    between atoms: C_39  and  N_43
                            x       y       z     vdW  Elec       q    Type
                         _______ _______ _______ _____ _____    ______ ____

>  <TORSDO>
F 14

$$$$
=
 OpenBabel11072412443D

 55 60  0  0  1  0  0  0  0  0999 V2000
  160.7850  206.1080  150.3360 C   0  0  2  0  0  3  0  0  0  0  0  0
  160.1970  203.8130  149.9990 F   0  0  0  0  0  0  0  0  0  0  0  0
  160.4550  206.7350  151.5570 O   0  0  0  0  0  0  0  0  0  0  0  0
  160.0550  204.1320  152.7760 C   0  0  0  0  0  1  0  0  0  0  0  0
  161.5680  206.6870  152.4350 C   0  0  2  0  0  3  0  0  0  0  0  0
  161.1580  204.6440  150.5500 C   0  0  2  0  0  3  0  0  0  0  0  0
  162.1140  203.1660  152.1370 O   0  0  0  0  0  1  0  0  0  0  0  0
  161.3770  204.3460  152.0380 C   0  0  2  0  0  0  0  0  0  0  0  0
  162.1180  205.3880  152.6490 O   0  0  0  0  0  0  0  0  0  0  0  0
  161.2230  207.3610  153.7370 C   0  0  0  0  0  0  0  0  0  0  0  0
  161.1490  206.6680  154.8850 C   0  0  0  0  0  3  0  0  0  0  0  0
  160.5550  208.8070  156.2840 C   0  0  0  0  0  2  0  0  0  0  0  0
  160.9740  209.6420  152.7640 O   0  0  0  0  0  0  0  0  0  0  0  0
  160.7660  206.6140  157.2190 O   0  0  0  0  0  0  0  0  0  0  0  0
  160.6770  209.4680  154.9470 C   0  0  0  0  0  0  0  0  0  0  0  0
  160.5090  210.7890  154.6040 C   0  0  0  0  0  0  0  0  0  0  0  0
  160.6980  210.8360  153.2350 C   0  0  0  0  0  0  0  0  0  0  0  0
  160.9690  208.8080  153.7800 C   0  0  0  0  0  0  0  0  0  0  0  0
  160.8220  207.3210  156.1800 C   0  0  0  0  0  0  0  0  0  0  0  0
  160.1700  211.9290  155.5060 C   0  0  0  0  0  2  0  0  0  0  0  0
  159.2160  212.8750  154.8020 C   0  0  0  0  0  2  0  0  0  0  0  0
  157.5300  212.6190  155.4130 P   0  0  2  0  0  0  0  0  0  0  0  0
  157.5150  212.8210  156.9110 O   0  0  0  0  0  1  0  0  0  0  0  0
  157.0230  211.0420  155.0510 O   0  0  0  0  0  0  0  0  0  0  0  0
  155.5100  214.4370  155.6630 C   0  0  0  0  0  1  0  0  0  0  0  0
  156.4130  213.8150  154.6250 C   0  0  0  0  0  2  0  0  0  0  0  0
  160.5970  212.0070  152.4270 N   0  0  0  0  0  2  0  0  0  0  0  0
  159.9850  211.9650  151.2170 O   0  0  0  0  0  0  0  0  0  0  0  0
  158.6080  213.3580  149.8330 C   0  0  0  0  0  2  0  0  0  0  0  0
  156.3170  214.2820  149.8700 O   0  0  0  0  0  1  0  0  0  0  0  0
  157.8090  214.3800  151.7950 C   0  0  0  0  0  3  0  0  0  0  0  0
  159.0090  213.9370  152.1150 C   0  0  0  0  0  3  0  0  0  0  0  0
  157.5310  214.1070  150.4400 N   0  0  0  0  0  0  0  0  0  0  0  0
  159.6680  213.2980  150.9300 C   0  0  1  0  0  3  0  0  0  0  0  0
  161.8560  206.8770  149.5610 C   0  0  0  0  0  2  0  0  0  0  0  0
  161.4680  207.0100  148.0930 C   0  0  1  0  0  3  0  0  0  0  0  0
  161.4180  208.4580  147.7210 C   0  0  0  0  0  0  0  0  0  0  0  0
  162.0160  209.4220  148.5940 N   0  0  0  0  0  2  0  0  0  0  0  0
  160.8270  208.8220  146.6660 O   0  0  0  0  0  0  0  0  0  0  0  0
  161.8880  210.8670  148.4480 C   0  0  2  0  0  3  0  0  0  0  0  0
  160.6220  211.3040  147.2130 S   0  0  0  0  0  0  0  0  0  0  0  0
  163.1780  214.4530  147.7780 C   0  0  0  0  0  1  0  0  0  0  0  0
  162.5570  213.1210  147.5260 C   0  0  0  0  0  0  0  0  0  0  0  0
  161.2740  212.9700  147.1900 C   0  0  0  0  0  0  0  0  0  0  0  0
  163.4560  211.6300  147.9330 S   0  0  0  0  0  0  0  0  0  0  0  0
  160.3460  214.1190  147.0170 C   0  0  0  0  0  1  0  0  0  0  0  0
  162.4410  206.2540  147.1760 C   0  0  1  0  0  3  0  0  0  0  0  0
  163.6460  205.9890  147.8280 O   0  0  0  0  0  1  0  0  0  0  0  0
  160.6430  205.9270  144.6830 C   0  0  0  0  0  1  0  0  0  0  0  0
  159.7420  203.1040  144.4050 O   0  0  0  0  0  1  0  0  0  0  0  0
  161.0150  204.8110  145.6060 C   0  0  0  0  0  0  0  0  0  0  0  0
  161.0190  202.5900  146.4050 C   0  0  0  0  0  3  0  0  0  0  0  0
  160.5710  203.4920  145.4430 C   0  0  0  0  0  0  0  0  0  0  0  0
  161.9900  203.4700  147.4610 S   0  0  0  0  0  0  0  0  0  0  0  0
  161.8490  204.9650  146.7020 C   0  0  0  0  0  0  0  0  0  0  0  0
  1 35  1  1  0  0  0
  1  6  1  0  0  0  0
  1  3  1  0  0  0  0
  3  5  1  0  0  0  0
  5  9  1  0  0  0  0
  5 10  1  1  0  0  0
  6  2  1  1  0  0  0
  6  8  1  0  0  0  0
  8  7  1  0  0  0  0
  8  9  1  0  0  0  0
  8  4  1  1  0  0  0
 10 18  1  0  0  0  0
 10 11  2  0  0  0  0
 11 19  1  0  0  0  0
 13 17  1  0  0  0  0
 13 18  1  0  0  0  0
 15 12  1  0  0  0  0
 16 15  1  0  0  0  0
 16 20  1  0  0  0  0
 17 16  2  0  0  0  0
 18 15  2  0  0  0  0
 19 12  1  0  0  0  0
 19 14  2  0  0  0  0
 21 22  1  0  0  0  0
 21 20  1  0  0  0  0
 22 24  2  6  0  0  0
 22 23  1  0  0  0  0
 26 22  1  0  0  0  0
 26 25  1  0  0  0  0
 27 17  1  0  0  0  0
 28 27  1  0  0  0  0
 29 33  1  0  0  0  0
 29 34  1  0  0  0  0
 30 33  1  0  0  0  0
 31 32  2  0  0  0  0
 33 31  1  0  0  0  0
 34 28  1  1  0  0  0
 34 32  1  0  0  0  0
 36 35  1  1  0  0  0
 37 36  1  0  0  0  0
 37 38  1  0  0  0  0
 39 37  2  0  0  0  0
 40 38  1  6  0  0  0
 41 40  1  0  0  0  0
 43 42  1  0  0  0  0
 43 45  1  0  0  0  0
 44 41  1  0  0  0  0
 44 43  2  0  0  0  0
 45 40  1  0  0  0  0
 46 44  1  0  0  0  0
 47 48  1  1  0  0  0
 47 36  1  0  0  0  0
 49 51  1  0  0  0  0
 50 53  1  0  0  0  0
 51 55  2  0  0  0  0
 52 54  1  0  0  0  0
 53 51  1  0  0  0  0
 53 52  2  0  0  0  0
 55 47  1  0  0  0  0
 55 54  1  0  0  0  0
M  END
>  <MODEL>
6

>  <REMARK>
 VINA RESULT:      -4.1      3.182      8.682
  Name = 
  14 active torsions:
  status: ('A' for Active; 'I' for Inactive)
    1  A    between atoms: P_1  and  C_26
    2  A    between atoms: P_1  and  C_53
    3  A    between atoms: C_2  and  C_23
    4  A    between atoms: C_3  and  C_17
    5  A    between atoms: C_3  and  C_55
    6  A    between atoms: C_5  and  C_33
    7  A    between atoms: C_9  and  C_17
    8  A    between atoms: C_17  and  C_33
    9  A    between atoms: C_19  and  N_28
   10  A    between atoms: O_25  and  N_43
   11  A    between atoms: O_25  and  C_54
   12  A    between atoms: C_26  and  C_40
   13  A    between atoms: C_31  and  C_40
   14  A    between atoms: C_39  and  N_43
                            x       y       z     vdW  Elec       q    Type
                         _______ _______ _______ _____ _____    ______ ____

>  <TORSDO>
F 14

$$$$
