=
 OpenBabel11072414283D

 47 50  0  0  1  0  0  0  0  0999 V2000
  158.7840  214.3290  152.2310 N   0  0  0  0  0  2  0  0  0  0  0  0
  158.3480  213.6370  153.4510 C   0  0  0  0  0  2  0  0  0  0  0  0
  159.0450  213.2750  151.2680 C   0  0  1  0  0  3  0  0  0  0  0  0
  161.9560  214.4180  148.9440 C   0  0  0  0  0  1  0  0  0  0  0  0
  162.0180  210.8010  153.4340 O   0  0  0  0  0  0  0  0  0  0  0  0
  159.4250  212.6570  153.9780 C   0  0  0  0  0  2  0  0  0  0  0  0
  160.6210  211.7170  150.5040 N   0  0  2  0  0  0  0  0  0  0  0  0
  162.5450  212.0360  149.0640 C   0  0  0  0  0  2  0  0  0  0  0  0
  162.0700  211.5250  150.4150 C   0  0  2  0  0  3  0  0  0  0  0  0
  160.2360  212.5610  149.3540 C   0  0  2  0  0  3  0  0  0  0  0  0
  161.4950  213.0040  148.6080 C   0  0  1  0  0  0  0  0  0  0  0  0
  159.3610  213.7210  149.8740 C   0  0  1  0  0  3  0  0  0  0  0  0
  160.3010  212.5610  151.6600 C   0  0  2  0  0  3  0  0  0  0  0  0
  160.7680  210.7090  153.3150 C   0  0  0  0  0  0  0  0  0  0  0  0
  160.1250  209.5300  153.6650 O   0  0  0  0  0  1  0  0  0  0  0  0
  160.0010  211.8400  152.8990 N   0  0  0  0  0  0  0  0  0  0  0  0
  162.7390  212.7360  146.0440 O   0  0  0  0  0  0  0  0  0  0  0  0
  161.2370  212.8510  146.8160 P   0  0  1  0  0  0  0  0  0  0  0  0
  160.4240  211.6090  146.5250 O   0  0  0  0  0  1  0  0  0  0  0  0
  160.4010  214.2220  146.2670 O   0  0  0  0  0  0  0  0  0  0  0  0
  159.6080  213.7780  145.2060 C   0  0  0  0  0  2  0  0  0  0  0  0
  160.2820  214.1040  143.8840 C   0  0  0  0  0  2  0  0  0  0  0  0
  160.0300  211.8480  143.1500 O   0  0  0  0  0  0  0  0  0  0  0  0
  162.1000  212.8080  142.7060 N   0  0  0  0  0  1  0  0  0  0  0  0
  160.7750  212.8600  143.2250 C   0  0  0  0  0  0  0  0  0  0  0  0
  158.2200  213.9910  149.0790 O   0  0  0  0  0  0  0  0  0  0  0  0
  157.1610  213.1450  149.4510 C   0  0  0  0  0  2  0  0  0  0  0  0
  155.8920  213.9610  149.5850 C   0  0  0  0  0  1  0  0  0  0  0  0
  162.3920  210.0390  150.5340 C   0  0  0  0  0  2  0  0  0  0  0  0
  161.4120  209.1660  149.7590 C   0  0  2  0  0  3  0  0  0  0  0  0
  160.4590  207.6040  151.7500 O   0  0  0  0  0  0  0  0  0  0  0  0
  162.7140  207.1450  150.9300 O   0  0  0  0  0  0  0  0  0  0  0  0
  161.3270  207.5510  150.5230 S   0  0  0  0  0  0  0  0  0  0  0  0
  160.7080  206.3710  149.4110 N   0  0  0  0  0  2  0  0  0  0  0  0
  161.1990  205.0620  149.8080 C   0  0  2  0  0  3  0  0  0  0  0  0
  160.3770  202.7850  149.2550 N   0  0  0  0  0  0  0  0  0  0  0  0
  160.9100  204.0370  148.7020 C   0  0  0  0  0  2  0  0  0  0  0  0
  160.5910  204.6740  151.0140 O   0  0  0  0  0  0  0  0  0  0  0  0
  161.2860  203.5300  151.4440 C   0  0  1  0  0  3  0  0  0  0  0  0
  160.8380  203.1610  152.7130 O   0  0  0  0  0  1  0  0  0  0  0  0
  161.0900  202.3590  150.4670 C   0  0  0  0  0  2  0  0  0  0  0  0
  160.9320  201.9700  146.9260 C   0  0  0  0  0  0  0  0  0  0  0  0
  160.4880  201.7740  148.2790 N   0  0  0  0  0  2  0  0  0  0  0  0
  161.3690  203.3060  146.4260 C   0  0  0  0  0  1  0  0  0  0  0  0
  160.9560  200.9870  146.1390 O   0  0  0  0  0  0  0  0  0  0  0  0
  162.8780  208.1710  148.1560 O   0  0  0  0  0  1  0  0  0  0  0  0
  161.8180  209.0650  148.2960 C   0  0  0  0  0  2  0  0  0  0  0  0
  1  2  1  0  0  0  0
  2  6  1  0  0  0  0
  3 13  1  0  0  0  0
  3  1  1  1  0  0  0
  7 13  1  0  0  0  0
  8  9  1  0  0  0  0
  9  7  1  0  0  0  0
  9 29  1  0  0  0  0
 10 12  1  0  0  0  0
 10  7  1  0  0  0  0
 11  4  1  0  0  0  0
 11  8  1  0  0  0  0
 11 10  1  0  0  0  0
 12  3  1  0  0  0  0
 13 16  1  0  0  0  0
 14  5  2  0  0  0  0
 14 15  1  0  0  0  0
 16 14  1  0  0  0  0
 16  6  1  0  0  0  0
 17 18  2  0  0  0  0
 18 11  1  0  0  0  0
 19 18  1  0  0  0  0
 20 18  1  0  0  0  0
 21 20  1  0  0  0  0
 22 21  1  0  0  0  0
 23 25  2  0  0  0  0
 24 25  1  0  0  0  0
 25 22  1  0  0  0  0
 26 27  1  0  0  0  0
 26 12  1  0  0  0  0
 27 28  1  0  0  0  0
 30 33  1  0  0  0  0
 30 29  1  0  0  0  0
 33 32  2  0  0  0  0
 33 31  2  0  0  0  0
 34 35  1  0  0  0  0
 34 33  1  0  0  0  0
 35 38  1  0  0  0  0
 36 41  1  0  0  0  0
 37 36  1  0  0  0  0
 37 35  1  0  0  0  0
 38 39  1  0  0  0  0
 39 40  1  0  0  0  0
 41 39  1  0  0  0  0
 42 43  1  0  0  0  0
 43 36  1  0  0  0  0
 44 42  1  0  0  0  0
 45 42  2  0  0  0  0
 46 47  1  0  0  0  0
 47 30  1  0  0  0  0
M  END
>  <MODEL>
1

>  <REMARK>
 VINA RESULT:      -5.2      0.000      0.000
  Name = 
  14 active torsions:
  status: ('A' for Active; 'I' for Inactive)
    1  A    between atoms: O_4  and  C_27
    2  A    between atoms: O_4  and  P_34
    3  A    between atoms: C_6  and  N_13
    4  A    between atoms: C_7  and  C_30
    5  A    between atoms: C_7  and  C_36
    6  A    between atoms: C_7  and  S_42
    7  A    between atoms: N_8  and  N_23
    8  A    between atoms: C_11  and  C_27
    9  A    between atoms: C_11  and  C_47
   10  A    between atoms: N_13  and  S_42
   11  A    between atoms: C_19  and  O_20
   12  A    between atoms: O_20  and  C_29
   13  A    between atoms: C_21  and  C_36
   14  A    between atoms: C_28  and  P_34
                            x       y       z     vdW  Elec       q    Type
                         _______ _______ _______ _____ _____    ______ ____

>  <TORSDO>
F 14

$$$$
=
 OpenBabel11072414283D

 47 50  0  0  1  0  0  0  0  0999 V2000
  160.7300  211.6940  155.3640 N   0  0  0  0  0  2  0  0  0  0  0  0
  159.9280  211.1140  156.4480 C   0  0  0  0  0  2  0  0  0  0  0  0
  160.2890  211.0130  154.1600 C   0  0  1  0  0  3  0  0  0  0  0  0
  163.3210  210.7160  151.7290 C   0  0  0  0  0  1  0  0  0  0  0  0
  160.9900  206.7680  155.2260 O   0  0  0  0  0  0  0  0  0  0  0  0
  160.1350  209.5840  156.5680 C   0  0  0  0  0  2  0  0  0  0  0  0
  160.5480  209.1000  152.8300 N   0  0  2  0  0  0  0  0  0  0  0  0
  162.2740  208.5530  151.2190 C   0  0  0  0  0  2  0  0  0  0  0  0
  161.5540  208.0960  152.4770 C   0  0  2  0  0  3  0  0  0  0  0  0
  160.8070  210.2750  151.9730 C   0  0  2  0  0  3  0  0  0  0  0  0
  162.0790  210.0380  151.1600 C   0  0  1  0  0  0  0  0  0  0  0  0
  160.8460  211.5300  152.8690 C   0  0  1  0  0  3  0  0  0  0  0  0
  160.8060  209.6080  154.1810 C   0  0  2  0  0  3  0  0  0  0  0  0
  159.9650  207.4960  155.2850 C   0  0  0  0  0  0  0  0  0  0  0  0
  158.7150  206.9160  155.4560 O   0  0  0  0  0  1  0  0  0  0  0  0
  160.0910  208.9180  155.2580 N   0  0  0  0  0  0  0  0  0  0  0  0
  163.2550  211.2510  148.8480 O   0  0  0  0  0  1  0  0  0  0  0  0
  161.8220  210.5700  149.4410 P   0  0  1  0  0  0  0  0  0  0  0  0
  161.4430  209.3770  148.5930 O   0  0  0  0  0  0  0  0  0  0  0  0
  160.5720  211.7160  149.4070 O   0  0  0  0  0  0  0  0  0  0  0  0
  161.0970  212.8260  148.7400 C   0  0  0  0  0  2  0  0  0  0  0  0
  160.2760  213.1180  147.4950 C   0  0  0  0  0  2  0  0  0  0  0  0
  160.8640  212.7890  145.2070 O   0  0  0  0  0  0  0  0  0  0  0  0
  162.3670  214.0610  146.4420 N   0  0  0  0  0  1  0  0  0  0  0  0
  161.1640  213.3110  146.3130 C   0  0  0  0  0  0  0  0  0  0  0  0
  160.1490  212.6450  152.3420 O   0  0  0  0  0  0  0  0  0  0  0  0
  158.7660  212.3930  152.3420 C   0  0  0  0  0  2  0  0  0  0  0  0
  158.0850  213.3370  151.3740 C   0  0  0  0  0  1  0  0  0  0  0  0
  160.8650  206.7620  152.2070 C   0  0  0  0  0  2  0  0  0  0  0  0
  161.7190  205.8270  151.3580 C   0  0  2  0  0  3  0  0  0  0  0  0
  159.9810  206.5970  149.4350 O   0  0  0  0  0  0  0  0  0  0  0  0
  159.9620  204.2480  150.1030 O   0  0  0  0  0  0  0  0  0  0  0  0
  160.8430  205.4360  149.8470 S   0  0  0  0  0  0  0  0  0  0  0  0
  161.9520  205.0400  148.5730 N   0  0  0  0  0  2  0  0  0  0  0  0
  161.1900  204.7930  147.3600 C   0  0  2  0  0  3  0  0  0  0  0  0
  161.3410  202.9570  145.6950 N   0  0  0  0  0  0  0  0  0  0  0  0
  161.0870  203.2820  147.1040 C   0  0  0  0  0  2  0  0  0  0  0  0
  161.8070  205.4370  146.2750 O   0  0  0  0  0  0  0  0  0  0  0  0
  160.8950  205.3520  145.2070 C   0  0  1  0  0  3  0  0  0  0  0  0
  161.3700  206.0950  144.1260 O   0  0  0  0  0  1  0  0  0  0  0  0
  160.6790  203.8920  144.7750 C   0  0  0  0  0  2  0  0  0  0  0  0
  161.0520  200.5190  146.3030 C   0  0  0  0  0  0  0  0  0  0  0  0
  160.8710  201.6520  145.4390 N   0  0  0  0  0  2  0  0  0  0  0  0
  161.7480  200.6330  147.6190 C   0  0  0  0  0  1  0  0  0  0  0  0
  160.6110  199.3950  145.9440 O   0  0  0  0  0  0  0  0  0  0  0  0
  161.1550  204.3610  153.1590 O   0  0  0  0  0  1  0  0  0  0  0  0
  162.0730  204.5650  152.1320 C   0  0  0  0  0  2  0  0  0  0  0  0
  1  2  1  0  0  0  0
  2  6  1  0  0  0  0
  3 13  1  0  0  0  0
  3  1  1  1  0  0  0
  5 14  2  0  0  0  0
  7 13  1  0  0  0  0
  8  9  1  0  0  0  0
  9  7  1  0  0  0  0
 10  7  1  0  0  0  0
 10 12  1  0  0  0  0
 11  8  1  0  0  0  0
 11  4  1  0  0  0  0
 11 10  1  0  0  0  0
 12  3  1  0  0  0  0
 13 16  1  0  0  0  0
 14 15  1  0  0  0  0
 16 14  1  0  0  0  0
 16  6  1  0  0  0  0
 17 18  1  0  0  0  0
 18 11  1  0  0  0  0
 19 18  2  0  0  0  0
 20 18  1  0  0  0  0
 21 20  1  0  0  0  0
 22 21  1  0  0  0  0
 23 25  2  0  0  0  0
 25 24  1  0  0  0  0
 25 22  1  0  0  0  0
 26 12  1  0  0  0  0
 27 26  1  0  0  0  0
 28 27  1  0  0  0  0
 29  9  1  0  0  0  0
 30 47  1  0  0  0  0
 30 29  1  0  0  0  0
 31 33  2  0  0  0  0
 33 32  2  0  0  0  0
 33 30  1  0  0  0  0
 34 33  1  0  0  0  0
 35 34  1  0  0  0  0
 36 37  1  0  0  0  0
 37 35  1  0  0  0  0
 38 35  1  0  0  0  0
 39 38  1  0  0  0  0
 40 39  1  0  0  0  0
 41 39  1  0  0  0  0
 41 36  1  0  0  0  0
 42 44  1  0  0  0  0
 43 36  1  0  0  0  0
 43 42  1  0  0  0  0
 45 42  2  0  0  0  0
 47 46  1  0  0  0  0
M  END
>  <MODEL>
2

>  <REMARK>
 VINA RESULT:      -4.8      2.459      4.061
  Name = 
  14 active torsions:
  status: ('A' for Active; 'I' for Inactive)
    1  A    between atoms: O_4  and  C_27
    2  A    between atoms: O_4  and  P_34
    3  A    between atoms: C_6  and  N_13
    4  A    between atoms: C_7  and  C_30
    5  A    between atoms: C_7  and  C_36
    6  A    between atoms: C_7  and  S_42
    7  A    between atoms: N_8  and  N_23
    8  A    between atoms: C_11  and  C_27
    9  A    between atoms: C_11  and  C_47
   10  A    between atoms: N_13  and  S_42
   11  A    between atoms: C_19  and  O_20
   12  A    between atoms: O_20  and  C_29
   13  A    between atoms: C_21  and  C_36
   14  A    between atoms: C_28  and  P_34
                            x       y       z     vdW  Elec       q    Type
                         _______ _______ _______ _____ _____    ______ ____

>  <TORSDO>
F 14

$$$$
=
 OpenBabel11072414283D

 47 50  0  0  1  0  0  0  0  0999 V2000
  160.7400  211.6800  155.2680 N   0  0  0  0  0  2  0  0  0  0  0  0
  159.9480  211.0970  156.3590 C   0  0  0  0  0  2  0  0  0  0  0  0
  160.3080  210.9830  154.0700 C   0  0  1  0  0  3  0  0  0  0  0  0
  163.3400  210.7110  151.6380 C   0  0  0  0  0  1  0  0  0  0  0  0
  161.0730  206.7570  155.1700 O   0  0  0  0  0  0  0  0  0  0  0  0
  160.1780  209.5700  156.4910 C   0  0  0  0  0  2  0  0  0  0  0  0
  160.5930  209.0630  152.7560 N   0  0  2  0  0  0  0  0  0  0  0  0
  162.3250  208.5290  151.1460 C   0  0  0  0  0  2  0  0  0  0  0  0
  161.6130  208.0710  152.4090 C   0  0  2  0  0  3  0  0  0  0  0  0
  160.8330  210.2350  151.8890 C   0  0  2  0  0  3  0  0  0  0  0  0
  162.1080  210.0100  151.0760 C   0  0  1  0  0  0  0  0  0  0  0  0
  160.8560  211.4980  152.7750 C   0  0  1  0  0  3  0  0  0  0  0  0
  160.8450  209.5850  154.1020 C   0  0  2  0  0  3  0  0  0  0  0  0
  160.0370  207.4700  155.2240 C   0  0  0  0  0  0  0  0  0  0  0  0
  158.7960  206.8740  155.4010 O   0  0  0  0  0  1  0  0  0  0  0  0
  160.1420  208.8930  155.1860 N   0  0  0  0  0  0  0  0  0  0  0  0
  163.2690  211.2020  148.7460 O   0  0  0  0  0  1  0  0  0  0  0  0
  161.8410  210.5240  149.3540 P   0  0  1  0  0  0  0  0  0  0  0  0
  161.4590  209.3220  148.5190 O   0  0  0  0  0  0  0  0  0  0  0  0
  160.5890  211.6680  149.3150 O   0  0  0  0  0  0  0  0  0  0  0  0
  161.1570  212.8300  148.7870 C   0  0  0  0  0  2  0  0  0  0  0  0
  160.3310  213.3220  147.6100 C   0  0  0  0  0  2  0  0  0  0  0  0
  160.3570  212.4620  145.3860 O   0  0  0  0  0  0  0  0  0  0  0  0
  162.3950  213.2680  146.1590 N   0  0  0  0  0  1  0  0  0  0  0  0
  161.0070  212.9990  146.3210 C   0  0  0  0  0  0  0  0  0  0  0  0
  160.1410  212.5980  152.2400 O   0  0  0  0  0  0  0  0  0  0  0  0
  158.7640  212.3130  152.2150 C   0  0  0  0  0  2  0  0  0  0  0  0
  158.0000  213.4830  152.7980 C   0  0  0  0  0  1  0  0  0  0  0  0
  160.9440  206.7250  152.1510 C   0  0  0  0  0  2  0  0  0  0  0  0
  161.8310  205.7760  151.3530 C   0  0  2  0  0  3  0  0  0  0  0  0
  162.1690  205.8440  148.6710 O   0  0  0  0  0  0  0  0  0  0  0  0
  159.9900  206.5070  149.5550 O   0  0  0  0  0  0  0  0  0  0  0  0
  161.1340  205.5480  149.7210 S   0  0  0  0  0  0  0  0  0  0  0  0
  160.5350  203.9320  149.5240 N   0  0  0  0  0  2  0  0  0  0  0  0
  161.1590  203.3500  148.3470 C   0  0  2  0  0  3  0  0  0  0  0  0
  160.4380  203.3310  145.9710 N   0  0  0  0  0  0  0  0  0  0  0  0
  160.8150  204.1840  147.1050 C   0  0  0  0  0  2  0  0  0  0  0  0
  160.7240  202.0230  148.1880 O   0  0  0  0  0  0  0  0  0  0  0  0
  161.5410  201.4670  147.1880 C   0  0  1  0  0  3  0  0  0  0  0  0
  161.2710  200.1040  147.0680 O   0  0  0  0  0  1  0  0  0  0  0  0
  161.3150  202.1600  145.8340 C   0  0  0  0  0  2  0  0  0  0  0  0
  161.5300  205.0490  144.4710 C   0  0  0  0  0  0  0  0  0  0  0  0
  160.5050  204.0940  144.7870 N   0  0  0  0  0  2  0  0  0  0  0  0
  162.6820  205.3020  145.3860 C   0  0  0  0  0  1  0  0  0  0  0  0
  161.4590  205.6930  143.3910 O   0  0  0  0  0  0  0  0  0  0  0  0
  160.8480  204.1710  152.8240 O   0  0  0  0  0  1  0  0  0  0  0  0
  161.9900  204.4470  152.0760 C   0  0  0  0  0  2  0  0  0  0  0  0
  1  2  1  0  0  0  0
  2  6  1  0  0  0  0
  3 13  1  0  0  0  0
  3  1  1  1  0  0  0
  5 14  2  0  0  0  0
  7 13  1  0  0  0  0
  8  9  1  0  0  0  0
  9  7  1  0  0  0  0
 10  7  1  0  0  0  0
 10 12  1  0  0  0  0
 11  8  1  0  0  0  0
 11  4  1  0  0  0  0
 11 10  1  0  0  0  0
 12  3  1  0  0  0  0
 13 16  1  0  0  0  0
 14 15  1  0  0  0  0
 16 14  1  0  0  0  0
 16  6  1  0  0  0  0
 17 18  1  0  0  0  0
 18 11  1  0  0  0  0
 19 18  2  0  0  0  0
 20 18  1  0  0  0  0
 21 20  1  0  0  0  0
 22 21  1  0  0  0  0
 23 25  2  0  0  0  0
 24 25  1  0  0  0  0
 25 22  1  0  0  0  0
 26 12  1  0  0  0  0
 27 26  1  0  0  0  0
 27 28  1  0  0  0  0
 29  9  1  0  0  0  0
 30 47  1  0  0  0  0
 30 29  1  0  0  0  0
 31 33  2  0  0  0  0
 32 33  2  0  0  0  0
 33 30  1  0  0  0  0
 34 33  1  0  0  0  0
 35 34  1  0  0  0  0
 36 37  1  0  0  0  0
 37 35  1  0  0  0  0
 38 35  1  0  0  0  0
 39 38  1  0  0  0  0
 40 39  1  0  0  0  0
 41 36  1  0  0  0  0
 41 39  1  0  0  0  0
 42 43  1  0  0  0  0
 42 44  1  0  0  0  0
 43 36  1  0  0  0  0
 45 42  2  0  0  0  0
 47 46  1  0  0  0  0
M  END
>  <MODEL>
3

>  <REMARK>
 VINA RESULT:      -4.5      2.452      3.957
  Name = 
  14 active torsions:
  status: ('A' for Active; 'I' for Inactive)
    1  A    between atoms: O_4  and  C_27
    2  A    between atoms: O_4  and  P_34
    3  A    between atoms: C_6  and  N_13
    4  A    between atoms: C_7  and  C_30
    5  A    between atoms: C_7  and  C_36
    6  A    between atoms: C_7  and  S_42
    7  A    between atoms: N_8  and  N_23
    8  A    between atoms: C_11  and  C_27
    9  A    between atoms: C_11  and  C_47
   10  A    between atoms: N_13  and  S_42
   11  A    between atoms: C_19  and  O_20
   12  A    between atoms: O_20  and  C_29
   13  A    between atoms: C_21  and  C_36
   14  A    between atoms: C_28  and  P_34
                            x       y       z     vdW  Elec       q    Type
                         _______ _______ _______ _____ _____    ______ ____

>  <TORSDO>
F 14

$$$$
=
 OpenBabel11072414283D

 47 50  0  0  1  0  0  0  0  0999 V2000
  162.5920  209.3140  148.7060 N   0  0  0  0  0  2  0  0  0  0  0  0
  162.0990  210.6880  148.5460 C   0  0  0  0  0  2  0  0  0  0  0  0
  161.5710  208.6320  149.4810 C   0  0  1  0  0  3  0  0  0  0  0  0
  163.3040  205.9500  151.7140 C   0  0  0  0  0  1  0  0  0  0  0  0
  161.3330  211.1900  153.0930 O   0  0  0  0  0  1  0  0  0  0  0  0
  161.8780  211.3870  149.9110 C   0  0  0  0  0  2  0  0  0  0  0  0
  160.7660  208.2010  151.6390 N   0  0  2  0  0  0  0  0  0  0  0  0
  161.5610  206.6300  153.3060 C   0  0  0  0  0  2  0  0  0  0  0  0
  161.2380  208.0880  153.0220 C   0  0  2  0  0  3  0  0  0  0  0  0
  161.0320  206.8980  150.9960 C   0  0  2  0  0  3  0  0  0  0  0  0
  161.8010  206.0010  151.9670 C   0  0  1  0  0  0  0  0  0  0  0  0
  161.7550  207.1560  149.6570 C   0  0  1  0  0  3  0  0  0  0  0  0
  161.6260  209.1240  150.8940 C   0  0  2  0  0  3  0  0  0  0  0  0
  160.6580  211.1630  152.0320 C   0  0  0  0  0  0  0  0  0  0  0  0
  159.4410  211.8280  151.9690 O   0  0  0  0  0  0  0  0  0  0  0  0
  161.1760  210.5180  150.8670 N   0  0  0  0  0  0  0  0  0  0  0  0
  162.3820  203.1980  151.9600 O   0  0  0  0  0  0  0  0  0  0  0  0
  161.1140  204.3190  151.9300 P   0  0  1  0  0  0  0  0  0  0  0  0
  160.2260  204.1080  153.1370 O   0  0  0  0  0  1  0  0  0  0  0  0
  160.2030  204.1340  150.5110 O   0  0  0  0  0  0  0  0  0  0  0  0
  160.9950  203.3650  149.6540 C   0  0  0  0  0  2  0  0  0  0  0  0
  160.1990  202.1770  149.1410 C   0  0  0  0  0  2  0  0  0  0  0  0
  161.0680  201.8040  146.9510 O   0  0  0  0  0  0  0  0  0  0  0  0
  161.6390  200.1970  148.5290 N   0  0  0  0  0  1  0  0  0  0  0  0
  160.9920  201.4040  148.1430 C   0  0  0  0  0  0  0  0  0  0  0  0
  161.2740  206.3790  148.5760 O   0  0  0  0  0  0  0  0  0  0  0  0
  162.1940  206.4080  147.5130 C   0  0  0  0  0  2  0  0  0  0  0  0
  162.0240  205.1640  146.6670 C   0  0  0  0  0  1  0  0  0  0  0  0
  160.1410  208.5570  153.9720 C   0  0  0  0  0  2  0  0  0  0  0  0
  160.6840  208.9480  155.3410 C   0  0  2  0  0  3  0  0  0  0  0  0
  158.8000  209.5910  157.1720 O   0  0  0  0  0  0  0  0  0  0  0  0
  158.6960  210.7040  155.0000 O   0  0  0  0  0  0  0  0  0  0  0  0
  159.6220  210.1920  156.0650 S   0  0  0  0  0  0  0  0  0  0  0  0
  160.5530  211.5230  156.6750 N   0  0  0  0  0  2  0  0  0  0  0  0
  159.8440  212.7560  156.3780 C   0  0  2  0  0  3  0  0  0  0  0  0
  157.4120  213.2250  156.1920 N   0  0  0  0  0  0  0  0  0  0  0  0
  158.4810  212.7610  157.0850 C   0  0  0  0  0  2  0  0  0  0  0  0
  159.6800  212.8850  154.9880 O   0  0  0  0  0  0  0  0  0  0  0  0
  159.2100  214.1930  154.7750 C   0  0  1  0  0  3  0  0  0  0  0  0
  159.1560  214.4530  153.4060 O   0  0  0  0  0  1  0  0  0  0  0  0
  157.8160  214.3910  155.3930 C   0  0  0  0  0  2  0  0  0  0  0  0
  155.0000  213.9390  156.4510 C   0  0  0  0  0  0  0  0  0  0  0  0
  156.2880  213.5690  156.9700 N   0  0  0  0  0  2  0  0  0  0  0  0
  154.7150  213.9560  154.9860 C   0  0  0  0  0  1  0  0  0  0  0  0
  154.0830  214.2580  157.2530 O   0  0  0  0  0  0  0  0  0  0  0  0
  162.7280  209.4220  156.4860 O   0  0  0  0  0  1  0  0  0  0  0  0
  162.1190  209.4420  155.2330 C   0  0  0  0  0  2  0  0  0  0  0  0
  2  1  1  0  0  0  0
  2  6  1  0  0  0  0
  3  1  1  6  0  0  0
  3 12  1  0  0  0  0
  3 13  1  0  0  0  0
  4 11  1  0  0  0  0
  6 16  1  0  0  0  0
  7  9  1  0  0  0  0
  9  8  1  0  0  0  0
  9 29  1  0  0  0  0
 10  7  1  0  0  0  0
 10 11  1  0  0  0  0
 11  8  1  0  0  0  0
 12 10  1  0  0  0  0
 13  7  1  0  0  0  0
 14  5  1  0  0  0  0
 15 14  2  0  0  0  0
 16 13  1  0  0  0  0
 16 14  1  0  0  0  0
 18 17  2  0  0  0  0
 18 11  1  0  0  0  0
 18 19  1  0  0  0  0
 20 18  1  0  0  0  0
 21 20  1  0  0  0  0
 22 21  1  0  0  0  0
 23 25  2  0  0  0  0
 25 24  1  0  0  0  0
 25 22  1  0  0  0  0
 26 12  1  0  0  0  0
 27 26  1  0  0  0  0
 28 27  1  0  0  0  0
 29 30  1  0  0  0  0
 30 33  1  0  0  0  0
 32 33  2  0  0  0  0
 33 34  1  0  0  0  0
 33 31  2  0  0  0  0
 35 34  1  0  0  0  0
 35 37  1  0  0  0  0
 36 43  1  0  0  0  0
 36 37  1  0  0  0  0
 38 35  1  0  0  0  0
 39 38  1  0  0  0  0
 39 41  1  0  0  0  0
 40 39  1  0  0  0  0
 41 36  1  0  0  0  0
 42 43  1  0  0  0  0
 42 45  2  0  0  0  0
 44 42  1  0  0  0  0
 47 30  1  0  0  0  0
 47 46  1  0  0  0  0
M  END
>  <MODEL>
4

>  <REMARK>
 VINA RESULT:      -4.1      3.817      9.639
  Name = 
  14 active torsions:
  status: ('A' for Active; 'I' for Inactive)
    1  A    between atoms: O_4  and  C_27
    2  A    between atoms: O_4  and  P_34
    3  A    between atoms: C_6  and  N_13
    4  A    between atoms: C_7  and  C_30
    5  A    between atoms: C_7  and  C_36
    6  A    between atoms: C_7  and  S_42
    7  A    between atoms: N_8  and  N_23
    8  A    between atoms: C_11  and  C_27
    9  A    between atoms: C_11  and  C_47
   10  A    between atoms: N_13  and  S_42
   11  A    between atoms: C_19  and  O_20
   12  A    between atoms: O_20  and  C_29
   13  A    between atoms: C_21  and  C_36
   14  A    between atoms: C_28  and  P_34
                            x       y       z     vdW  Elec       q    Type
                         _______ _______ _______ _____ _____    ______ ____

>  <TORSDO>
F 14

$$$$
=
 OpenBabel11072414283D

 47 50  0  0  1  0  0  0  0  0999 V2000
  159.0470  214.0580  149.8190 N   0  0  0  0  0  2  0  0  0  0  0  0
  159.8030  214.4390  148.6190 C   0  0  0  0  0  2  0  0  0  0  0  0
  160.0280  213.4810  150.7190 C   0  0  1  0  0  3  0  0  0  0  0  0
  158.2910  210.6970  152.8200 C   0  0  0  0  0  1  0  0  0  0  0  0
  161.7400  210.2440  148.2210 O   0  0  0  0  0  1  0  0  0  0  0  0
  160.5080  213.2240  147.9670 C   0  0  0  0  0  2  0  0  0  0  0  0
  161.2020  211.5340  151.2900 N   0  0  2  0  0  0  0  0  0  0  0  0
  160.4780  209.6050  152.5680 C   0  0  0  0  0  2  0  0  0  0  0  0
  161.0640  210.0770  151.2470 C   0  0  2  0  0  3  0  0  0  0  0  0
  160.4820  211.9900  152.4980 C   0  0  2  0  0  3  0  0  0  0  0  0
  159.7780  210.7980  153.1470 C   0  0  1  0  0  0  0  0  0  0  0  0
  159.5420  213.1450  152.0960 C   0  0  1  0  0  3  0  0  0  0  0  0
  160.4360  212.1390  150.1960 C   0  0  2  0  0  3  0  0  0  0  0  0
  162.1130  211.4250  148.4450 C   0  0  0  0  0  0  0  0  0  0  0  0
  163.4020  211.8180  148.1120 O   0  0  0  0  0  0  0  0  0  0  0  0
  161.1890  212.3830  148.9630 N   0  0  0  0  0  0  0  0  0  0  0  0
  159.5900  209.3470  155.6080 O   0  0  0  0  0  1  0  0  0  0  0  0
  160.0090  210.8500  154.9480 P   0  0  1  0  0  0  0  0  0  0  0  0
  161.4570  211.1520  155.2650 O   0  0  0  0  0  0  0  0  0  0  0  0
  159.0180  212.0670  155.5900 O   0  0  0  0  0  0  0  0  0  0  0  0
  158.1540  211.4190  156.4770 C   0  0  0  0  0  2  0  0  0  0  0  0
  157.1730  212.4190  157.0670 C   0  0  0  0  0  2  0  0  0  0  0  0
  155.4950  212.7010  155.3960 O   0  0  0  0  0  0  0  0  0  0  0  0
  154.8430  211.4700  157.2560 N   0  0  0  0  0  1  0  0  0  0  0  0
  155.8060  212.2070  156.5110 C   0  0  0  0  0  0  0  0  0  0  0  0
  159.5460  214.2390  152.9950 O   0  0  0  0  0  0  0  0  0  0  0  0
  158.3270  214.2940  153.6940 C   0  0  0  0  0  2  0  0  0  0  0  0
  157.1830  214.3440  152.7030 C   0  0  0  0  0  1  0  0  0  0  0  0
  162.4380  209.4440  151.0500 C   0  0  0  0  0  2  0  0  0  0  0  0
  162.4210  207.9350  151.2670 C   0  0  2  0  0  3  0  0  0  0  0  0
  160.4570  208.1230  149.4170 O   0  0  0  0  0  0  0  0  0  0  0  0
  160.7620  205.9700  150.5290 O   0  0  0  0  0  0  0  0  0  0  0  0
  161.4780  207.1610  149.9580 S   0  0  0  0  0  0  0  0  0  0  0  0
  162.5190  206.6210  148.6800 N   0  0  0  0  0  2  0  0  0  0  0  0
  161.7120  205.9240  147.6920 C   0  0  2  0  0  3  0  0  0  0  0  0
  161.7940  203.5730  146.8970 N   0  0  0  0  0  0  0  0  0  0  0  0
  161.5920  204.4400  148.0660 C   0  0  0  0  0  2  0  0  0  0  0  0
  162.2910  206.0690  146.4200 O   0  0  0  0  0  0  0  0  0  0  0  0
  161.3410  205.5810  145.5060 C   0  0  1  0  0  3  0  0  0  0  0  0
  161.7790  205.8200  144.2030 O   0  0  0  0  0  1  0  0  0  0  0  0
  161.1020  204.0740  145.7010 C   0  0  0  0  0  2  0  0  0  0  0  0
  160.8390  201.8530  148.4880 C   0  0  0  0  0  0  0  0  0  0  0  0
  161.3090  202.2840  147.2000 N   0  0  0  0  0  2  0  0  0  0  0  0
  160.7860  202.7790  149.6580 C   0  0  0  0  0  1  0  0  0  0  0  0
  160.4610  200.6620  148.6380 O   0  0  0  0  0  0  0  0  0  0  0  0
  162.1490  206.2700  152.9590 O   0  0  0  0  0  1  0  0  0  0  0  0
  161.8510  207.5910  152.6350 C   0  0  0  0  0  2  0  0  0  0  0  0
  2  1  1  0  0  0  0
  3  1  1  6  0  0  0
  3 12  1  0  0  0  0
  4 11  1  0  0  0  0
  5 14  1  0  0  0  0
  6  2  1  0  0  0  0
  6 16  1  0  0  0  0
  7 10  1  0  0  0  0
  8 11  1  0  0  0  0
  9  7  1  0  0  0  0
  9  8  1  0  0  0  0
 10 11  1  0  0  0  0
 11 18  1  0  0  0  0
 12 10  1  0  0  0  0
 12 26  1  0  0  0  0
 13  3  1  0  0  0  0
 13  7  1  0  0  0  0
 14 16  1  0  0  0  0
 15 14  2  0  0  0  0
 16 13  1  0  0  0  0
 18 19  2  0  0  0  0
 18 20  1  0  0  0  0
 18 17  1  0  0  0  0
 20 21  1  0  0  0  0
 21 22  1  0  0  0  0
 23 25  2  0  0  0  0
 25 22  1  0  0  0  0
 25 24  1  0  0  0  0
 26 27  1  0  0  0  0
 28 27  1  0  0  0  0
 29  9  1  0  0  0  0
 29 30  1  0  0  0  0
 30 47  1  0  0  0  0
 31 33  2  0  0  0  0
 33 32  2  0  0  0  0
 33 30  1  0  0  0  0
 34 33  1  0  0  0  0
 35 37  1  0  0  0  0
 35 34  1  0  0  0  0
 36 43  1  0  0  0  0
 36 37  1  0  0  0  0
 38 35  1  0  0  0  0
 39 41  1  0  0  0  0
 39 38  1  0  0  0  0
 40 39  1  0  0  0  0
 41 36  1  0  0  0  0
 42 45  2  0  0  0  0
 42 44  1  0  0  0  0
 43 42  1  0  0  0  0
 47 46  1  0  0  0  0
M  END
>  <MODEL>
5

>  <REMARK>
 VINA RESULT:      -3.6      2.808      6.436
  Name = 
  14 active torsions:
  status: ('A' for Active; 'I' for Inactive)
    1  A    between atoms: O_4  and  C_27
    2  A    between atoms: O_4  and  P_34
    3  A    between atoms: C_6  and  N_13
    4  A    between atoms: C_7  and  C_30
    5  A    between atoms: C_7  and  C_36
    6  A    between atoms: C_7  and  S_42
    7  A    between atoms: N_8  and  N_23
    8  A    between atoms: C_11  and  C_27
    9  A    between atoms: C_11  and  C_47
   10  A    between atoms: N_13  and  S_42
   11  A    between atoms: C_19  and  O_20
   12  A    between atoms: O_20  and  C_29
   13  A    between atoms: C_21  and  C_36
   14  A    between atoms: C_28  and  P_34
                            x       y       z     vdW  Elec       q    Type
                         _______ _______ _______ _____ _____    ______ ____

>  <TORSDO>
F 14

$$$$
=
 OpenBabel11072414283D

 47 50  0  0  1  0  0  0  0  0999 V2000
  161.4400  202.7900  148.7840 N   0  0  0  0  0  2  0  0  0  0  0  0
  161.0530  202.6260  147.3770 C   0  0  0  0  0  2  0  0  0  0  0  0
  160.8340  204.0410  149.2020 C   0  0  1  0  0  3  0  0  0  0  0  0
  163.1540  205.7140  151.8490 C   0  0  0  0  0  1  0  0  0  0  0  0
  162.5110  206.8800  146.2380 O   0  0  0  0  0  1  0  0  0  0  0  0
  161.5470  203.8030  146.4990 C   0  0  0  0  0  2  0  0  0  0  0  0
  161.0760  206.3720  149.2480 N   0  0  2  0  0  0  0  0  0  0  0  0
  162.4050  207.7650  150.7210 C   0  0  0  0  0  2  0  0  0  0  0  0
  162.1190  207.4010  149.2730 C   0  0  2  0  0  3  0  0  0  0  0  0
  160.9000  205.9160  150.6420 C   0  0  2  0  0  3  0  0  0  0  0  0
  161.9450  206.5890  151.5310 C   0  0  1  0  0  0  0  0  0  0  0  0
  160.9470  204.3740  150.6580 C   0  0  1  0  0  3  0  0  0  0  0  0
  161.5760  205.1760  148.5640 C   0  0  2  0  0  3  0  0  0  0  0  0
  161.4240  206.2470  146.2810 C   0  0  0  0  0  0  0  0  0  0  0  0
  160.3790  206.6110  145.4430 O   0  0  0  0  0  0  0  0  0  0  0  0
  161.2890  205.1060  147.1290 N   0  0  0  0  0  0  0  0  0  0  0  0
  160.0370  206.0050  153.5840 O   0  0  0  0  0  0  0  0  0  0  0  0
  161.1720  207.1540  153.0750 P   0  0  1  0  0  0  0  0  0  0  0  0
  162.2320  207.3210  154.1410 O   0  0  0  0  0  1  0  0  0  0  0  0
  160.4100  208.6420  152.7890 O   0  0  0  0  0  0  0  0  0  0  0  0
  160.0280  209.1160  154.0470 C   0  0  0  0  0  2  0  0  0  0  0  0
  160.1470  210.6300  154.0880 C   0  0  0  0  0  2  0  0  0  0  0  0
  162.3050  210.6520  155.1040 O   0  0  0  0  0  0  0  0  0  0  0  0
  160.6780  211.8910  156.2080 N   0  0  0  0  0  1  0  0  0  0  0  0
  161.1130  211.0550  155.1410 C   0  0  0  0  0  0  0  0  0  0  0  0
  159.9550  203.7690  151.4690 O   0  0  0  0  0  0  0  0  0  0  0  0
  160.5530  202.8840  152.3840 C   0  0  0  0  0  2  0  0  0  0  0  0
  161.9190  202.4790  151.8690 C   0  0  0  0  0  1  0  0  0  0  0  0
  161.6270  208.6390  148.5300 C   0  0  0  0  0  2  0  0  0  0  0  0
  161.5750  209.8730  149.4240 C   0  0  2  0  0  3  0  0  0  0  0  0
  163.0880  211.6170  148.0160 O   0  0  0  0  0  0  0  0  0  0  0  0
  161.1510  212.5050  149.2090 O   0  0  0  0  0  0  0  0  0  0  0  0
  161.6620  211.3430  148.4080 S   0  0  0  0  0  0  0  0  0  0  0  0
  160.6800  211.1740  146.9880 N   0  0  0  0  0  2  0  0  0  0  0  0
  160.6350  212.4550  146.3040 C   0  0  2  0  0  3  0  0  0  0  0  0
  159.9880  213.0300  143.9760 N   0  0  0  0  0  0  0  0  0  0  0  0
  159.5260  212.4440  145.2410 C   0  0  0  0  0  2  0  0  0  0  0  0
  161.8820  212.7220  145.7160 O   0  0  0  0  0  0  0  0  0  0  0  0
  161.8280  214.0610  145.2890 C   0  0  1  0  0  3  0  0  0  0  0  0
  163.0820  214.4530  144.8200 O   0  0  0  0  0  1  0  0  0  0  0  0
  160.7800  214.2510  144.1810 C   0  0  0  0  0  2  0  0  0  0  0  0
  158.8090  213.2560  141.7500 C   0  0  0  0  0  0  0  0  0  0  0  0
  158.8640  213.3400  143.1830 N   0  0  0  0  0  2  0  0  0  0  0  0
  159.9700  212.7790  140.9430 C   0  0  0  0  0  1  0  0  0  0  0  0
  157.7520  213.5940  141.1540 O   0  0  0  0  0  0  0  0  0  0  0  0
  162.3520  210.6160  151.5580 O   0  0  0  0  0  1  0  0  0  0  0  0
  162.6980  209.8440  150.4510 C   0  0  0  0  0  2  0  0  0  0  0  0
  2  1  1  0  0  0  0
  3  1  1  1  0  0  0
  3 12  1  0  0  0  0
  5 14  1  0  0  0  0
  6 16  1  0  0  0  0
  6  2  1  0  0  0  0
  7  9  1  0  0  0  0
  7 10  1  0  0  0  0
  8 11  1  0  0  0  0
  9  8  1  0  0  0  0
 10 12  1  0  0  0  0
 10 11  1  0  0  0  0
 11  4  1  0  0  0  0
 11 18  1  0  0  0  0
 12 26  1  0  0  0  0
 13  3  1  0  0  0  0
 13  7  1  0  0  0  0
 14 16  1  0  0  0  0
 15 14  2  0  0  0  0
 16 13  1  0  0  0  0
 18 17  2  0  0  0  0
 18 19  1  0  0  0  0
 20 18  1  0  0  0  0
 20 21  1  0  0  0  0
 21 22  1  0  0  0  0
 22 25  1  0  0  0  0
 23 25  2  0  0  0  0
 25 24  1  0  0  0  0
 26 27  1  0  0  0  0
 28 27  1  0  0  0  0
 29  9  1  0  0  0  0
 29 30  1  0  0  0  0
 30 47  1  0  0  0  0
 31 33  2  0  0  0  0
 33 32  2  0  0  0  0
 33 30  1  0  0  0  0
 34 33  1  0  0  0  0
 35 34  1  0  0  0  0
 36 41  1  0  0  0  0
 36 37  1  0  0  0  0
 37 35  1  0  0  0  0
 38 35  1  0  0  0  0
 39 38  1  0  0  0  0
 40 39  1  0  0  0  0
 41 39  1  0  0  0  0
 42 43  1  0  0  0  0
 43 36  1  0  0  0  0
 44 42  1  0  0  0  0
 45 42  2  0  0  0  0
 47 46  1  0  0  0  0
M  END
>  <MODEL>
6

>  <REMARK>
 VINA RESULT:      -3.6      2.942      9.659
  Name = 
  14 active torsions:
  status: ('A' for Active; 'I' for Inactive)
    1  A    between atoms: O_4  and  C_27
    2  A    between atoms: O_4  and  P_34
    3  A    between atoms: C_6  and  N_13
    4  A    between atoms: C_7  and  C_30
    5  A    between atoms: C_7  and  C_36
    6  A    between atoms: C_7  and  S_42
    7  A    between atoms: N_8  and  N_23
    8  A    between atoms: C_11  and  C_27
    9  A    between atoms: C_11  and  C_47
   10  A    between atoms: N_13  and  S_42
   11  A    between atoms: C_19  and  O_20
   12  A    between atoms: O_20  and  C_29
   13  A    between atoms: C_21  and  C_36
   14  A    between atoms: C_28  and  P_34
                            x       y       z     vdW  Elec       q    Type
                         _______ _______ _______ _____ _____    ______ ____

>  <TORSDO>
F 14

$$$$
=
 OpenBabel11072414283D

 47 50  0  0  1  0  0  0  0  0999 V2000
  160.8050  202.2070  147.4670 N   0  0  0  0  0  2  0  0  0  0  0  0
  161.1480  200.9630  148.1680 C   0  0  0  0  0  2  0  0  0  0  0  0
  161.6010  203.2370  148.1090 C   0  0  1  0  0  3  0  0  0  0  0  0
  159.5950  206.5770  148.0330 C   0  0  0  0  0  1  0  0  0  0  0  0
  160.3540  202.8220  152.3430 O   0  0  0  0  0  0  0  0  0  0  0  0
  160.8330  201.0450  149.6830 C   0  0  0  0  0  2  0  0  0  0  0  0
  161.7230  204.7240  149.9170 N   0  0  2  0  0  0  0  0  0  0  0  0
  160.6400  206.8690  150.2370 C   0  0  0  0  0  2  0  0  0  0  0  0
  160.8530  205.4810  150.8190 C   0  0  2  0  0  3  0  0  0  0  0  0
  161.8400  205.5200  148.6780 C   0  0  2  0  0  3  0  0  0  0  0  0
  160.9200  206.7370  148.7700 C   0  0  1  0  0  0  0  0  0  0  0  0
  161.5560  204.5940  147.4770 C   0  0  1  0  0  3  0  0  0  0  0  0
  161.0380  203.5080  149.4700 C   0  0  2  0  0  3  0  0  0  0  0  0
  161.3310  202.3560  151.7000 C   0  0  0  0  0  0  0  0  0  0  0  0
  162.4120  201.8130  152.3820 O   0  0  0  0  0  1  0  0  0  0  0  0
  161.2960  202.3100  150.2730 N   0  0  0  0  0  0  0  0  0  0  0  0
  163.4340  207.8630  147.9880 O   0  0  0  0  0  1  0  0  0  0  0  0
  161.7870  208.2140  148.1610 P   0  0  1  0  0  0  0  0  0  0  0  0
  161.2150  208.6210  146.8210 O   0  0  0  0  0  0  0  0  0  0  0  0
  161.5720  209.4710  149.2790 O   0  0  0  0  0  0  0  0  0  0  0  0
  162.4010  210.5080  148.8430 C   0  0  0  0  0  2  0  0  0  0  0  0
  161.6540  211.8290  148.9060 C   0  0  0  0  0  2  0  0  0  0  0  0
  160.2900  212.0060  146.9570 O   0  0  0  0  0  0  0  0  0  0  0  0
  162.3040  213.1600  146.8630 N   0  0  0  0  0  1  0  0  0  0  0  0
  161.3600  212.3330  147.5340 C   0  0  0  0  0  0  0  0  0  0  0  0
  162.4500  204.7580  146.3900 O   0  0  0  0  0  0  0  0  0  0  0  0
  161.8210  205.4650  145.3500 C   0  0  0  0  0  2  0  0  0  0  0  0
  160.8290  204.5570  144.6540 C   0  0  0  0  0  1  0  0  0  0  0  0
  161.5220  205.6040  152.1840 C   0  0  0  0  0  2  0  0  0  0  0  0
  160.7340  206.4910  153.1420 C   0  0  2  0  0  3  0  0  0  0  0  0
  160.0830  208.9890  152.3390 O   0  0  0  0  0  0  0  0  0  0  0  0
  162.3700  208.2310  151.9380 O   0  0  0  0  0  0  0  0  0  0  0  0
  161.2260  208.1950  152.9090 S   0  0  0  0  0  0  0  0  0  0  0  0
  161.7480  208.8990  154.4070 N   0  0  0  0  0  2  0  0  0  0  0  0
  161.1240  210.2050  154.5440 C   0  0  2  0  0  3  0  0  0  0  0  0
  158.7680  210.8360  155.0090 N   0  0  0  0  0  0  0  0  0  0  0  0
  159.9430  210.1220  155.5230 C   0  0  0  0  0  2  0  0  0  0  0  0
  160.6920  210.6580  153.2860 O   0  0  0  0  0  0  0  0  0  0  0  0
  160.3260  212.0040  153.4650 C   0  0  1  0  0  3  0  0  0  0  0  0
  160.0190  212.5740  152.2300 O   0  0  0  0  0  1  0  0  0  0  0  0
  159.1170  212.1310  154.4070 C   0  0  0  0  0  2  0  0  0  0  0  0
  156.5440  211.5970  155.9460 C   0  0  0  0  0  0  0  0  0  0  0  0
  157.8690  211.0540  156.0740 N   0  0  0  0  0  2  0  0  0  0  0  0
  155.9650  211.9580  154.6190 C   0  0  0  0  0  1  0  0  0  0  0  0
  155.8500  211.7740  156.9810 O   0  0  0  0  0  0  0  0  0  0  0  0
  159.9670  206.6130  155.4020 O   0  0  0  0  0  1  0  0  0  0  0  0
  160.9420  206.0480  154.5830 C   0  0  0  0  0  2  0  0  0  0  0  0
  1  2  1  0  0  0  0
  2  6  1  0  0  0  0
  3  1  1  6  0  0  0
  3 13  1  0  0  0  0
  4 11  1  0  0  0  0
  6 16  1  0  0  0  0
  7  9  1  0  0  0  0
  8  9  1  0  0  0  0
  9 29  1  0  0  0  0
 10 11  1  0  0  0  0
 10  7  1  0  0  0  0
 11  8  1  0  0  0  0
 12  3  1  0  0  0  0
 12 10  1  0  0  0  0
 13  7  1  0  0  0  0
 13 16  1  0  0  0  0
 14  5  2  0  0  0  0
 14 15  1  0  0  0  0
 16 14  1  0  0  0  0
 17 18  1  0  0  0  0
 18 11  1  0  0  0  0
 18 20  1  0  0  0  0
 19 18  2  0  0  0  0
 21 22  1  0  0  0  0
 21 20  1  0  0  0  0
 23 25  2  0  0  0  0
 24 25  1  0  0  0  0
 25 22  1  0  0  0  0
 26 12  1  0  0  0  0
 27 26  1  0  0  0  0
 28 27  1  0  0  0  0
 29 30  1  0  0  0  0
 30 47  1  0  0  0  0
 31 33  2  0  0  0  0
 32 33  2  0  0  0  0
 33 30  1  0  0  0  0
 33 34  1  0  0  0  0
 34 35  1  0  0  0  0
 35 37  1  0  0  0  0
 36 37  1  0  0  0  0
 36 43  1  0  0  0  0
 38 39  1  0  0  0  0
 38 35  1  0  0  0  0
 39 41  1  0  0  0  0
 40 39  1  0  0  0  0
 41 36  1  0  0  0  0
 42 43  1  0  0  0  0
 42 45  2  0  0  0  0
 44 42  1  0  0  0  0
 47 46  1  0  0  0  0
M  END
>  <MODEL>
7

>  <REMARK>
 VINA RESULT:      -3.4      2.655      8.626
  Name = 
  14 active torsions:
  status: ('A' for Active; 'I' for Inactive)
    1  A    between atoms: O_4  and  C_27
    2  A    between atoms: O_4  and  P_34
    3  A    between atoms: C_6  and  N_13
    4  A    between atoms: C_7  and  C_30
    5  A    between atoms: C_7  and  C_36
    6  A    between atoms: C_7  and  S_42
    7  A    between atoms: N_8  and  N_23
    8  A    between atoms: C_11  and  C_27
    9  A    between atoms: C_11  and  C_47
   10  A    between atoms: N_13  and  S_42
   11  A    between atoms: C_19  and  O_20
   12  A    between atoms: O_20  and  C_29
   13  A    between atoms: C_21  and  C_36
   14  A    between atoms: C_28  and  P_34
                            x       y       z     vdW  Elec       q    Type
                         _______ _______ _______ _____ _____    ______ ____

>  <TORSDO>
F 14

$$$$
=
 OpenBabel11072414283D

 47 50  0  0  1  0  0  0  0  0999 V2000
  157.2690  213.2450  153.8370 N   0  0  0  0  0  2  0  0  0  0  0  0
  157.2630  214.4390  152.9820 C   0  0  0  0  0  2  0  0  0  0  0  0
  158.6640  212.8550  153.9360 C   0  0  1  0  0  3  0  0  0  0  0  0
  158.8420  208.9740  154.2410 C   0  0  0  0  0  1  0  0  0  0  0  0
  159.7570  212.3650  149.6680 O   0  0  0  0  0  0  0  0  0  0  0  0
  157.8590  214.1520  151.5820 C   0  0  0  0  0  2  0  0  0  0  0  0
  160.4050  211.6730  152.9040 N   0  0  2  0  0  0  0  0  0  0  0  0
  160.8550  209.2910  152.8680 C   0  0  0  0  0  2  0  0  0  0  0  0
  160.6260  210.5290  152.0160 C   0  0  2  0  0  3  0  0  0  0  0  0
  160.2410  211.1230  154.2660 C   0  0  2  0  0  3  0  0  0  0  0  0
  160.2340  209.5960  154.1980 C   0  0  1  0  0  0  0  0  0  0  0  0
  158.9700  211.7400  154.8880 C   0  0  1  0  0  3  0  0  0  0  0  0
  159.0980  212.2740  152.6250 C   0  0  2  0  0  3  0  0  0  0  0  0
  159.8880  213.3270  150.4680 C   0  0  0  0  0  0  0  0  0  0  0  0
  160.7350  214.3800  150.1510 O   0  0  0  0  0  1  0  0  0  0  0  0
  159.1080  213.3790  151.6630 N   0  0  0  0  0  0  0  0  0  0  0  0
  162.6260  209.8840  155.7450 O   0  0  0  0  0  0  0  0  0  0  0  0
  161.2540  208.9140  155.5390 P   0  0  1  0  0  0  0  0  0  0  0  0
  160.4550  208.8920  156.8230 O   0  0  0  0  0  1  0  0  0  0  0  0
  161.7120  207.3340  155.1240 O   0  0  0  0  0  0  0  0  0  0  0  0
  161.2190  207.1270  153.8320 C   0  0  0  0  0  2  0  0  0  0  0  0
  160.6000  205.7430  153.7310 C   0  0  0  0  0  2  0  0  0  0  0  0
  162.2280  205.4380  152.0140 O   0  0  0  0  0  0  0  0  0  0  0  0
  160.8260  203.6210  152.3840 N   0  0  0  0  0  1  0  0  0  0  0  0
  161.2770  204.9410  152.6720 C   0  0  0  0  0  0  0  0  0  0  0  0
  159.1220  212.1530  156.2340 O   0  0  0  0  0  0  0  0  0  0  0  0
  157.8630  212.2590  156.8520 C   0  0  0  0  0  2  0  0  0  0  0  0
  157.5600  213.7170  157.1260 C   0  0  0  0  0  1  0  0  0  0  0  0
  161.8590  210.7850  151.1570 C   0  0  0  0  0  2  0  0  0  0  0  0
  161.7290  210.1920  149.7580 C   0  0  2  0  0  3  0  0  0  0  0  0
  160.7000  207.7190  150.1300 O   0  0  0  0  0  0  0  0  0  0  0  0
  162.9610  208.1410  150.9530 O   0  0  0  0  0  0  0  0  0  0  0  0
  161.9950  208.4250  149.8390 S   0  0  0  0  0  0  0  0  0  0  0  0
  162.6720  207.8320  148.3550 N   0  0  0  0  0  2  0  0  0  0  0  0
  161.7350  206.8910  147.7650 C   0  0  2  0  0  3  0  0  0  0  0  0
  161.6330  204.4120  147.8850 N   0  0  0  0  0  0  0  0  0  0  0  0
  161.5960  205.6550  148.6660 C   0  0  0  0  0  2  0  0  0  0  0  0
  162.1780  206.5220  146.4840 O   0  0  0  0  0  0  0  0  0  0  0  0
  161.1140  205.8120  145.8980 C   0  0  1  0  0  3  0  0  0  0  0  0
  161.4170  205.5310  144.5660 O   0  0  0  0  0  1  0  0  0  0  0  0
  160.8370  204.5010  146.6520 C   0  0  0  0  0  2  0  0  0  0  0  0
  160.8300  202.0370  148.2120 C   0  0  0  0  0  0  0  0  0  0  0  0
  161.1320  203.3610  148.6790 N   0  0  0  0  0  2  0  0  0  0  0  0
  161.0640  201.6280  146.7960 C   0  0  0  0  0  1  0  0  0  0  0  0
  160.3540  201.1940  149.0170 O   0  0  0  0  0  0  0  0  0  0  0  0
  162.1100  211.9670  148.2040 O   0  0  0  0  0  1  0  0  0  0  0  0
  162.7040  210.8550  148.7970 C   0  0  0  0  0  2  0  0  0  0  0  0
  2  1  1  0  0  0  0
  3  1  1  6  0  0  0
  3 12  1  0  0  0  0
  5 14  2  0  0  0  0
  6 16  1  0  0  0  0
  6  2  1  0  0  0  0
  7 10  1  0  0  0  0
  8 11  1  0  0  0  0
  9  8  1  0  0  0  0
  9  7  1  0  0  0  0
 10 12  1  0  0  0  0
 11  4  1  0  0  0  0
 11 10  1  0  0  0  0
 11 18  1  0  0  0  0
 12 26  1  0  0  0  0
 13  7  1  0  0  0  0
 13  3  1  0  0  0  0
 14 16  1  0  0  0  0
 15 14  1  0  0  0  0
 16 13  1  0  0  0  0
 18 17  2  0  0  0  0
 18 19  1  0  0  0  0
 20 18  1  0  0  0  0
 21 20  1  0  0  0  0
 22 21  1  0  0  0  0
 23 25  2  0  0  0  0
 24 25  1  0  0  0  0
 25 22  1  0  0  0  0
 26 27  1  0  0  0  0
 27 28  1  0  0  0  0
 29  9  1  0  0  0  0
 30 33  1  0  0  0  0
 30 29  1  0  0  0  0
 33 31  2  0  0  0  0
 33 32  2  0  0  0  0
 34 33  1  0  0  0  0
 35 34  1  0  0  0  0
 35 37  1  0  0  0  0
 36 37  1  0  0  0  0
 36 43  1  0  0  0  0
 38 35  1  0  0  0  0
 39 38  1  0  0  0  0
 39 41  1  0  0  0  0
 40 39  1  0  0  0  0
 41 36  1  0  0  0  0
 42 43  1  0  0  0  0
 42 45  2  0  0  0  0
 44 42  1  0  0  0  0
 46 47  1  0  0  0  0
 47 30  1  0  0  0  0
M  END
>  <MODEL>
8

>  <REMARK>
 VINA RESULT:      -3.4      3.066      6.329
  Name = 
  14 active torsions:
  status: ('A' for Active; 'I' for Inactive)
    1  A    between atoms: O_4  and  C_27
    2  A    between atoms: O_4  and  P_34
    3  A    between atoms: C_6  and  N_13
    4  A    between atoms: C_7  and  C_30
    5  A    between atoms: C_7  and  C_36
    6  A    between atoms: C_7  and  S_42
    7  A    between atoms: N_8  and  N_23
    8  A    between atoms: C_11  and  C_27
    9  A    between atoms: C_11  and  C_47
   10  A    between atoms: N_13  and  S_42
   11  A    between atoms: C_19  and  O_20
   12  A    between atoms: O_20  and  C_29
   13  A    between atoms: C_21  and  C_36
   14  A    between atoms: C_28  and  P_34
                            x       y       z     vdW  Elec       q    Type
                         _______ _______ _______ _____ _____    ______ ____

>  <TORSDO>
F 14

$$$$
=
 OpenBabel11072414283D

 47 50  0  0  1  0  0  0  0  0999 V2000
  160.8030  202.6040  145.5760 N   0  0  0  0  0  2  0  0  0  0  0  0
  160.8930  201.1670  145.8620 C   0  0  0  0  0  2  0  0  0  0  0  0
  161.5980  203.2470  146.6080 C   0  0  1  0  0  3  0  0  0  0  0  0
  160.0080  206.7120  147.4120 C   0  0  0  0  0  1  0  0  0  0  0  0
  159.6640  201.7320  150.2980 O   0  0  0  0  0  1  0  0  0  0  0  0
  160.3550  200.8210  147.2730 C   0  0  0  0  0  2  0  0  0  0  0  0
  161.5970  204.0590  148.8060 N   0  0  2  0  0  0  0  0  0  0  0  0
  160.7210  206.1380  149.6920 C   0  0  0  0  0  2  0  0  0  0  0  0
  160.6850  204.6230  149.8040 C   0  0  2  0  0  3  0  0  0  0  0  0
  161.9940  205.1730  147.9210 C   0  0  2  0  0  3  0  0  0  0  0  0
  161.2110  206.4280  148.3050 C   0  0  1  0  0  0  0  0  0  0  0  0
  161.8020  204.7230  146.4580 C   0  0  1  0  0  3  0  0  0  0  0  0
  160.8610  203.1640  147.9090 C   0  0  2  0  0  3  0  0  0  0  0  0
  160.6720  201.3440  149.6520 C   0  0  0  0  0  0  0  0  0  0  0  0
  161.5660  200.4560  150.2340 O   0  0  0  0  0  0  0  0  0  0  0  0
  160.8560  201.7510  148.2960 N   0  0  0  0  0  0  0  0  0  0  0  0
  162.9410  208.0780  149.8810 O   0  0  0  0  0  1  0  0  0  0  0  0
  162.3200  207.8680  148.3200 P   0  0  1  0  0  0  0  0  0  0  0  0
  163.4580  207.6410  147.3500 O   0  0  0  0  0  0  0  0  0  0  0  0
  161.4370  209.2390  147.8530 O   0  0  0  0  0  0  0  0  0  0  0  0
  161.9650  210.2980  148.5970 C   0  0  0  0  0  2  0  0  0  0  0  0
  161.4200  211.6180  148.0780 C   0  0  0  0  0  2  0  0  0  0  0  0
  163.7020  212.2880  147.8980 O   0  0  0  0  0  0  0  0  0  0  0  0
  162.1740  214.0260  148.1120 N   0  0  0  0  0  1  0  0  0  0  0  0
  162.5000  212.6430  148.0130 C   0  0  0  0  0  0  0  0  0  0  0  0
  162.8670  205.0760  145.5950 O   0  0  0  0  0  0  0  0  0  0  0  0
  162.4260  206.0100  144.6400 C   0  0  0  0  0  2  0  0  0  0  0  0
  161.1940  205.4710  143.9440 C   0  0  0  0  0  1  0  0  0  0  0  0
  161.1410  204.2090  151.2000 C   0  0  0  0  0  2  0  0  0  0  0  0
  160.4720  205.0280  152.2980 C   0  0  2  0  0  3  0  0  0  0  0  0
  162.9590  206.0900  152.3120 O   0  0  0  0  0  0  0  0  0  0  0  0
  161.5610  206.4530  154.2820 O   0  0  0  0  0  0  0  0  0  0  0  0
  161.5570  206.3650  152.7830 S   0  0  0  0  0  0  0  0  0  0  0  0
  161.0020  207.8780  152.1410 N   0  0  0  0  0  2  0  0  0  0  0  0
  160.7970  208.8000  153.2450 C   0  0  2  0  0  3  0  0  0  0  0  0
  160.1940  211.2090  153.2570 N   0  0  0  0  0  0  0  0  0  0  0  0
  159.7610  209.8640  152.8550 C   0  0  0  0  0  2  0  0  0  0  0  0
  162.0180  209.4010  153.5920 O   0  0  0  0  0  0  0  0  0  0  0  0
  161.7830  210.0830  154.7990 C   0  0  1  0  0  3  0  0  0  0  0  0
  162.9850  210.5920  155.2910 O   0  0  0  0  0  1  0  0  0  0  0  0
  160.7780  211.2300  154.6060 C   0  0  0  0  0  2  0  0  0  0  0  0
  158.8100  213.0470  152.2070 C   0  0  0  0  0  0  0  0  0  0  0  0
  159.0790  212.0710  153.2270 N   0  0  0  0  0  2  0  0  0  0  0  0
  159.7020  213.2160  151.0230 C   0  0  0  0  0  1  0  0  0  0  0  0
  157.7930  213.7830  152.3130 O   0  0  0  0  0  0  0  0  0  0  0  0
  160.1700  202.8040  153.1200 O   0  0  0  0  0  1  0  0  0  0  0  0
  160.1150  204.1470  153.4870 C   0  0  0  0  0  2  0  0  0  0  0  0
  1  2  1  0  0  0  0
  2  6  1  0  0  0  0
  3  1  1  6  0  0  0
  3 13  1  0  0  0  0
  4 11  1  0  0  0  0
  6 16  1  0  0  0  0
  7  9  1  0  0  0  0
  8  9  1  0  0  0  0
  9 29  1  0  0  0  0
 10 11  1  0  0  0  0
 10  7  1  0  0  0  0
 11 18  1  0  0  0  0
 11  8  1  0  0  0  0
 12  3  1  0  0  0  0
 12 10  1  0  0  0  0
 13 16  1  0  0  0  0
 13  7  1  0  0  0  0
 14 15  2  0  0  0  0
 14  5  1  0  0  0  0
 16 14  1  0  0  0  0
 18 17  1  0  0  0  0
 19 18  2  0  0  0  0
 20 18  1  0  0  0  0
 20 21  1  0  0  0  0
 22 21  1  0  0  0  0
 23 25  2  0  0  0  0
 25 22  1  0  0  0  0
 25 24  1  0  0  0  0
 26 12  1  0  0  0  0
 27 26  1  0  0  0  0
 28 27  1  0  0  0  0
 29 30  1  0  0  0  0
 30 33  1  0  0  0  0
 30 47  1  0  0  0  0
 31 33  2  0  0  0  0
 33 32  2  0  0  0  0
 34 33  1  0  0  0  0
 34 35  1  0  0  0  0
 35 38  1  0  0  0  0
 36 41  1  0  0  0  0
 37 35  1  0  0  0  0
 37 36  1  0  0  0  0
 38 39  1  0  0  0  0
 39 40  1  0  0  0  0
 41 39  1  0  0  0  0
 42 45  2  0  0  0  0
 42 43  1  0  0  0  0
 43 36  1  0  0  0  0
 44 42  1  0  0  0  0
 46 47  1  0  0  0  0
M  END
>  <MODEL>
9

>  <REMARK>
 VINA RESULT:      -3.4      2.679      8.655
  Name = 
  14 active torsions:
  status: ('A' for Active; 'I' for Inactive)
    1  A    between atoms: O_4  and  C_27
    2  A    between atoms: O_4  and  P_34
    3  A    between atoms: C_6  and  N_13
    4  A    between atoms: C_7  and  C_30
    5  A    between atoms: C_7  and  C_36
    6  A    between atoms: C_7  and  S_42
    7  A    between atoms: N_8  and  N_23
    8  A    between atoms: C_11  and  C_27
    9  A    between atoms: C_11  and  C_47
   10  A    between atoms: N_13  and  S_42
   11  A    between atoms: C_19  and  O_20
   12  A    between atoms: O_20  and  C_29
   13  A    between atoms: C_21  and  C_36
   14  A    between atoms: C_28  and  P_34
                            x       y       z     vdW  Elec       q    Type
                         _______ _______ _______ _____ _____    ______ ____

>  <TORSDO>
F 14

$$$$
