=
 OpenBabel11072413013D

 37 40  0  0  1  0  0  0  0  0999 V2000
  158.5680  212.9570  157.1150 F   0  0  0  0  0  0  0  0  0  0  0  0
  156.9370  211.4690  156.8670 F   0  0  0  0  0  0  0  0  0  0  0  0
  158.5240  211.6340  155.0310 C   0  0  1  0  0  0  0  0  0  0  0  0
  159.9220  210.2850  157.2610 F   0  0  0  0  0  0  0  0  0  0  0  0
  159.7610  209.5500  156.0960 C   0  0  0  0  0  0  0  0  0  0  0  0
  160.9290  210.0690  153.8300 C   0  0  2  0  0  3  0  0  0  0  0  0
  157.4650  214.1340  154.6910 C   0  0  0  0  0  2  0  0  0  0  0  0
  156.5230  211.1830  153.7470 F   0  0  0  0  0  0  0  0  0  0  0  0
  157.7480  211.8310  153.7070 C   0  0  1  0  0  3  0  0  0  0  0  0
  160.6870  212.4070  155.9710 F   0  0  0  0  0  0  0  0  0  0  0  0
  160.8090  211.5950  153.7220 C   0  0  0  0  0  2  0  0  0  0  0  0
  157.5120  213.3160  153.4010 C   0  0  0  0  0  2  0  0  0  0  0  0
  156.8340  213.3850  155.6990 O   0  0  0  0  0  0  0  0  0  0  0  0
  161.0660  209.4940  155.2570 C   0  0  1  0  0  3  0  0  0  0  0  0
  157.7210  212.3830  156.1810 C   0  0  0  0  0  0  0  0  0  0  0  0
  158.5660  210.1020  155.3050 C   0  0  0  0  0  2  0  0  0  0  0  0
  159.9470  212.2470  154.8130 C   0  0  1  0  0  3  0  0  0  0  0  0
  159.4560  208.2540  156.4630 F   0  0  0  0  0  0  0  0  0  0  0  0
  162.3040  209.9960  156.0010 C   0  0  0  0  0  2  0  0  0  0  0  0
  162.7060  209.0520  156.9480 O   0  0  0  0  0  1  0  0  0  0  0  0
  163.0410  210.2290  152.6620 O   0  0  0  0  0  1  0  0  0  0  0  0
  161.8700  209.4740  152.7770 C   0  0  2  0  0  3  0  0  0  0  0  0
  161.5860  210.2290  150.4990 O   0  0  0  0  0  1  0  0  0  0  0  0
  161.2200  209.2310  151.4110 C   0  0  1  0  0  3  0  0  0  0  0  0
  160.4310  206.9330  150.4230 C   0  0  2  0  0  3  0  0  0  0  0  0
  161.8040  204.1830  151.4790 C   0  0  1  0  0  3  0  0  0  0  0  0
  161.8280  205.1930  149.2990 O   0  0  0  0  0  0  0  0  0  0  0  0
  161.5700  207.8340  150.8870 C   0  0  2  0  0  0  0  0  0  0  0  0
  161.1440  206.6620  151.7770 C   0  0  2  0  0  3  0  0  0  0  0  0
  162.7960  207.6840  150.2250 O   0  0  0  0  0  1  0  0  0  0  0  0
  160.7090  206.0270  149.1940 C   0  0  2  0  0  3  0  0  0  0  0  0
  161.3710  204.0840  150.0210 C   0  0  0  0  0  2  0  0  0  0  0  0
  162.2500  205.5980  151.8630 C   0  0  0  0  0  2  0  0  0  0  0  0
  161.6810  206.6450  147.1340 O   0  0  0  0  0  0  0  0  0  0  0  0
  160.7740  206.8280  147.9310 C   0  0  0  0  0  3  0  0  0  0  0  0
  160.7230  203.6710  152.3790 C   0  0  0  0  0  3  0  0  0  0  0  0
  160.3740  202.5030  152.3200 O   0  0  0  0  0  0  0  0  0  0  0  0
  3 16  1  1  0  0  0
  3 15  1  0  0  0  0
  5 18  1  0  0  0  0
  5  4  1  0  0  0  0
  6 22  1  6  0  0  0
  6 14  1  0  0  0  0
  7 13  1  0  0  0  0
  9  8  1  1  0  0  0
  9  3  1  0  0  0  0
 11  6  1  0  0  0  0
 11 17  1  0  0  0  0
 12  9  1  0  0  0  0
 12  7  1  0  0  0  0
 13 15  1  0  0  0  0
 14 19  1  1  0  0  0
 14  5  1  0  0  0  0
 15  2  1  0  0  0  0
 15  1  1  0  0  0  0
 16  5  1  0  0  0  0
 17  3  1  0  0  0  0
 17 10  1  1  0  0  0
 19 20  1  0  0  0  0
 22 21  1  6  0  0  0
 24 23  1  6  0  0  0
 24 22  1  0  0  0  0
 25 28  1  0  0  0  0
 25 29  1  0  0  0  0
 26 33  1  0  0  0  0
 26 36  1  0  0  0  0
 27 32  1  0  0  0  0
 28 24  1  0  0  0  0
 28 29  1  0  0  0  0
 29 33  1  0  0  0  0
 30 28  1  0  0  0  0
 31 27  1  0  0  0  0
 31 25  1  0  0  0  0
 32 26  1  0  0  0  0
 34 35  2  0  0  0  0
 35 31  1  0  0  0  0
 37 36  2  0  0  0  0
M  END
>  <MODEL>
1

>  <REMARK>
 VINA RESULT:      -6.4      0.000      0.000
  Name = 
  6 active torsions:
  status: ('A' for Active; 'I' for Inactive)
    1  A    between atoms: C_4  and  C_25
    2  A    between atoms: C_5  and  C_28
    3  A    between atoms: C_8  and  C_33
    4  A    between atoms: C_12  and  C_31
    5  A    between atoms: C_21  and  C_32
    6  A    between atoms: C_31  and  C_33
                            x       y       z     vdW  Elec       q    Type
                         _______ _______ _______ _____ _____    ______ ____

>  <TORSDO>
F 6

$$$$
=
 OpenBabel11072413013D

 37 40  0  0  1  0  0  0  0  0999 V2000
  158.9970  213.5440  156.7150 F   0  0  0  0  0  0  0  0  0  0  0  0
  157.4060  212.0590  157.1630 F   0  0  0  0  0  0  0  0  0  0  0  0
  158.6030  211.7460  155.0690 C   0  0  1  0  0  0  0  0  0  0  0  0
  160.4530  210.9760  157.2440 F   0  0  0  0  0  0  0  0  0  0  0  0
  160.1000  209.9780  156.3490 C   0  0  0  0  0  0  0  0  0  0  0  0
  160.7890  209.9060  153.8410 C   0  0  2  0  0  3  0  0  0  0  0  0
  157.4040  214.0960  154.3410 C   0  0  0  0  0  2  0  0  0  0  0  0
  156.4110  211.0140  154.3510 F   0  0  0  0  0  0  0  0  0  0  0  0
  157.5800  211.6180  153.9150 C   0  0  1  0  0  3  0  0  0  0  0  0
  160.8750  212.7040  155.3490 F   0  0  0  0  0  0  0  0  0  0  0  0
  160.5930  211.3590  153.3890 C   0  0  0  0  0  2  0  0  0  0  0  0
  157.2340  212.9840  153.3060 C   0  0  0  0  0  2  0  0  0  0  0  0
  157.0070  213.6270  155.6050 O   0  0  0  0  0  0  0  0  0  0  0  0
  161.2200  209.7010  155.3110 C   0  0  1  0  0  3  0  0  0  0  0  0
  158.0080  212.7660  156.1340 C   0  0  0  0  0  0  0  0  0  0  0  0
  158.7540  210.3300  155.6960 C   0  0  0  0  0  2  0  0  0  0  0  0
  159.9330  212.2710  154.4340 C   0  0  1  0  0  3  0  0  0  0  0  0
  159.9190  208.8160  157.0740 F   0  0  0  0  0  0  0  0  0  0  0  0
  162.5580  210.3570  155.6520 C   0  0  0  0  0  2  0  0  0  0  0  0
  162.9800  209.9490  156.9190 O   0  0  0  0  0  1  0  0  0  0  0  0
  161.1540  209.4070  151.5040 O   0  0  0  0  0  1  0  0  0  0  0  0
  161.5320  209.0580  152.8030 C   0  0  2  0  0  3  0  0  0  0  0  0
  160.1920  207.2030  153.5770 O   0  0  0  0  0  1  0  0  0  0  0  0
  161.4350  207.5470  153.0320 C   0  0  1  0  0  3  0  0  0  0  0  0
  160.5890  206.6910  150.7010 C   0  0  2  0  0  3  0  0  0  0  0  0
  161.3570  203.6870  149.7270 C   0  0  1  0  0  3  0  0  0  0  0  0
  161.9640  205.8210  148.8040 O   0  0  0  0  0  0  0  0  0  0  0  0
  161.7100  206.7840  151.7310 C   0  0  2  0  0  0  0  0  0  0  0  0
  160.9630  205.4570  151.5670 C   0  0  2  0  0  3  0  0  0  0  0  0
  163.0190  206.8150  151.2320 O   0  0  0  0  0  1  0  0  0  0  0  0
  161.0040  206.7570  149.2070 C   0  0  2  0  0  3  0  0  0  0  0  0
  161.2300  204.6540  148.5550 C   0  0  0  0  0  2  0  0  0  0  0  0
  161.8860  204.3680  150.9940 C   0  0  0  0  0  2  0  0  0  0  0  0
  162.5980  208.3630  148.5340 O   0  0  0  0  0  0  0  0  0  0  0  0
  161.4320  208.1390  148.8210 C   0  0  0  0  0  3  0  0  0  0  0  0
  160.0560  202.9870  149.9670 C   0  0  0  0  0  3  0  0  0  0  0  0
  159.9060  201.8280  149.6140 O   0  0  0  0  0  0  0  0  0  0  0  0
  3 16  1  1  0  0  0
  3 15  1  0  0  0  0
  5 18  1  0  0  0  0
  5  4  1  0  0  0  0
  6 22  1  6  0  0  0
  6 14  1  0  0  0  0
  7 13  1  0  0  0  0
  9  8  1  1  0  0  0
  9  3  1  0  0  0  0
 11  6  1  0  0  0  0
 11 17  1  0  0  0  0
 12  9  1  0  0  0  0
 12  7  1  0  0  0  0
 13 15  1  0  0  0  0
 14 19  1  1  0  0  0
 14  5  1  0  0  0  0
 15  1  1  0  0  0  0
 15  2  1  0  0  0  0
 16  5  1  0  0  0  0
 17  3  1  0  0  0  0
 17 10  1  1  0  0  0
 19 20  1  0  0  0  0
 22 21  1  6  0  0  0
 22 24  1  0  0  0  0
 24 23  1  6  0  0  0
 25 29  1  0  0  0  0
 25 28  1  0  0  0  0
 26 36  1  0  0  0  0
 26 33  1  0  0  0  0
 27 31  1  0  0  0  0
 28 24  1  0  0  0  0
 29 28  1  0  0  0  0
 30 28  1  0  0  0  0
 31 25  1  0  0  0  0
 32 27  1  0  0  0  0
 32 26  1  0  0  0  0
 33 29  1  0  0  0  0
 34 35  2  0  0  0  0
 35 31  1  0  0  0  0
 37 36  2  0  0  0  0
M  END
>  <MODEL>
2

>  <REMARK>
 VINA RESULT:      -6.1      1.220      1.446
  Name = 
  6 active torsions:
  status: ('A' for Active; 'I' for Inactive)
    1  A    between atoms: C_4  and  C_25
    2  A    between atoms: C_5  and  C_28
    3  A    between atoms: C_8  and  C_33
    4  A    between atoms: C_12  and  C_31
    5  A    between atoms: C_21  and  C_32
    6  A    between atoms: C_31  and  C_33
                            x       y       z     vdW  Elec       q    Type
                         _______ _______ _______ _____ _____    ______ ____

>  <TORSDO>
F 6

$$$$
=
 OpenBabel11072413013D

 37 40  0  0  1  0  0  0  0  0999 V2000
  160.1080  213.3180  155.7340 F   0  0  0  0  0  0  0  0  0  0  0  0
  158.0520  212.6480  156.2450 F   0  0  0  0  0  0  0  0  0  0  0  0
  159.0880  211.5600  154.3320 C   0  0  1  0  0  0  0  0  0  0  0  0
  160.4320  210.5150  156.7500 F   0  0  0  0  0  0  0  0  0  0  0  0
  159.7410  209.5930  155.9800 C   0  0  0  0  0  0  0  0  0  0  0  0
  160.4150  208.8490  153.5790 C   0  0  2  0  0  3  0  0  0  0  0  0
  158.9220  214.0330  153.1730 C   0  0  0  0  0  2  0  0  0  0  0  0
  156.8040  211.6100  153.5330 F   0  0  0  0  0  0  0  0  0  0  0  0
  158.1270  211.6420  153.1220 C   0  0  1  0  0  3  0  0  0  0  0  0
  161.5460  211.6110  154.6750 F   0  0  0  0  0  0  0  0  0  0  0  0
  160.8130  210.1700  152.9090 C   0  0  0  0  0  2  0  0  0  0  0  0
  158.3590  212.9140  152.2960 C   0  0  0  0  0  2  0  0  0  0  0  0
  158.3400  213.9670  154.4500 O   0  0  0  0  0  0  0  0  0  0  0  0
  160.6920  208.7420  155.0950 C   0  0  1  0  0  3  0  0  0  0  0  0
  158.9100  212.8910  155.1840 C   0  0  0  0  0  0  0  0  0  0  0  0
  158.6580  210.3180  155.1660 C   0  0  0  0  0  2  0  0  0  0  0  0
  160.5340  211.4250  153.7500 C   0  0  1  0  0  3  0  0  0  0  0  0
  159.1020  208.7260  156.8440 F   0  0  0  0  0  0  0  0  0  0  0  0
  162.1700  208.8860  155.4580 C   0  0  0  0  0  2  0  0  0  0  0  0
  162.3940  208.4010  156.7480 O   0  0  0  0  0  1  0  0  0  0  0  0
  161.7310  206.8270  153.4110 O   0  0  0  0  0  1  0  0  0  0  0  0
  160.7950  207.6230  152.7430 C   0  0  2  0  0  3  0  0  0  0  0  0
  162.5990  208.3090  151.2890 O   0  0  0  0  0  1  0  0  0  0  0  0
  161.2470  207.9440  151.3150 C   0  0  1  0  0  3  0  0  0  0  0  0
  162.0370  205.6880  150.2350 C   0  0  2  0  0  3  0  0  0  0  0  0
  161.4450  205.1290  147.0880 C   0  0  1  0  0  3  0  0  0  0  0  0
  160.6380  203.9920  149.0460 O   0  0  0  0  0  0  0  0  0  0  0  0
  160.9650  206.7620  150.3800 C   0  0  2  0  0  0  0  0  0  0  0  0
  161.7980  206.7160  149.0950 C   0  0  2  0  0  3  0  0  0  0  0  0
  159.6340  206.3400  150.2610 O   0  0  0  0  0  1  0  0  0  0  0  0
  161.5440  204.2230  150.0870 C   0  0  2  0  0  3  0  0  0  0  0  0
  161.4420  203.8440  147.9090 C   0  0  0  0  0  2  0  0  0  0  0  0
  160.9310  206.3340  147.8840 C   0  0  0  0  0  2  0  0  0  0  0  0
  161.2530  202.5590  151.7350 O   0  0  0  0  0  0  0  0  0  0  0  0
  160.9980  203.6990  151.3780 C   0  0  0  0  0  3  0  0  0  0  0  0
  162.8040  205.3750  146.5120 C   0  0  0  0  0  3  0  0  0  0  0  0
  163.3370  204.5310  145.8100 O   0  0  0  0  0  0  0  0  0  0  0  0
  3 16  1  1  0  0  0
  3 15  1  0  0  0  0
  5  4  1  0  0  0  0
  5 18  1  0  0  0  0
  6 22  1  6  0  0  0
  6 14  1  0  0  0  0
  7 13  1  0  0  0  0
  9  8  1  1  0  0  0
  9  3  1  0  0  0  0
 11  6  1  0  0  0  0
 11 17  1  0  0  0  0
 12  9  1  0  0  0  0
 12  7  1  0  0  0  0
 13 15  1  0  0  0  0
 14 19  1  6  0  0  0
 14  5  1  0  0  0  0
 15  1  1  0  0  0  0
 15  2  1  0  0  0  0
 16  5  1  0  0  0  0
 17  3  1  0  0  0  0
 17 10  1  1  0  0  0
 19 20  1  0  0  0  0
 22 21  1  1  0  0  0
 24 23  1  1  0  0  0
 24 22  1  0  0  0  0
 25 28  1  0  0  0  0
 26 33  1  0  0  0  0
 26 32  1  0  0  0  0
 27 31  1  0  0  0  0
 28 24  1  0  0  0  0
 29 25  1  0  0  0  0
 29 28  1  0  0  0  0
 30 28  1  0  0  0  0
 31 25  1  0  0  0  0
 31 35  1  0  0  0  0
 32 27  1  0  0  0  0
 33 29  1  0  0  0  0
 35 34  2  0  0  0  0
 36 26  1  0  0  0  0
 37 36  2  0  0  0  0
M  END
>  <MODEL>
3

>  <REMARK>
 VINA RESULT:      -5.4      1.497      2.820
  Name = 
  6 active torsions:
  status: ('A' for Active; 'I' for Inactive)
    1  A    between atoms: C_4  and  C_25
    2  A    between atoms: C_5  and  C_28
    3  A    between atoms: C_8  and  C_33
    4  A    between atoms: C_12  and  C_31
    5  A    between atoms: C_21  and  C_32
    6  A    between atoms: C_31  and  C_33
                            x       y       z     vdW  Elec       q    Type
                         _______ _______ _______ _____ _____    ______ ____

>  <TORSDO>
F 6

$$$$
=
 OpenBabel11072413013D

 37 40  0  0  1  0  0  0  0  0999 V2000
  161.4340  209.5870  155.6960 F   0  0  0  0  0  0  0  0  0  0  0  0
  159.3070  208.9940  155.4390 F   0  0  0  0  0  0  0  0  0  0  0  0
  160.4390  209.8130  153.4480 C   0  0  1  0  0  0  0  0  0  0  0  0
  161.5120  207.1140  154.0020 F   0  0  0  0  0  0  0  0  0  0  0  0
  160.8390  207.2770  152.8010 C   0  0  0  0  0  0  0  0  0  0  0  0
  161.6710  208.7260  150.8070 C   0  0  2  0  0  3  0  0  0  0  0  0
  160.5100  212.1960  154.7910 C   0  0  0  0  0  2  0  0  0  0  0  0
  158.2370  210.7210  153.0180 F   0  0  0  0  0  0  0  0  0  0  0  0
  159.5900  210.9390  152.8100 C   0  0  1  0  0  3  0  0  0  0  0  0
  162.8580  209.3160  153.6960 F   0  0  0  0  0  0  0  0  0  0  0  0
  162.1980  209.9900  151.4960 C   0  0  0  0  0  2  0  0  0  0  0  0
  159.9620  212.3190  153.3700 C   0  0  0  0  0  2  0  0  0  0  0  0
  159.8190  211.1810  155.4750 O   0  0  0  0  0  0  0  0  0  0  0  0
  161.8120  207.4070  151.5990 C   0  0  1  0  0  3  0  0  0  0  0  0
  160.2640  209.9080  155.0250 C   0  0  0  0  0  0  0  0  0  0  0  0
  159.8700  208.4650  152.9170 C   0  0  0  0  0  2  0  0  0  0  0  0
  161.9190  210.0600  153.0050 C   0  0  1  0  0  3  0  0  0  0  0  0
  160.0810  206.1410  152.5930 F   0  0  0  0  0  0  0  0  0  0  0  0
  163.2590  207.0460  151.9310 C   0  0  0  0  0  2  0  0  0  0  0  0
  163.4000  205.6590  152.0070 O   0  0  0  0  0  1  0  0  0  0  0  0
  162.3270  209.9300  148.8150 O   0  0  0  0  0  1  0  0  0  0  0  0
  162.0510  208.6580  149.3240 C   0  0  2  0  0  3  0  0  0  0  0  0
  160.8310  208.5830  147.2400 O   0  0  0  0  0  1  0  0  0  0  0  0
  161.0470  207.9050  148.4450 C   0  0  1  0  0  3  0  0  0  0  0  0
  160.6370  205.5590  147.3450 C   0  0  2  0  0  3  0  0  0  0  0  0
  161.2660  202.8630  149.0470 C   0  0  1  0  0  3  0  0  0  0  0  0
  162.2860  203.7060  147.0410 O   0  0  0  0  0  0  0  0  0  0  0  0
  161.5120  206.4640  148.2060 C   0  0  2  0  0  0  0  0  0  0  0  0
  160.6790  205.3740  148.8870 C   0  0  2  0  0  3  0  0  0  0  0  0
  162.8930  206.2340  148.1530 O   0  0  0  0  0  1  0  0  0  0  0  0
  161.3700  204.5580  146.4130 C   0  0  2  0  0  3  0  0  0  0  0  0
  161.5010  202.6660  147.5540 C   0  0  0  0  0  2  0  0  0  0  0  0
  161.5790  204.2920  149.5060 C   0  0  0  0  0  2  0  0  0  0  0  0
  161.4050  205.4210  144.2160 O   0  0  0  0  0  0  0  0  0  0  0  0
  162.0180  205.2590  145.2610 C   0  0  0  0  0  3  0  0  0  0  0  0
  159.8760  202.4470  149.4140 C   0  0  0  0  0  3  0  0  0  0  0  0
  159.4770  201.3260  149.1450 O   0  0  0  0  0  0  0  0  0  0  0  0
  3 16  1  6  0  0  0
  3 15  1  0  0  0  0
  5 16  1  0  0  0  0
  5  4  1  0  0  0  0
  6 22  1  6  0  0  0
  6 11  1  0  0  0  0
  6 14  1  0  0  0  0
  7 13  1  0  0  0  0
  9  8  1  1  0  0  0
  9 12  1  0  0  0  0
  9  3  1  0  0  0  0
 11 17  1  0  0  0  0
 12  7  1  0  0  0  0
 14 19  1  1  0  0  0
 14  5  1  0  0  0  0
 15  2  1  0  0  0  0
 15 13  1  0  0  0  0
 15  1  1  0  0  0  0
 17  3  1  0  0  0  0
 17 10  1  1  0  0  0
 18  5  1  0  0  0  0
 19 20  1  0  0  0  0
 22 21  1  6  0  0  0
 24 23  1  6  0  0  0
 24 22  1  0  0  0  0
 25 28  1  0  0  0  0
 25 29  1  0  0  0  0
 26 36  1  0  0  0  0
 26 33  1  0  0  0  0
 27 32  1  0  0  0  0
 28 24  1  0  0  0  0
 28 29  1  0  0  0  0
 29 33  1  0  0  0  0
 30 28  1  0  0  0  0
 31 27  1  0  0  0  0
 31 25  1  0  0  0  0
 32 26  1  0  0  0  0
 34 35  2  0  0  0  0
 35 31  1  0  0  0  0
 37 36  2  0  0  0  0
M  END
>  <MODEL>
4

>  <REMARK>
 VINA RESULT:      -3.5      2.320      3.604
  Name = 
  6 active torsions:
  status: ('A' for Active; 'I' for Inactive)
    1  A    between atoms: C_4  and  C_25
    2  A    between atoms: C_5  and  C_28
    3  A    between atoms: C_8  and  C_33
    4  A    between atoms: C_12  and  C_31
    5  A    between atoms: C_21  and  C_32
    6  A    between atoms: C_31  and  C_33
                            x       y       z     vdW  Elec       q    Type
                         _______ _______ _______ _____ _____    ______ ____

>  <TORSDO>
F 6

$$$$
=
 OpenBabel11072413013D

 37 40  0  0  1  0  0  0  0  0999 V2000
  160.1630  204.2740  149.4850 F   0  0  0  0  0  0  0  0  0  0  0  0
  162.3310  203.8520  149.2380 F   0  0  0  0  0  0  0  0  0  0  0  0
  161.7140  206.1950  149.4480 C   0  0  1  0  0  0  0  0  0  0  0  0
  161.4010  204.9770  152.1240 F   0  0  0  0  0  0  0  0  0  0  0  0
  162.3430  205.9880  152.0110 C   0  0  0  0  0  0  0  0  0  0  0  0
  161.8010  208.4900  151.5450 C   0  0  2  0  0  3  0  0  0  0  0  0
  160.4830  205.8120  147.0340 C   0  0  0  0  0  2  0  0  0  0  0  0
  163.5440  206.4370  147.8840 F   0  0  0  0  0  0  0  0  0  0  0  0
  162.3340  206.9890  148.2740 C   0  0  1  0  0  3  0  0  0  0  0  0
  159.6210  206.3070  150.7770 F   0  0  0  0  0  0  0  0  0  0  0  0
  160.7180  208.4120  150.4630 C   0  0  0  0  0  2  0  0  0  0  0  0
  161.3970  207.0370  147.0590 C   0  0  0  0  0  2  0  0  0  0  0  0
  161.1910  204.6880  147.4920 O   0  0  0  0  0  0  0  0  0  0  0  0
  161.8220  207.3370  152.5740 C   0  0  1  0  0  3  0  0  0  0  0  0
  161.3290  204.7510  148.9060 C   0  0  0  0  0  0  0  0  0  0  0  0
  162.8080  206.0900  150.5500 C   0  0  0  0  0  2  0  0  0  0  0  0
  160.4560  206.9990  149.9190 C   0  0  1  0  0  3  0  0  0  0  0  0
  163.4370  205.6230  152.7710 F   0  0  0  0  0  0  0  0  0  0  0  0
  160.5290  207.2150  153.3810 C   0  0  0  0  0  2  0  0  0  0  0  0
  160.8130  206.7650  154.6720 O   0  0  0  0  0  1  0  0  0  0  0  0
  163.2900  210.3290  152.0430 O   0  0  0  0  0  1  0  0  0  0  0  0
  161.9620  209.9010  152.1210 C   0  0  2  0  0  3  0  0  0  0  0  0
  162.4210  210.3000  154.4590 O   0  0  0  0  0  1  0  0  0  0  0  0
  161.3950  210.0790  153.5320 C   0  0  1  0  0  3  0  0  0  0  0  0
  158.9290  210.8830  153.1350 C   0  0  2  0  0  3  0  0  0  0  0  0
  158.3950  213.7670  151.7340 C   0  0  1  0  0  3  0  0  0  0  0  0
  157.8620  212.9920  153.9460 O   0  0  0  0  0  0  0  0  0  0  0  0
  160.3570  211.2080  153.5600 C   0  0  2  0  0  0  0  0  0  0  0  0
  159.8630  211.6920  152.1930 C   0  0  2  0  0  3  0  0  0  0  0  0
  160.5100  212.1970  154.5410 O   0  0  0  0  0  1  0  0  0  0  0  0
  157.7890  211.5950  153.9110 C   0  0  2  0  0  3  0  0  0  0  0  0
  157.3000  213.4020  152.7310 C   0  0  0  0  0  2  0  0  0  0  0  0
  159.7680  213.2260  152.1490 C   0  0  0  0  0  2  0  0  0  0  0  0
  157.4730  211.8020  156.2410 O   0  0  0  0  0  0  0  0  0  0  0  0
  157.6480  211.0470  155.2970 C   0  0  0  0  0  3  0  0  0  0  0  0
  158.0110  213.3280  150.3560 C   0  0  0  0  0  3  0  0  0  0  0  0
  158.7190  213.6060  149.4010 O   0  0  0  0  0  0  0  0  0  0  0  0
  3 17  1  0  0  0  0
  3 16  1  1  0  0  0
  5  4  1  0  0  0  0
  5 14  1  0  0  0  0
  5 18  1  0  0  0  0
  6 22  1  1  0  0  0
  6 14  1  0  0  0  0
  7 12  1  0  0  0  0
  7 13  1  0  0  0  0
  9  8  1  6  0  0  0
  9  3  1  0  0  0  0
 11  6  1  0  0  0  0
 12  9  1  0  0  0  0
 13 15  1  0  0  0  0
 14 19  1  6  0  0  0
 15  2  1  0  0  0  0
 15  3  1  0  0  0  0
 15  1  1  0  0  0  0
 16  5  1  0  0  0  0
 17 11  1  0  0  0  0
 17 10  1  1  0  0  0
 19 20  1  0  0  0  0
 22 21  1  1  0  0  0
 22 24  1  0  0  0  0
 24 28  1  0  0  0  0
 24 23  1  1  0  0  0
 25 28  1  0  0  0  0
 25 31  1  0  0  0  0
 26 33  1  0  0  0  0
 26 32  1  0  0  0  0
 28 30  1  0  0  0  0
 29 25  1  0  0  0  0
 29 28  1  0  0  0  0
 31 27  1  0  0  0  0
 31 35  1  0  0  0  0
 32 27  1  0  0  0  0
 33 29  1  0  0  0  0
 35 34  2  0  0  0  0
 36 26  1  0  0  0  0
 37 36  2  0  0  0  0
M  END
>  <MODEL>
5

>  <REMARK>
 VINA RESULT:      -3.4      3.531      8.142
  Name = 
  6 active torsions:
  status: ('A' for Active; 'I' for Inactive)
    1  A    between atoms: C_4  and  C_25
    2  A    between atoms: C_5  and  C_28
    3  A    between atoms: C_8  and  C_33
    4  A    between atoms: C_12  and  C_31
    5  A    between atoms: C_21  and  C_32
    6  A    between atoms: C_31  and  C_33
                            x       y       z     vdW  Elec       q    Type
                         _______ _______ _______ _____ _____    ______ ____

>  <TORSDO>
F 6

$$$$
