=
 OpenBabel11072415073D

 58 61  0  0  1  0  0  0  0  0999 V2000
  161.3630  206.6640  155.7930 C   0  0  0  0  0  3  0  0  0  0  0  0
  160.8360  207.5660  156.7640 N   0  0  0  0  0  2  0  0  0  0  0  0
  159.8640  208.9970  154.9000 C   0  0  2  0  0  3  0  0  0  0  0  0
  160.1010  208.7220  156.3660 C   0  0  0  0  0  0  0  0  0  0  0  0
  159.5740  209.4520  157.2480 O   0  0  0  0  0  0  0  0  0  0  0  0
  161.3550  206.9720  154.4990 C   0  0  0  0  0  3  0  0  0  0  0  0
  160.8930  208.3090  153.9790 C   0  0  1  0  0  3  0  0  0  0  0  0
  160.2840  208.1430  152.5820 C   0  0  0  0  0  2  0  0  0  0  0  0
  161.2710  208.2490  151.4030 C   0  0  1  0  0  3  0  0  0  0  0  0
  163.0570  209.8150  152.3740 C   0  0  0  0  0  1  0  0  0  0  0  0
  162.0390  209.5700  151.2730 C   0  0  2  0  0  3  0  0  0  0  0  0
  161.1600  211.1880  149.7170 O   0  0  0  0  0  1  0  0  0  0  0  0
  161.1240  210.7700  151.0500 C   0  0  0  0  0  2  0  0  0  0  0  0
  162.1810  207.0380  151.2290 C   0  0  0  0  0  2  0  0  0  0  0  0
  161.3750  205.7860  151.0610 C   0  0  0  0  0  0  0  0  0  0  0  0
  160.6390  205.5940  150.0110 N   0  0  0  0  0  0  0  0  0  0  0  0
  161.4150  203.4720  151.5270 O   0  0  0  0  0  1  0  0  0  0  0  0
  161.4420  204.7380  152.1160 C   0  0  0  0  0  2  0  0  0  0  0  0
  160.5750  206.5180  148.9920 O   0  0  0  0  0  0  0  0  0  0  0  0
  161.8990  206.6730  147.8780 S   0  0  0  0  0  0  0  0  0  0  0  0
  162.1840  204.8780  147.8730 C   0  0  0  0  0  2  0  0  0  0  0  0
  162.4500  204.3870  146.4550 C   0  0  2  0  0  0  0  0  0  0  0  0
  161.7890  203.0790  146.0370 C   0  0  2  0  0  3  0  0  0  0  0  0
  163.8410  204.5870  145.8710 C   0  0  0  0  0  1  0  0  0  0  0  0
  161.2500  204.4060  145.5150 C   0  0  2  0  0  3  0  0  0  0  0  0
  161.2270  205.7160  143.3720 C   0  0  0  0  0  0  0  0  0  0  0  0
  161.6480  204.5820  144.1270 N   0  0  0  0  0  2  0  0  0  0  0  0
  161.5790  205.8200  142.1660 O   0  0  0  0  0  0  0  0  0  0  0  0
  159.7930  206.4890  145.2180 C   0  0  0  0  0  1  0  0  0  0  0  0
  160.4340  206.6990  143.9680 O   0  0  0  0  0  0  0  0  0  0  0  0
  160.9240  202.5960  147.0280 O   0  0  0  0  0  0  0  0  0  0  0  0
  160.5510  200.7630  144.9850 O   0  0  0  0  0  0  0  0  0  0  0  0
  161.0100  200.3610  146.0860 C   0  0  0  0  0  0  0  0  0  0  0  0
  161.2330  201.2810  147.1550 N   0  0  0  0  0  2  0  0  0  0  0  0
  161.3310  198.9220  146.2710 C   0  0  0  0  0  1  0  0  0  0  0  0
  159.7630  210.4970  154.5950 C   0  0  0  0  0  2  0  0  0  0  0  0
  158.0420  213.3400  153.8080 C   0  0  2  0  0  3  0  0  0  0  0  0
  158.1110  211.6210  155.9220 C   0  0  0  0  0  2  0  0  0  0  0  0
  159.1080  213.7040  154.8300 C   0  0  0  0  0  2  0  0  0  0  0  0
  158.9180  212.9140  156.1230 C   0  0  0  0  0  2  0  0  0  0  0  0
  158.1510  211.8440  153.4720 C   0  0  0  0  0  2  0  0  0  0  0  0
  158.3770  210.9640  154.6330 N   0  0  0  0  0  0  0  0  0  0  0  0
  156.9530  214.4020  151.8780 C   0  0  1  0  0  3  0  0  0  0  0  0
  158.2270  214.1390  152.5970 N   0  0  2  0  0  0  0  0  0  0  0  0
  157.8220  213.3090  151.4480 C   0  0  2  0  0  3  0  0  0  0  0  0
  155.8330  213.8780  152.5360 O   0  0  0  0  0  1  0  0  0  0  0  0
  158.6260  213.6960  150.2380 C   0  0  0  0  0  0  0  0  0  0  0  0
  159.8950  213.8300  150.3560 N   0  0  0  0  0  2  0  0  0  0  0  0
  157.1060  212.6470  148.7100 O   0  0  0  0  0  1  0  0  0  0  0  0
  158.0320  213.6840  148.8540 C   0  0  2  0  0  3  0  0  0  0  0  0
  159.0940  213.6150  147.7600 C   0  0  0  0  0  2  0  0  0  0  0  0
  159.0830  212.3700  147.1280 O   0  0  0  0  0  0  0  0  0  0  0  0
  160.0310  212.4770  146.1060 C   0  0  0  0  0  2  0  0  0  0  0  0
  161.1690  213.3800  146.5530 C   0  0  1  0  0  3  0  0  0  0  0  0
  162.3210  212.5150  147.0200 C   0  0  0  0  0  1  0  0  0  0  0  0
  161.6440  214.2560  145.3970 C   0  0  0  0  0  2  0  0  0  0  0  0
  162.4140  213.4490  144.3600 C   0  0  0  0  0  2  0  0  0  0  0  0
  161.4750  212.5390  143.5920 C   0  0  0  0  0  1  0  0  0  0  0  0
  1  2  1  0  0  0  0
  3 36  1  1  0  0  0
  3  4  1  0  0  0  0
  4  2  1  0  0  0  0
  4  5  2  0  0  0  0
  6  1  2  0  0  0  0
  7  8  1  6  0  0  0
  7  6  1  0  0  0  0
  7  3  1  0  0  0  0
  9 14  1  1  0  0  0
  9  8  1  0  0  0  0
 11  9  1  0  0  0  0
 11 10  1  1  0  0  0
 12 13  1  0  0  0  0
 13 11  1  0  0  0  0
 15 14  1  0  0  0  0
 15 18  1  0  0  0  0
 16 15  2  0  0  0  0
 17 18  1  0  0  0  0
 19 16  1  0  0  0  0
 20 19  1  0  0  0  0
 21 20  1  0  0  0  0
 22 24  1  6  0  0  0
 22 21  1  0  0  0  0
 23 22  1  0  0  0  0
 23 31  1  1  0  0  0
 25 27  1  6  0  0  0
 25 23  1  0  0  0  0
 25 22  1  0  0  0  0
 26 30  1  0  0  0  0
 26 27  1  0  0  0  0
 28 26  2  0  0  0  0
 30 29  1  0  0  0  0
 31 34  1  0  0  0  0
 32 33  2  0  0  0  0
 33 35  1  0  0  0  0
 33 34  1  0  0  0  0
 36 42  1  0  0  0  0
 37 41  1  6  0  0  0
 37 39  1  0  0  0  0
 38 40  1  0  0  0  0
 39 40  1  0  0  0  0
 41 42  1  0  0  0  0
 42 38  1  0  0  0  0
 43 46  1  1  0  0  0
 43 44  1  0  0  0  0
 44 37  1  1  0  0  0
 45 47  1  6  0  0  0
 45 43  1  0  0  0  0
 45 44  1  0  0  0  0
 47 48  2  0  0  0  0
 50 49  1  1  0  0  0
 50 47  1  0  0  0  0
 51 50  1  0  0  0  0
 52 51  1  0  0  0  0
 53 54  1  0  0  0  0
 53 52  1  0  0  0  0
 54 55  1  6  0  0  0
 56 54  1  0  0  0  0
 57 56  1  0  0  0  0
 58 57  1  0  0  0  0
M  END
>  <MODEL>
1

>  <REMARK>
 VINA RESULT:      -3.3      0.000      0.000
  Name = 
  26 active torsions:
  status: ('A' for Active; 'I' for Inactive)
    1  A    between atoms: C_3  and  O_31
    2  A    between atoms: C_5  and  C_50
    3  A    between atoms: C_6  and  C_30
    4  A    between atoms: C_6  and  CA_38
    5  A    between atoms: N_8  and  C_37
    6  A    between atoms: C_9  and  C_48
    7  A    between atoms: C_10  and  C_41
    8  A    between atoms: C_10  and  C_48
    9  A    between atoms: C_11  and  C_27
   10  A    between atoms: O_12  and  C_18
   11  A    between atoms: O_12  and  C_41
   12  A    between atoms: O_13  and  C_14
   13  A    between atoms: O_13  and  N_49
   14  A    between atoms: C_16  and  N_17
   15  A    between atoms: C_18  and  C_30
   16  A    between atoms: C_27  and  S_46
   17  A    between atoms: C_33  and  C_42
   18  A    between atoms: C_35  and  C_39
   19  A    between atoms: C_35  and  C_44
   20  A    between atoms: C_39  and  C_55
   21  A    between atoms: C_42  and  N_54
   22  A    between atoms: S_46  and  O_53
   23  A    between atoms: N_47  and  O_53
   24  A    between atoms: C_50  and  C_55
   25  A    between atoms: C_55  and  C_57
   26  A    between atoms: C_56  and  C_57
                            x       y       z     vdW  Elec       q    Type
                         _______ _______ _______ _____ _____    ______ ____

>  <TORSDO>
F 26

$$$$
=
 OpenBabel11072415073D

 58 61  0  0  1  0  0  0  0  0999 V2000
  161.0420  202.4910  145.4030 C   0  0  0  0  0  3  0  0  0  0  0  0
  160.2070  202.1340  146.5030 N   0  0  0  0  0  2  0  0  0  0  0  0
  161.2080  204.0290  147.8720 C   0  0  2  0  0  3  0  0  0  0  0  0
  160.2620  202.8600  147.7300 C   0  0  0  0  0  0  0  0  0  0  0  0
  159.4510  202.5760  148.6520 O   0  0  0  0  0  0  0  0  0  0  0  0
  162.0260  203.3750  145.5510 C   0  0  0  0  0  3  0  0  0  0  0  0
  162.3910  203.9780  146.8840 C   0  0  1  0  0  3  0  0  0  0  0  0
  162.9380  205.3950  146.6820 C   0  0  0  0  0  2  0  0  0  0  0  0
  161.8830  206.5020  146.4900 C   0  0  1  0  0  3  0  0  0  0  0  0
  159.5070  205.6560  146.0100 C   0  0  0  0  0  1  0  0  0  0  0  0
  160.7940  206.2320  145.4440 C   0  0  2  0  0  3  0  0  0  0  0  0
  160.2540  204.8360  143.5540 O   0  0  0  0  0  1  0  0  0  0  0  0
  161.3070  205.4420  144.2440 C   0  0  0  0  0  2  0  0  0  0  0  0
  161.3040  207.0550  147.7870 C   0  0  0  0  0  2  0  0  0  0  0  0
  162.3110  207.9080  148.4980 C   0  0  0  0  0  0  0  0  0  0  0  0
  162.2730  209.2030  148.4200 N   0  0  0  0  0  0  0  0  0  0  0  0
  162.9780  207.2590  150.6680 O   0  0  0  0  0  1  0  0  0  0  0  0
  163.3590  207.2500  149.3250 C   0  0  0  0  0  2  0  0  0  0  0  0
  161.2990  209.8560  147.6990 O   0  0  0  0  0  0  0  0  0  0  0  0
  160.8720  211.4910  148.1010 S   0  0  0  0  0  0  0  0  0  0  0  0
  161.1450  212.0480  146.3920 C   0  0  0  0  0  2  0  0  0  0  0  0
  160.0280  212.9880  145.9550 C   0  0  2  0  0  0  0  0  0  0  0  0
  159.4560  212.7840  144.5580 C   0  0  2  0  0  3  0  0  0  0  0  0
  160.1060  214.4470  146.3810 C   0  0  0  0  0  1  0  0  0  0  0  0
  158.6570  212.3460  145.7810 C   0  0  2  0  0  3  0  0  0  0  0  0
  157.1820  213.6430  147.3470 C   0  0  0  0  0  0  0  0  0  0  0  0
  157.5780  213.2910  146.0230 N   0  0  0  0  0  2  0  0  0  0  0  0
  156.2300  214.4520  147.5130 O   0  0  0  0  0  0  0  0  0  0  0  0
  157.6110  213.5500  149.7700 C   0  0  0  0  0  1  0  0  0  0  0  0
  157.8490  213.0940  148.4460 O   0  0  0  0  0  0  0  0  0  0  0  0
  159.9940  211.6490  143.9380 O   0  0  0  0  0  0  0  0  0  0  0  0
  162.4440  212.6860  143.1670 O   0  0  0  0  0  0  0  0  0  0  0  0
  161.5300  212.5850  142.3080 C   0  0  0  0  0  0  0  0  0  0  0  0
  160.2610  212.0370  142.6650 N   0  0  0  0  0  2  0  0  0  0  0  0
  161.7760  213.0280  140.9110 C   0  0  0  0  0  1  0  0  0  0  0  0
  161.6980  204.2130  149.3150 C   0  0  0  0  0  2  0  0  0  0  0  0
  161.1760  205.5360  152.4190 C   0  0  2  0  0  3  0  0  0  0  0  0
  160.5390  203.2060  151.1570 C   0  0  0  0  0  2  0  0  0  0  0  0
  162.2690  204.4850  152.5340 C   0  0  0  0  0  2  0  0  0  0  0  0
  161.7600  203.1160  152.0870 C   0  0  0  0  0  2  0  0  0  0  0  0
  160.7340  205.6500  150.9510 C   0  0  0  0  0  2  0  0  0  0  0  0
  160.5830  204.3620  150.2490 N   0  0  0  0  0  0  0  0  0  0  0  0
  161.2060  207.1670  154.2570 C   0  0  1  0  0  3  0  0  0  0  0  0
  161.6810  206.8250  152.8900 N   0  0  2  0  0  0  0  0  0  0  0  0
  160.5210  207.7140  153.0880 C   0  0  2  0  0  3  0  0  0  0  0  0
  160.4190  206.1620  154.8320 O   0  0  0  0  0  1  0  0  0  0  0  0
  160.9290  209.1390  152.8340 C   0  0  0  0  0  0  0  0  0  0  0  0
  161.1130  209.5230  151.6250 N   0  0  0  0  0  2  0  0  0  0  0  0
  162.1600  210.6470  154.2320 O   0  0  0  0  0  1  0  0  0  0  0  0
  160.8810  210.1810  153.9200 C   0  0  2  0  0  3  0  0  0  0  0  0
  160.1650  209.6880  155.1750 C   0  0  0  0  0  2  0  0  0  0  0  0
  159.3230  210.6760  155.6920 O   0  0  0  0  0  0  0  0  0  0  0  0
  159.3890  211.7230  154.7690 C   0  0  0  0  0  2  0  0  0  0  0  0
  158.3560  212.7820  155.1170 C   0  0  1  0  0  3  0  0  0  0  0  0
  158.9630  213.7430  156.1180 C   0  0  0  0  0  1  0  0  0  0  0  0
  157.9430  213.5590  153.8710 C   0  0  0  0  0  2  0  0  0  0  0  0
  156.5250  214.1020  153.9920 C   0  0  0  0  0  2  0  0  0  0  0  0
  155.9450  214.3820  152.6190 C   0  0  0  0  0  1  0  0  0  0  0  0
  1  6  2  0  0  0  0
  1  2  1  0  0  0  0
  2  4  1  0  0  0  0
  3 36  1  1  0  0  0
  4  3  1  0  0  0  0
  4  5  2  0  0  0  0
  6  7  1  0  0  0  0
  7  8  1  6  0  0  0
  7  3  1  0  0  0  0
  9  8  1  1  0  0  0
  9 14  1  0  0  0  0
 11 10  1  1  0  0  0
 11  9  1  0  0  0  0
 12 13  1  0  0  0  0
 13 11  1  0  0  0  0
 14 15  1  0  0  0  0
 15 18  1  0  0  0  0
 16 15  2  0  0  0  0
 18 17  1  0  0  0  0
 19 20  1  0  0  0  0
 19 16  1  0  0  0  0
 21 20  1  0  0  0  0
 22 24  1  1  0  0  0
 22 21  1  0  0  0  0
 23 31  1  6  0  0  0
 23 25  1  0  0  0  0
 23 22  1  0  0  0  0
 25 22  1  0  0  0  0
 25 27  1  1  0  0  0
 26 28  2  0  0  0  0
 26 30  1  0  0  0  0
 27 26  1  0  0  0  0
 30 29  1  0  0  0  0
 33 34  1  0  0  0  0
 33 32  2  0  0  0  0
 34 31  1  0  0  0  0
 35 33  1  0  0  0  0
 36 42  1  0  0  0  0
 37 41  1  6  0  0  0
 37 39  1  0  0  0  0
 38 40  1  0  0  0  0
 40 39  1  0  0  0  0
 42 41  1  0  0  0  0
 42 38  1  0  0  0  0
 43 46  1  6  0  0  0
 44 37  1  6  0  0  0
 44 45  1  0  0  0  0
 44 43  1  0  0  0  0
 45 47  1  1  0  0  0
 45 43  1  0  0  0  0
 47 50  1  0  0  0  0
 48 47  2  0  0  0  0
 50 49  1  1  0  0  0
 50 51  1  0  0  0  0
 51 52  1  0  0  0  0
 53 54  1  0  0  0  0
 53 52  1  0  0  0  0
 54 55  1  1  0  0  0
 56 57  1  0  0  0  0
 56 54  1  0  0  0  0
 58 57  1  0  0  0  0
M  END
>  <MODEL>
2

>  <REMARK>
 VINA RESULT:      -1.0      2.457      8.897
  Name = 
  26 active torsions:
  status: ('A' for Active; 'I' for Inactive)
    1  A    between atoms: C_3  and  O_31
    2  A    between atoms: C_5  and  C_50
    3  A    between atoms: C_6  and  C_30
    4  A    between atoms: C_6  and  CA_38
    5  A    between atoms: N_8  and  C_37
    6  A    between atoms: C_9  and  C_48
    7  A    between atoms: C_10  and  C_41
    8  A    between atoms: C_10  and  C_48
    9  A    between atoms: C_11  and  C_27
   10  A    between atoms: O_12  and  C_18
   11  A    between atoms: O_12  and  C_41
   12  A    between atoms: O_13  and  C_14
   13  A    between atoms: O_13  and  N_49
   14  A    between atoms: C_16  and  N_17
   15  A    between atoms: C_18  and  C_30
   16  A    between atoms: C_27  and  S_46
   17  A    between atoms: C_33  and  C_42
   18  A    between atoms: C_35  and  C_39
   19  A    between atoms: C_35  and  C_44
   20  A    between atoms: C_39  and  C_55
   21  A    between atoms: C_42  and  N_54
   22  A    between atoms: S_46  and  O_53
   23  A    between atoms: N_47  and  O_53
   24  A    between atoms: C_50  and  C_55
   25  A    between atoms: C_55  and  C_57
   26  A    between atoms: C_56  and  C_57
                            x       y       z     vdW  Elec       q    Type
                         _______ _______ _______ _____ _____    ______ ____

>  <TORSDO>
F 26

$$$$
=
 OpenBabel11072415073D

 58 61  0  0  1  0  0  0  0  0999 V2000
  161.3170  202.5140  145.9390 C   0  0  0  0  0  3  0  0  0  0  0  0
  160.4550  202.2070  147.0330 N   0  0  0  0  0  2  0  0  0  0  0  0
  161.2610  204.2890  148.2490 C   0  0  2  0  0  3  0  0  0  0  0  0
  160.4030  203.0480  148.1840 C   0  0  0  0  0  0  0  0  0  0  0  0
  159.5680  202.7980  149.0940 O   0  0  0  0  0  0  0  0  0  0  0  0
  162.2320  203.4750  146.0400 C   0  0  0  0  0  3  0  0  0  0  0  0
  162.4910  204.2270  147.3210 C   0  0  1  0  0  3  0  0  0  0  0  0
  162.9530  205.6540  147.0030 C   0  0  0  0  0  2  0  0  0  0  0  0
  161.8490  206.6360  146.5660 C   0  0  1  0  0  3  0  0  0  0  0  0
  159.6720  205.5630  145.7290 C   0  0  0  0  0  1  0  0  0  0  0  0
  160.9960  206.2120  145.3640 C   0  0  2  0  0  3  0  0  0  0  0  0
  161.0640  205.2730  143.1440 O   0  0  0  0  0  1  0  0  0  0  0  0
  161.7790  205.3980  144.3380 C   0  0  0  0  0  2  0  0  0  0  0  0
  160.9970  207.1780  147.7080 C   0  0  0  0  0  2  0  0  0  0  0  0
  161.7260  208.2570  148.4500 C   0  0  0  0  0  0  0  0  0  0  0  0
  161.5380  209.5100  148.1750 N   0  0  0  0  0  0  0  0  0  0  0  0
  162.8790  208.9650  150.3850 O   0  0  0  0  0  1  0  0  0  0  0  0
  162.6680  207.8750  149.5380 C   0  0  0  0  0  2  0  0  0  0  0  0
  160.6490  209.9120  147.2030 O   0  0  0  0  0  0  0  0  0  0  0  0
  160.0930  211.5570  147.1630 S   0  0  0  0  0  0  0  0  0  0  0  0
  160.3840  211.6770  145.3720 C   0  0  0  0  0  2  0  0  0  0  0  0
  159.5030  212.7610  144.7620 C   0  0  2  0  0  0  0  0  0  0  0  0
  160.1610  214.1010  144.4600 C   0  0  2  0  0  3  0  0  0  0  0  0
  158.0640  212.8760  145.2440 C   0  0  0  0  0  1  0  0  0  0  0  0
  159.8290  213.1420  143.3230 C   0  0  2  0  0  3  0  0  0  0  0  0
  158.4100  213.2510  141.2530 C   0  0  0  0  0  0  0  0  0  0  0  0
  158.6560  213.6200  142.6080 N   0  0  0  0  0  2  0  0  0  0  0  0
  157.3920  213.7030  140.6640 O   0  0  0  0  0  0  0  0  0  0  0  0
  159.5590  212.5220  139.2000 C   0  0  0  0  0  1  0  0  0  0  0  0
  159.2930  212.3940  140.5890 O   0  0  0  0  0  0  0  0  0  0  0  0
  161.5420  214.0660  144.6950 O   0  0  0  0  0  0  0  0  0  0  0  0
  163.2200  212.7120  146.4340 O   0  0  0  0  0  0  0  0  0  0  0  0
  162.5470  213.6820  146.8700 C   0  0  0  0  0  0  0  0  0  0  0  0
  161.6860  214.4150  145.9980 N   0  0  0  0  0  2  0  0  0  0  0  0
  162.6560  214.0730  148.3000 C   0  0  0  0  0  1  0  0  0  0  0  0
  161.6670  204.6440  149.6850 C   0  0  0  0  0  2  0  0  0  0  0  0
  161.0230  206.1760  152.6680 C   0  0  2  0  0  3  0  0  0  0  0  0
  160.3040  203.8300  151.4830 C   0  0  0  0  0  2  0  0  0  0  0  0
  162.0220  205.0580  152.9210 C   0  0  0  0  0  2  0  0  0  0  0  0
  161.4450  203.7060  152.5070 C   0  0  0  0  0  2  0  0  0  0  0  0
  160.6990  206.2380  151.1670 C   0  0  0  0  0  2  0  0  0  0  0  0
  160.5020  204.9260  150.5220 N   0  0  0  0  0  0  0  0  0  0  0  0
  161.2340  207.7850  154.5140 C   0  0  1  0  0  3  0  0  0  0  0  0
  161.5880  207.4510  153.1100 N   0  0  2  0  0  0  0  0  0  0  0  0
  160.4660  208.3570  153.4110 C   0  0  2  0  0  3  0  0  0  0  0  0
  160.4780  206.7870  155.1410 O   0  0  0  0  0  1  0  0  0  0  0  0
  160.8780  209.7780  153.1400 C   0  0  0  0  0  0  0  0  0  0  0  0
  160.5070  210.3300  152.0440 N   0  0  0  0  0  2  0  0  0  0  0  0
  161.9300  209.8780  155.2900 O   0  0  0  0  0  1  0  0  0  0  0  0
  161.4870  210.6440  154.2100 C   0  0  2  0  0  3  0  0  0  0  0  0
  160.5410  211.7470  154.6820 C   0  0  0  0  0  2  0  0  0  0  0  0
  159.2150  211.3090  154.6680 O   0  0  0  0  0  0  0  0  0  0  0  0
  158.4670  212.4410  154.3320 C   0  0  0  0  0  2  0  0  0  0  0  0
  157.2080  212.4960  155.1800 C   0  0  1  0  0  3  0  0  0  0  0  0
  156.0410  212.8750  154.2930 C   0  0  0  0  0  1  0  0  0  0  0  0
  156.9280  211.1380  155.8150 C   0  0  0  0  0  2  0  0  0  0  0  0
  155.5500  210.6130  155.4330 C   0  0  0  0  0  2  0  0  0  0  0  0
  154.6720  210.4800  156.6620 C   0  0  0  0  0  1  0  0  0  0  0  0
  1  6  2  0  0  0  0
  1  2  1  0  0  0  0
  2  4  1  0  0  0  0
  3 36  1  1  0  0  0
  4  3  1  0  0  0  0
  4  5  2  0  0  0  0
  6  7  1  0  0  0  0
  7  8  1  6  0  0  0
  7  3  1  0  0  0  0
  9  8  1  1  0  0  0
  9 14  1  0  0  0  0
 11 10  1  1  0  0  0
 11  9  1  0  0  0  0
 12 13  1  0  0  0  0
 13 11  1  0  0  0  0
 14 15  1  0  0  0  0
 15 18  1  0  0  0  0
 16 15  2  0  0  0  0
 18 17  1  0  0  0  0
 19 16  1  0  0  0  0
 20 19  1  0  0  0  0
 21 20  1  0  0  0  0
 22 24  1  1  0  0  0
 22 21  1  0  0  0  0
 23 31  1  1  0  0  0
 23 22  1  0  0  0  0
 25 27  1  6  0  0  0
 25 23  1  0  0  0  0
 25 22  1  0  0  0  0
 26 27  1  0  0  0  0
 28 26  2  0  0  0  0
 29 30  1  0  0  0  0
 30 26  1  0  0  0  0
 31 34  1  0  0  0  0
 32 33  2  0  0  0  0
 33 35  1  0  0  0  0
 34 33  1  0  0  0  0
 36 42  1  0  0  0  0
 37 41  1  6  0  0  0
 37 39  1  0  0  0  0
 38 40  1  0  0  0  0
 40 39  1  0  0  0  0
 42 41  1  0  0  0  0
 42 38  1  0  0  0  0
 43 46  1  1  0  0  0
 44 37  1  1  0  0  0
 44 45  1  0  0  0  0
 44 43  1  0  0  0  0
 45 47  1  6  0  0  0
 45 43  1  0  0  0  0
 47 50  1  0  0  0  0
 48 47  2  0  0  0  0
 50 51  1  0  0  0  0
 50 49  1  1  0  0  0
 52 51  1  0  0  0  0
 53 52  1  0  0  0  0
 53 54  1  0  0  0  0
 54 55  1  6  0  0  0
 54 56  1  0  0  0  0
 57 56  1  0  0  0  0
 57 58  1  0  0  0  0
M  END
>  <MODEL>
3

>  <REMARK>
 VINA RESULT:      -0.9      2.897      8.957
  Name = 
  26 active torsions:
  status: ('A' for Active; 'I' for Inactive)
    1  A    between atoms: C_3  and  O_31
    2  A    between atoms: C_5  and  C_50
    3  A    between atoms: C_6  and  C_30
    4  A    between atoms: C_6  and  CA_38
    5  A    between atoms: N_8  and  C_37
    6  A    between atoms: C_9  and  C_48
    7  A    between atoms: C_10  and  C_41
    8  A    between atoms: C_10  and  C_48
    9  A    between atoms: C_11  and  C_27
   10  A    between atoms: O_12  and  C_18
   11  A    between atoms: O_12  and  C_41
   12  A    between atoms: O_13  and  C_14
   13  A    between atoms: O_13  and  N_49
   14  A    between atoms: C_16  and  N_17
   15  A    between atoms: C_18  and  C_30
   16  A    between atoms: C_27  and  S_46
   17  A    between atoms: C_33  and  C_42
   18  A    between atoms: C_35  and  C_39
   19  A    between atoms: C_35  and  C_44
   20  A    between atoms: C_39  and  C_55
   21  A    between atoms: C_42  and  N_54
   22  A    between atoms: S_46  and  O_53
   23  A    between atoms: N_47  and  O_53
   24  A    between atoms: C_50  and  C_55
   25  A    between atoms: C_55  and  C_57
   26  A    between atoms: C_56  and  C_57
                            x       y       z     vdW  Elec       q    Type
                         _______ _______ _______ _____ _____    ______ ____

>  <TORSDO>
F 26

$$$$
