=
 OpenBabel11072410223D

 33 36  0  0  1  0  0  0  0  0999 V2000
  161.0470  210.0800  152.4230 N   0  0  0  0  0  0  0  0  0  0  0  0
  158.0870  211.8450  154.8700 C   0  0  0  0  0  2  0  0  0  0  0  0
  159.4050  214.3160  151.6150 C   0  0  0  0  0  3  0  0  0  0  0  0
  164.2040  212.5420  147.8560 O   0  0  0  0  0  1  0  0  0  0  0  0
  156.8830  212.3570  149.8820 O   0  0  0  0  0  0  0  0  0  0  0  0
  157.2560  213.6270  145.2840 O   0  0  0  0  0  0  0  0  0  0  0  0
  160.4760  211.5930  148.0820 S   0  0  0  0  0  0  0  0  0  0  0  0
  162.1170  211.4120  148.4380 C   0  0  0  0  0  0  0  0  0  0  0  0
  160.7740  210.5300  153.7220 N   0  0  0  0  0  2  0  0  0  0  0  0
  162.8210  212.4200  147.7900 C   0  0  0  0  0  0  0  0  0  0  0  0
  159.6190  213.6750  146.4470 N   0  0  0  0  0  2  0  0  0  0  0  0
  161.9190  209.9440  150.4220 C   0  0  0  0  0  0  0  0  0  0  0  0
  157.9810  212.5610  152.4760 C   0  0  0  0  0  3  0  0  0  0  0  0
  160.6620  212.9680  147.1250 C   0  0  0  0  0  0  0  0  0  0  0  0
  157.7110  211.8710  146.9140 O   0  0  0  0  0  0  0  0  0  0  0  0
  162.5390  214.4530  146.2800 C   0  0  0  0  0  1  0  0  0  0  0  0
  159.7070  209.9590  154.5280 C   0  0  0  0  0  2  0  0  0  0  0  0
  161.9880  210.6070  151.6270 C   0  0  0  0  0  3  0  0  0  0  0  0
  159.5770  213.6480  153.9360 C   0  0  0  0  0  3  0  0  0  0  0  0
  159.9980  214.4530  152.8730 C   0  0  0  0  0  3  0  0  0  0  0  0
  159.1960  211.0060  155.5010 C   0  0  2  0  0  3  0  0  0  0  0  0
  162.0090  213.2970  147.0590 C   0  0  0  0  0  0  0  0  0  0  0  0
  157.9770  214.2610  149.0920 N   0  0  0  0  0  2  0  0  0  0  0  0
  160.8910  209.0140  150.4820 C   0  0  0  0  0  3  0  0  0  0  0  0
  157.2070  214.3450  147.8600 C   0  0  0  0  0  2  0  0  0  0  0  0
  162.7340  210.2900  149.2140 C   0  0  1  0  0  3  0  0  0  0  0  0
  158.5720  212.6940  153.7370 C   0  0  0  0  0  0  0  0  0  0  0  0
  157.7190  213.2770  150.0990 C   0  0  0  0  0  0  0  0  0  0  0  0
  157.9270  213.3220  146.5930 S   0  0  0  0  0  0  0  0  0  0  0  0
  162.9090  209.1280  148.3580 N   0  0  0  0  0  1  0  0  0  0  0  0
  158.3910  213.3710  151.4070 C   0  0  0  0  0  0  0  0  0  0  0  0
  158.6450  210.3110  156.7290 C   0  0  0  0  0  1  0  0  0  0  0  0
  160.3700  209.1260  151.7580 C   0  0  0  0  0  3  0  0  0  0  0  0
  1  9  1  0  0  0  0
  2 21  1  0  0  0  0
  3 20  1  0  0  0  0
  5 28  2  0  0  0  0
  6 29  2  0  0  0  0
  7  8  1  0  0  0  0
  8 26  1  0  0  0  0
  9 17  1  0  0  0  0
 10  4  1  0  0  0  0
 10  8  2  0  0  0  0
 11 29  1  0  0  0  0
 11 14  1  0  0  0  0
 12 24  1  0  0  0  0
 12 18  2  0  0  0  0
 13 27  2  0  0  0  0
 14  7  1  0  0  0  0
 16 22  1  0  0  0  0
 17 21  1  0  0  0  0
 18  1  1  0  0  0  0
 20 19  2  0  0  0  0
 21 32  1  1  0  0  0
 22 14  2  0  0  0  0
 22 10  1  0  0  0  0
 23 28  1  0  0  0  0
 24 33  2  0  0  0  0
 25 23  1  0  0  0  0
 26 30  1  6  0  0  0
 26 12  1  0  0  0  0
 27 19  1  0  0  0  0
 27  2  1  0  0  0  0
 28 31  1  0  0  0  0
 29 15  2  0  0  0  0
 29 25  1  0  0  0  0
 31  3  2  0  0  0  0
 31 13  1  0  0  0  0
 33  1  1  0  0  0  0
M  END
>  <MODEL>
1

>  <REMARK>
 VINA RESULT:       2.2      0.000      0.000
  Name = 
  0 active torsions:
  status: ('A' for Active; 'I' for Inactive)
                            x       y       z     vdW  Elec       q    Type
                         _______ _______ _______ _____ _____    ______ ____

>  <TORSDO>
F 0

$$$$
=
 OpenBabel11072410223D

 33 36  0  0  1  0  0  0  0  0999 V2000
  161.5120  208.1960  152.5640 N   0  0  0  0  0  0  0  0  0  0  0  0
  159.4290  209.1100  156.1270 C   0  0  0  0  0  2  0  0  0  0  0  0
  160.4380  212.5290  153.7320 C   0  0  0  0  0  3  0  0  0  0  0  0
  164.0310  211.9710  148.5280 O   0  0  0  0  0  1  0  0  0  0  0  0
  157.3380  211.5640  152.1020 O   0  0  0  0  0  0  0  0  0  0  0  0
  156.9710  214.4530  148.3060 O   0  0  0  0  0  0  0  0  0  0  0  0
  160.3240  211.2810  149.3190 S   0  0  0  0  0  0  0  0  0  0  0  0
  161.9520  210.8600  149.1710 C   0  0  0  0  0  0  0  0  0  0  0  0
  161.5830  208.1370  153.9620 N   0  0  0  0  0  2  0  0  0  0  0  0
  162.6620  211.9840  148.7670 C   0  0  0  0  0  0  0  0  0  0  0  0
  159.4970  213.8850  148.7890 N   0  0  0  0  0  2  0  0  0  0  0  0
  161.9280  208.7670  150.4940 C   0  0  0  0  0  0  0  0  0  0  0  0
  158.9570  210.6870  154.2430 C   0  0  0  0  0  3  0  0  0  0  0  0
  160.5280  212.8990  148.8940 C   0  0  0  0  0  0  0  0  0  0  0  0
  157.4590  212.1820  149.0470 O   0  0  0  0  0  0  0  0  0  0  0  0
  162.4080  214.4530  148.1900 C   0  0  0  0  0  1  0  0  0  0  0  0
  160.6240  207.3820  154.7520 C   0  0  0  0  0  2  0  0  0  0  0  0
  162.3450  208.9160  151.7990 C   0  0  0  0  0  3  0  0  0  0  0  0
  160.9680  211.0190  155.5490 C   0  0  0  0  0  3  0  0  0  0  0  0
  161.2880  212.1340  154.7700 C   0  0  0  0  0  3  0  0  0  0  0  0
  160.4940  208.0160  156.1260 C   0  0  2  0  0  3  0  0  0  0  0  0
  161.8690  213.1300  148.6170 C   0  0  0  0  0  0  0  0  0  0  0  0
  158.5380  213.5400  151.7880 N   0  0  0  0  0  2  0  0  0  0  0  0
  160.7980  207.9610  150.4750 C   0  0  0  0  0  3  0  0  0  0  0  0
  157.5580  214.1420  150.8960 C   0  0  0  0  0  2  0  0  0  0  0  0
  162.5260  209.4850  149.3240 C   0  0  1  0  0  3  0  0  0  0  0  0
  159.8040  210.2870  155.2830 C   0  0  0  0  0  0  0  0  0  0  0  0
  158.3360  212.2690  152.4140 C   0  0  0  0  0  0  0  0  0  0  0  0
  157.8350  213.6270  149.2150 S   0  0  0  0  0  0  0  0  0  0  0  0
  162.3360  208.7260  148.0990 N   0  0  0  0  0  1  0  0  0  0  0  0
  159.2650  211.8100  153.4630 C   0  0  0  0  0  0  0  0  0  0  0  0
  160.1000  206.9490  157.1260 C   0  0  0  0  0  1  0  0  0  0  0  0
  160.5710  207.6180  151.7950 C   0  0  0  0  0  3  0  0  0  0  0  0
  1  9  1  0  0  0  0
  3 20  1  0  0  0  0
  4 10  1  0  0  0  0
  5 28  2  0  0  0  0
  6 29  2  0  0  0  0
  8  7  1  0  0  0  0
  8 26  1  0  0  0  0
  9 17  1  0  0  0  0
 10  8  2  0  0  0  0
 11 14  1  0  0  0  0
 11 29  1  0  0  0  0
 12 18  2  0  0  0  0
 13 27  2  0  0  0  0
 14  7  1  0  0  0  0
 15 29  2  0  0  0  0
 16 22  1  0  0  0  0
 17 21  1  0  0  0  0
 18  1  1  0  0  0  0
 20 19  2  0  0  0  0
 21  2  1  0  0  0  0
 21 32  1  1  0  0  0
 22 10  1  0  0  0  0
 22 14  2  0  0  0  0
 23 28  1  0  0  0  0
 24 12  1  0  0  0  0
 24 33  2  0  0  0  0
 25 23  1  0  0  0  0
 26 30  1  6  0  0  0
 26 12  1  0  0  0  0
 27 19  1  0  0  0  0
 27  2  1  0  0  0  0
 28 31  1  0  0  0  0
 29 25  1  0  0  0  0
 31  3  2  0  0  0  0
 31 13  1  0  0  0  0
 33  1  1  0  0  0  0
M  END
>  <MODEL>
2

>  <REMARK>
 VINA RESULT:       3.0      1.816      2.392
  Name = 
  0 active torsions:
  status: ('A' for Active; 'I' for Inactive)
                            x       y       z     vdW  Elec       q    Type
                         _______ _______ _______ _____ _____    ______ ____

>  <TORSDO>
F 0

$$$$
=
 OpenBabel11072410223D

 33 36  0  0  1  0  0  0  0  0999 V2000
  159.2160  210.7530  153.6780 N   0  0  0  0  0  0  0  0  0  0  0  0
  162.3260  207.8930  153.8070 C   0  0  0  0  0  2  0  0  0  0  0  0
  160.9940  208.8920  149.8490 C   0  0  0  0  0  3  0  0  0  0  0  0
  156.0030  212.7010  148.9080 O   0  0  0  0  0  1  0  0  0  0  0  0
  163.3760  211.5870  150.3660 O   0  0  0  0  0  0  0  0  0  0  0  0
  162.8950  214.4290  146.5470 O   0  0  0  0  0  0  0  0  0  0  0  0
  159.6960  213.2930  149.8340 S   0  0  0  0  0  0  0  0  0  0  0  0
  158.0630  213.0370  150.1780 C   0  0  0  0  0  0  0  0  0  0  0  0
  159.5510  209.4660  154.1190 N   0  0  0  0  0  2  0  0  0  0  0  0
  157.3770  212.8980  148.9770 C   0  0  0  0  0  0  0  0  0  0  0  0
  160.5770  213.3590  147.1950 N   0  0  0  0  0  2  0  0  0  0  0  0
  158.2710  212.3740  152.5540 C   0  0  0  0  0  0  0  0  0  0  0  0
  162.3770  209.3550  151.7790 C   0  0  0  0  0  3  0  0  0  0  0  0
  159.5320  213.2010  148.1590 C   0  0  0  0  0  0  0  0  0  0  0  0
  162.4280  214.1880  148.9290 O   0  0  0  0  0  0  0  0  0  0  0  0
  157.6860  212.8670  146.4480 C   0  0  0  0  0  1  0  0  0  0  0  0
  160.6220  209.2310  155.0750 C   0  0  0  0  0  2  0  0  0  0  0  0
  158.2690  211.0120  152.7660 C   0  0  0  0  0  3  0  0  0  0  0  0
  160.8760  207.4560  151.7940 C   0  0  0  0  0  3  0  0  0  0  0  0
  160.4510  207.7840  150.5030 C   0  0  0  0  0  3  0  0  0  0  0  0
  161.2070  207.8490  154.8460 C   0  0  2  0  0  3  0  0  0  0  0  0
  158.1970  212.9830  147.8450 C   0  0  0  0  0  0  0  0  0  0  0  0
  162.3320  210.9950  148.3650 N   0  0  0  0  0  2  0  0  0  0  0  0
  159.2630  212.9470  153.3380 C   0  0  0  0  0  3  0  0  0  0  0  0
  163.0620  211.9570  147.5530 C   0  0  0  0  0  2  0  0  0  0  0  0
  157.4290  213.0760  151.5340 C   0  0  1  0  0  3  0  0  0  0  0  0
  161.8360  208.2460  152.4380 C   0  0  0  0  0  0  0  0  0  0  0  0
  162.5850  210.8120  149.7620 C   0  0  0  0  0  0  0  0  0  0  0  0
  162.2580  213.5450  147.5810 S   0  0  0  0  0  0  0  0  0  0  0  0
  157.1800  214.4530  151.9290 N   0  0  0  0  0  1  0  0  0  0  0  0
  161.9630  209.6850  150.4800 C   0  0  0  0  0  0  0  0  0  0  0  0
  161.7720  207.3310  156.1510 C   0  0  0  0  0  1  0  0  0  0  0  0
  159.8320  211.8950  154.0350 C   0  0  0  0  0  3  0  0  0  0  0  0
  1 33  1  0  0  0  0
  1  9  1  0  0  0  0
  2 21  1  0  0  0  0
  3 31  2  0  0  0  0
  3 20  1  0  0  0  0
  4 10  1  0  0  0  0
  6 29  2  0  0  0  0
  7  8  1  0  0  0  0
  8 26  1  0  0  0  0
  9 17  1  0  0  0  0
 10  8  2  0  0  0  0
 11 29  1  0  0  0  0
 11 14  1  0  0  0  0
 12 18  2  0  0  0  0
 12 24  1  0  0  0  0
 13 27  2  0  0  0  0
 14  7  1  0  0  0  0
 16 22  1  0  0  0  0
 18  1  1  0  0  0  0
 19 27  1  0  0  0  0
 20 19  2  0  0  0  0
 21 17  1  0  0  0  0
 21 32  1  1  0  0  0
 22 14  2  0  0  0  0
 22 10  1  0  0  0  0
 23 28  1  0  0  0  0
 24 33  2  0  0  0  0
 25 29  1  0  0  0  0
 25 23  1  0  0  0  0
 26 30  1  1  0  0  0
 26 12  1  0  0  0  0
 27  2  1  0  0  0  0
 28  5  2  0  0  0  0
 28 31  1  0  0  0  0
 29 15  2  0  0  0  0
 31 13  1  0  0  0  0
M  END
>  <MODEL>
3

>  <REMARK>
 VINA RESULT:       3.1      1.956      5.203
  Name = 
  0 active torsions:
  status: ('A' for Active; 'I' for Inactive)
                            x       y       z     vdW  Elec       q    Type
                         _______ _______ _______ _____ _____    ______ ____

>  <TORSDO>
F 0

$$$$
