=
 OpenBabel11072410543D

 40 41  0  0  1  0  0  0  0  0999 V2000
  160.8880  206.3510  151.9100 C   0  0  1  0  0  3  0  0  0  0  0  0
  161.2850  206.9750  150.6000 C   0  0  0  0  0  0  0  0  0  0  0  0
  162.0330  208.1360  148.2020 N   0  0  0  0  0  0  0  0  0  0  0  0
  161.1380  206.2760  149.3960 C   0  0  0  0  0  3  0  0  0  0  0  0
  161.9780  208.9760  151.7240 F   0  0  0  0  0  0  0  0  0  0  0  0
  161.5170  206.8740  148.1850 C   0  0  0  0  0  0  0  0  0  0  0  0
  161.8180  208.2700  150.5770 C   0  0  0  0  0  0  0  0  0  0  0  0
  162.1890  208.8370  149.3580 C   0  0  0  0  0  3  0  0  0  0  0  0
  161.3680  206.1720  146.9370 N   0  0  0  0  0  0  0  0  0  0  0  0
  160.3540  206.5590  146.0010 C   0  0  0  0  0  3  0  0  0  0  0  0
  160.2230  205.9640  144.8980 O   0  0  0  0  0  0  0  0  0  0  0  0
  162.2810  205.0840  146.5970 C   0  0  0  0  0  2  0  0  0  0  0  0
  161.2710  202.7300  145.9470 C   0  0  0  0  0  2  0  0  0  0  0  0
  161.6670  203.7680  146.9380 C   0  0  0  0  0  0  0  0  0  0  0  0
  160.7830  201.6690  146.8130 N   0  0  0  0  0  0  0  0  0  0  0  0
  160.9140  202.0790  148.0330 C   0  0  0  0  0  0  0  0  0  0  0  0
  161.4680  203.3820  148.1510 N   0  0  0  0  0  0  0  0  0  0  0  0
  159.1640  201.1830  149.5830 N   0  0  0  0  0  1  0  0  0  0  0  0
  161.4030  200.6440  149.8500 O   0  0  0  0  0  0  0  0  0  0  0  0
  160.5300  201.2670  149.1920 C   0  0  0  0  0  0  0  0  0  0  0  0
  162.4180  204.5950  151.4190 F   0  0  0  0  0  0  0  0  0  0  0  0
  161.1730  204.8470  151.9640 C   0  0  0  0  0  0  0  0  0  0  0  0
  160.2180  204.1400  151.2540 F   0  0  0  0  0  0  0  0  0  0  0  0
  161.1710  204.4170  153.2790 F   0  0  0  0  0  0  0  0  0  0  0  0
  161.5070  207.0860  153.0980 C   0  0  0  0  0  2  0  0  0  0  0  0
  160.4760  207.3310  154.1910 C   0  0  0  0  0  2  0  0  0  0  0  0
  161.0580  208.1690  155.3200 C   0  0  0  0  0  1  0  0  0  0  0  0
  159.8500  211.8780  153.6550 C   0  0  0  0  0  2  0  0  0  0  0  0
  161.8650  211.0890  155.9920 C   0  0  0  0  0  2  0  0  0  0  0  0
  159.7800  210.6550  154.5550 C   0  0  0  0  0  2  0  0  0  0  0  0
  157.7090  213.5550  154.3450 O   0  0  0  0  0  1  0  0  0  0  0  0
  161.1960  210.6220  157.2590 C   0  0  0  0  0  2  0  0  0  0  0  0
  156.9500  211.3670  154.5460 C   0  0  0  0  0  2  0  0  0  0  0  0
  158.5580  212.0150  152.8460 C   0  0  0  0  0  2  0  0  0  0  0  0
  157.3990  212.4360  153.6410 N   0  0  0  0  0  0  0  0  0  0  0  0
  162.8660  210.3160  155.6150 O   0  0  0  0  0  0  0  0  0  0  0  0
  159.7190  211.0200  157.2220 C   0  0  0  0  0  2  0  0  0  0  0  0
  159.0460  210.9550  155.8600 C   0  0  0  0  0  0  0  0  0  0  0  0
  157.7500  211.2830  155.8240 C   0  0  0  0  0  3  0  0  0  0  0  0
  161.4140  209.8570  154.7390 P   0  0  0  0  0  1  0  0  0  0  0  0
  1 22  1  0  0  0  0
  1 25  1  1  0  0  0
  2  1  1  0  0  0  0
  3  8  1  0  0  0  0
  4  2  2  0  0  0  0
  6  3  2  0  0  0  0
  6  4  1  0  0  0  0
  7  2  1  0  0  0  0
  7  5  1  0  0  0  0
  8  7  2  0  0  0  0
  9  6  1  0  0  0  0
 10  9  1  0  0  0  0
 11 10  2  0  0  0  0
 12  9  1  0  0  0  0
 12 14  1  0  0  0  0
 13 15  1  0  0  0  0
 13 14  1  0  0  0  0
 14 17  2  0  0  0  0
 15 16  2  0  0  0  0
 16 17  1  0  0  0  0
 16 20  1  0  0  0  0
 20 18  1  0  0  0  0
 20 19  2  0  0  0  0
 21 22  1  0  0  0  0
 22 24  1  0  0  0  0
 23 22  1  0  0  0  0
 25 26  1  0  0  0  0
 26 27  1  0  0  0  0
 28 30  1  0  0  0  0
 29 32  1  0  0  0  0
 30 38  1  0  0  0  0
 33 39  1  0  0  0  0
 34 35  1  0  0  0  0
 34 28  1  0  0  0  0
 35 31  1  0  0  0  0
 35 33  1  0  0  0  0
 36 29  1  0  0  0  0
 37 32  1  0  0  0  0
 38 37  1  0  0  0  0
 39 38  2  0  0  0  0
 40 36  1  0  0  0  0
M  END
>  <MODEL>
1

>  <REMARK>
 VINA RESULT:      -9.2      0.000      0.000
  Name = 
  10 active torsions:
  status: ('A' for Active; 'I' for Inactive)
    1  A    between atoms: N_3  and  C_14
    2  A    between atoms: N_3  and  C_30
    3  A    between atoms: C_8  and  C_21
    4  A    between atoms: C_11  and  C_22
    5  A    between atoms: C_11  and  P_37
    6  A    between atoms: C_13  and  C_21
    7  A    between atoms: C_13  and  C_22
    8  A    between atoms: C_14  and  C_19
    9  A    between atoms: C_21  and  C_27
   10  A    between atoms: C_26  and  C_38
                            x       y       z     vdW  Elec       q    Type
                         _______ _______ _______ _____ _____    ______ ____

>  <TORSDO>
F 10

$$$$
=
 OpenBabel11072410543D

 40 41  0  0  1  0  0  0  0  0999 V2000
  161.5230  206.9170  150.6170 C   0  0  1  0  0  3  0  0  0  0  0  0
  161.3160  205.4870  151.0380 C   0  0  0  0  0  0  0  0  0  0  0  0
  160.9300  202.8650  151.8330 N   0  0  0  0  0  0  0  0  0  0  0  0
  160.9130  204.5170  150.1120 C   0  0  0  0  0  3  0  0  0  0  0  0
  161.9070  206.0290  153.2970 F   0  0  0  0  0  0  0  0  0  0  0  0
  160.7230  203.1900  150.5250 C   0  0  0  0  0  0  0  0  0  0  0  0
  161.5200  205.1160  152.3720 C   0  0  0  0  0  0  0  0  0  0  0  0
  161.3190  203.7890  152.7530 C   0  0  0  0  0  3  0  0  0  0  0  0
  160.3140  202.1770  149.5870 N   0  0  0  0  0  0  0  0  0  0  0  0
  158.9540  201.7250  149.5490 C   0  0  0  0  0  3  0  0  0  0  0  0
  158.5800  200.8520  148.7220 O   0  0  0  0  0  0  0  0  0  0  0  0
  161.2780  201.6320  148.6340 C   0  0  0  0  0  2  0  0  0  0  0  0
  160.7480  201.8190  146.0520 C   0  0  0  0  0  2  0  0  0  0  0  0
  161.2170  202.3830  147.3470 C   0  0  0  0  0  0  0  0  0  0  0  0
  160.8560  202.9730  145.1740 N   0  0  0  0  0  0  0  0  0  0  0  0
  161.2910  203.9590  145.8890 C   0  0  0  0  0  0  0  0  0  0  0  0
  161.5220  203.6320  147.2520 N   0  0  0  0  0  0  0  0  0  0  0  0
  160.4190  206.0920  144.9090 N   0  0  0  0  0  1  0  0  0  0  0  0
  162.6890  205.7570  145.2430 O   0  0  0  0  0  0  0  0  0  0  0  0
  161.5200  205.3000  145.3400 C   0  0  0  0  0  0  0  0  0  0  0  0
  161.3860  208.4790  148.8260 F   0  0  0  0  0  0  0  0  0  0  0  0
  161.3440  207.1270  149.1110 C   0  0  0  0  0  0  0  0  0  0  0  0
  160.1320  206.6130  148.6840 F   0  0  0  0  0  0  0  0  0  0  0  0
  162.3690  206.5000  148.4250 F   0  0  0  0  0  0  0  0  0  0  0  0
  160.6520  207.8770  151.4280 C   0  0  0  0  0  2  0  0  0  0  0  0
  161.5030  208.8940  152.1750 C   0  0  0  0  0  2  0  0  0  0  0  0
  161.0290  209.0620  153.6110 C   0  0  0  0  0  1  0  0  0  0  0  0
  159.4190  212.9180  154.3400 C   0  0  0  0  0  2  0  0  0  0  0  0
  161.5290  211.1060  155.8920 C   0  0  0  0  0  2  0  0  0  0  0  0
  159.4880  211.4000  154.3600 C   0  0  0  0  0  2  0  0  0  0  0  0
  157.1200  213.6760  155.7580 O   0  0  0  0  0  1  0  0  0  0  0  0
  160.9240  209.9300  156.6160 C   0  0  0  0  0  2  0  0  0  0  0  0
  156.5990  211.7210  154.6120 C   0  0  0  0  0  2  0  0  0  0  0  0
  158.1120  213.3810  153.6910 C   0  0  0  0  0  2  0  0  0  0  0  0
  156.9230  213.1530  154.5200 N   0  0  0  0  0  0  0  0  0  0  0  0
  162.6020  210.7920  155.1920 O   0  0  0  0  0  0  0  0  0  0  0  0
  159.4130  210.1380  156.7370 C   0  0  0  0  0  2  0  0  0  0  0  0
  158.7380  210.8160  155.5560 C   0  0  0  0  0  0  0  0  0  0  0  0
  157.4150  210.9840  155.6460 C   0  0  0  0  0  3  0  0  0  0  0  0
  161.1990  210.7970  154.1350 P   0  0  0  0  0  1  0  0  0  0  0  0
  1  2  1  0  0  0  0
  1 25  1  1  0  0  0
  2  7  1  0  0  0  0
  3  8  1  0  0  0  0
  4  6  1  0  0  0  0
  4  2  2  0  0  0  0
  6  3  2  0  0  0  0
  7  8  2  0  0  0  0
  7  5  1  0  0  0  0
  9  6  1  0  0  0  0
 10  9  1  0  0  0  0
 11 10  2  0  0  0  0
 12  9  1  0  0  0  0
 13 14  1  0  0  0  0
 14 12  1  0  0  0  0
 15 16  2  0  0  0  0
 15 13  1  0  0  0  0
 16 17  1  0  0  0  0
 17 14  2  0  0  0  0
 18 20  1  0  0  0  0
 19 20  2  0  0  0  0
 20 16  1  0  0  0  0
 21 22  1  0  0  0  0
 22  1  1  0  0  0  0
 23 22  1  0  0  0  0
 24 22  1  0  0  0  0
 25 26  1  0  0  0  0
 26 27  1  0  0  0  0
 28 30  1  0  0  0  0
 29 32  1  0  0  0  0
 30 38  1  0  0  0  0
 32 37  1  0  0  0  0
 33 39  1  0  0  0  0
 34 28  1  0  0  0  0
 34 35  1  0  0  0  0
 35 33  1  0  0  0  0
 35 31  1  0  0  0  0
 36 29  1  0  0  0  0
 38 39  2  0  0  0  0
 38 37  1  0  0  0  0
 40 36  1  0  0  0  0
M  END
>  <MODEL>
2

>  <REMARK>
 VINA RESULT:      -8.0      1.737      3.564
  Name = 
  10 active torsions:
  status: ('A' for Active; 'I' for Inactive)
    1  A    between atoms: N_3  and  C_14
    2  A    between atoms: N_3  and  C_30
    3  A    between atoms: C_8  and  C_21
    4  A    between atoms: C_11  and  C_22
    5  A    between atoms: C_11  and  P_37
    6  A    between atoms: C_13  and  C_21
    7  A    between atoms: C_13  and  C_22
    8  A    between atoms: C_14  and  C_19
    9  A    between atoms: C_21  and  C_27
   10  A    between atoms: C_26  and  C_38
                            x       y       z     vdW  Elec       q    Type
                         _______ _______ _______ _____ _____    ______ ____

>  <TORSDO>
F 10

$$$$
=
 OpenBabel11072410543D

 40 41  0  0  1  0  0  0  0  0999 V2000
  161.8820  206.9540  151.6860 C   0  0  1  0  0  3  0  0  0  0  0  0
  161.5360  205.8600  150.7120 C   0  0  0  0  0  0  0  0  0  0  0  0
  160.8860  203.8390  148.9380 N   0  0  0  0  0  0  0  0  0  0  0  0
  161.4530  206.1210  149.3390 C   0  0  0  0  0  3  0  0  0  0  0  0
  161.3520  204.2760  152.5020 F   0  0  0  0  0  0  0  0  0  0  0  0
  161.1250  205.0880  148.4470 C   0  0  0  0  0  0  0  0  0  0  0  0
  161.2840  204.5640  151.1780 C   0  0  0  0  0  0  0  0  0  0  0  0
  160.9570  203.5600  150.2680 C   0  0  0  0  0  3  0  0  0  0  0  0
  161.0410  205.3360  147.0310 N   0  0  0  0  0  0  0  0  0  0  0  0
  160.1540  206.3380  146.5190 C   0  0  0  0  0  3  0  0  0  0  0  0
  160.0820  206.5760  145.2830 O   0  0  0  0  0  0  0  0  0  0  0  0
  161.8940  204.5920  146.1080 C   0  0  0  0  0  2  0  0  0  0  0  0
  160.1850  202.9990  144.8750 C   0  0  0  0  0  2  0  0  0  0  0  0
  161.3040  203.2530  145.8220 C   0  0  0  0  0  0  0  0  0  0  0  0
  160.0550  201.5530  144.9560 N   0  0  0  0  0  0  0  0  0  0  0  0
  160.9530  201.1330  145.7860 C   0  0  0  0  0  0  0  0  0  0  0  0
  161.7570  202.1640  146.3430 N   0  0  0  0  0  0  0  0  0  0  0  0
  161.5810  199.3390  147.4160 N   0  0  0  0  0  1  0  0  0  0  0  0
  160.8890  198.8260  145.2620 O   0  0  0  0  0  0  0  0  0  0  0  0
  161.1300  199.7160  146.1190 C   0  0  0  0  0  0  0  0  0  0  0  0
  163.0700  208.0980  149.9690 F   0  0  0  0  0  0  0  0  0  0  0  0
  162.1710  208.2930  151.0010 C   0  0  0  0  0  0  0  0  0  0  0  0
  162.7060  209.1990  151.9010 F   0  0  0  0  0  0  0  0  0  0  0  0
  161.0020  208.8120  150.4760 F   0  0  0  0  0  0  0  0  0  0  0  0
  160.8220  207.0960  152.7780 C   0  0  0  0  0  2  0  0  0  0  0  0
  161.4600  207.3930  154.1280 C   0  0  0  0  0  2  0  0  0  0  0  0
  160.5850  208.3200  154.9590 C   0  0  0  0  0  1  0  0  0  0  0  0
  159.5290  212.2730  153.8400 C   0  0  0  0  0  2  0  0  0  0  0  0
  161.4970  211.0810  156.0430 C   0  0  0  0  0  2  0  0  0  0  0  0
  159.4070  210.9370  154.5550 C   0  0  0  0  0  2  0  0  0  0  0  0
  157.4480  213.9150  154.7600 O   0  0  0  0  0  1  0  0  0  0  0  0
  160.8010  210.4640  157.2290 C   0  0  0  0  0  2  0  0  0  0  0  0
  156.6060  211.7510  154.6440 C   0  0  0  0  0  2  0  0  0  0  0  0
  158.2490  212.5730  153.0570 C   0  0  0  0  0  2  0  0  0  0  0  0
  157.1010  212.9200  153.9030 N   0  0  0  0  0  0  0  0  0  0  0  0
  162.4700  210.3320  155.5600 O   0  0  0  0  0  0  0  0  0  0  0  0
  159.3410  210.9190  157.2470 C   0  0  0  0  0  2  0  0  0  0  0  0
  158.6760  211.0760  155.8890 C   0  0  0  0  0  0  0  0  0  0  0  0
  157.3930  211.4550  155.8980 C   0  0  0  0  0  3  0  0  0  0  0  0
  161.0080  210.0590  154.6260 P   0  0  0  0  0  1  0  0  0  0  0  0
  1 25  1  1  0  0  0
  2  7  1  0  0  0  0
  2  1  1  0  0  0  0
  3  8  1  0  0  0  0
  4  2  2  0  0  0  0
  6  3  2  0  0  0  0
  6  4  1  0  0  0  0
  7  5  1  0  0  0  0
  8  7  2  0  0  0  0
  9  6  1  0  0  0  0
 10  9  1  0  0  0  0
 11 10  2  0  0  0  0
 12  9  1  0  0  0  0
 13 15  1  0  0  0  0
 13 14  1  0  0  0  0
 14 12  1  0  0  0  0
 14 17  2  0  0  0  0
 15 16  2  0  0  0  0
 16 20  1  0  0  0  0
 16 17  1  0  0  0  0
 19 20  2  0  0  0  0
 20 18  1  0  0  0  0
 21 22  1  0  0  0  0
 22  1  1  0  0  0  0
 22 23  1  0  0  0  0
 24 22  1  0  0  0  0
 25 26  1  0  0  0  0
 26 27  1  0  0  0  0
 28 30  1  0  0  0  0
 29 32  1  0  0  0  0
 30 38  1  0  0  0  0
 32 37  1  0  0  0  0
 33 39  1  0  0  0  0
 34 28  1  0  0  0  0
 34 35  1  0  0  0  0
 35 33  1  0  0  0  0
 35 31  1  0  0  0  0
 36 29  1  0  0  0  0
 38 39  2  0  0  0  0
 38 37  1  0  0  0  0
 40 36  1  0  0  0  0
M  END
>  <MODEL>
3

>  <REMARK>
 VINA RESULT:      -7.4      1.455      2.546
  Name = 
  10 active torsions:
  status: ('A' for Active; 'I' for Inactive)
    1  A    between atoms: N_3  and  C_14
    2  A    between atoms: N_3  and  C_30
    3  A    between atoms: C_8  and  C_21
    4  A    between atoms: C_11  and  C_22
    5  A    between atoms: C_11  and  P_37
    6  A    between atoms: C_13  and  C_21
    7  A    between atoms: C_13  and  C_22
    8  A    between atoms: C_14  and  C_19
    9  A    between atoms: C_21  and  C_27
   10  A    between atoms: C_26  and  C_38
                            x       y       z     vdW  Elec       q    Type
                         _______ _______ _______ _____ _____    ______ ____

>  <TORSDO>
F 10

$$$$
=
 OpenBabel11072410543D

 40 41  0  0  1  0  0  0  0  0999 V2000
  161.6470  208.7370  152.9160 C   0  0  1  0  0  3  0  0  0  0  0  0
  161.0650  210.0890  153.2300 C   0  0  0  0  0  0  0  0  0  0  0  0
  160.0120  212.5770  153.8260 N   0  0  0  0  0  0  0  0  0  0  0  0
  160.4660  210.8640  152.2300 C   0  0  0  0  0  3  0  0  0  0  0  0
  161.7040  209.8670  155.5300 F   0  0  0  0  0  0  0  0  0  0  0  0
  159.9320  212.1230  152.5430 C   0  0  0  0  0  0  0  0  0  0  0  0
  161.1270  210.5880  154.5370 C   0  0  0  0  0  0  0  0  0  0  0  0
  160.5910  211.8450  154.8160 C   0  0  0  0  0  3  0  0  0  0  0  0
  159.3060  212.9310  151.5290 N   0  0  0  0  0  0  0  0  0  0  0  0
  157.8890  212.8750  151.3240 C   0  0  0  0  0  3  0  0  0  0  0  0
  157.3270  213.5900  150.4520 O   0  0  0  0  0  0  0  0  0  0  0  0
  160.1110  213.8490  150.7270 C   0  0  0  0  0  2  0  0  0  0  0  0
  161.5130  212.1750  149.2400 C   0  0  0  0  0  2  0  0  0  0  0  0
  160.4700  213.2200  149.4240 C   0  0  0  0  0  0  0  0  0  0  0  0
  161.4080  211.9040  147.8160 N   0  0  0  0  0  0  0  0  0  0  0  0
  160.4720  212.6640  147.3490 C   0  0  0  0  0  0  0  0  0  0  0  0
  159.8580  213.4950  148.3230 N   0  0  0  0  0  0  0  0  0  0  0  0
  160.9950  213.0850  144.9360 N   0  0  0  0  0  1  0  0  0  0  0  0
  158.9200  212.2920  145.6010 O   0  0  0  0  0  0  0  0  0  0  0  0
  160.0750  212.6620  145.9370 C   0  0  0  0  0  0  0  0  0  0  0  0
  159.8440  208.0990  154.3340 F   0  0  0  0  0  0  0  0  0  0  0  0
  160.9380  207.5970  153.6530 C   0  0  0  0  0  0  0  0  0  0  0  0
  161.7920  206.9900  154.5570 F   0  0  0  0  0  0  0  0  0  0  0  0
  160.4960  206.6540  152.7430 F   0  0  0  0  0  0  0  0  0  0  0  0
  161.7080  208.4840  151.4100 C   0  0  0  0  0  2  0  0  0  0  0  0
  162.6000  207.2920  151.0890 C   0  0  0  0  0  2  0  0  0  0  0  0
  162.7240  207.0850  149.5870 C   0  0  0  0  0  1  0  0  0  0  0  0
  160.2100  206.1620  146.2980 C   0  0  0  0  0  2  0  0  0  0  0  0
  160.0900  205.4550  149.4010 C   0  0  0  0  0  2  0  0  0  0  0  0
  161.3830  206.0120  147.2520 C   0  0  0  0  0  2  0  0  0  0  0  0
  160.2940  204.0010  144.5110 O   0  0  0  0  0  1  0  0  0  0  0  0
  161.0970  204.4240  149.8430 C   0  0  0  0  0  2  0  0  0  0  0  0
  162.4950  204.6080  144.9490 C   0  0  0  0  0  2  0  0  0  0  0  0
  160.7080  206.2490  144.8530 C   0  0  0  0  0  2  0  0  0  0  0  0
  161.2180  204.9790  144.3230 N   0  0  0  0  0  0  0  0  0  0  0  0
  160.0310  206.5030  150.2000 O   0  0  0  0  0  0  0  0  0  0  0  0
  161.6510  203.7030  148.6110 C   0  0  0  0  0  2  0  0  0  0  0  0
  161.8350  204.5580  147.3670 C   0  0  0  0  0  0  0  0  0  0  0  0
  162.3360  203.9390  146.2930 C   0  0  0  0  0  3  0  0  0  0  0  0
  161.0790  206.8680  148.8380 P   0  0  0  0  0  1  0  0  0  0  0  0
  1 25  1  6  0  0  0
  1  2  1  0  0  0  0
  1 22  1  0  0  0  0
  2  7  1  0  0  0  0
  3  8  1  0  0  0  0
  4  6  1  0  0  0  0
  4  2  2  0  0  0  0
  6  3  2  0  0  0  0
  7  8  2  0  0  0  0
  7  5  1  0  0  0  0
  9  6  1  0  0  0  0
 10  9  1  0  0  0  0
 11 10  2  0  0  0  0
 12  9  1  0  0  0  0
 13 14  1  0  0  0  0
 14 12  1  0  0  0  0
 15 13  1  0  0  0  0
 16 15  2  0  0  0  0
 16 17  1  0  0  0  0
 17 14  2  0  0  0  0
 18 20  1  0  0  0  0
 19 20  2  0  0  0  0
 20 16  1  0  0  0  0
 22 21  1  0  0  0  0
 22 23  1  0  0  0  0
 24 22  1  0  0  0  0
 26 25  1  0  0  0  0
 27 26  1  0  0  0  0
 28 30  1  0  0  0  0
 29 32  1  0  0  0  0
 29 36  1  0  0  0  0
 30 38  1  0  0  0  0
 33 39  1  0  0  0  0
 34 28  1  0  0  0  0
 35 31  1  0  0  0  0
 35 34  1  0  0  0  0
 35 33  1  0  0  0  0
 37 32  1  0  0  0  0
 38 37  1  0  0  0  0
 39 38  2  0  0  0  0
 40 36  1  0  0  0  0
M  END
>  <MODEL>
4

>  <REMARK>
 VINA RESULT:      -7.3      3.225      8.886
  Name = 
  10 active torsions:
  status: ('A' for Active; 'I' for Inactive)
    1  A    between atoms: N_3  and  C_14
    2  A    between atoms: N_3  and  C_30
    3  A    between atoms: C_8  and  C_21
    4  A    between atoms: C_11  and  C_22
    5  A    between atoms: C_11  and  P_37
    6  A    between atoms: C_13  and  C_21
    7  A    between atoms: C_13  and  C_22
    8  A    between atoms: C_14  and  C_19
    9  A    between atoms: C_21  and  C_27
   10  A    between atoms: C_26  and  C_38
                            x       y       z     vdW  Elec       q    Type
                         _______ _______ _______ _____ _____    ______ ____

>  <TORSDO>
F 10

$$$$
=
 OpenBabel11072410543D

 40 41  0  0  1  0  0  0  0  0999 V2000
  161.7250  207.5510  149.6870 C   0  0  1  0  0  3  0  0  0  0  0  0
  161.5340  206.9330  151.0460 C   0  0  0  0  0  0  0  0  0  0  0  0
  161.1970  205.7780  153.5370 N   0  0  0  0  0  0  0  0  0  0  0  0
  161.2630  207.7280  152.1650 C   0  0  0  0  0  3  0  0  0  0  0  0
  161.8990  204.7440  150.1390 F   0  0  0  0  0  0  0  0  0  0  0  0
  161.0900  207.1330  153.4240 C   0  0  0  0  0  0  0  0  0  0  0  0
  161.6340  205.5450  151.2010 C   0  0  0  0  0  0  0  0  0  0  0  0
  161.4620  204.9830  152.4650 C   0  0  0  0  0  3  0  0  0  0  0  0
  160.8050  207.9340  154.5860 N   0  0  0  0  0  0  0  0  0  0  0  0
  160.1610  207.3570  155.7280 C   0  0  0  0  0  3  0  0  0  0  0  0
  159.9200  208.0420  156.7580 O   0  0  0  0  0  0  0  0  0  0  0  0
  161.2110  209.3370  154.6230 C   0  0  0  0  0  2  0  0  0  0  0  0
  159.8710  210.6630  152.7730 C   0  0  0  0  0  2  0  0  0  0  0  0
  160.0910  210.2120  154.1740 C   0  0  0  0  0  0  0  0  0  0  0  0
  158.6440  211.4340  152.9030 N   0  0  0  0  0  0  0  0  0  0  0  0
  158.2880  211.3810  154.1450 C   0  0  0  0  0  0  0  0  0  0  0  0
  159.1620  210.6230  154.9680 N   0  0  0  0  0  0  0  0  0  0  0  0
  156.5250  211.6430  155.9040 N   0  0  0  0  0  1  0  0  0  0  0  0
  156.5330  212.9620  153.9970 O   0  0  0  0  0  0  0  0  0  0  0  0
  157.0830  212.0430  154.6570 C   0  0  0  0  0  0  0  0  0  0  0  0
  159.8810  206.2010  149.0200 F   0  0  0  0  0  0  0  0  0  0  0  0
  161.0710  206.7390  148.5650 C   0  0  0  0  0  0  0  0  0  0  0  0
  161.9030  205.7110  148.1540 F   0  0  0  0  0  0  0  0  0  0  0  0
  160.8000  207.5610  147.4870 F   0  0  0  0  0  0  0  0  0  0  0  0
  161.2750  209.0120  149.6610 C   0  0  0  0  0  2  0  0  0  0  0  0
  162.2520  209.8730  148.8720 C   0  0  0  0  0  2  0  0  0  0  0  0
  162.0660  211.3500  149.1890 C   0  0  0  0  0  1  0  0  0  0  0  0
  160.2240  212.8790  145.6880 C   0  0  0  0  0  2  0  0  0  0  0  0
  162.2110  214.1380  147.8350 C   0  0  0  0  0  2  0  0  0  0  0  0
  160.3520  212.5000  147.1540 C   0  0  0  0  0  2  0  0  0  0  0  0
  157.7450  214.1520  145.3600 O   0  0  0  0  0  1  0  0  0  0  0  0
  161.5750  214.4410  149.1680 C   0  0  0  0  0  2  0  0  0  0  0  0
  157.4420  212.4700  146.9370 C   0  0  0  0  0  2  0  0  0  0  0  0
  158.9830  212.2210  145.0770 C   0  0  0  0  0  2  0  0  0  0  0  0
  157.7160  212.8050  145.5310 N   0  0  0  0  0  0  0  0  0  0  0  0
  163.3700  213.5180  147.9380 O   0  0  0  0  0  0  0  0  0  0  0  0
  160.0530  214.4250  149.0130 C   0  0  0  0  0  2  0  0  0  0  0  0
  159.4930  213.3940  148.0460 C   0  0  0  0  0  0  0  0  0  0  0  0
  158.1620  213.3620  147.9190 C   0  0  0  0  0  3  0  0  0  0  0  0
  162.1010  212.3360  147.6590 P   0  0  0  0  0  1  0  0  0  0  0  0
  1 25  1  1  0  0  0
  1  2  1  0  0  0  0
  2  7  2  0  0  0  0
  2  4  1  0  0  0  0
  4  6  2  0  0  0  0
  5  7  1  0  0  0  0
  6  3  1  0  0  0  0
  6  9  1  0  0  0  0
  7  8  1  0  0  0  0
  8  3  2  0  0  0  0
  9 12  1  0  0  0  0
  9 10  1  0  0  0  0
 10 11  2  0  0  0  0
 13 15  1  0  0  0  0
 13 14  1  0  0  0  0
 14 12  1  0  0  0  0
 14 17  2  0  0  0  0
 15 16  2  0  0  0  0
 16 20  1  0  0  0  0
 16 17  1  0  0  0  0
 19 20  2  0  0  0  0
 20 18  1  0  0  0  0
 22 21  1  0  0  0  0
 22  1  1  0  0  0  0
 23 22  1  0  0  0  0
 24 22  1  0  0  0  0
 26 27  1  0  0  0  0
 26 25  1  0  0  0  0
 28 30  1  0  0  0  0
 29 36  1  0  0  0  0
 29 32  1  0  0  0  0
 30 38  1  0  0  0  0
 31 35  1  0  0  0  0
 33 39  1  0  0  0  0
 34 35  1  0  0  0  0
 34 28  1  0  0  0  0
 35 33  1  0  0  0  0
 37 32  1  0  0  0  0
 38 37  1  0  0  0  0
 39 38  2  0  0  0  0
 40 36  1  0  0  0  0
M  END
>  <MODEL>
5

>  <REMARK>
 VINA RESULT:      -7.2      4.114      8.188
  Name = 
  10 active torsions:
  status: ('A' for Active; 'I' for Inactive)
    1  A    between atoms: N_3  and  C_14
    2  A    between atoms: N_3  and  C_30
    3  A    between atoms: C_8  and  C_21
    4  A    between atoms: C_11  and  C_22
    5  A    between atoms: C_11  and  P_37
    6  A    between atoms: C_13  and  C_21
    7  A    between atoms: C_13  and  C_22
    8  A    between atoms: C_14  and  C_19
    9  A    between atoms: C_21  and  C_27
   10  A    between atoms: C_26  and  C_38
                            x       y       z     vdW  Elec       q    Type
                         _______ _______ _______ _____ _____    ______ ____

>  <TORSDO>
F 10

$$$$
=
 OpenBabel11072410543D

 40 41  0  0  1  0  0  0  0  0999 V2000
  161.6940  208.5110  151.3730 C   0  0  1  0  0  3  0  0  0  0  0  0
  161.4900  207.1990  152.0810 C   0  0  0  0  0  0  0  0  0  0  0  0
  161.1030  204.7990  153.4020 N   0  0  0  0  0  0  0  0  0  0  0  0
  161.3910  206.0010  151.3630 C   0  0  0  0  0  3  0  0  0  0  0  0
  161.4770  208.3090  154.2060 F   0  0  0  0  0  0  0  0  0  0  0  0
  161.1970  204.7890  152.0420 C   0  0  0  0  0  0  0  0  0  0  0  0
  161.3890  207.1690  153.4770 C   0  0  0  0  0  0  0  0  0  0  0  0
  161.1940  205.9480  154.1240 C   0  0  0  0  0  3  0  0  0  0  0  0
  161.0990  203.5470  151.3210 N   0  0  0  0  0  0  0  0  0  0  0  0
  161.9500  202.4430  151.6520 C   0  0  0  0  0  3  0  0  0  0  0  0
  161.8630  201.3450  151.0390 O   0  0  0  0  0  0  0  0  0  0  0  0
  160.0970  203.3910  150.2690 C   0  0  0  0  0  2  0  0  0  0  0  0
  160.9450  202.4710  147.9420 C   0  0  0  0  0  2  0  0  0  0  0  0
  160.7230  203.5650  148.9270 C   0  0  0  0  0  0  0  0  0  0  0  0
  161.5290  203.1970  146.8260 N   0  0  0  0  0  0  0  0  0  0  0  0
  161.5880  204.4430  147.1670 C   0  0  0  0  0  0  0  0  0  0  0  0
  161.0880  204.7130  148.4690 N   0  0  0  0  0  0  0  0  0  0  0  0
  162.4420  205.1810  144.9320 N   0  0  0  0  0  1  0  0  0  0  0  0
  162.2960  206.6560  146.7160 O   0  0  0  0  0  0  0  0  0  0  0  0
  162.1190  205.4870  146.2840 C   0  0  0  0  0  0  0  0  0  0  0  0
  161.9150  209.6010  149.2680 F   0  0  0  0  0  0  0  0  0  0  0  0
  161.8330  208.3530  149.8560 C   0  0  0  0  0  0  0  0  0  0  0  0
  160.7440  207.6780  149.3300 F   0  0  0  0  0  0  0  0  0  0  0  0
  162.9870  207.6500  149.5610 F   0  0  0  0  0  0  0  0  0  0  0  0
  160.6100  209.5250  151.7370 C   0  0  0  0  0  2  0  0  0  0  0  0
  161.2190  210.8720  152.1010 C   0  0  0  0  0  2  0  0  0  0  0  0
  160.4600  211.5300  153.2440 C   0  0  0  0  0  1  0  0  0  0  0  0
  156.3730  211.5030  154.3760 C   0  0  0  0  0  2  0  0  0  0  0  0
  158.0530  213.2510  152.3110 C   0  0  0  0  0  2  0  0  0  0  0  0
  157.8490  211.8560  154.4580 C   0  0  0  0  0  2  0  0  0  0  0  0
  155.0590  212.8900  156.4300 O   0  0  0  0  0  1  0  0  0  0  0  0
  158.9660  214.2650  152.9530 C   0  0  0  0  0  2  0  0  0  0  0  0
  157.1360  212.2540  157.2590 C   0  0  0  0  0  2  0  0  0  0  0  0
  155.9040  210.8710  155.6890 C   0  0  0  0  0  2  0  0  0  0  0  0
  155.8070  211.8200  156.8040 N   0  0  0  0  0  0  0  0  0  0  0  0
  158.6360  212.5570  151.3520 O   0  0  0  0  0  0  0  0  0  0  0  0
  158.5570  214.4530  154.4150 C   0  0  0  0  0  2  0  0  0  0  0  0
  158.0700  213.2060  155.1360 C   0  0  0  0  0  0  0  0  0  0  0  0
  157.7280  213.3600  156.4200 C   0  0  0  0  0  3  0  0  0  0  0  0
  158.6870  211.6390  152.8480 P   0  0  0  0  0  1  0  0  0  0  0  0
  1 25  1  6  0  0  0
  1  2  1  0  0  0  0
  2  7  1  0  0  0  0
  3  8  1  0  0  0  0
  4  6  1  0  0  0  0
  4  2  2  0  0  0  0
  6  3  2  0  0  0  0
  7  8  2  0  0  0  0
  7  5  1  0  0  0  0
  9 10  1  0  0  0  0
  9  6  1  0  0  0  0
 11 10  2  0  0  0  0
 12  9  1  0  0  0  0
 13 14  1  0  0  0  0
 14 12  1  0  0  0  0
 15 16  2  0  0  0  0
 15 13  1  0  0  0  0
 16 17  1  0  0  0  0
 17 14  2  0  0  0  0
 18 20  1  0  0  0  0
 20 19  2  0  0  0  0
 20 16  1  0  0  0  0
 21 22  1  0  0  0  0
 22  1  1  0  0  0  0
 23 22  1  0  0  0  0
 24 22  1  0  0  0  0
 25 26  1  0  0  0  0
 26 27  1  0  0  0  0
 28 30  1  0  0  0  0
 28 34  1  0  0  0  0
 29 32  1  0  0  0  0
 30 38  1  0  0  0  0
 31 35  1  0  0  0  0
 32 37  1  0  0  0  0
 34 35  1  0  0  0  0
 35 33  1  0  0  0  0
 36 29  1  0  0  0  0
 36 40  1  0  0  0  0
 37 38  1  0  0  0  0
 38 39  2  0  0  0  0
 39 33  1  0  0  0  0
M  END
>  <MODEL>
6

>  <REMARK>
 VINA RESULT:      -7.1      2.523      4.421
  Name = 
  10 active torsions:
  status: ('A' for Active; 'I' for Inactive)
    1  A    between atoms: N_3  and  C_14
    2  A    between atoms: N_3  and  C_30
    3  A    between atoms: C_8  and  C_21
    4  A    between atoms: C_11  and  C_22
    5  A    between atoms: C_11  and  P_37
    6  A    between atoms: C_13  and  C_21
    7  A    between atoms: C_13  and  C_22
    8  A    between atoms: C_14  and  C_19
    9  A    between atoms: C_21  and  C_27
   10  A    between atoms: C_26  and  C_38
                            x       y       z     vdW  Elec       q    Type
                         _______ _______ _______ _____ _____    ______ ____

>  <TORSDO>
F 10

$$$$
=
 OpenBabel11072410543D

 40 41  0  0  1  0  0  0  0  0999 V2000
  161.4980  208.4090  153.1560 C   0  0  1  0  0  3  0  0  0  0  0  0
  161.0690  209.7130  153.7720 C   0  0  0  0  0  0  0  0  0  0  0  0
  160.3010  212.1120  154.9160 N   0  0  0  0  0  0  0  0  0  0  0  0
  160.1610  210.5530  153.1170 C   0  0  0  0  0  3  0  0  0  0  0  0
  162.4710  209.3150  155.6760 F   0  0  0  0  0  0  0  0  0  0  0  0
  159.7750  211.7660  153.7060 C   0  0  0  0  0  0  0  0  0  0  0  0
  161.5860  210.1020  155.0130 C   0  0  0  0  0  0  0  0  0  0  0  0
  161.1870  211.3150  155.5730 C   0  0  0  0  0  3  0  0  0  0  0  0
  158.8380  212.6400  153.0500 N   0  0  0  0  0  0  0  0  0  0  0  0
  158.6370  212.5610  151.6330 C   0  0  0  0  0  3  0  0  0  0  0  0
  157.8080  213.3090  151.0490 O   0  0  0  0  0  0  0  0  0  0  0  0
  158.0520  213.5900  153.8350 C   0  0  0  0  0  2  0  0  0  0  0  0
  157.2900  213.2330  156.3390 C   0  0  0  0  0  2  0  0  0  0  0  0
  157.2840  212.8750  154.8950 C   0  0  0  0  0  0  0  0  0  0  0  0
  156.3590  212.2600  156.8860 N   0  0  0  0  0  0  0  0  0  0  0  0
  155.9380  211.5360  155.9000 C   0  0  0  0  0  0  0  0  0  0  0  0
  156.4880  211.8940  154.6400 N   0  0  0  0  0  0  0  0  0  0  0  0
  154.1960  210.3560  157.2570 N   0  0  0  0  0  1  0  0  0  0  0  0
  154.8270  209.5790  155.1650 O   0  0  0  0  0  0  0  0  0  0  0  0
  154.9720  210.4450  156.0670 C   0  0  0  0  0  0  0  0  0  0  0  0
  159.8720  207.5330  154.6580 F   0  0  0  0  0  0  0  0  0  0  0  0
  160.9990  207.1890  153.9360 C   0  0  0  0  0  0  0  0  0  0  0  0
  161.9730  206.7330  154.8090 F   0  0  0  0  0  0  0  0  0  0  0  0
  160.6680  206.1740  153.0570 F   0  0  0  0  0  0  0  0  0  0  0  0
  161.1160  208.3280  151.6780 C   0  0  0  0  0  2  0  0  0  0  0  0
  162.3510  208.3680  150.7880 C   0  0  0  0  0  2  0  0  0  0  0  0
  162.4540  207.1150  149.9310 C   0  0  0  0  0  1  0  0  0  0  0  0
  160.0600  206.2060  146.5500 C   0  0  0  0  0  2  0  0  0  0  0  0
  160.0860  205.1460  149.5540 C   0  0  0  0  0  2  0  0  0  0  0  0
  161.2550  206.1240  147.4860 C   0  0  0  0  0  2  0  0  0  0  0  0
  160.4380  204.2930  144.5320 O   0  0  0  0  0  1  0  0  0  0  0  0
  161.2390  204.2310  149.8810 C   0  0  0  0  0  2  0  0  0  0  0  0
  162.5320  205.1650  145.0440 C   0  0  0  0  0  2  0  0  0  0  0  0
  160.5220  206.5250  145.1270 C   0  0  0  0  0  2  0  0  0  0  0  0
  161.2060  205.4120  144.4580 N   0  0  0  0  0  0  0  0  0  0  0  0
  159.8840  206.0780  150.4660 O   0  0  0  0  0  0  0  0  0  0  0  0
  161.8760  203.7430  148.5780 C   0  0  0  0  0  2  0  0  0  0  0  0
  161.9170  204.7480  147.4390 C   0  0  0  0  0  0  0  0  0  0  0  0
  162.4890  204.3340  146.3030 C   0  0  0  0  0  3  0  0  0  0  0  0
  160.8490  206.7430  149.1570 P   0  0  0  0  0  1  0  0  0  0  0  0
  1 25  1  6  0  0  0
  1  2  1  0  0  0  0
  1 22  1  0  0  0  0
  2  7  1  0  0  0  0
  3  8  1  0  0  0  0
  4  6  1  0  0  0  0
  4  2  2  0  0  0  0
  6  3  2  0  0  0  0
  7  8  2  0  0  0  0
  7  5  1  0  0  0  0
  9  6  1  0  0  0  0
  9 12  1  0  0  0  0
 10  9  1  0  0  0  0
 11 10  2  0  0  0  0
 12 14  1  0  0  0  0
 13 15  1  0  0  0  0
 14 13  1  0  0  0  0
 16 20  1  0  0  0  0
 16 15  2  0  0  0  0
 17 14  2  0  0  0  0
 17 16  1  0  0  0  0
 19 20  2  0  0  0  0
 20 18  1  0  0  0  0
 22 21  1  0  0  0  0
 22 23  1  0  0  0  0
 24 22  1  0  0  0  0
 26 25  1  0  0  0  0
 27 26  1  0  0  0  0
 28 30  1  0  0  0  0
 29 32  1  0  0  0  0
 29 36  1  0  0  0  0
 33 39  1  0  0  0  0
 34 28  1  0  0  0  0
 35 31  1  0  0  0  0
 35 33  1  0  0  0  0
 35 34  1  0  0  0  0
 37 32  1  0  0  0  0
 38 30  1  0  0  0  0
 38 37  1  0  0  0  0
 39 38  2  0  0  0  0
 40 36  1  0  0  0  0
M  END
>  <MODEL>
7

>  <REMARK>
 VINA RESULT:      -7.1      2.964      9.526
  Name = 
  10 active torsions:
  status: ('A' for Active; 'I' for Inactive)
    1  A    between atoms: N_3  and  C_14
    2  A    between atoms: N_3  and  C_30
    3  A    between atoms: C_8  and  C_21
    4  A    between atoms: C_11  and  C_22
    5  A    between atoms: C_11  and  P_37
    6  A    between atoms: C_13  and  C_21
    7  A    between atoms: C_13  and  C_22
    8  A    between atoms: C_14  and  C_19
    9  A    between atoms: C_21  and  C_27
   10  A    between atoms: C_26  and  C_38
                            x       y       z     vdW  Elec       q    Type
                         _______ _______ _______ _____ _____    ______ ____

>  <TORSDO>
F 10

$$$$
=
 OpenBabel11072410543D

 40 41  0  0  1  0  0  0  0  0999 V2000
  161.6650  207.6540  149.5550 C   0  0  1  0  0  3  0  0  0  0  0  0
  161.4680  207.9900  151.0090 C   0  0  0  0  0  0  0  0  0  0  0  0
  161.1230  208.5910  153.6880 N   0  0  0  0  0  0  0  0  0  0  0  0
  161.0840  209.2770  151.4040 C   0  0  0  0  0  3  0  0  0  0  0  0
  162.0550  205.7530  151.6420 F   0  0  0  0  0  0  0  0  0  0  0  0
  160.9080  209.5710  152.7640 C   0  0  0  0  0  0  0  0  0  0  0  0
  161.6780  207.0100  151.9860 C   0  0  0  0  0  0  0  0  0  0  0  0
  161.5000  207.3330  153.3310 C   0  0  0  0  0  3  0  0  0  0  0  0
  160.5080  210.8870  153.1880 N   0  0  0  0  0  0  0  0  0  0  0  0
  159.9510  211.8180  152.2500 C   0  0  0  0  0  3  0  0  0  0  0  0
  159.5810  212.9660  152.6120 O   0  0  0  0  0  0  0  0  0  0  0  0
  160.6270  211.2700  154.5930 C   0  0  0  0  0  2  0  0  0  0  0  0
  158.9480  212.8610  155.8690 C   0  0  0  0  0  2  0  0  0  0  0  0
  159.2860  211.5990  155.1560 C   0  0  0  0  0  0  0  0  0  0  0  0
  157.5340  212.6680  156.1500 N   0  0  0  0  0  0  0  0  0  0  0  0
  157.1990  211.5190  155.6610 C   0  0  0  0  0  0  0  0  0  0  0  0
  158.2650  210.8250  155.0270 N   0  0  0  0  0  0  0  0  0  0  0  0
  155.0720  211.1660  156.9330 N   0  0  0  0  0  1  0  0  0  0  0  0
  155.3380  210.3530  154.7780 O   0  0  0  0  0  0  0  0  0  0  0  0
  155.8370  210.9820  155.7470 C   0  0  0  0  0  0  0  0  0  0  0  0
  160.2970  206.6830  147.8660 F   0  0  0  0  0  0  0  0  0  0  0  0
  160.8480  206.4380  149.1100 C   0  0  0  0  0  0  0  0  0  0  0  0
  159.8300  206.1730  150.0100 F   0  0  0  0  0  0  0  0  0  0  0  0
  161.6710  205.3290  149.0170 F   0  0  0  0  0  0  0  0  0  0  0  0
  161.4120  208.8630  148.6560 C   0  0  0  0  0  2  0  0  0  0  0  0
  162.5060  209.9100  148.8220 C   0  0  0  0  0  2  0  0  0  0  0  0
  161.9170  211.2830  149.1080 C   0  0  0  0  0  1  0  0  0  0  0  0
  160.1250  212.9780  145.6580 C   0  0  0  0  0  2  0  0  0  0  0  0
  162.1270  214.1160  147.8590 C   0  0  0  0  0  2  0  0  0  0  0  0
  160.2380  212.5430  147.1090 C   0  0  0  0  0  2  0  0  0  0  0  0
  157.6750  214.3140  145.3670 O   0  0  0  0  0  1  0  0  0  0  0  0
  161.4900  214.3830  149.1990 C   0  0  0  0  0  2  0  0  0  0  0  0
  157.3300  212.5820  146.8790 C   0  0  0  0  0  2  0  0  0  0  0  0
  158.8750  212.3700  145.0180 C   0  0  0  0  0  2  0  0  0  0  0  0
  157.6170  212.9620  145.4880 N   0  0  0  0  0  0  0  0  0  0  0  0
  163.2730  213.4680  147.9450 O   0  0  0  0  0  0  0  0  0  0  0  0
  159.9690  214.4040  149.0370 C   0  0  0  0  0  2  0  0  0  0  0  0
  159.3930  213.4210  148.0300 C   0  0  0  0  0  0  0  0  0  0  0  0
  158.0630  213.4220  147.8970 C   0  0  0  0  0  3  0  0  0  0  0  0
  161.9810  212.3240  147.6160 P   0  0  0  0  0  1  0  0  0  0  0  0
  1 25  1  6  0  0  0
  1  2  1  0  0  0  0
  2  4  2  0  0  0  0
  2  7  1  0  0  0  0
  4  6  1  0  0  0  0
  5  7  1  0  0  0  0
  6  9  1  0  0  0  0
  6  3  2  0  0  0  0
  7  8  2  0  0  0  0
  8  3  1  0  0  0  0
  9 12  1  0  0  0  0
 10 11  2  0  0  0  0
 10  9  1  0  0  0  0
 12 14  1  0  0  0  0
 13 15  1  0  0  0  0
 14 13  1  0  0  0  0
 16 20  1  0  0  0  0
 16 15  2  0  0  0  0
 17 14  2  0  0  0  0
 17 16  1  0  0  0  0
 19 20  2  0  0  0  0
 20 18  1  0  0  0  0
 21 22  1  0  0  0  0
 22  1  1  0  0  0  0
 22 23  1  0  0  0  0
 24 22  1  0  0  0  0
 25 26  1  0  0  0  0
 26 27  1  0  0  0  0
 28 30  1  0  0  0  0
 29 36  1  0  0  0  0
 29 32  1  0  0  0  0
 30 38  1  0  0  0  0
 31 35  1  0  0  0  0
 33 39  1  0  0  0  0
 34 35  1  0  0  0  0
 34 28  1  0  0  0  0
 35 33  1  0  0  0  0
 37 32  1  0  0  0  0
 38 37  1  0  0  0  0
 39 38  2  0  0  0  0
 40 36  1  0  0  0  0
M  END
>  <MODEL>
8

>  <REMARK>
 VINA RESULT:      -6.6      4.488      8.417
  Name = 
  10 active torsions:
  status: ('A' for Active; 'I' for Inactive)
    1  A    between atoms: N_3  and  C_14
    2  A    between atoms: N_3  and  C_30
    3  A    between atoms: C_8  and  C_21
    4  A    between atoms: C_11  and  C_22
    5  A    between atoms: C_11  and  P_37
    6  A    between atoms: C_13  and  C_21
    7  A    between atoms: C_13  and  C_22
    8  A    between atoms: C_14  and  C_19
    9  A    between atoms: C_21  and  C_27
   10  A    between atoms: C_26  and  C_38
                            x       y       z     vdW  Elec       q    Type
                         _______ _______ _______ _____ _____    ______ ____

>  <TORSDO>
F 10

$$$$
=
 OpenBabel11072410543D

 40 41  0  0  1  0  0  0  0  0999 V2000
  161.8610  209.6740  151.0210 C   0  0  1  0  0  3  0  0  0  0  0  0
  161.6880  208.2520  150.5600 C   0  0  0  0  0  0  0  0  0  0  0  0
  161.3570  205.6330  149.7330 N   0  0  0  0  0  0  0  0  0  0  0  0
  161.6040  207.9440  149.1970 C   0  0  0  0  0  3  0  0  0  0  0  0
  161.6740  207.4810  152.8300 F   0  0  0  0  0  0  0  0  0  0  0  0
  161.4390  206.6120  148.7880 C   0  0  0  0  0  0  0  0  0  0  0  0
  161.6000  207.2200  151.5010 C   0  0  0  0  0  0  0  0  0  0  0  0
  161.4330  205.9060  151.0630 C   0  0  0  0  0  3  0  0  0  0  0  0
  161.3570  206.2750  147.3900 N   0  0  0  0  0  0  0  0  0  0  0  0
  160.3250  206.8330  146.5660 C   0  0  0  0  0  3  0  0  0  0  0  0
  160.2520  206.5600  145.3380 O   0  0  0  0  0  0  0  0  0  0  0  0
  162.3540  205.3910  146.7920 C   0  0  0  0  0  2  0  0  0  0  0  0
  161.4360  203.2670  145.5160 C   0  0  0  0  0  2  0  0  0  0  0  0
  161.8450  203.9900  146.7520 C   0  0  0  0  0  0  0  0  0  0  0  0
  161.0780  201.9610  146.0470 N   0  0  0  0  0  0  0  0  0  0  0  0
  161.2780  201.9980  147.3240 C   0  0  0  0  0  0  0  0  0  0  0  0
  161.7620  203.2450  147.8010 N   0  0  0  0  0  0  0  0  0  0  0  0
  160.2040  200.9960  149.3520 N   0  0  0  0  0  1  0  0  0  0  0  0
  161.5490  199.7320  147.9490 O   0  0  0  0  0  0  0  0  0  0  0  0
  161.0300  200.8500  148.2030 C   0  0  0  0  0  0  0  0  0  0  0  0
  161.1680  211.7510  150.0860 F   0  0  0  0  0  0  0  0  0  0  0  0
  161.9940  210.6650  149.8610 C   0  0  0  0  0  0  0  0  0  0  0  0
  161.6380  210.0690  148.6630 F   0  0  0  0  0  0  0  0  0  0  0  0
  163.2990  211.1130  149.7740 F   0  0  0  0  0  0  0  0  0  0  0  0
  160.7600  210.0910  151.9960 C   0  0  0  0  0  2  0  0  0  0  0  0
  161.3010  211.0260  153.0690 C   0  0  0  0  0  2  0  0  0  0  0  0
  162.1650  210.2750  154.0710 C   0  0  0  0  0  1  0  0  0  0  0  0
  159.9680  212.6070  156.8510 C   0  0  0  0  0  2  0  0  0  0  0  0
  161.2100  209.6760  156.9630 C   0  0  0  0  0  2  0  0  0  0  0  0
  160.1950  211.6600  155.6850 C   0  0  0  0  0  2  0  0  0  0  0  0
  157.1980  212.8210  157.2380 O   0  0  0  0  0  1  0  0  0  0  0  0
  160.4660  208.6540  156.1410 C   0  0  0  0  0  2  0  0  0  0  0  0
  157.5540  212.6580  154.9460 C   0  0  0  0  0  2  0  0  0  0  0  0
  159.1200  213.8010  156.4080 C   0  0  0  0  0  2  0  0  0  0  0  0
  157.7110  213.4710  156.1610 N   0  0  0  0  0  0  0  0  0  0  0  0
  162.5180  209.6280  156.7960 O   0  0  0  0  0  0  0  0  0  0  0  0
  159.0860  209.2080  155.7810 C   0  0  0  0  0  2  0  0  0  0  0  0
  159.0210  210.7010  155.5000 C   0  0  0  0  0  0  0  0  0  0  0  0
  157.8210  211.1890  155.1660 C   0  0  0  0  0  3  0  0  0  0  0  0
  161.8440  210.8760  155.7600 P   0  0  0  0  0  1  0  0  0  0  0  0
  1 25  1  6  0  0  0
  2  1  1  0  0  0  0
  2  7  1  0  0  0  0
  3  8  1  0  0  0  0
  4  2  2  0  0  0  0
  6  4  1  0  0  0  0
  6  3  2  0  0  0  0
  7  5  1  0  0  0  0
  8  7  2  0  0  0  0
  9  6  1  0  0  0  0
 10  9  1  0  0  0  0
 11 10  2  0  0  0  0
 12  9  1  0  0  0  0
 13 15  1  0  0  0  0
 13 14  1  0  0  0  0
 14 12  1  0  0  0  0
 14 17  2  0  0  0  0
 15 16  2  0  0  0  0
 16 17  1  0  0  0  0
 16 20  1  0  0  0  0
 19 20  2  0  0  0  0
 20 18  1  0  0  0  0
 22 21  1  0  0  0  0
 22  1  1  0  0  0  0
 23 22  1  0  0  0  0
 24 22  1  0  0  0  0
 25 26  1  0  0  0  0
 26 27  1  0  0  0  0
 30 28  1  0  0  0  0
 32 29  1  0  0  0  0
 33 39  1  0  0  0  0
 33 35  1  0  0  0  0
 34 28  1  0  0  0  0
 35 34  1  0  0  0  0
 35 31  1  0  0  0  0
 36 29  1  0  0  0  0
 37 32  1  0  0  0  0
 38 30  1  0  0  0  0
 38 37  1  0  0  0  0
 39 38  2  0  0  0  0
 40 36  1  0  0  0  0
M  END
>  <MODEL>
9

>  <REMARK>
 VINA RESULT:      -6.6      1.727      2.983
  Name = 
  10 active torsions:
  status: ('A' for Active; 'I' for Inactive)
    1  A    between atoms: N_3  and  C_14
    2  A    between atoms: N_3  and  C_30
    3  A    between atoms: C_8  and  C_21
    4  A    between atoms: C_11  and  C_22
    5  A    between atoms: C_11  and  P_37
    6  A    between atoms: C_13  and  C_21
    7  A    between atoms: C_13  and  C_22
    8  A    between atoms: C_14  and  C_19
    9  A    between atoms: C_21  and  C_27
   10  A    between atoms: C_26  and  C_38
                            x       y       z     vdW  Elec       q    Type
                         _______ _______ _______ _____ _____    ______ ____

>  <TORSDO>
F 10

$$$$
